AV-unprocessed.smi:1529|AV-procd|sdf|6152|dock4
  -GOLD-   22720 6303D 1   1.00000     0.00000
 Structure written by MMmdl.
 50 51  0  0  0  0  0  0  0  0  1 V2000
  145.4563  134.7406  151.1480 C   0  0  0  0  0  0  0  0  0  0  0  0
  145.3195  136.1916  151.5971 C   0  0  0  0  0  0  0  0  0  0  0  0
  144.2598  136.5926  152.0775 O   0  0  0  0  0  0  0  0  0  0  0  0
  146.4015  136.9676  151.4332 N   0  0  0  0  0  0  0  0  0  0  0  0
  146.4837  138.3802  151.7912 C   0  0  0  0  0  0  0  0  0  0  0  0
  147.1154  138.6044  153.1772 C   0  0  0  0  0  0  0  0  0  0  0  0
  147.3691  140.0868  153.5068 C   0  0  0  0  0  0  0  0  0  0  0  0
  148.3303  140.2354  154.5927 N   0  0  0  0  0  0  0  0  0  0  0  0
  149.1145  141.3083  154.7871 C   0  0  0  0  0  0  0  0  0  0  0  0
  149.1191  142.2900  154.0439 O   0  0  0  0  0  0  0  0  0  0  0  0
  150.0619  141.2191  155.9484 C   0  0  0  0  0  0  0  0  0  0  0  0
  150.4104  139.9675  156.4974 C   0  0  0  0  0  0  0  0  0  0  0  0
  151.3180  139.9177  157.5727 C   0  0  0  0  0  0  0  0  0  0  0  0
  151.8640  141.1232  158.0733 C   0  0  0  0  0  0  0  0  0  0  0  0
  152.7716  141.0972  159.1544 N   0  0  0  0  0  0  0  0  0  0  0  0
  152.4981  141.9637  160.2991 C   0  0  0  0  0  0  0  0  0  0  0  0
  153.7217  142.0271  161.2316 C   0  0  1  0  0  0  0  0  0  0  0  0
  153.4339  142.8305  162.5043 C   0  0  0  0  0  0  0  0  0  0  0  0
  154.0878  140.7033  161.6112 O   0  0  0  0  0  0  0  0  0  0  0  0
  154.4601  139.9003  160.4944 C   0  0  1  0  0  0  0  0  0  0  0  0
  154.9235  138.5365  161.0169 C   0  0  0  0  0  0  0  0  0  0  0  0
  153.2601  139.7750  159.5367 C   0  0  0  0  0  0  0  0  0  0  0  0
  151.5428  142.3239  157.5316 N   0  0  0  0  0  0  0  0  0  0  0  0
  150.6720  142.3669  156.5012 C   0  0  0  0  0  0  0  0  0  0  0  0
  145.7540  134.6915  150.1001 H   0  0  0  0  0  0  0  0  0  0  0  0
  144.5102  134.2094  151.2589 H   0  0  0  0  0  0  0  0  0  0  0  0
  146.2088  134.2267  151.7464 H   0  0  0  0  0  0  0  0  0  0  0  0
  147.2290  136.5495  151.0328 H   0  0  0  0  0  0  0  0  0  0  0  0
  147.0488  138.9215  151.0307 H   0  0  0  0  0  0  0  0  0  0  0  0
  145.4752  138.7944  151.7746 H   0  0  0  0  0  0  0  0  0  0  0  0
  146.4806  138.1624  153.9467 H   0  0  0  0  0  0  0  0  0  0  0  0
  148.0588  138.0583  153.2172 H   0  0  0  0  0  0  0  0  0  0  0  0
  147.7153  140.6221  152.6208 H   0  0  0  0  0  0  0  0  0  0  0  0
  146.4420  140.5688  153.8175 H   0  0  0  0  0  0  0  0  0  0  0  0
  148.4114  139.4636  155.2387 H   0  0  0  0  0  0  0  0  0  0  0  0
  149.9909  139.0518  156.1059 H   0  0  0  0  0  0  0  0  0  0  0  0
  151.5941  138.9598  157.9874 H   0  0  0  0  0  0  0  0  0  0  0  0
  152.2517  142.9701  159.9576 H   0  0  0  0  0  0  0  0  0  0  0  0
  151.6316  141.5807  160.8404 H   0  0  0  0  0  0  0  0  0  0  0  0
  154.5582  142.4943  160.7087 H   0  0  0  0  0  0  0  0  0  0  0  0
  153.1582  143.8579  162.2659 H   0  0  0  0  0  0  0  0  0  0  0  0
  154.3113  142.8635  163.1506 H   0  0  0  0  0  0  0  0  0  0  0  0
  152.6167  142.3874  163.0745 H   0  0  0  0  0  0  0  0  0  0  0  0
  155.2956  140.3739  159.9756 H   0  0  0  0  0  0  0  0  0  0  0  0
  155.2317  137.8861  160.1979 H   0  0  0  0  0  0  0  0  0  0  0  0
  154.1264  138.0319  161.5637 H   0  0  0  0  0  0  0  0  0  0  0  0
  155.7727  138.6459  161.6917 H   0  0  0  0  0  0  0  0  0  0  0  0
  152.4483  139.2300  160.0205 H   0  0  0  0  0  0  0  0  0  0  0  0
  153.5593  139.1904  158.6679 H   0  0  0  0  0  0  0  0  0  0  0  0
  150.4657  143.3529  156.1111 H   0  0  0  0  0  0  0  0  0  0  0  0
  1  2  1  0  0  0  0
  1 25  1  0  0  0  0
  1 26  1  0  0  0  0
  1 27  1  0  0  0  0
  2  3  2  0  0  0  0
  2  4  1  0  0  0  0
  4  5  1  0  0  0  0
  4 28  1  0  0  0  0
  5  6  1  0  0  0  0
  5 29  1  0  0  0  0
  5 30  1  0  0  0  0
  6  7  1  0  0  0  0
  6 31  1  0  0  0  0
  6 32  1  0  0  0  0
  7  8  1  0  0  0  0
  7 33  1  0  0  0  0
  7 34  1  0  0  0  0
  8  9  1  0  0  0  0
  8 35  1  0  0  0  0
  9 10  2  0  0  0  0
  9 11  1  0  0  0  0
 11 24  1  0  0  0  0
 11 12  2  0  0  0  0
 12 13  1  0  0  0  0
 12 36  1  0  0  0  0
 13 14  2  0  0  0  0
 13 37  1  0  0  0  0
 14 15  1  0  0  0  0
 14 23  1  0  0  0  0
 15 22  1  0  0  0  0
 15 16  1  0  0  0  0
 16 17  1  0  0  0  0
 16 38  1  0  0  0  0
 16 39  1  0  0  0  0
 17 18  1  0  0  0  0
 17 19  1  0  0  0  0
 17 40  1  0  0  0  0
 18 41  1  0  0  0  0
 18 42  1  0  0  0  0
 18 43  1  0  0  0  0
 19 20  1  0  0  0  0
 20 21  1  0  0  0  0
 20 22  1  0  0  0  0
 20 44  1  0  0  0  0
 21 45  1  0  0  0  0
 21 46  1  0  0  0  0
 21 47  1  0  0  0  0
 22 48  1  0  0  0  0
 22 49  1  0  0  0  0
 23 24  2  0  0  0  0
 24 50  1  0  0  0  0
M  END
> <s_m_source_file>
AV-unprocessed.smi

> <i_m_source_file_index>
1529

> <i_lp_mmshare_version>
43012

> <i_f3d_flags>
0

> <s_epik_input>
W0NIM11DKD1PKVtOSF1bQ0gyXVtDSDJdW0NIMl1bTkhdQyg9TyljMVtjSF1bY0hdYyhuW2NIXTEpTjJbQ0gyXVtDQEBIXShbQ0gzXSlPW0NAQEhdKFtDSDNdKVtDSDJdMg==

> <s_epik_cmdline>
J2VwaWtfcHl0aG9uJywgJy1waCcsICc3LjAnLCAnLXRuJywgJzgnLCAnLW1hJywgJzIwMCcsICctbWV0YWxfYmluZGluZycsICctaW1hZScsICc8aW5maWxlLm1hZT4nLCAnLW9tYWUnLCAnPG91dGZpbGUubWFlPic=

> <r_lp_tautomer_probability>
1

> <r_epik_Ionization_Penalty>
2.1474e-05

> <r_epik_Ionization_Penalty_Charging>
0

> <r_epik_Ionization_Penalty_Neutral>
2.1474e-05

> <r_epik_State_Penalty>
-0

> <r_epik_Charging_Adjusted_Penalty>
0

> <i_epik_Tot_Q>
0

> <i_epik_Tot_abs_Q>
0

> <r_epik_Metal_State_Penalty>
-0

> <b_epik_Metal_Only>
0

> <s_lp_Force_Field>
OPLS_2005

> <r_lp_Energy>
16.5769

> <b_lp_Chiralities_Consistent>
1

> <s_lp_Variant>
AV-unprocessed.smi:1529-1

> <Gold.Version>
5.8.1

> <Gold.Id.Protein>
6NUR|6NUR_protein|mol2

> <Gold.PLP.Fitness>
45.6962

> <Gold.PLP.PLP>
-41.4760

> <Gold.PLP.part.hbond>
-1.8311

> <Gold.PLP.part.metal>
0.0000

> <Gold.PLP.part.buried>
-3.3183

> <Gold.PLP.part.nonpolar>
-38.0333

> <Gold.PLP.part.repulsive>
3.2195

> <Gold.PLP.ligand.clash>
0.0000

> <Gold.PLP.ligand.torsion>
0.7845

> <Gold.PLP.Chemscore.Hbond>
0.8000

> <Gold.PLP.Chemscore.CHOScore>
1.0000

> <Gold.PLP.Chemscore.Metal>
0.0000

> <Gold.Chemscore.Hbonds>
donor molecule, donor type, donor heavy atom, donor atom, acceptor molecule, acceptor atom, score
      L1  H     4    28       P1  7948  0.61
      P1  H  8011  8017       L1    10  0.24
      L1  C    24    50       P1  8028  1.00

> <Gold.PLP.Chemscore.Internal.Correction>
0.3893

> <Gold.Rescore>
     Score         DG    S(hbond)    S(metal)    S(lipo)     H(rot)  DE(clash)    DE(int)     intcor
     12.87     -15.30       0.92        0.00     103.06       2.07       1.72       0.71       ----

> <Gold.Chemscore.Fitness>
12.8748

> <Gold.Chemscore.DG>
-15.3009

> <Gold.Chemscore.ZeroCoef>
-5.4800

> <Gold.Chemscore.Hbond>
0.9179

> <Gold.Chemscore.Metal>
0.0000

> <Gold.Chemscore.Lipo>
103.0560

> <Gold.Chemscore.Internal_Hbond>
0.0000

> <Gold.Chemscore.DEClash>
1.7163

> <Gold.Chemscore.DEInternal>
0.7097

> <Gold.Chemscore.Rot>
2.0713

> <Gold.Chemscore.Internal.Correction>
   9.000000E+99

> <Gold.Chemscore.Hbonds>
donor molecule, donor type, donor heavy atom, donor atom, acceptor molecule, acceptor atom, score
      L1  H     4    28       P1  7948  0.62
      P1  H  8011  8017       L1    10  0.24

> <Gold.Chemscore.Hbond.Weighted>
-3.0658

> <Gold.Chemscore.Metal.Weighted>
-0.0000

> <Gold.Chemscore.Lipo.Weighted>
-12.0575

> <Gold.Chemscore.Internal_Hbond.Weighted>
0.0000

> <Gold.Chemscore.DEClash.Weighted>
1.7163

> <Gold.Chemscore.DEInternal.Weighted>
0.7097

> <Gold.Chemscore.Rot.Weighted>
5.3025

> <Gold.Chemscore.Internal.Correction.Weighted>
   9.000000E+99

> <Gold.Protein.RotatedTorsions>
[ 6907 6896 6895 6894 ] final   75.26 input  -60.11 | X-H torsion
[ 7974 7965 7964 7962 ] final   50.51 input  175.53 | X-H torsion
[ 8008 7997 7996 7995 ] final  136.27 input   59.86 | X-H torsion
[ 10167 10162 10161 10158 ] final -149.99 input  -65.29 | X-H torsion
[ 10718 10713 10712 10709 ] final  142.99 input   66.30 | X-H torsion
[ 10763 10752 10751 10750 ] final  -66.23 input  -60.55 | X-H torsion
[ 11005 11000 10999 10996 ] final  139.54 input  -57.11 | X-H torsion

> <Gold.Protein.ActiveResidues>
 VAL166  LYS551  ARG553  GLY616  TRP617  ASP618  TYR619  PRO620  LYS621  CYS622 
 ASP623  PHE694  ASN695  SER759  ASP760  ASP761  ALA762  ILE779  LEU786  VAL792 
 PHE793  MET794  SER795  GLU796  ALA797  LYS798  CYS799  TRP800  GLU811  SER814 

> <Gold.Protein.RotatedAtoms>
  152.5017  134.4147  159.9460 H   0  0  0  0  0  0  0  0  0  0  0  0  # atno 6907 bound_to 6896
  151.4117  133.3719  159.2752 H   0  0  0  0  0  0  0  0  0  0  0  0  # atno 6908 bound_to 6896
  150.9287  134.8725  159.7596 H   0  0  0  0  0  0  0  0  0  0  0  0  # atno 6909 bound_to 6896
  146.0004  139.4433  143.0018 H   0  0  0  0  0  0  0  0  0  0  0  0  # atno 7974 bound_to 7965
  156.3004  140.2449  156.3718 H   0  0  0  0  0  0  0  0  0  0  0  0  # atno 8008 bound_to 7997
  154.8782  140.0413  157.1785 H   0  0  0  0  0  0  0  0  0  0  0  0  # atno 8009 bound_to 7997
  154.8724  140.2937  155.5477 H   0  0  0  0  0  0  0  0  0  0  0  0  # atno 8010 bound_to 7997
  139.7394  143.8686  152.2558 H   0  0  0  0  0  0  0  0  0  0  0  0  # atno 10167 bound_to 10162
  157.3742  131.0983  151.0800 H   0  0  0  0  0  0  0  0  0  0  0  0  # atno 10718 bound_to 10713
  154.3568  135.6124  153.5670 H   0  0  0  0  0  0  0  0  0  0  0  0  # atno 10763 bound_to 10752
  152.9795  135.5805  154.4679 H   0  0  0  0  0  0  0  0  0  0  0  0  # atno 10764 bound_to 10752
  154.4410  135.2850  155.1825 H   0  0  0  0  0  0  0  0  0  0  0  0  # atno 10765 bound_to 10752
  140.0262  134.9373  157.0573 H   0  0  0  0  0  0  0  0  0  0  0  0  # atno 11005 bound_to 11000
  145.7496  140.9977  143.1258 LP  0  0  0  0  0  0  0  0  0  0  0  0  # atno 17320 bound_to 7965
  144.6917  139.9198  143.7467 LP  0  0  0  0  0  0  0  0  0  0  0  0  # atno 17321 bound_to 7965
  139.8632  144.7106  150.9075 LP  0  0  0  0  0  0  0  0  0  0  0  0  # atno 17342 bound_to 10162
  140.7783  143.3800  151.1494 LP  0  0  0  0  0  0  0  0  0  0  0  0  # atno 17343 bound_to 10162
  157.1892  130.6344  149.5698 LP  0  0  0  0  0  0  0  0  0  0  0  0  # atno 17370 bound_to 10713
  155.9762  130.4727  150.6510 LP  0  0  0  0  0  0  0  0  0  0  0  0  # atno 17371 bound_to 10713
  140.4302  134.1788  155.7168 LP  0  0  0  0  0  0  0  0  0  0  0  0  # atno 17394 bound_to 11000
  141.1804  133.8426  157.1277 LP  0  0  0  0  0  0  0  0  0  0  0  0  # atno 17395 bound_to 11000

$$$$
