AV-unprocessed.smi:2327|AV-procd|sdf|9299|dock8
  -GOLD-   2272012523D 1   1.00000     0.00000
 Structure written by MMmdl.
 40 41  0  0  0  0  0  0  0  0  1 V2000
  145.3031  144.5896  152.7821 C   0  0  0  0  0  0  0  0  0  0  0  0
  145.6640  143.5851  153.8305 C   0  0  0  0  0  0  0  0  0  0  0  0
  145.2078  143.5385  155.1241 C   0  0  0  0  0  0  0  0  0  0  0  0
  145.8912  142.2001  156.0055 S   0  0  0  0  0  0  0  0  0  0  0  0
  146.7856  141.7434  154.5595 C   0  0  0  0  0  0  0  0  0  0  0  0
  147.7331  140.5835  154.5131 C   0  0  1  0  0  0  0  0  0  0  0  0
  147.2868  139.5150  153.5048 C   0  0  0  0  0  0  0  0  0  0  0  0
  149.2040  141.0095  154.3246 C   0  0  0  0  0  0  0  0  0  0  0  0
  149.5847  142.0786  155.2451 N   0  0  0  0  0  0  0  0  0  0  0  0
  150.5264  141.9971  156.2009 C   0  0  0  0  0  0  0  0  0  0  0  0
  151.1618  140.9737  156.4460 O   0  0  0  0  0  0  0  0  0  0  0  0
  150.7268  143.1352  156.8890 N   0  0  0  0  0  0  0  0  0  0  0  0
  151.6690  143.3807  157.9826 C   0  0  0  0  0  0  0  0  0  0  0  0
  151.6419  142.1953  158.9596 C   0  0  0  0  0  0  0  0  0  0  0  0
  152.5056  142.4863  160.1977 C   0  0  0  0  0  0  0  0  0  0  0  0
  152.0676  143.6853  160.8274 O   0  0  0  0  0  0  0  0  0  0  0  0
  152.1969  144.8293  159.9905 C   0  0  0  0  0  0  0  0  0  0  0  0
  151.3128  144.6708  158.7431 C   0  0  0  0  0  0  0  0  0  0  0  0
  146.5589  142.5570  153.5238 N   0  0  0  0  0  0  0  0  0  0  0  0
  144.5862  145.3197  153.1582 H   0  0  0  0  0  0  0  0  0  0  0  0
  144.8565  144.1071  151.9125 H   0  0  0  0  0  0  0  0  0  0  0  0
  146.1832  145.1361  152.4423 H   0  0  0  0  0  0  0  0  0  0  0  0
  144.5156  144.2088  155.6114 H   0  0  0  0  0  0  0  0  0  0  0  0
  147.6763  140.1111  155.4948 H   0  0  0  0  0  0  0  0  0  0  0  0
  146.2769  139.1664  153.7231 H   0  0  0  0  0  0  0  0  0  0  0  0
  147.9484  138.6490  153.5321 H   0  0  0  0  0  0  0  0  0  0  0  0
  147.2925  139.9043  152.4862 H   0  0  0  0  0  0  0  0  0  0  0  0
  149.8615  140.1591  154.5055 H   0  0  0  0  0  0  0  0  0  0  0  0
  149.3753  141.3096  153.2893 H   0  0  0  0  0  0  0  0  0  0  0  0
  149.1122  142.9630  155.1287 H   0  0  0  0  0  0  0  0  0  0  0  0
  150.1249  143.9107  156.6514 H   0  0  0  0  0  0  0  0  0  0  0  0
  152.6821  143.4626  157.5838 H   0  0  0  0  0  0  0  0  0  0  0  0
  150.6169  141.9998  159.2786 H   0  0  0  0  0  0  0  0  0  0  0  0
  151.9930  141.2892  158.4646 H   0  0  0  0  0  0  0  0  0  0  0  0
  152.4249  141.6660  160.9110 H   0  0  0  0  0  0  0  0  0  0  0  0
  153.5593  142.5694  159.9267 H   0  0  0  0  0  0  0  0  0  0  0  0
  151.8947  145.7128  160.5530 H   0  0  0  0  0  0  0  0  0  0  0  0
  153.2418  144.9723  159.7107 H   0  0  0  0  0  0  0  0  0  0  0  0
  151.4257  145.5426  158.0983 H   0  0  0  0  0  0  0  0  0  0  0  0
  150.2658  144.6433  159.0484 H   0  0  0  0  0  0  0  0  0  0  0  0
  1  2  1  0  0  0  0
  1 20  1  0  0  0  0
  1 21  1  0  0  0  0
  1 22  1  0  0  0  0
  2 19  1  0  0  0  0
  2  3  2  0  0  0  0
  3  4  1  0  0  0  0
  3 23  1  0  0  0  0
  4  5  1  0  0  0  0
  5  6  1  0  0  0  0
  5 19  2  0  0  0  0
  6  7  1  0  0  0  0
  6  8  1  0  0  0  0
  6 24  1  0  0  0  0
  7 25  1  0  0  0  0
  7 26  1  0  0  0  0
  7 27  1  0  0  0  0
  8  9  1  0  0  0  0
  8 28  1  0  0  0  0
  8 29  1  0  0  0  0
  9 10  1  0  0  0  0
  9 30  1  0  0  0  0
 10 11  2  0  0  0  0
 10 12  1  0  0  0  0
 12 13  1  0  0  0  0
 12 31  1  0  0  0  0
 13 18  1  0  0  0  0
 13 14  1  0  0  0  0
 13 32  1  0  0  0  0
 14 15  1  0  0  0  0
 14 33  1  0  0  0  0
 14 34  1  0  0  0  0
 15 16  1  0  0  0  0
 15 35  1  0  0  0  0
 15 36  1  0  0  0  0
 16 17  1  0  0  0  0
 17 18  1  0  0  0  0
 17 37  1  0  0  0  0
 17 38  1  0  0  0  0
 18 39  1  0  0  0  0
 18 40  1  0  0  0  0
M  END
> <s_m_source_file>
AV-unprocessed.smi

> <i_m_source_file_index>
2327

> <i_lp_mmshare_version>
43012

> <i_f3d_flags>
0

> <s_epik_input>
W0NIM11jMVtjSF1zYyhuMSlbQ0BIXShbQ0gzXSlbQ0gyXVtOSF1DKD1PKVtOSF1bQ0hdMltDSDJdW0NIMl1PW0NIMl1bQ0gyXTI=

> <s_epik_cmdline>
J2VwaWtfcHl0aG9uJywgJy1waCcsICc3LjAnLCAnLXRuJywgJzgnLCAnLW1hJywgJzIwMCcsICctbWV0YWxfYmluZGluZycsICctaW1hZScsICc8aW5maWxlLm1hZT4nLCAnLW9tYWUnLCAnPG91dGZpbGUubWFlPic=

> <r_epik_Ionization_Penalty>
0.0015425

> <r_epik_Ionization_Penalty_Charging>
0

> <r_epik_Ionization_Penalty_Neutral>
0.0015425

> <r_epik_State_Penalty>
0.000998134

> <r_epik_Charging_Adjusted_Penalty>
0.000998134

> <i_epik_Tot_Q>
0

> <i_epik_Tot_abs_Q>
0

> <r_epik_Metal_State_Penalty>
-0

> <b_epik_Metal_Only>
0

> <s_lp_Force_Field>
OPLS_2005

> <r_lp_Energy>
7.91954

> <b_lp_Chiralities_Consistent>
1

> <s_lp_Variant>
AV-unprocessed.smi:2327-2

> <Gold.Version>
5.8.1

> <Gold.Id.Protein>
6NUR|6NUR_protein|mol2

> <Gold.PLP.Fitness>
48.0778

> <Gold.PLP.PLP>
-42.5723

> <Gold.PLP.part.hbond>
-2.0000

> <Gold.PLP.part.metal>
0.0000

> <Gold.PLP.part.buried>
-5.1847

> <Gold.PLP.part.nonpolar>
-35.6647

> <Gold.PLP.part.repulsive>
0.5560

> <Gold.PLP.ligand.clash>
0.0000

> <Gold.PLP.ligand.torsion>
0.3002

> <Gold.PLP.Chemscore.Hbond>
2.0000

> <Gold.PLP.Chemscore.CHOScore>
0.0000

> <Gold.PLP.Chemscore.Metal>
0.0000

> <Gold.Chemscore.Hbonds>
donor molecule, donor type, donor heavy atom, donor atom, acceptor molecule, acceptor atom, score
      L1  H     9    30       P1  8028  0.99
      L1  H    12    31       P1  8028  1.00

> <Gold.PLP.Chemscore.Internal.Correction>
0.1058

> <Gold.Rescore>
     Score         DG    S(hbond)    S(metal)    S(lipo)     H(rot)  DE(clash)    DE(int)     intcor
     18.28     -20.20       1.94        0.00     103.84       1.53       0.30       1.62       ----

> <Gold.Chemscore.Fitness>
18.2826

> <Gold.Chemscore.DG>
-20.2015

> <Gold.Chemscore.ZeroCoef>
-5.4800

> <Gold.Chemscore.Hbond>
1.9446

> <Gold.Chemscore.Metal>
0.0000

> <Gold.Chemscore.Lipo>
103.8444

> <Gold.Chemscore.Internal_Hbond>
0.0000

> <Gold.Chemscore.DEClash>
0.3032

> <Gold.Chemscore.DEInternal>
1.6158

> <Gold.Chemscore.Rot>
1.5325

> <Gold.Chemscore.Internal.Correction>
   9.000000E+99

> <Gold.Chemscore.Hbonds>
donor molecule, donor type, donor heavy atom, donor atom, acceptor molecule, acceptor atom, score
      L1  H     9    30       P1  8028  0.94
      L1  H    12    31       P1  8028  0.98

> <Gold.Chemscore.Hbond.Weighted>
-6.4951

> <Gold.Chemscore.Metal.Weighted>
-0.0000

> <Gold.Chemscore.Lipo.Weighted>
-12.1498

> <Gold.Chemscore.Internal_Hbond.Weighted>
0.0000

> <Gold.Chemscore.DEClash.Weighted>
0.3032

> <Gold.Chemscore.DEInternal.Weighted>
1.6158

> <Gold.Chemscore.Rot.Weighted>
3.9233

> <Gold.Chemscore.Internal.Correction.Weighted>
   9.000000E+99

> <Gold.Protein.RotatedTorsions>
[ 6907 6896 6895 6894 ] final  123.18 input  -60.11 | X-H torsion
[ 7974 7965 7964 7962 ] final -159.07 input  175.53 | X-H torsion
[ 8008 7997 7996 7995 ] final  111.36 input   59.86 | X-H torsion
[ 10167 10162 10161 10158 ] final  160.45 input  -65.29 | X-H torsion
[ 10718 10713 10712 10709 ] final  -82.01 input   66.30 | X-H torsion
[ 10763 10752 10751 10750 ] final  161.01 input  -60.55 | X-H torsion
[ 11005 11000 10999 10996 ] final -109.85 input  -57.11 | X-H torsion

> <Gold.Protein.ActiveResidues>
 VAL166  LYS551  ARG553  GLY616  TRP617  ASP618  TYR619  PRO620  LYS621  CYS622 
 ASP623  PHE694  ASN695  SER759  ASP760  ASP761  ALA762  ILE779  LEU786  VAL792 
 PHE793  MET794  SER795  GLU796  ALA797  LYS798  CYS799  TRP800  GLU811  SER814 

> <Gold.Protein.RotatedAtoms>
  152.4182  133.7073  159.6458 H   0  0  0  0  0  0  0  0  0  0  0  0  # atno 6907 bound_to 6896
  150.8059  133.8500  159.3211 H   0  0  0  0  0  0  0  0  0  0  0  0  # atno 6908 bound_to 6896
  151.6224  135.1033  160.0156 H   0  0  0  0  0  0  0  0  0  0  0  0  # atno 6909 bound_to 6896
  144.7480  140.3737  143.6070 H   0  0  0  0  0  0  0  0  0  0  0  0  # atno 7974 bound_to 7965
  156.2119  140.3020  155.9751 H   0  0  0  0  0  0  0  0  0  0  0  0  # atno 8008 bound_to 7997
  155.2703  140.0433  157.3023 H   0  0  0  0  0  0  0  0  0  0  0  0  # atno 8009 bound_to 7997
  154.5711  140.2348  155.8198 H   0  0  0  0  0  0  0  0  0  0  0  0  # atno 8010 bound_to 7997
  139.4840  144.4633  151.8676 H   0  0  0  0  0  0  0  0  0  0  0  0  # atno 10167 bound_to 10162
  156.0040  130.4621  150.4040 H   0  0  0  0  0  0  0  0  0  0  0  0  # atno 10718 bound_to 10713
  154.2563  135.2770  155.2796 H   0  0  0  0  0  0  0  0  0  0  0  0  # atno 10763 bound_to 10752
  154.5422  135.5699  153.6852 H   0  0  0  0  0  0  0  0  0  0  0  0  # atno 10764 bound_to 10752
  152.9970  135.6254  154.2712 H   0  0  0  0  0  0  0  0  0  0  0  0  # atno 10765 bound_to 10752
  141.0824  133.9196  157.2259 H   0  0  0  0  0  0  0  0  0  0  0  0  # atno 11005 bound_to 11000
  145.7050  139.1670  143.2571 LP  0  0  0  0  0  0  0  0  0  0  0  0  # atno 17320 bound_to 7965
  146.1388  140.7086  142.9377 LP  0  0  0  0  0  0  0  0  0  0  0  0  # atno 17321 bound_to 7965
  140.4096  144.2386  150.5889 LP  0  0  0  0  0  0  0  0  0  0  0  0  # atno 17342 bound_to 10162
  140.4979  143.2327  151.8723 LP  0  0  0  0  0  0  0  0  0  0  0  0  # atno 17343 bound_to 10162
  157.2107  131.0459  151.2601 LP  0  0  0  0  0  0  0  0  0  0  0  0  # atno 17370 bound_to 10713
  157.3891  130.7272  149.6685 LP  0  0  0  0  0  0  0  0  0  0  0  0  # atno 17371 bound_to 10713
  139.9639  135.0147  156.9336 LP  0  0  0  0  0  0  0  0  0  0  0  0  # atno 17394 bound_to 11000
  140.5438  134.0694  155.7349 LP  0  0  0  0  0  0  0  0  0  0  0  0  # atno 17395 bound_to 11000

$$$$
