AV-unprocessed.smi:134|AV-procd|sdf|1167|dock10
  -GOLD-   2262018313D 1   1.00000     0.00000
 Structure written by MMmdl.
 51 54  0  0  0  0  0  0  0  0  1 V2000
  148.9693  137.2008  160.6684 O   0  0  0  0  0  0  0  0  0  0  0  0
  148.4735  136.9574  159.5671 C   0  0  0  0  0  0  0  0  0  0  0  0
  148.8746  137.7773  158.3307 C   0  0  0  0  0  0  0  0  0  0  0  0
  150.0275  138.6739  158.5682 N   0  0  0  0  0  0  0  0  0  0  0  0
  151.2550  138.0989  158.9806 C   0  0  0  0  0  0  0  0  0  0  0  0
  151.3626  136.8856  159.1639 O   0  0  0  0  0  0  0  0  0  0  0  0
  152.3600  139.0332  159.1570 C   0  0  0  0  0  0  0  0  0  0  0  0
  153.5666  138.5748  159.5314 F   0  0  0  0  0  0  0  0  0  0  0  0
  152.1916  140.3545  158.9460 C   0  0  0  0  0  0  0  0  0  0  0  0
  150.9845  140.9077  158.5650 N   0  0  0  0  0  0  0  0  0  0  0  0
  150.9132  142.3973  158.3060 C   0  0  2  0  0  0  0  0  0  0  0  0
  152.2635  143.1163  158.4444 C   0  0  0  0  0  0  0  0  0  0  0  0
  151.8277  144.4503  159.0103 C   0  0  0  0  0  0  0  0  0  0  0  0
  150.6567  144.0488  159.9010 C   0  0  0  0  0  0  0  0  0  0  0  0
  150.0179  142.9786  159.2093 O   0  0  0  0  0  0  0  0  0  0  0  0
  149.8731  140.0623  158.3365 C   0  0  0  0  0  0  0  0  0  0  0  0
  148.7995  140.5149  157.9372 O   0  0  0  0  0  0  0  0  0  0  0  0
  147.5620  135.9944  159.3452 N   0  0  0  0  0  0  0  0  0  0  0  0
  146.9790  135.1142  160.2970 C   0  0  0  0  0  0  0  0  0  0  0  0
  147.1586  135.2951  161.6897 C   0  0  0  0  0  0  0  0  0  0  0  0
  146.5853  134.3930  162.6061 C   0  0  0  0  0  0  0  0  0  0  0  0
  145.8361  133.2964  162.1419 C   0  0  0  0  0  0  0  0  0  0  0  0
  145.6659  133.0980  160.7593 C   0  0  0  0  0  0  0  0  0  0  0  0
  146.2377  133.9979  159.8375 C   0  0  0  0  0  0  0  0  0  0  0  0
  145.9909  133.7122  158.1095 S   0  0  0  0  0  0  0  0  0  0  0  0
  144.7619  132.4508  158.1770 C   0  0  0  0  0  0  0  0  0  0  0  0
  143.4140  132.7929  158.4032 C   0  0  0  0  0  0  0  0  0  0  0  0
  142.4320  131.7839  158.4442 C   0  0  0  0  0  0  0  0  0  0  0  0
  142.7979  130.4355  158.2610 C   0  0  0  0  0  0  0  0  0  0  0  0
  141.5942  129.2003  158.3083 Cl  0  0  0  0  0  0  0  0  0  0  0  0
  144.1469  130.0952  158.0394 C   0  0  0  0  0  0  0  0  0  0  0  0
  145.1300  131.1027  157.9991 C   0  0  0  0  0  0  0  0  0  0  0  0
  149.0727  137.0834  157.5125 H   0  0  0  0  0  0  0  0  0  0  0  0
  148.0101  138.3478  157.9866 H   0  0  0  0  0  0  0  0  0  0  0  0
  153.0449  141.0019  159.0864 H   0  0  0  0  0  0  0  0  0  0  0  0
  150.4981  142.5095  157.3037 H   0  0  0  0  0  0  0  0  0  0  0  0
  152.9246  142.6026  159.1407 H   0  0  0  0  0  0  0  0  0  0  0  0
  152.7650  143.1944  157.4796 H   0  0  0  0  0  0  0  0  0  0  0  0
  152.6202  144.9661  159.5530 H   0  0  0  0  0  0  0  0  0  0  0  0
  151.4809  145.1022  158.2075 H   0  0  0  0  0  0  0  0  0  0  0  0
  151.0150  143.6939  160.8676 H   0  0  0  0  0  0  0  0  0  0  0  0
  149.9668  144.8733  160.0815 H   0  0  0  0  0  0  0  0  0  0  0  0
  147.1567  135.9677  158.4207 H   0  0  0  0  0  0  0  0  0  0  0  0
  147.7450  136.1172  162.0720 H   0  0  0  0  0  0  0  0  0  0  0  0
  146.7254  134.5408  163.6667 H   0  0  0  0  0  0  0  0  0  0  0  0
  145.3969  132.6046  162.8455 H   0  0  0  0  0  0  0  0  0  0  0  0
  145.0934  132.2527  160.4067 H   0  0  0  0  0  0  0  0  0  0  0  0
  143.1305  133.8263  158.5396 H   0  0  0  0  0  0  0  0  0  0  0  0
  141.3982  132.0461  158.6148 H   0  0  0  0  0  0  0  0  0  0  0  0
  144.4291  129.0621  157.8998 H   0  0  0  0  0  0  0  0  0  0  0  0
  146.1629  130.8383  157.8299 H   0  0  0  0  0  0  0  0  0  0  0  0
  1  2  2  0  0  0  0
  2  3  1  0  0  0  0
  2 18  1  0  0  0  0
  3  4  1  0  0  0  0
  3 33  1  0  0  0  0
  3 34  1  0  0  0  0
  4 16  1  0  0  0  0
  4  5  1  0  0  0  0
  5  6  2  0  0  0  0
  5  7  1  0  0  0  0
  7  8  1  0  0  0  0
  7  9  2  0  0  0  0
  9 10  1  0  0  0  0
  9 35  1  0  0  0  0
 10 11  1  0  0  0  0
 10 16  1  0  0  0  0
 11 15  1  0  0  0  0
 11 12  1  0  0  0  0
 11 36  1  0  0  0  0
 12 13  1  0  0  0  0
 12 37  1  0  0  0  0
 12 38  1  0  0  0  0
 13 14  1  0  0  0  0
 13 39  1  0  0  0  0
 13 40  1  0  0  0  0
 14 15  1  0  0  0  0
 14 41  1  0  0  0  0
 14 42  1  0  0  0  0
 16 17  2  0  0  0  0
 18 19  1  0  0  0  0
 18 43  1  0  0  0  0
 19 24  1  0  0  0  0
 19 20  2  0  0  0  0
 20 21  1  0  0  0  0
 20 44  1  0  0  0  0
 21 22  2  0  0  0  0
 21 45  1  0  0  0  0
 22 23  1  0  0  0  0
 22 46  1  0  0  0  0
 23 24  2  0  0  0  0
 23 47  1  0  0  0  0
 24 25  1  0  0  0  0
 25 26  1  0  0  0  0
 26 32  1  0  0  0  0
 26 27  2  0  0  0  0
 27 28  1  0  0  0  0
 27 48  1  0  0  0  0
 28 29  2  0  0  0  0
 28 49  1  0  0  0  0
 29 30  1  0  0  0  0
 29 31  1  0  0  0  0
 31 32  2  0  0  0  0
 31 50  1  0  0  0  0
 32 51  1  0  0  0  0
M  END
> <s_m_source_file>
AV-unprocessed.smi

> <i_m_source_file_index>
134

> <i_lp_mmshare_version>
43012

> <i_f3d_flags>
0

> <s_epik_input>
TzFbQ0gyXVtDSDJdW0NIMl1bQ0BIXTFuKGMyPU8pW2NIXWMoRiljKD1PKW4yW0NIMl1DKD1PKVtOSF1jM1tjSF1bY0hdW2NIXVtjSF1jM1NjNFtjSF1bY0hdYyhDbClbY0hdW2NIXTQ=

> <s_epik_cmdline>
J2VwaWtfcHl0aG9uJywgJy1waCcsICc3LjAnLCAnLXRuJywgJzgnLCAnLW1hJywgJzIwMCcsICctbWV0YWxfYmluZGluZycsICctaW1hZScsICc8aW5maWxlLm1hZT4nLCAnLW9tYWUnLCAnPG91dGZpbGUubWFlPic=

> <r_lp_tautomer_probability>
1

> <r_epik_Ionization_Penalty>
2.01717e-06

> <r_epik_Ionization_Penalty_Charging>
3.88729e-08

> <r_epik_Ionization_Penalty_Neutral>
1.9783e-06

> <r_epik_State_Penalty>
-0

> <r_epik_Charging_Adjusted_Penalty>
3.88729e-08

> <i_epik_Tot_Q>
0

> <i_epik_Tot_abs_Q>
0

> <r_epik_Metal_State_Penalty>
-0

> <b_epik_Metal_Only>
0

> <s_epik_Chemistry_Notes>
This compound contains an acetal/aminal-like group ( X-CH(R)-Y where X, Y are N, S, or O) that may be acid/base labile, releasing an aldehyde.

> <s_lp_Force_Field>
OPLS_2005

> <r_lp_Energy>
29.8469

> <b_lp_Chiralities_Consistent>
1

> <s_lp_Variant>
AV-unprocessed.smi:134-1

> <Gold.Version>
5.8.1

> <Gold.Id.Protein>
6NUR|6NUR_protein|mol2

> <Gold.PLP.Fitness>
52.2950

> <Gold.PLP.PLP>
-48.3118

> <Gold.PLP.part.hbond>
-3.0367

> <Gold.PLP.part.metal>
0.0000

> <Gold.PLP.part.buried>
-8.3282

> <Gold.PLP.part.nonpolar>
-37.4769

> <Gold.PLP.part.repulsive>
0.1910

> <Gold.PLP.ligand.clash>
0.0000

> <Gold.PLP.ligand.torsion>
0.5550

> <Gold.PLP.Chemscore.Hbond>
1.6880

> <Gold.PLP.Chemscore.CHOScore>
0.0000

> <Gold.PLP.Chemscore.Metal>
0.0000

> <Gold.Chemscore.Hbonds>
donor molecule, donor type, donor heavy atom, donor atom, acceptor molecule, acceptor atom, score
      P1  H  6896  6909       L1     6  1.00
      P1  H  6931  6943       L1     1  0.69

> <Gold.PLP.Chemscore.Internal.Correction>
0.0292

> <Gold.Rescore>
     Score         DG    S(hbond)    S(metal)    S(lipo)     H(rot)  DE(clash)    DE(int)     intcor
     15.89     -18.79       1.60        0.00     110.91       1.95       0.03       2.87       ----

> <Gold.Chemscore.Fitness>
15.8936

> <Gold.Chemscore.DG>
-18.7899

> <Gold.Chemscore.ZeroCoef>
-5.4800

> <Gold.Chemscore.Hbond>
1.5982

> <Gold.Chemscore.Metal>
0.0000

> <Gold.Chemscore.Lipo>
110.9121

> <Gold.Chemscore.Internal_Hbond>
0.0000

> <Gold.Chemscore.DEClash>
0.0251

> <Gold.Chemscore.DEInternal>
2.8713

> <Gold.Chemscore.Rot>
1.9549

> <Gold.Chemscore.Internal.Correction>
   9.000000E+99

> <Gold.Chemscore.Hbonds>
donor molecule, donor type, donor heavy atom, donor atom, acceptor molecule, acceptor atom, score
      P1  H  6896  6909       L1     6  0.97
      P1  H  6931  6943       L1     1  0.67

> <Gold.Chemscore.Hbond.Weighted>
-5.3378

> <Gold.Chemscore.Metal.Weighted>
-0.0000

> <Gold.Chemscore.Lipo.Weighted>
-12.9767

> <Gold.Chemscore.Internal_Hbond.Weighted>
0.0000

> <Gold.Chemscore.DEClash.Weighted>
0.0251

> <Gold.Chemscore.DEInternal.Weighted>
2.8713

> <Gold.Chemscore.Rot.Weighted>
5.0046

> <Gold.Chemscore.Internal.Correction.Weighted>
   9.000000E+99

> <Gold.Protein.RotatedTorsions>
[ 6907 6896 6895 6894 ] final  114.22 input  -60.11 | X-H torsion
[ 7974 7965 7964 7962 ] final  164.35 input  175.53 | X-H torsion
[ 8008 7997 7996 7995 ] final -161.49 input   59.86 | X-H torsion
[ 10167 10162 10161 10158 ] final  -30.43 input  -65.29 | X-H torsion
[ 10718 10713 10712 10709 ] final   39.79 input   66.30 | X-H torsion
[ 10763 10752 10751 10750 ] final -113.23 input  -60.55 | X-H torsion
[ 11005 11000 10999 10996 ] final -127.07 input  -57.11 | X-H torsion

> <Gold.Protein.ActiveResidues>
 VAL166  LYS551  ARG553  GLY616  TRP617  ASP618  TYR619  PRO620  LYS621  CYS622 
 ASP623  PHE694  ASN695  SER759  ASP760  ASP761  ALA762  ILE779  LEU786  VAL792 
 PHE793  MET794  SER795  GLU796  ALA797  LYS798  CYS799  TRP800  GLU811  SER814 

> <Gold.Protein.RotatedAtoms>
  152.4815  133.8266  159.7081 H   0  0  0  0  0  0  0  0  0  0  0  0  # atno 6907 bound_to 6896
  150.8868  133.7287  159.2922 H   0  0  0  0  0  0  0  0  0  0  0  0  # atno 6908 bound_to 6896
  151.4773  135.1053  159.9820 H   0  0  0  0  0  0  0  0  0  0  0  0  # atno 6909 bound_to 6896
  144.7549  139.8313  143.6353 H   0  0  0  0  0  0  0  0  0  0  0  0  # atno 7974 bound_to 7965
  155.7930  140.0881  157.1998 H   0  0  0  0  0  0  0  0  0  0  0  0  # atno 8008 bound_to 7997
  154.3984  140.1486  156.3244 H   0  0  0  0  0  0  0  0  0  0  0  0  # atno 8009 bound_to 7997
  155.8539  140.3433  155.5714 H   0  0  0  0  0  0  0  0  0  0  0  0  # atno 8010 bound_to 7997
  140.7249  143.3849  151.1533 H   0  0  0  0  0  0  0  0  0  0  0  0  # atno 10167 bound_to 10162
  157.3746  130.7720  149.7145 H   0  0  0  0  0  0  0  0  0  0  0  0  # atno 10718 bound_to 10713
  154.8387  135.4462  154.1317 H   0  0  0  0  0  0  0  0  0  0  0  0  # atno 10763 bound_to 10752
  153.2526  135.6928  153.7669 H   0  0  0  0  0  0  0  0  0  0  0  0  # atno 10764 bound_to 10752
  153.6976  135.3377  155.3193 H   0  0  0  0  0  0  0  0  0  0  0  0  # atno 10765 bound_to 10752
  140.9630  134.0910  157.3949 H   0  0  0  0  0  0  0  0  0  0  0  0  # atno 11005 bound_to 11000
  146.1547  139.4641  143.0026 LP  0  0  0  0  0  0  0  0  0  0  0  0  # atno 17320 bound_to 7965
  145.6814  141.0190  143.1604 LP  0  0  0  0  0  0  0  0  0  0  0  0  # atno 17321 bound_to 7965
  139.7445  143.8874  152.3059 LP  0  0  0  0  0  0  0  0  0  0  0  0  # atno 17342 bound_to 10162
  139.8706  144.7070  150.8992 LP  0  0  0  0  0  0  0  0  0  0  0  0  # atno 17343 bound_to 10162
  155.9762  130.4078  150.3792 LP  0  0  0  0  0  0  0  0  0  0  0  0  # atno 17370 bound_to 10713
  157.1887  131.0410  151.2711 LP  0  0  0  0  0  0  0  0  0  0  0  0  # atno 17371 bound_to 10713
  139.8884  135.0098  156.6621 LP  0  0  0  0  0  0  0  0  0  0  0  0  # atno 17394 bound_to 11000
  140.7440  133.8953  155.8298 LP  0  0  0  0  0  0  0  0  0  0  0  0  # atno 17395 bound_to 11000

$$$$
