AV-unprocessed.smi:3321|AV-procd|sdf|12772|dock5
  -GOLD-   2272019113D 1   1.00000     0.00000
 Structure written by MMmdl.
 40 41  0  0  0  0  0  0  0  0  1 V2000
  151.6239  137.6088  156.9345 C   0  0  0  0  0  0  0  0  0  0  0  0
  151.7024  139.1101  157.2537 C   0  0  1  0  0  0  0  0  0  0  0  0
  153.0531  139.4315  157.7499 N   0  0  0  0  0  0  0  0  0  0  0  0
  153.0623  140.1134  159.0413 C   0  0  0  0  0  0  0  0  0  0  0  0
  152.6242  141.5778  158.8710 C   0  0  0  0  0  0  0  0  0  0  0  0
  152.6425  142.3135  160.1230 N   0  0  0  0  0  0  0  0  0  0  0  0
  152.2097  143.6000  160.3665 C   0  0  0  0  0  0  0  0  0  0  0  0
  152.4328  143.8604  161.6881 C   0  0  0  0  0  0  0  0  0  0  0  0
  153.0107  142.6553  162.1765 C   0  0  0  0  0  0  0  0  0  0  0  0
  153.1337  141.7306  161.2379 N   0  0  0  0  0  0  0  0  0  0  0  0
  151.2889  139.9363  156.0128 C   0  0  0  0  0  0  0  0  0  0  0  0
  151.8877  139.7305  154.9550 O   0  0  0  0  0  0  0  0  0  0  0  0
  150.2929  140.8540  156.1033 N   0  0  0  0  0  0  0  0  0  0  0  0
  149.4737  141.0091  157.3133 C   0  0  0  0  0  0  0  0  0  0  0  0
  148.0547  140.4894  157.0140 C   0  0  0  0  0  0  0  0  0  0  0  0
  147.4439  141.2105  155.7963 C   0  0  0  0  0  0  0  0  0  0  0  0
  148.4083  141.2211  154.5940 C   0  0  0  0  0  0  0  0  0  0  0  0
  149.8009  141.7178  155.0210 C   0  0  0  0  0  0  0  0  0  0  0  0
  150.6294  137.3217  156.5912 H   0  0  0  0  0  0  0  0  0  0  0  0
  151.8469  137.0100  157.8182 H   0  0  0  0  0  0  0  0  0  0  0  0
  152.3359  137.3286  156.1569 H   0  0  0  0  0  0  0  0  0  0  0  0
  151.0221  139.3218  158.0775 H   0  0  0  0  0  0  0  0  0  0  0  0
  153.5811  139.9629  157.0723 H   0  0  0  0  0  0  0  0  0  0  0  0
  152.3816  139.6200  159.7351 H   0  0  0  0  0  0  0  0  0  0  0  0
  154.0586  140.0686  159.4839 H   0  0  0  0  0  0  0  0  0  0  0  0
  153.2644  142.0898  158.1514 H   0  0  0  0  0  0  0  0  0  0  0  0
  151.6115  141.6165  158.4671 H   0  0  0  0  0  0  0  0  0  0  0  0
  151.7878  144.2163  159.5865 H   0  0  0  0  0  0  0  0  0  0  0  0
  152.2174  144.7730  162.2238 H   0  0  0  0  0  0  0  0  0  0  0  0
  153.3426  142.4266  163.1785 H   0  0  0  0  0  0  0  0  0  0  0  0
  149.8835  140.4849  158.1773 H   0  0  0  0  0  0  0  0  0  0  0  0
  149.4374  142.0616  157.5979 H   0  0  0  0  0  0  0  0  0  0  0  0
  148.0958  139.4169  156.8191 H   0  0  0  0  0  0  0  0  0  0  0  0
  147.4140  140.6212  157.8863 H   0  0  0  0  0  0  0  0  0  0  0  0
  146.4975  140.7463  155.5178 H   0  0  0  0  0  0  0  0  0  0  0  0
  147.2118  142.2396  156.0739 H   0  0  0  0  0  0  0  0  0  0  0  0
  148.4911  140.2156  154.1788 H   0  0  0  0  0  0  0  0  0  0  0  0
  148.0092  141.8536  153.8007 H   0  0  0  0  0  0  0  0  0  0  0  0
  149.7276  142.7421  155.3893 H   0  0  0  0  0  0  0  0  0  0  0  0
  150.4664  141.7812  154.1628 H   0  0  0  0  0  0  0  0  0  0  0  0
  1  2  1  0  0  0  0
  1 19  1  0  0  0  0
  1 20  1  0  0  0  0
  1 21  1  0  0  0  0
  2  3  1  0  0  0  0
  2 11  1  0  0  0  0
  2 22  1  0  0  0  0
  3  4  1  0  0  0  0
  3 23  1  0  0  0  0
  4  5  1  0  0  0  0
  4 24  1  0  0  0  0
  4 25  1  0  0  0  0
  5  6  1  0  0  0  0
  5 26  1  0  0  0  0
  5 27  1  0  0  0  0
  6 10  1  0  0  0  0
  6  7  1  0  0  0  0
  7  8  2  0  0  0  0
  7 28  1  0  0  0  0
  8  9  1  0  0  0  0
  8 29  1  0  0  0  0
  9 10  2  0  0  0  0
  9 30  1  0  0  0  0
 11 12  2  0  0  0  0
 11 13  1  0  0  0  0
 13 18  1  0  0  0  0
 13 14  1  0  0  0  0
 14 15  1  0  0  0  0
 14 31  1  0  0  0  0
 14 32  1  0  0  0  0
 15 16  1  0  0  0  0
 15 33  1  0  0  0  0
 15 34  1  0  0  0  0
 16 17  1  0  0  0  0
 16 35  1  0  0  0  0
 16 36  1  0  0  0  0
 17 18  1  0  0  0  0
 17 37  1  0  0  0  0
 17 38  1  0  0  0  0
 18 39  1  0  0  0  0
 18 40  1  0  0  0  0
M  END
> <s_m_source_file>
AV-unprocessed.smi

> <i_m_source_file_index>
3321

> <i_lp_mmshare_version>
43012

> <i_f3d_flags>
0

> <s_epik_input>
W0NIMl0xW0NIMl1bQ0gyXVtDSDJdW0NIMl1OMUMoPU8pW0NASF0oW0NIM10pW05IXVtDSDJdW0NIMl1uMltjSF1bY0hdW2NIXW4y

> <s_epik_cmdline>
J2VwaWtfcHl0aG9uJywgJy1waCcsICc3LjAnLCAnLXRuJywgJzgnLCAnLW1hJywgJzIwMCcsICctbWV0YWxfYmluZGluZycsICctaW1hZScsICc8aW5maWxlLm1hZT4nLCAnLW9tYWUnLCAnPG91dGZpbGUubWFlPic=

> <r_lp_tautomer_probability>
1

> <r_epik_Ionization_Penalty>
0.736446

> <r_epik_Ionization_Penalty_Charging>
0

> <r_epik_Ionization_Penalty_Neutral>
0.736446

> <r_epik_State_Penalty>
0.761204

> <r_epik_Charging_Adjusted_Penalty>
0.761204

> <i_epik_Tot_Q>
0

> <i_epik_Tot_abs_Q>
0

> <r_epik_Metal_State_Penalty>
0.760551

> <b_epik_Metal_Only>
0

> <s_lp_Force_Field>
OPLS_2005

> <r_lp_Energy>
28.7251

> <b_lp_Chiralities_Consistent>
1

> <s_lp_Variant>
AV-unprocessed.smi:3321-4

> <Gold.Version>
5.8.1

> <Gold.Id.Protein>
6NUR|6NUR_protein|mol2

> <Gold.PLP.Fitness>
37.7350

> <Gold.PLP.PLP>
-36.5557

> <Gold.PLP.part.hbond>
-2.0000

> <Gold.PLP.part.metal>
0.0000

> <Gold.PLP.part.buried>
-4.9321

> <Gold.PLP.part.nonpolar>
-28.9016

> <Gold.PLP.part.repulsive>
0.0515

> <Gold.PLP.ligand.clash>
0.0000

> <Gold.PLP.ligand.torsion>
0.8983

> <Gold.PLP.Chemscore.Hbond>
0.9600

> <Gold.PLP.Chemscore.CHOScore>
0.0000

> <Gold.PLP.Chemscore.Metal>
0.0000

> <Gold.Chemscore.Hbonds>
donor molecule, donor type, donor heavy atom, donor atom, acceptor molecule, acceptor atom, score
      P1  H  7989  7998       L1    12  0.96

> <Gold.PLP.Chemscore.Internal.Correction>
0.0959

> <Gold.Rescore>
     Score         DG    S(hbond)    S(metal)    S(lipo)     H(rot)  DE(clash)    DE(int)     intcor
     13.13     -14.03       0.95        0.00      83.79       1.73       0.00       0.91       ----

> <Gold.Chemscore.Fitness>
13.1266

> <Gold.Chemscore.DG>
-14.0317

> <Gold.Chemscore.ZeroCoef>
-5.4800

> <Gold.Chemscore.Hbond>
0.9494

> <Gold.Chemscore.Metal>
0.0000

> <Gold.Chemscore.Lipo>
83.7920

> <Gold.Chemscore.Internal_Hbond>
0.0000

> <Gold.Chemscore.DEClash>
0.0000

> <Gold.Chemscore.DEInternal>
0.9051

> <Gold.Chemscore.Rot>
1.7277

> <Gold.Chemscore.Internal.Correction>
   9.000000E+99

> <Gold.Chemscore.Hbonds>
donor molecule, donor type, donor heavy atom, donor atom, acceptor molecule, acceptor atom, score
      P1  H  7989  7998       L1    12  0.91

> <Gold.Chemscore.Hbond.Weighted>
-3.1709

> <Gold.Chemscore.Metal.Weighted>
-0.0000

> <Gold.Chemscore.Lipo.Weighted>
-9.8037

> <Gold.Chemscore.Internal_Hbond.Weighted>
0.0000

> <Gold.Chemscore.DEClash.Weighted>
0.0000

> <Gold.Chemscore.DEInternal.Weighted>
0.9051

> <Gold.Chemscore.Rot.Weighted>
4.4228

> <Gold.Chemscore.Internal.Correction.Weighted>
   9.000000E+99

> <Gold.Protein.RotatedTorsions>
[ 6907 6896 6895 6894 ] final   37.30 input  -60.11 | X-H torsion
[ 7974 7965 7964 7962 ] final  -85.54 input  175.53 | X-H torsion
[ 8008 7997 7996 7995 ] final   32.90 input   59.86 | X-H torsion
[ 10167 10162 10161 10158 ] final   86.12 input  -65.29 | X-H torsion
[ 10718 10713 10712 10709 ] final  139.80 input   66.30 | X-H torsion
[ 10763 10752 10751 10750 ] final   69.19 input  -60.55 | X-H torsion
[ 11005 11000 10999 10996 ] final  -52.43 input  -57.11 | X-H torsion

> <Gold.Protein.ActiveResidues>
 VAL166  LYS551  ARG553  GLY616  TRP617  ASP618  TYR619  PRO620  LYS621  CYS622 
 ASP623  PHE694  ASN695  SER759  ASP760  ASP761  ALA762  ILE779  LEU786  VAL792 
 PHE793  MET794  SER795  GLU796  ALA797  LYS798  CYS799  TRP800  GLU811  SER814 

> <Gold.Protein.RotatedAtoms>
  152.1413  134.9060  160.0553 H   0  0  0  0  0  0  0  0  0  0  0  0  # atno 6907 bound_to 6896
  152.0127  133.3862  159.4234 H   0  0  0  0  0  0  0  0  0  0  0  0  # atno 6908 bound_to 6896
  150.6865  134.3635  159.5004 H   0  0  0  0  0  0  0  0  0  0  0  0  # atno 6909 bound_to 6896
  145.4919  140.9552  143.1807 H   0  0  0  0  0  0  0  0  0  0  0  0  # atno 7974 bound_to 7965
  155.1299  140.3256  155.4476 H   0  0  0  0  0  0  0  0  0  0  0  0  # atno 8008 bound_to 7997
  156.2637  140.2012  156.6367 H   0  0  0  0  0  0  0  0  0  0  0  0  # atno 8009 bound_to 7997
  154.6620  140.0546  157.0059 H   0  0  0  0  0  0  0  0  0  0  0  0  # atno 8010 bound_to 7997
  139.8908  144.6387  150.8741 H   0  0  0  0  0  0  0  0  0  0  0  0  # atno 10167 bound_to 10162
  157.4104  131.1027  151.0460 H   0  0  0  0  0  0  0  0  0  0  0  0  # atno 10718 bound_to 10713
  153.0274  135.5220  154.7249 H   0  0  0  0  0  0  0  0  0  0  0  0  # atno 10763 bound_to 10752
  154.6294  135.2898  155.0236 H   0  0  0  0  0  0  0  0  0  0  0  0  # atno 10764 bound_to 10752
  154.1194  135.6610  153.4952 H   0  0  0  0  0  0  0  0  0  0  0  0  # atno 10765 bound_to 10752
  141.0924  133.6630  156.4023 H   0  0  0  0  0  0  0  0  0  0  0  0  # atno 11005 bound_to 11000
  144.7829  139.6487  143.7146 LP  0  0  0  0  0  0  0  0  0  0  0  0  # atno 17320 bound_to 7965
  146.2279  139.5758  142.9575 LP  0  0  0  0  0  0  0  0  0  0  0  0  # atno 17321 bound_to 7965
  140.7727  143.3512  151.2011 LP  0  0  0  0  0  0  0  0  0  0  0  0  # atno 17342 bound_to 10162
  139.7112  143.9374  152.2948 LP  0  0  0  0  0  0  0  0  0  0  0  0  # atno 17343 bound_to 10162
  157.1427  130.6150  149.5559 LP  0  0  0  0  0  0  0  0  0  0  0  0  # atno 17370 bound_to 10713
  155.9849  130.4876  150.7005 LP  0  0  0  0  0  0  0  0  0  0  0  0  # atno 17371 bound_to 10713
  140.5221  134.6294  157.5321 LP  0  0  0  0  0  0  0  0  0  0  0  0  # atno 17394 bound_to 11000
  139.9752  134.7226  155.9963 LP  0  0  0  0  0  0  0  0  0  0  0  0  # atno 17395 bound_to 11000

$$$$
