AV-unprocessed.smi:160|AV-procd|sdf|1367|dock7
  -GOLD-   2262019 83D 1   1.00000     0.00000
 Structure written by MMmdl.
 28 29  0  0  0  0  0  0  0  0  2 V2000
  154.2502  135.4605  159.3859 N   0  5  0  0  0  0  0  0  0  0  0  0
  154.3197  135.6246  158.0464 C   0  0  0  0  0  0  0  0  0  0  0  0
  154.9064  134.8900  157.2523 O   0  0  0  0  0  0  0  0  0  0  0  0
  153.5913  136.8411  157.5266 C   0  0  0  0  0  0  0  0  0  0  0  0
  152.8715  137.6396  158.3721 N   0  0  0  0  0  0  0  0  0  0  0  0
  152.4313  138.5328  157.4960 C   0  0  0  0  0  0  0  0  0  0  0  0
  152.8409  138.3212  156.2416 N   0  0  0  0  0  0  0  0  0  0  0  0
  152.5331  139.0921  154.9906 C   0  0  2  0  0  0  0  0  0  0  0  0
  151.8257  140.2336  155.3648 O   0  0  0  0  0  0  0  0  0  0  0  0
  150.4423  140.1266  155.0220 C   0  0  2  0  0  0  0  0  0  0  0  0
  149.5711  140.4410  156.2500 C   0  0  0  0  0  0  0  0  0  0  0  0
  149.5331  139.3290  157.1191 O   0  0  0  0  0  0  0  0  0  0  0  0
  150.2454  138.6996  154.4828 C   0  0  1  0  0  0  0  0  0  0  0  0
  149.3423  138.6971  153.3950 O   0  0  0  0  0  0  0  0  0  0  0  0
  151.6392  138.3125  154.0130 C   0  0  2  0  0  0  0  0  0  0  0  0
  151.8314  136.9096  154.0459 O   0  0  0  0  0  0  0  0  0  0  0  0
  153.6027  137.1996  156.2395 N   0  0  0  0  0  0  0  0  0  0  0  0
  153.5123  139.3438  154.5822 H   0  0  0  0  0  0  0  0  0  0  0  0
  150.2500  140.8443  154.2220 H   0  0  0  0  0  0  0  0  0  0  0  0
  149.8929  138.0291  155.2679 H   0  0  0  0  0  0  0  0  0  0  0  0
  151.8312  138.6975  153.0101 H   0  0  0  0  0  0  0  0  0  0  0  0
  154.7983  136.0903  159.9839 H   0  0  0  0  0  0  0  0  0  0  0  0
  151.7960  139.3602  157.7756 H   0  0  0  0  0  0  0  0  0  0  0  0
  149.9978  141.2748  156.8084 H   0  0  0  0  0  0  0  0  0  0  0  0
  148.5605  140.7297  155.9615 H   0  0  0  0  0  0  0  0  0  0  0  0
  150.3630  138.8803  157.0655 H   0  0  0  0  0  0  0  0  0  0  0  0
  149.3428  137.8326  153.0131 H   0  0  0  0  0  0  0  0  0  0  0  0
  151.4993  136.5403  153.2424 H   0  0  0  0  0  0  0  0  0  0  0  0
  1  2  1  0  0  0  0
  1 22  1  0  0  0  0
  2  3  2  0  0  0  0
  2  4  1  0  0  0  0
  4 17  2  0  0  0  0
  4  5  1  0  0  0  0
  5  6  2  0  0  0  0
  6  7  1  0  0  0  0
  6 23  1  0  0  0  0
  7  8  1  0  0  0  0
  7 17  1  0  0  0  0
  8 18  1  0  0  0  0
  8 15  1  0  0  0  0
  8  9  1  0  0  0  0
  9 10  1  0  0  0  0
 10 19  1  0  0  0  0
 10 11  1  0  0  0  0
 10 13  1  0  0  0  0
 11 12  1  0  0  0  0
 11 24  1  0  0  0  0
 11 25  1  0  0  0  0
 12 26  1  0  0  0  0
 13 20  1  0  0  0  0
 13 14  1  0  0  0  0
 13 15  1  0  0  0  0
 14 27  1  0  0  0  0
 15 21  1  0  0  0  0
 15 16  1  0  0  0  0
 16 28  1  0  0  0  0
M  CHG  1   1  -1
M  END
> <s_m_source_file>
AV-unprocessed.smi

> <i_m_source_file_index>
160

> <i_lp_mmshare_version>
43012

> <i_f3d_flags>
0

> <s_epik_input>
W05IMl1DKD1PKWMxbltjSF1uKG4xKVtDQEBIXTJPW0NASF0oW0NIMl1bT0hdKVtDQEBIXShbT0hdKVtDQEhdMltPSF0=

> <s_epik_cmdline>
J2VwaWtfcHl0aG9uJywgJy1waCcsICc3LjAnLCAnLXRuJywgJzgnLCAnLW1hJywgJzIwMCcsICctbWV0YWxfYmluZGluZycsICctaW1hZScsICc8aW5maWxlLm1hZT4nLCAnLW9tYWUnLCAnPG91dGZpbGUubWFlPic=

> <r_lp_tautomer_probability>
1

> <r_epik_Ionization_Penalty>
6.6993

> <r_epik_Ionization_Penalty_Charging>
6.6993

> <r_epik_Ionization_Penalty_Neutral>
6.01698e-06

> <r_epik_State_Penalty>
6.69929

> <r_epik_Charging_Adjusted_Penalty>
13.3986

> <i_epik_Tot_Q>
-1

> <i_epik_Tot_abs_Q>
1

> <r_epik_Metal_State_Penalty>
2.62798

> <b_epik_Metal_Only>
1

> <s_epik_Chemistry_Notes>
This compound contains an acetal/aminal-like group ( X-CH(R)-Y where X, Y are N, S, or O) that may be acid/base labile, releasing an aldehyde.

> <s_lp_Force_Field>
OPLS_2005

> <r_lp_Energy>
43.4077

> <b_lp_Chiralities_Consistent>
1

> <s_lp_Variant>
AV-unprocessed.smi:160-25

> <Gold.Version>
5.8.1

> <Gold.Id.Protein>
6NUR|6NUR_protein|mol2

> <Gold.PLP.Fitness>
43.1032

> <Gold.PLP.PLP>
-25.6430

> <Gold.PLP.part.hbond>
-8.0000

> <Gold.PLP.part.metal>
0.0000

> <Gold.PLP.part.buried>
-4.3136

> <Gold.PLP.part.nonpolar>
-13.5863

> <Gold.PLP.part.repulsive>
0.0107

> <Gold.PLP.ligand.clash>
0.0000

> <Gold.PLP.ligand.torsion>
0.2761

> <Gold.PLP.Chemscore.Hbond>
6.0000

> <Gold.PLP.Chemscore.CHOScore>
0.0000

> <Gold.PLP.Chemscore.Metal>
0.0000

> <Gold.Chemscore.Hbonds>
donor molecule, donor type, donor heavy atom, donor atom, acceptor molecule, acceptor atom, score
      L1  H    14    27       P1  7948  1.00
      L1  H    16    28       P1  7949  1.00
      P1  H  6896  6907       L1     1  1.95
      P1  H 10752 10764       L1    16  0.75
      P1  H 10752 10765       L1     3  0.93

> <Gold.PLP.Chemscore.Internal.Correction>
0.0124

> <Gold.Rescore>
     Score         DG    S(hbond)    S(metal)    S(lipo)     H(rot)  DE(clash)    DE(int)     intcor
      8.67     -10.36       3.65        0.00      25.83       4.04       0.01       1.68       ----

> <Gold.Chemscore.Fitness>
8.6676

> <Gold.Chemscore.DG>
-10.3558

> <Gold.Chemscore.ZeroCoef>
-5.4800

> <Gold.Chemscore.Hbond>
3.6517

> <Gold.Chemscore.Metal>
0.0000

> <Gold.Chemscore.Lipo>
25.8292

> <Gold.Chemscore.Internal_Hbond>
0.0000

> <Gold.Chemscore.DEClash>
0.0126

> <Gold.Chemscore.DEInternal>
1.6755

> <Gold.Chemscore.Rot>
4.0403

> <Gold.Chemscore.Internal.Correction>
   9.000000E+99

> <Gold.Chemscore.Hbonds>
donor molecule, donor type, donor heavy atom, donor atom, acceptor molecule, acceptor atom, score
      L1  H    14    27       P1  7948  0.94
      L1  H    16    28       P1  7949  0.88
      P1  H  6896  6907       L1     1  0.75
      P1  H 10752 10764       L1    16  0.09
      P1  H 10752 10765       L1     3  0.72

> <Gold.Chemscore.Hbond.Weighted>
-12.1968

> <Gold.Chemscore.Metal.Weighted>
-0.0000

> <Gold.Chemscore.Lipo.Weighted>
-3.0220

> <Gold.Chemscore.Internal_Hbond.Weighted>
0.0000

> <Gold.Chemscore.DEClash.Weighted>
0.0126

> <Gold.Chemscore.DEInternal.Weighted>
1.6755

> <Gold.Chemscore.Rot.Weighted>
10.3431

> <Gold.Chemscore.Internal.Correction.Weighted>
   9.000000E+99

> <Gold.Protein.RotatedTorsions>
[ 6907 6896 6895 6894 ] final   68.02 input  -60.11 | X-H torsion
[ 7974 7965 7964 7962 ] final  -34.70 input  175.53 | X-H torsion
[ 8008 7997 7996 7995 ] final   49.04 input   59.86 | X-H torsion
[ 10167 10162 10161 10158 ] final -144.75 input  -65.29 | X-H torsion
[ 10718 10713 10712 10709 ] final -111.34 input   66.30 | X-H torsion
[ 10763 10752 10751 10750 ] final  -73.39 input  -60.55 | X-H torsion
[ 11005 11000 10999 10996 ] final  -92.93 input  -57.11 | X-H torsion

> <Gold.Protein.ActiveResidues>
 VAL166  LYS551  ARG553  GLY616  TRP617  ASP618  TYR619  PRO620  LYS621  CYS622 
 ASP623  PHE694  ASN695  SER759  ASP760  ASP761  ALA762  ILE779  LEU786  VAL792 
 PHE793  MET794  SER795  GLU796  ALA797  LYS798  CYS799  TRP800  GLU811  SER814 

> <Gold.Protein.RotatedAtoms>
  152.4592  134.5223  159.9785 H   0  0  0  0  0  0  0  0  0  0  0  0  # atno 6907 bound_to 6896
  151.5276  133.3449  159.2920 H   0  0  0  0  0  0  0  0  0  0  0  0  # atno 6908 bound_to 6896
  150.8548  134.7914  159.7099 H   0  0  0  0  0  0  0  0  0  0  0  0  # atno 6909 bound_to 6896
  146.0808  140.6070  142.8909 H   0  0  0  0  0  0  0  0  0  0  0  0  # atno 7974 bound_to 7965
  155.3956  140.3435  155.4254 H   0  0  0  0  0  0  0  0  0  0  0  0  # atno 8008 bound_to 7997
  156.1533  140.1577  156.8767 H   0  0  0  0  0  0  0  0  0  0  0  0  # atno 8009 bound_to 7997
  154.5072  140.0799  156.7899 H   0  0  0  0  0  0  0  0  0  0  0  0  # atno 8010 bound_to 7997
  139.7870  143.8020  152.2645 H   0  0  0  0  0  0  0  0  0  0  0  0  # atno 10167 bound_to 10162
  156.0641  130.5862  150.8360 H   0  0  0  0  0  0  0  0  0  0  0  0  # atno 10718 bound_to 10713
  154.4588  135.5899  153.6241 H   0  0  0  0  0  0  0  0  0  0  0  0  # atno 10763 bound_to 10752
  152.9821  135.6039  154.3512 H   0  0  0  0  0  0  0  0  0  0  0  0  # atno 10764 bound_to 10752
  154.3382  135.2842  155.2415 H   0  0  0  0  0  0  0  0  0  0  0  0  # atno 10765 bound_to 10752
  141.1510  133.7854  157.0089 H   0  0  0  0  0  0  0  0  0  0  0  0  # atno 11005 bound_to 11000
  144.7292  140.4619  143.6950 LP  0  0  0  0  0  0  0  0  0  0  0  0  # atno 17320 bound_to 7965
  145.6221  139.1525  143.3016 LP  0  0  0  0  0  0  0  0  0  0  0  0  # atno 17321 bound_to 7965
  139.8100  144.7340  150.9710 LP  0  0  0  0  0  0  0  0  0  0  0  0  # atno 17342 bound_to 10162
  140.7820  143.4260  151.0767 LP  0  0  0  0  0  0  0  0  0  0  0  0  # atno 17343 bound_to 10162
  157.5671  131.0946  150.9473 LP  0  0  0  0  0  0  0  0  0  0  0  0  # atno 17370 bound_to 10713
  156.9698  130.5486  149.5290 LP  0  0  0  0  0  0  0  0  0  0  0  0  # atno 17371 bound_to 10713
  140.0891  134.9603  157.1747 LP  0  0  0  0  0  0  0  0  0  0  0  0  # atno 17394 bound_to 11000
  140.3471  134.2640  155.7203 LP  0  0  0  0  0  0  0  0  0  0  0  0  # atno 17395 bound_to 11000

$$$$
