AV-unprocessed.smi:1897|AV-procd|sdf|7687|dock2
  -GOLD-   22720 9423D 1   1.00000     0.00000
 Structure written by MMmdl.
 39 41  0  0  0  0  0  0  0  0  2 V2000
  152.4830  142.3107  158.9332 C   0  0  0  0  0  0  0  0  0  0  0  0
  152.0533  141.4977  157.7601 C   0  0  0  0  0  0  0  0  0  0  0  0
  152.4609  140.2381  157.5640 N   0  0  0  0  0  0  0  0  0  0  0  0
  151.9217  139.6850  156.4120 N   0  0  0  0  0  0  0  0  0  0  0  0
  151.1299  140.5499  155.7609 C   0  0  0  0  0  0  0  0  0  0  0  0
  150.4223  140.2461  154.5614 N   0  0  0  0  0  0  0  0  0  0  0  0
  149.1002  140.1245  154.3191 C   0  0  0  0  0  0  0  0  0  0  0  0
  148.2715  140.2820  155.2135 O   0  0  0  0  0  0  0  0  0  0  0  0
  148.7582  139.8248  153.0547 N   0  0  0  0  0  0  0  0  0  0  0  0
  147.4020  139.5857  152.5673 C   0  0  1  0  0  0  0  0  0  0  0  0
  147.3561  139.2905  151.0552 C   0  0  0  0  0  0  0  0  0  0  0  0
  146.3683  138.1278  150.9139 C   0  0  0  0  0  0  0  0  0  0  0  0
  146.5622  137.3775  152.1599 N   0  3  2  0  0  0  0  0  0  0  0  0
  145.5964  136.3122  152.4984 C   0  0  0  0  0  0  0  0  0  0  0  0
  146.1112  135.5637  153.7466 C   0  0  0  0  0  0  0  0  0  0  0  0
  146.4351  136.5247  154.9128 C   0  0  0  0  0  0  0  0  0  0  0  0
  147.3472  137.6859  154.4616 C   0  0  0  0  0  0  0  0  0  0  0  0
  146.7159  138.3715  153.2359 C   0  0  1  0  0  0  0  0  0  0  0  0
  150.9576  142.1183  156.5314 S   0  0  0  0  0  0  0  0  0  0  0  0
  153.4568  141.9772  159.2933 H   0  0  0  0  0  0  0  0  0  0  0  0
  151.7570  142.2111  159.7402 H   0  0  0  0  0  0  0  0  0  0  0  0
  152.5570  143.3622  158.6556 H   0  0  0  0  0  0  0  0  0  0  0  0
  151.0050  140.1973  153.7382 H   0  0  0  0  0  0  0  0  0  0  0  0
  149.5063  139.7219  152.3834 H   0  0  0  0  0  0  0  0  0  0  0  0
  146.7913  140.4713  152.7545 H   0  0  0  0  0  0  0  0  0  0  0  0
  147.0613  140.1599  150.4667 H   0  0  0  0  0  0  0  0  0  0  0  0
  148.3381  138.9725  150.7004 H   0  0  0  0  0  0  0  0  0  0  0  0
  145.3433  138.4990  150.8623 H   0  0  0  0  0  0  0  0  0  0  0  0
  146.5610  137.5153  150.0327 H   0  0  0  0  0  0  0  0  0  0  0  0
  144.6104  136.7421  152.6806 H   0  0  0  0  0  0  0  0  0  0  0  0
  145.4999  135.6222  151.6594 H   0  0  0  0  0  0  0  0  0  0  0  0
  145.3790  134.8216  154.0661 H   0  0  0  0  0  0  0  0  0  0  0  0
  147.0127  135.0090  153.4831 H   0  0  0  0  0  0  0  0  0  0  0  0
  145.5044  136.9321  155.3098 H   0  0  0  0  0  0  0  0  0  0  0  0
  146.9028  135.9765  155.7311 H   0  0  0  0  0  0  0  0  0  0  0  0
  147.4700  138.3980  155.2780 H   0  0  0  0  0  0  0  0  0  0  0  0
  148.3406  137.3065  154.2175 H   0  0  0  0  0  0  0  0  0  0  0  0
  145.7147  138.7042  153.5184 H   0  0  0  0  0  0  0  0  0  0  0  0
  147.4620  136.9287  152.0655 H   0  0  0  0  0  0  0  0  0  0  0  0
  1  2  1  0  0  0  0
  1 20  1  0  0  0  0
  1 21  1  0  0  0  0
  1 22  1  0  0  0  0
  2 19  1  0  0  0  0
  2  3  2  0  0  0  0
  3  4  1  0  0  0  0
  4  5  2  0  0  0  0
  5  6  1  0  0  0  0
  5 19  1  0  0  0  0
  6  7  1  0  0  0  0
  6 23  1  0  0  0  0
  7  8  2  0  0  0  0
  7  9  1  0  0  0  0
  9 10  1  0  0  0  0
  9 24  1  0  0  0  0
 10 18  1  0  0  0  0
 10 11  1  0  0  0  0
 10 25  1  0  0  0  0
 11 12  1  0  0  0  0
 11 26  1  0  0  0  0
 11 27  1  0  0  0  0
 12 13  1  0  0  0  0
 12 28  1  0  0  0  0
 12 29  1  0  0  0  0
 13 18  1  0  0  0  0
 13 14  1  0  0  0  0
 13 39  1  0  0  0  0
 14 15  1  0  0  0  0
 14 30  1  0  0  0  0
 14 31  1  0  0  0  0
 15 16  1  0  0  0  0
 15 32  1  0  0  0  0
 15 33  1  0  0  0  0
 16 17  1  0  0  0  0
 16 34  1  0  0  0  0
 16 35  1  0  0  0  0
 17 18  1  0  0  0  0
 17 36  1  0  0  0  0
 17 37  1  0  0  0  0
 18 38  1  0  0  0  0
M  CHG  1  13   1
M  END
> <s_m_source_file>
AV-unprocessed.smi

> <i_m_source_file_index>
1897

> <i_lp_mmshare_version>
43012

> <i_f3d_flags>
0

> <s_epik_input>
W0NIM11jMW5uYyhzMSlbTkhdQyg9TylbTkhdW0NASF0oW0NIMl1bQ0gyXTIpW0NAQEhdKE4yMylbQ0gyXVtDSDJdW0NIMl1bQ0gyXTM=

> <s_epik_cmdline>
J2VwaWtfcHl0aG9uJywgJy1waCcsICc3LjAnLCAnLXRuJywgJzgnLCAnLW1hJywgJzIwMCcsICctbWV0YWxfYmluZGluZycsICctaW1hZScsICc8aW5maWxlLm1hZT4nLCAnLW9tYWUnLCAnPG91dGZpbGUubWFlPic=

> <r_lp_tautomer_probability>
1

> <r_epik_Ionization_Penalty>
0.00228891

> <r_epik_Ionization_Penalty_Charging>
0.00107044

> <r_epik_Ionization_Penalty_Neutral>
0.00121847

> <r_epik_State_Penalty>
-0

> <r_epik_Charging_Adjusted_Penalty>
0.00107044

> <i_epik_Tot_Q>
1

> <i_epik_Tot_abs_Q>
1

> <r_epik_Metal_State_Penalty>
0.304057

> <b_epik_Metal_Only>
0

> <s_lp_Force_Field>
OPLS_2005

> <r_lp_Energy>
42.6082

> <b_lp_Chiralities_Consistent>
1

> <s_lp_Variant>
AV-unprocessed.smi:1897-4

> <Gold.Version>
5.8.1

> <Gold.Id.Protein>
6NUR|6NUR_protein|mol2

> <Gold.PLP.Fitness>
36.6358

> <Gold.PLP.PLP>
-25.9687

> <Gold.PLP.part.hbond>
-3.0000

> <Gold.PLP.part.metal>
0.0000

> <Gold.PLP.part.buried>
-0.0126

> <Gold.PLP.part.nonpolar>
-24.4634

> <Gold.PLP.part.repulsive>
1.0974

> <Gold.PLP.ligand.clash>
0.0000

> <Gold.PLP.ligand.torsion>
0.6310

> <Gold.PLP.Chemscore.Hbond>
3.9760

> <Gold.PLP.Chemscore.CHOScore>
0.0000

> <Gold.PLP.Chemscore.Metal>
0.0000

> <Gold.Chemscore.Hbonds>
donor molecule, donor type, donor heavy atom, donor atom, acceptor molecule, acceptor atom, score
      L1  H     9    24       P1  7957  0.22
      L1  H    13    39       P1  7948  2.00
      P1  H  7997  8009       L1     3  0.48

> <Gold.PLP.Chemscore.Internal.Correction>
0.0011

> <Gold.Rescore>
     Score         DG    S(hbond)    S(metal)    S(lipo)     H(rot)  DE(clash)    DE(int)     intcor
     15.64     -18.01       2.35        0.00      61.92       1.00       1.69       0.68       ----

> <Gold.Chemscore.Fitness>
15.6390

> <Gold.Chemscore.DG>
-18.0143

> <Gold.Chemscore.ZeroCoef>
-5.4800

> <Gold.Chemscore.Hbond>
2.3504

> <Gold.Chemscore.Metal>
0.0000

> <Gold.Chemscore.Lipo>
61.9152

> <Gold.Chemscore.Internal_Hbond>
0.0000

> <Gold.Chemscore.DEClash>
1.6944

> <Gold.Chemscore.DEInternal>
0.6809

> <Gold.Chemscore.Rot>
1.0000

> <Gold.Chemscore.Internal.Correction>
   9.000000E+99

> <Gold.Chemscore.Hbonds>
donor molecule, donor type, donor heavy atom, donor atom, acceptor molecule, acceptor atom, score
      L1  H     9    24       P1  7957  0.22
      L1  H    13    39       P1  7948  1.00
      P1  H  7997  8009       L1     3  0.03

> <Gold.Chemscore.Hbond.Weighted>
-7.8502

> <Gold.Chemscore.Metal.Weighted>
-0.0000

> <Gold.Chemscore.Lipo.Weighted>
-7.2441

> <Gold.Chemscore.Internal_Hbond.Weighted>
0.0000

> <Gold.Chemscore.DEClash.Weighted>
1.6944

> <Gold.Chemscore.DEInternal.Weighted>
0.6809

> <Gold.Chemscore.Rot.Weighted>
2.5600

> <Gold.Chemscore.Internal.Correction.Weighted>
   9.000000E+99

> <Gold.Protein.RotatedTorsions>
[ 6907 6896 6895 6894 ] final  138.58 input  -60.11 | X-H torsion
[ 7974 7965 7964 7962 ] final -119.94 input  175.53 | X-H torsion
[ 8008 7997 7996 7995 ] final  166.94 input   59.86 | X-H torsion
[ 10167 10162 10161 10158 ] final  -21.97 input  -65.29 | X-H torsion
[ 10718 10713 10712 10709 ] final -148.05 input   66.30 | X-H torsion
[ 10763 10752 10751 10750 ] final  112.92 input  -60.55 | X-H torsion
[ 11005 11000 10999 10996 ] final -139.28 input  -57.11 | X-H torsion

> <Gold.Protein.ActiveResidues>
 VAL166  LYS551  ARG553  GLY616  TRP617  ASP618  TYR619  PRO620  LYS621  CYS622 
 ASP623  PHE694  ASN695  SER759  ASP760  ASP761  ALA762  ILE779  LEU786  VAL792 
 PHE793  MET794  SER795  GLU796  ALA797  LYS798  CYS799  TRP800  GLU811  SER814 

> <Gold.Protein.RotatedAtoms>
  152.2650  133.5331  159.5404 H   0  0  0  0  0  0  0  0  0  0  0  0  # atno 6907 bound_to 6896
  150.7138  134.0777  159.3896 H   0  0  0  0  0  0  0  0  0  0  0  0  # atno 6908 bound_to 6896
  151.8694  135.0495  160.0528 H   0  0  0  0  0  0  0  0  0  0  0  0  # atno 6909 bound_to 6896
  145.0570  140.8261  143.4175 H   0  0  0  0  0  0  0  0  0  0  0  0  # atno 7974 bound_to 7965
  156.1676  140.1630  156.8504 H   0  0  0  0  0  0  0  0  0  0  0  0  # atno 8008 bound_to 7997
  154.5224  140.0775  156.8230 H   0  0  0  0  0  0  0  0  0  0  0  0  # atno 8009 bound_to 7997
  155.3579  140.3393  155.4242 H   0  0  0  0  0  0  0  0  0  0  0  0  # atno 8010 bound_to 7997
  140.7284  143.4578  151.0423 H   0  0  0  0  0  0  0  0  0  0  0  0  # atno 10167 bound_to 10162
  156.4154  130.8002  151.2222 H   0  0  0  0  0  0  0  0  0  0  0  0  # atno 10718 bound_to 10713
  153.4849  135.3671  155.2461 H   0  0  0  0  0  0  0  0  0  0  0  0  # atno 10763 bound_to 10752
  154.8754  135.3963  154.3656 H   0  0  0  0  0  0  0  0  0  0  0  0  # atno 10764 bound_to 10752
  153.4266  135.7081  153.6323 H   0  0  0  0  0  0  0  0  0  0  0  0  # atno 10765 bound_to 10752
  140.8535  134.2257  157.4747 H   0  0  0  0  0  0  0  0  0  0  0  0  # atno 11005 bound_to 11000
  145.1456  139.2545  143.5467 LP  0  0  0  0  0  0  0  0  0  0  0  0  # atno 17320 bound_to 7965
  146.3522  140.1145  142.8602 LP  0  0  0  0  0  0  0  0  0  0  0  0  # atno 17321 bound_to 7965
  139.8260  143.7755  152.3178 LP  0  0  0  0  0  0  0  0  0  0  0  0  # atno 17342 bound_to 10162
  139.7854  144.7429  151.0029 LP  0  0  0  0  0  0  0  0  0  0  0  0  # atno 17343 bound_to 10162
  157.7508  131.0245  150.3878 LP  0  0  0  0  0  0  0  0  0  0  0  0  # atno 17370 bound_to 10713
  156.4184  130.3948  149.6842 LP  0  0  0  0  0  0  0  0  0  0  0  0  # atno 17371 bound_to 10713
  139.8704  134.9695  156.4668 LP  0  0  0  0  0  0  0  0  0  0  0  0  # atno 17394 bound_to 11000
  140.8763  133.7950  155.9418 LP  0  0  0  0  0  0  0  0  0  0  0  0  # atno 17395 bound_to 11000

$$$$
