AV-unprocessed.smi:2008|AV-procd|sdf|8143|dock3
  -GOLD-   2272010383D 1   1.00000     0.00000
 Structure written by MMmdl.
 46 47  0  0  0  0  0  0  0  0  2 V2000
  151.1881  143.2095  157.5085 C   0  0  0  0  0  0  0  0  0  0  0  0
  151.7052  141.9479  157.0990 O   0  0  0  0  0  0  0  0  0  0  0  0
  150.9668  141.1951  156.2091 C   0  0  0  0  0  0  0  0  0  0  0  0
  151.5169  139.9936  155.7220 C   0  0  0  0  0  0  0  0  0  0  0  0
  150.7664  139.2243  154.8132 C   0  0  0  0  0  0  0  0  0  0  0  0
  149.4902  139.6727  154.4151 C   0  0  0  0  0  0  0  0  0  0  0  0
  148.7702  138.8635  153.4917 N   0  0  0  0  0  0  0  0  0  0  0  0
  147.4697  138.9007  153.1517 C   0  0  0  0  0  0  0  0  0  0  0  0
  146.6227  139.6571  153.6247 O   0  0  0  0  0  0  0  0  0  0  0  0
  147.1896  137.9870  152.2114 N   0  0  0  0  0  0  0  0  0  0  0  0
  145.8757  137.7851  151.6110 C   0  0  0  0  0  0  0  0  0  0  0  0
  145.8220  136.4821  150.7883 C   0  0  0  0  0  0  0  0  0  0  0  0
  146.0993  135.2615  151.5937 N   0  3  2  0  0  0  0  0  0  0  0  0
  146.0300  134.0242  150.7695 C   0  0  0  0  0  0  0  0  0  0  0  0
  146.5322  132.7993  151.5502 C   0  0  0  0  0  0  0  0  0  0  0  0
  145.7558  132.6248  152.8597 C   0  0  0  0  0  0  0  0  0  0  0  0
  145.8271  133.9181  153.6830 C   0  0  0  0  0  0  0  0  0  0  0  0
  145.3464  135.1485  152.8833 C   0  0  2  0  0  0  0  0  0  0  0  0
  143.8126  135.1680  152.7092 C   0  0  0  0  0  0  0  0  0  0  0  0
  149.0265  140.8955  154.9622 C   0  0  0  0  0  0  0  0  0  0  0  0
  149.7415  141.6374  155.8345 N   0  0  0  0  0  0  0  0  0  0  0  0
  151.8853  143.6766  158.2039 H   0  0  0  0  0  0  0  0  0  0  0  0
  150.2315  143.1018  158.0219 H   0  0  0  0  0  0  0  0  0  0  0  0
  151.0652  143.8845  156.6603 H   0  0  0  0  0  0  0  0  0  0  0  0
  152.4971  139.6686  156.0387 H   0  0  0  0  0  0  0  0  0  0  0  0
  151.1709  138.3000  154.4268 H   0  0  0  0  0  0  0  0  0  0  0  0
  149.3261  138.1692  153.0143 H   0  0  0  0  0  0  0  0  0  0  0  0
  147.9416  137.4029  151.8751 H   0  0  0  0  0  0  0  0  0  0  0  0
  145.1066  137.7841  152.3855 H   0  0  0  0  0  0  0  0  0  0  0  0
  145.6838  138.6510  150.9784 H   0  0  0  0  0  0  0  0  0  0  0  0
  144.8643  136.3898  150.2756 H   0  0  0  0  0  0  0  0  0  0  0  0
  146.5756  136.5421  150.0021 H   0  0  0  0  0  0  0  0  0  0  0  0
  145.0091  133.8617  150.4224 H   0  0  0  0  0  0  0  0  0  0  0  0
  146.6440  134.1444  149.8761 H   0  0  0  0  0  0  0  0  0  0  0  0
  146.4367  131.9018  150.9379 H   0  0  0  0  0  0  0  0  0  0  0  0
  147.5952  132.9138  151.7667 H   0  0  0  0  0  0  0  0  0  0  0  0
  144.7172  132.3701  152.6464 H   0  0  0  0  0  0  0  0  0  0  0  0
  146.1672  131.7925  153.4319 H   0  0  0  0  0  0  0  0  0  0  0  0
  145.2462  133.8105  154.5998 H   0  0  0  0  0  0  0  0  0  0  0  0
  146.8589  134.0790  153.9990 H   0  0  0  0  0  0  0  0  0  0  0  0
  145.6055  136.0115  153.4953 H   0  0  0  0  0  0  0  0  0  0  0  0
  143.3157  135.0622  153.6741 H   0  0  0  0  0  0  0  0  0  0  0  0
  143.4565  134.3590  152.0719 H   0  0  0  0  0  0  0  0  0  0  0  0
  143.4647  136.1077  152.2815 H   0  0  0  0  0  0  0  0  0  0  0  0
  148.0664  141.3171  154.7148 H   0  0  0  0  0  0  0  0  0  0  0  0
  147.0703  135.3399  151.8610 H   0  0  0  0  0  0  0  0  0  0  0  0
  1  2  1  0  0  0  0
  1 22  1  0  0  0  0
  1 23  1  0  0  0  0
  1 24  1  0  0  0  0
  2  3  1  0  0  0  0
  3 21  1  0  0  0  0
  3  4  2  0  0  0  0
  4  5  1  0  0  0  0
  4 25  1  0  0  0  0
  5  6  2  0  0  0  0
  5 26  1  0  0  0  0
  6  7  1  0  0  0  0
  6 20  1  0  0  0  0
  7  8  1  0  0  0  0
  7 27  1  0  0  0  0
  8  9  2  0  0  0  0
  8 10  1  0  0  0  0
 10 11  1  0  0  0  0
 10 28  1  0  0  0  0
 11 12  1  0  0  0  0
 11 29  1  0  0  0  0
 11 30  1  0  0  0  0
 12 13  1  0  0  0  0
 12 31  1  0  0  0  0
 12 32  1  0  0  0  0
 13 18  1  0  0  0  0
 13 14  1  0  0  0  0
 13 46  1  0  0  0  0
 14 15  1  0  0  0  0
 14 33  1  0  0  0  0
 14 34  1  0  0  0  0
 15 16  1  0  0  0  0
 15 35  1  0  0  0  0
 15 36  1  0  0  0  0
 16 17  1  0  0  0  0
 16 37  1  0  0  0  0
 16 38  1  0  0  0  0
 17 18  1  0  0  0  0
 17 39  1  0  0  0  0
 17 40  1  0  0  0  0
 18 19  1  0  0  0  0
 18 41  1  0  0  0  0
 19 42  1  0  0  0  0
 19 43  1  0  0  0  0
 19 44  1  0  0  0  0
 20 21  2  0  0  0  0
 20 45  1  0  0  0  0
M  CHG  1  13   1
M  END
> <s_m_source_file>
AV-unprocessed.smi

> <i_m_source_file_index>
2008

> <i_lp_mmshare_version>
43012

> <i_f3d_flags>
0

> <s_epik_input>
W0NIM11PYzFbY0hdW2NIXWMoW2NIXW4xKVtOSF1DKD1PKVtOSF1bQ0gyXVtDSDJdTjJbQ0gyXVtDSDJdW0NIMl1bQ0gyXVtDQEhdMltDSDNd

> <s_epik_cmdline>
J2VwaWtfcHl0aG9uJywgJy1waCcsICc3LjAnLCAnLXRuJywgJzgnLCAnLW1hJywgJzIwMCcsICctbWV0YWxfYmluZGluZycsICctaW1hZScsICc8aW5maWxlLm1hZT4nLCAnLW9tYWUnLCAnPG91dGZpbGUubWFlPic=

> <r_lp_tautomer_probability>
1

> <r_epik_Ionization_Penalty>
0.00219526

> <r_epik_Ionization_Penalty_Charging>
0.00211816

> <r_epik_Ionization_Penalty_Neutral>
7.71003e-05

> <r_epik_State_Penalty>
0.00145254

> <r_epik_Charging_Adjusted_Penalty>
0.0035707

> <i_epik_Tot_Q>
1

> <i_epik_Tot_abs_Q>
1

> <r_epik_Metal_State_Penalty>
-0

> <b_epik_Metal_Only>
0

> <s_lp_Force_Field>
OPLS_2005

> <r_lp_Energy>
23.262

> <b_lp_Chiralities_Consistent>
1

> <s_lp_Variant>
AV-unprocessed.smi:2008-3

> <Gold.Version>
5.8.1

> <Gold.Id.Protein>
6NUR|6NUR_protein|mol2

> <Gold.PLP.Fitness>
42.3820

> <Gold.PLP.PLP>
-32.6376

> <Gold.PLP.part.hbond>
-3.8391

> <Gold.PLP.part.metal>
0.0000

> <Gold.PLP.part.buried>
3.5902

> <Gold.PLP.part.nonpolar>
-32.4425

> <Gold.PLP.part.repulsive>
0.5244

> <Gold.PLP.ligand.clash>
0.0000

> <Gold.PLP.ligand.torsion>
0.1673

> <Gold.PLP.Chemscore.Hbond>
3.3407

> <Gold.PLP.Chemscore.CHOScore>
0.0000

> <Gold.PLP.Chemscore.Metal>
0.0000

> <Gold.Chemscore.Hbonds>
donor molecule, donor type, donor heavy atom, donor atom, acceptor molecule, acceptor atom, score
      L1  H     7    27       P1  7948  0.35
      L1  H    10    28       P1  7948  0.98
      L1  H    13    46       P1  7948  1.92

> <Gold.PLP.Chemscore.Internal.Correction>
0.0568

> <Gold.Rescore>
     Score         DG    S(hbond)    S(metal)    S(lipo)     H(rot)  DE(clash)    DE(int)     intcor
     14.49     -16.18       1.93        0.00      73.87       1.71       0.54       1.15       ----

> <Gold.Chemscore.Fitness>
14.4923

> <Gold.Chemscore.DG>
-16.1825

> <Gold.Chemscore.ZeroCoef>
-5.4800

> <Gold.Chemscore.Hbond>
1.9279

> <Gold.Chemscore.Metal>
0.0000

> <Gold.Chemscore.Lipo>
73.8707

> <Gold.Chemscore.Internal_Hbond>
0.0000

> <Gold.Chemscore.DEClash>
0.5412

> <Gold.Chemscore.DEInternal>
1.1491

> <Gold.Chemscore.Rot>
1.7107

> <Gold.Chemscore.Internal.Correction>
   9.000000E+99

> <Gold.Chemscore.Hbonds>
donor molecule, donor type, donor heavy atom, donor atom, acceptor molecule, acceptor atom, score
      L1  H     7    27       P1  7948  0.33
      L1  H    10    28       P1  7948  0.91
      L1  H    13    46       P1  7948  0.89

> <Gold.Chemscore.Hbond.Weighted>
-6.4391

> <Gold.Chemscore.Metal.Weighted>
-0.0000

> <Gold.Chemscore.Lipo.Weighted>
-8.6429

> <Gold.Chemscore.Internal_Hbond.Weighted>
0.0000

> <Gold.Chemscore.DEClash.Weighted>
0.5412

> <Gold.Chemscore.DEInternal.Weighted>
1.1491

> <Gold.Chemscore.Rot.Weighted>
4.3794

> <Gold.Chemscore.Internal.Correction.Weighted>
   9.000000E+99

> <Gold.Protein.RotatedTorsions>
[ 6907 6896 6895 6894 ] final   19.24 input  -60.11 | X-H torsion
[ 7974 7965 7964 7962 ] final  137.44 input  175.53 | X-H torsion
[ 8008 7997 7996 7995 ] final  167.50 input   59.86 | X-H torsion
[ 10167 10162 10161 10158 ] final -104.28 input  -65.29 | X-H torsion
[ 10718 10713 10712 10709 ] final  -81.09 input   66.30 | X-H torsion
[ 10763 10752 10751 10750 ] final  -62.69 input  -60.55 | X-H torsion
[ 11005 11000 10999 10996 ] final   38.82 input  -57.11 | X-H torsion

> <Gold.Protein.ActiveResidues>
 VAL166  LYS551  ARG553  GLY616  TRP617  ASP618  TYR619  PRO620  LYS621  CYS622 
 ASP623  PHE694  ASN695  SER759  ASP760  ASP761  ALA762  ILE779  LEU786  VAL792 
 PHE793  MET794  SER795  GLU796  ALA797  LYS798  CYS799  TRP800  GLU811  SER814 

> <Gold.Protein.RotatedAtoms>
  151.8778  135.0465  160.0485 H   0  0  0  0  0  0  0  0  0  0  0  0  # atno 6907 bound_to 6896
  152.2537  133.5233  159.5349 H   0  0  0  0  0  0  0  0  0  0  0  0  # atno 6908 bound_to 6896
  150.7092  134.0841  159.3951 H   0  0  0  0  0  0  0  0  0  0  0  0  # atno 6909 bound_to 6896
  144.9467  139.4866  143.5545 H   0  0  0  0  0  0  0  0  0  0  0  0  # atno 7974 bound_to 7965
  156.1629  140.1615  156.8582 H   0  0  0  0  0  0  0  0  0  0  0  0  # atno 8008 bound_to 7997
  154.5178  140.0785  156.8150 H   0  0  0  0  0  0  0  0  0  0  0  0  # atno 8009 bound_to 7997
  155.3672  140.3398  155.4244 H   0  0  0  0  0  0  0  0  0  0  0  0  # atno 8010 bound_to 7997
  140.2109  143.3747  152.1051 H   0  0  0  0  0  0  0  0  0  0  0  0  # atno 10167 bound_to 10162
  156.0057  130.4593  150.3900 H   0  0  0  0  0  0  0  0  0  0  0  0  # atno 10718 bound_to 10713
  154.3037  135.6229  153.5436 H   0  0  0  0  0  0  0  0  0  0  0  0  # atno 10763 bound_to 10752
  152.9837  135.5684  154.5255 H   0  0  0  0  0  0  0  0  0  0  0  0  # atno 10764 bound_to 10752
  154.4891  135.2866  155.1487 H   0  0  0  0  0  0  0  0  0  0  0  0  # atno 10765 bound_to 10752
  140.2088  134.3780  155.8059 H   0  0  0  0  0  0  0  0  0  0  0  0  # atno 11005 bound_to 11000
  146.3306  139.8525  142.8870 LP  0  0  0  0  0  0  0  0  0  0  0  0  # atno 17320 bound_to 7965
  145.2906  141.0166  143.3665 LP  0  0  0  0  0  0  0  0  0  0  0  0  # atno 17321 bound_to 7965
  139.5180  144.7000  151.5521 LP  0  0  0  0  0  0  0  0  0  0  0  0  # atno 17342 bound_to 10162
  140.6324  143.9051  150.6617 LP  0  0  0  0  0  0  0  0  0  0  0  0  # atno 17343 bound_to 10162
  157.1975  131.0430  151.2668 LP  0  0  0  0  0  0  0  0  0  0  0  0  # atno 17370 bound_to 10713
  157.4005  130.7331  149.6764 LP  0  0  0  0  0  0  0  0  0  0  0  0  # atno 17371 bound_to 10713
  141.2226  133.7132  156.8383 LP  0  0  0  0  0  0  0  0  0  0  0  0  # atno 17394 bound_to 11000
  140.1973  134.8922  157.3129 LP  0  0  0  0  0  0  0  0  0  0  0  0  # atno 17395 bound_to 11000

$$$$
