AV-unprocessed.smi:290|AV-procd|sdf|2223|dock3
  -GOLD-   2262022 73D 1   1.00000     0.00000
 Structure written by MMmdl.
 59 62  0  0  0  0  0  0  0  0  2 V2000
  144.4122  137.3668  161.6706 C   0  0  0  0  0  0  0  0  0  0  0  0
  145.5775  136.4457  161.2796 C   0  0  2  0  0  0  0  0  0  0  0  0
  146.7656  137.2011  161.0593 O   0  0  0  0  0  0  0  0  0  0  0  0
  147.5492  136.5972  160.0338 C   0  0  0  0  0  0  0  0  0  0  0  0
  146.8502  135.2830  159.6976 C   0  0  0  0  0  0  0  0  0  0  0  0
  145.3913  135.5917  160.0108 C   0  0  1  0  0  0  0  0  0  0  0  0
  144.7264  134.3822  160.3240 O   0  0  0  0  0  0  0  0  0  0  0  0
  144.6430  136.3217  158.8614 C   0  0  0  0  0  0  0  0  0  0  0  0
  144.6983  135.6287  157.5843 N   0  0  0  0  0  0  0  0  0  0  0  0
  143.6561  135.0032  156.9361 C   0  0  0  0  0  0  0  0  0  0  0  0
  143.9619  134.4471  155.7951 N   0  0  0  0  0  0  0  0  0  0  0  0
  145.3209  134.6968  155.6563 C   0  0  0  0  0  0  0  0  0  0  0  0
  146.2838  134.3794  154.6643 C   0  0  0  0  0  0  0  0  0  0  0  0
  145.9484  133.6933  153.5496 N   0  0  0  0  0  0  0  0  0  0  0  0
  146.6235  132.4143  153.3983 C   0  0  0  0  0  0  0  0  0  0  0  0
  146.3559  131.9766  151.9540 C   0  0  0  0  0  0  0  0  0  0  0  0
  146.0037  133.2817  151.2058 C   0  0  1  0  0  0  0  0  0  0  0  0
  144.6947  133.2631  150.4808 N   0  3  2  0  0  0  0  0  0  0  0  0
  143.5033  132.9661  151.3177 C   0  0  0  0  0  0  0  0  0  0  0  0
  144.7149  132.4529  149.2358 C   0  0  0  0  0  0  0  0  0  0  0  0
  143.4870  132.7157  148.3470 C   0  0  0  0  0  0  0  0  0  0  0  0
  143.5171  134.0417  147.8628 O   0  0  0  0  0  0  0  0  0  0  0  0
  146.1199  134.3845  152.2790 C   0  0  1  0  0  0  0  0  0  0  0  0
  145.2295  135.6324  152.1097 C   0  0  0  0  0  0  0  0  0  0  0  0
  147.5632  134.7939  154.8600 N   0  0  0  0  0  0  0  0  0  0  0  0
  147.8794  135.4780  155.9640 C   0  0  0  0  0  0  0  0  0  0  0  0
  147.0869  135.8469  156.9734 N   0  0  0  0  0  0  0  0  0  0  0  0
  145.8022  135.4335  156.7732 C   0  0  0  0  0  0  0  0  0  0  0  0
  146.7859  133.4839  150.4745 H   0  0  0  0  0  0  0  0  0  0  0  0
  147.1537  134.7335  152.2450 H   0  0  0  0  0  0  0  0  0  0  0  0
  143.4910  136.7989  161.8015 H   0  0  0  0  0  0  0  0  0  0  0  0
  144.2339  138.1345  160.9177 H   0  0  0  0  0  0  0  0  0  0  0  0
  144.6238  137.8763  162.6106 H   0  0  0  0  0  0  0  0  0  0  0  0
  145.7917  135.7832  162.1207 H   0  0  0  0  0  0  0  0  0  0  0  0
  147.5613  137.2594  159.1674 H   0  0  0  0  0  0  0  0  0  0  0  0
  148.5789  136.4462  160.3579 H   0  0  0  0  0  0  0  0  0  0  0  0
  147.0382  134.9439  158.6799 H   0  0  0  0  0  0  0  0  0  0  0  0
  147.2226  134.5063  160.3680 H   0  0  0  0  0  0  0  0  0  0  0  0
  145.3378  133.6684  160.2234 H   0  0  0  0  0  0  0  0  0  0  0  0
  143.5914  136.4545  159.1179 H   0  0  0  0  0  0  0  0  0  0  0  0
  145.0481  137.3242  158.7190 H   0  0  0  0  0  0  0  0  0  0  0  0
  142.6526  134.9794  157.3363 H   0  0  0  0  0  0  0  0  0  0  0  0
  147.6962  132.5247  153.5653 H   0  0  0  0  0  0  0  0  0  0  0  0
  146.2452  131.6842  154.1146 H   0  0  0  0  0  0  0  0  0  0  0  0
  147.2353  131.4942  151.5262 H   0  0  0  0  0  0  0  0  0  0  0  0
  145.5560  131.2396  151.9283 H   0  0  0  0  0  0  0  0  0  0  0  0
  143.3989  131.8988  151.5124 H   0  0  0  0  0  0  0  0  0  0  0  0
  142.6008  133.2910  150.7995 H   0  0  0  0  0  0  0  0  0  0  0  0
  143.5308  133.4840  152.2755 H   0  0  0  0  0  0  0  0  0  0  0  0
  145.6348  132.6541  148.6852 H   0  0  0  0  0  0  0  0  0  0  0  0
  144.7374  131.3898  149.4819 H   0  0  0  0  0  0  0  0  0  0  0  0
  143.4260  132.0220  147.5094 H   0  0  0  0  0  0  0  0  0  0  0  0
  142.5753  132.5868  148.9307 H   0  0  0  0  0  0  0  0  0  0  0  0
  144.4078  134.2589  147.6311 H   0  0  0  0  0  0  0  0  0  0  0  0
  145.3616  136.0732  151.1215 H   0  0  0  0  0  0  0  0  0  0  0  0
  145.4888  136.3977  152.8419 H   0  0  0  0  0  0  0  0  0  0  0  0
  144.1713  135.4090  152.2399 H   0  0  0  0  0  0  0  0  0  0  0  0
  148.9148  135.7734  156.0503 H   0  0  0  0  0  0  0  0  0  0  0  0
  144.5570  134.2131  150.1651 H   0  0  0  0  0  0  0  0  0  0  0  0
  1  2  1  0  0  0  0
  1 31  1  0  0  0  0
  1 32  1  0  0  0  0
  1 33  1  0  0  0  0
  2  6  1  0  0  0  0
  2  3  1  0  0  0  0
  2 34  1  0  0  0  0
  3  4  1  0  0  0  0
  4  5  1  0  0  0  0
  4 35  1  0  0  0  0
  4 36  1  0  0  0  0
  5  6  1  0  0  0  0
  5 37  1  0  0  0  0
  5 38  1  0  0  0  0
  6  7  1  0  0  0  0
  6  8  1  0  0  0  0
  7 39  1  0  0  0  0
  8  9  1  0  0  0  0
  8 40  1  0  0  0  0
  8 41  1  0  0  0  0
  9 28  1  0  0  0  0
  9 10  1  0  0  0  0
 10 11  2  0  0  0  0
 10 42  1  0  0  0  0
 11 12  1  0  0  0  0
 12 28  2  0  0  0  0
 12 13  1  0  0  0  0
 13 14  1  0  0  0  0
 13 25  2  0  0  0  0
 14 23  1  0  0  0  0
 14 15  1  0  0  0  0
 15 16  1  0  0  0  0
 15 43  1  0  0  0  0
 15 44  1  0  0  0  0
 16 17  1  0  0  0  0
 16 45  1  0  0  0  0
 16 46  1  0  0  0  0
 17 29  1  0  0  0  0
 17 18  1  0  0  0  0
 17 23  1  0  0  0  0
 18 19  1  0  0  0  0
 18 20  1  0  0  0  0
 18 59  1  0  0  0  0
 19 47  1  0  0  0  0
 19 48  1  0  0  0  0
 19 49  1  0  0  0  0
 20 21  1  0  0  0  0
 20 50  1  0  0  0  0
 20 51  1  0  0  0  0
 21 22  1  0  0  0  0
 21 52  1  0  0  0  0
 21 53  1  0  0  0  0
 22 54  1  0  0  0  0
 23 30  1  0  0  0  0
 23 24  1  0  0  0  0
 24 55  1  0  0  0  0
 24 56  1  0  0  0  0
 24 57  1  0  0  0  0
 25 26  1  0  0  0  0
 26 27  2  0  0  0  0
 26 58  1  0  0  0  0
 27 28  1  0  0  0  0
M  CHG  1  18   1
M  END
> <s_m_source_file>
AV-unprocessed.smi

> <i_m_source_file_index>
290

> <i_lp_mmshare_version>
43012

> <i_f3d_flags>
0

> <s_epik_input>
W0NIMl0xW0NIMl1PW0NAQEhdKFtDSDNdKVtDQEBdMShbT0hdKVtDSDJdbihbY0hdbjIpYyhjMjMpbltjSF1uYzNONFtDSDJdW0NIMl1bQ0BIXShbQ0BIXTRbQ0gzXSlOKFtDSDNdKVtDSDJdW0NIMl1bT0hd

> <s_epik_cmdline>
J2VwaWtfcHl0aG9uJywgJy1waCcsICc3LjAnLCAnLXRuJywgJzgnLCAnLW1hJywgJzIwMCcsICctbWV0YWxfYmluZGluZycsICctaW1hZScsICc8aW5maWxlLm1hZT4nLCAnLW9tYWUnLCAnPG91dGZpbGUubWFlPic=

> <r_lp_tautomer_probability>
1

> <r_epik_Ionization_Penalty>
0.0036983

> <r_epik_Ionization_Penalty_Charging>
0.0032725

> <r_epik_Ionization_Penalty_Neutral>
0.000425798

> <r_epik_State_Penalty>
-0

> <r_epik_Charging_Adjusted_Penalty>
0.0032725

> <i_epik_Tot_Q>
1

> <i_epik_Tot_abs_Q>
1

> <r_epik_Metal_State_Penalty>
-0

> <b_epik_Metal_Only>
0

> <s_lp_Force_Field>
OPLS_2005

> <r_lp_Energy>
69.2508

> <b_lp_Chiralities_Consistent>
1

> <s_lp_Variant>
AV-unprocessed.smi:290-9

> <Gold.Version>
5.8.1

> <Gold.Id.Protein>
6NUR|6NUR_protein|mol2

> <Gold.PLP.Fitness>
42.4864

> <Gold.PLP.PLP>
-31.8682

> <Gold.PLP.part.hbond>
-5.1578

> <Gold.PLP.part.metal>
0.0000

> <Gold.PLP.part.buried>
-5.8264

> <Gold.PLP.part.nonpolar>
-22.1252

> <Gold.PLP.part.repulsive>
0.3052

> <Gold.PLP.ligand.clash>
0.0000

> <Gold.PLP.ligand.torsion>
0.3030

> <Gold.PLP.Chemscore.Hbond>
3.0000

> <Gold.PLP.Chemscore.CHOScore>
0.6833

> <Gold.PLP.Chemscore.Metal>
0.0000

> <Gold.Chemscore.Hbonds>
donor molecule, donor type, donor heavy atom, donor atom, acceptor molecule, acceptor atom, score
      L1  H    22    54       P1  7921  1.00
      P1  H  6934  6947       L1     3  1.00
      P1  H 10192 10197       L1    22  1.00
      L1  C    10    42       P1 11000  1.00

> <Gold.PLP.Chemscore.Internal.Correction>
0.1744

> <Gold.Rescore>
     Score         DG    S(hbond)    S(metal)    S(lipo)     H(rot)  DE(clash)    DE(int)     intcor
     14.25     -14.83       2.83        0.00      79.25       3.67       0.07       0.52       ----

> <Gold.Chemscore.Fitness>
14.2490

> <Gold.Chemscore.DG>
-14.8323

> <Gold.Chemscore.ZeroCoef>
-5.4800

> <Gold.Chemscore.Hbond>
2.8338

> <Gold.Chemscore.Metal>
0.0000

> <Gold.Chemscore.Lipo>
79.2460

> <Gold.Chemscore.Internal_Hbond>
0.0000

> <Gold.Chemscore.DEClash>
0.0673

> <Gold.Chemscore.DEInternal>
0.5160

> <Gold.Chemscore.Rot>
3.6658

> <Gold.Chemscore.Internal.Correction>
   9.000000E+99

> <Gold.Chemscore.Hbonds>
donor molecule, donor type, donor heavy atom, donor atom, acceptor molecule, acceptor atom, score
      L1  H    22    54       P1  7921  1.00
      P1  H  6934  6947       L1     3  0.45
      P1  H 10192 10197       L1    22  0.93

> <Gold.Chemscore.Hbond.Weighted>
-9.4649

> <Gold.Chemscore.Metal.Weighted>
-0.0000

> <Gold.Chemscore.Lipo.Weighted>
-9.2718

> <Gold.Chemscore.Internal_Hbond.Weighted>
0.0000

> <Gold.Chemscore.DEClash.Weighted>
0.0673

> <Gold.Chemscore.DEInternal.Weighted>
0.5160

> <Gold.Chemscore.Rot.Weighted>
9.3844

> <Gold.Chemscore.Internal.Correction.Weighted>
   9.000000E+99

> <Gold.Protein.RotatedTorsions>
[ 6907 6896 6895 6894 ] final -102.08 input  -60.11 | X-H torsion
[ 7974 7965 7964 7962 ] final   21.63 input  175.53 | X-H torsion
[ 8008 7997 7996 7995 ] final  -61.49 input   59.86 | X-H torsion
[ 10167 10162 10161 10158 ] final  179.31 input  -65.29 | X-H torsion
[ 10718 10713 10712 10709 ] final -150.09 input   66.30 | X-H torsion
[ 10763 10752 10751 10750 ] final -102.17 input  -60.55 | X-H torsion
[ 11005 11000 10999 10996 ] final   61.13 input  -57.11 | X-H torsion

> <Gold.Protein.ActiveResidues>
 VAL166  LYS551  ARG553  GLY616  TRP617  ASP618  TYR619  PRO620  LYS621  CYS622 
 ASP623  PHE694  ASN695  SER759  ASP760  ASP761  ALA762  ILE779  LEU786  VAL792 
 PHE793  MET794  SER795  GLU796  ALA797  LYS798  CYS799  TRP800  GLU811  SER814 

> <Gold.Protein.RotatedAtoms>
  150.7181  134.0636  159.3839 H   0  0  0  0  0  0  0  0  0  0  0  0  # atno 6907 bound_to 6896
  151.8617  135.0519  160.0479 H   0  0  0  0  0  0  0  0  0  0  0  0  # atno 6908 bound_to 6896
  152.2712  133.5349  159.5477 H   0  0  0  0  0  0  0  0  0  0  0  0  # atno 6909 bound_to 6896
  146.2063  139.7999  142.8723 H   0  0  0  0  0  0  0  0  0  0  0  0  # atno 7974 bound_to 7965
  154.4450  140.1016  156.6439 H   0  0  0  0  0  0  0  0  0  0  0  0  # atno 8008 bound_to 7997
  155.5472  140.3485  155.4441 H   0  0  0  0  0  0  0  0  0  0  0  0  # atno 8009 bound_to 7997
  156.0555  140.1314  156.9990 H   0  0  0  0  0  0  0  0  0  0  0  0  # atno 8010 bound_to 7997
  139.5331  144.2576  152.0733 H   0  0  0  0  0  0  0  0  0  0  0  0  # atno 10167 bound_to 10162
  156.4417  130.8125  151.2354 H   0  0  0  0  0  0  0  0  0  0  0  0  # atno 10718 bound_to 10713
  154.7713  135.4870  153.9655 H   0  0  0  0  0  0  0  0  0  0  0  0  # atno 10763 bound_to 10752
  153.1372  135.6765  153.9092 H   0  0  0  0  0  0  0  0  0  0  0  0  # atno 10764 bound_to 10752
  153.8777  135.3136  155.3423 H   0  0  0  0  0  0  0  0  0  0  0  0  # atno 10765 bound_to 10752
  140.0182  134.6192  155.9678 H   0  0  0  0  0  0  0  0  0  0  0  0  # atno 11005 bound_to 11000
  145.3307  141.0266  143.3448 LP  0  0  0  0  0  0  0  0  0  0  0  0  # atno 17320 bound_to 7965
  144.8800  139.4917  143.6727 LP  0  0  0  0  0  0  0  0  0  0  0  0  # atno 17321 bound_to 7965
  140.2043  144.4627  150.6416 LP  0  0  0  0  0  0  0  0  0  0  0  0  # atno 17342 bound_to 10162
  140.6521  143.2228  151.6053 LP  0  0  0  0  0  0  0  0  0  0  0  0  # atno 17343 bound_to 10162
  157.7506  131.0166  150.3552 LP  0  0  0  0  0  0  0  0  0  0  0  0  # atno 17370 bound_to 10713
  156.3911  130.3898  149.7029 LP  0  0  0  0  0  0  0  0  0  0  0  0  # atno 17371 bound_to 10713
  141.1757  133.6540  156.4819 LP  0  0  0  0  0  0  0  0  0  0  0  0  # atno 17394 bound_to 11000
  140.4433  134.6996  157.5003 LP  0  0  0  0  0  0  0  0  0  0  0  0  # atno 17395 bound_to 11000

$$$$
