AV-unprocessed.smi:1888|AV-procd|sdf|7658|dock7
  -GOLD-   22720 9393D 1   1.00000     0.00000
 Structure written by MMmdl.
 43 45  0  0  0  0  0  0  0  0  2 V2000
  151.4996  138.2446  154.9091 C   0  0  0  0  0  0  0  0  0  0  0  0
  151.2149  139.5543  155.6478 C   0  0  0  0  0  0  0  0  0  0  0  0
  150.8765  139.2592  156.9921 O   0  0  0  0  0  0  0  0  0  0  0  0
  152.0138  139.1621  157.8324 C   0  0  0  0  0  0  0  0  0  0  0  0
  151.6437  139.6838  159.2267 C   0  0  0  0  0  0  0  0  0  0  0  0
  152.8140  139.8046  160.0897 N   0  0  0  0  0  0  0  0  0  0  0  0
  153.4113  140.9447  160.5209 C   0  0  0  0  0  0  0  0  0  0  0  0
  152.9270  142.2159  160.1461 N   0  0  0  0  0  0  0  0  0  0  0  0
  152.5801  142.4603  158.8637 N   0  0  0  0  0  0  0  0  0  0  0  0
  152.1776  143.7200  158.8543 C   0  0  0  0  0  0  0  0  0  0  0  0
  151.7006  144.3316  157.5704 C   0  0  0  0  0  0  0  0  0  0  0  0
  152.2691  144.3243  160.1395 C   0  0  0  0  0  0  0  0  0  0  0  0
  152.7563  143.3325  160.9436 C   0  0  0  0  0  0  0  0  0  0  0  0
  153.0696  143.3382  162.4039 C   0  0  0  0  0  0  0  0  0  0  0  0
  154.4579  140.7626  161.3286 N   0  0  0  0  0  0  0  0  0  0  0  0
  154.5424  139.3793  161.4071 C   0  0  0  0  0  0  0  0  0  0  0  0
  153.5679  138.7815  160.6694 C   0  0  0  0  0  0  0  0  0  0  0  0
  153.4001  137.3170  160.5548 C   0  0  0  0  0  0  0  0  0  0  0  0
  152.5023  136.8339  159.8681 O   0  0  0  0  0  0  0  0  0  0  0  0
  154.3387  136.6320  161.2820 N   0  5  0  0  0  0  0  0  0  0  0  0
  155.3411  137.1933  162.0445 C   0  0  0  0  0  0  0  0  0  0  0  0
  156.1467  136.5022  162.6693 O   0  0  0  0  0  0  0  0  0  0  0  0
  155.4576  138.5569  162.1198 N   0  0  0  0  0  0  0  0  0  0  0  0
  156.5116  139.1807  162.9248 C   0  0  0  0  0  0  0  0  0  0  0  0
  151.7595  138.4337  153.8674 H   0  0  0  0  0  0  0  0  0  0  0  0
  150.6280  137.5898  154.9235 H   0  0  0  0  0  0  0  0  0  0  0  0
  152.3300  137.7091  155.3697 H   0  0  0  0  0  0  0  0  0  0  0  0
  152.0942  140.1996  155.6131 H   0  0  0  0  0  0  0  0  0  0  0  0
  150.3951  140.0852  155.1617 H   0  0  0  0  0  0  0  0  0  0  0  0
  152.3488  138.1257  157.8905 H   0  0  0  0  0  0  0  0  0  0  0  0
  152.8341  139.7479  157.4158 H   0  0  0  0  0  0  0  0  0  0  0  0
  151.1551  140.6547  159.1436 H   0  0  0  0  0  0  0  0  0  0  0  0
  150.9137  139.0304  159.7035 H   0  0  0  0  0  0  0  0  0  0  0  0
  151.3259  145.3425  157.7308 H   0  0  0  0  0  0  0  0  0  0  0  0
  150.8931  143.7448  157.1317 H   0  0  0  0  0  0  0  0  0  0  0  0
  152.5077  144.3883  156.8399 H   0  0  0  0  0  0  0  0  0  0  0  0
  152.0140  145.3333  160.4273 H   0  0  0  0  0  0  0  0  0  0  0  0
  152.7403  144.2669  162.8699 H   0  0  0  0  0  0  0  0  0  0  0  0
  154.1425  143.2401  162.5695 H   0  0  0  0  0  0  0  0  0  0  0  0
  152.5712  142.5123  162.9120 H   0  0  0  0  0  0  0  0  0  0  0  0
  157.4954  138.8743  162.5678 H   0  0  0  0  0  0  0  0  0  0  0  0
  156.4196  138.8838  163.9703 H   0  0  0  0  0  0  0  0  0  0  0  0
  156.4790  140.2693  162.8916 H   0  0  0  0  0  0  0  0  0  0  0  0
  1  2  1  0  0  0  0
  1 25  1  0  0  0  0
  1 26  1  0  0  0  0
  1 27  1  0  0  0  0
  2  3  1  0  0  0  0
  2 28  1  0  0  0  0
  2 29  1  0  0  0  0
  3  4  1  0  0  0  0
  4  5  1  0  0  0  0
  4 30  1  0  0  0  0
  4 31  1  0  0  0  0
  5  6  1  0  0  0  0
  5 32  1  0  0  0  0
  5 33  1  0  0  0  0
  6 17  1  0  0  0  0
  6  7  1  0  0  0  0
  7  8  1  0  0  0  0
  7 15  2  0  0  0  0
  8 13  1  0  0  0  0
  8  9  1  0  0  0  0
  9 10  2  0  0  0  0
 10 11  1  0  0  0  0
 10 12  1  0  0  0  0
 11 34  1  0  0  0  0
 11 35  1  0  0  0  0
 11 36  1  0  0  0  0
 12 13  2  0  0  0  0
 12 37  1  0  0  0  0
 13 14  1  0  0  0  0
 14 38  1  0  0  0  0
 14 39  1  0  0  0  0
 14 40  1  0  0  0  0
 15 16  1  0  0  0  0
 16 23  1  0  0  0  0
 16 17  2  0  0  0  0
 17 18  1  0  0  0  0
 18 19  2  0  0  0  0
 18 20  1  0  0  0  0
 20 21  1  0  0  0  0
 21 22  2  0  0  0  0
 21 23  1  0  0  0  0
 23 24  1  0  0  0  0
 24 41  1  0  0  0  0
 24 42  1  0  0  0  0
 24 43  1  0  0  0  0
M  CHG  1  20  -1
M  END
> <s_m_source_file>
AV-unprocessed.smi

> <i_m_source_file_index>
1888

> <i_lp_mmshare_version>
43012

> <i_f3d_flags>
0

> <s_epik_input>
W0NIM11uMWMoPU8pW25IXWMoPU8pYyhjMTIpbihbQ0gyXVtDSDJdT1tDSDJdW0NIM10pYyhuMiktbjNuYyhbQ0gzXSlbY0hdYzNbQ0gzXQ==

> <s_epik_cmdline>
J2VwaWtfcHl0aG9uJywgJy1waCcsICc3LjAnLCAnLXRuJywgJzgnLCAnLW1hJywgJzIwMCcsICctbWV0YWxfYmluZGluZycsICctaW1hZScsICc8aW5maWxlLm1hZT4nLCAnLW9tYWUnLCAnPG91dGZpbGUubWFlPic=

> <r_lp_tautomer_probability>
1

> <r_epik_Ionization_Penalty>
3.99912

> <r_epik_Ionization_Penalty_Charging>
0.0169474

> <r_epik_Ionization_Penalty_Neutral>
3.98217

> <r_epik_State_Penalty>
3.98062

> <r_epik_Charging_Adjusted_Penalty>
3.99756

> <i_epik_Tot_Q>
-1

> <i_epik_Tot_abs_Q>
1

> <r_epik_Metal_State_Penalty>
0.61592

> <b_epik_Metal_Only>
1

> <s_lp_Force_Field>
OPLS_2005

> <r_lp_Energy>
30.4579

> <b_lp_Chiralities_Consistent>
1

> <s_lp_Variant>
AV-unprocessed.smi:1888-2

> <Gold.Version>
5.8.1

> <Gold.Id.Protein>
6NUR|6NUR_protein|mol2

> <Gold.PLP.Fitness>
49.5649

> <Gold.PLP.PLP>
-48.4808

> <Gold.PLP.part.hbond>
-1.0453

> <Gold.PLP.part.metal>
0.0000

> <Gold.PLP.part.buried>
-5.8423

> <Gold.PLP.part.nonpolar>
-42.3529

> <Gold.PLP.part.repulsive>
0.0000

> <Gold.PLP.ligand.clash>
0.0000

> <Gold.PLP.ligand.torsion>
1.2299

> <Gold.PLP.Chemscore.Hbond>
1.0000

> <Gold.PLP.Chemscore.CHOScore>
0.0000

> <Gold.PLP.Chemscore.Metal>
0.0000

> <Gold.Chemscore.Hbonds>
donor molecule, donor type, donor heavy atom, donor atom, acceptor molecule, acceptor atom, score
      P1  H  6896  6909       L1    19  1.00

> <Gold.PLP.Chemscore.Internal.Correction>
0.5439

> <Gold.Rescore>
     Score         DG    S(hbond)    S(metal)    S(lipo)     H(rot)  DE(clash)    DE(int)     intcor
     13.77     -16.19       0.99        0.00      99.68       1.67       0.01       2.41       ----

> <Gold.Chemscore.Fitness>
13.7736

> <Gold.Chemscore.DG>
-16.1907

> <Gold.Chemscore.ZeroCoef>
-5.4800

> <Gold.Chemscore.Hbond>
0.9932

> <Gold.Chemscore.Metal>
0.0000

> <Gold.Chemscore.Lipo>
99.6776

> <Gold.Chemscore.Internal_Hbond>
0.0000

> <Gold.Chemscore.DEClash>
0.0095

> <Gold.Chemscore.DEInternal>
2.4076

> <Gold.Chemscore.Rot>
1.6675

> <Gold.Chemscore.Internal.Correction>
   9.000000E+99

> <Gold.Chemscore.Hbonds>
donor molecule, donor type, donor heavy atom, donor atom, acceptor molecule, acceptor atom, score
      P1  H  6896  6909       L1    19  0.96

> <Gold.Chemscore.Hbond.Weighted>
-3.3173

> <Gold.Chemscore.Metal.Weighted>
-0.0000

> <Gold.Chemscore.Lipo.Weighted>
-11.6623

> <Gold.Chemscore.Internal_Hbond.Weighted>
0.0000

> <Gold.Chemscore.DEClash.Weighted>
0.0095

> <Gold.Chemscore.DEInternal.Weighted>
2.4076

> <Gold.Chemscore.Rot.Weighted>
4.2689

> <Gold.Chemscore.Internal.Correction.Weighted>
   9.000000E+99

> <Gold.Protein.RotatedTorsions>
[ 6907 6896 6895 6894 ] final  151.86 input  -60.11 | X-H torsion
[ 7974 7965 7964 7962 ] final   56.80 input  175.53 | X-H torsion
[ 8008 7997 7996 7995 ] final  154.08 input   59.86 | X-H torsion
[ 10167 10162 10161 10158 ] final   -0.32 input  -65.29 | X-H torsion
[ 10718 10713 10712 10709 ] final -121.49 input   66.30 | X-H torsion
[ 10763 10752 10751 10750 ] final  -20.34 input  -60.55 | X-H torsion
[ 11005 11000 10999 10996 ] final  149.31 input  -57.11 | X-H torsion

> <Gold.Protein.ActiveResidues>
 VAL166  LYS551  ARG553  GLY616  TRP617  ASP618  TYR619  PRO620  LYS621  CYS622 
 ASP623  PHE694  ASN695  SER759  ASP760  ASP761  ALA762  ILE779  LEU786  VAL792 
 PHE793  MET794  SER795  GLU796  ALA797  LYS798  CYS799  TRP800  GLU811  SER814 

> <Gold.Protein.RotatedAtoms>
  152.0948  133.4219  159.4560 H   0  0  0  0  0  0  0  0  0  0  0  0  # atno 6907 bound_to 6896
  150.6863  134.2829  159.4644 H   0  0  0  0  0  0  0  0  0  0  0  0  # atno 6908 bound_to 6896
  152.0684  134.9549  160.0625 H   0  0  0  0  0  0  0  0  0  0  0  0  # atno 6909 bound_to 6896
  145.9359  139.3847  143.0393 H   0  0  0  0  0  0  0  0  0  0  0  0  # atno 7974 bound_to 7965
  156.2549  140.1976  156.6591 H   0  0  0  0  0  0  0  0  0  0  0  0  # atno 8008 bound_to 7997
  154.6478  140.0575  156.9946 H   0  0  0  0  0  0  0  0  0  0  0  0  # atno 8009 bound_to 7997
  155.1464  140.3247  155.4443 H   0  0  0  0  0  0  0  0  0  0  0  0  # atno 8010 bound_to 7997
  140.6762  143.6908  150.8029 H   0  0  0  0  0  0  0  0  0  0  0  0  # atno 10167 bound_to 10162
  156.1341  130.6417  150.9668 H   0  0  0  0  0  0  0  0  0  0  0  0  # atno 10718 bound_to 10713
  153.6190  135.6993  153.5318 H   0  0  0  0  0  0  0  0  0  0  0  0  # atno 10763 bound_to 10752
  153.2954  135.4144  155.1204 H   0  0  0  0  0  0  0  0  0  0  0  0  # atno 10764 bound_to 10752
  154.8547  135.3635  154.5730 H   0  0  0  0  0  0  0  0  0  0  0  0  # atno 10765 bound_to 10752
  140.1034  134.8969  157.1830 H   0  0  0  0  0  0  0  0  0  0  0  0  # atno 11005 bound_to 11000
  145.8364  140.9604  143.0822 LP  0  0  0  0  0  0  0  0  0  0  0  0  # atno 17320 bound_to 7965
  144.6771  140.0228  143.7483 LP  0  0  0  0  0  0  0  0  0  0  0  0  # atno 17321 bound_to 7965
  140.0602  143.5163  152.2631 LP  0  0  0  0  0  0  0  0  0  0  0  0  # atno 17342 bound_to 10162
  139.6056  144.7595  151.3069 LP  0  0  0  0  0  0  0  0  0  0  0  0  # atno 17343 bound_to 10162
  157.6516  131.0896  150.8039 LP  0  0  0  0  0  0  0  0  0  0  0  0  # atno 17370 bound_to 10713
  156.8120  130.4955  149.5354 LP  0  0  0  0  0  0  0  0  0  0  0  0  # atno 17371 bound_to 10713
  140.3189  134.2939  155.7250 LP  0  0  0  0  0  0  0  0  0  0  0  0  # atno 17394 bound_to 11000
  141.2112  133.7697  156.9882 LP  0  0  0  0  0  0  0  0  0  0  0  0  # atno 17395 bound_to 11000

$$$$
