AV-unprocessed.smi:807|AV-procd|sdf|3802|dock10
  -GOLD-   22720 1243D 1   1.00000     0.00000
 Structure written by MMmdl.
 35 37  0  0  0  0  0  0  0  0  1 V2000
  148.0649  136.5461  157.2204 C   0  0  0  0  0  0  0  0  0  0  0  0
  148.4711  137.9022  156.8882 N   0  0  0  0  0  0  0  0  0  0  0  0
  148.1227  138.4672  155.6535 C   0  0  0  0  0  0  0  0  0  0  0  0
  147.3171  137.7901  154.8029 N   0  0  0  0  0  0  0  0  0  0  0  0
  147.0122  138.3696  153.6343 C   0  0  0  0  0  0  0  0  0  0  0  0
  147.3943  139.5646  153.1575 N   0  0  0  0  0  0  0  0  0  0  0  0
  148.1928  140.2428  153.9929 C   0  0  0  0  0  0  0  0  0  0  0  0
  148.7382  141.4936  153.7600 N   0  0  0  0  0  0  0  0  0  0  0  0
  149.4366  141.6958  154.8743 C   0  0  0  0  0  0  0  0  0  0  0  0
  149.4150  140.7233  155.8070 N   0  0  0  0  0  0  0  0  0  0  0  0
  150.1159  140.7270  157.0792 C   0  0  0  0  0  0  0  0  0  0  0  0
  151.5776  141.1988  156.9408 C   0  0  2  0  0  0  0  0  0  0  0  0
  152.3234  140.1463  156.3633 O   0  0  0  0  0  0  0  0  0  0  0  0
  152.1671  141.6637  158.2723 C   0  0  0  0  0  0  0  0  0  0  0  0
  152.5105  140.6993  159.2475 C   0  0  0  0  0  0  0  0  0  0  0  0
  153.0412  141.0906  160.4908 C   0  0  0  0  0  0  0  0  0  0  0  0
  153.2320  142.4544  160.7747 C   0  0  0  0  0  0  0  0  0  0  0  0
  152.8885  143.4240  159.8151 C   0  0  0  0  0  0  0  0  0  0  0  0
  152.3560  143.0392  158.5680 C   0  0  0  0  0  0  0  0  0  0  0  0
  151.9386  144.2833  157.4413 Cl  0  0  0  0  0  0  0  0  0  0  0  0
  148.5934  139.7373  155.2662 C   0  0  0  0  0  0  0  0  0  0  0  0
  148.4518  136.2724  158.2019 H   0  0  0  0  0  0  0  0  0  0  0  0
  148.4547  135.8359  156.4905 H   0  0  0  0  0  0  0  0  0  0  0  0
  146.9780  136.4625  157.2460 H   0  0  0  0  0  0  0  0  0  0  0  0
  149.0897  138.3969  157.5147 H   0  0  0  0  0  0  0  0  0  0  0  0
  146.3680  137.7951  152.9854 H   0  0  0  0  0  0  0  0  0  0  0  0
  150.0072  142.6019  155.0174 H   0  0  0  0  0  0  0  0  0  0  0  0
  149.5710  141.3620  157.7795 H   0  0  0  0  0  0  0  0  0  0  0  0
  150.0772  139.7167  157.4875 H   0  0  0  0  0  0  0  0  0  0  0  0
  151.6237  142.0062  156.2124 H   0  0  0  0  0  0  0  0  0  0  0  0
  151.8513  139.8188  155.6132 H   0  0  0  0  0  0  0  0  0  0  0  0
  152.3635  139.6482  159.0476 H   0  0  0  0  0  0  0  0  0  0  0  0
  153.3001  140.3439  161.2273 H   0  0  0  0  0  0  0  0  0  0  0  0
  153.6380  142.7568  161.7289 H   0  0  0  0  0  0  0  0  0  0  0  0
  153.0317  144.4709  160.0393 H   0  0  0  0  0  0  0  0  0  0  0  0
  1  2  1  0  0  0  0
  1 22  1  0  0  0  0
  1 23  1  0  0  0  0
  1 24  1  0  0  0  0
  2  3  1  0  0  0  0
  2 25  1  0  0  0  0
  3 21  1  0  0  0  0
  3  4  2  0  0  0  0
  4  5  1  0  0  0  0
  5  6  2  0  0  0  0
  5 26  1  0  0  0  0
  6  7  1  0  0  0  0
  7 21  2  0  0  0  0
  7  8  1  0  0  0  0
  8  9  2  0  0  0  0
  9 10  1  0  0  0  0
  9 27  1  0  0  0  0
 10 11  1  0  0  0  0
 10 21  1  0  0  0  0
 11 12  1  0  0  0  0
 11 28  1  0  0  0  0
 11 29  1  0  0  0  0
 12 13  1  0  0  0  0
 12 14  1  0  0  0  0
 12 30  1  0  0  0  0
 13 31  1  0  0  0  0
 14 19  1  0  0  0  0
 14 15  2  0  0  0  0
 15 16  1  0  0  0  0
 15 32  1  0  0  0  0
 16 17  2  0  0  0  0
 16 33  1  0  0  0  0
 17 18  1  0  0  0  0
 17 34  1  0  0  0  0
 18 19  2  0  0  0  0
 18 35  1  0  0  0  0
 19 20  1  0  0  0  0
M  END
> <s_m_source_file>
AV-unprocessed.smi

> <i_m_source_file_index>
807

> <i_lp_mmshare_version>
43012

> <i_f3d_flags>
0

> <s_epik_input>
bjFbY0hdbmMoW05IXVtDSDNdKWMoYzEyKW4oW2NIXW4yKVtDSDJdW0NASF0oW09IXSljM1tjSF1bY0hdW2NIXVtjSF1jM0Ns

> <s_epik_cmdline>
J2VwaWtfcHl0aG9uJywgJy1waCcsICc3LjAnLCAnLXRuJywgJzgnLCAnLW1hJywgJzIwMCcsICctbWV0YWxfYmluZGluZycsICctaW1hZScsICc8aW5maWxlLm1hZT4nLCAnLW9tYWUnLCAnPG91dGZpbGUubWFlPic=

> <r_lp_tautomer_probability>
1

> <r_epik_Ionization_Penalty>
0.00695285

> <r_epik_Ionization_Penalty_Charging>
0

> <r_epik_Ionization_Penalty_Neutral>
0.00695285

> <r_epik_State_Penalty>
-0

> <r_epik_Charging_Adjusted_Penalty>
0

> <i_epik_Tot_Q>
0

> <i_epik_Tot_abs_Q>
0

> <r_epik_Metal_State_Penalty>
-0

> <b_epik_Metal_Only>
0

> <s_lp_Force_Field>
OPLS_2005

> <r_lp_Energy>
11.3951

> <b_lp_Chiralities_Consistent>
1

> <s_lp_Variant>
AV-unprocessed.smi:807-1

> <Gold.Version>
5.8.1

> <Gold.Id.Protein>
6NUR|6NUR_protein|mol2

> <Gold.PLP.Fitness>
39.9091

> <Gold.PLP.PLP>
-33.5246

> <Gold.PLP.part.hbond>
-2.0000

> <Gold.PLP.part.metal>
0.0000

> <Gold.PLP.part.buried>
-3.1173

> <Gold.PLP.part.nonpolar>
-28.4888

> <Gold.PLP.part.repulsive>
1.3070

> <Gold.PLP.ligand.clash>
0.0000

> <Gold.PLP.ligand.torsion>
0.6436

> <Gold.PLP.Chemscore.Hbond>
1.6820

> <Gold.PLP.Chemscore.CHOScore>
0.8651

> <Gold.PLP.Chemscore.Metal>
0.0000

> <Gold.Chemscore.Hbonds>
donor molecule, donor type, donor heavy atom, donor atom, acceptor molecule, acceptor atom, score
      P1  H  7997  8008       L1    13  1.00
      P1  H  8011  8017       L1     8  0.72
      L1  C     9    27       P1  8028  0.82

> <Gold.PLP.Chemscore.Internal.Correction>
0.0303

> <Gold.Rescore>
     Score         DG    S(hbond)    S(metal)    S(lipo)     H(rot)  DE(clash)    DE(int)     intcor
     12.61     -14.11       1.23        0.00      89.22       2.31       0.84       0.66       ----

> <Gold.Chemscore.Fitness>
12.6071

> <Gold.Chemscore.DG>
-14.1075

> <Gold.Chemscore.ZeroCoef>
-5.4800

> <Gold.Chemscore.Hbond>
1.2295

> <Gold.Chemscore.Metal>
0.0000

> <Gold.Chemscore.Lipo>
89.2168

> <Gold.Chemscore.Internal_Hbond>
0.0000

> <Gold.Chemscore.DEClash>
0.8381

> <Gold.Chemscore.DEInternal>
0.6623

> <Gold.Chemscore.Rot>
2.3115

> <Gold.Chemscore.Internal.Correction>
   9.000000E+99

> <Gold.Chemscore.Hbonds>
donor molecule, donor type, donor heavy atom, donor atom, acceptor molecule, acceptor atom, score
      P1  H  7997  8008       L1    13  0.84
      P1  H  8011  8017       L1     8  0.35

> <Gold.Chemscore.Hbond.Weighted>
-4.1066

> <Gold.Chemscore.Metal.Weighted>
-0.0000

> <Gold.Chemscore.Lipo.Weighted>
-10.4384

> <Gold.Chemscore.Internal_Hbond.Weighted>
0.0000

> <Gold.Chemscore.DEClash.Weighted>
0.8381

> <Gold.Chemscore.DEInternal.Weighted>
0.6623

> <Gold.Chemscore.Rot.Weighted>
5.9174

> <Gold.Chemscore.Internal.Correction.Weighted>
   9.000000E+99

> <Gold.Protein.RotatedTorsions>
[ 6907 6896 6895 6894 ] final  -13.14 input  -60.11 | X-H torsion
[ 7974 7965 7964 7962 ] final  -91.52 input  175.53 | X-H torsion
[ 8008 7997 7996 7995 ] final  -34.98 input   59.86 | X-H torsion
[ 10167 10162 10161 10158 ] final   93.71 input  -65.29 | X-H torsion
[ 10718 10713 10712 10709 ] final  170.57 input   66.30 | X-H torsion
[ 10763 10752 10751 10750 ] final  -55.40 input  -60.55 | X-H torsion
[ 11005 11000 10999 10996 ] final  -47.46 input  -57.11 | X-H torsion

> <Gold.Protein.ActiveResidues>
 VAL166  LYS551  ARG553  GLY616  TRP617  ASP618  TYR619  PRO620  LYS621  CYS622 
 ASP623  PHE694  ASN695  SER759  ASP760  ASP761  ALA762  ILE779  LEU786  VAL792 
 PHE793  MET794  SER795  GLU796  ALA797  LYS798  CYS799  TRP800  GLU811  SER814 

> <Gold.Protein.RotatedAtoms>
  151.3595  135.0901  159.9429 H   0  0  0  0  0  0  0  0  0  0  0  0  # atno 6907 bound_to 6896
  152.5166  133.9272  159.7573 H   0  0  0  0  0  0  0  0  0  0  0  0  # atno 6908 bound_to 6896
  150.9664  133.6336  159.2775 H   0  0  0  0  0  0  0  0  0  0  0  0  # atno 6909 bound_to 6896
  145.4120  140.9545  143.2228 H   0  0  0  0  0  0  0  0  0  0  0  0  # atno 7974 bound_to 7965
  154.4107  140.1669  156.2138 H   0  0  0  0  0  0  0  0  0  0  0  0  # atno 8008 bound_to 7997
  155.9422  140.3407  155.6313 H   0  0  0  0  0  0  0  0  0  0  0  0  # atno 8009 bound_to 7997
  155.6975  140.0741  157.2414 H   0  0  0  0  0  0  0  0  0  0  0  0  # atno 8010 bound_to 7997
  139.8153  144.6755  150.9587 H   0  0  0  0  0  0  0  0  0  0  0  0  # atno 10167 bound_to 10162
  157.0063  131.0191  151.2816 H   0  0  0  0  0  0  0  0  0  0  0  0  # atno 10718 bound_to 10713
  154.1902  135.6428  153.5058 H   0  0  0  0  0  0  0  0  0  0  0  0  # atno 10763 bound_to 10752
  153.0037  135.5427  154.6423 H   0  0  0  0  0  0  0  0  0  0  0  0  # atno 10764 bound_to 10752
  154.5810  135.2925  155.0705 H   0  0  0  0  0  0  0  0  0  0  0  0  # atno 10765 bound_to 10752
  141.0642  133.6699  156.3301 H   0  0  0  0  0  0  0  0  0  0  0  0  # atno 11005 bound_to 11000
  144.8302  139.5641  143.6947 LP  0  0  0  0  0  0  0  0  0  0  0  0  # atno 17320 bound_to 7965
  146.2700  139.6611  142.9303 LP  0  0  0  0  0  0  0  0  0  0  0  0  # atno 17321 bound_to 7965
  140.7816  143.4144  151.0941 LP  0  0  0  0  0  0  0  0  0  0  0  0  # atno 17342 bound_to 10162
  139.7808  143.8358  152.3137 LP  0  0  0  0  0  0  0  0  0  0  0  0  # atno 17343 bound_to 10162
  157.5353  130.8085  149.7965 LP  0  0  0  0  0  0  0  0  0  0  0  0  # atno 17370 bound_to 10713
  156.0152  130.3816  150.2133 LP  0  0  0  0  0  0  0  0  0  0  0  0  # atno 17371 bound_to 10713
  140.5807  134.5748  157.5479 LP  0  0  0  0  0  0  0  0  0  0  0  0  # atno 17394 bound_to 11000
  139.9461  134.7700  156.0560 LP  0  0  0  0  0  0  0  0  0  0  0  0  # atno 17395 bound_to 11000

$$$$
