AV-unprocessed.smi:1983|AV-procd|sdf|8030|dock1
  -GOLD-   2272010223D 1   1.00000     0.00000
 Structure written by MMmdl.
 49 50  0  0  0  0  0  0  0  0  1 V2000
  147.8633  134.8276  156.6851 C   0  0  0  0  0  0  0  0  0  0  0  0
  149.0142  134.8344  155.6621 C   0  0  2  0  0  0  0  0  0  0  0  0
  150.4085  134.9331  156.3084 C   0  0  0  0  0  0  0  0  0  0  0  0
  150.6038  133.9229  157.2775 O   0  0  0  0  0  0  0  0  0  0  0  0
  148.8506  135.8976  154.6740 N   0  0  0  0  0  0  0  0  0  0  0  0
  148.6578  137.1942  154.9516 C   0  0  0  0  0  0  0  0  0  0  0  0
  148.5841  137.6539  156.0916 O   0  0  0  0  0  0  0  0  0  0  0  0
  148.5671  137.9330  153.8370 N   0  0  0  0  0  0  0  0  0  0  0  0
  148.4135  139.3833  153.8147 C   0  0  0  0  0  0  0  0  0  0  0  0
  149.2450  140.0892  154.8732 C   0  0  0  0  0  0  0  0  0  0  0  0
  150.6028  139.7677  155.0733 C   0  0  0  0  0  0  0  0  0  0  0  0
  151.3250  140.4477  156.0720 C   0  0  0  0  0  0  0  0  0  0  0  0
  150.6696  141.4343  156.8458 C   0  0  0  0  0  0  0  0  0  0  0  0
  151.3763  142.1232  157.8536 N   0  0  0  0  0  0  0  0  0  0  0  0
  152.1567  141.3384  158.8055 C   0  0  0  0  0  0  0  0  0  0  0  0
  153.1172  142.2511  159.5877 C   0  0  2  0  0  0  0  0  0  0  0  0
  153.8652  141.4868  160.6850 C   0  0  0  0  0  0  0  0  0  0  0  0
  152.3781  143.3040  160.2059 O   0  0  0  0  0  0  0  0  0  0  0  0
  151.6189  144.1128  159.3040 C   0  0  1  0  0  0  0  0  0  0  0  0
  152.5143  145.0230  158.4446 C   0  0  0  0  0  0  0  0  0  0  0  0
  150.6617  143.2348  158.4735 C   0  0  0  0  0  0  0  0  0  0  0  0
  149.3631  141.7401  156.6500 N   0  0  0  0  0  0  0  0  0  0  0  0
  148.6760  141.0872  155.6892 C   0  0  0  0  0  0  0  0  0  0  0  0
  148.0044  134.0395  157.4251 H   0  0  0  0  0  0  0  0  0  0  0  0
  146.9035  134.6503  156.1987 H   0  0  0  0  0  0  0  0  0  0  0  0
  147.7919  135.7764  157.2176 H   0  0  0  0  0  0  0  0  0  0  0  0
  148.9872  133.8831  155.1276 H   0  0  0  0  0  0  0  0  0  0  0  0
  151.1797  134.8237  155.5453 H   0  0  0  0  0  0  0  0  0  0  0  0
  150.5560  135.9107  156.7690 H   0  0  0  0  0  0  0  0  0  0  0  0
  150.9617  133.1607  156.8484 H   0  0  0  0  0  0  0  0  0  0  0  0
  148.9038  135.6214  153.7043 H   0  0  0  0  0  0  0  0  0  0  0  0
  148.6343  137.4648  152.9451 H   0  0  0  0  0  0  0  0  0  0  0  0
  148.7254  139.7455  152.8351 H   0  0  0  0  0  0  0  0  0  0  0  0
  147.3598  139.6477  153.9207 H   0  0  0  0  0  0  0  0  0  0  0  0
  151.0856  139.0088  154.4751 H   0  0  0  0  0  0  0  0  0  0  0  0
  152.3612  140.1972  156.2441 H   0  0  0  0  0  0  0  0  0  0  0  0
  151.4788  140.8271  159.4904 H   0  0  0  0  0  0  0  0  0  0  0  0
  152.7309  140.5731  158.2816 H   0  0  0  0  0  0  0  0  0  0  0  0
  153.8572  142.6721  158.9070 H   0  0  0  0  0  0  0  0  0  0  0  0
  154.4540  140.6715  160.2635 H   0  0  0  0  0  0  0  0  0  0  0  0
  153.1728  141.0596  161.4109 H   0  0  0  0  0  0  0  0  0  0  0  0
  154.5473  142.1456  161.2226 H   0  0  0  0  0  0  0  0  0  0  0  0
  151.0092  144.7689  159.9258 H   0  0  0  0  0  0  0  0  0  0  0  0
  151.9103  145.7229  157.8668 H   0  0  0  0  0  0  0  0  0  0  0  0
  153.1193  144.4584  157.7355 H   0  0  0  0  0  0  0  0  0  0  0  0
  153.1887  145.6079  159.0702 H   0  0  0  0  0  0  0  0  0  0  0  0
  150.1483  143.8520  157.7369 H   0  0  0  0  0  0  0  0  0  0  0  0
  149.8903  142.8206  159.1240 H   0  0  0  0  0  0  0  0  0  0  0  0
  147.6392  141.3675  155.5751 H   0  0  0  0  0  0  0  0  0  0  0  0
  1  2  1  0  0  0  0
  1 24  1  0  0  0  0
  1 25  1  0  0  0  0
  1 26  1  0  0  0  0
  2  3  1  0  0  0  0
  2  5  1  0  0  0  0
  2 27  1  0  0  0  0
  3  4  1  0  0  0  0
  3 28  1  0  0  0  0
  3 29  1  0  0  0  0
  4 30  1  0  0  0  0
  5  6  1  0  0  0  0
  5 31  1  0  0  0  0
  6  7  2  0  0  0  0
  6  8  1  0  0  0  0
  8  9  1  0  0  0  0
  8 32  1  0  0  0  0
  9 10  1  0  0  0  0
  9 33  1  0  0  0  0
  9 34  1  0  0  0  0
 10 23  1  0  0  0  0
 10 11  2  0  0  0  0
 11 12  1  0  0  0  0
 11 35  1  0  0  0  0
 12 13  2  0  0  0  0
 12 36  1  0  0  0  0
 13 14  1  0  0  0  0
 13 22  1  0  0  0  0
 14 21  1  0  0  0  0
 14 15  1  0  0  0  0
 15 16  1  0  0  0  0
 15 37  1  0  0  0  0
 15 38  1  0  0  0  0
 16 17  1  0  0  0  0
 16 18  1  0  0  0  0
 16 39  1  0  0  0  0
 17 40  1  0  0  0  0
 17 41  1  0  0  0  0
 17 42  1  0  0  0  0
 18 19  1  0  0  0  0
 19 20  1  0  0  0  0
 19 21  1  0  0  0  0
 19 43  1  0  0  0  0
 20 44  1  0  0  0  0
 20 45  1  0  0  0  0
 20 46  1  0  0  0  0
 21 47  1  0  0  0  0
 21 48  1  0  0  0  0
 22 23  2  0  0  0  0
 23 49  1  0  0  0  0
M  END
> <s_m_source_file>
AV-unprocessed.smi

> <i_m_source_file_index>
1983

> <i_lp_mmshare_version>
43012

> <i_f3d_flags>
0

> <s_epik_input>
W09IXVtDSDJdW0NAQEhdKFtDSDNdKVtOSF1DKD1PKVtOSF1bQ0gyXWMxW2NIXVtjSF1jKG5bY0hdMSlOMltDSDJdW0NAQEhdKFtDSDNdKU9bQ0BASF0oW0NIM10pW0NIMl0y

> <s_epik_cmdline>
J2VwaWtfcHl0aG9uJywgJy1waCcsICc3LjAnLCAnLXRuJywgJzgnLCAnLW1hJywgJzIwMCcsICctbWV0YWxfYmluZGluZycsICctaW1hZScsICc8aW5maWxlLm1hZT4nLCAnLW9tYWUnLCAnPG91dGZpbGUubWFlPic=

> <r_lp_tautomer_probability>
1

> <r_epik_Ionization_Penalty>
0.00801967

> <r_epik_Ionization_Penalty_Charging>
0

> <r_epik_Ionization_Penalty_Neutral>
0.00801967

> <r_epik_State_Penalty>
0.00598289

> <r_epik_Charging_Adjusted_Penalty>
0.00598289

> <i_epik_Tot_Q>
0

> <i_epik_Tot_abs_Q>
0

> <r_epik_Metal_State_Penalty>
0.00590297

> <b_epik_Metal_Only>
0

> <s_lp_Force_Field>
OPLS_2005

> <r_lp_Energy>
17.398

> <b_lp_Chiralities_Consistent>
1

> <s_lp_Variant>
AV-unprocessed.smi:1983-3

> <Gold.Version>
5.8.1

> <Gold.Id.Protein>
6NUR|6NUR_protein|mol2

> <Gold.PLP.Fitness>
46.2261

> <Gold.PLP.PLP>
-39.0143

> <Gold.PLP.part.hbond>
-3.0000

> <Gold.PLP.part.metal>
0.0000

> <Gold.PLP.part.buried>
-4.3663

> <Gold.PLP.part.nonpolar>
-32.2476

> <Gold.PLP.part.repulsive>
0.2161

> <Gold.PLP.ligand.clash>
0.0000

> <Gold.PLP.ligand.torsion>
0.5677

> <Gold.PLP.Chemscore.Hbond>
2.6480

> <Gold.PLP.Chemscore.CHOScore>
0.0000

> <Gold.PLP.Chemscore.Metal>
0.0000

> <Gold.Chemscore.Hbonds>
donor molecule, donor type, donor heavy atom, donor atom, acceptor molecule, acceptor atom, score
      L1  H     5    31       P1  7948  0.93
      L1  H     8    32       P1  7948  1.00
      P1  H  6896  6908       L1     4  0.70

> <Gold.PLP.Chemscore.Internal.Correction>
0.4032

> <Gold.Rescore>
     Score         DG    S(hbond)    S(metal)    S(lipo)     H(rot)  DE(clash)    DE(int)     intcor
     17.53     -19.44       2.65        0.00     100.83       2.61       0.07       1.84       ----

> <Gold.Chemscore.Fitness>
17.5294

> <Gold.Chemscore.DG>
-19.4355

> <Gold.Chemscore.ZeroCoef>
-5.4800

> <Gold.Chemscore.Hbond>
2.6466

> <Gold.Chemscore.Metal>
0.0000

> <Gold.Chemscore.Lipo>
100.8279

> <Gold.Chemscore.Internal_Hbond>
0.0000

> <Gold.Chemscore.DEClash>
0.0683

> <Gold.Chemscore.DEInternal>
1.8378

> <Gold.Chemscore.Rot>
2.6097

> <Gold.Chemscore.Internal.Correction>
   9.000000E+99

> <Gold.Chemscore.Hbonds>
donor molecule, donor type, donor heavy atom, donor atom, acceptor molecule, acceptor atom, score
      L1  H     5    31       P1  7948  0.82
      L1  H     8    32       P1  7948  0.99
      P1  H  6896  6908       L1     4  0.45

> <Gold.Chemscore.Hbond.Weighted>
-8.8396

> <Gold.Chemscore.Metal.Weighted>
-0.0000

> <Gold.Chemscore.Lipo.Weighted>
-11.7969

> <Gold.Chemscore.Internal_Hbond.Weighted>
0.0000

> <Gold.Chemscore.DEClash.Weighted>
0.0683

> <Gold.Chemscore.DEInternal.Weighted>
1.8378

> <Gold.Chemscore.Rot.Weighted>
6.6809

> <Gold.Chemscore.Internal.Correction.Weighted>
   9.000000E+99

> <Gold.Protein.RotatedTorsions>
[ 6907 6896 6895 6894 ] final  113.00 input  -60.11 | X-H torsion
[ 7974 7965 7964 7962 ] final  -17.80 input  175.53 | X-H torsion
[ 8008 7997 7996 7995 ] final   37.39 input   59.86 | X-H torsion
[ 10167 10162 10161 10158 ] final   87.77 input  -65.29 | X-H torsion
[ 10718 10713 10712 10709 ] final   81.60 input   66.30 | X-H torsion
[ 10763 10752 10751 10750 ] final  161.39 input  -60.55 | X-H torsion
[ 11005 11000 10999 10996 ] final  -43.13 input  -57.11 | X-H torsion

> <Gold.Protein.ActiveResidues>
 VAL166  LYS551  ARG553  GLY616  TRP617  ASP618  TYR619  PRO620  LYS621  CYS622 
 ASP623  PHE694  ASN695  SER759  ASP760  ASP761  ALA762  ILE779  LEU786  VAL792 
 PHE793  MET794  SER795  GLU796  ALA797  LYS798  CYS799  TRP800  GLU811  SER814 

> <Gold.Protein.RotatedAtoms>
  152.4885  133.8437  159.7165 H   0  0  0  0  0  0  0  0  0  0  0  0  # atno 6907 bound_to 6896
  150.8993  133.7130  159.2890 H   0  0  0  0  0  0  0  0  0  0  0  0  # atno 6908 bound_to 6896
  151.4576  135.1039  159.9768 H   0  0  0  0  0  0  0  0  0  0  0  0  # atno 6909 bound_to 6896
  146.1923  140.3830  142.8453 H   0  0  0  0  0  0  0  0  0  0  0  0  # atno 7974 bound_to 7965
  155.2030  140.3317  155.4340 H   0  0  0  0  0  0  0  0  0  0  0  0  # atno 8008 bound_to 7997
  156.2400  140.1890  156.7065 H   0  0  0  0  0  0  0  0  0  0  0  0  # atno 8009 bound_to 7997
  154.6129  140.0606  156.9502 H   0  0  0  0  0  0  0  0  0  0  0  0  # atno 8010 bound_to 7997
  139.8740  144.6477  150.8917 H   0  0  0  0  0  0  0  0  0  0  0  0  # atno 10167 bound_to 10162
  157.6837  131.0011  150.2250 H   0  0  0  0  0  0  0  0  0  0  0  0  # atno 10718 bound_to 10713
  154.2622  135.2768  155.2773 H   0  0  0  0  0  0  0  0  0  0  0  0  # atno 10763 bound_to 10752
  154.5374  135.5712  153.6813 H   0  0  0  0  0  0  0  0  0  0  0  0  # atno 10764 bound_to 10752
  152.9960  135.6242  154.2773 H   0  0  0  0  0  0  0  0  0  0  0  0  # atno 10765 bound_to 10752
  141.0363  133.6798  156.2691 H   0  0  0  0  0  0  0  0  0  0  0  0  # atno 11005 bound_to 11000
  144.8512  140.7003  143.6167 LP  0  0  0  0  0  0  0  0  0  0  0  0  # atno 17320 bound_to 7965
  145.3752  139.1649  143.4310 LP  0  0  0  0  0  0  0  0  0  0  0  0  # atno 17321 bound_to 7965
  140.7756  143.3640  151.1774 LP  0  0  0  0  0  0  0  0  0  0  0  0  # atno 17342 bound_to 10162
  139.7257  143.9151  152.3002 LP  0  0  0  0  0  0  0  0  0  0  0  0  # atno 17343 bound_to 10162
  156.2894  130.3743  149.7856 LP  0  0  0  0  0  0  0  0  0  0  0  0  # atno 17370 bound_to 10713
  156.5520  130.8346  151.3302 LP  0  0  0  0  0  0  0  0  0  0  0  0  # atno 17371 bound_to 10713
  140.6316  134.5258  157.5560 LP  0  0  0  0  0  0  0  0  0  0  0  0  # atno 17394 bound_to 11000
  139.9243  134.8087  156.1116 LP  0  0  0  0  0  0  0  0  0  0  0  0  # atno 17395 bound_to 11000

$$$$
