AV-unprocessed.smi:1357|AV-procd|sdf|5548|dock3
  -GOLD-   22720 5143D 1   1.00000     0.00000
 Structure written by MMmdl.
 43 44  0  0  0  0  0  0  0  0  1 V2000
  148.4132  135.4818  155.0091 C   0  0  0  0  0  0  0  0  0  0  0  0
  149.9070  135.1938  155.2664 C   0  0  0  0  0  0  0  0  0  0  0  0
  150.0555  134.4917  156.6316 C   0  0  0  0  0  0  0  0  0  0  0  0
  150.4328  134.2534  154.1562 C   0  0  0  0  0  0  0  0  0  0  0  0
  150.6693  136.5406  155.3155 C   0  0  0  0  0  0  0  0  0  0  0  0
  151.2489  136.8731  156.3506 O   0  0  0  0  0  0  0  0  0  0  0  0
  150.6703  137.3137  154.2159 N   0  0  0  0  0  0  0  0  0  0  0  0
  151.2905  138.6285  154.1105 C   0  0  0  0  0  0  0  0  0  0  0  0
  150.5160  139.6876  154.8719 C   0  0  0  0  0  0  0  0  0  0  0  0
  149.1920  140.0108  154.5127 C   0  0  0  0  0  0  0  0  0  0  0  0
  148.5275  141.0177  155.2386 C   0  0  0  0  0  0  0  0  0  0  0  0
  149.0950  141.6897  156.2628 N   0  0  0  0  0  0  0  0  0  0  0  0
  150.3682  141.3797  156.6071 C   0  0  0  0  0  0  0  0  0  0  0  0
  150.9572  142.0679  157.6774 N   0  0  0  0  0  0  0  0  0  0  0  0
  151.3908  143.4123  157.3183 C   0  0  0  0  0  0  0  0  0  0  0  0
  151.9032  144.1522  158.5662 C   0  0  0  0  0  0  0  0  0  0  0  0
  152.9397  143.3926  159.1819 O   0  0  0  0  0  0  0  0  0  0  0  0
  152.4869  142.1067  159.5965 C   0  0  0  0  0  0  0  0  0  0  0  0
  151.9940  141.3149  158.3730 C   0  0  0  0  0  0  0  0  0  0  0  0
  151.1156  140.3867  155.9393 C   0  0  0  0  0  0  0  0  0  0  0  0
  147.8344  134.5583  154.9691 H   0  0  0  0  0  0  0  0  0  0  0  0
  148.2643  136.0003  154.0609 H   0  0  0  0  0  0  0  0  0  0  0  0
  147.9762  136.1001  155.7945 H   0  0  0  0  0  0  0  0  0  0  0  0
  149.6671  135.1025  157.4479 H   0  0  0  0  0  0  0  0  0  0  0  0
  151.1000  134.2698  156.8544 H   0  0  0  0  0  0  0  0  0  0  0  0
  149.5110  133.5468  156.6498 H   0  0  0  0  0  0  0  0  0  0  0  0
  149.8759  133.3159  154.1418 H   0  0  0  0  0  0  0  0  0  0  0  0
  151.4828  133.9973  154.3049 H   0  0  0  0  0  0  0  0  0  0  0  0
  150.3322  134.7001  153.1659 H   0  0  0  0  0  0  0  0  0  0  0  0
  150.1763  136.9773  153.4021 H   0  0  0  0  0  0  0  0  0  0  0  0
  152.3244  138.6000  154.4588 H   0  0  0  0  0  0  0  0  0  0  0  0
  151.3325  138.9042  153.0564 H   0  0  0  0  0  0  0  0  0  0  0  0
  148.6978  139.5052  153.6961 H   0  0  0  0  0  0  0  0  0  0  0  0
  147.5135  141.2923  154.9886 H   0  0  0  0  0  0  0  0  0  0  0  0
  152.1829  143.3551  156.5703 H   0  0  0  0  0  0  0  0  0  0  0  0
  150.5622  143.9622  156.8703 H   0  0  0  0  0  0  0  0  0  0  0  0
  152.2962  145.1299  158.2880 H   0  0  0  0  0  0  0  0  0  0  0  0
  151.0933  144.3244  159.2770 H   0  0  0  0  0  0  0  0  0  0  0  0
  153.3091  141.5791  160.0799 H   0  0  0  0  0  0  0  0  0  0  0  0
  151.6940  142.2109  160.3391 H   0  0  0  0  0  0  0  0  0  0  0  0
  151.5998  140.3474  158.6862 H   0  0  0  0  0  0  0  0  0  0  0  0
  152.8297  141.1216  157.6988 H   0  0  0  0  0  0  0  0  0  0  0  0
  152.1303  140.1673  156.2390 H   0  0  0  0  0  0  0  0  0  0  0  0
  1  2  1  0  0  0  0
  1 21  1  0  0  0  0
  1 22  1  0  0  0  0
  1 23  1  0  0  0  0
  2  3  1  0  0  0  0
  2  4  1  0  0  0  0
  2  5  1  0  0  0  0
  3 24  1  0  0  0  0
  3 25  1  0  0  0  0
  3 26  1  0  0  0  0
  4 27  1  0  0  0  0
  4 28  1  0  0  0  0
  4 29  1  0  0  0  0
  5  6  2  0  0  0  0
  5  7  1  0  0  0  0
  7  8  1  0  0  0  0
  7 30  1  0  0  0  0
  8  9  1  0  0  0  0
  8 31  1  0  0  0  0
  8 32  1  0  0  0  0
  9 20  1  0  0  0  0
  9 10  2  0  0  0  0
 10 11  1  0  0  0  0
 10 33  1  0  0  0  0
 11 12  2  0  0  0  0
 11 34  1  0  0  0  0
 12 13  1  0  0  0  0
 13 14  1  0  0  0  0
 13 20  2  0  0  0  0
 14 19  1  0  0  0  0
 14 15  1  0  0  0  0
 15 16  1  0  0  0  0
 15 35  1  0  0  0  0
 15 36  1  0  0  0  0
 16 17  1  0  0  0  0
 16 37  1  0  0  0  0
 16 38  1  0  0  0  0
 17 18  1  0  0  0  0
 18 19  1  0  0  0  0
 18 39  1  0  0  0  0
 18 40  1  0  0  0  0
 19 41  1  0  0  0  0
 19 42  1  0  0  0  0
 20 43  1  0  0  0  0
M  END
> <s_m_source_file>
AV-unprocessed.smi

> <i_m_source_file_index>
1357

> <i_lp_mmshare_version>
43012

> <i_f3d_flags>
0

> <s_epik_input>
W0NIM11DKFtDSDNdKShbQ0gzXSlDKD1PKVtOSF1bQ0gyXWMxW2NIXVtjSF1uYyhbY0hdMSlOMltDSDJdW0NIMl1PW0NIMl1bQ0gyXTI=

> <s_epik_cmdline>
J2VwaWtfcHl0aG9uJywgJy1waCcsICc3LjAnLCAnLXRuJywgJzgnLCAnLW1hJywgJzIwMCcsICctbWV0YWxfYmluZGluZycsICctaW1hZScsICc8aW5maWxlLm1hZT4nLCAnLW9tYWUnLCAnPG91dGZpbGUubWFlPic=

> <r_lp_tautomer_probability>
1

> <r_epik_Ionization_Penalty>
0.00576178

> <r_epik_Ionization_Penalty_Charging>
0

> <r_epik_Ionization_Penalty_Neutral>
0.00576178

> <r_epik_State_Penalty>
0.00422935

> <r_epik_Charging_Adjusted_Penalty>
0.00422935

> <i_epik_Tot_Q>
0

> <i_epik_Tot_abs_Q>
0

> <r_epik_Metal_State_Penalty>
-0

> <b_epik_Metal_Only>
0

> <s_lp_Force_Field>
OPLS_2005

> <r_lp_Energy>
22.6538

> <b_lp_Chiralities_Consistent>
1

> <s_lp_Variant>
AV-unprocessed.smi:1357-1

> <Gold.Version>
5.8.1

> <Gold.Id.Protein>
6NUR|6NUR_protein|mol2

> <Gold.PLP.Fitness>
36.0062

> <Gold.PLP.PLP>
-34.2861

> <Gold.PLP.part.hbond>
-1.2875

> <Gold.PLP.part.metal>
0.0000

> <Gold.PLP.part.buried>
-6.3261

> <Gold.PLP.part.nonpolar>
-28.7296

> <Gold.PLP.part.repulsive>
1.4425

> <Gold.PLP.ligand.clash>
0.0449

> <Gold.PLP.ligand.torsion>
0.6719

> <Gold.PLP.Chemscore.Hbond>
1.0000

> <Gold.PLP.Chemscore.CHOScore>
0.0000

> <Gold.PLP.Chemscore.Metal>
0.0000

> <Gold.Chemscore.Hbonds>
donor molecule, donor type, donor heavy atom, donor atom, acceptor molecule, acceptor atom, score
      L1  H     7    30       P1  7948  0.71

> <Gold.PLP.Chemscore.Internal.Correction>
0.1088

> <Gold.Rescore>
     Score         DG    S(hbond)    S(metal)    S(lipo)     H(rot)  DE(clash)    DE(int)     intcor
     14.56     -15.09       0.92        0.00      89.03       1.52       0.07       0.47       ----

> <Gold.Chemscore.Fitness>
14.5560

> <Gold.Chemscore.DG>
-15.0948

> <Gold.Chemscore.ZeroCoef>
-5.4800

> <Gold.Chemscore.Hbond>
0.9230

> <Gold.Chemscore.Metal>
0.0000

> <Gold.Chemscore.Lipo>
89.0278

> <Gold.Chemscore.Internal_Hbond>
0.0000

> <Gold.Chemscore.DEClash>
0.0724

> <Gold.Chemscore.DEInternal>
0.4664

> <Gold.Chemscore.Rot>
1.5173

> <Gold.Chemscore.Internal.Correction>
   9.000000E+99

> <Gold.Chemscore.Hbonds>
donor molecule, donor type, donor heavy atom, donor atom, acceptor molecule, acceptor atom, score
      L1  H     7    30       P1  7948  0.08

> <Gold.Chemscore.Hbond.Weighted>
-3.0828

> <Gold.Chemscore.Metal.Weighted>
-0.0000

> <Gold.Chemscore.Lipo.Weighted>
-10.4163

> <Gold.Chemscore.Internal_Hbond.Weighted>
0.0000

> <Gold.Chemscore.DEClash.Weighted>
0.0724

> <Gold.Chemscore.DEInternal.Weighted>
0.4664

> <Gold.Chemscore.Rot.Weighted>
3.8843

> <Gold.Chemscore.Internal.Correction.Weighted>
   9.000000E+99

> <Gold.Protein.RotatedTorsions>
[ 6907 6896 6895 6894 ] final  128.24 input  -60.11 | X-H torsion
[ 7974 7965 7964 7962 ] final   75.41 input  175.53 | X-H torsion
[ 8008 7997 7996 7995 ] final   65.22 input   59.86 | X-H torsion
[ 10167 10162 10161 10158 ] final   42.38 input  -65.29 | X-H torsion
[ 10718 10713 10712 10709 ] final   96.18 input   66.30 | X-H torsion
[ 10763 10752 10751 10750 ] final   99.78 input  -60.55 | X-H torsion
[ 11005 11000 10999 10996 ] final  -92.06 input  -57.11 | X-H torsion

> <Gold.Protein.ActiveResidues>
 VAL166  LYS551  ARG553  GLY616  TRP617  ASP618  TYR619  PRO620  LYS621  CYS622 
 ASP623  PHE694  ASN695  SER759  ASP760  ASP761  ALA762  ILE779  LEU786  VAL792 
 PHE793  MET794  SER795  GLU796  ALA797  LYS798  CYS799  TRP800  GLU811  SER814 

> <Gold.Protein.RotatedAtoms>
  152.3738  133.6454  159.6107 H   0  0  0  0  0  0  0  0  0  0  0  0  # atno 6907 bound_to 6896
  150.7688  133.9226  159.3411 H   0  0  0  0  0  0  0  0  0  0  0  0  # atno 6908 bound_to 6896
  151.7044  135.0925  160.0308 H   0  0  0  0  0  0  0  0  0  0  0  0  # atno 6909 bound_to 6896
  145.7160  139.2631  143.1623 H   0  0  0  0  0  0  0  0  0  0  0  0  # atno 7974 bound_to 7965
  155.6583  140.3497  155.4773 H   0  0  0  0  0  0  0  0  0  0  0  0  # atno 8008 bound_to 7997
  155.9790  140.1170  157.0767 H   0  0  0  0  0  0  0  0  0  0  0  0  # atno 8009 bound_to 7997
  154.4186  140.1142  156.5395 H   0  0  0  0  0  0  0  0  0  0  0  0  # atno 8010 bound_to 7997
  140.3550  144.2301  150.6142 H   0  0  0  0  0  0  0  0  0  0  0  0  # atno 10167 bound_to 10162
  157.6930  131.0570  150.4453 H   0  0  0  0  0  0  0  0  0  0  0  0  # atno 10718 bound_to 10713
  153.3057  135.4101  155.1292 H   0  0  0  0  0  0  0  0  0  0  0  0  # atno 10763 bound_to 10752
  154.8562  135.3552  154.5791 H   0  0  0  0  0  0  0  0  0  0  0  0  # atno 10764 bound_to 10752
  153.6218  135.7064  153.5366 H   0  0  0  0  0  0  0  0  0  0  0  0  # atno 10765 bound_to 10752
  141.1531  133.7796  156.9966 H   0  0  0  0  0  0  0  0  0  0  0  0  # atno 11005 bound_to 11000
  146.0669  140.7910  142.9707 LP  0  0  0  0  0  0  0  0  0  0  0  0  # atno 17320 bound_to 7965
  144.6929  140.3283  143.7220 LP  0  0  0  0  0  0  0  0  0  0  0  0  # atno 17321 bound_to 7965
  140.5182  143.2272  151.8430 LP  0  0  0  0  0  0  0  0  0  0  0  0  # atno 17342 bound_to 10162
  139.4821  144.4868  151.9236 LP  0  0  0  0  0  0  0  0  0  0  0  0  # atno 17343 bound_to 10162
  156.4808  130.4073  149.6463 LP  0  0  0  0  0  0  0  0  0  0  0  0  # atno 17370 bound_to 10713
  156.3509  130.7431  151.2390 LP  0  0  0  0  0  0  0  0  0  0  0  0  # atno 17371 bound_to 10713
  140.0967  134.9560  157.1861 LP  0  0  0  0  0  0  0  0  0  0  0  0  # atno 17394 bound_to 11000
  140.3373  134.2743  155.7218 LP  0  0  0  0  0  0  0  0  0  0  0  0  # atno 17395 bound_to 11000

$$$$
