AV-unprocessed.smi:3241|AV-procd|sdf|12386|dock3
  -GOLD-   2272018253D 1   1.00000     0.00000
 Structure written by MMmdl.
 44 45  0  0  0  0  0  0  0  0  2 V2000
  145.7912  142.8874  153.7490 C   0  0  0  0  0  0  0  0  0  0  0  0
  147.0731  142.4398  154.4680 C   0  0  1  0  0  0  0  0  0  0  0  0
  146.8027  142.0879  155.9444 C   0  0  0  0  0  0  0  0  0  0  0  0
  148.0963  141.6995  156.6769 C   0  0  0  0  0  0  0  0  0  0  0  0
  148.8166  140.5455  155.9638 C   0  0  0  0  0  0  0  0  0  0  0  0
  149.0826  140.8790  154.4858 C   0  0  0  0  0  0  0  0  0  0  0  0
  147.7934  141.2776  153.7432 C   0  0  1  0  0  0  0  0  0  0  0  0
  146.9430  140.1379  153.7017 O   0  0  0  0  0  0  0  0  0  0  0  0
  147.4764  139.0220  153.0056 C   0  0  0  0  0  0  0  0  0  0  0  0
  146.5381  138.7081  151.8371 C   0  0  0  0  0  0  0  0  0  0  0  0
  146.7485  137.3229  151.3758 N   0  3  0  0  0  0  0  0  0  0  0  0
  145.6894  136.3725  151.7664 C   0  0  0  0  0  0  0  0  0  0  0  0
  145.0130  135.7536  150.5323 C   0  0  0  0  0  0  0  0  0  0  0  0
  145.1702  134.3101  150.4878 N   0  0  0  0  0  0  0  0  0  0  0  0
  144.1892  133.3409  150.4882 C   0  0  0  0  0  0  0  0  0  0  0  0
  144.8155  132.1293  150.4217 C   0  0  0  0  0  0  0  0  0  0  0  0
  146.1979  132.4638  150.3854 C   0  0  0  0  0  0  0  0  0  0  0  0
  146.4073  133.7700  150.4233 N   0  0  0  0  0  0  0  0  0  0  0  0
  145.0344  142.1032  153.7534 H   0  0  0  0  0  0  0  0  0  0  0  0
  145.9943  143.1532  152.7114 H   0  0  0  0  0  0  0  0  0  0  0  0
  145.3578  143.7628  154.2335 H   0  0  0  0  0  0  0  0  0  0  0  0
  147.7514  143.2945  154.4573 H   0  0  0  0  0  0  0  0  0  0  0  0
  146.3376  142.9342  156.4511 H   0  0  0  0  0  0  0  0  0  0  0  0
  146.0902  141.2642  156.0044 H   0  0  0  0  0  0  0  0  0  0  0  0
  148.7582  142.5646  156.7318 H   0  0  0  0  0  0  0  0  0  0  0  0
  147.8706  141.4179  157.7058 H   0  0  0  0  0  0  0  0  0  0  0  0
  149.7575  140.3273  156.4696 H   0  0  0  0  0  0  0  0  0  0  0  0
  148.2132  139.6396  156.0336 H   0  0  0  0  0  0  0  0  0  0  0  0
  149.7996  141.6986  154.4269 H   0  0  0  0  0  0  0  0  0  0  0  0
  149.5513  140.0279  153.9909 H   0  0  0  0  0  0  0  0  0  0  0  0
  148.0699  141.5943  152.7353 H   0  0  0  0  0  0  0  0  0  0  0  0
  148.4817  139.2273  152.6343 H   0  0  0  0  0  0  0  0  0  0  0  0
  147.5428  138.1702  153.6837 H   0  0  0  0  0  0  0  0  0  0  0  0
  145.4985  138.8269  152.1450 H   0  0  0  0  0  0  0  0  0  0  0  0
  146.7167  139.4064  151.0184 H   0  0  0  0  0  0  0  0  0  0  0  0
  146.7929  137.3359  150.3662 H   0  0  0  0  0  0  0  0  0  0  0  0
  146.1284  135.5868  152.3822 H   0  0  0  0  0  0  0  0  0  0  0  0
  144.9460  136.8837  152.3797 H   0  0  0  0  0  0  0  0  0  0  0  0
  143.9498  135.9985  150.5108 H   0  0  0  0  0  0  0  0  0  0  0  0
  145.4475  136.1716  149.6235 H   0  0  0  0  0  0  0  0  0  0  0  0
  143.1391  133.5908  150.5324 H   0  0  0  0  0  0  0  0  0  0  0  0
  144.3557  131.1524  150.4021 H   0  0  0  0  0  0  0  0  0  0  0  0
  147.0493  131.8012  150.3289 H   0  0  0  0  0  0  0  0  0  0  0  0
  147.6345  136.9900  151.7282 H   0  0  0  0  0  0  0  0  0  0  0  0
  1  2  1  0  0  0  0
  1 19  1  0  0  0  0
  1 20  1  0  0  0  0
  1 21  1  0  0  0  0
  2  7  1  0  0  0  0
  2  3  1  0  0  0  0
  2 22  1  0  0  0  0
  3  4  1  0  0  0  0
  3 23  1  0  0  0  0
  3 24  1  0  0  0  0
  4  5  1  0  0  0  0
  4 25  1  0  0  0  0
  4 26  1  0  0  0  0
  5  6  1  0  0  0  0
  5 27  1  0  0  0  0
  5 28  1  0  0  0  0
  6  7  1  0  0  0  0
  6 29  1  0  0  0  0
  6 30  1  0  0  0  0
  7  8  1  0  0  0  0
  7 31  1  0  0  0  0
  8  9  1  0  0  0  0
  9 10  1  0  0  0  0
  9 32  1  0  0  0  0
  9 33  1  0  0  0  0
 10 11  1  0  0  0  0
 10 34  1  0  0  0  0
 10 35  1  0  0  0  0
 11 12  1  0  0  0  0
 11 36  1  0  0  0  0
 11 44  1  0  0  0  0
 12 13  1  0  0  0  0
 12 37  1  0  0  0  0
 12 38  1  0  0  0  0
 13 14  1  0  0  0  0
 13 39  1  0  0  0  0
 13 40  1  0  0  0  0
 14 18  1  0  0  0  0
 14 15  1  0  0  0  0
 15 16  2  0  0  0  0
 15 41  1  0  0  0  0
 16 17  1  0  0  0  0
 16 42  1  0  0  0  0
 17 18  2  0  0  0  0
 17 43  1  0  0  0  0
M  CHG  1  11   1
M  END
> <s_m_source_file>
AV-unprocessed.smi

> <i_m_source_file_index>
3241

> <i_lp_mmshare_version>
43012

> <i_f3d_flags>
0

> <s_epik_input>
W0NIM11bQ0BASF0xW0NIMl1bQ0gyXVtDSDJdW0NIMl1bQ0BIXTFPW0NIMl1bQ0gyXVtOSF1bQ0gyXVtDSDJdbjJbY0hdW2NIXVtjSF1uMg==

> <s_epik_cmdline>
J2VwaWtfcHl0aG9uJywgJy1waCcsICc3LjAnLCAnLXRuJywgJzgnLCAnLW1hJywgJzIwMCcsICctbWV0YWxfYmluZGluZycsICctaW1hZScsICc8aW5maWxlLm1hZT4nLCAnLW9tYWUnLCAnPG91dGZpbGUubWFlPic=

> <r_lp_tautomer_probability>
1

> <r_epik_Ionization_Penalty>
0.00924946

> <r_epik_Ionization_Penalty_Charging>
0.00924645

> <r_epik_Ionization_Penalty_Neutral>
3.00629e-06

> <r_epik_State_Penalty>
0.0070118

> <r_epik_Charging_Adjusted_Penalty>
0.0162583

> <i_epik_Tot_Q>
1

> <i_epik_Tot_abs_Q>
1

> <r_epik_Metal_State_Penalty>
0.00702523

> <b_epik_Metal_Only>
0

> <s_lp_Force_Field>
OPLS_2005

> <r_lp_Energy>
14.1188

> <b_lp_Chiralities_Consistent>
1

> <s_lp_Variant>
AV-unprocessed.smi:3241-2

> <Gold.Version>
5.8.1

> <Gold.Id.Protein>
6NUR|6NUR_protein|mol2

> <Gold.PLP.Fitness>
46.9795

> <Gold.PLP.PLP>
-37.8232

> <Gold.PLP.part.hbond>
-0.9796

> <Gold.PLP.part.metal>
0.0000

> <Gold.PLP.part.buried>
-2.5520

> <Gold.PLP.part.nonpolar>
-35.1229

> <Gold.PLP.part.repulsive>
0.4574

> <Gold.PLP.ligand.clash>
0.0000

> <Gold.PLP.ligand.torsion>
1.5428

> <Gold.PLP.Chemscore.Hbond>
2.0000

> <Gold.PLP.Chemscore.CHOScore>
2.0000

> <Gold.PLP.Chemscore.Metal>
0.0000

> <Gold.Chemscore.Hbonds>
donor molecule, donor type, donor heavy atom, donor atom, acceptor molecule, acceptor atom, score
      L1  H    11    44       P1  7948  1.85
      L1  C    15    41       P1 10186  1.00
      L1  C    17    43       P1 10747  1.00

> <Gold.PLP.Chemscore.Internal.Correction>
0.2418

> <Gold.Rescore>
     Score         DG    S(hbond)    S(metal)    S(lipo)     H(rot)  DE(clash)    DE(int)     intcor
     13.58     -15.54       1.00        0.00      98.95       1.89       0.29       1.68       ----

> <Gold.Chemscore.Fitness>
13.5791

> <Gold.Chemscore.DG>
-15.5436

> <Gold.Chemscore.ZeroCoef>
-5.4800

> <Gold.Chemscore.Hbond>
0.9961

> <Gold.Chemscore.Metal>
0.0000

> <Gold.Chemscore.Lipo>
98.9463

> <Gold.Chemscore.Internal_Hbond>
0.0000

> <Gold.Chemscore.DEClash>
0.2872

> <Gold.Chemscore.DEInternal>
1.6774

> <Gold.Chemscore.Rot>
1.8906

> <Gold.Chemscore.Internal.Correction>
   9.000000E+99

> <Gold.Chemscore.Hbonds>
donor molecule, donor type, donor heavy atom, donor atom, acceptor molecule, acceptor atom, score
      L1  H    11    44       P1  7948  0.88

> <Gold.Chemscore.Hbond.Weighted>
-3.3270

> <Gold.Chemscore.Metal.Weighted>
-0.0000

> <Gold.Chemscore.Lipo.Weighted>
-11.5767

> <Gold.Chemscore.Internal_Hbond.Weighted>
0.0000

> <Gold.Chemscore.DEClash.Weighted>
0.2872

> <Gold.Chemscore.DEInternal.Weighted>
1.6774

> <Gold.Chemscore.Rot.Weighted>
4.8400

> <Gold.Chemscore.Internal.Correction.Weighted>
   9.000000E+99

> <Gold.Protein.RotatedTorsions>
[ 6907 6896 6895 6894 ] final -166.48 input  -60.11 | X-H torsion
[ 7974 7965 7964 7962 ] final   82.55 input  175.53 | X-H torsion
[ 8008 7997 7996 7995 ] final   42.14 input   59.86 | X-H torsion
[ 10167 10162 10161 10158 ] final  105.72 input  -65.29 | X-H torsion
[ 10718 10713 10712 10709 ] final -126.40 input   66.30 | X-H torsion
[ 10763 10752 10751 10750 ] final -135.42 input  -60.55 | X-H torsion
[ 11005 11000 10999 10996 ] final -109.88 input  -57.11 | X-H torsion

> <Gold.Protein.ActiveResidues>
 VAL166  LYS551  ARG553  GLY616  TRP617  ASP618  TYR619  PRO620  LYS621  CYS622 
 ASP623  PHE694  ASN695  SER759  ASP760  ASP761  ALA762  ILE779  LEU786  VAL792 
 PHE793  MET794  SER795  GLU796  ALA797  LYS798  CYS799  TRP800  GLU811  SER814 

> <Gold.Protein.RotatedAtoms>
  151.4443  133.3634  159.2785 H   0  0  0  0  0  0  0  0  0  0  0  0  # atno 6907 bound_to 6896
  150.9135  134.8554  159.7452 H   0  0  0  0  0  0  0  0  0  0  0  0  # atno 6908 bound_to 6896
  152.4945  134.4375  159.9584 H   0  0  0  0  0  0  0  0  0  0  0  0  # atno 6909 bound_to 6896
  145.6236  139.2391  143.2124 H   0  0  0  0  0  0  0  0  0  0  0  0  # atno 7974 bound_to 7965
  155.2813  140.3372  155.4258 H   0  0  0  0  0  0  0  0  0  0  0  0  # atno 8008 bound_to 7997
  156.2088  140.1762  156.7781 H   0  0  0  0  0  0  0  0  0  0  0  0  # atno 8009 bound_to 7997
  154.5658  140.0679  156.8873 H   0  0  0  0  0  0  0  0  0  0  0  0  # atno 8010 bound_to 7997
  139.7069  144.7084  151.1091 H   0  0  0  0  0  0  0  0  0  0  0  0  # atno 10167 bound_to 10162
  156.1762  130.6701  151.0245 H   0  0  0  0  0  0  0  0  0  0  0  0  # atno 10718 bound_to 10713
  154.8703  135.3704  154.4896 H   0  0  0  0  0  0  0  0  0  0  0  0  # atno 10763 bound_to 10752
  153.5543  135.7024  153.5581 H   0  0  0  0  0  0  0  0  0  0  0  0  # atno 10764 bound_to 10752
  153.3686  135.4027  155.1735 H   0  0  0  0  0  0  0  0  0  0  0  0  # atno 10765 bound_to 10752
  141.0823  133.9199  157.2262 H   0  0  0  0  0  0  0  0  0  0  0  0  # atno 11005 bound_to 11000
  146.1411  140.7056  142.9366 LP  0  0  0  0  0  0  0  0  0  0  0  0  # atno 17320 bound_to 7965
  144.7221  140.4407  143.7000 LP  0  0  0  0  0  0  0  0  0  0  0  0  # atno 17321 bound_to 7965
  140.7724  143.5346  150.9383 LP  0  0  0  0  0  0  0  0  0  0  0  0  # atno 17342 bound_to 10162
  139.9030  143.6813  152.3128 LP  0  0  0  0  0  0  0  0  0  0  0  0  # atno 17343 bound_to 10162
  157.6837  131.0831  150.7301 LP  0  0  0  0  0  0  0  0  0  0  0  0  # atno 17370 bound_to 10713
  156.7359  130.4724  149.5489 LP  0  0  0  0  0  0  0  0  0  0  0  0  # atno 17371 bound_to 10713
  139.9637  135.0147  156.9331 LP  0  0  0  0  0  0  0  0  0  0  0  0  # atno 17394 bound_to 11000
  140.5442  134.0691  155.7350 LP  0  0  0  0  0  0  0  0  0  0  0  0  # atno 17395 bound_to 11000

$$$$
