AV-unprocessed.smi:1350|AV-procd|sdf|5523|dock2
  -GOLD-   22720 5113D 1   1.00000     0.00000
 Structure written by MMmdl.
 44 46  0  0  0  0  0  0  0  0  2 V2000
  144.7161  138.4025  161.3019 C   0  0  0  0  0  0  0  0  0  0  0  0
  145.9448  137.9128  160.7848 O   0  0  0  0  0  0  0  0  0  0  0  0
  146.3763  136.6644  161.1864 C   0  0  0  0  0  0  0  0  0  0  0  0
  145.7022  135.8835  162.1607 C   0  0  0  0  0  0  0  0  0  0  0  0
  146.1842  134.6112  162.5204 C   0  0  0  0  0  0  0  0  0  0  0  0
  147.3416  134.0982  161.9104 C   0  0  0  0  0  0  0  0  0  0  0  0
  148.0203  134.8626  160.9450 C   0  0  0  0  0  0  0  0  0  0  0  0
  147.5514  136.1458  160.5872 C   0  0  0  0  0  0  0  0  0  0  0  0
  148.2959  136.9449  159.5274 C   0  0  0  0  0  0  0  0  0  0  0  0
  149.4503  136.2683  159.0534 O   0  0  0  0  0  0  0  0  0  0  0  0
  150.0331  136.8927  157.9215 C   0  0  0  0  0  0  0  0  0  0  0  0
  150.4438  138.3257  158.2961 C   0  0  1  0  0  0  0  0  0  0  0  0
  151.2905  138.2721  159.4277 O   0  0  0  0  0  0  0  0  0  0  0  0
  151.1821  139.0329  157.1426 C   0  0  0  0  0  0  0  0  0  0  0  0
  151.0245  140.4943  157.1787 N   0  0  0  0  0  0  0  0  0  0  0  0
  150.2383  141.2975  156.4116 C   0  0  0  0  0  0  0  0  0  0  0  0
  150.4365  142.5810  156.8204 N   0  3  0  0  0  0  0  0  0  0  0  0
  151.3614  142.5995  157.8661 C   0  0  0  0  0  0  0  0  0  0  0  0
  151.8787  143.6596  158.6040 C   0  0  0  0  0  0  0  0  0  0  0  0
  152.8098  143.3344  159.6119 C   0  0  0  0  0  0  0  0  0  0  0  0
  153.1920  141.9993  159.8553 C   0  0  0  0  0  0  0  0  0  0  0  0
  152.6619  140.9322  159.1002 C   0  0  0  0  0  0  0  0  0  0  0  0
  151.7431  141.2616  158.1037 C   0  0  0  0  0  0  0  0  0  0  0  0
  144.5291  139.3981  160.9002 H   0  0  0  0  0  0  0  0  0  0  0  0
  144.7463  138.4873  162.3889 H   0  0  0  0  0  0  0  0  0  0  0  0
  143.8788  137.7670  161.0105 H   0  0  0  0  0  0  0  0  0  0  0  0
  144.8066  136.2368  162.6481 H   0  0  0  0  0  0  0  0  0  0  0  0
  145.6616  134.0264  163.2630 H   0  0  0  0  0  0  0  0  0  0  0  0
  147.7084  133.1191  162.1809 H   0  0  0  0  0  0  0  0  0  0  0  0
  148.9058  134.4552  160.4795 H   0  0  0  0  0  0  0  0  0  0  0  0
  147.6104  137.1375  158.7010 H   0  0  0  0  0  0  0  0  0  0  0  0
  148.5986  137.9110  159.9330 H   0  0  0  0  0  0  0  0  0  0  0  0
  150.8836  136.3218  157.5448 H   0  0  0  0  0  0  0  0  0  0  0  0
  149.2871  136.9227  157.1257 H   0  0  0  0  0  0  0  0  0  0  0  0
  149.5548  138.9048  158.5494 H   0  0  0  0  0  0  0  0  0  0  0  0
  151.9271  138.9668  159.3600 H   0  0  0  0  0  0  0  0  0  0  0  0
  152.2421  138.7790  157.1318 H   0  0  0  0  0  0  0  0  0  0  0  0
  150.7793  138.6971  156.1862 H   0  0  0  0  0  0  0  0  0  0  0  0
  149.5760  140.9743  155.6212 H   0  0  0  0  0  0  0  0  0  0  0  0
  151.5861  144.6832  158.4205 H   0  0  0  0  0  0  0  0  0  0  0  0
  153.2382  144.1246  160.2114 H   0  0  0  0  0  0  0  0  0  0  0  0
  153.9063  141.7886  160.6380 H   0  0  0  0  0  0  0  0  0  0  0  0
  152.9603  139.9140  159.2998 H   0  0  0  0  0  0  0  0  0  0  0  0
  149.9715  143.3830  156.4145 H   0  0  0  0  0  0  0  0  0  0  0  0
  1  2  1  0  0  0  0
  1 24  1  0  0  0  0
  1 25  1  0  0  0  0
  1 26  1  0  0  0  0
  2  3  1  0  0  0  0
  3  8  1  0  0  0  0
  3  4  2  0  0  0  0
  4  5  1  0  0  0  0
  4 27  1  0  0  0  0
  5  6  2  0  0  0  0
  5 28  1  0  0  0  0
  6  7  1  0  0  0  0
  6 29  1  0  0  0  0
  7  8  2  0  0  0  0
  7 30  1  0  0  0  0
  8  9  1  0  0  0  0
  9 10  1  0  0  0  0
  9 31  1  0  0  0  0
  9 32  1  0  0  0  0
 10 11  1  0  0  0  0
 11 12  1  0  0  0  0
 11 33  1  0  0  0  0
 11 34  1  0  0  0  0
 12 13  1  0  0  0  0
 12 14  1  0  0  0  0
 12 35  1  0  0  0  0
 13 36  1  0  0  0  0
 14 15  1  0  0  0  0
 14 37  1  0  0  0  0
 14 38  1  0  0  0  0
 15 23  1  0  0  0  0
 15 16  1  0  0  0  0
 16 17  2  0  0  0  0
 16 39  1  0  0  0  0
 17 18  1  0  0  0  0
 17 44  1  0  0  0  0
 18 23  2  0  0  0  0
 18 19  1  0  0  0  0
 19 20  2  0  0  0  0
 19 40  1  0  0  0  0
 20 21  1  0  0  0  0
 20 41  1  0  0  0  0
 21 22  2  0  0  0  0
 21 42  1  0  0  0  0
 22 23  1  0  0  0  0
 22 43  1  0  0  0  0
M  CHG  1  17   1
M  END
> <s_m_source_file>
AV-unprocessed.smi

> <i_m_source_file_index>
1350

> <i_lp_mmshare_version>
43012

> <i_f3d_flags>
0

> <s_epik_input>
W0NIM11PYzFbY0hdW2NIXVtjSF1bY0hdYzFbQ0gyXU9bQ0gyXVtDQEhdKFtPSF0pW0NIMl1uKFtjSF1uMiljKGMyMylbY0hdW2NIXVtjSF1bY0hdMw==

> <s_epik_cmdline>
J2VwaWtfcHl0aG9uJywgJy1waCcsICc3LjAnLCAnLXRuJywgJzgnLCAnLW1hJywgJzIwMCcsICctbWV0YWxfYmluZGluZycsICctaW1hZScsICc8aW5maWxlLm1hZT4nLCAnLW9tYWUnLCAnPG91dGZpbGUubWFlPic=

> <r_lp_tautomer_probability>
1

> <r_epik_Ionization_Penalty>
1.28975

> <r_epik_Ionization_Penalty_Charging>
1.28975

> <r_epik_Ionization_Penalty_Neutral>
1.07667e-06

> <r_epik_State_Penalty>
1.36276

> <r_epik_Charging_Adjusted_Penalty>
2.65251

> <i_epik_Tot_Q>
1

> <i_epik_Tot_abs_Q>
1

> <r_epik_Metal_State_Penalty>
5.39298

> <b_epik_Metal_Only>
0

> <s_lp_Force_Field>
OPLS_2005

> <r_lp_Energy>
25.8807

> <b_lp_Chiralities_Consistent>
1

> <s_lp_Variant>
AV-unprocessed.smi:1350-4

> <Gold.Version>
5.8.1

> <Gold.Id.Protein>
6NUR|6NUR_protein|mol2

> <Gold.PLP.Fitness>
55.1492

> <Gold.PLP.PLP>
-44.2764

> <Gold.PLP.part.hbond>
-3.4499

> <Gold.PLP.part.metal>
0.0000

> <Gold.PLP.part.buried>
-5.6024

> <Gold.PLP.part.nonpolar>
-34.9561

> <Gold.PLP.part.repulsive>
0.0252

> <Gold.PLP.ligand.clash>
0.0000

> <Gold.PLP.ligand.torsion>
0.5839

> <Gold.PLP.Chemscore.Hbond>
3.9913

> <Gold.PLP.Chemscore.CHOScore>
0.0000

> <Gold.PLP.Chemscore.Metal>
0.0000

> <Gold.Chemscore.Hbonds>
donor molecule, donor type, donor heavy atom, donor atom, acceptor molecule, acceptor atom, score
      L1  H    17    44       P1  8028  2.00
      P1  H  6896  6909       L1    10  0.89
      P1  H  6934  6947       L1     2  1.00

> <Gold.PLP.Chemscore.Internal.Correction>
0.0667

> <Gold.Rescore>
     Score         DG    S(hbond)    S(metal)    S(lipo)     H(rot)  DE(clash)    DE(int)     intcor
     20.02     -21.21       2.39        0.00     126.03       2.74       0.43       0.76       ----

> <Gold.Chemscore.Fitness>
20.0186

> <Gold.Chemscore.DG>
-21.2105

> <Gold.Chemscore.ZeroCoef>
-5.4800

> <Gold.Chemscore.Hbond>
2.3942

> <Gold.Chemscore.Metal>
0.0000

> <Gold.Chemscore.Lipo>
126.0315

> <Gold.Chemscore.Internal_Hbond>
0.0000

> <Gold.Chemscore.DEClash>
0.4346

> <Gold.Chemscore.DEInternal>
0.7573

> <Gold.Chemscore.Rot>
2.7390

> <Gold.Chemscore.Internal.Correction>
   9.000000E+99

> <Gold.Chemscore.Hbonds>
donor molecule, donor type, donor heavy atom, donor atom, acceptor molecule, acceptor atom, score
      L1  H    17    44       P1  8028  1.00
      P1  H  6896  6909       L1    10  0.48
      P1  H  6934  6947       L1     2  0.62

> <Gold.Chemscore.Hbond.Weighted>
-7.9966

> <Gold.Chemscore.Metal.Weighted>
-0.0000

> <Gold.Chemscore.Lipo.Weighted>
-14.7457

> <Gold.Chemscore.Internal_Hbond.Weighted>
0.0000

> <Gold.Chemscore.DEClash.Weighted>
0.4346

> <Gold.Chemscore.DEInternal.Weighted>
0.7573

> <Gold.Chemscore.Rot.Weighted>
7.0118

> <Gold.Chemscore.Internal.Correction.Weighted>
   9.000000E+99

> <Gold.Protein.RotatedTorsions>
[ 6907 6896 6895 6894 ] final   66.84 input  -60.11 | X-H torsion
[ 7974 7965 7964 7962 ] final -159.32 input  175.53 | X-H torsion
[ 8008 7997 7996 7995 ] final  -97.52 input   59.86 | X-H torsion
[ 10167 10162 10161 10158 ] final  -65.06 input  -65.29 | X-H torsion
[ 10718 10713 10712 10709 ] final  113.41 input   66.30 | X-H torsion
[ 10763 10752 10751 10750 ] final  172.33 input  -60.55 | X-H torsion
[ 11005 11000 10999 10996 ] final -109.62 input  -57.11 | X-H torsion

> <Gold.Protein.ActiveResidues>
 VAL166  LYS551  ARG553  GLY616  TRP617  ASP618  TYR619  PRO620  LYS621  CYS622 
 ASP623  PHE694  ASN695  SER759  ASP760  ASP761  ALA762  ILE779  LEU786  VAL792 
 PHE793  MET794  SER795  GLU796  ALA797  LYS798  CYS799  TRP800  GLU811  SER814 

> <Gold.Protein.RotatedAtoms>
  152.4510  134.5394  159.9834 H   0  0  0  0  0  0  0  0  0  0  0  0  # atno 6907 bound_to 6896
  151.5467  133.3418  159.2953 H   0  0  0  0  0  0  0  0  0  0  0  0  # atno 6908 bound_to 6896
  150.8438  134.7772  159.7017 H   0  0  0  0  0  0  0  0  0  0  0  0  # atno 6909 bound_to 6896
  144.7470  140.3701  143.6077 H   0  0  0  0  0  0  0  0  0  0  0  0  # atno 7974 bound_to 7965
  154.7888  140.0462  157.1185 H   0  0  0  0  0  0  0  0  0  0  0  0  # atno 8008 bound_to 7997
  154.9615  140.3078  155.5009 H   0  0  0  0  0  0  0  0  0  0  0  0  # atno 8009 bound_to 7997
  156.2947  140.2269  156.4701 H   0  0  0  0  0  0  0  0  0  0  0  0  # atno 8010 bound_to 7997
  140.5757  143.2321  151.6448 H   0  0  0  0  0  0  0  0  0  0  0  0  # atno 10167 bound_to 10162
  157.6339  131.0983  150.7037 H   0  0  0  0  0  0  0  0  0  0  0  0  # atno 10718 bound_to 10713
  154.4246  135.2758  155.1953 H   0  0  0  0  0  0  0  0  0  0  0  0  # atno 10763 bound_to 10752
  154.3884  135.6071  153.5833 H   0  0  0  0  0  0  0  0  0  0  0  0  # atno 10764 bound_to 10752
  152.9834  135.5897  154.4547 H   0  0  0  0  0  0  0  0  0  0  0  0  # atno 10765 bound_to 10752
  141.0837  133.9175  157.2232 H   0  0  0  0  0  0  0  0  0  0  0  0  # atno 11005 bound_to 11000
  145.7086  139.1679  143.2552 LP  0  0  0  0  0  0  0  0  0  0  0  0  # atno 17320 bound_to 7965
  146.1363  140.7118  142.9388 LP  0  0  0  0  0  0  0  0  0  0  0  0  # atno 17321 bound_to 7965
  139.5141  144.3421  152.0730 LP  0  0  0  0  0  0  0  0  0  0  0  0  # atno 17342 bound_to 10162
  140.2564  144.4114  150.6202 LP  0  0  0  0  0  0  0  0  0  0  0  0  # atno 17343 bound_to 10162
  156.7372  130.4728  149.5486 LP  0  0  0  0  0  0  0  0  0  0  0  0  # atno 17370 bound_to 10713
  156.1563  130.6344  151.0662 LP  0  0  0  0  0  0  0  0  0  0  0  0  # atno 17371 bound_to 10713
  139.9653  135.0143  156.9371 LP  0  0  0  0  0  0  0  0  0  0  0  0  # atno 17394 bound_to 11000
  140.5411  134.0719  155.7341 LP  0  0  0  0  0  0  0  0  0  0  0  0  # atno 17395 bound_to 11000

$$$$
