AV-unprocessed.smi:3183|AV-procd|sdf|12160|dock3
  -GOLD-   2272017593D 1   1.00000     0.00000
 Structure written by MMmdl.
 43 44  0  0  0  0  0  0  0  0  2 V2000
  152.8292  143.1664  161.4309 C   0  0  0  0  0  0  0  0  0  0  0  0
  152.5781  143.0895  159.9145 C   0  0  1  0  0  0  0  0  0  0  0  0
  152.2184  141.6437  159.5164 C   0  0  0  0  0  0  0  0  0  0  0  0
  151.9717  141.5016  158.0079 C   0  0  0  0  0  0  0  0  0  0  0  0
  150.8708  142.4678  157.5312 C   0  0  2  0  0  0  0  0  0  0  0  0
  150.6630  142.3800  156.0687 N   0  3  0  0  0  0  0  0  0  0  0  0
  149.6927  141.3562  155.6271 C   0  0  0  0  0  0  0  0  0  0  0  0
  150.0251  139.9860  156.2362 C   0  0  0  0  0  0  0  0  0  0  0  0
  151.1261  139.2493  155.5343 C   0  0  0  0  0  0  0  0  0  0  0  0
  152.4228  139.6066  155.2807 C   0  0  0  0  0  0  0  0  0  0  0  0
  152.9621  138.4929  154.5807 C   0  0  0  0  0  0  0  0  0  0  0  0
  152.0794  137.5250  154.4132 N   0  0  0  0  0  0  0  0  0  0  0  0
  150.9531  137.9841  154.9975 N   0  0  0  0  0  0  0  0  0  0  0  0
  149.7739  137.1389  154.9816 C   0  0  0  0  0  0  0  0  0  0  0  0
  151.2383  143.9117  157.9157 C   0  0  0  0  0  0  0  0  0  0  0  0
  151.4821  144.0750  159.4304 C   0  0  2  0  0  0  0  0  0  0  0  0
  151.8109  145.5438  159.7528 C   0  0  0  0  0  0  0  0  0  0  0  0
  151.9114  142.9952  161.9941 H   0  0  0  0  0  0  0  0  0  0  0  0
  153.2299  144.1356  161.7269 H   0  0  0  0  0  0  0  0  0  0  0  0
  153.5551  142.4160  161.7453 H   0  0  0  0  0  0  0  0  0  0  0  0
  153.5131  143.3480  159.4145 H   0  0  0  0  0  0  0  0  0  0  0  0
  153.0191  140.9659  159.8147 H   0  0  0  0  0  0  0  0  0  0  0  0
  151.3283  141.3231  160.0601 H   0  0  0  0  0  0  0  0  0  0  0  0
  152.8988  141.6964  157.4672 H   0  0  0  0  0  0  0  0  0  0  0  0
  151.6993  140.4685  157.7927 H   0  0  0  0  0  0  0  0  0  0  0  0
  149.9313  142.2149  158.0257 H   0  0  0  0  0  0  0  0  0  0  0  0
  150.3146  143.2755  155.7576 H   0  0  0  0  0  0  0  0  0  0  0  0
  148.6853  141.6529  155.9190 H   0  0  0  0  0  0  0  0  0  0  0  0
  149.7113  141.2921  154.5382 H   0  0  0  0  0  0  0  0  0  0  0  0
  150.2999  140.1197  157.2831 H   0  0  0  0  0  0  0  0  0  0  0  0
  149.1275  139.3662  156.2325 H   0  0  0  0  0  0  0  0  0  0  0  0
  152.9179  140.5269  155.5523 H   0  0  0  0  0  0  0  0  0  0  0  0
  153.9612  138.3610  154.1925 H   0  0  0  0  0  0  0  0  0  0  0  0
  148.9900  137.5507  155.6163 H   0  0  0  0  0  0  0  0  0  0  0  0
  150.0288  136.1433  155.3466 H   0  0  0  0  0  0  0  0  0  0  0  0
  149.3960  137.0574  153.9622 H   0  0  0  0  0  0  0  0  0  0  0  0
  152.1310  144.2201  157.3690 H   0  0  0  0  0  0  0  0  0  0  0  0
  150.4394  144.5844  157.6003 H   0  0  0  0  0  0  0  0  0  0  0  0
  150.5518  143.8281  159.9446 H   0  0  0  0  0  0  0  0  0  0  0  0
  152.7705  145.8393  159.3278 H   0  0  0  0  0  0  0  0  0  0  0  0
  151.8501  145.7234  160.8268 H   0  0  0  0  0  0  0  0  0  0  0  0
  151.0499  146.2131  159.3502 H   0  0  0  0  0  0  0  0  0  0  0  0
  151.5534  142.2117  155.6225 H   0  0  0  0  0  0  0  0  0  0  0  0
  1  2  1  0  0  0  0
  1 18  1  0  0  0  0
  1 19  1  0  0  0  0
  1 20  1  0  0  0  0
  2 16  1  0  0  0  0
  2  3  1  0  0  0  0
  2 21  1  0  0  0  0
  3  4  1  0  0  0  0
  3 22  1  0  0  0  0
  3 23  1  0  0  0  0
  4  5  1  0  0  0  0
  4 24  1  0  0  0  0
  4 25  1  0  0  0  0
  5  6  1  0  0  0  0
  5 15  1  0  0  0  0
  5 26  1  0  0  0  0
  6  7  1  0  0  0  0
  6 27  1  0  0  0  0
  6 43  1  0  0  0  0
  7  8  1  0  0  0  0
  7 28  1  0  0  0  0
  7 29  1  0  0  0  0
  8  9  1  0  0  0  0
  8 30  1  0  0  0  0
  8 31  1  0  0  0  0
  9 13  1  0  0  0  0
  9 10  2  0  0  0  0
 10 11  1  0  0  0  0
 10 32  1  0  0  0  0
 11 12  2  0  0  0  0
 11 33  1  0  0  0  0
 12 13  1  0  0  0  0
 13 14  1  0  0  0  0
 14 34  1  0  0  0  0
 14 35  1  0  0  0  0
 14 36  1  0  0  0  0
 15 16  1  0  0  0  0
 15 37  1  0  0  0  0
 15 38  1  0  0  0  0
 16 17  1  0  0  0  0
 16 39  1  0  0  0  0
 17 40  1  0  0  0  0
 17 41  1  0  0  0  0
 17 42  1  0  0  0  0
M  CHG  1   6   1
M  END
> <s_m_source_file>
AV-unprocessed.smi

> <i_m_source_file_index>
3183

> <i_lp_mmshare_version>
43012

> <i_f3d_flags>
0

> <s_epik_input>
W0NIM11bQ0BASF0xW0NIMl1bQ0gyXVtDQEhdKFtDSDJdW0NASF0xW0NIM10pW05IXVtDSDJdW0NIMl1jMltjSF1bY0hdbm4yW0NIM10=

> <s_epik_cmdline>
J2VwaWtfcHl0aG9uJywgJy1waCcsICc3LjAnLCAnLXRuJywgJzgnLCAnLW1hJywgJzIwMCcsICctbWV0YWxfYmluZGluZycsICctaW1hZScsICc8aW5maWxlLm1hZT4nLCAnLW9tYWUnLCAnPG91dGZpbGUubWFlPic=

> <r_lp_tautomer_probability>
1

> <r_epik_Ionization_Penalty>
0.000327718

> <r_epik_Ionization_Penalty_Charging>
0.000294043

> <r_epik_Ionization_Penalty_Neutral>
3.36755e-05

> <r_epik_State_Penalty>
-0

> <r_epik_Charging_Adjusted_Penalty>
0.000294043

> <i_epik_Tot_Q>
1

> <i_epik_Tot_abs_Q>
1

> <r_epik_Metal_State_Penalty>
-0

> <b_epik_Metal_Only>
0

> <s_lp_Force_Field>
OPLS_2005

> <r_lp_Energy>
12.5672

> <b_lp_Chiralities_Consistent>
1

> <s_lp_Variant>
AV-unprocessed.smi:3183-8

> <Gold.Version>
5.8.1

> <Gold.Id.Protein>
6NUR|6NUR_protein|mol2

> <Gold.PLP.Fitness>
49.2847

> <Gold.PLP.PLP>
-41.8523

> <Gold.PLP.part.hbond>
-2.0000

> <Gold.PLP.part.metal>
0.0000

> <Gold.PLP.part.buried>
-3.7691

> <Gold.PLP.part.nonpolar>
-37.4291

> <Gold.PLP.part.repulsive>
0.2592

> <Gold.PLP.ligand.clash>
0.0000

> <Gold.PLP.ligand.torsion>
0.4701

> <Gold.PLP.Chemscore.Hbond>
2.7862

> <Gold.PLP.Chemscore.CHOScore>
0.0000

> <Gold.PLP.Chemscore.Metal>
0.0000

> <Gold.Chemscore.Hbonds>
donor molecule, donor type, donor heavy atom, donor atom, acceptor molecule, acceptor atom, score
      L1  H     6    27       P1  8028  2.00
      P1  H 10752 10763       L1    12  0.80

> <Gold.PLP.Chemscore.Internal.Correction>
0.0140

> <Gold.Rescore>
     Score         DG    S(hbond)    S(metal)    S(lipo)     H(rot)  DE(clash)    DE(int)     intcor
     19.94     -21.50       1.69        0.00     118.94       1.38       0.03       1.54       ----

> <Gold.Chemscore.Fitness>
19.9418

> <Gold.Chemscore.DG>
-21.5044

> <Gold.Chemscore.ZeroCoef>
-5.4800

> <Gold.Chemscore.Hbond>
1.6867

> <Gold.Chemscore.Metal>
0.0000

> <Gold.Chemscore.Lipo>
118.9364

> <Gold.Chemscore.Internal_Hbond>
0.0000

> <Gold.Chemscore.DEClash>
0.0272

> <Gold.Chemscore.DEInternal>
1.5355

> <Gold.Chemscore.Rot>
1.3768

> <Gold.Chemscore.Internal.Correction>
   9.000000E+99

> <Gold.Chemscore.Hbonds>
donor molecule, donor type, donor heavy atom, donor atom, acceptor molecule, acceptor atom, score
      L1  H     6    27       P1  8028  0.91
      P1  H 10752 10763       L1    12  0.61

> <Gold.Chemscore.Hbond.Weighted>
-5.6336

> <Gold.Chemscore.Metal.Weighted>
-0.0000

> <Gold.Chemscore.Lipo.Weighted>
-13.9156

> <Gold.Chemscore.Internal_Hbond.Weighted>
0.0000

> <Gold.Chemscore.DEClash.Weighted>
0.0272

> <Gold.Chemscore.DEInternal.Weighted>
1.5355

> <Gold.Chemscore.Rot.Weighted>
3.5247

> <Gold.Chemscore.Internal.Correction.Weighted>
   9.000000E+99

> <Gold.Protein.RotatedTorsions>
[ 6907 6896 6895 6894 ] final  -95.05 input  -60.11 | X-H torsion
[ 7974 7965 7964 7962 ] final   43.69 input  175.53 | X-H torsion
[ 8008 7997 7996 7995 ] final -155.57 input   59.86 | X-H torsion
[ 10167 10162 10161 10158 ] final -102.39 input  -65.29 | X-H torsion
[ 10718 10713 10712 10709 ] final   12.63 input   66.30 | X-H torsion
[ 10763 10752 10751 10750 ] final   40.60 input  -60.55 | X-H torsion
[ 11005 11000 10999 10996 ] final    0.86 input  -57.11 | X-H torsion

> <Gold.Protein.ActiveResidues>
 VAL166  LYS551  ARG553  GLY616  TRP617  ASP618  TYR619  PRO620  LYS621  CYS622 
 ASP623  PHE694  ASN695  SER759  ASP760  ASP761  ALA762  ILE779  LEU786  VAL792 
 PHE793  MET794  SER795  GLU796  ALA797  LYS798  CYS799  TRP800  GLU811  SER814 

> <Gold.Protein.RotatedAtoms>
  150.6955  134.1718  159.4214 H   0  0  0  0  0  0  0  0  0  0  0  0  # atno 6907 bound_to 6896
  151.9695  135.0081  160.0561 H   0  0  0  0  0  0  0  0  0  0  0  0  # atno 6908 bound_to 6896
  152.1854  133.4701  159.5017 H   0  0  0  0  0  0  0  0  0  0  0  0  # atno 6909 bound_to 6896
  146.0634  139.5159  142.9644 H   0  0  0  0  0  0  0  0  0  0  0  0  # atno 7974 bound_to 7965
  155.7039  140.0770  157.2399 H   0  0  0  0  0  0  0  0  0  0  0  0  # atno 8008 bound_to 7997
  154.4068  140.1642  156.2275 H   0  0  0  0  0  0  0  0  0  0  0  0  # atno 8009 bound_to 7997
  155.9343  140.3389  155.6277 H   0  0  0  0  0  0  0  0  0  0  0  0  # atno 8010 bound_to 7997
  140.2311  143.3606  152.0885 H   0  0  0  0  0  0  0  0  0  0  0  0  # atno 10167 bound_to 10162
  157.0129  130.6124  149.5710 H   0  0  0  0  0  0  0  0  0  0  0  0  # atno 10718 bound_to 10713
  152.9931  135.6186  154.2653 H   0  0  0  0  0  0  0  0  0  0  0  0  # atno 10763 bound_to 10752
  154.2387  135.2789  155.2864 H   0  0  0  0  0  0  0  0  0  0  0  0  # atno 10764 bound_to 10752
  154.5387  135.5767  153.6879 H   0  0  0  0  0  0  0  0  0  0  0  0  # atno 10765 bound_to 10752
  140.6218  133.9654  155.8229 H   0  0  0  0  0  0  0  0  0  0  0  0  # atno 11005 bound_to 11000
  145.6520  141.0261  143.1755 LP  0  0  0  0  0  0  0  0  0  0  0  0  # atno 17320 bound_to 7965
  144.7188  139.8102  143.7389 LP  0  0  0  0  0  0  0  0  0  0  0  0  # atno 17321 bound_to 7965
  139.5109  144.6893  151.5804 LP  0  0  0  0  0  0  0  0  0  0  0  0  # atno 17342 bound_to 10162
  140.6184  143.9305  150.6506 LP  0  0  0  0  0  0  0  0  0  0  0  0  # atno 17343 bound_to 10162
  156.0129  130.5222  150.8046 LP  0  0  0  0  0  0  0  0  0  0  0  0  # atno 17370 bound_to 10713
  157.5307  131.0936  150.9959 LP  0  0  0  0  0  0  0  0  0  0  0  0  # atno 17371 bound_to 10713
  141.0737  134.0167  157.3489 LP  0  0  0  0  0  0  0  0  0  0  0  0  # atno 17394 bound_to 11000
  139.9150  135.0195  156.7846 LP  0  0  0  0  0  0  0  0  0  0  0  0  # atno 17395 bound_to 11000

$$$$
