AV-unprocessed.smi:1752|AV-procd|sdf|7061|dock7
  -GOLD-   22720 8283D 1   1.00000     0.00000
 Structure written by MMmdl.
 43 44  0  0  0  0  0  0  0  0  2 V2000
  151.2561  143.9767  157.6915 C   0  0  0  0  0  0  0  0  0  0  0  0
  151.3208  142.5500  157.1219 C   0  0  1  0  0  0  0  0  0  0  0  0
  151.3022  141.4568  158.2132 C   0  0  0  0  0  0  0  0  0  0  0  0
  152.0641  141.8278  159.3920 N   0  0  0  0  0  0  0  0  0  0  0  0
  153.2522  141.2932  159.8440 C   0  0  0  0  0  0  0  0  0  0  0  0
  153.5880  141.9595  160.9877 C   0  0  0  0  0  0  0  0  0  0  0  0
  152.5278  142.8932  161.1585 C   0  0  0  0  0  0  0  0  0  0  0  0
  151.6161  142.8107  160.2030 N   0  0  0  0  0  0  0  0  0  0  0  0
  150.2085  142.3564  156.1962 N   0  0  0  0  0  0  0  0  0  0  0  0
  150.0731  141.3300  155.3380 C   0  0  0  0  0  0  0  0  0  0  0  0
  150.9187  140.4403  155.2348 O   0  0  0  0  0  0  0  0  0  0  0  0
  148.9648  141.3910  154.5575 N   0  0  0  0  0  0  0  0  0  0  0  0
  147.8554  142.3474  154.7711 C   0  0  0  0  0  0  0  0  0  0  0  0
  146.4638  141.8027  154.3702 C   0  0  0  0  0  0  0  0  0  0  0  0
  146.0354  140.5032  155.0867 C   0  0  0  0  0  0  0  0  0  0  0  0
  147.1001  139.4711  155.2106 N   0  3  1  0  0  0  0  0  0  0  0  0
  146.5913  138.2307  155.8366 C   0  0  0  0  0  0  0  0  0  0  0  0
  147.8758  139.1986  153.9706 C   0  0  0  0  0  0  0  0  0  0  0  0
  148.7454  140.3891  153.5002 C   0  0  0  0  0  0  0  0  0  0  0  0
  152.1202  144.1970  158.3189 H   0  0  0  0  0  0  0  0  0  0  0  0
  150.3606  144.1215  158.2967 H   0  0  0  0  0  0  0  0  0  0  0  0
  151.2418  144.7181  156.8921 H   0  0  0  0  0  0  0  0  0  0  0  0
  152.2543  142.4667  156.5621 H   0  0  0  0  0  0  0  0  0  0  0  0
  150.2752  141.2365  158.5102 H   0  0  0  0  0  0  0  0  0  0  0  0
  151.7187  140.5254  157.8275 H   0  0  0  0  0  0  0  0  0  0  0  0
  153.7544  140.4944  159.3181 H   0  0  0  0  0  0  0  0  0  0  0  0
  154.4581  141.8036  161.6079 H   0  0  0  0  0  0  0  0  0  0  0  0
  152.3948  143.6234  161.9434 H   0  0  0  0  0  0  0  0  0  0  0  0
  149.4871  143.0629  156.2034 H   0  0  0  0  0  0  0  0  0  0  0  0
  147.7915  142.6412  155.8202 H   0  0  0  0  0  0  0  0  0  0  0  0
  148.0693  143.2561  154.2072 H   0  0  0  0  0  0  0  0  0  0  0  0
  145.7185  142.5698  154.5828 H   0  0  0  0  0  0  0  0  0  0  0  0
  146.3993  141.6651  153.2912 H   0  0  0  0  0  0  0  0  0  0  0  0
  145.6992  140.7528  156.0937 H   0  0  0  0  0  0  0  0  0  0  0  0
  145.1734  140.0790  154.5699 H   0  0  0  0  0  0  0  0  0  0  0  0
  145.8722  137.7318  155.1858 H   0  0  0  0  0  0  0  0  0  0  0  0
  146.1002  138.4504  156.7850 H   0  0  0  0  0  0  0  0  0  0  0  0
  147.4068  137.5367  156.0419 H   0  0  0  0  0  0  0  0  0  0  0  0
  148.5465  138.3619  154.1722 H   0  0  0  0  0  0  0  0  0  0  0  0
  147.2090  138.8698  153.1723 H   0  0  0  0  0  0  0  0  0  0  0  0
  148.2942  140.8717  152.6337 H   0  0  0  0  0  0  0  0  0  0  0  0
  149.6923  140.0133  153.1079 H   0  0  0  0  0  0  0  0  0  0  0  0
  147.7722  139.8493  155.8631 H   0  0  0  0  0  0  0  0  0  0  0  0
  1  2  1  0  0  0  0
  1 20  1  0  0  0  0
  1 21  1  0  0  0  0
  1 22  1  0  0  0  0
  2  3  1  0  0  0  0
  2  9  1  0  0  0  0
  2 23  1  0  0  0  0
  3  4  1  0  0  0  0
  3 24  1  0  0  0  0
  3 25  1  0  0  0  0
  4  8  1  0  0  0  0
  4  5  1  0  0  0  0
  5  6  2  0  0  0  0
  5 26  1  0  0  0  0
  6  7  1  0  0  0  0
  6 27  1  0  0  0  0
  7  8  2  0  0  0  0
  7 28  1  0  0  0  0
  9 10  1  0  0  0  0
  9 29  1  0  0  0  0
 10 11  2  0  0  0  0
 10 12  1  0  0  0  0
 12 19  1  0  0  0  0
 12 13  1  0  0  0  0
 13 14  1  0  0  0  0
 13 30  1  0  0  0  0
 13 31  1  0  0  0  0
 14 15  1  0  0  0  0
 14 32  1  0  0  0  0
 14 33  1  0  0  0  0
 15 16  1  0  0  0  0
 15 34  1  0  0  0  0
 15 35  1  0  0  0  0
 16 17  1  0  0  0  0
 16 18  1  0  0  0  0
 16 43  1  0  0  0  0
 17 36  1  0  0  0  0
 17 37  1  0  0  0  0
 17 38  1  0  0  0  0
 18 19  1  0  0  0  0
 18 39  1  0  0  0  0
 18 40  1  0  0  0  0
 19 41  1  0  0  0  0
 19 42  1  0  0  0  0
M  CHG  1  16   1
M  END
> <s_m_source_file>
AV-unprocessed.smi

> <i_m_source_file_index>
1752

> <i_lp_mmshare_version>
43012

> <i_f3d_flags>
0

> <s_epik_input>
bjFbY0hdW2NIXVtjSF1uMVtDSDJdW0NAQEhdKFtDSDNdKVtOSF1DKD1PKU4yW0NIMl1bQ0gyXVtDSDJdTihbQ0gzXSlbQ0gyXVtDSDJdMg==

> <s_epik_cmdline>
J2VwaWtfcHl0aG9uJywgJy1waCcsICc3LjAnLCAnLXRuJywgJzgnLCAnLW1hJywgJzIwMCcsICctbWV0YWxfYmluZGluZycsICctaW1hZScsICc8aW5maWxlLm1hZT4nLCAnLW9tYWUnLCAnPG91dGZpbGUubWFlPic=

> <r_lp_tautomer_probability>
1

> <r_epik_Ionization_Penalty>
0.00208423

> <r_epik_Ionization_Penalty_Charging>
0.00203643

> <r_epik_Ionization_Penalty_Neutral>
4.77939e-05

> <r_epik_State_Penalty>
0.00139278

> <r_epik_Charging_Adjusted_Penalty>
0.00342922

> <i_epik_Tot_Q>
1

> <i_epik_Tot_abs_Q>
1

> <r_epik_Metal_State_Penalty>
-0

> <b_epik_Metal_Only>
0

> <s_lp_Force_Field>
OPLS_2005

> <r_lp_Energy>
45.7643

> <b_lp_Chiralities_Consistent>
1

> <s_lp_Variant>
AV-unprocessed.smi:1752-4

> <Gold.Version>
5.8.1

> <Gold.Id.Protein>
6NUR|6NUR_protein|mol2

> <Gold.PLP.Fitness>
40.6483

> <Gold.PLP.PLP>
-35.4091

> <Gold.PLP.part.hbond>
-2.5641

> <Gold.PLP.part.metal>
0.0000

> <Gold.PLP.part.buried>
2.9660

> <Gold.PLP.part.nonpolar>
-35.1085

> <Gold.PLP.part.repulsive>
0.1772

> <Gold.PLP.ligand.clash>
0.0000

> <Gold.PLP.ligand.torsion>
0.4031

> <Gold.PLP.Chemscore.Hbond>
1.9920

> <Gold.PLP.Chemscore.CHOScore>
0.0000

> <Gold.PLP.Chemscore.Metal>
0.0000

> <Gold.Chemscore.Hbonds>
donor molecule, donor type, donor heavy atom, donor atom, acceptor molecule, acceptor atom, score
      L1  H     9    29       P1  8028  0.99
      P1  H  7989  7998       L1    11  0.95

> <Gold.PLP.Chemscore.Internal.Correction>
0.0695

> <Gold.Rescore>
     Score         DG    S(hbond)    S(metal)    S(lipo)     H(rot)  DE(clash)    DE(int)     intcor
     12.38     -17.23       1.60        0.00      85.64       1.41       2.98       1.87       ----

> <Gold.Chemscore.Fitness>
12.3804

> <Gold.Chemscore.DG>
-17.2323

> <Gold.Chemscore.ZeroCoef>
-5.4800

> <Gold.Chemscore.Hbond>
1.6015

> <Gold.Chemscore.Metal>
0.0000

> <Gold.Chemscore.Lipo>
85.6353

> <Gold.Chemscore.Internal_Hbond>
0.0000

> <Gold.Chemscore.DEClash>
2.9825

> <Gold.Chemscore.DEInternal>
1.8694

> <Gold.Chemscore.Rot>
1.4125

> <Gold.Chemscore.Internal.Correction>
   9.000000E+99

> <Gold.Chemscore.Hbonds>
donor molecule, donor type, donor heavy atom, donor atom, acceptor molecule, acceptor atom, score
      L1  H     9    29       P1  8028  0.93
      P1  H  7989  7998       L1    11  0.20

> <Gold.Chemscore.Hbond.Weighted>
-5.3490

> <Gold.Chemscore.Metal.Weighted>
-0.0000

> <Gold.Chemscore.Lipo.Weighted>
-10.0193

> <Gold.Chemscore.Internal_Hbond.Weighted>
0.0000

> <Gold.Chemscore.DEClash.Weighted>
2.9825

> <Gold.Chemscore.DEInternal.Weighted>
1.8694

> <Gold.Chemscore.Rot.Weighted>
3.6160

> <Gold.Chemscore.Internal.Correction.Weighted>
   9.000000E+99

> <Gold.Protein.RotatedTorsions>
[ 6907 6896 6895 6894 ] final   27.39 input  -60.11 | X-H torsion
[ 7974 7965 7964 7962 ] final  -75.45 input  175.53 | X-H torsion
[ 8008 7997 7996 7995 ] final  177.06 input   59.86 | X-H torsion
[ 10167 10162 10161 10158 ] final  -92.48 input  -65.29 | X-H torsion
[ 10718 10713 10712 10709 ] final  -44.70 input   66.30 | X-H torsion
[ 10763 10752 10751 10750 ] final  -78.03 input  -60.55 | X-H torsion
[ 11005 11000 10999 10996 ] final  -44.20 input  -57.11 | X-H torsion

> <Gold.Protein.ActiveResidues>
 VAL166  LYS551  ARG553  GLY616  TRP617  ASP618  TYR619  PRO620  LYS621  CYS622 
 ASP623  PHE694  ASN695  SER759  ASP760  ASP761  ALA762  ILE779  LEU786  VAL792 
 PHE793  MET794  SER795  GLU796  ALA797  LYS798  CYS799  TRP800  GLU811  SER814 

> <Gold.Protein.RotatedAtoms>
  152.0015  134.9925  160.0565 H   0  0  0  0  0  0  0  0  0  0  0  0  # atno 6907 bound_to 6896
  152.1514  133.4520  159.4824 H   0  0  0  0  0  0  0  0  0  0  0  0  # atno 6908 bound_to 6896
  150.6876  134.2102  159.4399 H   0  0  0  0  0  0  0  0  0  0  0  0  # atno 6909 bound_to 6896
  145.6259  140.9351  143.1113 H   0  0  0  0  0  0  0  0  0  0  0  0  # atno 7974 bound_to 7965
  156.0698  140.1368  156.9843 H   0  0  0  0  0  0  0  0  0  0  0  0  # atno 8008 bound_to 7997
  154.4525  140.0974  156.6713 H   0  0  0  0  0  0  0  0  0  0  0  0  # atno 8009 bound_to 7997
  155.5247  140.3457  155.4416 H   0  0  0  0  0  0  0  0  0  0  0  0  # atno 8010 bound_to 7997
  140.3344  143.2977  151.9906 H   0  0  0  0  0  0  0  0  0  0  0  0  # atno 10167 bound_to 10162
  156.2359  130.4176  149.8819 H   0  0  0  0  0  0  0  0  0  0  0  0  # atno 10718 bound_to 10713
  154.5206  135.5744  153.6678 H   0  0  0  0  0  0  0  0  0  0  0  0  # atno 10763 bound_to 10752
  152.9916  135.6181  154.2759 H   0  0  0  0  0  0  0  0  0  0  0  0  # atno 10764 bound_to 10752
  154.2680  135.2854  155.2730 H   0  0  0  0  0  0  0  0  0  0  0  0  # atno 10765 bound_to 10752
  141.0434  133.6771  156.2839 H   0  0  0  0  0  0  0  0  0  0  0  0  # atno 11005 bound_to 11000
  144.7213  139.8022  143.7381 LP  0  0  0  0  0  0  0  0  0  0  0  0  # atno 17320 bound_to 7965
  146.1395  139.4448  143.0118 LP  0  0  0  0  0  0  0  0  0  0  0  0  # atno 17321 bound_to 7965
  139.4851  144.6208  151.7258 LP  0  0  0  0  0  0  0  0  0  0  0  0  # atno 17342 bound_to 10162
  140.5367  144.0644  150.6073 LP  0  0  0  0  0  0  0  0  0  0  0  0  # atno 17343 bound_to 10162
  156.6417  130.8707  151.3515 LP  0  0  0  0  0  0  0  0  0  0  0  0  # atno 17370 bound_to 10713
  157.7154  130.9490  150.1236 LP  0  0  0  0  0  0  0  0  0  0  0  0  # atno 17371 bound_to 10713
  140.6191  134.5380  157.5545 LP  0  0  0  0  0  0  0  0  0  0  0  0  # atno 17394 bound_to 11000
  139.9293  134.7994  156.0976 LP  0  0  0  0  0  0  0  0  0  0  0  0  # atno 17395 bound_to 11000

$$$$
