AV-unprocessed.smi:1209|AV-procd|sdf|5072|dock8
  -GOLD-   22720 4113D 1   1.00000     0.00000
 Structure written by MMmdl.
 49 51  0  0  0  0  0  0  0  0  2 V2000
  147.2733  135.2169  162.2718 C   0  0  0  0  0  0  0  0  0  0  0  0
  147.7402  135.6985  160.9409 C   0  0  0  0  0  0  0  0  0  0  0  0
  148.1790  135.0551  159.8192 C   0  0  0  0  0  0  0  0  0  0  0  0
  148.4594  136.1141  158.9121 C   0  0  0  0  0  0  0  0  0  0  0  0
  148.9734  136.0273  157.4996 C   0  0  0  0  0  0  0  0  0  0  0  0
  150.3932  135.6638  157.4171 N   0  0  0  0  0  0  0  0  0  0  0  0
  150.5555  134.3646  156.7698 C   0  0  0  0  0  0  0  0  0  0  0  0
  151.1739  136.6752  156.7027 C   0  0  0  0  0  0  0  0  0  0  0  0
  150.7675  138.1409  156.9793 C   0  0  1  0  0  0  0  0  0  0  0  0
  150.7647  138.3431  158.3760 O   0  0  0  0  0  0  0  0  0  0  0  0
  151.7360  139.1689  156.3606 C   0  0  0  0  0  0  0  0  0  0  0  0
  151.2445  140.5491  156.4613 N   0  0  0  0  0  0  0  0  0  0  0  0
  150.4961  141.2801  155.5908 C   0  0  0  0  0  0  0  0  0  0  0  0
  150.2945  142.5047  156.1515 N   0  3  0  0  0  0  0  0  0  0  0  0
  150.9306  142.5590  157.3938 C   0  0  0  0  0  0  0  0  0  0  0  0
  151.0112  143.5805  158.3330 C   0  0  0  0  0  0  0  0  0  0  0  0
  151.7470  143.3169  159.5106 C   0  0  0  0  0  0  0  0  0  0  0  0
  151.8554  144.4117  160.5582 C   0  0  0  0  0  0  0  0  0  0  0  0
  152.3733  142.0600  159.7150 C   0  0  0  0  0  0  0  0  0  0  0  0
  153.1617  141.7876  160.9849 C   0  0  0  0  0  0  0  0  0  0  0  0
  152.2794  141.0341  158.7475 C   0  0  0  0  0  0  0  0  0  0  0  0
  151.5479  141.3095  157.5951 C   0  0  0  0  0  0  0  0  0  0  0  0
  148.2127  137.2976  159.4489 N   0  0  0  0  0  0  0  0  0  0  0  0
  147.7508  137.0422  160.7449 O   0  0  0  0  0  0  0  0  0  0  0  0
  147.6130  134.1977  162.4574 H   0  0  0  0  0  0  0  0  0  0  0  0
  146.1845  135.2261  162.3245 H   0  0  0  0  0  0  0  0  0  0  0  0
  147.6568  135.8510  163.0713 H   0  0  0  0  0  0  0  0  0  0  0  0
  148.2797  133.9910  159.6673 H   0  0  0  0  0  0  0  0  0  0  0  0
  148.3801  135.3135  156.9255 H   0  0  0  0  0  0  0  0  0  0  0  0
  148.8010  136.9917  157.0262 H   0  0  0  0  0  0  0  0  0  0  0  0
  151.6079  134.0823  156.7258 H   0  0  0  0  0  0  0  0  0  0  0  0
  150.1665  134.3804  155.7507 H   0  0  0  0  0  0  0  0  0  0  0  0
  150.0364  133.5789  157.3191 H   0  0  0  0  0  0  0  0  0  0  0  0
  152.2320  136.5701  156.9487 H   0  0  0  0  0  0  0  0  0  0  0  0
  151.1076  136.4638  155.6354 H   0  0  0  0  0  0  0  0  0  0  0  0
  149.7623  138.3497  156.6192 H   0  0  0  0  0  0  0  0  0  0  0  0
  150.6406  137.5063  158.7981 H   0  0  0  0  0  0  0  0  0  0  0  0
  152.7161  139.1221  156.8378 H   0  0  0  0  0  0  0  0  0  0  0  0
  151.8937  138.9535  155.3027 H   0  0  0  0  0  0  0  0  0  0  0  0
  150.1218  140.9459  154.6337 H   0  0  0  0  0  0  0  0  0  0  0  0
  150.5329  144.5352  158.1708 H   0  0  0  0  0  0  0  0  0  0  0  0
  151.4116  144.0860  161.4992 H   0  0  0  0  0  0  0  0  0  0  0  0
  151.3392  145.3190  160.2427 H   0  0  0  0  0  0  0  0  0  0  0  0
  152.8997  144.6687  160.7370 H   0  0  0  0  0  0  0  0  0  0  0  0
  153.5652  140.7745  160.9953 H   0  0  0  0  0  0  0  0  0  0  0  0
  152.5253  141.9006  161.8627 H   0  0  0  0  0  0  0  0  0  0  0  0
  153.9992  142.4802  161.0717 H   0  0  0  0  0  0  0  0  0  0  0  0
  152.7569  140.0774  158.9012 H   0  0  0  0  0  0  0  0  0  0  0  0
  149.7622  143.2472  155.7158 H   0  0  0  0  0  0  0  0  0  0  0  0
  1  2  1  0  0  0  0
  1 25  1  0  0  0  0
  1 26  1  0  0  0  0
  1 27  1  0  0  0  0
  2 24  1  0  0  0  0
  2  3  2  0  0  0  0
  3  4  1  0  0  0  0
  3 28  1  0  0  0  0
  4  5  1  0  0  0  0
  4 23  2  0  0  0  0
  5  6  1  0  0  0  0
  5 29  1  0  0  0  0
  5 30  1  0  0  0  0
  6  7  1  0  0  0  0
  6  8  1  0  0  0  0
  7 31  1  0  0  0  0
  7 32  1  0  0  0  0
  7 33  1  0  0  0  0
  8  9  1  0  0  0  0
  8 34  1  0  0  0  0
  8 35  1  0  0  0  0
  9 10  1  0  0  0  0
  9 11  1  0  0  0  0
  9 36  1  0  0  0  0
 10 37  1  0  0  0  0
 11 12  1  0  0  0  0
 11 38  1  0  0  0  0
 11 39  1  0  0  0  0
 12 22  1  0  0  0  0
 12 13  1  0  0  0  0
 13 14  2  0  0  0  0
 13 40  1  0  0  0  0
 14 15  1  0  0  0  0
 14 49  1  0  0  0  0
 15 22  2  0  0  0  0
 15 16  1  0  0  0  0
 16 17  2  0  0  0  0
 16 41  1  0  0  0  0
 17 18  1  0  0  0  0
 17 19  1  0  0  0  0
 18 42  1  0  0  0  0
 18 43  1  0  0  0  0
 18 44  1  0  0  0  0
 19 20  1  0  0  0  0
 19 21  2  0  0  0  0
 20 45  1  0  0  0  0
 20 46  1  0  0  0  0
 20 47  1  0  0  0  0
 21 22  1  0  0  0  0
 21 48  1  0  0  0  0
 23 24  1  0  0  0  0
M  CHG  1  14   1
M  END
> <s_m_source_file>
AV-unprocessed.smi

> <i_m_source_file_index>
1209

> <i_lp_mmshare_version>
43012

> <i_f3d_flags>
0

> <s_epik_input>
W0NIM11jMVtjSF1jKG5vMSlbQ0gyXU4oW0NIM10pW0NIMl1bQ0BIXShbT0hdKVtDSDJdbihbY0hdbjIpYyhjMjMpW2NIXWMoW0NIM10pYyhbY0hdMylbQ0gzXQ==

> <s_epik_cmdline>
J2VwaWtfcHl0aG9uJywgJy1waCcsICc3LjAnLCAnLXRuJywgJzgnLCAnLW1hJywgJzIwMCcsICctbWV0YWxfYmluZGluZycsICctaW1hZScsICc8aW5maWxlLm1hZT4nLCAnLW9tYWUnLCAnPG91dGZpbGUubWFlPic=

> <r_epik_Ionization_Penalty>
1.23608

> <r_epik_Ionization_Penalty_Charging>
1.21624

> <r_epik_Ionization_Penalty_Neutral>
0.0198409

> <r_epik_State_Penalty>
1.27749

> <r_epik_Charging_Adjusted_Penalty>
2.49372

> <i_epik_Tot_Q>
1

> <i_epik_Tot_abs_Q>
1

> <r_epik_Metal_State_Penalty>
1.34809

> <b_epik_Metal_Only>
0

> <s_lp_Force_Field>
OPLS_2005

> <r_lp_Energy>
23.0789

> <b_lp_Chiralities_Consistent>
1

> <s_lp_Variant>
AV-unprocessed.smi:1209-4

> <Gold.Version>
5.8.1

> <Gold.Id.Protein>
6NUR|6NUR_protein|mol2

> <Gold.PLP.Fitness>
54.9180

> <Gold.PLP.PLP>
-48.4495

> <Gold.PLP.part.hbond>
-5.1747

> <Gold.PLP.part.metal>
0.0000

> <Gold.PLP.part.buried>
-5.3911

> <Gold.PLP.part.nonpolar>
-37.8264

> <Gold.PLP.part.repulsive>
0.1116

> <Gold.PLP.ligand.clash>
0.0000

> <Gold.PLP.ligand.torsion>
1.5249

> <Gold.PLP.Chemscore.Hbond>
3.1424

> <Gold.PLP.Chemscore.CHOScore>
0.0000

> <Gold.PLP.Chemscore.Metal>
0.0000

> <Gold.Chemscore.Hbonds>
donor molecule, donor type, donor heavy atom, donor atom, acceptor molecule, acceptor atom, score
      L1  H    14    49       P1  8028  2.00
      P1  H  6931  6943       L1    24  0.73
      P1  H  6934  6947       L1    24  0.41

> <Gold.PLP.Chemscore.Internal.Correction>
0.0910

> <Gold.Rescore>
     Score         DG    S(hbond)    S(metal)    S(lipo)     H(rot)  DE(clash)    DE(int)     intcor
     15.10     -16.78       0.97        0.00     124.27       2.53       0.10       1.58       ----

> <Gold.Chemscore.Fitness>
15.1029

> <Gold.Chemscore.DG>
-16.7826

> <Gold.Chemscore.ZeroCoef>
-5.4800

> <Gold.Chemscore.Hbond>
0.9673

> <Gold.Chemscore.Metal>
0.0000

> <Gold.Chemscore.Lipo>
124.2705

> <Gold.Chemscore.Internal_Hbond>
0.0000

> <Gold.Chemscore.DEClash>
0.0954

> <Gold.Chemscore.DEInternal>
1.5844

> <Gold.Chemscore.Rot>
2.5265

> <Gold.Chemscore.Internal.Correction>
   9.000000E+99

> <Gold.Chemscore.Hbonds>
donor molecule, donor type, donor heavy atom, donor atom, acceptor molecule, acceptor atom, score
      L1  H    14    49       P1  8028  0.98
      P1  H  6931  6943       L1    24  0.20
      P1  H  6934  6947       L1    24  0.02

> <Gold.Chemscore.Hbond.Weighted>
-3.2307

> <Gold.Chemscore.Metal.Weighted>
-0.0000

> <Gold.Chemscore.Lipo.Weighted>
-14.5397

> <Gold.Chemscore.Internal_Hbond.Weighted>
0.0000

> <Gold.Chemscore.DEClash.Weighted>
0.0954

> <Gold.Chemscore.DEInternal.Weighted>
1.5844

> <Gold.Chemscore.Rot.Weighted>
6.4677

> <Gold.Chemscore.Internal.Correction.Weighted>
   9.000000E+99

> <Gold.Protein.RotatedTorsions>
[ 6907 6896 6895 6894 ] final   78.73 input  -60.11 | X-H torsion
[ 7974 7965 7964 7962 ] final   85.85 input  175.53 | X-H torsion
[ 8008 7997 7996 7995 ] final    3.94 input   59.86 | X-H torsion
[ 10167 10162 10161 10158 ] final   95.48 input  -65.29 | X-H torsion
[ 10718 10713 10712 10709 ] final   -8.23 input   66.30 | X-H torsion
[ 10763 10752 10751 10750 ] final  -72.12 input  -60.55 | X-H torsion
[ 11005 11000 10999 10996 ] final  163.86 input  -57.11 | X-H torsion

> <Gold.Protein.ActiveResidues>
 VAL166  LYS551  ARG553  GLY616  TRP617  ASP618  TYR619  PRO620  LYS621  CYS622 
 ASP623  PHE694  ASN695  SER759  ASP760  ASP761  ALA762  ILE779  LEU786  VAL792 
 PHE793  MET794  SER795  GLU796  ALA797  LYS798  CYS799  TRP800  GLU811  SER814 

> <Gold.Protein.RotatedAtoms>
  152.5171  134.3619  159.9287 H   0  0  0  0  0  0  0  0  0  0  0  0  # atno 6907 bound_to 6896
  151.3571  133.3897  159.2693 H   0  0  0  0  0  0  0  0  0  0  0  0  # atno 6908 bound_to 6896
  150.9681  134.9077  159.7829 H   0  0  0  0  0  0  0  0  0  0  0  0  # atno 6909 bound_to 6896
  145.5800  139.2324  143.2358 H   0  0  0  0  0  0  0  0  0  0  0  0  # atno 7974 bound_to 7965
  154.7098  140.2690  155.6640 H   0  0  0  0  0  0  0  0  0  0  0  0  # atno 8008 bound_to 7997
  156.2792  140.2755  156.1660 H   0  0  0  0  0  0  0  0  0  0  0  0  # atno 8009 bound_to 7997
  155.0650  140.0371  157.2579 H   0  0  0  0  0  0  0  0  0  0  0  0  # atno 8010 bound_to 7997
  139.7985  144.6823  150.9797 H   0  0  0  0  0  0  0  0  0  0  0  0  # atno 10167 bound_to 10162
  156.7056  130.5106  149.5905 H   0  0  0  0  0  0  0  0  0  0  0  0  # atno 10718 bound_to 10713
  154.4412  135.5940  153.6130 H   0  0  0  0  0  0  0  0  0  0  0  0  # atno 10763 bound_to 10752
  152.9805  135.5998  154.3720 H   0  0  0  0  0  0  0  0  0  0  0  0  # atno 10764 bound_to 10752
  154.3570  135.2841  155.2320 H   0  0  0  0  0  0  0  0  0  0  0  0  # atno 10765 bound_to 10752
  140.2401  134.8057  157.3402 H   0  0  0  0  0  0  0  0  0  0  0  0  # atno 11005 bound_to 11000
  146.1723  140.6626  142.9227 LP  0  0  0  0  0  0  0  0  0  0  0  0  # atno 17320 bound_to 7965
  144.7398  140.4911  143.6877 LP  0  0  0  0  0  0  0  0  0  0  0  0  # atno 17321 bound_to 7965
  140.7820  143.4306  151.0700 LP  0  0  0  0  0  0  0  0  0  0  0  0  # atno 17342 bound_to 10162
  139.7979  143.8125  152.3159 LP  0  0  0  0  0  0  0  0  0  0  0  0  # atno 17343 bound_to 10162
  156.1697  130.6429  151.0822 LP  0  0  0  0  0  0  0  0  0  0  0  0  # atno 17370 bound_to 10713
  157.6956  131.0795  150.6979 LP  0  0  0  0  0  0  0  0  0  0  0  0  # atno 17371 bound_to 10713
  140.1662  134.4666  155.7861 LP  0  0  0  0  0  0  0  0  0  0  0  0  # atno 17394 bound_to 11000
  141.2211  133.6922  156.7629 LP  0  0  0  0  0  0  0  0  0  0  0  0  # atno 17395 bound_to 11000

$$$$
