AV-unprocessed.smi:2758|AV-procd|sdf|10623|dock7
  -GOLD-   2272015 73D 1   1.00000     0.00000
 Structure written by MMmdl.
 32 33  0  0  0  0  0  0  0  0  1 V2000
  149.1829  140.8185  154.6843 C   0  0  0  0  0  0  0  0  0  0  0  0
  150.3235  140.1554  154.1677 O   0  0  0  0  0  0  0  0  0  0  0  0
  150.8284  139.1698  155.0537 C   0  0  0  0  0  0  0  0  0  0  0  0
  151.8887  139.8041  155.9686 C   0  0  2  0  0  0  0  0  0  0  0  0
  153.1368  139.1954  155.6992 O   0  0  0  0  0  0  0  0  0  0  0  0
  151.5436  139.6159  157.4604 C   0  0  0  0  0  0  0  0  0  0  0  0
  152.2076  140.5835  158.3246 N   0  0  0  0  0  0  0  0  0  0  0  0
  153.0245  140.3371  159.3780 C   0  0  0  0  0  0  0  0  0  0  0  0
  153.3682  138.9444  159.8018 C   0  0  0  0  0  0  0  0  0  0  0  0
  153.5055  141.4104  160.0055 N   0  0  0  0  0  0  0  0  0  0  0  0
  152.9508  142.4537  159.2893 C   0  0  0  0  0  0  0  0  0  0  0  0
  153.0776  143.8515  159.4557 C   0  0  0  0  0  0  0  0  0  0  0  0
  152.4081  144.7375  158.5864 C   0  0  0  0  0  0  0  0  0  0  0  0
  151.6036  144.2399  157.5409 C   0  0  0  0  0  0  0  0  0  0  0  0
  151.4632  142.8507  157.3577 C   0  0  0  0  0  0  0  0  0  0  0  0
  152.1338  141.9702  158.2278 C   0  0  0  0  0  0  0  0  0  0  0  0
  151.9654  140.8696  155.7507 H   0  0  0  0  0  0  0  0  0  0  0  0
  148.8336  141.5602  153.9660 H   0  0  0  0  0  0  0  0  0  0  0  0
  149.4147  141.3356  155.6163 H   0  0  0  0  0  0  0  0  0  0  0  0
  148.3678  140.1167  154.8656 H   0  0  0  0  0  0  0  0  0  0  0  0
  149.9978  138.8003  155.6575 H   0  0  0  0  0  0  0  0  0  0  0  0
  151.2359  138.3150  154.5103 H   0  0  0  0  0  0  0  0  0  0  0  0
  153.2964  138.5333  156.3539 H   0  0  0  0  0  0  0  0  0  0  0  0
  150.4668  139.6944  157.6122 H   0  0  0  0  0  0  0  0  0  0  0  0
  151.8191  138.6125  157.7874 H   0  0  0  0  0  0  0  0  0  0  0  0
  154.0044  138.9608  160.6873 H   0  0  0  0  0  0  0  0  0  0  0  0
  153.9041  138.4293  159.0046 H   0  0  0  0  0  0  0  0  0  0  0  0
  152.4648  138.3844  160.0415 H   0  0  0  0  0  0  0  0  0  0  0  0
  153.6909  144.2426  160.2539 H   0  0  0  0  0  0  0  0  0  0  0  0
  152.5119  145.8039  158.7228 H   0  0  0  0  0  0  0  0  0  0  0  0
  151.0934  144.9253  156.8803 H   0  0  0  0  0  0  0  0  0  0  0  0
  150.8459  142.4674  156.5592 H   0  0  0  0  0  0  0  0  0  0  0  0
  1  2  1  0  0  0  0
  1 18  1  0  0  0  0
  1 19  1  0  0  0  0
  1 20  1  0  0  0  0
  2  3  1  0  0  0  0
  3  4  1  0  0  0  0
  3 21  1  0  0  0  0
  3 22  1  0  0  0  0
  4 17  1  0  0  0  0
  4  5  1  0  0  0  0
  4  6  1  0  0  0  0
  5 23  1  0  0  0  0
  6  7  1  0  0  0  0
  6 24  1  0  0  0  0
  6 25  1  0  0  0  0
  7 16  1  0  0  0  0
  7  8  1  0  0  0  0
  8  9  1  0  0  0  0
  8 10  2  0  0  0  0
  9 26  1  0  0  0  0
  9 27  1  0  0  0  0
  9 28  1  0  0  0  0
 10 11  1  0  0  0  0
 11 16  2  0  0  0  0
 11 12  1  0  0  0  0
 12 13  2  0  0  0  0
 12 29  1  0  0  0  0
 13 14  1  0  0  0  0
 13 30  1  0  0  0  0
 14 15  2  0  0  0  0
 14 31  1  0  0  0  0
 15 16  1  0  0  0  0
 15 32  1  0  0  0  0
M  END
> <s_m_source_file>
AV-unprocessed.smi

> <i_m_source_file_index>
2758

> <i_lp_mmshare_version>
43012

> <i_f3d_flags>
0

> <s_epik_input>
W0NIM11PW0NIMl1bQ0BASF0oW09IXSlbQ0gyXW4oYyhuMSlbQ0gzXSljKGMxMilbY0hdW2NIXVtjSF1bY0hdMg==

> <s_epik_cmdline>
J2VwaWtfcHl0aG9uJywgJy1waCcsICc3LjAnLCAnLXRuJywgJzgnLCAnLW1hJywgJzIwMCcsICctbWV0YWxfYmluZGluZycsICctaW1hZScsICc8aW5maWxlLm1hZT4nLCAnLW9tYWUnLCAnPG91dGZpbGUubWFlPic=

> <r_epik_Ionization_Penalty>
0.126985

> <r_epik_Ionization_Penalty_Charging>
0

> <r_epik_Ionization_Penalty_Neutral>
0.126985

> <r_epik_State_Penalty>
0.116428

> <r_epik_Charging_Adjusted_Penalty>
0.116428

> <i_epik_Tot_Q>
0

> <i_epik_Tot_abs_Q>
0

> <r_epik_Metal_State_Penalty>
0.000128642

> <b_epik_Metal_Only>
0

> <s_lp_Force_Field>
OPLS_2005

> <r_lp_Energy>
9.16729

> <b_lp_Chiralities_Consistent>
1

> <s_lp_Variant>
AV-unprocessed.smi:2758-2

> <Gold.Version>
5.8.1

> <Gold.Id.Protein>
6NUR|6NUR_protein|mol2

> <Gold.PLP.Fitness>
43.4060

> <Gold.PLP.PLP>
-39.7631

> <Gold.PLP.part.hbond>
-1.7269

> <Gold.PLP.part.metal>
0.0000

> <Gold.PLP.part.buried>
-5.2919

> <Gold.PLP.part.nonpolar>
-33.6782

> <Gold.PLP.part.repulsive>
0.6591

> <Gold.PLP.ligand.clash>
0.0000

> <Gold.PLP.ligand.torsion>
1.1647

> <Gold.PLP.Chemscore.Hbond>
1.9833

> <Gold.PLP.Chemscore.CHOScore>
0.0000

> <Gold.PLP.Chemscore.Metal>
0.0000

> <Gold.Chemscore.Hbonds>
donor molecule, donor type, donor heavy atom, donor atom, acceptor molecule, acceptor atom, score
      P1  H  7989  7998       L1     2  1.00
      P1  H  7997  8009       L1     5  1.00

> <Gold.PLP.Chemscore.Internal.Correction>
0.0223

> <Gold.Rescore>
     Score         DG    S(hbond)    S(metal)    S(lipo)     H(rot)  DE(clash)    DE(int)     intcor
     15.39     -16.48       1.43        0.00      98.11       2.05       0.00       1.09       ----

> <Gold.Chemscore.Fitness>
15.3891

> <Gold.Chemscore.DG>
-16.4751

> <Gold.Chemscore.ZeroCoef>
-5.4800

> <Gold.Chemscore.Hbond>
1.4273

> <Gold.Chemscore.Metal>
0.0000

> <Gold.Chemscore.Lipo>
98.1146

> <Gold.Chemscore.Internal_Hbond>
0.0000

> <Gold.Chemscore.DEClash>
0.0000

> <Gold.Chemscore.DEInternal>
1.0859

> <Gold.Chemscore.Rot>
2.0513

> <Gold.Chemscore.Internal.Correction>
   9.000000E+99

> <Gold.Chemscore.Hbonds>
donor molecule, donor type, donor heavy atom, donor atom, acceptor molecule, acceptor atom, score
      P1  H  7989  7998       L1     2  0.58
      P1  H  7997  8009       L1     5  0.27

> <Gold.Chemscore.Hbond.Weighted>
-4.7671

> <Gold.Chemscore.Metal.Weighted>
-0.0000

> <Gold.Chemscore.Lipo.Weighted>
-11.4794

> <Gold.Chemscore.Internal_Hbond.Weighted>
0.0000

> <Gold.Chemscore.DEClash.Weighted>
0.0000

> <Gold.Chemscore.DEInternal.Weighted>
1.0859

> <Gold.Chemscore.Rot.Weighted>
5.2514

> <Gold.Chemscore.Internal.Correction.Weighted>
   9.000000E+99

> <Gold.Protein.RotatedTorsions>
[ 6907 6896 6895 6894 ] final -158.02 input  -60.11 | X-H torsion
[ 7974 7965 7964 7962 ] final  164.66 input  175.53 | X-H torsion
[ 8008 7997 7996 7995 ] final -137.19 input   59.86 | X-H torsion
[ 10167 10162 10161 10158 ] final  -86.76 input  -65.29 | X-H torsion
[ 10718 10713 10712 10709 ] final  -12.22 input   66.30 | X-H torsion
[ 10763 10752 10751 10750 ] final  -60.73 input  -60.55 | X-H torsion
[ 11005 11000 10999 10996 ] final   73.69 input  -57.11 | X-H torsion

> <Gold.Protein.ActiveResidues>
 VAL166  LYS551  ARG553  GLY616  TRP617  ASP618  TYR619  PRO620  LYS621  CYS622 
 ASP623  PHE694  ASN695  SER759  ASP760  ASP761  ALA762  ILE779  LEU786  VAL792 
 PHE793  MET794  SER795  GLU796  ALA797  LYS798  CYS799  TRP800  GLU811  SER814 

> <Gold.Protein.RotatedAtoms>
  151.3117  133.4078  159.2647 H   0  0  0  0  0  0  0  0  0  0  0  0  # atno 6907 bound_to 6896
  151.0109  134.9396  159.8017 H   0  0  0  0  0  0  0  0  0  0  0  0  # atno 6908 bound_to 6896
  152.5300  134.3081  159.9156 H   0  0  0  0  0  0  0  0  0  0  0  0  # atno 6909 bound_to 6896
  144.7535  139.8358  143.6358 H   0  0  0  0  0  0  0  0  0  0  0  0  # atno 7974 bound_to 7965
  155.4077  140.0510  157.3033 H   0  0  0  0  0  0  0  0  0  0  0  0  # atno 8008 bound_to 7997
  154.4961  140.2139  155.9405 H   0  0  0  0  0  0  0  0  0  0  0  0  # atno 8009 bound_to 7997
  156.1407  140.3155  155.8495 H   0  0  0  0  0  0  0  0  0  0  0  0  # atno 8010 bound_to 7997
  140.3911  143.2704  151.9264 H   0  0  0  0  0  0  0  0  0  0  0  0  # atno 10167 bound_to 10162
  156.6477  130.4946  149.6073 H   0  0  0  0  0  0  0  0  0  0  0  0  # atno 10718 bound_to 10713
  154.2738  135.6285  153.5320 H   0  0  0  0  0  0  0  0  0  0  0  0  # atno 10763 bound_to 10752
  152.9876  135.5616  154.5571 H   0  0  0  0  0  0  0  0  0  0  0  0  # atno 10764 bound_to 10752
  154.5147  135.2879  155.1289 H   0  0  0  0  0  0  0  0  0  0  0  0  # atno 10765 bound_to 10752
  139.9428  134.7368  156.1056 H   0  0  0  0  0  0  0  0  0  0  0  0  # atno 11005 bound_to 11000
  146.1517  139.4602  143.0044 LP  0  0  0  0  0  0  0  0  0  0  0  0  # atno 17320 bound_to 7965
  145.6859  141.0178  143.1581 LP  0  0  0  0  0  0  0  0  0  0  0  0  # atno 17321 bound_to 7965
  139.4789  144.5727  151.8062 LP  0  0  0  0  0  0  0  0  0  0  0  0  # atno 17342 bound_to 10162
  140.4839  144.1409  150.5937 LP  0  0  0  0  0  0  0  0  0  0  0  0  # atno 17343 bound_to 10162
  156.2109  130.6678  151.1268 LP  0  0  0  0  0  0  0  0  0  0  0  0  # atno 17370 bound_to 10713
  157.7151  131.0714  150.6358 LP  0  0  0  0  0  0  0  0  0  0  0  0  # atno 17371 bound_to 10713
  141.1068  133.6657  156.2883 LP  0  0  0  0  0  0  0  0  0  0  0  0  # atno 17394 bound_to 11000
  140.5910  134.5651  157.5499 LP  0  0  0  0  0  0  0  0  0  0  0  0  # atno 17395 bound_to 11000

$$$$
