AV-unprocessed.smi:2356|AV-procd|sdf|9395|dock1
  -GOLD-   2272013 23D 1   1.00000     0.00000
 Structure written by MMmdl.
 53 56  0  0  0  0  0  0  0  0  1 V2000
  151.0707  137.9142  154.4743 C   0  0  0  0  0  0  0  0  0  0  0  0
  150.4116  139.2269  154.8620 C   0  0  0  0  0  0  0  0  0  0  0  0
  151.1250  140.0059  155.7038 N   0  0  0  0  0  0  0  0  0  0  0  0
  150.6101  141.1924  156.1029 C   0  0  0  0  0  0  0  0  0  0  0  0
  151.3870  141.9738  156.9812 N   0  0  0  0  0  0  0  0  0  0  0  0
  151.0766  143.3717  157.2378 C   0  0  0  0  0  0  0  0  0  0  0  0
  152.0484  143.7865  158.3413 C   0  0  0  0  0  0  0  0  0  0  0  0
  152.2204  142.5018  159.1513 C   0  0  0  0  0  0  0  0  0  0  0  0
  152.0900  141.3823  158.1114 C   0  0  0  0  0  0  0  0  0  0  0  0
  149.3357  141.6290  155.6744 C   0  0  0  0  0  0  0  0  0  0  0  0
  148.5913  140.8183  154.7974 C   0  0  0  0  0  0  0  0  0  0  0  0
  149.1382  139.5881  154.3622 C   0  0  0  0  0  0  0  0  0  0  0  0
  148.4694  138.6869  153.4872 N   0  0  0  0  0  0  0  0  0  0  0  0
  147.1517  138.5381  153.2487 C   0  0  0  0  0  0  0  0  0  0  0  0
  146.2603  139.1926  153.7844 O   0  0  0  0  0  0  0  0  0  0  0  0
  146.8646  137.5870  152.3412 N   0  0  0  0  0  0  0  0  0  0  0  0
  145.5497  137.1668  151.8501 C   0  0  2  0  0  0  0  0  0  0  0  0
  144.5596  137.0915  153.0214 C   0  0  0  0  0  0  0  0  0  0  0  0
  143.2091  136.5251  152.5545 C   0  0  0  0  0  0  0  0  0  0  0  0
  143.3984  135.2500  151.9503 O   0  0  0  0  0  0  0  0  0  0  0  0
  144.2147  135.2976  150.7841 C   0  0  2  0  0  0  0  0  0  0  0  0
  144.2484  133.9105  150.1741 C   0  0  0  0  0  0  0  0  0  0  0  0
  143.5430  132.7552  150.8456 C   0  0  0  0  0  0  0  0  0  0  0  0
  145.0517  132.8027  150.8144 C   0  0  0  0  0  0  0  0  0  0  0  0
  145.6228  135.7907  151.1644 C   0  0  0  0  0  0  0  0  0  0  0  0
  150.4565  137.0719  154.7939 H   0  0  0  0  0  0  0  0  0  0  0  0
  152.0539  137.8072  154.9340 H   0  0  0  0  0  0  0  0  0  0  0  0
  151.1975  137.8579  153.3929 H   0  0  0  0  0  0  0  0  0  0  0  0
  151.1972  143.9830  156.3430 H   0  0  0  0  0  0  0  0  0  0  0  0
  150.0446  143.4583  157.5807 H   0  0  0  0  0  0  0  0  0  0  0  0
  153.0044  144.0761  157.9030 H   0  0  0  0  0  0  0  0  0  0  0  0
  151.6826  144.6230  158.9373 H   0  0  0  0  0  0  0  0  0  0  0  0
  153.1638  142.4656  159.6964 H   0  0  0  0  0  0  0  0  0  0  0  0
  151.4110  142.4203  159.8781 H   0  0  0  0  0  0  0  0  0  0  0  0
  151.5572  140.5263  158.5269 H   0  0  0  0  0  0  0  0  0  0  0  0
  153.0727  141.0472  157.7780 H   0  0  0  0  0  0  0  0  0  0  0  0
  148.9152  142.5644  156.0118 H   0  0  0  0  0  0  0  0  0  0  0  0
  147.6133  141.1548  154.4930 H   0  0  0  0  0  0  0  0  0  0  0  0
  149.0775  138.1093  152.9254 H   0  0  0  0  0  0  0  0  0  0  0  0
  147.6517  137.0766  151.9676 H   0  0  0  0  0  0  0  0  0  0  0  0
  145.1711  137.9043  151.1397 H   0  0  0  0  0  0  0  0  0  0  0  0
  144.9620  136.4520  153.8084 H   0  0  0  0  0  0  0  0  0  0  0  0
  144.4178  138.0789  153.4625 H   0  0  0  0  0  0  0  0  0  0  0  0
  142.5361  136.4142  153.4048 H   0  0  0  0  0  0  0  0  0  0  0  0
  142.7238  137.2040  151.8517 H   0  0  0  0  0  0  0  0  0  0  0  0
  143.7681  135.9832  150.0613 H   0  0  0  0  0  0  0  0  0  0  0  0
  144.2232  133.9102  149.0858 H   0  0  0  0  0  0  0  0  0  0  0  0
  143.0544  132.9441  151.7995 H   0  0  0  0  0  0  0  0  0  0  0  0
  143.0488  132.0286  150.2040 H   0  0  0  0  0  0  0  0  0  0  0  0
  145.5637  132.1076  150.1522 H   0  0  0  0  0  0  0  0  0  0  0  0
  145.5666  133.0233  151.7474 H   0  0  0  0  0  0  0  0  0  0  0  0
  146.2490  135.8395  150.2728 H   0  0  0  0  0  0  0  0  0  0  0  0
  146.0923  135.0693  151.8350 H   0  0  0  0  0  0  0  0  0  0  0  0
  1  2  1  0  0  0  0
  1 26  1  0  0  0  0
  1 27  1  0  0  0  0
  1 28  1  0  0  0  0
  2 12  1  0  0  0  0
  2  3  2  0  0  0  0
  3  4  1  0  0  0  0
  4  5  1  0  0  0  0
  4 10  2  0  0  0  0
  5  9  1  0  0  0  0
  5  6  1  0  0  0  0
  6  7  1  0  0  0  0
  6 29  1  0  0  0  0
  6 30  1  0  0  0  0
  7  8  1  0  0  0  0
  7 31  1  0  0  0  0
  7 32  1  0  0  0  0
  8  9  1  0  0  0  0
  8 33  1  0  0  0  0
  8 34  1  0  0  0  0
  9 35  1  0  0  0  0
  9 36  1  0  0  0  0
 10 11  1  0  0  0  0
 10 37  1  0  0  0  0
 11 12  2  0  0  0  0
 11 38  1  0  0  0  0
 12 13  1  0  0  0  0
 13 14  1  0  0  0  0
 13 39  1  0  0  0  0
 14 15  2  0  0  0  0
 14 16  1  0  0  0  0
 16 17  1  0  0  0  0
 16 40  1  0  0  0  0
 17 25  1  0  0  0  0
 17 18  1  0  0  0  0
 17 41  1  0  0  0  0
 18 19  1  0  0  0  0
 18 42  1  0  0  0  0
 18 43  1  0  0  0  0
 19 20  1  0  0  0  0
 19 44  1  0  0  0  0
 19 45  1  0  0  0  0
 20 21  1  0  0  0  0
 21 22  1  0  0  0  0
 21 25  1  0  0  0  0
 21 46  1  0  0  0  0
 22 24  1  0  0  0  0
 22 23  1  0  0  0  0
 22 47  1  0  0  0  0
 23 24  1  0  0  0  0
 23 48  1  0  0  0  0
 23 49  1  0  0  0  0
 24 50  1  0  0  0  0
 24 51  1  0  0  0  0
 25 52  1  0  0  0  0
 25 53  1  0  0  0  0
M  END
> <s_m_source_file>
AV-unprocessed.smi

> <i_m_source_file_index>
2356

> <i_lp_mmshare_version>
43012

> <i_f3d_flags>
0

> <s_epik_input>
W0NIMl0xW0NIMl1bQ0gyXVtDSDJdTjFjKG5jMltDSDNdKVtjSF1bY0hdYzJbTkhdQyg9TylbTkhdW0NAQEhdM1tDSDJdW0NIMl1PW0NASF0oW0NIMl0zKVtDSF00W0NIMl1bQ0gyXTQ=

> <s_epik_cmdline>
J2VwaWtfcHl0aG9uJywgJy1waCcsICc3LjAnLCAnLXRuJywgJzgnLCAnLW1hJywgJzIwMCcsICctbWV0YWxfYmluZGluZycsICctaW1hZScsICc8aW5maWxlLm1hZT4nLCAnLW9tYWUnLCAnPG91dGZpbGUubWFlPic=

> <r_lp_tautomer_probability>
1

> <r_epik_Ionization_Penalty>
0.308781

> <r_epik_Ionization_Penalty_Charging>
0

> <r_epik_Ionization_Penalty_Neutral>
0.308781

> <r_epik_State_Penalty>
0.302092

> <r_epik_Charging_Adjusted_Penalty>
0.302092

> <i_epik_Tot_Q>
0

> <i_epik_Tot_abs_Q>
0

> <r_epik_Metal_State_Penalty>
0.197467

> <b_epik_Metal_Only>
0

> <s_lp_Force_Field>
OPLS_2005

> <r_lp_Energy>
53.3559

> <b_lp_Chiralities_Consistent>
1

> <s_lp_Variant>
AV-unprocessed.smi:2356-3

> <Gold.Version>
5.8.1

> <Gold.Id.Protein>
6NUR|6NUR_protein|mol2

> <Gold.PLP.Fitness>
51.6113

> <Gold.PLP.PLP>
-48.7579

> <Gold.PLP.part.hbond>
-3.0764

> <Gold.PLP.part.metal>
0.0000

> <Gold.PLP.part.buried>
-4.6499

> <Gold.PLP.part.nonpolar>
-43.4796

> <Gold.PLP.part.repulsive>
0.4778

> <Gold.PLP.ligand.clash>
0.0000

> <Gold.PLP.ligand.torsion>
1.6115

> <Gold.PLP.Chemscore.Hbond>
1.5866

> <Gold.PLP.Chemscore.CHOScore>
0.0000

> <Gold.PLP.Chemscore.Metal>
0.0000

> <Gold.Chemscore.Hbonds>
donor molecule, donor type, donor heavy atom, donor atom, acceptor molecule, acceptor atom, score
      L1  H    13    39       P1  7948  0.59
      L1  H    16    40       P1  7948  1.00

> <Gold.PLP.Chemscore.Internal.Correction>
1.3166

> <Gold.Rescore>
     Score         DG    S(hbond)    S(metal)    S(lipo)     H(rot)  DE(clash)    DE(int)     intcor
     18.47     -22.44       1.67        0.00     122.20       1.14       0.44       3.53       ----

> <Gold.Chemscore.Fitness>
18.4659

> <Gold.Chemscore.DG>
-22.4357

> <Gold.Chemscore.ZeroCoef>
-5.4800

> <Gold.Chemscore.Hbond>
1.6691

> <Gold.Chemscore.Metal>
0.0000

> <Gold.Chemscore.Lipo>
122.2048

> <Gold.Chemscore.Internal_Hbond>
0.0000

> <Gold.Chemscore.DEClash>
0.4374

> <Gold.Chemscore.DEInternal>
3.5323

> <Gold.Chemscore.Rot>
1.1395

> <Gold.Chemscore.Internal.Correction>
   9.000000E+99

> <Gold.Chemscore.Hbonds>
donor molecule, donor type, donor heavy atom, donor atom, acceptor molecule, acceptor atom, score
      L1  H    13    39       P1  7948  0.58
      L1  H    16    40       P1  7948  0.93

> <Gold.Chemscore.Hbond.Weighted>
-5.5749

> <Gold.Chemscore.Metal.Weighted>
-0.0000

> <Gold.Chemscore.Lipo.Weighted>
-14.2980

> <Gold.Chemscore.Internal_Hbond.Weighted>
0.0000

> <Gold.Chemscore.DEClash.Weighted>
0.4374

> <Gold.Chemscore.DEInternal.Weighted>
3.5323

> <Gold.Chemscore.Rot.Weighted>
2.9171

> <Gold.Chemscore.Internal.Correction.Weighted>
   9.000000E+99

> <Gold.Protein.RotatedTorsions>
[ 6907 6896 6895 6894 ] final   12.04 input  -60.11 | X-H torsion
[ 7974 7965 7964 7962 ] final   92.45 input  175.53 | X-H torsion
[ 8008 7997 7996 7995 ] final   95.38 input   59.86 | X-H torsion
[ 10167 10162 10161 10158 ] final -153.01 input  -65.29 | X-H torsion
[ 10718 10713 10712 10709 ] final   41.06 input   66.30 | X-H torsion
[ 10763 10752 10751 10750 ] final   17.56 input  -60.55 | X-H torsion
[ 11005 11000 10999 10996 ] final -112.22 input  -57.11 | X-H torsion

> <Gold.Protein.ActiveResidues>
 VAL166  LYS551  ARG553  GLY616  TRP617  ASP618  TYR619  PRO620  LYS621  CYS622 
 ASP623  PHE694  ASN695  SER759  ASP760  ASP761  ALA762  ILE779  LEU786  VAL792 
 PHE793  MET794  SER795  GLU796  ALA797  LYS798  CYS799  TRP800  GLU811  SER814 

> <Gold.Protein.RotatedAtoms>
  151.7640  135.0803  160.0349 H   0  0  0  0  0  0  0  0  0  0  0  0  # atno 6907 bound_to 6896
  152.3334  133.5979  159.5834 H   0  0  0  0  0  0  0  0  0  0  0  0  # atno 6908 bound_to 6896
  150.7436  133.9749  159.3599 H   0  0  0  0  0  0  0  0  0  0  0  0  # atno 6909 bound_to 6896
  145.4921  139.2276  143.2824 H   0  0  0  0  0  0  0  0  0  0  0  0  # atno 7974 bound_to 7965
  156.0682  140.3287  155.7544 H   0  0  0  0  0  0  0  0  0  0  0  0  # atno 8008 bound_to 7997
  155.5347  140.0596  157.2899 H   0  0  0  0  0  0  0  0  0  0  0  0  # atno 8009 bound_to 7997
  154.4516  140.1921  156.0519 H   0  0  0  0  0  0  0  0  0  0  0  0  # atno 8010 bound_to 7997
  139.7133  143.9074  152.2476 H   0  0  0  0  0  0  0  0  0  0  0  0  # atno 10167 bound_to 10162
  157.3893  130.7797  149.7256 H   0  0  0  0  0  0  0  0  0  0  0  0  # atno 10718 bound_to 10713
  153.1328  135.6743  153.9151 H   0  0  0  0  0  0  0  0  0  0  0  0  # atno 10763 bound_to 10752
  153.8633  135.3078  155.3440 H   0  0  0  0  0  0  0  0  0  0  0  0  # atno 10764 bound_to 10752
  154.7722  135.4933  153.9753 H   0  0  0  0  0  0  0  0  0  0  0  0  # atno 10765 bound_to 10752
  141.0688  133.9415  157.2526 H   0  0  0  0  0  0  0  0  0  0  0  0  # atno 11005 bound_to 11000
  146.2277  140.5716  142.8989 LP  0  0  0  0  0  0  0  0  0  0  0  0  # atno 17320 bound_to 7965
  144.7828  140.5874  143.6594 LP  0  0  0  0  0  0  0  0  0  0  0  0  # atno 17321 bound_to 7965
  139.8949  144.6945  150.8729 LP  0  0  0  0  0  0  0  0  0  0  0  0  # atno 17342 bound_to 10162
  140.7738  143.3558  151.1924 LP  0  0  0  0  0  0  0  0  0  0  0  0  # atno 17343 bound_to 10162
  155.9794  130.4040  150.3588 LP  0  0  0  0  0  0  0  0  0  0  0  0  # atno 17370 bound_to 10713
  157.1702  131.0367  151.2799 LP  0  0  0  0  0  0  0  0  0  0  0  0  # atno 17371 bound_to 10713
  139.9502  135.0177  156.8972 LP  0  0  0  0  0  0  0  0  0  0  0  0  # atno 17394 bound_to 11000
  140.5718  134.0436  155.7433 LP  0  0  0  0  0  0  0  0  0  0  0  0  # atno 17395 bound_to 11000

$$$$
