AV-unprocessed.smi:3009|AV-procd|sdf|11450|dock10
  -GOLD-   2272016383D 1   1.00000     0.00000
 Structure written by MMmdl.
 44 45  0  0  0  0  0  0  0  0  2 V2000
  144.6496  133.9292  150.7737 C   0  0  0  0  0  0  0  0  0  0  0  0
  145.8773  133.0058  150.7661 C   0  0  0  0  0  0  0  0  0  0  0  0
  145.8550  132.0960  149.5262 C   0  0  0  0  0  0  0  0  0  0  0  0
  145.9517  132.1939  152.0779 C   0  0  0  0  0  0  0  0  0  0  0  0
  147.1915  131.3780  152.1964 N   0  3  2  0  0  0  0  0  0  0  0  0
  147.0319  130.1849  153.0627 C   0  0  0  0  0  0  0  0  0  0  0  0
  147.0797  130.5711  154.5515 C   0  0  0  0  0  0  0  0  0  0  0  0
  148.2996  131.2488  154.8226 O   0  0  0  0  0  0  0  0  0  0  0  0
  148.4293  132.4652  154.0922 C   0  0  1  0  0  0  0  0  0  0  0  0
  149.7430  133.1535  154.5039 C   0  0  0  0  0  0  0  0  0  0  0  0
  149.7375  134.5757  154.1775 N   0  0  0  0  0  0  0  0  0  0  0  0
  150.4851  135.5113  154.7791 C   0  0  0  0  0  0  0  0  0  0  0  0
  151.2696  135.2707  155.6967 O   0  0  0  0  0  0  0  0  0  0  0  0
  150.2622  136.7256  154.2505 N   0  0  0  0  0  0  0  0  0  0  0  0
  150.8713  137.9513  154.6198 C   0  0  0  0  0  0  0  0  0  0  0  0
  150.4241  139.2340  154.2018 C   0  0  0  0  0  0  0  0  0  0  0  0
  151.1851  140.1978  154.7002 N   0  0  0  0  0  0  0  0  0  0  0  0
  152.1143  139.5423  155.4321 N   0  0  0  0  0  0  0  0  0  0  0  0
  151.9621  138.1734  155.4129 C   0  0  0  0  0  0  0  0  0  0  0  0
  148.4103  132.1358  152.5826 C   0  0  0  0  0  0  0  0  0  0  0  0
  152.8382  140.0378  155.9332 H   0  0  0  0  0  0  0  0  0  0  0  0
  143.7225  133.3578  150.8332 H   0  0  0  0  0  0  0  0  0  0  0  0
  144.6084  134.5362  149.8688 H   0  0  0  0  0  0  0  0  0  0  0  0
  144.6744  134.6116  151.6239 H   0  0  0  0  0  0  0  0  0  0  0  0
  146.7513  133.6519  150.6916 H   0  0  0  0  0  0  0  0  0  0  0  0
  144.9922  131.4292  149.5380 H   0  0  0  0  0  0  0  0  0  0  0  0
  146.7519  131.4793  149.4652 H   0  0  0  0  0  0  0  0  0  0  0  0
  145.8055  132.6853  148.6101 H   0  0  0  0  0  0  0  0  0  0  0  0
  145.8567  132.8552  152.9389 H   0  0  0  0  0  0  0  0  0  0  0  0
  145.0840  131.5335  152.1137 H   0  0  0  0  0  0  0  0  0  0  0  0
  146.1088  129.6545  152.8265 H   0  0  0  0  0  0  0  0  0  0  0  0
  147.8457  129.4918  152.8452 H   0  0  0  0  0  0  0  0  0  0  0  0
  146.2292  131.1949  154.8296 H   0  0  0  0  0  0  0  0  0  0  0  0
  147.0313  129.6755  155.1711 H   0  0  0  0  0  0  0  0  0  0  0  0
  147.5995  133.1285  154.3407 H   0  0  0  0  0  0  0  0  0  0  0  0
  149.9472  132.9974  155.5646 H   0  0  0  0  0  0  0  0  0  0  0  0
  150.5763  132.7047  153.9625 H   0  0  0  0  0  0  0  0  0  0  0  0
  149.1237  134.8682  153.4312 H   0  0  0  0  0  0  0  0  0  0  0  0
  149.5911  136.7787  153.4983 H   0  0  0  0  0  0  0  0  0  0  0  0
  149.5899  139.4923  153.5660 H   0  0  0  0  0  0  0  0  0  0  0  0
  152.6251  137.5105  155.9487 H   0  0  0  0  0  0  0  0  0  0  0  0
  149.2772  131.5198  152.3392 H   0  0  0  0  0  0  0  0  0  0  0  0
  148.5133  133.0432  151.9895 H   0  0  0  0  0  0  0  0  0  0  0  0
  147.3573  131.0208  151.2662 H   0  0  0  0  0  0  0  0  0  0  0  0
  1  2  1  0  0  0  0
  1 22  1  0  0  0  0
  1 23  1  0  0  0  0
  1 24  1  0  0  0  0
  2  3  1  0  0  0  0
  2  4  1  0  0  0  0
  2 25  1  0  0  0  0
  3 26  1  0  0  0  0
  3 27  1  0  0  0  0
  3 28  1  0  0  0  0
  4  5  1  0  0  0  0
  4 29  1  0  0  0  0
  4 30  1  0  0  0  0
  5 20  1  0  0  0  0
  5  6  1  0  0  0  0
  5 44  1  0  0  0  0
  6  7  1  0  0  0  0
  6 31  1  0  0  0  0
  6 32  1  0  0  0  0
  7  8  1  0  0  0  0
  7 33  1  0  0  0  0
  7 34  1  0  0  0  0
  8  9  1  0  0  0  0
  9 10  1  0  0  0  0
  9 20  1  0  0  0  0
  9 35  1  0  0  0  0
 10 11  1  0  0  0  0
 10 36  1  0  0  0  0
 10 37  1  0  0  0  0
 11 12  1  0  0  0  0
 11 38  1  0  0  0  0
 12 13  2  0  0  0  0
 12 14  1  0  0  0  0
 14 15  1  0  0  0  0
 14 39  1  0  0  0  0
 15 19  2  0  0  0  0
 15 16  1  0  0  0  0
 16 17  2  0  0  0  0
 16 40  1  0  0  0  0
 17 18  1  0  0  0  0
 18 21  1  0  0  0  0
 18 19  1  0  0  0  0
 19 41  1  0  0  0  0
 20 42  1  0  0  0  0
 20 43  1  0  0  0  0
M  CHG  1   5   1
M  END
> <s_m_source_file>
AV-unprocessed.smi

> <i_m_source_file_index>
3009

> <i_lp_mmshare_version>
43012

> <i_f3d_flags>
0

> <s_epik_input>
W0NIM11bQ0hdKFtDSDNdKVtDSDJdTjFbQ0gyXVtDSDJdT1tDQEhdKFtDSDJdMSlbQ0gyXVtOSF1DKD1PKVtOSF1jMltjSF1uW25IXVtjSF0y

> <s_epik_cmdline>
J2VwaWtfcHl0aG9uJywgJy1waCcsICc3LjAnLCAnLXRuJywgJzgnLCAnLW1hJywgJzIwMCcsICctbWV0YWxfYmluZGluZycsICctaW1hZScsICc8aW5maWxlLm1hZT4nLCAnLW9tYWUnLCAnPG91dGZpbGUubWFlPic=

> <r_lp_tautomer_probability>
0.5

> <r_epik_Ionization_Penalty>
0.0974064

> <r_epik_Ionization_Penalty_Charging>
0.0973651

> <r_epik_Ionization_Penalty_Neutral>
4.13573e-05

> <r_epik_State_Penalty>
0.0874853

> <r_epik_Charging_Adjusted_Penalty>
0.18485

> <i_epik_Tot_Q>
1

> <i_epik_Tot_abs_Q>
1

> <r_epik_Metal_State_Penalty>
0.0874855

> <b_epik_Metal_Only>
0

> <s_lp_Force_Field>
OPLS_2005

> <r_lp_Energy>
22.9615

> <b_lp_Chiralities_Consistent>
1

> <s_lp_Variant>
AV-unprocessed.smi:3009-2

> <Gold.Version>
5.8.1

> <Gold.Id.Protein>
6NUR|6NUR_protein|mol2

> <Gold.PLP.Fitness>
47.9872

> <Gold.PLP.PLP>
-33.4565

> <Gold.PLP.part.hbond>
-5.8547

> <Gold.PLP.part.metal>
0.0000

> <Gold.PLP.part.buried>
-1.2874

> <Gold.PLP.part.nonpolar>
-26.5540

> <Gold.PLP.part.repulsive>
0.4251

> <Gold.PLP.ligand.clash>
0.0000

> <Gold.PLP.ligand.torsion>
0.6259

> <Gold.PLP.Chemscore.Hbond>
4.2930

> <Gold.PLP.Chemscore.CHOScore>
0.9516

> <Gold.PLP.Chemscore.Metal>
0.0000

> <Gold.Chemscore.Hbonds>
donor molecule, donor type, donor heavy atom, donor atom, acceptor molecule, acceptor atom, score
      L1  H     5    44       P1 10747  0.61
      L1  H    11    38       P1  7948  0.70
      L1  H    14    39       P1  7948  0.99
      P1  H  7989  7998       L1    17  0.80
      P1  H 10752 10764       L1    13  1.00
      L1  C    16    40       P1  7957  0.96

> <Gold.PLP.Chemscore.Internal.Correction>
0.0486

> <Gold.Rescore>
     Score         DG    S(hbond)    S(metal)    S(lipo)     H(rot)  DE(clash)    DE(int)     intcor
     16.83     -20.13       2.81        0.00      84.42       1.80       1.59       1.72       ----

> <Gold.Chemscore.Fitness>
16.8292

> <Gold.Chemscore.DG>
-20.1297

> <Gold.Chemscore.ZeroCoef>
-5.4800

> <Gold.Chemscore.Hbond>
2.8059

> <Gold.Chemscore.Metal>
0.0000

> <Gold.Chemscore.Lipo>
84.4152

> <Gold.Chemscore.Internal_Hbond>
0.0000

> <Gold.Chemscore.DEClash>
1.5854

> <Gold.Chemscore.DEInternal>
1.7151

> <Gold.Chemscore.Rot>
1.7963

> <Gold.Chemscore.Internal.Correction>
   9.000000E+99

> <Gold.Chemscore.Hbonds>
donor molecule, donor type, donor heavy atom, donor atom, acceptor molecule, acceptor atom, score
      L1  H     5    44       P1 10747  0.62
      L1  H    11    38       P1  7948  0.11
      L1  H    14    39       P1  7948  0.66
      P1  H  7989  7998       L1    17  0.26
      P1  H 10752 10764       L1    13  0.38

> <Gold.Chemscore.Hbond.Weighted>
-9.3716

> <Gold.Chemscore.Metal.Weighted>
-0.0000

> <Gold.Chemscore.Lipo.Weighted>
-9.8766

> <Gold.Chemscore.Internal_Hbond.Weighted>
0.0000

> <Gold.Chemscore.DEClash.Weighted>
1.5854

> <Gold.Chemscore.DEInternal.Weighted>
1.7151

> <Gold.Chemscore.Rot.Weighted>
4.5985

> <Gold.Chemscore.Internal.Correction.Weighted>
   9.000000E+99

> <Gold.Protein.RotatedTorsions>
[ 6907 6896 6895 6894 ] final -142.45 input  -60.11 | X-H torsion
[ 7974 7965 7964 7962 ] final -172.92 input  175.53 | X-H torsion
[ 8008 7997 7996 7995 ] final -170.56 input   59.86 | X-H torsion
[ 10167 10162 10161 10158 ] final  -37.40 input  -65.29 | X-H torsion
[ 10718 10713 10712 10709 ] final -141.03 input   66.30 | X-H torsion
[ 10763 10752 10751 10750 ] final  -42.70 input  -60.55 | X-H torsion
[ 11005 11000 10999 10996 ] final  150.45 input  -57.11 | X-H torsion

> <Gold.Protein.ActiveResidues>
 VAL166  LYS551  ARG553  GLY616  TRP617  ASP618  TYR619  PRO620  LYS621  CYS622 
 ASP623  PHE694  ASN695  SER759  ASP760  ASP761  ALA762  ILE779  LEU786  VAL792 
 PHE793  MET794  SER795  GLU796  ALA797  LYS798  CYS799  TRP800  GLU811  SER814 

> <Gold.Protein.RotatedAtoms>
  151.0872  133.5344  159.2616 H   0  0  0  0  0  0  0  0  0  0  0  0  # atno 6907 bound_to 6896
  151.2225  135.0523  159.8965 H   0  0  0  0  0  0  0  0  0  0  0  0  # atno 6908 bound_to 6896
  152.5430  134.0672  159.8232 H   0  0  0  0  0  0  0  0  0  0  0  0  # atno 6909 bound_to 6896
  144.7142  140.1699  143.6368 H   0  0  0  0  0  0  0  0  0  0  0  0  # atno 7974 bound_to 7965
  155.9200  140.1072  157.1214 H   0  0  0  0  0  0  0  0  0  0  0  0  # atno 8008 bound_to 7997
  154.4052  140.1258  156.4732 H   0  0  0  0  0  0  0  0  0  0  0  0  # atno 8009 bound_to 7997
  155.7208  140.3470  155.5017 H   0  0  0  0  0  0  0  0  0  0  0  0  # atno 8010 bound_to 7997
  140.7119  143.3345  151.2494 H   0  0  0  0  0  0  0  0  0  0  0  0  # atno 10167 bound_to 10162
  156.3292  130.7577  151.1691 H   0  0  0  0  0  0  0  0  0  0  0  0  # atno 10718 bound_to 10713
  153.9833  135.6714  153.4751 H   0  0  0  0  0  0  0  0  0  0  0  0  # atno 10763 bound_to 10752
  153.0738  135.4960  154.8358 H   0  0  0  0  0  0  0  0  0  0  0  0  # atno 10764 bound_to 10752
  154.7152  135.3105  154.9097 H   0  0  0  0  0  0  0  0  0  0  0  0  # atno 10765 bound_to 10752
  140.1132  134.8911  157.1966 H   0  0  0  0  0  0  0  0  0  0  0  0  # atno 11005 bound_to 11000
  145.8953  139.2399  143.1525 LP  0  0  0  0  0  0  0  0  0  0  0  0  # atno 17320 bound_to 7965
  145.9864  140.8640  143.0089 LP  0  0  0  0  0  0  0  0  0  0  0  0  # atno 17321 bound_to 7965
  139.6836  143.9812  152.2822 LP  0  0  0  0  0  0  0  0  0  0  0  0  # atno 17342 bound_to 10162
  139.9450  144.6657  150.8228 LP  0  0  0  0  0  0  0  0  0  0  0  0  # atno 17343 bound_to 10162
  157.7427  131.0486  150.5003 LP  0  0  0  0  0  0  0  0  0  0  0  0  # atno 17370 bound_to 10713
  156.5166  130.4152  149.6272 LP  0  0  0  0  0  0  0  0  0  0  0  0  # atno 17371 bound_to 10713
  140.3063  134.3074  155.7277 LP  0  0  0  0  0  0  0  0  0  0  0  0  # atno 17394 bound_to 11000
  141.2135  133.7623  156.9713 LP  0  0  0  0  0  0  0  0  0  0  0  0  # atno 17395 bound_to 11000

$$$$
