AV-unprocessed.smi:2417|AV-procd|sdf|9548|dock6
  -GOLD-   2272013183D 1   1.00000     0.00000
 Structure written by MMmdl.
 38 39  0  0  0  0  0  0  0  0  1 V2000
  146.3687  138.5000  154.1129 C   0  0  0  0  0  0  0  0  0  0  0  0
  147.8345  138.5034  154.5095 C   0  0  0  0  0  0  0  0  0  0  0  0
  148.3646  137.2617  154.8722 N   0  0  0  0  0  0  0  0  0  0  0  0
  149.6045  137.1683  155.2262 C   0  0  0  0  0  0  0  0  0  0  0  0
  150.4487  138.2903  155.2595 N   0  0  0  0  0  0  0  0  0  0  0  0
  151.8388  138.0481  155.6797 C   0  0  0  0  0  0  0  0  0  0  0  0
  152.2461  138.9220  156.8874 C   0  0  2  0  0  0  0  0  0  0  0  0
  153.5670  138.6228  157.2923 O   0  0  0  0  0  0  0  0  0  0  0  0
  151.3261  138.7315  158.1053 C   0  0  0  0  0  0  0  0  0  0  0  0
  151.8915  139.3655  159.2464 O   0  0  0  0  0  0  0  0  0  0  0  0
  151.9109  140.7428  159.2870 C   0  0  0  0  0  0  0  0  0  0  0  0
  152.5064  141.3400  160.4175 C   0  0  0  0  0  0  0  0  0  0  0  0
  152.5703  142.7410  160.5435 C   0  0  0  0  0  0  0  0  0  0  0  0
  152.0357  143.5627  159.5343 C   0  0  0  0  0  0  0  0  0  0  0  0
  152.0961  144.9102  159.6533 F   0  0  0  0  0  0  0  0  0  0  0  0
  151.4385  142.9808  158.4007 C   0  0  0  0  0  0  0  0  0  0  0  0
  151.3749  141.5791  158.2747 C   0  0  0  0  0  0  0  0  0  0  0  0
  150.0149  139.5369  154.9139 C   0  0  0  0  0  0  0  0  0  0  0  0
  150.7684  140.5121  154.9338 O   0  0  0  0  0  0  0  0  0  0  0  0
  148.6005  139.6284  154.5166 C   0  0  0  0  0  0  0  0  0  0  0  0
  148.0787  141.0067  154.1301 C   0  0  0  0  0  0  0  0  0  0  0  0
  145.7918  139.1480  154.7733 H   0  0  0  0  0  0  0  0  0  0  0  0
  145.9429  137.4977  154.1736 H   0  0  0  0  0  0  0  0  0  0  0  0
  146.2498  138.8505  153.0873 H   0  0  0  0  0  0  0  0  0  0  0  0
  150.0673  136.2226  155.5137 H   0  0  0  0  0  0  0  0  0  0  0  0
  151.9367  136.9947  155.9490 H   0  0  0  0  0  0  0  0  0  0  0  0
  152.5458  138.1804  154.8578 H   0  0  0  0  0  0  0  0  0  0  0  0
  152.2219  139.9784  156.6172 H   0  0  0  0  0  0  0  0  0  0  0  0
  153.9175  137.9627  156.7138 H   0  0  0  0  0  0  0  0  0  0  0  0
  150.3277  139.1181  157.8930 H   0  0  0  0  0  0  0  0  0  0  0  0
  151.2317  137.6627  158.3049 H   0  0  0  0  0  0  0  0  0  0  0  0
  152.9191  140.7163  161.1969 H   0  0  0  0  0  0  0  0  0  0  0  0
  153.0293  143.1846  161.4148 H   0  0  0  0  0  0  0  0  0  0  0  0
  151.0281  143.6104  157.6251 H   0  0  0  0  0  0  0  0  0  0  0  0
  150.9095  141.1707  157.3908 H   0  0  0  0  0  0  0  0  0  0  0  0
  148.6453  141.3999  153.2855 H   0  0  0  0  0  0  0  0  0  0  0  0
  148.1907  141.6990  154.9651 H   0  0  0  0  0  0  0  0  0  0  0  0
  147.0276  141.0042  153.8462 H   0  0  0  0  0  0  0  0  0  0  0  0
  1  2  1  0  0  0  0
  1 22  1  0  0  0  0
  1 23  1  0  0  0  0
  1 24  1  0  0  0  0
  2 20  2  0  0  0  0
  2  3  1  0  0  0  0
  3  4  2  0  0  0  0
  4  5  1  0  0  0  0
  4 25  1  0  0  0  0
  5  6  1  0  0  0  0
  5 18  1  0  0  0  0
  6  7  1  0  0  0  0
  6 26  1  0  0  0  0
  6 27  1  0  0  0  0
  7  8  1  0  0  0  0
  7  9  1  0  0  0  0
  7 28  1  0  0  0  0
  8 29  1  0  0  0  0
  9 10  1  0  0  0  0
  9 30  1  0  0  0  0
  9 31  1  0  0  0  0
 10 11  1  0  0  0  0
 11 17  1  0  0  0  0
 11 12  2  0  0  0  0
 12 13  1  0  0  0  0
 12 32  1  0  0  0  0
 13 14  2  0  0  0  0
 13 33  1  0  0  0  0
 14 15  1  0  0  0  0
 14 16  1  0  0  0  0
 16 17  2  0  0  0  0
 16 34  1  0  0  0  0
 17 35  1  0  0  0  0
 18 19  2  0  0  0  0
 18 20  1  0  0  0  0
 20 21  1  0  0  0  0
 21 36  1  0  0  0  0
 21 37  1  0  0  0  0
 21 38  1  0  0  0  0
M  END
> <s_m_source_file>
AV-unprocessed.smi

> <i_m_source_file_index>
2417

> <i_lp_mmshare_version>
43012

> <i_f3d_flags>
0

> <s_epik_input>
W0NIM11jMW5bY0hdbihjKD1PKWMxW0NIM10pW0NIMl1bQ0BIXShbT0hdKVtDSDJdT2MyW2NIXVtjSF1jKEYpW2NIXVtjSF0y

> <s_epik_cmdline>
J2VwaWtfcHl0aG9uJywgJy1waCcsICc3LjAnLCAnLXRuJywgJzgnLCAnLW1hJywgJzIwMCcsICctbWV0YWxfYmluZGluZycsICctaW1hZScsICc8aW5maWxlLm1hZT4nLCAnLW9tYWUnLCAnPG91dGZpbGUubWFlPic=

> <r_lp_tautomer_probability>
1

> <r_epik_Ionization_Penalty>
3.65384e-05

> <r_epik_Ionization_Penalty_Charging>
8.23007e-08

> <r_epik_Ionization_Penalty_Neutral>
3.64561e-05

> <r_epik_State_Penalty>
-0

> <r_epik_Charging_Adjusted_Penalty>
8.23007e-08

> <i_epik_Tot_Q>
0

> <i_epik_Tot_abs_Q>
0

> <r_epik_Metal_State_Penalty>
-0

> <b_epik_Metal_Only>
0

> <s_lp_Force_Field>
OPLS_2005

> <r_lp_Energy>
23.7128

> <b_lp_Chiralities_Consistent>
1

> <s_lp_Variant>
AV-unprocessed.smi:2417-1

> <Gold.Version>
5.8.1

> <Gold.Id.Protein>
6NUR|6NUR_protein|mol2

> <Gold.PLP.Fitness>
46.0787

> <Gold.PLP.PLP>
-40.2874

> <Gold.PLP.part.hbond>
-1.7385

> <Gold.PLP.part.metal>
0.0000

> <Gold.PLP.part.buried>
-6.1354

> <Gold.PLP.part.nonpolar>
-34.0878

> <Gold.PLP.part.repulsive>
0.2363

> <Gold.PLP.ligand.clash>
0.0000

> <Gold.PLP.ligand.torsion>
0.1192

> <Gold.PLP.Chemscore.Hbond>
1.9920

> <Gold.PLP.Chemscore.CHOScore>
0.0000

> <Gold.PLP.Chemscore.Metal>
0.0000

> <Gold.Chemscore.Hbonds>
donor molecule, donor type, donor heavy atom, donor atom, acceptor molecule, acceptor atom, score
      P1  H  7989  7998       L1    19  1.00
      P1  H  7997  8009       L1     8  0.82

> <Gold.PLP.Chemscore.Internal.Correction>
0.0536

> <Gold.Rescore>
     Score         DG    S(hbond)    S(metal)    S(lipo)     H(rot)  DE(clash)    DE(int)     intcor
     14.62     -15.56       1.74        0.00      92.06       2.54       0.12       0.82       ----

> <Gold.Chemscore.Fitness>
14.6249

> <Gold.Chemscore.DG>
-15.5647

> <Gold.Chemscore.ZeroCoef>
-5.4800

> <Gold.Chemscore.Hbond>
1.7380

> <Gold.Chemscore.Metal>
0.0000

> <Gold.Chemscore.Lipo>
92.0561

> <Gold.Chemscore.Internal_Hbond>
0.0000

> <Gold.Chemscore.DEClash>
0.1214

> <Gold.Chemscore.DEInternal>
0.8183

> <Gold.Chemscore.Rot>
2.5355

> <Gold.Chemscore.Internal.Correction>
   9.000000E+99

> <Gold.Chemscore.Hbonds>
donor molecule, donor type, donor heavy atom, donor atom, acceptor molecule, acceptor atom, score
      P1  H  7989  7998       L1    19  0.92
      P1  H  7997  8009       L1     8  0.04

> <Gold.Chemscore.Hbond.Weighted>
-5.8049

> <Gold.Chemscore.Metal.Weighted>
-0.0000

> <Gold.Chemscore.Lipo.Weighted>
-10.7706

> <Gold.Chemscore.Internal_Hbond.Weighted>
0.0000

> <Gold.Chemscore.DEClash.Weighted>
0.1214

> <Gold.Chemscore.DEInternal.Weighted>
0.8183

> <Gold.Chemscore.Rot.Weighted>
6.4908

> <Gold.Chemscore.Internal.Correction.Weighted>
   9.000000E+99

> <Gold.Protein.RotatedTorsions>
[ 6907 6896 6895 6894 ] final   99.49 input  -60.11 | X-H torsion
[ 7974 7965 7964 7962 ] final   15.56 input  175.53 | X-H torsion
[ 8008 7997 7996 7995 ] final -179.37 input   59.86 | X-H torsion
[ 10167 10162 10161 10158 ] final   82.28 input  -65.29 | X-H torsion
[ 10718 10713 10712 10709 ] final  162.29 input   66.30 | X-H torsion
[ 10763 10752 10751 10750 ] final  -46.27 input  -60.55 | X-H torsion
[ 11005 11000 10999 10996 ] final -115.32 input  -57.11 | X-H torsion

> <Gold.Protein.ActiveResidues>
 VAL166  LYS551  ARG553  GLY616  TRP617  ASP618  TYR619  PRO620  LYS621  CYS622 
 ASP623  PHE694  ASN695  SER759  ASP760  ASP761  ALA762  ILE779  LEU786  VAL792 
 PHE793  MET794  SER795  GLU796  ALA797  LYS798  CYS799  TRP800  GLU811  SER814 

> <Gold.Protein.RotatedAtoms>
  152.5391  134.0421  159.8071 H   0  0  0  0  0  0  0  0  0  0  0  0  # atno 6907 bound_to 6896
  151.0576  133.5564  159.2644 H   0  0  0  0  0  0  0  0  0  0  0  0  # atno 6908 bound_to 6896
  151.2475  135.0618  159.9103 H   0  0  0  0  0  0  0  0  0  0  0  0  # atno 6909 bound_to 6896
  146.2275  139.8876  142.8560 H   0  0  0  0  0  0  0  0  0  0  0  0  # atno 7974 bound_to 7965
  156.0297  140.1279  157.0271 H   0  0  0  0  0  0  0  0  0  0  0  0  # atno 8008 bound_to 7997
  154.4345  140.1052  156.6152 H   0  0  0  0  0  0  0  0  0  0  0  0  # atno 8009 bound_to 7997
  155.5824  140.3468  155.4546 H   0  0  0  0  0  0  0  0  0  0  0  0  # atno 8010 bound_to 7997
  139.9305  144.6155  150.8350 H   0  0  0  0  0  0  0  0  0  0  0  0  # atno 10167 bound_to 10162
  157.1247  131.0501  151.2399 H   0  0  0  0  0  0  0  0  0  0  0  0  # atno 10718 bound_to 10713
  154.0423  135.6642  153.4791 H   0  0  0  0  0  0  0  0  0  0  0  0  # atno 10763 bound_to 10752
  153.0496  135.5092  154.7830 H   0  0  0  0  0  0  0  0  0  0  0  0  # atno 10764 bound_to 10752
  154.6810  135.3045  154.9578 H   0  0  0  0  0  0  0  0  0  0  0  0  # atno 10765 bound_to 10752
  141.0495  133.9710  157.2861 H   0  0  0  0  0  0  0  0  0  0  0  0  # atno 11005 bound_to 11000
  145.2450  141.0023  143.3914 LP  0  0  0  0  0  0  0  0  0  0  0  0  # atno 17320 bound_to 7965
  144.9421  139.4177  143.6444 LP  0  0  0  0  0  0  0  0  0  0  0  0  # atno 17321 bound_to 7965
  140.7638  143.3234  151.2571 LP  0  0  0  0  0  0  0  0  0  0  0  0  # atno 17342 bound_to 10162
  139.6786  143.9894  152.2795 LP  0  0  0  0  0  0  0  0  0  0  0  0  # atno 17343 bound_to 10162
  157.4446  130.7563  149.7098 LP  0  0  0  0  0  0  0  0  0  0  0  0  # atno 17370 bound_to 10713
  155.9821  130.4013  150.3436 LP  0  0  0  0  0  0  0  0  0  0  0  0  # atno 17371 bound_to 10713
  139.9339  135.0198  156.8490 LP  0  0  0  0  0  0  0  0  0  0  0  0  # atno 17394 bound_to 11000
  140.6083  134.0107  155.7566 LP  0  0  0  0  0  0  0  0  0  0  0  0  # atno 17395 bound_to 11000

$$$$
