AV-unprocessed.smi:363|AV-procd|sdf|2424|dock7
  -GOLD-   2262022363D 1   1.00000     0.00000
 Structure written by MMmdl.
 39 40  0  0  0  0  0  0  0  0  1 V2000
  147.0594  137.2264  154.1482 C   0  0  0  0  0  0  0  0  0  0  0  0
  148.2672  137.9968  154.6669 C   0  0  0  0  0  0  0  0  0  0  0  0
  148.2788  139.4309  154.4952 C   0  0  0  0  0  0  0  0  0  0  0  0
  149.3290  140.1692  154.8878 C   0  0  0  0  0  0  0  0  0  0  0  0
  149.3324  141.6818  154.6930 C   0  0  0  0  0  0  0  0  0  0  0  0
  150.4543  139.5534  155.5020 N   0  0  0  0  0  0  0  0  0  0  0  0
  151.6053  140.3867  155.9212 C   0  0  0  0  0  0  0  0  0  0  0  0
  151.8755  140.3074  157.4434 C   0  0  1  0  0  0  0  0  0  0  0  0
  153.1220  139.6783  157.6625 O   0  0  0  0  0  0  0  0  0  0  0  0
  151.8554  141.6931  158.0719 C   0  0  0  0  0  0  0  0  0  0  0  0
  150.8474  142.6205  157.7274 C   0  0  0  0  0  0  0  0  0  0  0  0
  150.8253  143.8985  158.3189 C   0  0  0  0  0  0  0  0  0  0  0  0
  151.8098  144.2563  159.2600 C   0  0  0  0  0  0  0  0  0  0  0  0
  151.7820  145.8218  159.9851 Cl  0  0  0  0  0  0  0  0  0  0  0  0
  152.8161  143.3349  159.6090 C   0  0  0  0  0  0  0  0  0  0  0  0
  152.8391  142.0570  159.0167 C   0  0  0  0  0  0  0  0  0  0  0  0
  150.5100  138.2025  155.7338 C   0  0  0  0  0  0  0  0  0  0  0  0
  151.4759  137.7121  156.3275 O   0  0  0  0  0  0  0  0  0  0  0  0
  149.3471  137.4088  155.2488 C   0  0  0  0  0  0  0  0  0  0  0  0
  149.4105  135.9484  155.4563 C   0  0  0  0  0  0  0  0  0  0  0  0
  149.2739  135.2083  154.3474 N   0  0  0  0  0  0  0  0  0  0  0  0
  149.4986  135.3979  156.5528 O   0  0  0  0  0  0  0  0  0  0  0  0
  146.4036  137.8706  153.5620 H   0  0  0  0  0  0  0  0  0  0  0  0
  146.4752  136.8267  154.9774 H   0  0  0  0  0  0  0  0  0  0  0  0
  147.3663  136.4015  153.5044 H   0  0  0  0  0  0  0  0  0  0  0  0
  147.4301  139.9161  154.0349 H   0  0  0  0  0  0  0  0  0  0  0  0
  148.3380  142.0371  154.4208 H   0  0  0  0  0  0  0  0  0  0  0  0
  150.0093  141.9620  153.8855 H   0  0  0  0  0  0  0  0  0  0  0  0
  149.6180  142.2173  155.5964 H   0  0  0  0  0  0  0  0  0  0  0  0
  152.5148  140.1603  155.3611 H   0  0  0  0  0  0  0  0  0  0  0  0
  151.4141  141.4206  155.6372 H   0  0  0  0  0  0  0  0  0  0  0  0
  151.1158  139.6944  157.9295 H   0  0  0  0  0  0  0  0  0  0  0  0
  152.9650  138.7827  157.9203 H   0  0  0  0  0  0  0  0  0  0  0  0
  150.0862  142.3523  157.0095 H   0  0  0  0  0  0  0  0  0  0  0  0
  150.0510  144.6022  158.0505 H   0  0  0  0  0  0  0  0  0  0  0  0
  153.5711  143.6059  160.3323 H   0  0  0  0  0  0  0  0  0  0  0  0
  153.6146  141.3578  159.2936 H   0  0  0  0  0  0  0  0  0  0  0  0
  149.2886  134.2004  154.4082 H   0  0  0  0  0  0  0  0  0  0  0  0
  149.1391  135.6621  153.4556 H   0  0  0  0  0  0  0  0  0  0  0  0
  1  2  1  0  0  0  0
  1 23  1  0  0  0  0
  1 24  1  0  0  0  0
  1 25  1  0  0  0  0
  2 19  2  0  0  0  0
  2  3  1  0  0  0  0
  3  4  2  0  0  0  0
  3 26  1  0  0  0  0
  4  5  1  0  0  0  0
  4  6  1  0  0  0  0
  5 27  1  0  0  0  0
  5 28  1  0  0  0  0
  5 29  1  0  0  0  0
  6  7  1  0  0  0  0
  6 17  1  0  0  0  0
  7  8  1  0  0  0  0
  7 30  1  0  0  0  0
  7 31  1  0  0  0  0
  8  9  1  0  0  0  0
  8 10  1  0  0  0  0
  8 32  1  0  0  0  0
  9 33  1  0  0  0  0
 10 16  1  0  0  0  0
 10 11  2  0  0  0  0
 11 12  1  0  0  0  0
 11 34  1  0  0  0  0
 12 13  2  0  0  0  0
 12 35  1  0  0  0  0
 13 14  1  0  0  0  0
 13 15  1  0  0  0  0
 15 16  2  0  0  0  0
 15 36  1  0  0  0  0
 16 37  1  0  0  0  0
 17 18  2  0  0  0  0
 17 19  1  0  0  0  0
 19 20  1  0  0  0  0
 20 21  1  0  0  0  0
 20 22  2  0  0  0  0
 21 38  1  0  0  0  0
 21 39  1  0  0  0  0
M  END
> <s_m_source_file>
AV-unprocessed.smi

> <i_m_source_file_index>
363

> <i_lp_mmshare_version>
43012

> <i_f3d_flags>
0

> <s_epik_input>
W0NIM11jMVtjSF1jKFtDSDNdKW4oYyg9TyljMUMoPU8pW05IMl0pW0NIMl1bQ0BIXShbT0hdKWMyW2NIXVtjSF1jKENsKVtjSF1bY0hdMg==

> <s_epik_cmdline>
J2VwaWtfcHl0aG9uJywgJy1waCcsICc3LjAnLCAnLXRuJywgJzgnLCAnLW1hJywgJzIwMCcsICctbWV0YWxfYmluZGluZycsICctaW1hZScsICc8aW5maWxlLm1hZT4nLCAnLW9tYWUnLCAnPG91dGZpbGUubWFlPic=

> <r_lp_tautomer_probability>
1

> <r_epik_Ionization_Penalty>
3.91973e-07

> <r_epik_Ionization_Penalty_Charging>
1.35363e-07

> <r_epik_Ionization_Penalty_Neutral>
2.5661e-07

> <r_epik_State_Penalty>
-0

> <r_epik_Charging_Adjusted_Penalty>
1.35363e-07

> <i_epik_Tot_Q>
0

> <i_epik_Tot_abs_Q>
0

> <r_epik_Metal_State_Penalty>
-0

> <b_epik_Metal_Only>
0

> <s_lp_Force_Field>
OPLS_2005

> <r_lp_Energy>
39.726

> <b_lp_Chiralities_Consistent>
1

> <s_lp_Variant>
AV-unprocessed.smi:363-2

> <Gold.Version>
5.8.1

> <Gold.Id.Protein>
6NUR|6NUR_protein|mol2

> <Gold.PLP.Fitness>
40.6222

> <Gold.PLP.PLP>
-38.7950

> <Gold.PLP.part.hbond>
-2.0000

> <Gold.PLP.part.metal>
0.0000

> <Gold.PLP.part.buried>
-2.1641

> <Gold.PLP.part.nonpolar>
-33.7891

> <Gold.PLP.part.repulsive>
0.0223

> <Gold.PLP.ligand.clash>
0.0000

> <Gold.PLP.ligand.torsion>
2.2306

> <Gold.PLP.Chemscore.Hbond>
2.0000

> <Gold.PLP.Chemscore.CHOScore>
0.0000

> <Gold.PLP.Chemscore.Metal>
0.0000

> <Gold.Chemscore.Hbonds>
donor molecule, donor type, donor heavy atom, donor atom, acceptor molecule, acceptor atom, score
      L1  H    21    39       P1  7948  1.00
      P1  H  7997  8010       L1     9  1.00

> <Gold.PLP.Chemscore.Internal.Correction>
0.2885

> <Gold.Rescore>
     Score         DG    S(hbond)    S(metal)    S(lipo)     H(rot)  DE(clash)    DE(int)     intcor
     15.33     -20.03       1.95        0.00     111.23       1.95       0.08       4.62       ----

> <Gold.Chemscore.Fitness>
15.3320

> <Gold.Chemscore.DG>
-20.0272

> <Gold.Chemscore.ZeroCoef>
-5.4800

> <Gold.Chemscore.Hbond>
1.9534

> <Gold.Chemscore.Metal>
0.0000

> <Gold.Chemscore.Lipo>
111.2265

> <Gold.Chemscore.Internal_Hbond>
0.0000

> <Gold.Chemscore.DEClash>
0.0787

> <Gold.Chemscore.DEInternal>
4.6165

> <Gold.Chemscore.Rot>
1.9495

> <Gold.Chemscore.Internal.Correction>
   9.000000E+99

> <Gold.Chemscore.Hbonds>
donor molecule, donor type, donor heavy atom, donor atom, acceptor molecule, acceptor atom, score
      L1  H    21    39       P1  7948  0.65
      P1  H  7997  8010       L1     9  0.95

> <Gold.Chemscore.Hbond.Weighted>
-6.5245

> <Gold.Chemscore.Metal.Weighted>
-0.0000

> <Gold.Chemscore.Lipo.Weighted>
-13.0135

> <Gold.Chemscore.Internal_Hbond.Weighted>
0.0000

> <Gold.Chemscore.DEClash.Weighted>
0.0787

> <Gold.Chemscore.DEInternal.Weighted>
4.6165

> <Gold.Chemscore.Rot.Weighted>
4.9908

> <Gold.Chemscore.Internal.Correction.Weighted>
   9.000000E+99

> <Gold.Protein.RotatedTorsions>
[ 6907 6896 6895 6894 ] final -172.48 input  -60.11 | X-H torsion
[ 7974 7965 7964 7962 ] final   36.31 input  175.53 | X-H torsion
[ 8008 7997 7996 7995 ] final   38.01 input   59.86 | X-H torsion
[ 10167 10162 10161 10158 ] final  -61.72 input  -65.29 | X-H torsion
[ 10718 10713 10712 10709 ] final   26.07 input   66.30 | X-H torsion
[ 10763 10752 10751 10750 ] final -131.51 input  -60.55 | X-H torsion
[ 11005 11000 10999 10996 ] final  113.96 input  -57.11 | X-H torsion

> <Gold.Protein.ActiveResidues>
 VAL166  LYS551  ARG553  GLY616  TRP617  ASP618  TYR619  PRO620  LYS621  CYS622 
 ASP623  PHE694  ASN695  SER759  ASP760  ASP761  ALA762  ILE779  LEU786  VAL792 
 PHE793  MET794  SER795  GLU796  ALA797  LYS798  CYS799  TRP800  GLU811  SER814 

> <Gold.Protein.RotatedAtoms>
  151.5407  133.3433  159.2934 H   0  0  0  0  0  0  0  0  0  0  0  0  # atno 6907 bound_to 6896
  150.8537  134.7872  159.7040 H   0  0  0  0  0  0  0  0  0  0  0  0  # atno 6908 bound_to 6896
  152.4576  134.5264  159.9849 H   0  0  0  0  0  0  0  0  0  0  0  0  # atno 6909 bound_to 6896
  146.1221  139.6034  142.9283 H   0  0  0  0  0  0  0  0  0  0  0  0  # atno 7974 bound_to 7965
  155.2131  140.3325  155.4326 H   0  0  0  0  0  0  0  0  0  0  0  0  # atno 8008 bound_to 7997
  156.2362  140.1873  156.7160 H   0  0  0  0  0  0  0  0  0  0  0  0  # atno 8009 bound_to 7997
  154.6064  140.0615  156.9423 H   0  0  0  0  0  0  0  0  0  0  0  0  # atno 8010 bound_to 7997
  140.5987  143.2356  151.5977 H   0  0  0  0  0  0  0  0  0  0  0  0  # atno 10167 bound_to 10162
  157.2019  130.6894  149.6192 H   0  0  0  0  0  0  0  0  0  0  0  0  # atno 10718 bound_to 10713
  154.8750  135.3828  154.4258 H   0  0  0  0  0  0  0  0  0  0  0  0  # atno 10763 bound_to 10752
  153.4957  135.7030  153.5864 H   0  0  0  0  0  0  0  0  0  0  0  0  # atno 10764 bound_to 10752
  153.4218  135.3899  155.2083 H   0  0  0  0  0  0  0  0  0  0  0  0  # atno 10765 bound_to 10752
  139.8967  134.9559  156.6818 H   0  0  0  0  0  0  0  0  0  0  0  0  # atno 11005 bound_to 11000
  145.5444  141.0418  143.2312 LP  0  0  0  0  0  0  0  0  0  0  0  0  # atno 17320 bound_to 7965
  144.7607  139.6965  143.7235 LP  0  0  0  0  0  0  0  0  0  0  0  0  # atno 17321 bound_to 7965
  139.5276  144.3012  152.1072 LP  0  0  0  0  0  0  0  0  0  0  0  0  # atno 17342 bound_to 10162
  140.2189  144.4487  150.6351 LP  0  0  0  0  0  0  0  0  0  0  0  0  # atno 17343 bound_to 10162
  155.9699  130.4580  150.5982 LP  0  0  0  0  0  0  0  0  0  0  0  0  # atno 17370 bound_to 10713
  157.3758  131.0773  151.1519 LP  0  0  0  0  0  0  0  0  0  0  0  0  # atno 17371 bound_to 10713
  140.7293  133.9073  155.8200 LP  0  0  0  0  0  0  0  0  0  0  0  0  # atno 17394 bound_to 11000
  141.0166  134.0947  157.4165 LP  0  0  0  0  0  0  0  0  0  0  0  0  # atno 17395 bound_to 11000

$$$$
