AV-unprocessed.smi:1545|AV-procd|sdf|6217|dock8
  -GOLD-   22720 6393D 1   1.00000     0.00000
 Structure written by MMmdl.
 41 43  0  0  0  0  0  0  0  0  1 V2000
  152.4756  135.5662  156.7914 O   0  0  0  0  0  0  0  0  0  0  0  0
  151.6547  136.6946  156.5812 C   0  0  0  0  0  0  0  0  0  0  0  0
  152.4322  137.7892  155.8356 C   0  0  0  0  0  0  0  0  0  0  0  0
  151.7063  139.0456  155.7989 N   0  0  0  0  0  0  0  0  0  0  0  0
  150.5366  139.4289  155.1528 C   0  0  0  0  0  0  0  0  0  0  0  0
  149.8141  138.6232  154.3770 N   0  0  0  0  0  0  0  0  0  0  0  0
  148.7833  139.4511  153.9736 C   0  0  0  0  0  0  0  0  0  0  0  0
  147.6783  139.1957  153.1303 C   0  0  0  0  0  0  0  0  0  0  0  0
  146.7417  140.2128  152.8525 C   0  0  0  0  0  0  0  0  0  0  0  0
  146.8956  141.4977  153.4126 C   0  0  0  0  0  0  0  0  0  0  0  0
  147.9880  141.7739  154.2571 C   0  0  0  0  0  0  0  0  0  0  0  0
  148.9201  140.7552  154.5325 C   0  0  0  0  0  0  0  0  0  0  0  0
  150.0799  140.6950  155.2998 N   0  0  0  0  0  0  0  0  0  0  0  0
  150.6662  141.7774  156.0793 C   0  0  0  0  0  0  0  0  0  0  0  0
  150.2419  141.7347  157.5608 C   0  0  1  0  0  0  0  0  0  0  0  0
  150.1908  140.3934  158.0072 O   0  0  0  0  0  0  0  0  0  0  0  0
  151.1560  142.5896  158.4239 C   0  0  0  0  0  0  0  0  0  0  0  0
  151.2809  143.9760  158.1836 C   0  0  0  0  0  0  0  0  0  0  0  0
  152.1251  144.7631  158.9908 C   0  0  0  0  0  0  0  0  0  0  0  0
  152.8484  144.1689  160.0428 C   0  0  0  0  0  0  0  0  0  0  0  0
  152.7248  142.7882  160.2893 C   0  0  0  0  0  0  0  0  0  0  0  0
  153.4173  142.2169  161.3032 F   0  0  0  0  0  0  0  0  0  0  0  0
  151.8800  142.0008  159.4831 C   0  0  0  0  0  0  0  0  0  0  0  0
  151.9227  134.8091  156.9096 H   0  0  0  0  0  0  0  0  0  0  0  0
  150.8092  136.3712  155.9738 H   0  0  0  0  0  0  0  0  0  0  0  0
  151.2496  137.0569  157.5268 H   0  0  0  0  0  0  0  0  0  0  0  0
  153.4245  137.9338  156.2646 H   0  0  0  0  0  0  0  0  0  0  0  0
  152.5815  137.4799  154.8011 H   0  0  0  0  0  0  0  0  0  0  0  0
  152.1637  139.7881  156.3072 H   0  0  0  0  0  0  0  0  0  0  0  0
  147.5522  138.2157  152.6947 H   0  0  0  0  0  0  0  0  0  0  0  0
  145.9018  140.0067  152.2052 H   0  0  0  0  0  0  0  0  0  0  0  0
  146.1749  142.2716  153.1924 H   0  0  0  0  0  0  0  0  0  0  0  0
  148.1104  142.7581  154.6844 H   0  0  0  0  0  0  0  0  0  0  0  0
  151.7520  141.7226  155.9912 H   0  0  0  0  0  0  0  0  0  0  0  0
  150.3748  142.7271  155.6288 H   0  0  0  0  0  0  0  0  0  0  0  0
  149.2279  142.1275  157.6464 H   0  0  0  0  0  0  0  0  0  0  0  0
  150.2440  139.8247  157.2545 H   0  0  0  0  0  0  0  0  0  0  0  0
  150.7272  144.4401  157.3804 H   0  0  0  0  0  0  0  0  0  0  0  0
  152.2173  145.8228  158.8031 H   0  0  0  0  0  0  0  0  0  0  0  0
  153.4963  144.7723  160.6616 H   0  0  0  0  0  0  0  0  0  0  0  0
  151.7898  140.9430  159.6821 H   0  0  0  0  0  0  0  0  0  0  0  0
  1  2  1  0  0  0  0
  1 24  1  0  0  0  0
  2  3  1  0  0  0  0
  2 25  1  0  0  0  0
  2 26  1  0  0  0  0
  3  4  1  0  0  0  0
  3 27  1  0  0  0  0
  3 28  1  0  0  0  0
  4  5  1  0  0  0  0
  4 29  1  0  0  0  0
  5 13  1  0  0  0  0
  5  6  2  0  0  0  0
  6  7  1  0  0  0  0
  7 12  2  0  0  0  0
  7  8  1  0  0  0  0
  8  9  2  0  0  0  0
  8 30  1  0  0  0  0
  9 10  1  0  0  0  0
  9 31  1  0  0  0  0
 10 11  2  0  0  0  0
 10 32  1  0  0  0  0
 11 12  1  0  0  0  0
 11 33  1  0  0  0  0
 12 13  1  0  0  0  0
 13 14  1  0  0  0  0
 14 15  1  0  0  0  0
 14 34  1  0  0  0  0
 14 35  1  0  0  0  0
 15 16  1  0  0  0  0
 15 17  1  0  0  0  0
 15 36  1  0  0  0  0
 16 37  1  0  0  0  0
 17 23  1  0  0  0  0
 17 18  2  0  0  0  0
 18 19  1  0  0  0  0
 18 38  1  0  0  0  0
 19 20  2  0  0  0  0
 19 39  1  0  0  0  0
 20 21  1  0  0  0  0
 20 40  1  0  0  0  0
 21 22  1  0  0  0  0
 21 23  2  0  0  0  0
 23 41  1  0  0  0  0
M  END
> <s_m_source_file>
AV-unprocessed.smi

> <i_m_source_file_index>
1545

> <i_lp_mmshare_version>
43012

> <i_f3d_flags>
0

> <s_epik_input>
W09IXVtDSDJdW0NIMl1bTkhdYyhuMSluKGMoYzEyKVtjSF1bY0hdW2NIXVtjSF0yKVtDSDJdW0NASF0oW09IXSljM1tjSF1bY0hdW2NIXWMoRilbY0hdMw==

> <s_epik_cmdline>
J2VwaWtfcHl0aG9uJywgJy1waCcsICc3LjAnLCAnLXRuJywgJzgnLCAnLW1hJywgJzIwMCcsICctbWV0YWxfYmluZGluZycsICctaW1hZScsICc8aW5maWxlLm1hZT4nLCAnLW9tYWUnLCAnPG91dGZpbGUubWFlPic=

> <r_epik_Ionization_Penalty>
1.30972

> <r_epik_Ionization_Penalty_Charging>
0

> <r_epik_Ionization_Penalty_Neutral>
1.30972

> <r_epik_State_Penalty>
1.38438

> <r_epik_Charging_Adjusted_Penalty>
1.38438

> <i_epik_Tot_Q>
0

> <i_epik_Tot_abs_Q>
0

> <r_epik_Metal_State_Penalty>
0.00551145

> <b_epik_Metal_Only>
0

> <s_lp_Force_Field>
OPLS_2005

> <r_lp_Energy>
10.2352

> <b_lp_Chiralities_Consistent>
1

> <s_lp_Variant>
AV-unprocessed.smi:1545-4

> <Gold.Version>
5.8.1

> <Gold.Id.Protein>
6NUR|6NUR_protein|mol2

> <Gold.PLP.Fitness>
48.5879

> <Gold.PLP.PLP>
-46.7161

> <Gold.PLP.part.hbond>
-1.0000

> <Gold.PLP.part.metal>
0.0000

> <Gold.PLP.part.buried>
-2.2932

> <Gold.PLP.part.nonpolar>
-43.4623

> <Gold.PLP.part.repulsive>
0.3325

> <Gold.PLP.ligand.clash>
0.0000

> <Gold.PLP.ligand.torsion>
0.5881

> <Gold.PLP.Chemscore.Hbond>
1.0000

> <Gold.PLP.Chemscore.CHOScore>
0.0000

> <Gold.PLP.Chemscore.Metal>
0.0000

> <Gold.Chemscore.Hbonds>
donor molecule, donor type, donor heavy atom, donor atom, acceptor molecule, acceptor atom, score
      P1  H 10752 10765       L1     1  1.00

> <Gold.PLP.Chemscore.Internal.Correction>
0.0480

> <Gold.Rescore>
     Score         DG    S(hbond)    S(metal)    S(lipo)     H(rot)  DE(clash)    DE(int)     intcor
     14.76     -15.66       0.80        0.00     131.49       3.08       0.34       0.55       ----

> <Gold.Chemscore.Fitness>
14.7626

> <Gold.Chemscore.DG>
-15.6563

> <Gold.Chemscore.ZeroCoef>
-5.4800

> <Gold.Chemscore.Hbond>
0.8022

> <Gold.Chemscore.Metal>
0.0000

> <Gold.Chemscore.Lipo>
131.4943

> <Gold.Chemscore.Internal_Hbond>
0.0000

> <Gold.Chemscore.DEClash>
0.3412

> <Gold.Chemscore.DEInternal>
0.5525

> <Gold.Chemscore.Rot>
3.0812

> <Gold.Chemscore.Internal.Correction>
   9.000000E+99

> <Gold.Chemscore.Hbonds>
donor molecule, donor type, donor heavy atom, donor atom, acceptor molecule, acceptor atom, score
      P1  H 10752 10765       L1     1  0.24

> <Gold.Chemscore.Hbond.Weighted>
-2.6793

> <Gold.Chemscore.Metal.Weighted>
-0.0000

> <Gold.Chemscore.Lipo.Weighted>
-15.3848

> <Gold.Chemscore.Internal_Hbond.Weighted>
0.0000

> <Gold.Chemscore.DEClash.Weighted>
0.3412

> <Gold.Chemscore.DEInternal.Weighted>
0.5525

> <Gold.Chemscore.Rot.Weighted>
7.8878

> <Gold.Chemscore.Internal.Correction.Weighted>
   9.000000E+99

> <Gold.Protein.RotatedTorsions>
[ 6907 6896 6895 6894 ] final   66.96 input  -60.11 | X-H torsion
[ 7974 7965 7964 7962 ] final  -21.19 input  175.53 | X-H torsion
[ 8008 7997 7996 7995 ] final   72.62 input   59.86 | X-H torsion
[ 10167 10162 10161 10158 ] final -149.08 input  -65.29 | X-H torsion
[ 10718 10713 10712 10709 ] final   -3.58 input   66.30 | X-H torsion
[ 10763 10752 10751 10750 ] final -136.39 input  -60.55 | X-H torsion
[ 11005 11000 10999 10996 ] final   81.50 input  -57.11 | X-H torsion

> <Gold.Protein.ActiveResidues>
 VAL166  LYS551  ARG553  GLY616  TRP617  ASP618  TYR619  PRO620  LYS621  CYS622 
 ASP623  PHE694  ASN695  SER759  ASP760  ASP761  ALA762  ILE779  LEU786  VAL792 
 PHE793  MET794  SER795  GLU796  ALA797  LYS798  CYS799  TRP800  GLU811  SER814 

> <Gold.Protein.RotatedAtoms>
  152.4518  134.5377  159.9829 H   0  0  0  0  0  0  0  0  0  0  0  0  # atno 6907 bound_to 6896
  151.5447  133.3421  159.2950 H   0  0  0  0  0  0  0  0  0  0  0  0  # atno 6908 bound_to 6896
  150.8450  134.7787  159.7026 H   0  0  0  0  0  0  0  0  0  0  0  0  # atno 6909 bound_to 6896
  146.1747  140.4306  142.8518 H   0  0  0  0  0  0  0  0  0  0  0  0  # atno 7974 bound_to 7965
  155.7715  140.3484  155.5249 H   0  0  0  0  0  0  0  0  0  0  0  0  # atno 8008 bound_to 7997
  155.8817  140.1003  157.1501 H   0  0  0  0  0  0  0  0  0  0  0  0  # atno 8009 bound_to 7997
  154.4025  140.1321  156.4192 H   0  0  0  0  0  0  0  0  0  0  0  0  # atno 8010 bound_to 7997
  139.7474  143.8570  152.2578 H   0  0  0  0  0  0  0  0  0  0  0  0  # atno 10167 bound_to 10162
  156.7740  130.5309  149.5762 H   0  0  0  0  0  0  0  0  0  0  0  0  # atno 10718 bound_to 10713
  154.8684  135.3674  154.5053 H   0  0  0  0  0  0  0  0  0  0  0  0  # atno 10763 bound_to 10752
  153.5691  135.7021  153.5517 H   0  0  0  0  0  0  0  0  0  0  0  0  # atno 10764 bound_to 10752
  153.3558  135.4060  155.1644 H   0  0  0  0  0  0  0  0  0  0  0  0  # atno 10765 bound_to 10752
  139.9096  134.8001  156.2049 H   0  0  0  0  0  0  0  0  0  0  0  0  # atno 11005 bound_to 11000
  144.8217  140.6561  143.6348 LP  0  0  0  0  0  0  0  0  0  0  0  0  # atno 17320 bound_to 7965
  145.4245  139.1558  143.4056 LP  0  0  0  0  0  0  0  0  0  0  0  0  # atno 17321 bound_to 7965
  139.8538  144.7151  150.9182 LP  0  0  0  0  0  0  0  0  0  0  0  0  # atno 17342 bound_to 10162
  140.7794  143.3876  151.1366 LP  0  0  0  0  0  0  0  0  0  0  0  0  # atno 17343 bound_to 10162
  156.1260  130.6144  151.0264 LP  0  0  0  0  0  0  0  0  0  0  0  0  # atno 17370 bound_to 10713
  157.6678  131.0868  150.7687 LP  0  0  0  0  0  0  0  0  0  0  0  0  # atno 17371 bound_to 10713
  141.0501  133.6893  156.1756 LP  0  0  0  0  0  0  0  0  0  0  0  0  # atno 17394 bound_to 11000
  140.6823  134.4754  157.5589 LP  0  0  0  0  0  0  0  0  0  0  0  0  # atno 17395 bound_to 11000

$$$$
