AV-unprocessed.smi:3330|AV-procd|sdf|12813|dock8
  -GOLD-   2272019183D 1   1.00000     0.00000
 Structure written by MMmdl.
 37 38  0  0  0  0  0  0  0  0  2 V2000
  154.0169  139.7534  160.3873 C   0  0  0  0  0  0  0  0  0  0  0  0
  153.0515  140.9276  160.1302 C   0  0  2  0  0  0  0  0  0  0  0  0
  152.9078  141.1030  158.6873 N   0  0  0  0  0  0  0  0  0  0  0  0
  152.0767  140.0730  158.0836 C   0  0  0  0  0  0  0  0  0  0  0  0
  151.8568  140.4029  156.5998 C   0  0  0  0  0  0  0  0  0  0  0  0
  151.5777  139.1895  155.8269 N   0  0  0  0  0  0  0  0  0  0  0  0
  150.6397  139.1011  154.8789 C   0  0  0  0  0  0  0  0  0  0  0  0
  149.8608  139.9765  154.5001 O   0  0  0  0  0  0  0  0  0  0  0  0
  150.6938  137.7004  154.3146 C   0  0  0  0  0  0  0  0  0  0  0  0
  151.7674  137.1019  155.0752 N   0  5  0  0  0  0  0  0  0  0  0  0
  152.2466  138.0259  155.9410 C   0  0  0  0  0  0  0  0  0  0  0  0
  153.1696  137.8744  156.7410 O   0  0  0  0  0  0  0  0  0  0  0  0
  153.5454  142.2656  160.7451 C   0  0  2  0  0  0  0  0  0  0  0  0
  153.6284  142.2344  162.2837 C   0  0  0  0  0  0  0  0  0  0  0  0
  152.7124  143.3848  160.3151 N   0  0  0  0  0  0  0  0  0  0  0  0
  152.0355  144.2937  161.1026 C   0  0  0  0  0  0  0  0  0  0  0  0
  151.4123  145.1759  160.2673 C   0  0  0  0  0  0  0  0  0  0  0  0
  151.7759  144.7247  158.9682 C   0  0  0  0  0  0  0  0  0  0  0  0
  152.5521  143.6539  158.9989 N   0  0  0  0  0  0  0  0  0  0  0  0
  154.0931  139.5269  161.4504 H   0  0  0  0  0  0  0  0  0  0  0  0
  155.0196  139.9761  160.0210 H   0  0  0  0  0  0  0  0  0  0  0  0
  153.6829  138.8372  159.9010 H   0  0  0  0  0  0  0  0  0  0  0  0
  152.0780  140.6915  160.5630 H   0  0  0  0  0  0  0  0  0  0  0  0
  153.8147  141.1313  158.2439 H   0  0  0  0  0  0  0  0  0  0  0  0
  152.5508  139.0967  158.1829 H   0  0  0  0  0  0  0  0  0  0  0  0
  151.1170  140.0269  158.6006 H   0  0  0  0  0  0  0  0  0  0  0  0
  151.0318  141.1094  156.4912 H   0  0  0  0  0  0  0  0  0  0  0  0
  152.7343  140.9089  156.1933 H   0  0  0  0  0  0  0  0  0  0  0  0
  149.7340  137.2039  154.4608 H   0  0  0  0  0  0  0  0  0  0  0  0
  150.8941  137.7397  153.2433 H   0  0  0  0  0  0  0  0  0  0  0  0
  154.5533  142.4607  160.3747 H   0  0  0  0  0  0  0  0  0  0  0  0
  154.3872  141.5340  162.6313 H   0  0  0  0  0  0  0  0  0  0  0  0
  152.6768  141.9459  162.7313 H   0  0  0  0  0  0  0  0  0  0  0  0
  153.8976  143.2145  162.6792 H   0  0  0  0  0  0  0  0  0  0  0  0
  152.0573  144.2398  162.1811 H   0  0  0  0  0  0  0  0  0  0  0  0
  150.7959  146.0187  160.5427 H   0  0  0  0  0  0  0  0  0  0  0  0
  151.5013  145.1410  158.0102 H   0  0  0  0  0  0  0  0  0  0  0  0
  1  2  1  0  0  0  0
  1 20  1  0  0  0  0
  1 21  1  0  0  0  0
  1 22  1  0  0  0  0
  2  3  1  0  0  0  0
  2 13  1  0  0  0  0
  2 23  1  0  0  0  0
  3  4  1  0  0  0  0
  3 24  1  0  0  0  0
  4  5  1  0  0  0  0
  4 25  1  0  0  0  0
  4 26  1  0  0  0  0
  5  6  1  0  0  0  0
  5 27  1  0  0  0  0
  5 28  1  0  0  0  0
  6 11  1  0  0  0  0
  6  7  1  0  0  0  0
  7  8  2  0  0  0  0
  7  9  1  0  0  0  0
  9 10  1  0  0  0  0
  9 29  1  0  0  0  0
  9 30  1  0  0  0  0
 10 11  1  0  0  0  0
 11 12  2  0  0  0  0
 13 14  1  0  0  0  0
 13 15  1  0  0  0  0
 13 31  1  0  0  0  0
 14 32  1  0  0  0  0
 14 33  1  0  0  0  0
 14 34  1  0  0  0  0
 15 19  1  0  0  0  0
 15 16  1  0  0  0  0
 16 17  2  0  0  0  0
 16 35  1  0  0  0  0
 17 18  1  0  0  0  0
 17 36  1  0  0  0  0
 18 19  2  0  0  0  0
 18 37  1  0  0  0  0
M  CHG  1  10  -1
M  END
> <s_m_source_file>
AV-unprocessed.smi

> <i_m_source_file_index>
3330

> <i_lp_mmshare_version>
43012

> <i_f3d_flags>
0

> <s_epik_input>
bjFbY0hdW2NIXVtjSF1uMVtDQEBIXShbQ0gzXSlbQ0BIXShbQ0gzXSlbTkhdW0NIMl1bQ0gyXU4yQyg9TylbQ0gyXVtOSF1DMj1P

> <s_epik_cmdline>
J2VwaWtfcHl0aG9uJywgJy1waCcsICc3LjAnLCAnLXRuJywgJzgnLCAnLW1hJywgJzIwMCcsICctbWV0YWxfYmluZGluZycsICctaW1hZScsICc8aW5maWxlLm1hZT4nLCAnLW9tYWUnLCAnPG91dGZpbGUubWFlPic=

> <r_lp_tautomer_probability>
1

> <r_epik_Ionization_Penalty>
8.77477

> <r_epik_Ionization_Penalty_Charging>
6.28461

> <r_epik_Ionization_Penalty_Neutral>
2.49016

> <r_epik_State_Penalty>
8.73376

> <r_epik_Charging_Adjusted_Penalty>
15.0184

> <i_epik_Tot_Q>
-1

> <i_epik_Tot_abs_Q>
1

> <r_epik_Metal_State_Penalty>
4.73175

> <b_epik_Metal_Only>
1

> <s_lp_Force_Field>
OPLS_2005

> <r_lp_Energy>
21.1742

> <b_lp_Chiralities_Consistent>
1

> <s_lp_Variant>
AV-unprocessed.smi:3330-13

> <Gold.Version>
5.8.1

> <Gold.Id.Protein>
6NUR|6NUR_protein|mol2

> <Gold.PLP.Fitness>
53.7039

> <Gold.PLP.PLP>
-45.7655

> <Gold.PLP.part.hbond>
-2.3963

> <Gold.PLP.part.metal>
0.0000

> <Gold.PLP.part.buried>
-4.1592

> <Gold.PLP.part.nonpolar>
-39.5195

> <Gold.PLP.part.repulsive>
0.3639

> <Gold.PLP.ligand.clash>
0.0000

> <Gold.PLP.ligand.torsion>
0.5675

> <Gold.PLP.Chemscore.Hbond>
3.0000

> <Gold.PLP.Chemscore.CHOScore>
0.0000

> <Gold.PLP.Chemscore.Metal>
0.0000

> <Gold.Chemscore.Hbonds>
donor molecule, donor type, donor heavy atom, donor atom, acceptor molecule, acceptor atom, score
      P1  H  7989  7998       L1     8  0.16
      P1  H 10752 10764       L1    10  2.00

> <Gold.PLP.Chemscore.Internal.Correction>
0.0734

> <Gold.Rescore>
     Score         DG    S(hbond)    S(metal)    S(lipo)     H(rot)  DE(clash)    DE(int)     intcor
     12.14     -15.38       1.62        0.00      93.35       2.52       0.12       3.12       ----

> <Gold.Chemscore.Fitness>
12.1390

> <Gold.Chemscore.DG>
-15.3843

> <Gold.Chemscore.ZeroCoef>
-5.4800

> <Gold.Chemscore.Hbond>
1.6238

> <Gold.Chemscore.Metal>
0.0000

> <Gold.Chemscore.Lipo>
93.3484

> <Gold.Chemscore.Internal_Hbond>
0.0000

> <Gold.Chemscore.DEClash>
0.1214

> <Gold.Chemscore.DEInternal>
3.1239

> <Gold.Chemscore.Rot>
2.5160

> <Gold.Chemscore.Internal.Correction>
   9.000000E+99

> <Gold.Chemscore.Hbonds>
donor molecule, donor type, donor heavy atom, donor atom, acceptor molecule, acceptor atom, score
      P1  H 10752 10764       L1    10  0.92

> <Gold.Chemscore.Hbond.Weighted>
-5.4236

> <Gold.Chemscore.Metal.Weighted>
-0.0000

> <Gold.Chemscore.Lipo.Weighted>
-10.9218

> <Gold.Chemscore.Internal_Hbond.Weighted>
0.0000

> <Gold.Chemscore.DEClash.Weighted>
0.1214

> <Gold.Chemscore.DEInternal.Weighted>
3.1239

> <Gold.Chemscore.Rot.Weighted>
6.4410

> <Gold.Chemscore.Internal.Correction.Weighted>
   9.000000E+99

> <Gold.Protein.RotatedTorsions>
[ 6907 6896 6895 6894 ] final -179.84 input  -60.11 | X-H torsion
[ 7974 7965 7964 7962 ] final -174.11 input  175.53 | X-H torsion
[ 8008 7997 7996 7995 ] final  -19.03 input   59.86 | X-H torsion
[ 10167 10162 10161 10158 ] final  -48.17 input  -65.29 | X-H torsion
[ 10718 10713 10712 10709 ] final -101.38 input   66.30 | X-H torsion
[ 10763 10752 10751 10750 ] final  -63.25 input  -60.55 | X-H torsion
[ 11005 11000 10999 10996 ] final -158.77 input  -57.11 | X-H torsion

> <Gold.Protein.ActiveResidues>
 VAL166  LYS551  ARG553  GLY616  TRP617  ASP618  TYR619  PRO620  LYS621  CYS622 
 ASP623  PHE694  ASN695  SER759  ASP760  ASP761  ALA762  ILE779  LEU786  VAL792 
 PHE793  MET794  SER795  GLU796  ALA797  LYS798  CYS799  TRP800  GLU811  SER814 

> <Gold.Protein.RotatedAtoms>
  151.6600  133.3317  159.3171 H   0  0  0  0  0  0  0  0  0  0  0  0  # atno 6907 bound_to 6896
  150.7918  134.6952  159.6528 H   0  0  0  0  0  0  0  0  0  0  0  0  # atno 6908 bound_to 6896
  152.3999  134.6307  160.0126 H   0  0  0  0  0  0  0  0  0  0  0  0  # atno 6909 bound_to 6896
  144.7134  140.1521  143.6383 H   0  0  0  0  0  0  0  0  0  0  0  0  # atno 7974 bound_to 7965
  154.4864  140.2100  155.9645 H   0  0  0  0  0  0  0  0  0  0  0  0  # atno 8008 bound_to 7997
  156.1243  140.3208  155.8222 H   0  0  0  0  0  0  0  0  0  0  0  0  # atno 8009 bound_to 7997
  155.4412  140.0510  157.3001 H   0  0  0  0  0  0  0  0  0  0  0  0  # atno 8010 bound_to 7997
  140.6743  143.2751  151.4033 H   0  0  0  0  0  0  0  0  0  0  0  0  # atno 10167 bound_to 10162
  156.0193  130.5371  150.6955 H   0  0  0  0  0  0  0  0  0  0  0  0  # atno 10718 bound_to 10713
  154.3122  135.6213  153.5471 H   0  0  0  0  0  0  0  0  0  0  0  0  # atno 10763 bound_to 10752
  152.9828  135.5704  154.5164 H   0  0  0  0  0  0  0  0  0  0  0  0  # atno 10764 bound_to 10752
  154.4816  135.2863  155.1543 H   0  0  0  0  0  0  0  0  0  0  0  0  # atno 10765 bound_to 10752
  140.6500  134.4461  157.5235 H   0  0  0  0  0  0  0  0  0  0  0  0  # atno 11005 bound_to 11000
  145.9107  139.2485  143.1439 LP  0  0  0  0  0  0  0  0  0  0  0  0  # atno 17320 bound_to 7965
  145.9719  140.8753  143.0158 LP  0  0  0  0  0  0  0  0  0  0  0  0  # atno 17321 bound_to 7965
  139.6026  144.1263  152.2215 LP  0  0  0  0  0  0  0  0  0  0  0  0  # atno 17342 bound_to 10162
  140.0652  144.5824  150.7233 LP  0  0  0  0  0  0  0  0  0  0  0  0  # atno 17343 bound_to 10162
  157.4627  131.0885  151.0728 LP  0  0  0  0  0  0  0  0  0  0  0  0  # atno 17370 bound_to 10713
  157.1212  130.6062  149.5505 LP  0  0  0  0  0  0  0  0  0  0  0  0  # atno 17371 bound_to 10713
  139.9049  134.8471  156.1745 LP  0  0  0  0  0  0  0  0  0  0  0  0  # atno 17394 bound_to 11000
  141.0544  133.6872  156.1832 LP  0  0  0  0  0  0  0  0  0  0  0  0  # atno 17395 bound_to 11000

$$$$
