AV-unprocessed.smi:2739|AV-procd|sdf|10553|dock1
  -GOLD-   2272015 03D 1   1.00000     0.00000
 Structure written by MMmdl.
 35 35  0  0  0  0  0  0  0  0  1 V2000
  153.0748  143.4681  159.3474 C   0  0  0  0  0  0  0  0  0  0  0  0
  152.4469  144.0735  158.0836 C   0  0  0  0  0  0  0  0  0  0  0  0
  150.9176  144.2343  158.1687 C   0  0  1  0  0  0  0  0  0  0  0  0
  150.5130  145.7067  158.3444 C   0  0  0  0  0  0  0  0  0  0  0  0
  150.2859  143.6860  156.9715 N   0  0  0  0  0  0  0  0  0  0  0  0
  150.3758  142.4130  156.5540 C   0  0  0  0  0  0  0  0  0  0  0  0
  151.0362  141.5522  157.1347 O   0  0  0  0  0  0  0  0  0  0  0  0
  149.5994  142.0549  155.2853 C   0  0  0  0  0  0  0  0  0  0  0  0
  149.8075  140.6660  154.9152 N   0  0  0  0  0  0  0  0  0  0  0  0
  148.8717  139.7336  154.5216 C   0  0  0  0  0  0  0  0  0  0  0  0
  149.5362  138.5626  154.2963 C   0  0  0  0  0  0  0  0  0  0  0  0
  150.8975  138.8765  154.5798 C   0  0  0  0  0  0  0  0  0  0  0  0
  152.1031  137.9748  154.5220 C   0  0  1  0  0  0  0  0  0  0  0  0
  153.0508  138.2303  155.7019 C   0  0  0  0  0  0  0  0  0  0  0  0
  151.7470  136.6077  154.5281 O   0  0  0  0  0  0  0  0  0  0  0  0
  151.0510  140.1404  154.9474 N   0  0  0  0  0  0  0  0  0  0  0  0
  154.1596  143.4163  159.2527 H   0  0  0  0  0  0  0  0  0  0  0  0
  152.7127  142.4565  159.5319 H   0  0  0  0  0  0  0  0  0  0  0  0
  152.8470  144.0714  160.2265 H   0  0  0  0  0  0  0  0  0  0  0  0
  152.8997  145.0497  157.9055 H   0  0  0  0  0  0  0  0  0  0  0  0
  152.7070  143.4577  157.2214 H   0  0  0  0  0  0  0  0  0  0  0  0
  150.5723  143.6795  159.0431 H   0  0  0  0  0  0  0  0  0  0  0  0
  150.9623  146.1321  159.2420 H   0  0  0  0  0  0  0  0  0  0  0  0
  149.4316  145.8113  158.4393 H   0  0  0  0  0  0  0  0  0  0  0  0
  150.8321  146.3105  157.4940 H   0  0  0  0  0  0  0  0  0  0  0  0
  149.7218  144.3215  156.4264 H   0  0  0  0  0  0  0  0  0  0  0  0
  148.5336  142.2249  155.4434 H   0  0  0  0  0  0  0  0  0  0  0  0
  149.9086  142.6970  154.4589 H   0  0  0  0  0  0  0  0  0  0  0  0
  147.8223  139.9767  154.4414 H   0  0  0  0  0  0  0  0  0  0  0  0
  149.1131  137.6203  153.9812 H   0  0  0  0  0  0  0  0  0  0  0  0
  152.6470  138.1557  153.5939 H   0  0  0  0  0  0  0  0  0  0  0  0
  153.3996  139.2636  155.7080 H   0  0  0  0  0  0  0  0  0  0  0  0
  153.9299  137.5876  155.6478 H   0  0  0  0  0  0  0  0  0  0  0  0
  152.5568  138.0414  156.6558 H   0  0  0  0  0  0  0  0  0  0  0  0
  151.3181  136.4077  153.7101 H   0  0  0  0  0  0  0  0  0  0  0  0
  1  2  1  0  0  0  0
  1 17  1  0  0  0  0
  1 18  1  0  0  0  0
  1 19  1  0  0  0  0
  2  3  1  0  0  0  0
  2 20  1  0  0  0  0
  2 21  1  0  0  0  0
  3  4  1  0  0  0  0
  3  5  1  0  0  0  0
  3 22  1  0  0  0  0
  4 23  1  0  0  0  0
  4 24  1  0  0  0  0
  4 25  1  0  0  0  0
  5  6  1  0  0  0  0
  5 26  1  0  0  0  0
  6  7  2  0  0  0  0
  6  8  1  0  0  0  0
  8  9  1  0  0  0  0
  8 27  1  0  0  0  0
  8 28  1  0  0  0  0
  9 16  1  0  0  0  0
  9 10  1  0  0  0  0
 10 11  2  0  0  0  0
 10 29  1  0  0  0  0
 11 12  1  0  0  0  0
 11 30  1  0  0  0  0
 12 13  1  0  0  0  0
 12 16  2  0  0  0  0
 13 14  1  0  0  0  0
 13 15  1  0  0  0  0
 13 31  1  0  0  0  0
 14 32  1  0  0  0  0
 14 33  1  0  0  0  0
 14 34  1  0  0  0  0
 15 35  1  0  0  0  0
M  END
> <s_m_source_file>
AV-unprocessed.smi

> <i_m_source_file_index>
2739

> <i_lp_mmshare_version>
43012

> <i_f3d_flags>
0

> <s_epik_input>
W0NIM11bQ0gyXVtDQEhdKFtDSDNdKVtOSF1DKD1PKVtDSDJdbjFbY0hdW2NIXWMobjEpW0NASF0oW0NIM10pW09IXQ==

> <s_epik_cmdline>
J2VwaWtfcHl0aG9uJywgJy1waCcsICc3LjAnLCAnLXRuJywgJzgnLCAnLW1hJywgJzIwMCcsICctbWV0YWxfYmluZGluZycsICctaW1hZScsICc8aW5maWxlLm1hZT4nLCAnLW9tYWUnLCAnPG91dGZpbGUubWFlPic=

> <r_lp_tautomer_probability>
1

> <r_epik_Ionization_Penalty>
5.22246e-06

> <r_epik_Ionization_Penalty_Charging>
0

> <r_epik_Ionization_Penalty_Neutral>
5.22246e-06

> <r_epik_State_Penalty>
-0

> <r_epik_Charging_Adjusted_Penalty>
0

> <i_epik_Tot_Q>
0

> <i_epik_Tot_abs_Q>
0

> <r_epik_Metal_State_Penalty>
-0

> <b_epik_Metal_Only>
0

> <s_lp_Force_Field>
OPLS_2005

> <r_lp_Energy>
1.19937

> <b_lp_Chiralities_Consistent>
1

> <s_lp_Variant>
AV-unprocessed.smi:2739-4

> <Gold.Version>
5.8.1

> <Gold.Id.Protein>
6NUR|6NUR_protein|mol2

> <Gold.PLP.Fitness>
44.6857

> <Gold.PLP.PLP>
-36.0429

> <Gold.PLP.part.hbond>
-4.0000

> <Gold.PLP.part.metal>
0.0000

> <Gold.PLP.part.buried>
-0.4030

> <Gold.PLP.part.nonpolar>
-31.6622

> <Gold.PLP.part.repulsive>
0.0819

> <Gold.PLP.ligand.clash>
0.0000

> <Gold.PLP.ligand.torsion>
1.3980

> <Gold.PLP.Chemscore.Hbond>
3.8000

> <Gold.PLP.Chemscore.CHOScore>
0.0000

> <Gold.PLP.Chemscore.Metal>
0.0000

> <Gold.Chemscore.Hbonds>
donor molecule, donor type, donor heavy atom, donor atom, acceptor molecule, acceptor atom, score
      L1  H     5    26       P1  8028  0.13
      L1  H    15    35       P1  7949  0.42
      P1  H  7989  7998       L1    16  0.85
      P1  H 10752 10765       L1    15  0.75

> <Gold.PLP.Chemscore.Internal.Correction>
0.0387

> <Gold.Rescore>
     Score         DG    S(hbond)    S(metal)    S(lipo)     H(rot)  DE(clash)    DE(int)     intcor
     15.55     -19.94       2.75        0.00      96.30       2.34       1.52       2.86       ----

> <Gold.Chemscore.Fitness>
15.5549

> <Gold.Chemscore.DG>
-19.9362

> <Gold.Chemscore.ZeroCoef>
-5.4800

> <Gold.Chemscore.Hbond>
2.7521

> <Gold.Chemscore.Metal>
0.0000

> <Gold.Chemscore.Lipo>
96.2982

> <Gold.Chemscore.Internal_Hbond>
0.0000

> <Gold.Chemscore.DEClash>
1.5181

> <Gold.Chemscore.DEInternal>
2.8632

> <Gold.Chemscore.Rot>
2.3448

> <Gold.Chemscore.Internal.Correction>
   9.000000E+99

> <Gold.Chemscore.Hbonds>
donor molecule, donor type, donor heavy atom, donor atom, acceptor molecule, acceptor atom, score
      L1  H     5    26       P1  8028  0.15
      L1  H    15    35       P1  7949  0.28
      P1  H  7989  7998       L1    16  0.05
      P1  H 10752 10765       L1    15  0.07

> <Gold.Chemscore.Hbond.Weighted>
-9.1921

> <Gold.Chemscore.Metal.Weighted>
-0.0000

> <Gold.Chemscore.Lipo.Weighted>
-11.2669

> <Gold.Chemscore.Internal_Hbond.Weighted>
0.0000

> <Gold.Chemscore.DEClash.Weighted>
1.5181

> <Gold.Chemscore.DEInternal.Weighted>
2.8632

> <Gold.Chemscore.Rot.Weighted>
6.0027

> <Gold.Chemscore.Internal.Correction.Weighted>
   9.000000E+99

> <Gold.Protein.RotatedTorsions>
[ 6907 6896 6895 6894 ] final   28.72 input  -60.11 | X-H torsion
[ 7974 7965 7964 7962 ] final  112.76 input  175.53 | X-H torsion
[ 8008 7997 7996 7995 ] final  -66.86 input   59.86 | X-H torsion
[ 10167 10162 10161 10158 ] final  103.27 input  -65.29 | X-H torsion
[ 10718 10713 10712 10709 ] final -121.64 input   66.30 | X-H torsion
[ 10763 10752 10751 10750 ] final  162.26 input  -60.55 | X-H torsion
[ 11005 11000 10999 10996 ] final -150.49 input  -57.11 | X-H torsion

> <Gold.Protein.ActiveResidues>
 VAL166  LYS551  ARG553  GLY616  TRP617  ASP618  TYR619  PRO620  LYS621  CYS622 
 ASP623  PHE694  ASN695  SER759  ASP760  ASP761  ALA762  ILE779  LEU786  VAL792 
 PHE793  MET794  SER795  GLU796  ALA797  LYS798  CYS799  TRP800  GLU811  SER814 

> <Gold.Protein.RotatedAtoms>
  152.0210  134.9822  160.0570 H   0  0  0  0  0  0  0  0  0  0  0  0  # atno 6907 bound_to 6896
  152.1337  133.4418  159.4741 H   0  0  0  0  0  0  0  0  0  0  0  0  # atno 6908 bound_to 6896
  150.6858  134.2308  159.4477 H   0  0  0  0  0  0  0  0  0  0  0  0  # atno 6909 bound_to 6896
  145.2255  139.2843  143.4195 H   0  0  0  0  0  0  0  0  0  0  0  0  # atno 7974 bound_to 7965
  154.4762  140.0904  156.7267 H   0  0  0  0  0  0  0  0  0  0  0  0  # atno 8008 bound_to 7997
  155.4590  140.3460  155.4292 H   0  0  0  0  0  0  0  0  0  0  0  0  # atno 8009 bound_to 7997
  156.1120  140.1450  156.9314 H   0  0  0  0  0  0  0  0  0  0  0  0  # atno 8010 bound_to 7997
  139.7277  144.7043  151.0771 H   0  0  0  0  0  0  0  0  0  0  0  0  # atno 10167 bound_to 10162
  156.1353  130.6426  150.9686 H   0  0  0  0  0  0  0  0  0  0  0  0  # atno 10718 bound_to 10713
  154.2757  135.2764  155.2719 H   0  0  0  0  0  0  0  0  0  0  0  0  # atno 10763 bound_to 10752
  154.5263  135.5742  153.6725 H   0  0  0  0  0  0  0  0  0  0  0  0  # atno 10764 bound_to 10752
  152.9937  135.6216  154.2914 H   0  0  0  0  0  0  0  0  0  0  0  0  # atno 10765 bound_to 10752
  140.7396  134.3529  157.5150 H   0  0  0  0  0  0  0  0  0  0  0  0  # atno 11005 bound_to 11000
  146.3366  140.2574  142.8600 LP  0  0  0  0  0  0  0  0  0  0  0  0  # atno 17320 bound_to 7965
  144.9725  140.8382  143.5446 LP  0  0  0  0  0  0  0  0  0  0  0  0  # atno 17321 bound_to 7965
  140.7766  143.5083  150.9684 LP  0  0  0  0  0  0  0  0  0  0  0  0  # atno 17342 bound_to 10162
  139.8771  143.7119  152.3161 LP  0  0  0  0  0  0  0  0  0  0  0  0  # atno 17343 bound_to 10162
  157.6526  131.0894  150.8017 LP  0  0  0  0  0  0  0  0  0  0  0  0  # atno 17370 bound_to 10713
  156.8097  130.4948  149.5357 LP  0  0  0  0  0  0  0  0  0  0  0  0  # atno 17371 bound_to 10713
  139.8809  134.9072  156.2940 LP  0  0  0  0  0  0  0  0  0  0  0  0  # atno 17394 bound_to 11000
  140.9848  133.7245  156.0726 LP  0  0  0  0  0  0  0  0  0  0  0  0  # atno 17395 bound_to 11000

$$$$
