AV-unprocessed.smi:2871|AV-procd|sdf|11033|dock5
  -GOLD-   2272015493D 1   1.00000     0.00000
 Structure written by MMmdl.
 38 40  0  0  0  0  0  0  0  0  1 V2000
  153.5350  143.0062  162.9964 C   0  0  0  0  0  0  0  0  0  0  0  0
  152.8692  142.9560  161.7011 N   0  0  0  0  0  0  0  0  0  0  0  0
  151.9541  144.0211  161.3045 C   0  0  0  0  0  0  0  0  0  0  0  0
  153.1393  141.8967  160.8067 C   0  0  0  0  0  0  0  0  0  0  0  0
  154.2943  141.0859  160.9280 C   0  0  0  0  0  0  0  0  0  0  0  0
  154.4596  140.0574  159.9730 C   0  0  0  0  0  0  0  0  0  0  0  0
  155.6571  139.1195  159.9941 C   0  0  0  0  0  0  0  0  0  0  0  0
  156.8071  139.7876  159.8942 F   0  0  0  0  0  0  0  0  0  0  0  0
  155.6676  138.4296  161.1347 F   0  0  0  0  0  0  0  0  0  0  0  0
  155.5759  138.2643  158.9747 F   0  0  0  0  0  0  0  0  0  0  0  0
  153.5569  139.8571  158.9869 N   0  0  0  0  0  0  0  0  0  0  0  0
  152.5029  140.6716  158.9553 C   0  0  0  0  0  0  0  0  0  0  0  0
  151.6028  140.4423  157.9312 N   0  0  0  0  0  0  0  0  0  0  0  0
  151.5465  139.2202  157.1386 C   0  0  1  0  0  0  0  0  0  0  0  0
  150.1230  138.6724  156.9768 C   0  0  0  0  0  0  0  0  0  0  0  0
  149.9874  138.5914  155.4513 C   0  0  2  0  0  0  0  0  0  0  0  0
  150.8840  137.5041  154.8433 C   0  0  0  0  0  0  0  0  0  0  0  0
  152.2703  138.1355  154.9693 C   0  0  0  0  0  0  0  0  0  0  0  0
  151.9512  139.4605  155.6746 C   0  0  1  0  0  0  0  0  0  0  0  0
  150.6988  139.7581  155.0780 O   0  0  0  0  0  0  0  0  0  0  0  0
  152.2515  141.6690  159.8088 N   0  0  0  0  0  0  0  0  0  0  0  0
  153.2999  142.1176  163.5834 H   0  0  0  0  0  0  0  0  0  0  0  0
  153.2197  143.8767  163.5713 H   0  0  0  0  0  0  0  0  0  0  0  0
  154.6166  143.0645  162.8692 H   0  0  0  0  0  0  0  0  0  0  0  0
  150.9596  143.6182  161.1108 H   0  0  0  0  0  0  0  0  0  0  0  0
  152.3095  144.5152  160.3996 H   0  0  0  0  0  0  0  0  0  0  0  0
  151.8625  144.7780  162.0835 H   0  0  0  0  0  0  0  0  0  0  0  0
  155.0244  141.2352  161.7086 H   0  0  0  0  0  0  0  0  0  0  0  0
  150.8935  141.1434  157.7740 H   0  0  0  0  0  0  0  0  0  0  0  0
  152.2078  138.4795  157.5905 H   0  0  0  0  0  0  0  0  0  0  0  0
  149.9887  137.7045  157.4608 H   0  0  0  0  0  0  0  0  0  0  0  0
  149.3784  139.3587  157.3834 H   0  0  0  0  0  0  0  0  0  0  0  0
  148.9555  138.5629  155.1006 H   0  0  0  0  0  0  0  0  0  0  0  0
  150.8002  136.5550  155.3740 H   0  0  0  0  0  0  0  0  0  0  0  0
  150.6353  137.3341  153.7953 H   0  0  0  0  0  0  0  0  0  0  0  0
  152.9686  137.5180  155.5350 H   0  0  0  0  0  0  0  0  0  0  0  0
  152.6979  138.3173  153.9826 H   0  0  0  0  0  0  0  0  0  0  0  0
  152.7167  140.2246  155.5338 H   0  0  0  0  0  0  0  0  0  0  0  0
  1  2  1  0  0  0  0
  1 22  1  0  0  0  0
  1 23  1  0  0  0  0
  1 24  1  0  0  0  0
  2  3  1  0  0  0  0
  2  4  1  0  0  0  0
  3 25  1  0  0  0  0
  3 26  1  0  0  0  0
  3 27  1  0  0  0  0
  4 21  1  0  0  0  0
  4  5  2  0  0  0  0
  5  6  1  0  0  0  0
  5 28  1  0  0  0  0
  6  7  1  0  0  0  0
  6 11  2  0  0  0  0
  7  8  1  0  0  0  0
  7  9  1  0  0  0  0
  7 10  1  0  0  0  0
 11 12  1  0  0  0  0
 12 13  1  0  0  0  0
 12 21  2  0  0  0  0
 13 14  1  0  0  0  0
 13 29  1  0  0  0  0
 14 19  1  0  0  0  0
 14 15  1  0  0  0  0
 14 30  1  0  0  0  0
 15 16  1  0  0  0  0
 15 31  1  0  0  0  0
 15 32  1  0  0  0  0
 16 20  1  0  0  0  0
 16 17  1  0  0  0  0
 16 33  1  0  0  0  0
 17 18  1  0  0  0  0
 17 34  1  0  0  0  0
 17 35  1  0  0  0  0
 18 19  1  0  0  0  0
 18 36  1  0  0  0  0
 18 37  1  0  0  0  0
 19 20  1  0  0  0  0
 19 38  1  0  0  0  0
M  END
> <s_m_source_file>
AV-unprocessed.smi

> <i_m_source_file_index>
2871

> <i_lp_mmshare_version>
43012

> <i_f3d_flags>
0

> <s_epik_input>
W0NIM11OKFtDSDNdKWMxW2NIXWMoQyhGKShGKUYpbmMobjEpW05IXVtDQEhdKFtDSDJdW0NAQEhdMjMpW0NAQEhdKE8zKVtDSDJdW0NIMl0y

> <s_epik_cmdline>
J2VwaWtfcHl0aG9uJywgJy1waCcsICc3LjAnLCAnLXRuJywgJzgnLCAnLW1hJywgJzIwMCcsICctbWV0YWxfYmluZGluZycsICctaW1hZScsICc8aW5maWxlLm1hZT4nLCAnLW9tYWUnLCAnPG91dGZpbGUubWFlPic=

> <r_lp_tautomer_probability>
1

> <r_epik_Ionization_Penalty>
0.00695968

> <r_epik_Ionization_Penalty_Charging>
0

> <r_epik_Ionization_Penalty_Neutral>
0.00695968

> <r_epik_State_Penalty>
0.0050343

> <r_epik_Charging_Adjusted_Penalty>
0.0050343

> <i_epik_Tot_Q>
0

> <i_epik_Tot_abs_Q>
0

> <r_epik_Metal_State_Penalty>
-0

> <b_epik_Metal_Only>
0

> <s_lp_Force_Field>
OPLS_2005

> <r_lp_Energy>
32.5699

> <b_lp_Chiralities_Consistent>
1

> <s_lp_Variant>
AV-unprocessed.smi:2871-4

> <Gold.Version>
5.8.1

> <Gold.Id.Protein>
6NUR|6NUR_protein|mol2

> <Gold.PLP.Fitness>
48.5765

> <Gold.PLP.PLP>
-43.2104

> <Gold.PLP.part.hbond>
-2.0000

> <Gold.PLP.part.metal>
0.0000

> <Gold.PLP.part.buried>
-4.5696

> <Gold.PLP.part.nonpolar>
-36.2149

> <Gold.PLP.part.repulsive>
0.1394

> <Gold.PLP.ligand.clash>
0.0000

> <Gold.PLP.ligand.torsion>
0.3304

> <Gold.PLP.Chemscore.Hbond>
2.0000

> <Gold.PLP.Chemscore.CHOScore>
0.0000

> <Gold.PLP.Chemscore.Metal>
0.0000

> <Gold.Chemscore.Hbonds>
donor molecule, donor type, donor heavy atom, donor atom, acceptor molecule, acceptor atom, score
      P1  H  7989  7998       L1    20  0.43
      P1  H  7997  8009       L1    11  0.53

> <Gold.PLP.Chemscore.Internal.Correction>
0.0270

> <Gold.Rescore>
     Score         DG    S(hbond)    S(metal)    S(lipo)     H(rot)  DE(clash)    DE(int)     intcor
     17.57     -18.03       1.50        0.00      86.25       1.00       0.01       0.44       ----

> <Gold.Chemscore.Fitness>
17.5733

> <Gold.Chemscore.DG>
-18.0261

> <Gold.Chemscore.ZeroCoef>
-5.4800

> <Gold.Chemscore.Hbond>
1.5015

> <Gold.Chemscore.Metal>
0.0000

> <Gold.Chemscore.Lipo>
86.2480

> <Gold.Chemscore.Internal_Hbond>
0.0000

> <Gold.Chemscore.DEClash>
0.0081

> <Gold.Chemscore.DEInternal>
0.4447

> <Gold.Chemscore.Rot>
1.0000

> <Gold.Chemscore.Internal.Correction>
   9.000000E+99

> <Gold.Chemscore.Hbonds>
donor molecule, donor type, donor heavy atom, donor atom, acceptor molecule, acceptor atom, score
      P1  H  7989  7998       L1    20  0.03
      P1  H  7997  8009       L1    11  0.09

> <Gold.Chemscore.Hbond.Weighted>
-5.0151

> <Gold.Chemscore.Metal.Weighted>
-0.0000

> <Gold.Chemscore.Lipo.Weighted>
-10.0910

> <Gold.Chemscore.Internal_Hbond.Weighted>
0.0000

> <Gold.Chemscore.DEClash.Weighted>
0.0081

> <Gold.Chemscore.DEInternal.Weighted>
0.4447

> <Gold.Chemscore.Rot.Weighted>
2.5600

> <Gold.Chemscore.Internal.Correction.Weighted>
   9.000000E+99

> <Gold.Protein.RotatedTorsions>
[ 6907 6896 6895 6894 ] final   18.80 input  -60.11 | X-H torsion
[ 7974 7965 7964 7962 ] final  130.28 input  175.53 | X-H torsion
[ 8008 7997 7996 7995 ] final  129.55 input   59.86 | X-H torsion
[ 10167 10162 10161 10158 ] final -136.72 input  -65.29 | X-H torsion
[ 10718 10713 10712 10709 ] final   53.90 input   66.30 | X-H torsion
[ 10763 10752 10751 10750 ] final  -38.19 input  -60.55 | X-H torsion
[ 11005 11000 10999 10996 ] final   -1.14 input  -57.11 | X-H torsion

> <Gold.Protein.ActiveResidues>
 VAL166  LYS551  ARG553  GLY616  TRP617  ASP618  TYR619  PRO620  LYS621  CYS622 
 ASP623  PHE694  ASN695  SER759  ASP760  ASP761  ALA762  ILE779  LEU786  VAL792 
 PHE793  MET794  SER795  GLU796  ALA797  LYS798  CYS799  TRP800  GLU811  SER814 

> <Gold.Protein.RotatedAtoms>
  151.8709  135.0489  160.0478 H   0  0  0  0  0  0  0  0  0  0  0  0  # atno 6907 bound_to 6896
  152.2589  133.5275  159.5378 H   0  0  0  0  0  0  0  0  0  0  0  0  # atno 6908 bound_to 6896
  150.7109  134.0774  159.3928 H   0  0  0  0  0  0  0  0  0  0  0  0  # atno 6909 bound_to 6896
  145.0196  139.4144  143.5204 H   0  0  0  0  0  0  0  0  0  0  0  0  # atno 7974 bound_to 7965
  156.2938  140.2618  156.2617 H   0  0  0  0  0  0  0  0  0  0  0  0  # atno 8008 bound_to 7997
  154.9782  140.0390  157.2284 H   0  0  0  0  0  0  0  0  0  0  0  0  # atno 8009 bound_to 7997
  154.7796  140.2793  155.6079 H   0  0  0  0  0  0  0  0  0  0  0  0  # atno 8010 bound_to 7997
  139.8649  143.7030  152.2646 H   0  0  0  0  0  0  0  0  0  0  0  0  # atno 10167 bound_to 10162
  157.5209  130.8564  149.8557 H   0  0  0  0  0  0  0  0  0  0  0  0  # atno 10718 bound_to 10713
  153.9087  135.6794  153.4752 H   0  0  0  0  0  0  0  0  0  0  0  0  # atno 10763 bound_to 10752
  153.1090  135.4792  154.8999 H   0  0  0  0  0  0  0  0  0  0  0  0  # atno 10764 bound_to 10752
  154.7538  135.3192  154.8463 H   0  0  0  0  0  0  0  0  0  0  0  0  # atno 10765 bound_to 10752
  140.6440  133.9464  155.8342 H   0  0  0  0  0  0  0  0  0  0  0  0  # atno 11005 bound_to 11000
  146.3483  139.9686  142.8709 LP  0  0  0  0  0  0  0  0  0  0  0  0  # atno 17320 bound_to 7965
  145.1913  140.9813  143.4209 LP  0  0  0  0  0  0  0  0  0  0  0  0  # atno 17321 bound_to 7965
  139.7338  144.7576  151.0759 LP  0  0  0  0  0  0  0  0  0  0  0  0  # atno 17342 bound_to 10162
  140.7769  143.5055  150.9717 LP  0  0  0  0  0  0  0  0  0  0  0  0  # atno 17343 bound_to 10162
  156.0352  130.3753  150.1578 LP  0  0  0  0  0  0  0  0  0  0  0  0  # atno 17370 bound_to 10713
  156.9766  130.9851  151.3447 LP  0  0  0  0  0  0  0  0  0  0  0  0  # atno 17371 bound_to 10713
  141.0585  134.0380  157.3690 LP  0  0  0  0  0  0  0  0  0  0  0  0  # atno 17394 bound_to 11000
  139.9069  135.0182  156.7527 LP  0  0  0  0  0  0  0  0  0  0  0  0  # atno 17395 bound_to 11000

$$$$
