AV-unprocessed.smi:2458|AV-procd|sdf|9710|dock5
  -GOLD-   2272013353D 1   1.00000     0.00000
 Structure written by MMmdl.
 47 48  0  0  0  0  0  0  0  0  1 V2000
  150.6543  141.7333  157.8184 C   0  0  0  0  0  0  0  0  0  0  0  0
  150.3088  140.7008  156.7274 C   0  0  0  0  0  0  0  0  0  0  0  0
  151.5501  140.4885  155.8388 C   0  0  0  0  0  0  0  0  0  0  0  0
  149.0414  141.0907  155.9102 C   0  0  1  0  0  0  0  0  0  0  0  0
  149.1725  140.7329  154.4096 C   0  0  0  0  0  0  0  0  0  0  0  0
  147.9174  141.1043  153.5966 C   0  0  0  0  0  0  0  0  0  0  0  0
  146.6071  140.5205  154.1664 C   0  0  1  0  0  0  0  0  0  0  0  0
  146.4240  139.0238  153.8507 C   0  0  0  0  0  0  0  0  0  0  0  0
  147.2126  138.1823  154.2808 O   0  0  0  0  0  0  0  0  0  0  0  0
  145.3677  138.7040  153.0891 N   0  0  0  0  0  0  0  0  0  0  0  0
  145.0172  137.3477  152.6885 C   0  0  0  0  0  0  0  0  0  0  0  0
  146.0989  136.7463  151.7740 C   0  0  2  0  0  0  0  0  0  0  0  0
  146.4032  137.6808  150.7571 O   0  0  0  0  0  0  0  0  0  0  0  0
  145.6496  135.4162  151.1904 C   0  0  0  0  0  0  0  0  0  0  0  0
  146.4039  134.2380  151.3809 C   0  0  0  0  0  0  0  0  0  0  0  0
  145.9457  133.0356  150.8091 C   0  0  0  0  0  0  0  0  0  0  0  0
  144.7491  133.0600  150.0659 C   0  0  0  0  0  0  0  0  0  0  0  0
  144.0194  134.1795  149.8735 N   0  0  0  0  0  0  0  0  0  0  0  0
  144.4659  135.3284  150.4255 C   0  0  0  0  0  0  0  0  0  0  0  0
  146.4985  140.8276  155.6738 C   0  0  0  0  0  0  0  0  0  0  0  0
  147.7550  140.4411  156.4748 C   0  0  0  0  0  0  0  0  0  0  0  0
  148.9220  142.1730  155.9807 H   0  0  0  0  0  0  0  0  0  0  0  0
  145.7861  141.0443  153.6734 H   0  0  0  0  0  0  0  0  0  0  0  0
  150.7655  142.7332  157.3975 H   0  0  0  0  0  0  0  0  0  0  0  0
  151.5902  141.4806  158.3175 H   0  0  0  0  0  0  0  0  0  0  0  0
  149.8941  141.7760  158.5976 H   0  0  0  0  0  0  0  0  0  0  0  0
  150.1082  139.7542  157.2312 H   0  0  0  0  0  0  0  0  0  0  0  0
  151.7570  141.3684  155.2290 H   0  0  0  0  0  0  0  0  0  0  0  0
  151.4361  139.6337  155.1733 H   0  0  0  0  0  0  0  0  0  0  0  0
  152.4362  140.2900  156.4423 H   0  0  0  0  0  0  0  0  0  0  0  0
  150.0144  141.2607  153.9637 H   0  0  0  0  0  0  0  0  0  0  0  0
  149.3929  139.6711  154.3007 H   0  0  0  0  0  0  0  0  0  0  0  0
  147.8310  142.1913  153.5668 H   0  0  0  0  0  0  0  0  0  0  0  0
  148.0488  140.7911  152.5598 H   0  0  0  0  0  0  0  0  0  0  0  0
  144.7594  139.4469  152.7762 H   0  0  0  0  0  0  0  0  0  0  0  0
  144.9373  136.7521  153.5995 H   0  0  0  0  0  0  0  0  0  0  0  0
  144.0385  137.3215  152.2055 H   0  0  0  0  0  0  0  0  0  0  0  0
  147.0106  136.5760  152.3489 H   0  0  0  0  0  0  0  0  0  0  0  0
  145.6051  138.1162  150.4999 H   0  0  0  0  0  0  0  0  0  0  0  0
  147.3200  134.2537  151.9532 H   0  0  0  0  0  0  0  0  0  0  0  0
  146.4988  132.1166  150.9358 H   0  0  0  0  0  0  0  0  0  0  0  0
  144.3688  132.1563  149.6131 H   0  0  0  0  0  0  0  0  0  0  0  0
  143.8582  136.2037  150.2486 H   0  0  0  0  0  0  0  0  0  0  0  0
  146.3160  141.8953  155.8020 H   0  0  0  0  0  0  0  0  0  0  0  0
  145.6270  140.3268  156.0978 H   0  0  0  0  0  0  0  0  0  0  0  0
  147.8670  139.3570  156.5003 H   0  0  0  0  0  0  0  0  0  0  0  0
  147.5900  140.7513  157.5056 H   0  0  0  0  0  0  0  0  0  0  0  0
  1  2  1  0  0  0  0
  1 24  1  0  0  0  0
  1 25  1  0  0  0  0
  1 26  1  0  0  0  0
  2  3  1  0  0  0  0
  2  4  1  0  0  0  0
  2 27  1  0  0  0  0
  3 28  1  0  0  0  0
  3 29  1  0  0  0  0
  3 30  1  0  0  0  0
  4 22  1  0  0  0  0
  4 21  1  0  0  0  0
  4  5  1  0  0  0  0
  5  6  1  0  0  0  0
  5 31  1  0  0  0  0
  5 32  1  0  0  0  0
  6  7  1  0  0  0  0
  6 33  1  0  0  0  0
  6 34  1  0  0  0  0
  7 23  1  0  0  0  0
  7  8  1  0  0  0  0
  7 20  1  0  0  0  0
  8  9  2  0  0  0  0
  8 10  1  0  0  0  0
 10 11  1  0  0  0  0
 10 35  1  0  0  0  0
 11 12  1  0  0  0  0
 11 36  1  0  0  0  0
 11 37  1  0  0  0  0
 12 13  1  0  0  0  0
 12 14  1  0  0  0  0
 12 38  1  0  0  0  0
 13 39  1  0  0  0  0
 14 19  1  0  0  0  0
 14 15  2  0  0  0  0
 15 16  1  0  0  0  0
 15 40  1  0  0  0  0
 16 17  2  0  0  0  0
 16 41  1  0  0  0  0
 17 18  1  0  0  0  0
 17 42  1  0  0  0  0
 18 19  2  0  0  0  0
 19 43  1  0  0  0  0
 20 21  1  0  0  0  0
 20 44  1  0  0  0  0
 20 45  1  0  0  0  0
 21 46  1  0  0  0  0
 21 47  1  0  0  0  0
M  END
> <s_m_source_file>
AV-unprocessed.smi

> <i_m_source_file_index>
2458

> <i_lp_mmshare_version>
43012

> <i_f3d_flags>
0

> <s_epik_input>
W0NIM11bQ0hdKFtDSDNdKVtDQEhdMVtDSDJdW0NIMl1bQ0BASF0oW0NIMl1bQ0gyXTEpQyg9TylbTkhdW0NIMl1bQ0BIXShbT0hdKWMyW2NIXVtjSF1bY0hdbltjSF0y

> <s_epik_cmdline>
J2VwaWtfcHl0aG9uJywgJy1waCcsICc3LjAnLCAnLXRuJywgJzgnLCAnLW1hJywgJzIwMCcsICctbWV0YWxfYmluZGluZycsICctaW1hZScsICc8aW5maWxlLm1hZT4nLCAnLW9tYWUnLCAnPG91dGZpbGUubWFlPic=

> <r_epik_Ionization_Penalty>
0.00169206

> <r_epik_Ionization_Penalty_Charging>
0

> <r_epik_Ionization_Penalty_Neutral>
0.00169206

> <r_epik_State_Penalty>
0.0011427

> <r_epik_Charging_Adjusted_Penalty>
0.0011427

> <i_epik_Tot_Q>
0

> <i_epik_Tot_abs_Q>
0

> <r_epik_Metal_State_Penalty>
-0

> <b_epik_Metal_Only>
0

> <s_lp_Force_Field>
OPLS_2005

> <r_lp_Energy>
16.378

> <b_lp_Chiralities_Consistent>
1

> <s_lp_Variant>
AV-unprocessed.smi:2458-3

> <Gold.Version>
5.8.1

> <Gold.Id.Protein>
6NUR|6NUR_protein|mol2

> <Gold.PLP.Fitness>
44.7362

> <Gold.PLP.PLP>
-34.9124

> <Gold.PLP.part.hbond>
-4.0000

> <Gold.PLP.part.metal>
0.0000

> <Gold.PLP.part.buried>
-2.4542

> <Gold.PLP.part.nonpolar>
-29.3371

> <Gold.PLP.part.repulsive>
0.3500

> <Gold.PLP.ligand.clash>
0.0000

> <Gold.PLP.ligand.torsion>
1.1444

> <Gold.PLP.Chemscore.Hbond>
3.0000

> <Gold.PLP.Chemscore.CHOScore>
1.0000

> <Gold.PLP.Chemscore.Metal>
0.0000

> <Gold.Chemscore.Hbonds>
donor molecule, donor type, donor heavy atom, donor atom, acceptor molecule, acceptor atom, score
      L1  H    10    35       P1 10175  0.96
      L1  H    13    39       P1 10171  1.00
      P1  H  7954  7966       L1    13  1.00
      L1  C    19    43       P1 10171  1.00

> <Gold.PLP.Chemscore.Internal.Correction>
0.1124

> <Gold.Rescore>
     Score         DG    S(hbond)    S(metal)    S(lipo)     H(rot)  DE(clash)    DE(int)     intcor
     18.16     -20.42       2.92        0.00      89.48       2.06       1.40       0.86       ----

> <Gold.Chemscore.Fitness>
18.1565

> <Gold.Chemscore.DG>
-20.4177

> <Gold.Chemscore.ZeroCoef>
-5.4800

> <Gold.Chemscore.Hbond>
2.9160

> <Gold.Chemscore.Metal>
0.0000

> <Gold.Chemscore.Lipo>
89.4773

> <Gold.Chemscore.Internal_Hbond>
0.0000

> <Gold.Chemscore.DEClash>
1.3995

> <Gold.Chemscore.DEInternal>
0.8618

> <Gold.Chemscore.Rot>
2.0588

> <Gold.Chemscore.Internal.Correction>
   9.000000E+99

> <Gold.Chemscore.Hbonds>
donor molecule, donor type, donor heavy atom, donor atom, acceptor molecule, acceptor atom, score
      L1  H    10    35       P1 10175  0.91
      L1  H    13    39       P1 10171  1.00
      P1  H  7954  7966       L1    13  0.95

> <Gold.Chemscore.Hbond.Weighted>
-9.7394

> <Gold.Chemscore.Metal.Weighted>
-0.0000

> <Gold.Chemscore.Lipo.Weighted>
-10.4688

> <Gold.Chemscore.Internal_Hbond.Weighted>
0.0000

> <Gold.Chemscore.DEClash.Weighted>
1.3995

> <Gold.Chemscore.DEInternal.Weighted>
0.8618

> <Gold.Chemscore.Rot.Weighted>
5.2705

> <Gold.Chemscore.Internal.Correction.Weighted>
   9.000000E+99

> <Gold.Protein.RotatedTorsions>
[ 6907 6896 6895 6894 ] final  -63.16 input  -60.11 | X-H torsion
[ 7974 7965 7964 7962 ] final -177.09 input  175.53 | X-H torsion
[ 8008 7997 7996 7995 ] final    5.91 input   59.86 | X-H torsion
[ 10167 10162 10161 10158 ] final -136.93 input  -65.29 | X-H torsion
[ 10718 10713 10712 10709 ] final   52.82 input   66.30 | X-H torsion
[ 10763 10752 10751 10750 ] final  111.01 input  -60.55 | X-H torsion
[ 11005 11000 10999 10996 ] final -170.94 input  -57.11 | X-H torsion

> <Gold.Protein.ActiveResidues>
 VAL166  LYS551  ARG553  GLY616  TRP617  ASP618  TYR619  PRO620  LYS621  CYS622 
 ASP623  PHE694  ASN695  SER759  ASP760  ASP761  ALA762  ILE779  LEU786  VAL792 
 PHE793  MET794  SER795  GLU796  ALA797  LYS798  CYS799  TRP800  GLU811  SER814 

> <Gold.Protein.RotatedAtoms>
  150.7667  134.6473  159.6268 H   0  0  0  0  0  0  0  0  0  0  0  0  # atno 6907 bound_to 6896
  152.3702  134.6742  160.0187 H   0  0  0  0  0  0  0  0  0  0  0  0  # atno 6908 bound_to 6896
  151.7104  133.3276  159.3325 H   0  0  0  0  0  0  0  0  0  0  0  0  # atno 6909 bound_to 6896
  144.7127  140.1072  143.6413 H   0  0  0  0  0  0  0  0  0  0  0  0  # atno 7974 bound_to 7965
  154.7343  140.2736  155.6428 H   0  0  0  0  0  0  0  0  0  0  0  0  # atno 8008 bound_to 7997
  156.2858  140.2709  156.1978 H   0  0  0  0  0  0  0  0  0  0  0  0  # atno 8009 bound_to 7997
  155.0340  140.0371  157.2474 H   0  0  0  0  0  0  0  0  0  0  0  0  # atno 8010 bound_to 7997
  139.8628  143.7055  152.2648 H   0  0  0  0  0  0  0  0  0  0  0  0  # atno 10167 bound_to 10162
  157.5110  130.8501  149.8435 H   0  0  0  0  0  0  0  0  0  0  0  0  # atno 10718 bound_to 10713
  153.4571  135.3730  155.2317 H   0  0  0  0  0  0  0  0  0  0  0  0  # atno 10763 bound_to 10752
  154.8757  135.3900  154.3968 H   0  0  0  0  0  0  0  0  0  0  0  0  # atno 10764 bound_to 10752
  153.4536  135.7086  153.6157 H   0  0  0  0  0  0  0  0  0  0  0  0  # atno 10765 bound_to 10752
  140.5138  134.5775  157.5027 H   0  0  0  0  0  0  0  0  0  0  0  0  # atno 11005 bound_to 11000
  145.9486  139.2718  143.1225 LP  0  0  0  0  0  0  0  0  0  0  0  0  # atno 17320 bound_to 7965
  145.9347  140.9023  143.0338 LP  0  0  0  0  0  0  0  0  0  0  0  0  # atno 17321 bound_to 7965
  139.7357  144.7572  151.0731 LP  0  0  0  0  0  0  0  0  0  0  0  0  # atno 17342 bound_to 10162
  140.7772  143.5033  150.9744 LP  0  0  0  0  0  0  0  0  0  0  0  0  # atno 17343 bound_to 10162
  156.0289  130.3771  150.1744 LP  0  0  0  0  0  0  0  0  0  0  0  0  # atno 17370 bound_to 10713
  156.9933  130.9900  151.3409 LP  0  0  0  0  0  0  0  0  0  0  0  0  # atno 17371 bound_to 10713
  139.9644  134.7398  156.0170 LP  0  0  0  0  0  0  0  0  0  0  0  0  # atno 17394 bound_to 11000
  141.1371  133.6572  156.3624 LP  0  0  0  0  0  0  0  0  0  0  0  0  # atno 17395 bound_to 11000

$$$$
