AV-unprocessed.smi:148|AV-procd|sdf|1225|dock10
  -GOLD-   2262018423D 1   1.00000     0.00000
 Structure written by MMmdl.
 63 67  0  0  0  0  0  0  0  0  1 V2000
  146.8518  137.6429  162.0986 O   0  0  0  0  0  0  0  0  0  0  0  0
  146.6971  136.2671  162.3844 C   0  0  0  0  0  0  0  0  0  0  0  0
  147.1225  135.3835  161.1887 C   0  0  1  0  0  0  0  0  0  0  0  0
  148.5281  135.8271  160.7033 C   0  0  0  0  0  0  0  0  0  0  0  0
  148.5217  136.6950  159.5396 N   0  0  0  0  0  0  0  0  0  0  0  0
  147.4382  137.3715  159.0240 C   0  0  0  0  0  0  0  0  0  0  0  0
  147.6847  138.0945  157.9655 N   0  0  0  0  0  0  0  0  0  0  0  0
  149.0352  137.8812  157.7228 C   0  0  0  0  0  0  0  0  0  0  0  0
  149.9450  138.3464  156.7384 C   0  0  0  0  0  0  0  0  0  0  0  0
  149.5661  139.2032  155.7654 N   0  0  0  0  0  0  0  0  0  0  0  0
  148.7439  138.5023  154.7764 C   0  0  0  0  0  0  0  0  0  0  0  0
  148.5461  139.3472  153.5147 C   0  0  0  0  0  0  0  0  0  0  0  0
  147.9424  140.7013  153.8889 C   0  0  0  0  0  0  0  0  0  0  0  0
  148.8309  141.3989  154.9268 C   0  0  0  0  0  0  0  0  0  0  0  0
  149.0759  140.5307  156.1914 C   0  0  2  0  0  0  0  0  0  0  0  0
  150.0389  141.2731  157.1836 C   0  0  1  0  0  0  0  0  0  0  0  0
  150.9855  142.3010  156.5342 C   0  0  0  0  0  0  0  0  0  0  0  0
  151.4981  143.1966  157.6675 C   0  0  0  0  0  0  0  0  0  0  0  0
  150.5390  142.9876  158.8443 C   0  0  0  0  0  0  0  0  0  0  0  0
  149.3990  142.1122  158.3137 C   0  0  1  0  0  0  0  0  0  0  0  0
  148.3755  142.9524  157.8136 O   0  0  0  0  0  0  0  0  0  0  0  0
  151.2323  137.9143  156.8025 N   0  0  0  0  0  0  0  0  0  0  0  0
  151.6018  137.0665  157.7675 C   0  0  0  0  0  0  0  0  0  0  0  0
  150.8631  136.5471  158.7513 N   0  0  0  0  0  0  0  0  0  0  0  0
  149.5743  136.9904  158.6914 C   0  0  0  0  0  0  0  0  0  0  0  0
  146.9920  133.8611  161.4923 C   0  0  1  0  0  0  0  0  0  0  0  0
  145.5893  133.4060  161.8650 C   0  0  0  0  0  0  0  0  0  0  0  0
  145.6696  131.9015  161.6536 C   0  0  0  0  0  0  0  0  0  0  0  0
  146.4916  131.7443  160.5073 O   0  0  0  0  0  0  0  0  0  0  0  0
  147.2809  132.9146  160.3150 C   0  0  0  0  0  0  0  0  0  0  0  0
  146.3896  138.1407  162.7558 H   0  0  0  0  0  0  0  0  0  0  0  0
  147.2732  136.0258  163.2774 H   0  0  0  0  0  0  0  0  0  0  0  0
  145.6533  136.0815  162.6399 H   0  0  0  0  0  0  0  0  0  0  0  0
  146.4154  135.6118  160.3905 H   0  0  0  0  0  0  0  0  0  0  0  0
  149.0457  136.3608  161.5013 H   0  0  0  0  0  0  0  0  0  0  0  0
  149.1392  134.9529  160.4755 H   0  0  0  0  0  0  0  0  0  0  0  0
  146.4552  137.3240  159.4696 H   0  0  0  0  0  0  0  0  0  0  0  0
  149.2112  137.5535  154.5067 H   0  0  0  0  0  0  0  0  0  0  0  0
  147.7718  138.2652  155.2122 H   0  0  0  0  0  0  0  0  0  0  0  0
  149.5033  139.4916  153.0121 H   0  0  0  0  0  0  0  0  0  0  0  0
  147.8971  138.8257  152.8109 H   0  0  0  0  0  0  0  0  0  0  0  0
  147.8380  141.3257  153.0012 H   0  0  0  0  0  0  0  0  0  0  0  0
  146.9399  140.5613  154.2953 H   0  0  0  0  0  0  0  0  0  0  0  0
  149.7875  141.6513  154.4668 H   0  0  0  0  0  0  0  0  0  0  0  0
  148.3547  142.3431  155.1890 H   0  0  0  0  0  0  0  0  0  0  0  0
  148.1092  140.3865  156.6753 H   0  0  0  0  0  0  0  0  0  0  0  0
  150.6756  140.5201  157.6521 H   0  0  0  0  0  0  0  0  0  0  0  0
  151.8084  141.8297  155.9956 H   0  0  0  0  0  0  0  0  0  0  0  0
  150.4338  142.9133  155.8192 H   0  0  0  0  0  0  0  0  0  0  0  0
  152.5119  142.9151  157.9551 H   0  0  0  0  0  0  0  0  0  0  0  0
  151.5257  144.2407  157.3538 H   0  0  0  0  0  0  0  0  0  0  0  0
  151.0626  142.4526  159.6379 H   0  0  0  0  0  0  0  0  0  0  0  0
  150.1877  143.9278  159.2718 H   0  0  0  0  0  0  0  0  0  0  0  0
  148.9919  141.5090  159.1224 H   0  0  0  0  0  0  0  0  0  0  0  0
  148.7416  143.4960  157.1327 H   0  0  0  0  0  0  0  0  0  0  0  0
  152.6371  136.7604  157.7483 H   0  0  0  0  0  0  0  0  0  0  0  0
  147.6585  133.6010  162.3162 H   0  0  0  0  0  0  0  0  0  0  0  0
  145.3090  133.6643  162.8865 H   0  0  0  0  0  0  0  0  0  0  0  0
  144.8529  133.8389  161.1862 H   0  0  0  0  0  0  0  0  0  0  0  0
  146.1539  131.4215  162.5051 H   0  0  0  0  0  0  0  0  0  0  0  0
  144.6912  131.4422  161.5120 H   0  0  0  0  0  0  0  0  0  0  0  0
  146.9881  133.3641  159.3656 H   0  0  0  0  0  0  0  0  0  0  0  0
  148.3336  132.6436  160.2505 H   0  0  0  0  0  0  0  0  0  0  0  0
  1  2  1  0  0  0  0
  1 31  1  0  0  0  0
  2  3  1  0  0  0  0
  2 32  1  0  0  0  0
  2 33  1  0  0  0  0
  3  4  1  0  0  0  0
  3 26  1  0  0  0  0
  3 34  1  0  0  0  0
  4  5  1  0  0  0  0
  4 35  1  0  0  0  0
  4 36  1  0  0  0  0
  5 25  1  0  0  0  0
  5  6  1  0  0  0  0
  6  7  2  0  0  0  0
  6 37  1  0  0  0  0
  7  8  1  0  0  0  0
  8 25  2  0  0  0  0
  8  9  1  0  0  0  0
  9 10  1  0  0  0  0
  9 22  2  0  0  0  0
 10 15  1  0  0  0  0
 10 11  1  0  0  0  0
 11 12  1  0  0  0  0
 11 38  1  0  0  0  0
 11 39  1  0  0  0  0
 12 13  1  0  0  0  0
 12 40  1  0  0  0  0
 12 41  1  0  0  0  0
 13 14  1  0  0  0  0
 13 42  1  0  0  0  0
 13 43  1  0  0  0  0
 14 15  1  0  0  0  0
 14 44  1  0  0  0  0
 14 45  1  0  0  0  0
 15 16  1  0  0  0  0
 15 46  1  0  0  0  0
 16 20  1  0  0  0  0
 16 17  1  0  0  0  0
 16 47  1  0  0  0  0
 17 18  1  0  0  0  0
 17 48  1  0  0  0  0
 17 49  1  0  0  0  0
 18 19  1  0  0  0  0
 18 50  1  0  0  0  0
 18 51  1  0  0  0  0
 19 20  1  0  0  0  0
 19 52  1  0  0  0  0
 19 53  1  0  0  0  0
 20 21  1  0  0  0  0
 20 54  1  0  0  0  0
 21 55  1  0  0  0  0
 22 23  1  0  0  0  0
 23 24  2  0  0  0  0
 23 56  1  0  0  0  0
 24 25  1  0  0  0  0
 26 30  1  0  0  0  0
 26 27  1  0  0  0  0
 26 57  1  0  0  0  0
 27 28  1  0  0  0  0
 27 58  1  0  0  0  0
 27 59  1  0  0  0  0
 28 29  1  0  0  0  0
 28 60  1  0  0  0  0
 28 61  1  0  0  0  0
 29 30  1  0  0  0  0
 30 62  1  0  0  0  0
 30 63  1  0  0  0  0
M  END
> <s_m_source_file>
AV-unprocessed.smi

> <i_m_source_file_index>
148

> <i_lp_mmshare_version>
43012

> <i_f3d_flags>
0

> <s_epik_input>
W0NIMl0xT1tDSDJdW0NIMl1bQ0BIXTFbQ0BIXShbQ0gyXVtPSF0pW0NIMl1uKFtjSF1uMiljKGMyMyluW2NIXW5jM040W0NIMl1bQ0gyXVtDSDJdW0NIMl1bQ0BIXTRbQ0BASF01W0NIMl1bQ0gyXVtDSDJdW0NASF01W09IXQ==

> <s_epik_cmdline>
J2VwaWtfcHl0aG9uJywgJy1waCcsICc3LjAnLCAnLXRuJywgJzgnLCAnLW1hJywgJzIwMCcsICctbWV0YWxfYmluZGluZycsICctaW1hZScsICc8aW5maWxlLm1hZT4nLCAnLW9tYWUnLCAnPG91dGZpbGUubWFlPic=

> <r_lp_tautomer_probability>
1

> <r_epik_Ionization_Penalty>
0.00556303

> <r_epik_Ionization_Penalty_Charging>
0

> <r_epik_Ionization_Penalty_Neutral>
0.00556303

> <r_epik_State_Penalty>
0.00401767

> <r_epik_Charging_Adjusted_Penalty>
0.00401767

> <i_epik_Tot_Q>
0

> <i_epik_Tot_abs_Q>
0

> <r_epik_Metal_State_Penalty>
-0

> <b_epik_Metal_Only>
0

> <s_lp_Force_Field>
OPLS_2005

> <r_lp_Energy>
70.5137

> <b_lp_Chiralities_Consistent>
1

> <s_lp_Variant>
AV-unprocessed.smi:148-24

> <Gold.Version>
5.8.1

> <Gold.Id.Protein>
6NUR|6NUR_protein|mol2

> <Gold.PLP.Fitness>
45.5412

> <Gold.PLP.PLP>
-40.5234

> <Gold.PLP.part.hbond>
-4.9136

> <Gold.PLP.part.metal>
0.0000

> <Gold.PLP.part.buried>
-0.8441

> <Gold.PLP.part.nonpolar>
-33.8356

> <Gold.PLP.part.repulsive>
0.0179

> <Gold.PLP.ligand.clash>
0.0000

> <Gold.PLP.ligand.torsion>
1.9760

> <Gold.PLP.Chemscore.Hbond>
2.8013

> <Gold.PLP.Chemscore.CHOScore>
0.0000

> <Gold.PLP.Chemscore.Metal>
0.0000

> <Gold.Chemscore.Hbonds>
donor molecule, donor type, donor heavy atom, donor atom, acceptor molecule, acceptor atom, score
      L1  H    21    55       P1  8028  1.00
      P1  H  6896  6909       L1    24  0.94
      P1  H  6931  6943       L1     1  0.25
      P1  H  6934  6947       L1     1  0.54

> <Gold.PLP.Chemscore.Internal.Correction>
0.5659

> <Gold.Rescore>
     Score         DG    S(hbond)    S(metal)    S(lipo)     H(rot)  DE(clash)    DE(int)     intcor
     12.49     -16.26       1.81        0.00     113.09       3.32       1.52       2.25       ----

> <Gold.Chemscore.Fitness>
12.4880

> <Gold.Chemscore.DG>
-16.2583

> <Gold.Chemscore.ZeroCoef>
-5.4800

> <Gold.Chemscore.Hbond>
1.8105

> <Gold.Chemscore.Metal>
0.0000

> <Gold.Chemscore.Lipo>
113.0860

> <Gold.Chemscore.Internal_Hbond>
0.0000

> <Gold.Chemscore.DEClash>
1.5223

> <Gold.Chemscore.DEInternal>
2.2480

> <Gold.Chemscore.Rot>
3.3203

> <Gold.Chemscore.Internal.Correction>
   9.000000E+99

> <Gold.Chemscore.Hbonds>
donor molecule, donor type, donor heavy atom, donor atom, acceptor molecule, acceptor atom, score
      L1  H    21    55       P1  8028  0.30
      P1  H  6896  6909       L1    24  0.78
      P1  H  6931  6943       L1     1  0.17
      P1  H  6934  6947       L1     1  0.08

> <Gold.Chemscore.Hbond.Weighted>
-6.0472

> <Gold.Chemscore.Metal.Weighted>
-0.0000

> <Gold.Chemscore.Lipo.Weighted>
-13.2311

> <Gold.Chemscore.Internal_Hbond.Weighted>
0.0000

> <Gold.Chemscore.DEClash.Weighted>
1.5223

> <Gold.Chemscore.DEInternal.Weighted>
2.2480

> <Gold.Chemscore.Rot.Weighted>
8.5000

> <Gold.Chemscore.Internal.Correction.Weighted>
   9.000000E+99

> <Gold.Protein.RotatedTorsions>
[ 6907 6896 6895 6894 ] final   86.84 input  -60.11 | X-H torsion
[ 7974 7965 7964 7962 ] final  -56.06 input  175.53 | X-H torsion
[ 8008 7997 7996 7995 ] final -162.27 input   59.86 | X-H torsion
[ 10167 10162 10161 10158 ] final -103.58 input  -65.29 | X-H torsion
[ 10718 10713 10712 10709 ] final   87.11 input   66.30 | X-H torsion
[ 10763 10752 10751 10750 ] final   78.82 input  -60.55 | X-H torsion
[ 11005 11000 10999 10996 ] final -149.10 input  -57.11 | X-H torsion

> <Gold.Protein.ActiveResidues>
 VAL166  LYS551  ARG553  GLY616  TRP617  ASP618  TYR619  PRO620  LYS621  CYS622 
 ASP623  PHE694  ASN695  SER759  ASP760  ASP761  ALA762  ILE779  LEU786  VAL792 
 PHE793  MET794  SER795  GLU796  ALA797  LYS798  CYS799  TRP800  GLU811  SER814 

> <Gold.Protein.RotatedAtoms>
  152.5401  134.2368  159.8846 H   0  0  0  0  0  0  0  0  0  0  0  0  # atno 6907 bound_to 6896
  151.2338  133.4429  159.2612 H   0  0  0  0  0  0  0  0  0  0  0  0  # atno 6908 bound_to 6896
  151.0691  134.9800  159.8355 H   0  0  0  0  0  0  0  0  0  0  0  0  # atno 6909 bound_to 6896
  145.8670  140.8244  142.9907 H   0  0  0  0  0  0  0  0  0  0  0  0  # atno 7974 bound_to 7965
  155.8044  140.0896  157.1939 H   0  0  0  0  0  0  0  0  0  0  0  0  # atno 8008 bound_to 7997
  154.3981  140.1466  156.3372 H   0  0  0  0  0  0  0  0  0  0  0  0  # atno 8009 bound_to 7997
  155.8429  140.3438  155.5646 H   0  0  0  0  0  0  0  0  0  0  0  0  # atno 8010 bound_to 7997
  140.2185  143.3694  152.0990 H   0  0  0  0  0  0  0  0  0  0  0  0  # atno 10167 bound_to 10162
  157.6936  131.0242  150.3074 H   0  0  0  0  0  0  0  0  0  0  0  0  # atno 10718 bound_to 10713
  153.0904  135.4862  154.8679 H   0  0  0  0  0  0  0  0  0  0  0  0  # atno 10763 bound_to 10752
  154.7262  135.3050  154.8969 H   0  0  0  0  0  0  0  0  0  0  0  0  # atno 10764 bound_to 10752
  153.9618  135.6811  153.4798 H   0  0  0  0  0  0  0  0  0  0  0  0  # atno 10765 bound_to 10752
  140.7543  134.3370  157.5118 H   0  0  0  0  0  0  0  0  0  0  0  0  # atno 11005 bound_to 11000
  144.6726  140.1182  143.7451 LP  0  0  0  0  0  0  0  0  0  0  0  0  # atno 17320 bound_to 7965
  145.9181  139.2528  143.1397 LP  0  0  0  0  0  0  0  0  0  0  0  0  # atno 17321 bound_to 7965
  139.5153  144.6961  151.5626 LP  0  0  0  0  0  0  0  0  0  0  0  0  # atno 17342 bound_to 10162
  140.6272  143.9145  150.6575 LP  0  0  0  0  0  0  0  0  0  0  0  0  # atno 17343 bound_to 10162
  156.3580  130.3842  149.7274 LP  0  0  0  0  0  0  0  0  0  0  0  0  # atno 17370 bound_to 10713
  156.4730  130.8005  151.3022 LP  0  0  0  0  0  0  0  0  0  0  0  0  # atno 17371 bound_to 10713
  139.8782  134.9162  156.3149 LP  0  0  0  0  0  0  0  0  0  0  0  0  # atno 17394 bound_to 11000
  140.9722  133.7320  156.0550 LP  0  0  0  0  0  0  0  0  0  0  0  0  # atno 17395 bound_to 11000

$$$$
