AV-unprocessed.smi:3165|AV-procd|sdf|12089|dock7
  -GOLD-   2272017523D 1   1.00000     0.00000
 Structure written by MMmdl.
 37 38  0  0  0  0  0  0  0  0  1 V2000
  147.7491  141.3118  156.8960 C   0  0  0  0  0  0  0  0  0  0  0  0
  148.0135  142.2951  158.0472 C   0  0  2  0  0  0  0  0  0  0  0  0
  146.7782  143.1757  158.3655 C   0  0  0  0  0  0  0  0  0  0  0  0
  146.7015  143.6087  159.7520 N   0  0  0  0  0  0  0  0  0  0  0  0
  146.9879  144.8500  160.2812 C   0  0  0  0  0  0  0  0  0  0  0  0
  146.7637  144.7814  161.6262 C   0  0  0  0  0  0  0  0  0  0  0  0
  146.3315  143.4412  161.8285 C   0  0  0  0  0  0  0  0  0  0  0  0
  146.2895  142.7444  160.7051 N   0  0  0  0  0  0  0  0  0  0  0  0
  149.2194  143.0767  157.7505 N   0  0  0  0  0  0  0  0  0  0  0  0
  150.4503  142.3057  157.5798 C   0  0  0  0  0  0  0  0  0  0  0  0
  151.2544  142.2552  158.8863 C   0  0  2  0  0  0  0  0  0  0  0  0
  151.9739  143.5903  159.1600 C   0  0  0  0  0  0  0  0  0  0  0  0
  152.8464  143.4875  160.4163 C   0  0  0  0  0  0  0  0  0  0  0  0
  153.7862  142.2832  160.2959 C   0  0  0  0  0  0  0  0  0  0  0  0
  152.9879  141.0154  159.9538 C   0  0  0  0  0  0  0  0  0  0  0  0
  152.2342  141.2254  158.7641 O   0  0  0  0  0  0  0  0  0  0  0  0
  146.8574  140.7143  157.0876 H   0  0  0  0  0  0  0  0  0  0  0  0
  148.5844  140.6220  156.7718 H   0  0  0  0  0  0  0  0  0  0  0  0
  147.6068  141.8290  155.9468 H   0  0  0  0  0  0  0  0  0  0  0  0
  148.2109  141.6922  158.9343 H   0  0  0  0  0  0  0  0  0  0  0  0
  146.8079  144.0700  157.7422 H   0  0  0  0  0  0  0  0  0  0  0  0
  145.8484  142.6723  158.0997 H   0  0  0  0  0  0  0  0  0  0  0  0
  147.3265  145.6681  159.6627 H   0  0  0  0  0  0  0  0  0  0  0  0
  146.8888  145.5686  162.3545 H   0  0  0  0  0  0  0  0  0  0  0  0
  146.0462  142.9580  162.7513 H   0  0  0  0  0  0  0  0  0  0  0  0
  149.0613  143.6535  156.9305 H   0  0  0  0  0  0  0  0  0  0  0  0
  150.2380  141.2898  157.2478 H   0  0  0  0  0  0  0  0  0  0  0  0
  151.0591  142.7706  156.8035 H   0  0  0  0  0  0  0  0  0  0  0  0
  150.5828  142.0299  159.7172 H   0  0  0  0  0  0  0  0  0  0  0  0
  152.5977  143.8529  158.3044 H   0  0  0  0  0  0  0  0  0  0  0  0
  151.2483  144.3957  159.2763 H   0  0  0  0  0  0  0  0  0  0  0  0
  153.4192  144.4042  160.5589 H   0  0  0  0  0  0  0  0  0  0  0  0
  152.2117  143.3725  161.2960 H   0  0  0  0  0  0  0  0  0  0  0  0
  154.5234  142.4701  159.5143 H   0  0  0  0  0  0  0  0  0  0  0  0
  154.3414  142.1424  161.2235 H   0  0  0  0  0  0  0  0  0  0  0  0
  153.6665  140.1769  159.7967 H   0  0  0  0  0  0  0  0  0  0  0  0
  152.3241  140.7381  160.7740 H   0  0  0  0  0  0  0  0  0  0  0  0
  1  2  1  0  0  0  0
  1 17  1  0  0  0  0
  1 18  1  0  0  0  0
  1 19  1  0  0  0  0
  2  3  1  0  0  0  0
  2  9  1  0  0  0  0
  2 20  1  0  0  0  0
  3  4  1  0  0  0  0
  3 21  1  0  0  0  0
  3 22  1  0  0  0  0
  4  8  1  0  0  0  0
  4  5  1  0  0  0  0
  5  6  2  0  0  0  0
  5 23  1  0  0  0  0
  6  7  1  0  0  0  0
  6 24  1  0  0  0  0
  7  8  2  0  0  0  0
  7 25  1  0  0  0  0
  9 10  1  0  0  0  0
  9 26  1  0  0  0  0
 10 11  1  0  0  0  0
 10 27  1  0  0  0  0
 10 28  1  0  0  0  0
 11 16  1  0  0  0  0
 11 12  1  0  0  0  0
 11 29  1  0  0  0  0
 12 13  1  0  0  0  0
 12 30  1  0  0  0  0
 12 31  1  0  0  0  0
 13 14  1  0  0  0  0
 13 32  1  0  0  0  0
 13 33  1  0  0  0  0
 14 15  1  0  0  0  0
 14 34  1  0  0  0  0
 14 35  1  0  0  0  0
 15 16  1  0  0  0  0
 15 36  1  0  0  0  0
 15 37  1  0  0  0  0
M  END
> <s_m_source_file>
AV-unprocessed.smi

> <i_m_source_file_index>
3165

> <i_lp_mmshare_version>
43012

> <i_f3d_flags>
0

> <s_epik_input>
bjFbY0hdW2NIXVtjSF1uMVtDSDJdW0NAQEhdKFtDSDNdKVtOSF1bQ0gyXVtDQEBIXTJbQ0gyXVtDSDJdW0NIMl1bQ0gyXU8y

> <s_epik_cmdline>
J2VwaWtfcHl0aG9uJywgJy1waCcsICc3LjAnLCAnLXRuJywgJzgnLCAnLW1hJywgJzIwMCcsICctbWV0YWxfYmluZGluZycsICctaW1hZScsICc8aW5maWxlLm1hZT4nLCAnLW9tYWUnLCAnPG91dGZpbGUubWFlPic=

> <r_lp_tautomer_probability>
1

> <r_epik_Ionization_Penalty>
2.51982

> <r_epik_Ionization_Penalty_Charging>
0

> <r_epik_Ionization_Penalty_Neutral>
2.51982

> <r_epik_State_Penalty>
2.68614

> <r_epik_Charging_Adjusted_Penalty>
2.68614

> <i_epik_Tot_Q>
0

> <i_epik_Tot_abs_Q>
0

> <r_epik_Metal_State_Penalty>
2.6861

> <b_epik_Metal_Only>
0

> <s_lp_Force_Field>
OPLS_2005

> <r_lp_Energy>
14.3424

> <b_lp_Chiralities_Consistent>
1

> <s_lp_Variant>
AV-unprocessed.smi:3165-5

> <Gold.Version>
5.8.1

> <Gold.Id.Protein>
6NUR|6NUR_protein|mol2

> <Gold.PLP.Fitness>
40.3683

> <Gold.PLP.PLP>
-33.1360

> <Gold.PLP.part.hbond>
-2.6643

> <Gold.PLP.part.metal>
0.0000

> <Gold.PLP.part.buried>
-5.2410

> <Gold.PLP.part.nonpolar>
-25.5605

> <Gold.PLP.part.repulsive>
0.0000

> <Gold.PLP.ligand.clash>
0.0000

> <Gold.PLP.ligand.torsion>
0.8963

> <Gold.PLP.Chemscore.Hbond>
2.0000

> <Gold.PLP.Chemscore.CHOScore>
1.0000

> <Gold.PLP.Chemscore.Metal>
0.0000

> <Gold.Chemscore.Hbonds>
donor molecule, donor type, donor heavy atom, donor atom, acceptor molecule, acceptor atom, score
      L1  H     9    26       P1  8028  1.00
      P1  H  6934  6946       L1     8  1.00
      L1  C     5    23       P1  8029  1.00

> <Gold.PLP.Chemscore.Internal.Correction>
0.0249

> <Gold.Rescore>
     Score         DG    S(hbond)    S(metal)    S(lipo)     H(rot)  DE(clash)    DE(int)     intcor
     16.24     -17.02       1.89        0.00      79.11       1.57       0.02       0.75       ----

> <Gold.Chemscore.Fitness>
16.2439

> <Gold.Chemscore.DG>
-17.0216

> <Gold.Chemscore.ZeroCoef>
-5.4800

> <Gold.Chemscore.Hbond>
1.8901

> <Gold.Chemscore.Metal>
0.0000

> <Gold.Chemscore.Lipo>
79.1106

> <Gold.Chemscore.Internal_Hbond>
0.0000

> <Gold.Chemscore.DEClash>
0.0240

> <Gold.Chemscore.DEInternal>
0.7537

> <Gold.Chemscore.Rot>
1.5731

> <Gold.Chemscore.Internal.Correction>
   9.000000E+99

> <Gold.Chemscore.Hbonds>
donor molecule, donor type, donor heavy atom, donor atom, acceptor molecule, acceptor atom, score
      L1  H     9    26       P1  8028  0.65
      P1  H  6934  6946       L1     8  0.91

> <Gold.Chemscore.Hbond.Weighted>
-6.3129

> <Gold.Chemscore.Metal.Weighted>
-0.0000

> <Gold.Chemscore.Lipo.Weighted>
-9.2559

> <Gold.Chemscore.Internal_Hbond.Weighted>
0.0000

> <Gold.Chemscore.DEClash.Weighted>
0.0240

> <Gold.Chemscore.DEInternal.Weighted>
0.7537

> <Gold.Chemscore.Rot.Weighted>
4.0273

> <Gold.Chemscore.Internal.Correction.Weighted>
   9.000000E+99

> <Gold.Protein.RotatedTorsions>
[ 6907 6896 6895 6894 ] final   39.60 input  -60.11 | X-H torsion
[ 7974 7965 7964 7962 ] final   43.61 input  175.53 | X-H torsion
[ 8008 7997 7996 7995 ] final  103.69 input   59.86 | X-H torsion
[ 10167 10162 10161 10158 ] final  -83.77 input  -65.29 | X-H torsion
[ 10718 10713 10712 10709 ] final -170.79 input   66.30 | X-H torsion
[ 10763 10752 10751 10750 ] final  -89.05 input  -60.55 | X-H torsion
[ 11005 11000 10999 10996 ] final   -2.27 input  -57.11 | X-H torsion

> <Gold.Protein.ActiveResidues>
 VAL166  LYS551  ARG553  GLY616  TRP617  ASP618  TYR619  PRO620  LYS621  CYS622 
 ASP623  PHE694  ASN695  SER759  ASP760  ASP761  ALA762  ILE779  LEU786  VAL792 
 PHE793  MET794  SER795  GLU796  ALA797  LYS798  CYS799  TRP800  GLU811  SER814 

> <Gold.Protein.RotatedAtoms>
  152.1717  134.8828  160.0533 H   0  0  0  0  0  0  0  0  0  0  0  0  # atno 6907 bound_to 6896
  151.9786  133.3745  159.4107 H   0  0  0  0  0  0  0  0  0  0  0  0  # atno 6908 bound_to 6896
  150.6903  134.3986  159.5152 H   0  0  0  0  0  0  0  0  0  0  0  0  # atno 6909 bound_to 6896
  146.0640  139.5167  142.9640 H   0  0  0  0  0  0  0  0  0  0  0  0  # atno 7974 bound_to 7965
  156.1506  140.3160  155.8642 H   0  0  0  0  0  0  0  0  0  0  0  0  # atno 8008 bound_to 7997
  155.3978  140.0497  157.3055 H   0  0  0  0  0  0  0  0  0  0  0  0  # atno 8009 bound_to 7997
  154.5055  140.2145  155.9271 H   0  0  0  0  0  0  0  0  0  0  0  0  # atno 8010 bound_to 7997
  140.4196  143.2590  151.8908 H   0  0  0  0  0  0  0  0  0  0  0  0  # atno 10167 bound_to 10162
  156.7313  130.9307  151.3104 H   0  0  0  0  0  0  0  0  0  0  0  0  # atno 10718 bound_to 10713
  154.6512  135.5355  153.7904 H   0  0  0  0  0  0  0  0  0  0  0  0  # atno 10763 bound_to 10752
  153.0387  135.6483  154.1014 H   0  0  0  0  0  0  0  0  0  0  0  0  # atno 10764 bound_to 10752
  154.0931  135.2938  155.3247 H   0  0  0  0  0  0  0  0  0  0  0  0  # atno 10765 bound_to 10752
  140.6565  133.9358  155.8411 H   0  0  0  0  0  0  0  0  0  0  0  0  # atno 11005 bound_to 11000
  145.6510  141.0263  143.1760 LP  0  0  0  0  0  0  0  0  0  0  0  0  # atno 17320 bound_to 7965
  144.7191  139.8091  143.7388 LP  0  0  0  0  0  0  0  0  0  0  0  0  # atno 17321 bound_to 7965
  139.4782  144.5451  151.8469 LP  0  0  0  0  0  0  0  0  0  0  0  0  # atno 17342 bound_to 10162
  140.4548  144.1804  150.5900 LP  0  0  0  0  0  0  0  0  0  0  0  0  # atno 17343 bound_to 10162
  157.6857  130.9183  150.0381 LP  0  0  0  0  0  0  0  0  0  0  0  0  # atno 17370 bound_to 10713
  156.1527  130.3642  149.9415 LP  0  0  0  0  0  0  0  0  0  0  0  0  # atno 17371 bound_to 10713
  141.0497  134.0502  157.3799 LP  0  0  0  0  0  0  0  0  0  0  0  0  # atno 17394 bound_to 11000
  139.9027  135.0170  156.7346 LP  0  0  0  0  0  0  0  0  0  0  0  0  # atno 17395 bound_to 11000

$$$$
