AV-unprocessed.smi:102|AV-procd|sdf|969|dock9
  -GOLD-   2262017523D 1   1.00000     0.00000
 Structure written by MMmdl.
 43 44  0  0  0  0  0  0  0  0  2 V2000
  150.2839  131.5258  156.1109 C   0  0  0  0  0  0  0  0  0  0  0  0
  150.2130  132.4488  157.3203 C   0  0  0  0  0  0  0  0  0  0  0  0
  151.2207  132.9893  157.7769 O   0  0  0  0  0  0  0  0  0  0  0  0
  148.9649  132.5773  157.7940 O   0  0  0  0  0  0  0  0  0  0  0  0
  148.6800  133.5850  158.7499 C   0  0  0  0  0  0  0  0  0  0  0  0
  148.3687  134.9060  158.0296 C   0  0  2  0  0  0  0  0  0  0  0  0
  149.5484  135.4388  157.4300 O   0  0  0  0  0  0  0  0  0  0  0  0
  149.9093  136.6363  158.0488 C   0  0  1  0  0  0  0  0  0  0  0  0
  150.7726  137.4637  157.1064 N   0  0  0  0  0  0  0  0  0  0  0  0
  150.5291  138.8138  156.8983 C   0  0  0  0  0  0  0  0  0  0  0  0
  151.3140  139.5583  156.0935 C   0  0  0  0  0  0  0  0  0  0  0  0
  151.0449  140.8633  155.9169 F   0  0  0  0  0  0  0  0  0  0  0  0
  152.4645  138.9432  155.4379 C   0  0  0  0  0  0  0  0  0  0  0  0
  153.1522  139.6142  154.6696 O   0  0  0  0  0  0  0  0  0  0  0  0
  152.7325  137.6368  155.7219 N   0  5  0  0  0  0  0  0  0  0  0  0
  151.9534  136.8866  156.5558 C   0  0  0  0  0  0  0  0  0  0  0  0
  152.2367  135.7290  156.8639 O   0  0  0  0  0  0  0  0  0  0  0  0
  148.5562  137.2569  158.4345 C   0  0  1  0  0  0  0  0  0  0  0  0
  147.8779  137.7989  157.3032 O   0  0  0  0  0  0  0  0  0  0  0  0
  146.8728  138.6750  157.4690 C   0  0  0  0  0  0  0  0  0  0  0  0
  146.2696  139.1203  156.1439 C   0  0  0  0  0  0  0  0  0  0  0  0
  146.4517  139.1011  158.5444 O   0  0  0  0  0  0  0  0  0  0  0  0
  147.8115  136.0248  158.9286 C   0  0  2  0  0  0  0  0  0  0  0  0
  148.1034  135.8092  160.3069 O   0  0  0  0  0  0  0  0  0  0  0  0
  147.4216  136.4679  161.2604 C   0  0  0  0  0  0  0  0  0  0  0  0
  147.7538  135.9678  162.6598 C   0  0  0  0  0  0  0  0  0  0  0  0
  146.6149  137.3795  161.0781 O   0  0  0  0  0  0  0  0  0  0  0  0
  149.5060  131.7806  155.3910 H   0  0  0  0  0  0  0  0  0  0  0  0
  150.1457  130.4894  156.4194 H   0  0  0  0  0  0  0  0  0  0  0  0
  151.2525  131.6137  155.6183 H   0  0  0  0  0  0  0  0  0  0  0  0
  147.8156  133.2709  159.3368 H   0  0  0  0  0  0  0  0  0  0  0  0
  149.5176  133.7121  159.4373 H   0  0  0  0  0  0  0  0  0  0  0  0
  147.6529  134.7222  157.2271 H   0  0  0  0  0  0  0  0  0  0  0  0
  150.5445  136.4399  158.9144 H   0  0  0  0  0  0  0  0  0  0  0  0
  149.7105  139.3071  157.3979 H   0  0  0  0  0  0  0  0  0  0  0  0
  148.7040  138.0129  159.2076 H   0  0  0  0  0  0  0  0  0  0  0  0
  147.0338  139.5790  155.5159 H   0  0  0  0  0  0  0  0  0  0  0  0
  145.4756  139.8488  156.3091 H   0  0  0  0  0  0  0  0  0  0  0  0
  145.8503  138.2660  155.6123 H   0  0  0  0  0  0  0  0  0  0  0  0
  146.7326  136.1153  158.7908 H   0  0  0  0  0  0  0  0  0  0  0  0
  147.6711  134.8819  162.7051 H   0  0  0  0  0  0  0  0  0  0  0  0
  147.0705  136.3975  163.3925 H   0  0  0  0  0  0  0  0  0  0  0  0
  148.7719  136.2499  162.9289 H   0  0  0  0  0  0  0  0  0  0  0  0
  1  2  1  0  0  0  0
  1 28  1  0  0  0  0
  1 29  1  0  0  0  0
  1 30  1  0  0  0  0
  2  3  2  0  0  0  0
  2  4  1  0  0  0  0
  4  5  1  0  0  0  0
  5  6  1  0  0  0  0
  5 31  1  0  0  0  0
  5 32  1  0  0  0  0
  6 23  1  0  0  0  0
  6  7  1  0  0  0  0
  6 33  1  0  0  0  0
  7  8  1  0  0  0  0
  8  9  1  0  0  0  0
  8 18  1  0  0  0  0
  8 34  1  0  0  0  0
  9 16  1  0  0  0  0
  9 10  1  0  0  0  0
 10 11  2  0  0  0  0
 10 35  1  0  0  0  0
 11 12  1  0  0  0  0
 11 13  1  0  0  0  0
 13 14  2  0  0  0  0
 13 15  1  0  0  0  0
 15 16  1  0  0  0  0
 16 17  2  0  0  0  0
 18 19  1  0  0  0  0
 18 23  1  0  0  0  0
 18 36  1  0  0  0  0
 19 20  1  0  0  0  0
 20 21  1  0  0  0  0
 20 22  2  0  0  0  0
 21 37  1  0  0  0  0
 21 38  1  0  0  0  0
 21 39  1  0  0  0  0
 23 24  1  0  0  0  0
 23 40  1  0  0  0  0
 24 25  1  0  0  0  0
 25 26  1  0  0  0  0
 25 27  2  0  0  0  0
 26 41  1  0  0  0  0
 26 42  1  0  0  0  0
 26 43  1  0  0  0  0
M  CHG  1  15  -1
M  END
> <s_m_source_file>
AV-unprocessed.smi

> <i_m_source_file_index>
102

> <i_lp_mmshare_version>
43012

> <i_f3d_flags>
0

> <s_epik_input>
W0NIM11DKD1PKU9bQ0gyXVtDQEBIXTFPW0NASF0oW0NAQEhdKE9DKD1PKVtDSDNdKVtDQEhdMU9DKD1PKVtDSDNdKW4yW2NIXWMoRiljKD1PKVtuSF1jMj1P

> <s_epik_cmdline>
J2VwaWtfcHl0aG9uJywgJy1waCcsICc3LjAnLCAnLXRuJywgJzgnLCAnLW1hJywgJzIwMCcsICctbWV0YWxfYmluZGluZycsICctaW1hZScsICc8aW5maWxlLm1hZT4nLCAnLW9tYWUnLCAnPG91dGZpbGUubWFlPic=

> <r_epik_Ionization_Penalty>
1.40304

> <r_epik_Ionization_Penalty_Charging>
1.43915e-08

> <r_epik_Ionization_Penalty_Neutral>
1.40304

> <r_epik_State_Penalty>
1.48536

> <r_epik_Charging_Adjusted_Penalty>
1.48536

> <i_epik_Tot_Q>
-1

> <i_epik_Tot_abs_Q>
1

> <r_epik_Metal_State_Penalty>
0.00663881

> <b_epik_Metal_Only>
0

> <s_epik_Chemistry_Notes>
This compound has an ester and may undergo hydrolysis at high or low pH. This compound contains an acetal/aminal-like group ( X-CH(R)-Y where X, Y are N, S, or O) that may be acid/base labile, releasing an aldehyde.

> <s_lp_Force_Field>
OPLS_2005

> <r_lp_Energy>
30.6684

> <b_lp_Chiralities_Consistent>
1

> <s_lp_Variant>
AV-unprocessed.smi:102-25

> <Gold.Version>
5.8.1

> <Gold.Id.Protein>
6NUR|6NUR_protein|mol2

> <Gold.PLP.Fitness>
41.5979

> <Gold.PLP.PLP>
-31.6324

> <Gold.PLP.part.hbond>
-7.0000

> <Gold.PLP.part.metal>
0.0000

> <Gold.PLP.part.buried>
-4.8812

> <Gold.PLP.part.nonpolar>
-20.7579

> <Gold.PLP.part.repulsive>
0.0376

> <Gold.PLP.ligand.clash>
0.0000

> <Gold.PLP.ligand.torsion>
1.0319

> <Gold.PLP.Chemscore.Hbond>
3.9503

> <Gold.PLP.Chemscore.CHOScore>
0.0000

> <Gold.PLP.Chemscore.Metal>
0.0000

> <Gold.Chemscore.Hbonds>
donor molecule, donor type, donor heavy atom, donor atom, acceptor molecule, acceptor atom, score
      P1  H  6896  6908       L1     3  0.86
      P1  H  6934  6947       L1    27  1.00
      P1  H  7989  7998       L1    14  0.15
      P1  H  7997  8009       L1    14  1.00
      P1  H 10752 10764       L1    17  0.70

> <Gold.PLP.Chemscore.Internal.Correction>
0.1784

> <Gold.Rescore>
     Score         DG    S(hbond)    S(metal)    S(lipo)     H(rot)  DE(clash)    DE(int)     intcor
      5.51      -9.48       3.08        0.00      33.73       4.00       0.14       3.83       ----

> <Gold.Chemscore.Fitness>
5.5103

> <Gold.Chemscore.DG>
-9.4794

> <Gold.Chemscore.ZeroCoef>
-5.4800

> <Gold.Chemscore.Hbond>
3.0780

> <Gold.Chemscore.Metal>
0.0000

> <Gold.Chemscore.Lipo>
33.7280

> <Gold.Chemscore.Internal_Hbond>
0.0000

> <Gold.Chemscore.DEClash>
0.1389

> <Gold.Chemscore.DEInternal>
3.8302

> <Gold.Chemscore.Rot>
3.9951

> <Gold.Chemscore.Internal.Correction>
   9.000000E+99

> <Gold.Chemscore.Hbonds>
donor molecule, donor type, donor heavy atom, donor atom, acceptor molecule, acceptor atom, score
      P1  H  6896  6908       L1     3  0.79
      P1  H  6934  6947       L1    27  0.98
      P1  H  7989  7998       L1    14  0.08
      P1  H  7997  8009       L1    14  0.26
      P1  H 10752 10764       L1    17  0.07

> <Gold.Chemscore.Hbond.Weighted>
-10.2806

> <Gold.Chemscore.Metal.Weighted>
-0.0000

> <Gold.Chemscore.Lipo.Weighted>
-3.9462

> <Gold.Chemscore.Internal_Hbond.Weighted>
0.0000

> <Gold.Chemscore.DEClash.Weighted>
0.1389

> <Gold.Chemscore.DEInternal.Weighted>
3.8302

> <Gold.Chemscore.Rot.Weighted>
10.2274

> <Gold.Chemscore.Internal.Correction.Weighted>
   9.000000E+99

> <Gold.Protein.RotatedTorsions>
[ 6907 6896 6895 6894 ] final   77.99 input  -60.11 | X-H torsion
[ 7974 7965 7964 7962 ] final  -50.37 input  175.53 | X-H torsion
[ 8008 7997 7996 7995 ] final -133.07 input   59.86 | X-H torsion
[ 10167 10162 10161 10158 ] final   66.26 input  -65.29 | X-H torsion
[ 10718 10713 10712 10709 ] final   -4.72 input   66.30 | X-H torsion
[ 10763 10752 10751 10750 ] final  -15.14 input  -60.55 | X-H torsion
[ 11005 11000 10999 10996 ] final   56.01 input  -57.11 | X-H torsion

> <Gold.Protein.ActiveResidues>
 VAL166  LYS551  ARG553  GLY616  TRP617  ASP618  TYR619  PRO620  LYS621  CYS622 
 ASP623  PHE694  ASN695  SER759  ASP760  ASP761  ALA762  ILE779  LEU786  VAL792 
 PHE793  MET794  SER795  GLU796  ALA797  LYS798  CYS799  TRP800  GLU811  SER814 

> <Gold.Protein.RotatedAtoms>
  152.5141  134.3733  159.9325 H   0  0  0  0  0  0  0  0  0  0  0  0  # atno 6907 bound_to 6896
  151.3688  133.3856  159.2705 H   0  0  0  0  0  0  0  0  0  0  0  0  # atno 6908 bound_to 6896
  150.9594  134.9004  159.7780 H   0  0  0  0  0  0  0  0  0  0  0  0  # atno 6909 bound_to 6896
  145.9305  140.7753  142.9602 H   0  0  0  0  0  0  0  0  0  0  0  0  # atno 7974 bound_to 7965
  155.3394  140.0471  157.3044 H   0  0  0  0  0  0  0  0  0  0  0  0  # atno 8008 bound_to 7997
  154.5285  140.2249  155.8811 H   0  0  0  0  0  0  0  0  0  0  0  0  # atno 8009 bound_to 7997
  156.1764  140.3084  155.9074 H   0  0  0  0  0  0  0  0  0  0  0  0  # atno 8010 bound_to 7997
  140.1024  144.4892  150.7029 H   0  0  0  0  0  0  0  0  0  0  0  0  # atno 10167 bound_to 10162
  156.7572  130.5258  149.5792 H   0  0  0  0  0  0  0  0  0  0  0  0  # atno 10718 bound_to 10713
  153.5389  135.7013  153.5646 H   0  0  0  0  0  0  0  0  0  0  0  0  # atno 10763 bound_to 10752
  153.3621  135.3967  155.1726 H   0  0  0  0  0  0  0  0  0  0  0  0  # atno 10764 bound_to 10752
  154.8676  135.3791  154.4891 H   0  0  0  0  0  0  0  0  0  0  0  0  # atno 10765 bound_to 10752
  140.0562  134.5667  155.9205 H   0  0  0  0  0  0  0  0  0  0  0  0  # atno 11005 bound_to 11000
  144.6764  140.2120  143.7376 LP  0  0  0  0  0  0  0  0  0  0  0  0  # atno 17320 bound_to 7965
  145.8432  139.2139  143.1815 LP  0  0  0  0  0  0  0  0  0  0  0  0  # atno 17321 bound_to 7965
  140.6970  143.2410  151.4971 LP  0  0  0  0  0  0  0  0  0  0  0  0  # atno 17342 bound_to 10162
  139.5664  144.2032  152.1771 LP  0  0  0  0  0  0  0  0  0  0  0  0  # atno 17343 bound_to 10162
  156.1363  130.6213  151.0404 LP  0  0  0  0  0  0  0  0  0  0  0  0  # atno 17370 bound_to 10713
  157.6751  131.0852  150.7515 LP  0  0  0  0  0  0  0  0  0  0  0  0  # atno 17371 bound_to 10713
  141.1953  133.6586  156.5636 LP  0  0  0  0  0  0  0  0  0  0  0  0  # atno 17394 bound_to 11000
  140.3841  134.7498  157.4680 LP  0  0  0  0  0  0  0  0  0  0  0  0  # atno 17395 bound_to 11000

$$$$
