AV-unprocessed.smi:220|AV-procd|sdf|1683|dock7
  -GOLD-   2262020123D 1   1.00000     0.00000
 Structure written by MMmdl.
 51 55  0  0  0  0  0  0  0  0  1 V2000
  145.8312  131.2855  153.9786 N   0  0  0  0  0  0  0  0  0  0  0  0
  147.0835  131.1697  153.5306 C   0  0  0  0  0  0  0  0  0  0  0  0
  147.6593  130.0836  153.4858 O   0  0  0  0  0  0  0  0  0  0  0  0
  147.7850  132.4728  153.0862 C   0  0  1  0  0  0  0  0  0  0  0  0
  147.1170  133.2292  151.9042 C   0  0  1  0  0  0  0  0  0  0  0  0
  146.1994  132.4817  150.9055 C   0  0  0  0  0  0  0  0  0  0  0  0
  144.9589  133.3694  150.7640 C   0  0  0  0  0  0  0  0  0  0  0  0
  144.8181  134.0430  152.1287 C   0  0  0  0  0  0  0  0  0  0  0  0
  146.2655  134.3397  152.5309 C   0  0  1  0  0  0  0  0  0  0  0  0
  146.5848  134.3217  154.0283 C   0  0  0  0  0  0  0  0  0  0  0  0
  147.7701  133.4792  154.1512 N   0  0  0  0  0  0  0  0  0  0  0  0
  148.3765  133.2912  155.3582 C   0  0  0  0  0  0  0  0  0  0  0  0
  149.6780  132.8964  155.3735 N   0  0  0  0  0  0  0  0  0  0  0  0
  150.3217  132.7050  156.5275 C   0  0  0  0  0  0  0  0  0  0  0  0
  149.8614  132.8449  157.7702 N   0  0  0  0  0  0  0  0  0  0  0  0
  148.5540  133.2301  157.7718 C   0  0  0  0  0  0  0  0  0  0  0  0
  147.7411  133.4693  156.6250 C   0  0  0  0  0  0  0  0  0  0  0  0
  146.4615  133.8278  157.0359 N   0  0  0  0  0  0  0  0  0  0  0  0
  146.5178  133.8127  158.3383 C   0  0  0  0  0  0  0  0  0  0  0  0
  147.7417  133.4750  158.8663 N   0  0  0  0  0  0  0  0  0  0  0  0
  148.0873  133.3818  160.2768 C   0  0  0  0  0  0  0  0  0  0  0  0
  147.5793  134.5690  161.1199 C   0  0  0  0  0  0  0  0  0  0  0  0
  148.1693  135.8905  160.5972 C   0  0  0  0  0  0  0  0  0  0  0  0
  147.7244  136.9909  161.3637 O   0  0  0  0  0  0  0  0  0  0  0  0
  146.0664  134.6100  161.3794 C   0  0  0  0  0  0  0  0  0  0  0  0
  146.2560  134.7553  162.8025 O   0  0  0  0  0  0  0  0  0  0  0  0
  147.6426  134.3873  162.6426 C   0  0  0  0  0  0  0  0  0  0  0  0
  145.3284  130.4622  154.2766 H   0  0  0  0  0  0  0  0  0  0  0  0
  145.3901  132.1931  154.0138 H   0  0  0  0  0  0  0  0  0  0  0  0
  148.8088  132.2469  152.7912 H   0  0  0  0  0  0  0  0  0  0  0  0
  147.9098  133.7151  151.3329 H   0  0  0  0  0  0  0  0  0  0  0  0
  146.6910  132.3207  149.9456 H   0  0  0  0  0  0  0  0  0  0  0  0
  145.8802  131.5037  151.2596 H   0  0  0  0  0  0  0  0  0  0  0  0
  145.1317  134.1261  149.9974 H   0  0  0  0  0  0  0  0  0  0  0  0
  144.0697  132.8054  150.4803 H   0  0  0  0  0  0  0  0  0  0  0  0
  144.1994  134.9399  152.0953 H   0  0  0  0  0  0  0  0  0  0  0  0
  144.3591  133.3440  152.8294 H   0  0  0  0  0  0  0  0  0  0  0  0
  146.5702  135.2943  152.0989 H   0  0  0  0  0  0  0  0  0  0  0  0
  146.7765  135.3318  154.3932 H   0  0  0  0  0  0  0  0  0  0  0  0
  145.7646  133.9018  154.6123 H   0  0  0  0  0  0  0  0  0  0  0  0
  151.3530  132.3962  156.4425 H   0  0  0  0  0  0  0  0  0  0  0  0
  145.6607  134.0503  158.9506 H   0  0  0  0  0  0  0  0  0  0  0  0
  147.6767  132.4442  160.6539 H   0  0  0  0  0  0  0  0  0  0  0  0
  149.1694  133.2798  160.3648 H   0  0  0  0  0  0  0  0  0  0  0  0
  149.2592  135.8736  160.5951 H   0  0  0  0  0  0  0  0  0  0  0  0
  147.8687  136.0629  159.5633 H   0  0  0  0  0  0  0  0  0  0  0  0
  147.2751  136.6633  162.1279 H   0  0  0  0  0  0  0  0  0  0  0  0
  145.5610  135.4669  160.9324 H   0  0  0  0  0  0  0  0  0  0  0  0
  145.5451  133.6821  161.1402 H   0  0  0  0  0  0  0  0  0  0  0  0
  147.8272  133.3597  162.9593 H   0  0  0  0  0  0  0  0  0  0  0  0
  148.3203  135.0768  163.1473 H   0  0  0  0  0  0  0  0  0  0  0  0
  1  2  1  0  0  0  0
  1 28  1  0  0  0  0
  1 29  1  0  0  0  0
  2  3  2  0  0  0  0
  2  4  1  0  0  0  0
  4 11  1  0  0  0  0
  4  5  1  0  0  0  0
  4 30  1  0  0  0  0
  5  9  1  0  0  0  0
  5  6  1  0  0  0  0
  5 31  1  0  0  0  0
  6  7  1  0  0  0  0
  6 32  1  0  0  0  0
  6 33  1  0  0  0  0
  7  8  1  0  0  0  0
  7 34  1  0  0  0  0
  7 35  1  0  0  0  0
  8  9  1  0  0  0  0
  8 36  1  0  0  0  0
  8 37  1  0  0  0  0
  9 10  1  0  0  0  0
  9 38  1  0  0  0  0
 10 11  1  0  0  0  0
 10 39  1  0  0  0  0
 10 40  1  0  0  0  0
 11 12  1  0  0  0  0
 12 17  1  0  0  0  0
 12 13  2  0  0  0  0
 13 14  1  0  0  0  0
 14 15  2  0  0  0  0
 14 41  1  0  0  0  0
 15 16  1  0  0  0  0
 16 20  1  0  0  0  0
 16 17  2  0  0  0  0
 17 18  1  0  0  0  0
 18 19  2  0  0  0  0
 19 20  1  0  0  0  0
 19 42  1  0  0  0  0
 20 21  1  0  0  0  0
 21 22  1  0  0  0  0
 21 43  1  0  0  0  0
 21 44  1  0  0  0  0
 22 27  1  0  0  0  0
 22 23  1  0  0  0  0
 22 25  1  0  0  0  0
 23 24  1  0  0  0  0
 23 45  1  0  0  0  0
 23 46  1  0  0  0  0
 24 47  1  0  0  0  0
 25 26  1  0  0  0  0
 25 48  1  0  0  0  0
 25 49  1  0  0  0  0
 26 27  1  0  0  0  0
 27 50  1  0  0  0  0
 27 51  1  0  0  0  0
M  END
> <s_m_source_file>
AV-unprocessed.smi

> <i_m_source_file_index>
220

> <i_lp_mmshare_version>
43012

> <i_f3d_flags>
0

> <s_epik_input>
W0NIMl0xW0NIMl1bQ0gyXVtDQEhdKFtDQEhdMTIpW0NIMl1OKFtDQEBIXTJDKD1PKVtOSDJdKWMobltjSF1uMyljKGMzNCluW2NIXW40W0NIMl1DNShbQ0gyXVtPSF0pW0NIMl1PW0NIMl01

> <s_epik_cmdline>
J2VwaWtfcHl0aG9uJywgJy1waCcsICc3LjAnLCAnLXRuJywgJzgnLCAnLW1hJywgJzIwMCcsICctbWV0YWxfYmluZGluZycsICctaW1hZScsICc8aW5maWxlLm1hZT4nLCAnLW9tYWUnLCAnPG91dGZpbGUubWFlPic=

> <r_lp_tautomer_probability>
1

> <r_epik_Ionization_Penalty>
0.00118987

> <r_epik_Ionization_Penalty_Charging>
0

> <r_epik_Ionization_Penalty_Neutral>
0.00118987

> <r_epik_State_Penalty>
0.000654261

> <r_epik_Charging_Adjusted_Penalty>
0.000654261

> <i_epik_Tot_Q>
0

> <i_epik_Tot_abs_Q>
0

> <r_epik_Metal_State_Penalty>
-0

> <b_epik_Metal_Only>
0

> <s_lp_Force_Field>
OPLS_2005

> <r_lp_Energy>
61.4398

> <b_lp_Chiralities_Consistent>
1

> <s_lp_Variant>
AV-unprocessed.smi:220-2

> <Gold.Version>
5.8.1

> <Gold.Id.Protein>
6NUR|6NUR_protein|mol2

> <Gold.PLP.Fitness>
42.3774

> <Gold.PLP.PLP>
-34.6763

> <Gold.PLP.part.hbond>
-3.5726

> <Gold.PLP.part.metal>
0.0000

> <Gold.PLP.part.buried>
-6.0800

> <Gold.PLP.part.nonpolar>
-25.6795

> <Gold.PLP.part.repulsive>
0.1095

> <Gold.PLP.ligand.clash>
0.0000

> <Gold.PLP.ligand.torsion>
0.9398

> <Gold.PLP.Chemscore.Hbond>
3.0047

> <Gold.PLP.Chemscore.CHOScore>
0.0000

> <Gold.PLP.Chemscore.Metal>
0.0000

> <Gold.Chemscore.Hbonds>
donor molecule, donor type, donor heavy atom, donor atom, acceptor molecule, acceptor atom, score
      L1  H     1    28       P1 10956  0.26
      P1  H  6896  6909       L1    15  1.00
      P1  H  6931  6943       L1    24  1.00
      P1  H  6934  6947       L1    24  0.59

> <Gold.PLP.Chemscore.Internal.Correction>
0.5665

> <Gold.Rescore>
     Score         DG    S(hbond)    S(metal)    S(lipo)     H(rot)  DE(clash)    DE(int)     intcor
     12.88     -14.91       2.55        0.00      71.12       2.89       0.05       1.99       ----

> <Gold.Chemscore.Fitness>
12.8752

> <Gold.Chemscore.DG>
-14.9139

> <Gold.Chemscore.ZeroCoef>
-5.4800

> <Gold.Chemscore.Hbond>
2.5460

> <Gold.Chemscore.Metal>
0.0000

> <Gold.Chemscore.Lipo>
71.1188

> <Gold.Chemscore.Internal_Hbond>
0.0000

> <Gold.Chemscore.DEClash>
0.0476

> <Gold.Chemscore.DEInternal>
1.9912

> <Gold.Chemscore.Rot>
2.8869

> <Gold.Chemscore.Internal.Correction>
   9.000000E+99

> <Gold.Chemscore.Hbonds>
donor molecule, donor type, donor heavy atom, donor atom, acceptor molecule, acceptor atom, score
      L1  H     1    28       P1 10956  0.04
      P1  H  6896  6909       L1    15  0.77
      P1  H  6931  6943       L1    24  0.64
      P1  H  6934  6947       L1    24  0.48

> <Gold.Chemscore.Hbond.Weighted>
-8.5036

> <Gold.Chemscore.Metal.Weighted>
-0.0000

> <Gold.Chemscore.Lipo.Weighted>
-8.3209

> <Gold.Chemscore.Internal_Hbond.Weighted>
0.0000

> <Gold.Chemscore.DEClash.Weighted>
0.0476

> <Gold.Chemscore.DEInternal.Weighted>
1.9912

> <Gold.Chemscore.Rot.Weighted>
7.3905

> <Gold.Chemscore.Internal.Correction.Weighted>
   9.000000E+99

> <Gold.Protein.RotatedTorsions>
[ 6907 6896 6895 6894 ] final   -6.32 input  -60.11 | X-H torsion
[ 7974 7965 7964 7962 ] final  -94.62 input  175.53 | X-H torsion
[ 8008 7997 7996 7995 ] final  -89.25 input   59.86 | X-H torsion
[ 10167 10162 10161 10158 ] final   60.43 input  -65.29 | X-H torsion
[ 10718 10713 10712 10709 ] final -125.28 input   66.30 | X-H torsion
[ 10763 10752 10751 10750 ] final  -28.82 input  -60.55 | X-H torsion
[ 11005 11000 10999 10996 ] final -126.23 input  -57.11 | X-H torsion

> <Gold.Protein.ActiveResidues>
 VAL166  LYS551  ARG553  GLY616  TRP617  ASP618  TYR619  PRO620  LYS621  CYS622 
 ASP623  PHE694  ASN695  SER759  ASP760  ASP761  ALA762  ILE779  LEU786  VAL792 
 PHE793  MET794  SER795  GLU796  ALA797  LYS798  CYS799  TRP800  GLU811  SER814 

> <Gold.Protein.RotatedAtoms>
  151.4675  135.1043  159.9741 H   0  0  0  0  0  0  0  0  0  0  0  0  # atno 6907 bound_to 6896
  152.4829  133.8296  159.7107 H   0  0  0  0  0  0  0  0  0  0  0  0  # atno 6908 bound_to 6896
  150.8915  133.7176  159.2930 H   0  0  0  0  0  0  0  0  0  0  0  0  # atno 6909 bound_to 6896
  145.3709  140.9505  143.2447 H   0  0  0  0  0  0  0  0  0  0  0  0  # atno 7974 bound_to 7965
  154.6844  140.0544  157.0299 H   0  0  0  0  0  0  0  0  0  0  0  0  # atno 8008 bound_to 7997
  155.0906  140.3219  155.4556 H   0  0  0  0  0  0  0  0  0  0  0  0  # atno 8009 bound_to 7997
  156.2706  140.2048  156.6033 H   0  0  0  0  0  0  0  0  0  0  0  0  # atno 8010 bound_to 7997
  140.1656  144.4327  150.6687 H   0  0  0  0  0  0  0  0  0  0  0  0  # atno 10167 bound_to 10162
  156.1662  130.6636  151.0118 H   0  0  0  0  0  0  0  0  0  0  0  0  # atno 10718 bound_to 10713
  153.7545  135.6923  153.4938 H   0  0  0  0  0  0  0  0  0  0  0  0  # atno 10763 bound_to 10752
  153.1980  135.4447  155.0230 H   0  0  0  0  0  0  0  0  0  0  0  0  # atno 10764 bound_to 10752
  154.8175  135.3406  154.7064 H   0  0  0  0  0  0  0  0  0  0  0  0  # atno 10765 bound_to 10752
  140.9698  134.0821  157.3881 H   0  0  0  0  0  0  0  0  0  0  0  0  # atno 11005 bound_to 11000
  144.8577  139.5225  143.6827 LP  0  0  0  0  0  0  0  0  0  0  0  0  # atno 17320 bound_to 7965
  146.2885  139.7073  142.9178 LP  0  0  0  0  0  0  0  0  0  0  0  0  # atno 17321 bound_to 7965
  140.6615  143.2253  151.5845 LP  0  0  0  0  0  0  0  0  0  0  0  0  # atno 17342 bound_to 10162
  139.5361  144.2778  152.1253 LP  0  0  0  0  0  0  0  0  0  0  0  0  # atno 17343 bound_to 10162
  157.6769  131.0848  150.7470 LP  0  0  0  0  0  0  0  0  0  0  0  0  # atno 17370 bound_to 10713
  156.7531  130.4775  149.5452 LP  0  0  0  0  0  0  0  0  0  0  0  0  # atno 17371 bound_to 10713
  139.8908  135.0114  156.6756 LP  0  0  0  0  0  0  0  0  0  0  0  0  # atno 17394 bound_to 11000
  140.7345  133.9030  155.8234 LP  0  0  0  0  0  0  0  0  0  0  0  0  # atno 17395 bound_to 11000

$$$$
