AV-unprocessed.smi:1686|AV-procd|sdf|6765|dock10
  -GOLD-   22720 7523D 1   1.00000     0.00000
 Structure written by MMmdl.
 41 43  0  0  0  0  0  0  0  0  1 V2000
  150.1160  135.5805  155.0535 C   0  0  0  0  0  0  0  0  0  0  0  0
  150.3876  136.1479  156.4170 C   0  0  0  0  0  0  0  0  0  0  0  0
  149.8319  135.5754  157.4769 N   0  0  0  0  0  0  0  0  0  0  0  0
  150.2491  136.3155  158.5892 O   0  0  0  0  0  0  0  0  0  0  0  0
  151.0468  137.3063  158.1292 C   0  0  0  0  0  0  0  0  0  0  0  0
  151.7732  138.4628  159.1735 Cl  0  0  0  0  0  0  0  0  0  0  0  0
  151.1919  137.2709  156.7722 C   0  0  0  0  0  0  0  0  0  0  0  0
  151.9878  138.1838  155.8705 C   0  0  0  0  0  0  0  0  0  0  0  0
  151.3876  139.5936  155.8120 C   0  0  0  0  0  0  0  0  0  0  0  0
  150.9268  140.0491  154.7639 O   0  0  0  0  0  0  0  0  0  0  0  0
  151.4133  140.2789  156.9658 N   0  0  0  0  0  0  0  0  0  0  0  0
  150.9239  141.6413  157.1741 C   0  0  1  0  0  0  0  0  0  0  0  0
  149.4052  141.6574  156.9426 C   0  0  0  0  0  0  0  0  0  0  0  0
  151.3126  142.1231  158.5933 C   0  0  1  0  0  0  0  0  0  0  0  0
  152.8173  142.0106  158.9339 C   0  0  0  0  0  0  0  0  0  0  0  0
  153.1500  143.4016  159.5041 C   0  0  1  0  0  0  0  0  0  0  0  0
  153.2011  144.4172  158.3482 C   0  0  0  0  0  0  0  0  0  0  0  0
  151.7162  144.5775  157.9744 C   0  0  0  0  0  0  0  0  0  0  0  0
  151.0121  143.6028  158.9409 C   0  0  2  0  0  0  0  0  0  0  0  0
  151.8503  143.7842  160.2027 C   0  0  0  0  0  0  0  0  0  0  0  0
  150.4978  136.2312  154.2668 H   0  0  0  0  0  0  0  0  0  0  0  0
  149.0459  135.4577  154.8849 H   0  0  0  0  0  0  0  0  0  0  0  0
  150.5868  134.6045  154.9355 H   0  0  0  0  0  0  0  0  0  0  0  0
  153.0219  138.2633  156.2075 H   0  0  0  0  0  0  0  0  0  0  0  0
  152.0323  137.7862  154.8561 H   0  0  0  0  0  0  0  0  0  0  0  0
  151.8128  139.8192  157.7712 H   0  0  0  0  0  0  0  0  0  0  0  0
  151.3753  142.3034  156.4353 H   0  0  0  0  0  0  0  0  0  0  0  0
  149.0025  142.6673  157.0206 H   0  0  0  0  0  0  0  0  0  0  0  0
  148.8847  141.0334  157.6698 H   0  0  0  0  0  0  0  0  0  0  0  0
  149.1573  141.2874  155.9471 H   0  0  0  0  0  0  0  0  0  0  0  0
  150.7629  141.5079  159.3087 H   0  0  0  0  0  0  0  0  0  0  0  0
  152.9833  141.2301  159.6772 H   0  0  0  0  0  0  0  0  0  0  0  0
  153.4377  141.7775  158.0679 H   0  0  0  0  0  0  0  0  0  0  0  0
  154.0379  143.4147  160.1369 H   0  0  0  0  0  0  0  0  0  0  0  0
  153.6178  145.3683  158.6819 H   0  0  0  0  0  0  0  0  0  0  0  0
  153.8047  144.0630  157.5117 H   0  0  0  0  0  0  0  0  0  0  0  0
  151.3898  145.6007  158.1646 H   0  0  0  0  0  0  0  0  0  0  0  0
  151.5181  144.3682  156.9241 H   0  0  0  0  0  0  0  0  0  0  0  0
  149.9508  143.8131  159.0753 H   0  0  0  0  0  0  0  0  0  0  0  0
  151.5760  143.1029  161.0101 H   0  0  0  0  0  0  0  0  0  0  0  0
  151.8484  144.8075  160.5826 H   0  0  0  0  0  0  0  0  0  0  0  0
  1  2  1  0  0  0  0
  1 21  1  0  0  0  0
  1 22  1  0  0  0  0
  1 23  1  0  0  0  0
  2  7  1  0  0  0  0
  2  3  2  0  0  0  0
  3  4  1  0  0  0  0
  4  5  1  0  0  0  0
  5  6  1  0  0  0  0
  5  7  2  0  0  0  0
  7  8  1  0  0  0  0
  8  9  1  0  0  0  0
  8 24  1  0  0  0  0
  8 25  1  0  0  0  0
  9 10  2  0  0  0  0
  9 11  1  0  0  0  0
 11 12  1  0  0  0  0
 11 26  1  0  0  0  0
 12 13  1  0  0  0  0
 12 14  1  0  0  0  0
 12 27  1  0  0  0  0
 13 28  1  0  0  0  0
 13 29  1  0  0  0  0
 13 30  1  0  0  0  0
 14 19  1  0  0  0  0
 14 15  1  0  0  0  0
 14 31  1  0  0  0  0
 15 16  1  0  0  0  0
 15 32  1  0  0  0  0
 15 33  1  0  0  0  0
 16 20  1  0  0  0  0
 16 17  1  0  0  0  0
 16 34  1  0  0  0  0
 17 18  1  0  0  0  0
 17 35  1  0  0  0  0
 17 36  1  0  0  0  0
 18 19  1  0  0  0  0
 18 37  1  0  0  0  0
 18 38  1  0  0  0  0
 19 20  1  0  0  0  0
 19 39  1  0  0  0  0
 20 40  1  0  0  0  0
 20 41  1  0  0  0  0
M  END
> <s_m_source_file>
AV-unprocessed.smi

> <i_m_source_file_index>
1686

> <i_lp_mmshare_version>
43012

> <i_f3d_flags>
0

> <s_epik_input>
W0NIM11jMW5vYyhDbCljMVtDSDJdQyg9TylbTkhdW0NASF0oW0NIM10pW0NASF0oW0NIMl1bQ0BIXTIzKVtDQEhdKFtDSDJdMylbQ0gyXVtDSDJdMg==

> <s_epik_cmdline>
J2VwaWtfcHl0aG9uJywgJy1waCcsICc3LjAnLCAnLXRuJywgJzgnLCAnLW1hJywgJzIwMCcsICctbWV0YWxfYmluZGluZycsICctaW1hZScsICc8aW5maWxlLm1hZT4nLCAnLW9tYWUnLCAnPG91dGZpbGUubWFlPic=

> <r_lp_tautomer_probability>
1

> <r_epik_Ionization_Penalty>
2.01576e-08

> <r_epik_Ionization_Penalty_Charging>
0

> <r_epik_Ionization_Penalty_Neutral>
2.01576e-08

> <r_epik_State_Penalty>
-0

> <r_epik_Charging_Adjusted_Penalty>
0

> <i_epik_Tot_Q>
0

> <i_epik_Tot_abs_Q>
0

> <r_epik_Metal_State_Penalty>
-0

> <b_epik_Metal_Only>
0

> <s_lp_Force_Field>
OPLS_2005

> <r_lp_Energy>
47.064

> <b_lp_Chiralities_Consistent>
1

> <s_lp_Variant>
AV-unprocessed.smi:1686-8

> <Gold.Version>
5.8.1

> <Gold.Id.Protein>
6NUR|6NUR_protein|mol2

> <Gold.PLP.Fitness>
45.6885

> <Gold.PLP.PLP>
-40.4732

> <Gold.PLP.part.hbond>
-2.9346

> <Gold.PLP.part.metal>
0.0000

> <Gold.PLP.part.buried>
-6.5145

> <Gold.PLP.part.nonpolar>
-31.4140

> <Gold.PLP.part.repulsive>
0.1684

> <Gold.PLP.ligand.clash>
0.0000

> <Gold.PLP.ligand.torsion>
0.1686

> <Gold.PLP.Chemscore.Hbond>
1.8480

> <Gold.PLP.Chemscore.CHOScore>
0.0000

> <Gold.PLP.Chemscore.Metal>
0.0000

> <Gold.Chemscore.Hbonds>
donor molecule, donor type, donor heavy atom, donor atom, acceptor molecule, acceptor atom, score
      P1  H  6896  6907       L1     4  0.98
      P1  H  7989  7998       L1    10  1.00

> <Gold.PLP.Chemscore.Internal.Correction>
0.0084

> <Gold.Rescore>
     Score         DG    S(hbond)    S(metal)    S(lipo)     H(rot)  DE(clash)    DE(int)     intcor
     20.13     -21.60       1.74        0.00     120.19       1.46       0.04       1.43       ----

> <Gold.Chemscore.Fitness>
20.1347

> <Gold.Chemscore.DG>
-21.5995

> <Gold.Chemscore.ZeroCoef>
-5.4800

> <Gold.Chemscore.Hbond>
1.7387

> <Gold.Chemscore.Metal>
0.0000

> <Gold.Chemscore.Lipo>
120.1892

> <Gold.Chemscore.Internal_Hbond>
0.0000

> <Gold.Chemscore.DEClash>
0.0396

> <Gold.Chemscore.DEInternal>
1.4252

> <Gold.Chemscore.Rot>
1.4648

> <Gold.Chemscore.Internal.Correction>
   9.000000E+99

> <Gold.Chemscore.Hbonds>
donor molecule, donor type, donor heavy atom, donor atom, acceptor molecule, acceptor atom, score
      P1  H  6896  6907       L1     4  0.44
      P1  H  7989  7998       L1    10  1.00

> <Gold.Chemscore.Hbond.Weighted>
-5.8073

> <Gold.Chemscore.Metal.Weighted>
-0.0000

> <Gold.Chemscore.Lipo.Weighted>
-14.0621

> <Gold.Chemscore.Internal_Hbond.Weighted>
0.0000

> <Gold.Chemscore.DEClash.Weighted>
0.0396

> <Gold.Chemscore.DEInternal.Weighted>
1.4252

> <Gold.Chemscore.Rot.Weighted>
3.7500

> <Gold.Chemscore.Internal.Correction.Weighted>
   9.000000E+99

> <Gold.Protein.RotatedTorsions>
[ 6907 6896 6895 6894 ] final  -32.74 input  -60.11 | X-H torsion
[ 7974 7965 7964 7962 ] final   77.72 input  175.53 | X-H torsion
[ 8008 7997 7996 7995 ] final   91.85 input   59.86 | X-H torsion
[ 10167 10162 10161 10158 ] final    9.56 input  -65.29 | X-H torsion
[ 10718 10713 10712 10709 ] final  -65.93 input   66.30 | X-H torsion
[ 10763 10752 10751 10750 ] final   38.89 input  -60.55 | X-H torsion
[ 11005 11000 10999 10996 ] final   58.69 input  -57.11 | X-H torsion

> <Gold.Protein.ActiveResidues>
 VAL166  LYS551  ARG553  GLY616  TRP617  ASP618  TYR619  PRO620  LYS621  CYS622 
 ASP623  PHE694  ASN695  SER759  ASP760  ASP761  ALA762  ILE779  LEU786  VAL792 
 PHE793  MET794  SER795  GLU796  ALA797  LYS798  CYS799  TRP800  GLU811  SER814 

> <Gold.Protein.RotatedAtoms>
  151.0747  134.9821  159.8326 H   0  0  0  0  0  0  0  0  0  0  0  0  # atno 6907 bound_to 6896
  152.5413  134.2255  159.8814 H   0  0  0  0  0  0  0  0  0  0  0  0  # atno 6908 bound_to 6896
  151.2282  133.4421  159.2636 H   0  0  0  0  0  0  0  0  0  0  0  0  # atno 6909 bound_to 6896
  145.6863  139.2539  143.1785 H   0  0  0  0  0  0  0  0  0  0  0  0  # atno 7974 bound_to 7965
  156.0285  140.3332  155.7114 H   0  0  0  0  0  0  0  0  0  0  0  0  # atno 8008 bound_to 7997
  155.5919  140.0647  157.2774 H   0  0  0  0  0  0  0  0  0  0  0  0  # atno 8009 bound_to 7997
  154.4344  140.1825  156.1071 H   0  0  0  0  0  0  0  0  0  0  0  0  # atno 8010 bound_to 7997
  140.6247  143.8126  150.7219 H   0  0  0  0  0  0  0  0  0  0  0  0  # atno 10167 bound_to 10162
  156.0641  130.4254  150.1635 H   0  0  0  0  0  0  0  0  0  0  0  0  # atno 10718 bound_to 10713
  152.9985  135.6236  154.2378 H   0  0  0  0  0  0  0  0  0  0  0  0  # atno 10763 bound_to 10752
  154.2119  135.2799  155.2957 H   0  0  0  0  0  0  0  0  0  0  0  0  # atno 10764 bound_to 10752
  154.5600  135.5708  153.7057 H   0  0  0  0  0  0  0  0  0  0  0  0  # atno 10765 bound_to 10752
  140.0359  134.5944  155.9445 H   0  0  0  0  0  0  0  0  0  0  0  0  # atno 11005 bound_to 11000
  146.0920  140.7644  142.9590 LP  0  0  0  0  0  0  0  0  0  0  0  0  # atno 17320 bound_to 7965
  144.7010  140.3653  143.7156 LP  0  0  0  0  0  0  0  0  0  0  0  0  # atno 17321 bound_to 7965
  140.1724  143.4183  152.1991 LP  0  0  0  0  0  0  0  0  0  0  0  0  # atno 17342 bound_to 10162
  139.5470  144.7306  151.4553 LP  0  0  0  0  0  0  0  0  0  0  0  0  # atno 17343 bound_to 10162
  156.9698  130.9831  151.3461 LP  0  0  0  0  0  0  0  0  0  0  0  0  # atno 17370 bound_to 10713
  157.5671  130.8285  149.8342 LP  0  0  0  0  0  0  0  0  0  0  0  0  # atno 17371 bound_to 10713
  141.1857  133.6555  156.5209 LP  0  0  0  0  0  0  0  0  0  0  0  0  # atno 17394 bound_to 11000
  140.4148  134.7240  157.4857 LP  0  0  0  0  0  0  0  0  0  0  0  0  # atno 17395 bound_to 11000

$$$$
