AV-unprocessed.smi:809|AV-procd|sdf|3807|dock2
  -GOLD-   22720 1243D 1   1.00000     0.00000
 Structure written by MMmdl.
 39 40  0  0  0  0  0  0  0  0  3 V2000
  150.3969  141.7112  155.9115 C   0  0  0  0  0  0  0  0  0  0  0  0
  150.9043  140.3371  155.6053 C   0  0  0  0  0  0  0  0  0  0  0  0
  152.1968  139.8957  155.7186 C   0  0  0  0  0  0  0  0  0  0  0  0
  152.3475  138.2233  155.2611 S   0  0  0  0  0  0  0  0  0  0  0  0
  150.6175  138.1738  154.9145 C   0  0  0  0  0  0  0  0  0  0  0  0
  149.9489  137.0935  154.4796 N   0  5  0  0  0  0  0  0  0  0  0  0
  150.3437  135.8569  154.8582 C   0  0  0  0  0  0  0  0  0  0  0  0
  151.2859  135.5860  155.6058 O   0  0  0  0  0  0  0  0  0  0  0  0
  149.6032  134.8738  154.3285 N   0  0  0  0  0  0  0  0  0  0  0  0
  149.8191  133.4403  154.5072 C   0  0  0  0  0  0  0  0  0  0  0  0
  148.5862  132.5706  154.1385 C   0  0  1  0  0  0  0  0  0  0  0  0
  147.5993  132.8047  155.1276 O   0  0  0  0  0  0  0  0  0  0  0  0
  147.9940  133.0444  152.7918 C   0  0  0  0  0  0  0  0  0  0  0  0
  146.8256  132.1658  152.3089 C   0  0  0  0  0  0  0  0  0  0  0  0
  147.2278  130.7409  152.2311 N   0  3  2  0  0  0  0  0  0  0  0  0
  146.1709  129.8889  151.6448 C   0  0  0  0  0  0  0  0  0  0  0  0
  147.7031  130.2310  153.5393 C   0  0  0  0  0  0  0  0  0  0  0  0
  148.8948  131.0552  154.0577 C   0  0  0  0  0  0  0  0  0  0  0  0
  150.0251  139.3490  155.1547 N   0  0  0  0  0  0  0  0  0  0  0  0
  150.5480  141.9589  156.9622 H   0  0  0  0  0  0  0  0  0  0  0  0
  149.3308  141.8044  155.7015 H   0  0  0  0  0  0  0  0  0  0  0  0
  150.9163  142.4622  155.3161 H   0  0  0  0  0  0  0  0  0  0  0  0
  153.0654  140.4485  156.0428 H   0  0  0  0  0  0  0  0  0  0  0  0
  148.8376  135.1482  153.7307 H   0  0  0  0  0  0  0  0  0  0  0  0
  150.7158  133.1087  153.9802 H   0  0  0  0  0  0  0  0  0  0  0  0
  150.0418  133.3165  155.5672 H   0  0  0  0  0  0  0  0  0  0  0  0
  148.0201  133.0968  155.9207 H   0  0  0  0  0  0  0  0  0  0  0  0
  147.6695  134.0835  152.8650 H   0  0  0  0  0  0  0  0  0  0  0  0
  148.7735  133.0269  152.0287 H   0  0  0  0  0  0  0  0  0  0  0  0
  145.9681  132.2702  152.9755 H   0  0  0  0  0  0  0  0  0  0  0  0
  146.5014  132.5065  151.3247 H   0  0  0  0  0  0  0  0  0  0  0  0
  145.2764  129.8898  152.2689 H   0  0  0  0  0  0  0  0  0  0  0  0
  146.5171  128.8599  151.5440 H   0  0  0  0  0  0  0  0  0  0  0  0
  145.8959  130.2452  150.6515 H   0  0  0  0  0  0  0  0  0  0  0  0
  146.8846  130.2515  154.2606 H   0  0  0  0  0  0  0  0  0  0  0  0
  148.0047  129.1879  153.4361 H   0  0  0  0  0  0  0  0  0  0  0  0
  149.7479  130.8971  153.3966 H   0  0  0  0  0  0  0  0  0  0  0  0
  149.1907  130.6688  155.0340 H   0  0  0  0  0  0  0  0  0  0  0  0
  148.0159  130.6953  151.6009 H   0  0  0  0  0  0  0  0  0  0  0  0
  1  2  1  0  0  0  0
  1 20  1  0  0  0  0
  1 21  1  0  0  0  0
  1 22  1  0  0  0  0
  2 19  1  0  0  0  0
  2  3  2  0  0  0  0
  3  4  1  0  0  0  0
  3 23  1  0  0  0  0
  4  5  1  0  0  0  0
  5  6  1  0  0  0  0
  5 19  2  0  0  0  0
  6  7  1  0  0  0  0
  7  8  2  0  0  0  0
  7  9  1  0  0  0  0
  9 10  1  0  0  0  0
  9 24  1  0  0  0  0
 10 11  1  0  0  0  0
 10 25  1  0  0  0  0
 10 26  1  0  0  0  0
 11 18  1  0  0  0  0
 11 12  1  0  0  0  0
 11 13  1  0  0  0  0
 12 27  1  0  0  0  0
 13 14  1  0  0  0  0
 13 28  1  0  0  0  0
 13 29  1  0  0  0  0
 14 15  1  0  0  0  0
 14 30  1  0  0  0  0
 14 31  1  0  0  0  0
 15 16  1  0  0  0  0
 15 17  1  0  0  0  0
 15 39  1  0  0  0  0
 16 32  1  0  0  0  0
 16 33  1  0  0  0  0
 16 34  1  0  0  0  0
 17 18  1  0  0  0  0
 17 35  1  0  0  0  0
 17 36  1  0  0  0  0
 18 37  1  0  0  0  0
 18 38  1  0  0  0  0
M  CHG  1   6  -1
M  CHG  1  15   1
M  END
> <s_m_source_file>
AV-unprocessed.smi

> <i_m_source_file_index>
809

> <i_lp_mmshare_version>
43012

> <i_f3d_flags>
0

> <s_epik_input>
W0NIM11jMVtjSF1zYyhuMSlbTkhdQyg9TylbTkhdW0NIMl1DMihbT0hdKVtDSDJdW0NIMl1OKFtDSDNdKVtDSDJdW0NIMl0y

> <s_epik_cmdline>
J2VwaWtfcHl0aG9uJywgJy1waCcsICc3LjAnLCAnLXRuJywgJzgnLCAnLW1hJywgJzIwMCcsICctbWV0YWxfYmluZGluZycsICctaW1hZScsICc8aW5maWxlLm1hZT4nLCAnLW9tYWUnLCAnPG91dGZpbGUubWFlPic=

> <r_lp_tautomer_probability>
0.999

> <r_epik_Ionization_Penalty>
8.50704

> <r_epik_Ionization_Penalty_Charging>
6.65046

> <r_epik_Ionization_Penalty_Neutral>
1.85657

> <r_epik_State_Penalty>
6.64992

> <r_epik_Charging_Adjusted_Penalty>
13.3004

> <i_epik_Tot_Q>
0

> <i_epik_Tot_abs_Q>
2

> <r_epik_Metal_State_Penalty>
2.57297

> <b_epik_Metal_Only>
1

> <s_lp_Force_Field>
OPLS_2005

> <r_lp_Energy>
10.5193

> <b_lp_Chiralities_Consistent>
1

> <s_lp_Variant>
AV-unprocessed.smi:809-3

> <Gold.Version>
5.8.1

> <Gold.Id.Protein>
6NUR|6NUR_protein|mol2

> <Gold.PLP.Fitness>
40.0148

> <Gold.PLP.PLP>
-33.6262

> <Gold.PLP.part.hbond>
-3.0000

> <Gold.PLP.part.metal>
0.0000

> <Gold.PLP.part.buried>
-2.0119

> <Gold.PLP.part.nonpolar>
-29.4374

> <Gold.PLP.part.repulsive>
1.8227

> <Gold.PLP.ligand.clash>
0.0000

> <Gold.PLP.ligand.torsion>
0.4387

> <Gold.PLP.Chemscore.Hbond>
2.4066

> <Gold.PLP.Chemscore.CHOScore>
0.0000

> <Gold.PLP.Chemscore.Metal>
0.0000

> <Gold.Chemscore.Hbonds>
donor molecule, donor type, donor heavy atom, donor atom, acceptor molecule, acceptor atom, score
      L1  H     9    24       P1  7948  0.39
      L1  H    15    39       P1 10747  1.00
      P1  H 10752 10763       L1     8  1.00

> <Gold.PLP.Chemscore.Internal.Correction>
0.0461

> <Gold.Rescore>
     Score         DG    S(hbond)    S(metal)    S(lipo)     H(rot)  DE(clash)    DE(int)     intcor
     15.15     -17.24       2.33        0.00      73.95       1.82       0.36       1.73       ----

> <Gold.Chemscore.Fitness>
15.1496

> <Gold.Chemscore.DG>
-17.2437

> <Gold.Chemscore.ZeroCoef>
-5.4800

> <Gold.Chemscore.Hbond>
2.3256

> <Gold.Chemscore.Metal>
0.0000

> <Gold.Chemscore.Lipo>
73.9492

> <Gold.Chemscore.Internal_Hbond>
0.0000

> <Gold.Chemscore.DEClash>
0.3607

> <Gold.Chemscore.DEInternal>
1.7334

> <Gold.Chemscore.Rot>
1.8186

> <Gold.Chemscore.Internal.Correction>
   9.000000E+99

> <Gold.Chemscore.Hbonds>
donor molecule, donor type, donor heavy atom, donor atom, acceptor molecule, acceptor atom, score
      L1  H     9    24       P1  7948  0.27
      L1  H    15    39       P1 10747  0.99
      P1  H 10752 10763       L1     8  0.98

> <Gold.Chemscore.Hbond.Weighted>
-7.7674

> <Gold.Chemscore.Metal.Weighted>
-0.0000

> <Gold.Chemscore.Lipo.Weighted>
-8.6521

> <Gold.Chemscore.Internal_Hbond.Weighted>
0.0000

> <Gold.Chemscore.DEClash.Weighted>
0.3607

> <Gold.Chemscore.DEInternal.Weighted>
1.7334

> <Gold.Chemscore.Rot.Weighted>
4.6557

> <Gold.Chemscore.Internal.Correction.Weighted>
   9.000000E+99

> <Gold.Protein.RotatedTorsions>
[ 6907 6896 6895 6894 ] final  -99.91 input  -60.11 | X-H torsion
[ 7974 7965 7964 7962 ] final   84.39 input  175.53 | X-H torsion
[ 8008 7997 7996 7995 ] final  168.15 input   59.86 | X-H torsion
[ 10167 10162 10161 10158 ] final -135.59 input  -65.29 | X-H torsion
[ 10718 10713 10712 10709 ] final  -41.87 input   66.30 | X-H torsion
[ 10763 10752 10751 10750 ] final   83.71 input  -60.55 | X-H torsion
[ 11005 11000 10999 10996 ] final  -81.20 input  -57.11 | X-H torsion

> <Gold.Protein.ActiveResidues>
 VAL166  LYS551  ARG553  GLY616  TRP617  ASP618  TYR619  PRO620  LYS621  CYS622 
 ASP623  PHE694  ASN695  SER759  ASP760  ASP761  ALA762  ILE779  LEU786  VAL792 
 PHE793  MET794  SER795  GLU796  ALA797  LYS798  CYS799  TRP800  GLU811  SER814 

> <Gold.Protein.RotatedAtoms>
  150.7096  134.0968  159.3951 H   0  0  0  0  0  0  0  0  0  0  0  0  # atno 6907 bound_to 6896
  151.8954  135.0397  160.0511 H   0  0  0  0  0  0  0  0  0  0  0  0  # atno 6908 bound_to 6896
  152.2457  133.5137  159.5333 H   0  0  0  0  0  0  0  0  0  0  0  0  # atno 6909 bound_to 6896
  145.5994  139.2350  143.2254 H   0  0  0  0  0  0  0  0  0  0  0  0  # atno 7974 bound_to 7965
  156.1572  140.1598  156.8673 H   0  0  0  0  0  0  0  0  0  0  0  0  # atno 8008 bound_to 7997
  154.5126  140.0797  156.8055 H   0  0  0  0  0  0  0  0  0  0  0  0  # atno 8009 bound_to 7997
  155.3780  140.3403  155.4248 H   0  0  0  0  0  0  0  0  0  0  0  0  # atno 8010 bound_to 7997
  139.8763  143.6894  152.2633 H   0  0  0  0  0  0  0  0  0  0  0  0  # atno 10167 bound_to 10162
  156.2657  130.4201  149.8493 H   0  0  0  0  0  0  0  0  0  0  0  0  # atno 10718 bound_to 10713
  153.1315  135.4681  154.9356 H   0  0  0  0  0  0  0  0  0  0  0  0  # atno 10763 bound_to 10752
  154.7668  135.3147  154.8271 H   0  0  0  0  0  0  0  0  0  0  0  0  # atno 10764 bound_to 10752
  153.8813  135.6894  153.4821 H   0  0  0  0  0  0  0  0  0  0  0  0  # atno 10765 bound_to 10752
  141.1667  133.7185  156.8387 H   0  0  0  0  0  0  0  0  0  0  0  0  # atno 11005 bound_to 11000
  146.1588  140.6819  142.9287 LP  0  0  0  0  0  0  0  0  0  0  0  0  # atno 17320 bound_to 7965
  144.7316  140.4689  143.6933 LP  0  0  0  0  0  0  0  0  0  0  0  0  # atno 17321 bound_to 7965
  139.7237  144.7597  151.0913 LP  0  0  0  0  0  0  0  0  0  0  0  0  # atno 17342 bound_to 10162
  140.7752  143.5175  150.9577 LP  0  0  0  0  0  0  0  0  0  0  0  0  # atno 17343 bound_to 10162
  156.5992  130.8539  151.3427 LP  0  0  0  0  0  0  0  0  0  0  0  0  # atno 17370 bound_to 10713
  157.7266  130.9632  150.1665 LP  0  0  0  0  0  0  0  0  0  0  0  0  # atno 17371 bound_to 10713
  140.1999  134.8905  157.3157 LP  0  0  0  0  0  0  0  0  0  0  0  0  # atno 17394 bound_to 11000
  140.2199  134.4036  155.7571 LP  0  0  0  0  0  0  0  0  0  0  0  0  # atno 17395 bound_to 11000

$$$$
