AV-unprocessed.smi:928|AV-procd|sdf|4193|dock2
  -GOLD-   22720 2103D 1   1.00000     0.00000
 Structure written by MMmdl.
 43 44  0  0  0  0  0  0  0  0  1 V2000
  152.3804  139.0619  155.3508 C   0  0  0  0  0  0  0  0  0  0  0  0
  151.6527  140.3698  155.6803 C   0  0  0  0  0  0  0  0  0  0  0  0
  150.2846  140.4455  155.0873 C   0  0  0  0  0  0  0  0  0  0  0  0
  149.4546  141.5379  155.0331 C   0  0  0  0  0  0  0  0  0  0  0  0
  148.2355  141.2903  154.3983 N   0  0  0  0  0  0  0  0  0  0  0  0
  148.1230  140.0258  153.9863 C   0  0  0  0  0  0  0  0  0  0  0  0
  146.9395  139.5040  153.2436 C   0  0  0  0  0  0  0  0  0  0  0  0
  146.3756  138.2218  153.8762 C   0  0  0  0  0  0  0  0  0  0  0  0
  146.6784  137.0445  153.0714 N   0  0  0  0  0  0  0  0  0  0  0  0
  145.8036  136.0754  152.7699 C   0  0  0  0  0  0  0  0  0  0  0  0
  144.6310  136.0625  153.1452 O   0  0  0  0  0  0  0  0  0  0  0  0
  146.3620  135.1219  152.0121 N   0  0  0  0  0  0  0  0  0  0  0  0
  145.6792  133.9287  151.5157 C   0  0  2  0  0  0  0  0  0  0  0  0
  146.5547  133.1460  150.5145 C   0  0  0  0  0  0  0  0  0  0  0  0
  145.8238  131.8942  150.0028 C   0  0  0  0  0  0  0  0  0  0  0  0
  144.4613  132.2506  149.3863 C   0  0  0  0  0  0  0  0  0  0  0  0
  143.5854  133.0455  150.3726 C   0  0  0  0  0  0  0  0  0  0  0  0
  144.3058  134.2977  150.9099 C   0  0  2  0  0  0  0  0  0  0  0  0
  144.4489  135.2321  149.8554 O   0  0  0  0  0  0  0  0  0  0  0  0
  149.5470  139.0537  154.3360 S   0  0  0  0  0  0  0  0  0  0  0  0
  153.3756  139.0482  155.7954 H   0  0  0  0  0  0  0  0  0  0  0  0
  152.4951  138.9373  154.2736 H   0  0  0  0  0  0  0  0  0  0  0  0
  151.8338  138.1987  155.7318 H   0  0  0  0  0  0  0  0  0  0  0  0
  151.5830  140.4813  156.7628 H   0  0  0  0  0  0  0  0  0  0  0  0
  152.2491  141.2121  155.3287 H   0  0  0  0  0  0  0  0  0  0  0  0
  149.6531  142.5288  155.4143 H   0  0  0  0  0  0  0  0  0  0  0  0
  146.1747  140.2811  153.2199 H   0  0  0  0  0  0  0  0  0  0  0  0
  147.2311  139.3214  152.2084 H   0  0  0  0  0  0  0  0  0  0  0  0
  146.7623  138.0929  154.8886 H   0  0  0  0  0  0  0  0  0  0  0  0
  145.2916  138.2983  153.9656 H   0  0  0  0  0  0  0  0  0  0  0  0
  147.6200  136.9647  152.7165 H   0  0  0  0  0  0  0  0  0  0  0  0
  147.3336  135.2257  151.7601 H   0  0  0  0  0  0  0  0  0  0  0  0
  145.4850  133.2761  152.3695 H   0  0  0  0  0  0  0  0  0  0  0  0
  146.8234  133.7842  149.6717 H   0  0  0  0  0  0  0  0  0  0  0  0
  147.4922  132.8487  150.9860 H   0  0  0  0  0  0  0  0  0  0  0  0
  146.4413  131.3790  149.2665 H   0  0  0  0  0  0  0  0  0  0  0  0
  145.6783  131.1954  150.8274 H   0  0  0  0  0  0  0  0  0  0  0  0
  144.6137  132.8331  148.4770 H   0  0  0  0  0  0  0  0  0  0  0  0
  143.9430  131.3408  149.0828 H   0  0  0  0  0  0  0  0  0  0  0  0
  142.6444  133.3244  149.8969 H   0  0  0  0  0  0  0  0  0  0  0  0
  143.3213  132.3998  151.2109 H   0  0  0  0  0  0  0  0  0  0  0  0
  143.6845  134.7635  151.6758 H   0  0  0  0  0  0  0  0  0  0  0  0
  145.2047  134.9924  149.3422 H   0  0  0  0  0  0  0  0  0  0  0  0
  1  2  1  0  0  0  0
  1 21  1  0  0  0  0
  1 22  1  0  0  0  0
  1 23  1  0  0  0  0
  2  3  1  0  0  0  0
  2 24  1  0  0  0  0
  2 25  1  0  0  0  0
  3 20  1  0  0  0  0
  3  4  2  0  0  0  0
  4  5  1  0  0  0  0
  4 26  1  0  0  0  0
  5  6  2  0  0  0  0
  6  7  1  0  0  0  0
  6 20  1  0  0  0  0
  7  8  1  0  0  0  0
  7 27  1  0  0  0  0
  7 28  1  0  0  0  0
  8  9  1  0  0  0  0
  8 29  1  0  0  0  0
  8 30  1  0  0  0  0
  9 10  1  0  0  0  0
  9 31  1  0  0  0  0
 10 11  2  0  0  0  0
 10 12  1  0  0  0  0
 12 13  1  0  0  0  0
 12 32  1  0  0  0  0
 13 18  1  0  0  0  0
 13 14  1  0  0  0  0
 13 33  1  0  0  0  0
 14 15  1  0  0  0  0
 14 34  1  0  0  0  0
 14 35  1  0  0  0  0
 15 16  1  0  0  0  0
 15 36  1  0  0  0  0
 15 37  1  0  0  0  0
 16 17  1  0  0  0  0
 16 38  1  0  0  0  0
 16 39  1  0  0  0  0
 17 18  1  0  0  0  0
 17 40  1  0  0  0  0
 17 41  1  0  0  0  0
 18 19  1  0  0  0  0
 18 42  1  0  0  0  0
 19 43  1  0  0  0  0
M  END
> <s_m_source_file>
AV-unprocessed.smi

> <i_m_source_file_index>
928

> <i_lp_mmshare_version>
43012

> <i_f3d_flags>
0

> <s_epik_input>
W0NIM11bQ0gyXWMxW2NIXW5jKHMxKVtDSDJdW0NIMl1bTkhdQyg9TylbTkhdW0NAQEhdMltDSDJdW0NIMl1bQ0gyXVtDSDJdW0NASF0yW09IXQ==

> <s_epik_cmdline>
J2VwaWtfcHl0aG9uJywgJy1waCcsICc3LjAnLCAnLXRuJywgJzgnLCAnLW1hJywgJzIwMCcsICctbWV0YWxfYmluZGluZycsICctaW1hZScsICc8aW5maWxlLm1hZT4nLCAnLW9tYWUnLCAnPG91dGZpbGUubWFlPic=

> <r_epik_Ionization_Penalty>
0.000957396

> <r_epik_Ionization_Penalty_Charging>
0

> <r_epik_Ionization_Penalty_Neutral>
0.000957396

> <r_epik_State_Penalty>
0.000586538

> <r_epik_Charging_Adjusted_Penalty>
0.000586538

> <i_epik_Tot_Q>
0

> <i_epik_Tot_abs_Q>
0

> <r_epik_Metal_State_Penalty>
-0

> <b_epik_Metal_Only>
0

> <s_lp_Force_Field>
OPLS_2005

> <r_lp_Energy>
-0.721606

> <b_lp_Chiralities_Consistent>
1

> <s_lp_Variant>
AV-unprocessed.smi:928-3

> <Gold.Version>
5.8.1

> <Gold.Id.Protein>
6NUR|6NUR_protein|mol2

> <Gold.PLP.Fitness>
49.3276

> <Gold.PLP.PLP>
-38.6856

> <Gold.PLP.part.hbond>
-3.0000

> <Gold.PLP.part.metal>
0.0000

> <Gold.PLP.part.buried>
-2.4693

> <Gold.PLP.part.nonpolar>
-33.9992

> <Gold.PLP.part.repulsive>
0.2623

> <Gold.PLP.ligand.clash>
0.0000

> <Gold.PLP.ligand.torsion>
0.6799

> <Gold.PLP.Chemscore.Hbond>
2.9920

> <Gold.PLP.Chemscore.CHOScore>
1.0000

> <Gold.PLP.Chemscore.Metal>
0.0000

> <Gold.Chemscore.Hbonds>
donor molecule, donor type, donor heavy atom, donor atom, acceptor molecule, acceptor atom, score
      L1  H     9    31       P1  7948  1.00
      L1  H    12    32       P1  7948  1.00
      L1  H    19    43       P1  7921  1.00
      L1  C     4    26       P1  8028  1.00

> <Gold.PLP.Chemscore.Internal.Correction>
0.0258

> <Gold.Rescore>
     Score         DG    S(hbond)    S(metal)    S(lipo)     H(rot)  DE(clash)    DE(int)     intcor
     19.34     -21.52       2.82        0.00     104.94       2.21       0.12       2.07       ----

> <Gold.Chemscore.Fitness>
19.3368

> <Gold.Chemscore.DG>
-21.5188

> <Gold.Chemscore.ZeroCoef>
-5.4800

> <Gold.Chemscore.Hbond>
2.8186

> <Gold.Chemscore.Metal>
0.0000

> <Gold.Chemscore.Lipo>
104.9421

> <Gold.Chemscore.Internal_Hbond>
0.0000

> <Gold.Chemscore.DEClash>
0.1160

> <Gold.Chemscore.DEInternal>
2.0661

> <Gold.Chemscore.Rot>
2.2084

> <Gold.Chemscore.Internal.Correction>
   9.000000E+99

> <Gold.Chemscore.Hbonds>
donor molecule, donor type, donor heavy atom, donor atom, acceptor molecule, acceptor atom, score
      L1  H     9    31       P1  7948  0.99
      L1  H    12    32       P1  7948  0.91
      L1  H    19    43       P1  7921  0.94

> <Gold.Chemscore.Hbond.Weighted>
-9.4142

> <Gold.Chemscore.Metal.Weighted>
-0.0000

> <Gold.Chemscore.Lipo.Weighted>
-12.2782

> <Gold.Chemscore.Internal_Hbond.Weighted>
0.0000

> <Gold.Chemscore.DEClash.Weighted>
0.1160

> <Gold.Chemscore.DEInternal.Weighted>
2.0661

> <Gold.Chemscore.Rot.Weighted>
5.6535

> <Gold.Chemscore.Internal.Correction.Weighted>
   9.000000E+99

> <Gold.Protein.RotatedTorsions>
[ 6907 6896 6895 6894 ] final  -24.41 input  -60.11 | X-H torsion
[ 7974 7965 7964 7962 ] final  -64.77 input  175.53 | X-H torsion
[ 8008 7997 7996 7995 ] final -104.31 input   59.86 | X-H torsion
[ 10167 10162 10161 10158 ] final -132.66 input  -65.29 | X-H torsion
[ 10718 10713 10712 10709 ] final   96.55 input   66.30 | X-H torsion
[ 10763 10752 10751 10750 ] final  -55.55 input  -60.55 | X-H torsion
[ 11005 11000 10999 10996 ] final   88.96 input  -57.11 | X-H torsion

> <Gold.Protein.ActiveResidues>
 VAL166  LYS551  ARG553  GLY616  TRP617  ASP618  TYR619  PRO620  LYS621  CYS622 
 ASP623  PHE694  ASN695  SER759  ASP760  ASP761  ALA762  ILE779  LEU786  VAL792 
 PHE793  MET794  SER795  GLU796  ALA797  LYS798  CYS799  TRP800  GLU811  SER814 

> <Gold.Protein.RotatedAtoms>
  151.1899  135.0398  159.8827 H   0  0  0  0  0  0  0  0  0  0  0  0  # atno 6907 bound_to 6896
  152.5440  134.0968  159.8310 H   0  0  0  0  0  0  0  0  0  0  0  0  # atno 6908 bound_to 6896
  151.1095  133.5136  159.2638 H   0  0  0  0  0  0  0  0  0  0  0  0  # atno 6909 bound_to 6896
  145.7625  140.8854  143.0422 H   0  0  0  0  0  0  0  0  0  0  0  0  # atno 7974 bound_to 7965
  154.8835  140.0418  157.1796 H   0  0  0  0  0  0  0  0  0  0  0  0  # atno 8008 bound_to 7997
  154.8614  140.2944  155.5516 H   0  0  0  0  0  0  0  0  0  0  0  0  # atno 8009 bound_to 7997
  156.2998  140.2446  156.3589 H   0  0  0  0  0  0  0  0  0  0  0  0  # atno 8010 bound_to 7997
  139.9063  143.6548  152.2585 H   0  0  0  0  0  0  0  0  0  0  0  0  # atno 10167 bound_to 10162
  157.6925  131.0582  150.4509 H   0  0  0  0  0  0  0  0  0  0  0  0  # atno 10718 bound_to 10713
  154.1925  135.6425  153.5064 H   0  0  0  0  0  0  0  0  0  0  0  0  # atno 10763 bound_to 10752
  153.0031  135.5432  154.6400 H   0  0  0  0  0  0  0  0  0  0  0  0  # atno 10764 bound_to 10752
  154.5792  135.2923  155.0722 H   0  0  0  0  0  0  0  0  0  0  0  0  # atno 10765 bound_to 10752
  139.8885  134.8521  156.3074 H   0  0  0  0  0  0  0  0  0  0  0  0  # atno 11005 bound_to 11000
  144.6827  139.9743  143.7482 LP  0  0  0  0  0  0  0  0  0  0  0  0  # atno 17320 bound_to 7965
  146.0249  139.3284  143.0790 LP  0  0  0  0  0  0  0  0  0  0  0  0  # atno 17321 bound_to 7965
  139.6982  144.7638  151.1320 LP  0  0  0  0  0  0  0  0  0  0  0  0  # atno 17342 bound_to 10162
  140.7696  143.5495  150.9221 LP  0  0  0  0  0  0  0  0  0  0  0  0  # atno 17343 bound_to 10162
  156.4860  130.4084  149.6434 LP  0  0  0  0  0  0  0  0  0  0  0  0  # atno 17370 bound_to 10713
  156.3461  130.7408  151.2360 LP  0  0  0  0  0  0  0  0  0  0  0  0  # atno 17371 bound_to 10713
  140.9873  133.7230  156.0761 LP  0  0  0  0  0  0  0  0  0  0  0  0  # atno 17394 bound_to 11000
  140.7671  134.3874  157.5515 LP  0  0  0  0  0  0  0  0  0  0  0  0  # atno 17395 bound_to 11000

$$$$
