AV-unprocessed.smi:1703|AV-procd|sdf|6866|dock3
  -GOLD-   22720 8 63D 1   1.00000     0.00000
 Structure written by MMmdl.
 49 51  0  0  0  0  0  0  0  0  2 V2000
  147.2747  141.8423  156.2556 C   0  0  0  0  0  0  0  0  0  0  0  0
  148.0187  141.8749  154.9084 C   0  0  1  0  0  0  0  0  0  0  0  0
  149.5505  141.7858  155.0517 C   0  0  0  0  0  0  0  0  0  0  0  0
  149.9682  140.4126  155.4263 N   0  3  2  0  0  0  0  0  0  0  0  0
  151.4286  140.2740  155.6567 C   0  0  0  0  0  0  0  0  0  0  0  0
  151.8064  138.8831  156.2023 C   0  0  1  0  0  0  0  0  0  0  0  0
  153.2128  138.7375  156.1402 O   0  0  0  0  0  0  0  0  0  0  0  0
  151.3285  138.6890  157.6552 C   0  0  0  0  0  0  0  0  0  0  0  0
  152.2581  139.2421  158.6314 N   0  0  0  0  0  0  0  0  0  0  0  0
  153.2506  138.6019  159.3000 C   0  0  0  0  0  0  0  0  0  0  0  0
  153.5274  137.1410  159.1165 C   0  0  0  0  0  0  0  0  0  0  0  0
  153.3896  136.4056  160.3134 O   0  0  0  0  0  0  0  0  0  0  0  0
  153.9649  139.3540  160.1377 N   0  0  0  0  0  0  0  0  0  0  0  0
  153.3784  140.5976  160.0057 C   0  0  0  0  0  0  0  0  0  0  0  0
  153.6822  141.8274  160.6323 C   0  0  0  0  0  0  0  0  0  0  0  0
  152.9325  142.9845  160.3351 C   0  0  0  0  0  0  0  0  0  0  0  0
  151.8703  142.9286  159.4097 C   0  0  0  0  0  0  0  0  0  0  0  0
  151.5509  141.7134  158.7741 C   0  0  0  0  0  0  0  0  0  0  0  0
  152.3035  140.5613  159.0728 C   0  0  0  0  0  0  0  0  0  0  0  0
  149.4483  139.4338  154.4446 C   0  0  0  0  0  0  0  0  0  0  0  0
  147.9156  139.5384  154.3444 C   0  0  2  0  0  0  0  0  0  0  0  0
  147.3461  138.6041  153.2712 C   0  0  0  0  0  0  0  0  0  0  0  0
  147.5506  140.8738  154.0042 O   0  0  0  0  0  0  0  0  0  0  0  0
  147.5603  142.6931  156.8746 H   0  0  0  0  0  0  0  0  0  0  0  0
  147.4907  140.9407  156.8280 H   0  0  0  0  0  0  0  0  0  0  0  0
  146.1962  141.8932  156.1051 H   0  0  0  0  0  0  0  0  0  0  0  0
  147.7848  142.8333  154.4437 H   0  0  0  0  0  0  0  0  0  0  0  0
  150.0216  142.0550  154.1048 H   0  0  0  0  0  0  0  0  0  0  0  0
  149.8914  142.5131  155.7877 H   0  0  0  0  0  0  0  0  0  0  0  0
  151.9671  140.4374  154.7216 H   0  0  0  0  0  0  0  0  0  0  0  0
  151.7608  141.0580  156.3392 H   0  0  0  0  0  0  0  0  0  0  0  0
  151.3640  138.1041  155.5832 H   0  0  0  0  0  0  0  0  0  0  0  0
  153.4184  138.0207  155.5593 H   0  0  0  0  0  0  0  0  0  0  0  0
  150.3540  139.1573  157.8006 H   0  0  0  0  0  0  0  0  0  0  0  0
  151.1841  137.6294  157.8667 H   0  0  0  0  0  0  0  0  0  0  0  0
  152.8615  136.7286  158.3591 H   0  0  0  0  0  0  0  0  0  0  0  0
  154.5441  137.0111  158.7438 H   0  0  0  0  0  0  0  0  0  0  0  0
  154.2218  136.0090  160.5205 H   0  0  0  0  0  0  0  0  0  0  0  0
  154.4933  141.8809  161.3431 H   0  0  0  0  0  0  0  0  0  0  0  0
  153.1735  143.9194  160.8195 H   0  0  0  0  0  0  0  0  0  0  0  0
  151.3013  143.8194  159.1878 H   0  0  0  0  0  0  0  0  0  0  0  0
  150.7385  141.6695  158.0645 H   0  0  0  0  0  0  0  0  0  0  0  0
  149.9091  139.6137  153.4718 H   0  0  0  0  0  0  0  0  0  0  0  0
  149.7242  138.4233  154.7488 H   0  0  0  0  0  0  0  0  0  0  0  0
  147.4668  139.2670  155.3000 H   0  0  0  0  0  0  0  0  0  0  0  0
  147.5866  137.5633  153.4888 H   0  0  0  0  0  0  0  0  0  0  0  0
  147.7480  138.8413  152.2858 H   0  0  0  0  0  0  0  0  0  0  0  0
  146.2605  138.6889  153.2172 H   0  0  0  0  0  0  0  0  0  0  0  0
  149.5222  140.1954  156.3066 H   0  0  0  0  0  0  0  0  0  0  0  0
  1  2  1  0  0  0  0
  1 24  1  0  0  0  0
  1 25  1  0  0  0  0
  1 26  1  0  0  0  0
  2 23  1  0  0  0  0
  2  3  1  0  0  0  0
  2 27  1  0  0  0  0
  3  4  1  0  0  0  0
  3 28  1  0  0  0  0
  3 29  1  0  0  0  0
  4  5  1  0  0  0  0
  4 20  1  0  0  0  0
  4 49  1  0  0  0  0
  5  6  1  0  0  0  0
  5 30  1  0  0  0  0
  5 31  1  0  0  0  0
  6  7  1  0  0  0  0
  6  8  1  0  0  0  0
  6 32  1  0  0  0  0
  7 33  1  0  0  0  0
  8  9  1  0  0  0  0
  8 34  1  0  0  0  0
  8 35  1  0  0  0  0
  9 19  1  0  0  0  0
  9 10  1  0  0  0  0
 10 11  1  0  0  0  0
 10 13  2  0  0  0  0
 11 12  1  0  0  0  0
 11 36  1  0  0  0  0
 11 37  1  0  0  0  0
 12 38  1  0  0  0  0
 13 14  1  0  0  0  0
 14 19  2  0  0  0  0
 14 15  1  0  0  0  0
 15 16  2  0  0  0  0
 15 39  1  0  0  0  0
 16 17  1  0  0  0  0
 16 40  1  0  0  0  0
 17 18  2  0  0  0  0
 17 41  1  0  0  0  0
 18 19  1  0  0  0  0
 18 42  1  0  0  0  0
 20 21  1  0  0  0  0
 20 43  1  0  0  0  0
 20 44  1  0  0  0  0
 21 22  1  0  0  0  0
 21 23  1  0  0  0  0
 21 45  1  0  0  0  0
 22 46  1  0  0  0  0
 22 47  1  0  0  0  0
 22 48  1  0  0  0  0
M  CHG  1   4   1
M  END
> <s_m_source_file>
AV-unprocessed.smi

> <i_m_source_file_index>
1703

> <i_lp_mmshare_version>
43012

> <i_f3d_flags>
0

> <s_epik_input>
W0NIM11bQ0BASF0xW0NIMl1OKFtDSDJdW0NASF0oTzEpW0NIM10pW0NIMl1bQ0BIXShbT0hdKVtDSDJdbihjKG4yKVtDSDJdW09IXSljKGMyMylbY0hdW2NIXVtjSF1bY0hdMw==

> <s_epik_cmdline>
J2VwaWtfcHl0aG9uJywgJy1waCcsICc3LjAnLCAnLXRuJywgJzgnLCAnLW1hJywgJzIwMCcsICctbWV0YWxfYmluZGluZycsICctaW1hZScsICc8aW5maWxlLm1hZT4nLCAnLW9tYWUnLCAnPG91dGZpbGUubWFlPic=

> <r_epik_Ionization_Penalty>
0.655661

> <r_epik_Ionization_Penalty_Charging>
0.608065

> <r_epik_Ionization_Penalty_Neutral>
0.0475963

> <r_epik_State_Penalty>
0.695267

> <r_epik_Charging_Adjusted_Penalty>
1.30333

> <i_epik_Tot_Q>
1

> <i_epik_Tot_abs_Q>
1

> <r_epik_Metal_State_Penalty>
0.653591

> <b_epik_Metal_Only>
0

> <s_lp_Force_Field>
OPLS_2005

> <r_lp_Energy>
24.2834

> <b_lp_Chiralities_Consistent>
1

> <s_lp_Variant>
AV-unprocessed.smi:1703-14

> <Gold.Version>
5.8.1

> <Gold.Id.Protein>
6NUR|6NUR_protein|mol2

> <Gold.PLP.Fitness>
43.5108

> <Gold.PLP.PLP>
-38.7459

> <Gold.PLP.part.hbond>
-2.0000

> <Gold.PLP.part.metal>
0.0000

> <Gold.PLP.part.buried>
-1.7788

> <Gold.PLP.part.nonpolar>
-35.2560

> <Gold.PLP.part.repulsive>
0.2563

> <Gold.PLP.ligand.clash>
0.0000

> <Gold.PLP.ligand.torsion>
0.6750

> <Gold.PLP.Chemscore.Hbond>
2.0000

> <Gold.PLP.Chemscore.CHOScore>
0.0000

> <Gold.PLP.Chemscore.Metal>
0.0000

> <Gold.Chemscore.Hbonds>
donor molecule, donor type, donor heavy atom, donor atom, acceptor molecule, acceptor atom, score
      P1  H  6896  6907       L1    12  0.95
      P1  H  7997  8009       L1     7  1.00

> <Gold.PLP.Chemscore.Internal.Correction>
0.1149

> <Gold.Rescore>
     Score         DG    S(hbond)    S(metal)    S(lipo)     H(rot)  DE(clash)    DE(int)     intcor
     15.58     -16.72       1.78        0.00     110.07       2.96       0.36       0.79       ----

> <Gold.Chemscore.Fitness>
15.5824

> <Gold.Chemscore.DG>
-16.7248

> <Gold.Chemscore.ZeroCoef>
-5.4800

> <Gold.Chemscore.Hbond>
1.7807

> <Gold.Chemscore.Metal>
0.0000

> <Gold.Chemscore.Lipo>
110.0655

> <Gold.Chemscore.Internal_Hbond>
0.0000

> <Gold.Chemscore.DEClash>
0.3564

> <Gold.Chemscore.DEInternal>
0.7860

> <Gold.Chemscore.Rot>
2.9611

> <Gold.Chemscore.Internal.Correction>
   9.000000E+99

> <Gold.Chemscore.Hbonds>
donor molecule, donor type, donor heavy atom, donor atom, acceptor molecule, acceptor atom, score
      P1  H  6896  6907       L1    12  0.18
      P1  H  7997  8009       L1     7  0.94

> <Gold.Chemscore.Hbond.Weighted>
-5.9475

> <Gold.Chemscore.Metal.Weighted>
-0.0000

> <Gold.Chemscore.Lipo.Weighted>
-12.8777

> <Gold.Chemscore.Internal_Hbond.Weighted>
0.0000

> <Gold.Chemscore.DEClash.Weighted>
0.3564

> <Gold.Chemscore.DEInternal.Weighted>
0.7860

> <Gold.Chemscore.Rot.Weighted>
7.5803

> <Gold.Chemscore.Internal.Correction.Weighted>
   9.000000E+99

> <Gold.Protein.RotatedTorsions>
[ 6907 6896 6895 6894 ] final   52.57 input  -60.11 | X-H torsion
[ 7974 7965 7964 7962 ] final -175.32 input  175.53 | X-H torsion
[ 8008 7997 7996 7995 ] final -162.60 input   59.86 | X-H torsion
[ 10167 10162 10161 10158 ] final   12.40 input  -65.29 | X-H torsion
[ 10718 10713 10712 10709 ] final -148.09 input   66.30 | X-H torsion
[ 10763 10752 10751 10750 ] final  146.27 input  -60.55 | X-H torsion
[ 11005 11000 10999 10996 ] final -160.35 input  -57.11 | X-H torsion

> <Gold.Protein.ActiveResidues>
 VAL166  LYS551  ARG553  GLY616  TRP617  ASP618  TYR619  PRO620  LYS621  CYS622 
 ASP623  PHE694  ASN695  SER759  ASP760  ASP761  ALA762  ILE779  LEU786  VAL792 
 PHE793  MET794  SER795  GLU796  ALA797  LYS798  CYS799  TRP800  GLU811  SER814 

> <Gold.Protein.RotatedAtoms>
  152.3246  134.7337  160.0304 H   0  0  0  0  0  0  0  0  0  0  0  0  # atno 6907 bound_to 6896
  151.7774  133.3341  159.3470 H   0  0  0  0  0  0  0  0  0  0  0  0  # atno 6908 bound_to 6896
  150.7389  134.5894  159.6024 H   0  0  0  0  0  0  0  0  0  0  0  0  # atno 6909 bound_to 6896
  144.7128  140.1338  143.6397 H   0  0  0  0  0  0  0  0  0  0  0  0  # atno 7974 bound_to 7965
  155.8091  140.0903  157.1914 H   0  0  0  0  0  0  0  0  0  0  0  0  # atno 8008 bound_to 7997
  154.3980  140.1458  156.3425 H   0  0  0  0  0  0  0  0  0  0  0  0  # atno 8009 bound_to 7997
  155.8383  140.3440  155.5618 H   0  0  0  0  0  0  0  0  0  0  0  0  # atno 8010 bound_to 7997
  140.6070  143.8487  150.7024 H   0  0  0  0  0  0  0  0  0  0  0  0  # atno 10167 bound_to 10162
  156.4158  130.8004  151.2224 H   0  0  0  0  0  0  0  0  0  0  0  0  # atno 10718 bound_to 10713
  154.0192  135.2907  155.3383 H   0  0  0  0  0  0  0  0  0  0  0  0  # atno 10763 bound_to 10752
  154.7057  135.5170  153.8594 H   0  0  0  0  0  0  0  0  0  0  0  0  # atno 10764 bound_to 10752
  153.0689  135.6640  154.0415 H   0  0  0  0  0  0  0  0  0  0  0  0  # atno 10765 bound_to 10752
  140.6324  134.4637  157.5230 H   0  0  0  0  0  0  0  0  0  0  0  0  # atno 11005 bound_to 11000
  145.9263  139.2577  143.1352 LP  0  0  0  0  0  0  0  0  0  0  0  0  # atno 17320 bound_to 7965
  145.9569  140.8865  143.0230 LP  0  0  0  0  0  0  0  0  0  0  0  0  # atno 17321 bound_to 7965
  140.2046  143.3931  152.1765 LP  0  0  0  0  0  0  0  0  0  0  0  0  # atno 17342 bound_to 10162
  139.5332  144.7182  151.4982 LP  0  0  0  0  0  0  0  0  0  0  0  0  # atno 17343 bound_to 10162
  157.7508  131.0243  150.3873 LP  0  0  0  0  0  0  0  0  0  0  0  0  # atno 17370 bound_to 10713
  156.4180  130.3947  149.6845 LP  0  0  0  0  0  0  0  0  0  0  0  0  # atno 17371 bound_to 10713
  139.9111  134.8343  156.1526 LP  0  0  0  0  0  0  0  0  0  0  0  0  # atno 17394 bound_to 11000
  141.0665  133.6816  156.2056 LP  0  0  0  0  0  0  0  0  0  0  0  0  # atno 17395 bound_to 11000

$$$$
