AV-unprocessed.smi:2567|AV-procd|sdf|10082|dock6
  -GOLD-   2272014113D 1   1.00000     0.00000
 Structure written by MMmdl.
 33 34  0  0  0  0  0  0  0  0  1 V2000
  151.5284  144.8533  160.3290 C   0  0  0  0  0  0  0  0  0  0  0  0
  152.0496  143.8965  159.2336 C   0  0  0  0  0  0  0  0  0  0  0  0
  152.7947  144.7697  158.2002 C   0  0  0  0  0  0  0  0  0  0  0  0
  153.0261  142.8791  159.8506 C   0  0  0  0  0  0  0  0  0  0  0  0
  150.9049  143.1636  158.5729 C   0  0  0  0  0  0  0  0  0  0  0  0
  149.6739  143.1861  159.0906 N   0  0  0  0  0  0  0  0  0  0  0  0
  149.0096  142.3176  158.3007 N   0  0  0  0  0  0  0  0  0  0  0  0
  149.8557  141.7909  157.4153 C   0  0  0  0  0  0  0  0  0  0  0  0
  149.4257  140.7610  156.4187 C   0  0  2  0  0  0  0  0  0  0  0  0
  149.7920  141.1546  154.9744 C   0  0  0  0  0  0  0  0  0  0  0  0
  149.2735  140.1641  154.0324 N   0  0  0  0  0  0  0  0  0  0  0  0
  147.8333  139.9774  154.2030 C   0  0  0  0  0  0  0  0  0  0  0  0
  147.5085  139.6202  155.6646 C   0  0  0  0  0  0  0  0  0  0  0  0
  148.0100  140.6354  156.5277 O   0  0  0  0  0  0  0  0  0  0  0  0
  151.0904  142.2612  157.5582 N   0  0  0  0  0  0  0  0  0  0  0  0
  148.0283  142.1072  158.4139 H   0  0  0  0  0  0  0  0  0  0  0  0
  152.3440  145.4158  160.7848 H   0  0  0  0  0  0  0  0  0  0  0  0
  151.0265  144.3142  161.1331 H   0  0  0  0  0  0  0  0  0  0  0  0
  150.8194  145.5757  159.9222 H   0  0  0  0  0  0  0  0  0  0  0  0
  152.1229  145.4872  157.7274 H   0  0  0  0  0  0  0  0  0  0  0  0
  153.2426  144.1669  157.4093 H   0  0  0  0  0  0  0  0  0  0  0  0
  153.6028  145.3346  158.6660 H   0  0  0  0  0  0  0  0  0  0  0  0
  153.8687  143.3780  160.3304 H   0  0  0  0  0  0  0  0  0  0  0  0
  153.4293  142.2075  159.0917 H   0  0  0  0  0  0  0  0  0  0  0  0
  152.5340  142.2645  160.6053 H   0  0  0  0  0  0  0  0  0  0  0  0
  149.8947  139.8103  156.6803 H   0  0  0  0  0  0  0  0  0  0  0  0
  149.3765  142.1362  154.7430 H   0  0  0  0  0  0  0  0  0  0  0  0
  150.8741  141.2393  154.8706 H   0  0  0  0  0  0  0  0  0  0  0  0
  149.4662  140.4654  153.0825 H   0  0  0  0  0  0  0  0  0  0  0  0
  147.3055  140.8900  153.9237 H   0  0  0  0  0  0  0  0  0  0  0  0
  147.4758  139.1921  153.5368 H   0  0  0  0  0  0  0  0  0  0  0  0
  146.4298  139.5434  155.8005 H   0  0  0  0  0  0  0  0  0  0  0  0
  147.9330  138.6517  155.9344 H   0  0  0  0  0  0  0  0  0  0  0  0
  1  2  1  0  0  0  0
  1 17  1  0  0  0  0
  1 18  1  0  0  0  0
  1 19  1  0  0  0  0
  2  3  1  0  0  0  0
  2  4  1  0  0  0  0
  2  5  1  0  0  0  0
  3 20  1  0  0  0  0
  3 21  1  0  0  0  0
  3 22  1  0  0  0  0
  4 23  1  0  0  0  0
  4 24  1  0  0  0  0
  4 25  1  0  0  0  0
  5 15  1  0  0  0  0
  5  6  2  0  0  0  0
  6  7  1  0  0  0  0
  7 16  1  0  0  0  0
  7  8  1  0  0  0  0
  8  9  1  0  0  0  0
  8 15  2  0  0  0  0
  9 14  1  0  0  0  0
  9 10  1  0  0  0  0
  9 26  1  0  0  0  0
 10 11  1  0  0  0  0
 10 27  1  0  0  0  0
 10 28  1  0  0  0  0
 11 12  1  0  0  0  0
 11 29  1  0  0  0  0
 12 13  1  0  0  0  0
 12 30  1  0  0  0  0
 12 31  1  0  0  0  0
 13 14  1  0  0  0  0
 13 32  1  0  0  0  0
 13 33  1  0  0  0  0
M  END
> <s_m_source_file>
AV-unprocessed.smi

> <i_m_source_file_index>
2567

> <i_lp_mmshare_version>
43012

> <i_f3d_flags>
0

> <s_epik_input>
W0NIM11DKFtDSDNdKShbQ0gzXSljMW5bbkhdYyhuMSlbQ0BASF0yW0NIMl1bTkhdW0NIMl1bQ0gyXU8y

> <s_epik_cmdline>
J2VwaWtfcHl0aG9uJywgJy1waCcsICc3LjAnLCAnLXRuJywgJzgnLCAnLW1hJywgJzIwMCcsICctbWV0YWxfYmluZGluZycsICctaW1hZScsICc8aW5maWxlLm1hZT4nLCAnLW9tYWUnLCAnPG91dGZpbGUubWFlPic=

> <r_epik_Ionization_Penalty>
0.981987

> <r_epik_Ionization_Penalty_Charging>
0

> <r_epik_Ionization_Penalty_Neutral>
0.981987

> <r_epik_State_Penalty>
2.09479

> <r_epik_Charging_Adjusted_Penalty>
2.09479

> <i_epik_Tot_Q>
0

> <i_epik_Tot_abs_Q>
0

> <r_epik_Metal_State_Penalty>
2.40362

> <b_epik_Metal_Only>
0

> <s_lp_Force_Field>
OPLS_2005

> <r_lp_Energy>
12.9727

> <b_lp_Chiralities_Consistent>
1

> <s_lp_Variant>
AV-unprocessed.smi:2567-7

> <Gold.Version>
5.8.1

> <Gold.Id.Protein>
6NUR|6NUR_protein|mol2

> <Gold.PLP.Fitness>
31.0752

> <Gold.PLP.PLP>
-28.3403

> <Gold.PLP.part.hbond>
-1.7037

> <Gold.PLP.part.metal>
0.0000

> <Gold.PLP.part.buried>
-4.2321

> <Gold.PLP.part.nonpolar>
-22.8592

> <Gold.PLP.part.repulsive>
0.3805

> <Gold.PLP.ligand.clash>
0.0000

> <Gold.PLP.ligand.torsion>
0.2344

> <Gold.PLP.Chemscore.Hbond>
1.0000

> <Gold.PLP.Chemscore.CHOScore>
0.0000

> <Gold.PLP.Chemscore.Metal>
0.0000

> <Gold.Chemscore.Hbonds>
donor molecule, donor type, donor heavy atom, donor atom, acceptor molecule, acceptor atom, score
      L1  H    11    29       P1  7957  0.99

> <Gold.PLP.Chemscore.Internal.Correction>
0.2037

> <Gold.Rescore>
     Score         DG    S(hbond)    S(metal)    S(lipo)     H(rot)  DE(clash)    DE(int)     intcor
     13.71     -13.95       0.98        0.00      71.67       1.25       0.06       0.18       ----

> <Gold.Chemscore.Fitness>
13.7071

> <Gold.Chemscore.DG>
-13.9458

> <Gold.Chemscore.ZeroCoef>
-5.4800

> <Gold.Chemscore.Hbond>
0.9783

> <Gold.Chemscore.Metal>
0.0000

> <Gold.Chemscore.Lipo>
71.6720

> <Gold.Chemscore.Internal_Hbond>
0.0000

> <Gold.Chemscore.DEClash>
0.0590

> <Gold.Chemscore.DEInternal>
0.1797

> <Gold.Chemscore.Rot>
1.2450

> <Gold.Chemscore.Internal.Correction>
   9.000000E+99

> <Gold.Chemscore.Hbonds>
donor molecule, donor type, donor heavy atom, donor atom, acceptor molecule, acceptor atom, score
      L1  H    11    29       P1  7957  0.92

> <Gold.Chemscore.Hbond.Weighted>
-3.2674

> <Gold.Chemscore.Metal.Weighted>
-0.0000

> <Gold.Chemscore.Lipo.Weighted>
-8.3856

> <Gold.Chemscore.Internal_Hbond.Weighted>
0.0000

> <Gold.Chemscore.DEClash.Weighted>
0.0590

> <Gold.Chemscore.DEInternal.Weighted>
0.1797

> <Gold.Chemscore.Rot.Weighted>
3.1872

> <Gold.Chemscore.Internal.Correction.Weighted>
   9.000000E+99

> <Gold.Protein.RotatedTorsions>
[ 6907 6896 6895 6894 ] final  152.59 input  -60.11 | X-H torsion
[ 7974 7965 7964 7962 ] final -124.89 input  175.53 | X-H torsion
[ 8008 7997 7996 7995 ] final -159.57 input   59.86 | X-H torsion
[ 10167 10162 10161 10158 ] final  -27.74 input  -65.29 | X-H torsion
[ 10718 10713 10712 10709 ] final -139.30 input   66.30 | X-H torsion
[ 10763 10752 10751 10750 ] final  101.19 input  -60.55 | X-H torsion
[ 11005 11000 10999 10996 ] final  -93.84 input  -57.11 | X-H torsion

> <Gold.Protein.ActiveResidues>
 VAL166  LYS551  ARG553  GLY616  TRP617  ASP618  TYR619  PRO620  LYS621  CYS622 
 ASP623  PHE694  ASN695  SER759  ASP760  ASP761  ALA762  ILE779  LEU786  VAL792 
 PHE793  MET794  SER795  GLU796  ALA797  LYS798  CYS799  TRP800  GLU811  SER814 

> <Gold.Protein.RotatedAtoms>
  152.0846  133.4170  159.4516 H   0  0  0  0  0  0  0  0  0  0  0  0  # atno 6907 bound_to 6896
  150.6862  134.2942  159.4688 H   0  0  0  0  0  0  0  0  0  0  0  0  # atno 6908 bound_to 6896
  152.0787  134.9485  160.0624 H   0  0  0  0  0  0  0  0  0  0  0  0  # atno 6909 bound_to 6896
  145.0033  140.7840  143.4483 H   0  0  0  0  0  0  0  0  0  0  0  0  # atno 7974 bound_to 7965
  155.7646  140.0844  157.2138 H   0  0  0  0  0  0  0  0  0  0  0  0  # atno 8008 bound_to 7997
  154.4001  140.1536  156.2928 H   0  0  0  0  0  0  0  0  0  0  0  0  # atno 8009 bound_to 7997
  155.8806  140.3420  155.5888 H   0  0  0  0  0  0  0  0  0  0  0  0  # atno 8010 bound_to 7997
  140.7275  143.4068  151.1172 H   0  0  0  0  0  0  0  0  0  0  0  0  # atno 10167 bound_to 10162
  156.3092  130.7472  151.1544 H   0  0  0  0  0  0  0  0  0  0  0  0  # atno 10718 bound_to 10713
  153.3235  135.4053  155.1436 H   0  0  0  0  0  0  0  0  0  0  0  0  # atno 10763 bound_to 10752
  154.8606  135.3593  154.5565 H   0  0  0  0  0  0  0  0  0  0  0  0  # atno 10764 bound_to 10752
  153.6000  135.7071  153.5447 H   0  0  0  0  0  0  0  0  0  0  0  0  # atno 10765 bound_to 10752
  141.1486  133.7915  157.0215 H   0  0  0  0  0  0  0  0  0  0  0  0  # atno 11005 bound_to 11000
  145.2122  139.2199  143.5137 LP  0  0  0  0  0  0  0  0  0  0  0  0  # atno 17320 bound_to 7965
  146.3456  140.1963  142.8589 LP  0  0  0  0  0  0  0  0  0  0  0  0  # atno 17321 bound_to 7965
  139.7696  143.8514  152.3118 LP  0  0  0  0  0  0  0  0  0  0  0  0  # atno 17342 bound_to 10162
  139.8428  144.7202  150.9310 LP  0  0  0  0  0  0  0  0  0  0  0  0  # atno 17343 bound_to 10162
  157.7387  131.0538  150.5279 LP  0  0  0  0  0  0  0  0  0  0  0  0  # atno 17370 bound_to 10713
  156.5416  130.4209  149.6151 LP  0  0  0  0  0  0  0  0  0  0  0  0  # atno 17371 bound_to 10713
  140.0812  134.9647  157.1627 LP  0  0  0  0  0  0  0  0  0  0  0  0  # atno 17394 bound_to 11000
  140.3574  134.2532  155.7191 LP  0  0  0  0  0  0  0  0  0  0  0  0  # atno 17395 bound_to 11000

$$$$
