AV-unprocessed.smi:1410|AV-procd|sdf|5729|dock6
  -GOLD-   22720 5363D 1   1.00000     0.00000
 Structure written by MMmdl.
 39 40  0  0  0  0  0  0  0  0  1 V2000
  146.6438  135.7024  153.2006 N   0  0  0  0  0  0  0  0  0  0  0  0
  145.9262  136.7995  153.4545 C   0  0  0  0  0  0  0  0  0  0  0  0
  144.9767  136.7968  154.2351 O   0  0  0  0  0  0  0  0  0  0  0  0
  146.3384  138.0895  152.7347 C   0  0  0  0  0  0  0  0  0  0  0  0
  146.9302  139.1210  153.6170 N   0  0  0  0  0  0  0  0  0  0  0  0
  147.2494  140.3120  152.8225 C   0  0  0  0  0  0  0  0  0  0  0  0
  147.7422  141.4530  153.7298 C   0  0  0  0  0  0  0  0  0  0  0  0
  148.9801  141.0262  154.5304 C   0  0  0  0  0  0  0  0  0  0  0  0
  149.3591  142.0829  155.4637 N   0  0  0  0  0  0  0  0  0  0  0  0
  150.2029  141.9361  156.4954 C   0  0  0  0  0  0  0  0  0  0  0  0
  150.7592  140.8725  156.7692 O   0  0  0  0  0  0  0  0  0  0  0  0
  150.3332  143.0845  157.1824 N   0  0  0  0  0  0  0  0  0  0  0  0
  151.1319  143.3517  158.3279 C   0  0  0  0  0  0  0  0  0  0  0  0
  151.7030  142.2511  158.9999 C   0  0  0  0  0  0  0  0  0  0  0  0
  152.4855  142.4871  160.1480 C   0  0  0  0  0  0  0  0  0  0  0  0
  152.7135  143.7188  160.6498 N   0  0  0  0  0  0  0  0  0  0  0  0
  152.1546  144.7702  160.0140 C   0  0  0  0  0  0  0  0  0  0  0  0
  151.3564  144.6448  158.8592 C   0  0  0  0  0  0  0  0  0  0  0  0
  148.6638  139.7208  155.2783 C   0  0  0  0  0  0  0  0  0  0  0  0
  148.1296  138.6418  154.3200 C   0  0  0  0  0  0  0  0  0  0  0  0
  146.4067  134.8337  153.6573 H   0  0  0  0  0  0  0  0  0  0  0  0
  147.4211  135.7446  152.5577 H   0  0  0  0  0  0  0  0  0  0  0  0
  147.0330  137.8553  151.9254 H   0  0  0  0  0  0  0  0  0  0  0  0
  145.4396  138.4898  152.2630 H   0  0  0  0  0  0  0  0  0  0  0  0
  148.0027  140.0761  152.0685 H   0  0  0  0  0  0  0  0  0  0  0  0
  146.3603  140.6486  152.2877 H   0  0  0  0  0  0  0  0  0  0  0  0
  147.9729  142.3308  153.1252 H   0  0  0  0  0  0  0  0  0  0  0  0
  146.9398  141.7468  154.4088 H   0  0  0  0  0  0  0  0  0  0  0  0
  149.7994  140.8497  153.8304 H   0  0  0  0  0  0  0  0  0  0  0  0
  148.9419  142.9902  155.3147 H   0  0  0  0  0  0  0  0  0  0  0  0
  149.7486  143.8492  156.8784 H   0  0  0  0  0  0  0  0  0  0  0  0
  151.5514  141.2426  158.6435 H   0  0  0  0  0  0  0  0  0  0  0  0
  152.9386  141.6628  160.6786 H   0  0  0  0  0  0  0  0  0  0  0  0
  152.3438  145.7433  160.4425 H   0  0  0  0  0  0  0  0  0  0  0  0
  150.9290  145.5324  158.4192 H   0  0  0  0  0  0  0  0  0  0  0  0
  149.5570  139.3503  155.7827 H   0  0  0  0  0  0  0  0  0  0  0  0
  147.9245  139.9082  156.0587 H   0  0  0  0  0  0  0  0  0  0  0  0
  147.9079  137.7515  154.9082 H   0  0  0  0  0  0  0  0  0  0  0  0
  148.9003  138.3605  153.6002 H   0  0  0  0  0  0  0  0  0  0  0  0
  1  2  1  0  0  0  0
  1 21  1  0  0  0  0
  1 22  1  0  0  0  0
  2  3  2  0  0  0  0
  2  4  1  0  0  0  0
  4  5  1  0  0  0  0
  4 23  1  0  0  0  0
  4 24  1  0  0  0  0
  5 20  1  0  0  0  0
  5  6  1  0  0  0  0
  6  7  1  0  0  0  0
  6 25  1  0  0  0  0
  6 26  1  0  0  0  0
  7  8  1  0  0  0  0
  7 27  1  0  0  0  0
  7 28  1  0  0  0  0
  8  9  1  0  0  0  0
  8 19  1  0  0  0  0
  8 29  1  0  0  0  0
  9 10  1  0  0  0  0
  9 30  1  0  0  0  0
 10 11  2  0  0  0  0
 10 12  1  0  0  0  0
 12 13  1  0  0  0  0
 12 31  1  0  0  0  0
 13 18  1  0  0  0  0
 13 14  2  0  0  0  0
 14 15  1  0  0  0  0
 14 32  1  0  0  0  0
 15 16  2  0  0  0  0
 15 33  1  0  0  0  0
 16 17  1  0  0  0  0
 17 18  2  0  0  0  0
 17 34  1  0  0  0  0
 18 35  1  0  0  0  0
 19 20  1  0  0  0  0
 19 36  1  0  0  0  0
 19 37  1  0  0  0  0
 20 38  1  0  0  0  0
 20 39  1  0  0  0  0
M  END
> <s_m_source_file>
AV-unprocessed.smi

> <i_m_source_file_index>
1410

> <i_lp_mmshare_version>
43012

> <i_f3d_flags>
0

> <s_epik_input>
W05IMl1DKD1PKVtDSDJdTjFbQ0gyXVtDSDJdW0NIXShbQ0gyXVtDSDJdMSlbTkhdQyg9TylbTkhdYzJbY0hdW2NIXW5bY0hdW2NIXTI=

> <s_epik_cmdline>
J2VwaWtfcHl0aG9uJywgJy1waCcsICc3LjAnLCAnLXRuJywgJzgnLCAnLW1hJywgJzIwMCcsICctbWV0YWxfYmluZGluZycsICctaW1hZScsICc8aW5maWxlLm1hZT4nLCAnLW9tYWUnLCAnPG91dGZpbGUubWFlPic=

> <r_epik_Ionization_Penalty>
0.286942

> <r_epik_Ionization_Penalty_Charging>
0

> <r_epik_Ionization_Penalty_Neutral>
0.286942

> <r_epik_State_Penalty>
0.264061

> <r_epik_Charging_Adjusted_Penalty>
0.264061

> <i_epik_Tot_Q>
0

> <i_epik_Tot_abs_Q>
0

> <r_epik_Metal_State_Penalty>
0.256326

> <b_epik_Metal_Only>
0

> <s_lp_Force_Field>
OPLS_2005

> <r_lp_Energy>
16.89

> <b_lp_Chiralities_Consistent>
1

> <s_lp_Variant>
AV-unprocessed.smi:1410-1

> <Gold.Version>
5.8.1

> <Gold.Id.Protein>
6NUR|6NUR_protein|mol2

> <Gold.PLP.Fitness>
43.7527

> <Gold.PLP.PLP>
-35.3734

> <Gold.PLP.part.hbond>
-3.0000

> <Gold.PLP.part.metal>
0.0000

> <Gold.PLP.part.buried>
-5.1665

> <Gold.PLP.part.nonpolar>
-29.0234

> <Gold.PLP.part.repulsive>
0.5217

> <Gold.PLP.ligand.clash>
0.0000

> <Gold.PLP.ligand.torsion>
0.3044

> <Gold.PLP.Chemscore.Hbond>
2.9920

> <Gold.PLP.Chemscore.CHOScore>
0.0000

> <Gold.PLP.Chemscore.Metal>
0.0000

> <Gold.Chemscore.Hbonds>
donor molecule, donor type, donor heavy atom, donor atom, acceptor molecule, acceptor atom, score
      L1  H     1    22       P1  7948  1.00
      L1  H     9    30       P1  8028  1.00
      L1  H    12    31       P1  8028  1.00

> <Gold.PLP.Chemscore.Internal.Correction>
0.0120

> <Gold.Rescore>
     Score         DG    S(hbond)    S(metal)    S(lipo)     H(rot)  DE(clash)    DE(int)     intcor
     17.88     -21.27       2.91        0.00      94.33       1.94       0.22       3.17       ----

> <Gold.Chemscore.Fitness>
17.8793

> <Gold.Chemscore.DG>
-21.2747

> <Gold.Chemscore.ZeroCoef>
-5.4800

> <Gold.Chemscore.Hbond>
2.9108

> <Gold.Chemscore.Metal>
0.0000

> <Gold.Chemscore.Lipo>
94.3278

> <Gold.Chemscore.Internal_Hbond>
0.0000

> <Gold.Chemscore.DEClash>
0.2222

> <Gold.Chemscore.DEInternal>
3.1732

> <Gold.Chemscore.Rot>
1.9389

> <Gold.Chemscore.Internal.Correction>
   9.000000E+99

> <Gold.Chemscore.Hbonds>
donor molecule, donor type, donor heavy atom, donor atom, acceptor molecule, acceptor atom, score
      L1  H     1    22       P1  7948  1.00
      L1  H     9    30       P1  8028  0.95
      L1  H    12    31       P1  8028  0.93

> <Gold.Chemscore.Hbond.Weighted>
-9.7219

> <Gold.Chemscore.Metal.Weighted>
-0.0000

> <Gold.Chemscore.Lipo.Weighted>
-11.0363

> <Gold.Chemscore.Internal_Hbond.Weighted>
0.0000

> <Gold.Chemscore.DEClash.Weighted>
0.2222

> <Gold.Chemscore.DEInternal.Weighted>
3.1732

> <Gold.Chemscore.Rot.Weighted>
4.9636

> <Gold.Chemscore.Internal.Correction.Weighted>
   9.000000E+99

> <Gold.Protein.RotatedTorsions>
[ 6907 6896 6895 6894 ] final   91.51 input  -60.11 | X-H torsion
[ 7974 7965 7964 7962 ] final  169.17 input  175.53 | X-H torsion
[ 8008 7997 7996 7995 ] final -172.15 input   59.86 | X-H torsion
[ 10167 10162 10161 10158 ] final   99.96 input  -65.29 | X-H torsion
[ 10718 10713 10712 10709 ] final  -57.95 input   66.30 | X-H torsion
[ 10763 10752 10751 10750 ] final   -1.20 input  -60.55 | X-H torsion
[ 11005 11000 10999 10996 ] final   49.70 input  -57.11 | X-H torsion

> <Gold.Protein.ActiveResidues>
 VAL166  LYS551  ARG553  GLY616  TRP617  ASP618  TYR619  PRO620  LYS621  CYS622 
 ASP623  PHE694  ASN695  SER759  ASP760  ASP761  ALA762  ILE779  LEU786  VAL792 
 PHE793  MET794  SER795  GLU796  ALA797  LYS798  CYS799  TRP800  GLU811  SER814 

> <Gold.Protein.RotatedAtoms>
  152.5450  134.1645  159.8571 H   0  0  0  0  0  0  0  0  0  0  0  0  # atno 6907 bound_to 6896
  151.1660  133.4807  159.2601 H   0  0  0  0  0  0  0  0  0  0  0  0  # atno 6908 bound_to 6896
  151.1323  135.0148  159.8643 H   0  0  0  0  0  0  0  0  0  0  0  0  # atno 6909 bound_to 6896
  144.7364  139.9015  143.6409 H   0  0  0  0  0  0  0  0  0  0  0  0  # atno 7974 bound_to 7965
  155.9409  140.1108  157.1056 H   0  0  0  0  0  0  0  0  0  0  0  0  # atno 8008 bound_to 7997
  154.4089  140.1219  156.4991 H   0  0  0  0  0  0  0  0  0  0  0  0  # atno 8009 bound_to 7997
  155.6963  140.3472  155.4917 H   0  0  0  0  0  0  0  0  0  0  0  0  # atno 8010 bound_to 7997
  139.7570  144.6966  151.0347 H   0  0  0  0  0  0  0  0  0  0  0  0  # atno 10167 bound_to 10162
  156.1172  130.4169  150.0510 H   0  0  0  0  0  0  0  0  0  0  0  0  # atno 10718 bound_to 10713
  153.3417  135.6981  153.6861 H   0  0  0  0  0  0  0  0  0  0  0  0  # atno 10763 bound_to 10752
  153.5623  135.3532  155.2805 H   0  0  0  0  0  0  0  0  0  0  0  0  # atno 10764 bound_to 10752
  154.8638  135.4252  154.2632 H   0  0  0  0  0  0  0  0  0  0  0  0  # atno 10765 bound_to 10752
  140.1080  134.4992  155.8702 H   0  0  0  0  0  0  0  0  0  0  0  0  # atno 11005 bound_to 11000
  146.1068  139.4069  143.0312 LP  0  0  0  0  0  0  0  0  0  0  0  0  # atno 17320 bound_to 7965
  145.7500  140.9976  143.1255 LP  0  0  0  0  0  0  0  0  0  0  0  0  # atno 17321 bound_to 7965
  140.7803  143.4741  151.0106 LP  0  0  0  0  0  0  0  0  0  0  0  0  # atno 17342 bound_to 10162
  139.8428  143.7541  152.3180 LP  0  0  0  0  0  0  0  0  0  0  0  0  # atno 17343 bound_to 10162
  156.8458  130.9442  151.3629 LP  0  0  0  0  0  0  0  0  0  0  0  0  # atno 17370 bound_to 10713
  157.6355  130.8763  149.9351 LP  0  0  0  0  0  0  0  0  0  0  0  0  # atno 17371 bound_to 10713
  141.2123  133.6718  156.6650 LP  0  0  0  0  0  0  0  0  0  0  0  0  # atno 17394 bound_to 11000
  140.3129  134.8071  157.4190 LP  0  0  0  0  0  0  0  0  0  0  0  0  # atno 17395 bound_to 11000

$$$$
