AV-unprocessed.smi:2510|AV-procd|sdf|9874|dock2
  -GOLD-   2272013503D 1   1.00000     0.00000
 Structure written by MMmdl.
 48 49  0  0  0  0  0  0  0  0  1 V2000
  148.8844  141.3774  154.0903 C   0  0  0  0  0  0  0  0  0  0  0  0
  148.8296  140.9289  155.5602 C   0  0  0  0  0  0  0  0  0  0  0  0
  150.1782  140.5372  156.2294 C   0  0  0  0  0  0  0  0  0  0  0  0
  151.0543  141.8141  156.2260 C   0  0  0  0  0  0  0  0  0  0  0  0
  151.0890  142.5805  157.5601 C   0  0  0  0  0  0  0  0  0  0  0  0
  150.1449  139.8138  157.6102 C   0  0  1  0  0  0  0  0  0  0  0  0
  148.9251  139.0430  157.8568 N   0  0  0  0  0  0  0  0  0  0  0  0
  148.7638  138.1744  158.8669 C   0  0  0  0  0  0  0  0  0  0  0  0
  149.6343  137.9416  159.7054 O   0  0  0  0  0  0  0  0  0  0  0  0
  147.4145  137.4594  158.9469 C   0  0  0  0  0  0  0  0  0  0  0  0
  147.2383  136.8287  160.3026 C   0  0  0  0  0  0  0  0  0  0  0  0
  146.9283  135.4697  160.6074 C   0  0  0  0  0  0  0  0  0  0  0  0
  146.8970  135.4272  161.9727 C   0  0  0  0  0  0  0  0  0  0  0  0
  146.6429  134.3036  162.9189 C   0  0  0  0  0  0  0  0  0  0  0  0
  147.1702  136.7049  162.4029 N   0  0  0  0  0  0  0  0  0  0  0  0
  147.3778  137.5703  161.3931 N   0  0  0  0  0  0  0  0  0  0  0  0
  151.3142  138.9194  157.1597 C   0  0  1  0  0  0  0  0  0  0  0  0
  151.3962  137.4640  157.6148 C   0  0  0  0  0  0  0  0  0  0  0  0
  150.8952  139.2534  155.7207 C   0  0  2  0  0  0  0  0  0  0  0  0
  151.9624  139.5406  154.8285 O   0  0  0  0  0  0  0  0  0  0  0  0
  152.9412  138.5174  154.7767 C   0  0  0  0  0  0  0  0  0  0  0  0
  147.2163  136.9969  163.3690 H   0  0  0  0  0  0  0  0  0  0  0  0
  147.8797  141.5654  153.7113 H   0  0  0  0  0  0  0  0  0  0  0  0
  149.3377  140.6258  153.4468 H   0  0  0  0  0  0  0  0  0  0  0  0
  149.4487  142.3035  153.9795 H   0  0  0  0  0  0  0  0  0  0  0  0
  148.3533  141.7439  156.1062 H   0  0  0  0  0  0  0  0  0  0  0  0
  148.1296  140.0967  155.6380 H   0  0  0  0  0  0  0  0  0  0  0  0
  152.0826  141.5662  155.9634 H   0  0  0  0  0  0  0  0  0  0  0  0
  150.7244  142.4939  155.4394 H   0  0  0  0  0  0  0  0  0  0  0  0
  151.7512  143.4433  157.4861 H   0  0  0  0  0  0  0  0  0  0  0  0
  151.4558  141.9591  158.3764 H   0  0  0  0  0  0  0  0  0  0  0  0
  150.1045  142.9534  157.8415 H   0  0  0  0  0  0  0  0  0  0  0  0
  150.4330  140.4455  158.4513 H   0  0  0  0  0  0  0  0  0  0  0  0
  148.1562  139.1790  157.2163 H   0  0  0  0  0  0  0  0  0  0  0  0
  146.6170  138.1736  158.7358 H   0  0  0  0  0  0  0  0  0  0  0  0
  147.3621  136.6972  158.1686 H   0  0  0  0  0  0  0  0  0  0  0  0
  146.7639  134.6498  159.9238 H   0  0  0  0  0  0  0  0  0  0  0  0
  146.2146  133.4463  162.3990 H   0  0  0  0  0  0  0  0  0  0  0  0
  145.9476  134.6033  163.7035 H   0  0  0  0  0  0  0  0  0  0  0  0
  147.5705  133.9810  163.3922 H   0  0  0  0  0  0  0  0  0  0  0  0
  152.2479  139.4338  157.3926 H   0  0  0  0  0  0  0  0  0  0  0  0
  150.5607  136.8740  157.2372 H   0  0  0  0  0  0  0  0  0  0  0  0
  151.3865  137.3923  158.7026 H   0  0  0  0  0  0  0  0  0  0  0  0
  152.3130  136.9903  157.2652 H   0  0  0  0  0  0  0  0  0  0  0  0
  150.2198  138.4931  155.3276 H   0  0  0  0  0  0  0  0  0  0  0  0
  153.6989  138.7757  154.0370 H   0  0  0  0  0  0  0  0  0  0  0  0
  152.5010  137.5621  154.4874 H   0  0  0  0  0  0  0  0  0  0  0  0
  153.4422  138.3976  155.7370 H   0  0  0  0  0  0  0  0  0  0  0  0
  1  2  1  0  0  0  0
  1 23  1  0  0  0  0
  1 24  1  0  0  0  0
  1 25  1  0  0  0  0
  2  3  1  0  0  0  0
  2 26  1  0  0  0  0
  2 27  1  0  0  0  0
  3 19  1  0  0  0  0
  3  4  1  0  0  0  0
  3  6  1  0  0  0  0
  4  5  1  0  0  0  0
  4 28  1  0  0  0  0
  4 29  1  0  0  0  0
  5 30  1  0  0  0  0
  5 31  1  0  0  0  0
  5 32  1  0  0  0  0
  6  7  1  0  0  0  0
  6 17  1  0  0  0  0
  6 33  1  0  0  0  0
  7  8  1  0  0  0  0
  7 34  1  0  0  0  0
  8  9  2  0  0  0  0
  8 10  1  0  0  0  0
 10 11  1  0  0  0  0
 10 35  1  0  0  0  0
 10 36  1  0  0  0  0
 11 16  2  0  0  0  0
 11 12  1  0  0  0  0
 12 13  2  0  0  0  0
 12 37  1  0  0  0  0
 13 14  1  0  0  0  0
 13 15  1  0  0  0  0
 14 38  1  0  0  0  0
 14 39  1  0  0  0  0
 14 40  1  0  0  0  0
 15 22  1  0  0  0  0
 15 16  1  0  0  0  0
 17 18  1  0  0  0  0
 17 19  1  0  0  0  0
 17 41  1  0  0  0  0
 18 42  1  0  0  0  0
 18 43  1  0  0  0  0
 18 44  1  0  0  0  0
 19 20  1  0  0  0  0
 19 45  1  0  0  0  0
 20 21  1  0  0  0  0
 21 46  1  0  0  0  0
 21 47  1  0  0  0  0
 21 48  1  0  0  0  0
M  END
> <s_m_source_file>
AV-unprocessed.smi

> <i_m_source_file_index>
2510

> <i_lp_mmshare_version>
43012

> <i_f3d_flags>
0

> <s_epik_input>
W0NIM11PW0NAQEhdMVtDQEhdKFtDSDNdKVtDQEBIXShDMShbQ0gyXVtDSDNdKVtDSDJdW0NIM10pW05IXUMoPU8pW0NIMl1jMltjSF1jKFtDSDNdKVtuSF1uMg==

> <s_epik_cmdline>
J2VwaWtfcHl0aG9uJywgJy1waCcsICc3LjAnLCAnLXRuJywgJzgnLCAnLW1hJywgJzIwMCcsICctbWV0YWxfYmluZGluZycsICctaW1hZScsICc8aW5maWxlLm1hZT4nLCAnLW9tYWUnLCAnPG91dGZpbGUubWFlPic=

> <r_lp_tautomer_probability>
0.5

> <r_epik_Ionization_Penalty>
9.73156e-05

> <r_epik_Ionization_Penalty_Charging>
0

> <r_epik_Ionization_Penalty_Neutral>
9.73156e-05

> <r_epik_State_Penalty>
0.41068

> <r_epik_Charging_Adjusted_Penalty>
0.41068

> <i_epik_Tot_Q>
0

> <i_epik_Tot_abs_Q>
0

> <r_epik_Metal_State_Penalty>
0.410699

> <b_epik_Metal_Only>
0

> <s_lp_Force_Field>
OPLS_2005

> <r_lp_Energy>
25.9502

> <b_lp_Chiralities_Consistent>
1

> <s_lp_Variant>
AV-unprocessed.smi:2510-5

> <Gold.Version>
5.8.1

> <Gold.Id.Protein>
6NUR|6NUR_protein|mol2

> <Gold.PLP.Fitness>
40.7414

> <Gold.PLP.PLP>
-34.3778

> <Gold.PLP.part.hbond>
-4.0000

> <Gold.PLP.part.metal>
0.0000

> <Gold.PLP.part.buried>
-5.3815

> <Gold.PLP.part.nonpolar>
-25.4790

> <Gold.PLP.part.repulsive>
0.3130

> <Gold.PLP.ligand.clash>
0.0000

> <Gold.PLP.ligand.torsion>
1.3221

> <Gold.PLP.Chemscore.Hbond>
2.8000

> <Gold.PLP.Chemscore.CHOScore>
0.0000

> <Gold.PLP.Chemscore.Metal>
0.0000

> <Gold.Chemscore.Hbonds>
donor molecule, donor type, donor heavy atom, donor atom, acceptor molecule, acceptor atom, score
      P1  H  6931  6943       L1    16  0.70
      P1  H  6934  6947       L1    16  0.88
      P1  H  7989  7998       L1    20  0.94

> <Gold.PLP.Chemscore.Internal.Correction>
0.6079

> <Gold.Rescore>
     Score         DG    S(hbond)    S(metal)    S(lipo)     H(rot)  DE(clash)    DE(int)     intcor
     15.16     -17.94       1.97        0.00      89.70       1.81       0.10       2.67       ----

> <Gold.Chemscore.Fitness>
15.1623

> <Gold.Chemscore.DG>
-17.9355

> <Gold.Chemscore.ZeroCoef>
-5.4800

> <Gold.Chemscore.Hbond>
1.9746

> <Gold.Chemscore.Metal>
0.0000

> <Gold.Chemscore.Lipo>
89.6962

> <Gold.Chemscore.Internal_Hbond>
0.0000

> <Gold.Chemscore.DEClash>
0.0987

> <Gold.Chemscore.DEInternal>
2.6745

> <Gold.Chemscore.Rot>
1.8102

> <Gold.Chemscore.Internal.Correction>
   9.000000E+99

> <Gold.Chemscore.Hbonds>
donor molecule, donor type, donor heavy atom, donor atom, acceptor molecule, acceptor atom, score
      P1  H  6931  6943       L1    16  0.18
      P1  H  6934  6947       L1    16  0.45
      P1  H  7989  7998       L1    20  0.87

> <Gold.Chemscore.Hbond.Weighted>
-6.5951

> <Gold.Chemscore.Metal.Weighted>
-0.0000

> <Gold.Chemscore.Lipo.Weighted>
-10.4945

> <Gold.Chemscore.Internal_Hbond.Weighted>
0.0000

> <Gold.Chemscore.DEClash.Weighted>
0.0987

> <Gold.Chemscore.DEInternal.Weighted>
2.6745

> <Gold.Chemscore.Rot.Weighted>
4.6341

> <Gold.Chemscore.Internal.Correction.Weighted>
   9.000000E+99

> <Gold.Protein.RotatedTorsions>
[ 6907 6896 6895 6894 ] final  -22.78 input  -60.11 | X-H torsion
[ 7974 7965 7964 7962 ] final   63.71 input  175.53 | X-H torsion
[ 8008 7997 7996 7995 ] final   87.01 input   59.86 | X-H torsion
[ 10167 10162 10161 10158 ] final  118.07 input  -65.29 | X-H torsion
[ 10718 10713 10712 10709 ] final   87.74 input   66.30 | X-H torsion
[ 10763 10752 10751 10750 ] final  -57.78 input  -60.55 | X-H torsion
[ 11005 11000 10999 10996 ] final -143.85 input  -57.11 | X-H torsion

> <Gold.Protein.ActiveResidues>
 VAL166  LYS551  ARG553  GLY616  TRP617  ASP618  TYR619  PRO620  LYS621  CYS622 
 ASP623  PHE694  ASN695  SER759  ASP760  ASP761  ALA762  ILE779  LEU786  VAL792 
 PHE793  MET794  SER795  GLU796  ALA797  LYS798  CYS799  TRP800  GLU811  SER814 

> <Gold.Protein.RotatedAtoms>
  151.2136  135.0491  159.8921 H   0  0  0  0  0  0  0  0  0  0  0  0  # atno 6907 bound_to 6896
  152.5422  134.0717  159.8207 H   0  0  0  0  0  0  0  0  0  0  0  0  # atno 6908 bound_to 6896
  151.0874  133.5294  159.2649 H   0  0  0  0  0  0  0  0  0  0  0  0  # atno 6909 bound_to 6896
  145.8587  139.3301  143.0832 H   0  0  0  0  0  0  0  0  0  0  0  0  # atno 7974 bound_to 7965
  155.9700  140.3386  155.6567 H   0  0  0  0  0  0  0  0  0  0  0  0  # atno 8008 bound_to 7997
  155.6687  140.0724  157.2546 H   0  0  0  0  0  0  0  0  0  0  0  0  # atno 8009 bound_to 7997
  154.4164  140.1695  156.1843 H   0  0  0  0  0  0  0  0  0  0  0  0  # atno 8010 bound_to 7997
  139.6136  144.7087  151.2788 H   0  0  0  0  0  0  0  0  0  0  0  0  # atno 10167 bound_to 10162
  157.6943  131.0267  150.3168 H   0  0  0  0  0  0  0  0  0  0  0  0  # atno 10718 bound_to 10713
  154.2278  135.6366  153.5165 H   0  0  0  0  0  0  0  0  0  0  0  0  # atno 10763 bound_to 10752
  152.9955  135.5512  154.6045 H   0  0  0  0  0  0  0  0  0  0  0  0  # atno 10764 bound_to 10752
  154.5521  135.2902  155.0973 H   0  0  0  0  0  0  0  0  0  0  0  0  # atno 10765 bound_to 10752
  140.8084  134.2774  157.4951 H   0  0  0  0  0  0  0  0  0  0  0  0  # atno 11005 bound_to 11000
  145.9273  140.9073  143.0374 LP  0  0  0  0  0  0  0  0  0  0  0  0  # atno 17320 bound_to 7965
  144.6727  140.1370  143.7440 LP  0  0  0  0  0  0  0  0  0  0  0  0  # atno 17321 bound_to 7965
  140.7336  143.6790  150.8017 LP  0  0  0  0  0  0  0  0  0  0  0  0  # atno 17342 bound_to 10162
  140.0389  143.5366  152.2727 LP  0  0  0  0  0  0  0  0  0  0  0  0  # atno 17343 bound_to 10162
  156.3662  130.3855  149.7212 LP  0  0  0  0  0  0  0  0  0  0  0  0  # atno 17370 bound_to 10713
  156.4642  130.7966  151.2985 LP  0  0  0  0  0  0  0  0  0  0  0  0  # atno 17371 bound_to 10713
  139.8716  134.9469  156.3952 LP  0  0  0  0  0  0  0  0  0  0  0  0  # atno 17394 bound_to 11000
  140.9223  133.7636  155.9922 LP  0  0  0  0  0  0  0  0  0  0  0  0  # atno 17395 bound_to 11000

$$$$
