AV-unprocessed.smi:1983|AV-procd|sdf|8038|dock2
  -GOLD-   2272010233D 1   1.00000     0.00000
 Structure written by MMmdl.
 50 51  0  0  0  0  0  0  0  0  2 V2000
  148.9964  135.0539  156.3920 C   0  0  0  0  0  0  0  0  0  0  0  0
  148.1799  134.8663  155.1042 C   0  0  2  0  0  0  0  0  0  0  0  0
  148.6393  133.6380  154.2942 C   0  0  0  0  0  0  0  0  0  0  0  0
  148.0468  133.6421  153.0129 O   0  0  0  0  0  0  0  0  0  0  0  0
  148.2856  136.0753  154.2917 N   0  0  0  0  0  0  0  0  0  0  0  0
  148.0083  137.3179  154.7113 C   0  0  0  0  0  0  0  0  0  0  0  0
  147.6240  137.5964  155.8472 O   0  0  0  0  0  0  0  0  0  0  0  0
  148.1862  138.2230  153.7385 N   0  0  0  0  0  0  0  0  0  0  0  0
  147.9792  139.6607  153.8893 C   0  0  0  0  0  0  0  0  0  0  0  0
  148.8463  140.3291  154.9495 C   0  0  0  0  0  0  0  0  0  0  0  0
  149.7381  139.5951  155.7631 C   0  0  0  0  0  0  0  0  0  0  0  0
  150.5203  140.2670  156.7247 C   0  0  0  0  0  0  0  0  0  0  0  0
  150.4006  141.6716  156.8772 C   0  0  0  0  0  0  0  0  0  0  0  0
  151.1485  142.4303  157.8046 N   0  0  0  0  0  0  0  0  0  0  0  0
  152.0820  141.6928  158.6527 C   0  0  0  0  0  0  0  0  0  0  0  0
  152.5168  142.5519  159.8527 C   0  0  1  0  0  0  0  0  0  0  0  0
  153.6086  141.8660  160.6809 C   0  0  0  0  0  0  0  0  0  0  0  0
  153.0340  143.7965  159.3866 O   0  0  0  0  0  0  0  0  0  0  0  0
  152.1220  144.5656  158.6007 C   0  0  2  0  0  0  0  0  0  0  0  0
  150.9770  145.1533  159.4452 C   0  0  0  0  0  0  0  0  0  0  0  0
  151.6345  143.7436  157.3913 C   0  0  0  0  0  0  0  0  0  0  0  0
  149.5226  142.3262  156.0785 N   0  3  0  0  0  0  0  0  0  0  0  0
  148.7581  141.7219  155.1437 C   0  0  0  0  0  0  0  0  0  0  0  0
  148.9049  134.1871  157.0469 H   0  0  0  0  0  0  0  0  0  0  0  0
  148.6515  135.9237  156.9522 H   0  0  0  0  0  0  0  0  0  0  0  0
  150.0557  135.1953  156.1747 H   0  0  0  0  0  0  0  0  0  0  0  0
  147.1334  134.7326  155.3860 H   0  0  0  0  0  0  0  0  0  0  0  0
  149.7213  133.6478  154.1571 H   0  0  0  0  0  0  0  0  0  0  0  0
  148.3893  132.7108  154.8110 H   0  0  0  0  0  0  0  0  0  0  0  0
  148.1739  134.4944  152.6249 H   0  0  0  0  0  0  0  0  0  0  0  0
  148.5947  135.9529  153.3384 H   0  0  0  0  0  0  0  0  0  0  0  0
  148.5059  137.8988  152.8372 H   0  0  0  0  0  0  0  0  0  0  0  0
  148.1385  140.1485  152.9260 H   0  0  0  0  0  0  0  0  0  0  0  0
  146.9336  139.8268  154.1495 H   0  0  0  0  0  0  0  0  0  0  0  0
  149.8310  138.5244  155.6569 H   0  0  0  0  0  0  0  0  0  0  0  0
  151.1938  139.6846  157.3346 H   0  0  0  0  0  0  0  0  0  0  0  0
  151.6425  140.7679  159.0257 H   0  0  0  0  0  0  0  0  0  0  0  0
  152.9500  141.4140  158.0537 H   0  0  0  0  0  0  0  0  0  0  0  0
  151.6617  142.7282  160.5054 H   0  0  0  0  0  0  0  0  0  0  0  0
  153.2641  140.9071  161.0688 H   0  0  0  0  0  0  0  0  0  0  0  0
  153.8978  142.4835  161.5317 H   0  0  0  0  0  0  0  0  0  0  0  0
  154.5022  141.6841  160.0831 H   0  0  0  0  0  0  0  0  0  0  0  0
  152.6926  145.4113  158.2158 H   0  0  0  0  0  0  0  0  0  0  0  0
  150.3801  145.8491  158.8549 H   0  0  0  0  0  0  0  0  0  0  0  0
  151.3687  145.7016  160.3021 H   0  0  0  0  0  0  0  0  0  0  0  0
  150.3001  144.3858  159.8193 H   0  0  0  0  0  0  0  0  0  0  0  0
  152.4543  143.6048  156.6853 H   0  0  0  0  0  0  0  0  0  0  0  0
  150.8518  144.3016  156.8766 H   0  0  0  0  0  0  0  0  0  0  0  0
  148.1060  142.3712  154.5775 H   0  0  0  0  0  0  0  0  0  0  0  0
  149.4378  143.3371  156.1852 H   0  0  0  0  0  0  0  0  0  0  0  0
  1  2  1  0  0  0  0
  1 24  1  0  0  0  0
  1 25  1  0  0  0  0
  1 26  1  0  0  0  0
  2  3  1  0  0  0  0
  2  5  1  0  0  0  0
  2 27  1  0  0  0  0
  3  4  1  0  0  0  0
  3 28  1  0  0  0  0
  3 29  1  0  0  0  0
  4 30  1  0  0  0  0
  5  6  1  0  0  0  0
  5 31  1  0  0  0  0
  6  7  2  0  0  0  0
  6  8  1  0  0  0  0
  8  9  1  0  0  0  0
  8 32  1  0  0  0  0
  9 10  1  0  0  0  0
  9 33  1  0  0  0  0
  9 34  1  0  0  0  0
 10 23  1  0  0  0  0
 10 11  2  0  0  0  0
 11 12  1  0  0  0  0
 11 35  1  0  0  0  0
 12 13  2  0  0  0  0
 12 36  1  0  0  0  0
 13 14  1  0  0  0  0
 13 22  1  0  0  0  0
 14 21  1  0  0  0  0
 14 15  1  0  0  0  0
 15 16  1  0  0  0  0
 15 37  1  0  0  0  0
 15 38  1  0  0  0  0
 16 17  1  0  0  0  0
 16 18  1  0  0  0  0
 16 39  1  0  0  0  0
 17 40  1  0  0  0  0
 17 41  1  0  0  0  0
 17 42  1  0  0  0  0
 18 19  1  0  0  0  0
 19 20  1  0  0  0  0
 19 21  1  0  0  0  0
 19 43  1  0  0  0  0
 20 44  1  0  0  0  0
 20 45  1  0  0  0  0
 20 46  1  0  0  0  0
 21 47  1  0  0  0  0
 21 48  1  0  0  0  0
 22 23  2  0  0  0  0
 22 50  1  0  0  0  0
 23 49  1  0  0  0  0
M  CHG  1  22   1
M  END
> <s_m_source_file>
AV-unprocessed.smi

> <i_m_source_file_index>
1983

> <i_lp_mmshare_version>
43012

> <i_f3d_flags>
0

> <s_epik_input>
W09IXVtDSDJdW0NAQEhdKFtDSDNdKVtOSF1DKD1PKVtOSF1bQ0gyXWMxW2NIXVtjSF1jKG5bY0hdMSlOMltDSDJdW0NAQEhdKFtDSDNdKU9bQ0BASF0oW0NIM10pW0NIMl0y

> <s_epik_cmdline>
J2VwaWtfcHl0aG9uJywgJy1waCcsICc3LjAnLCAnLXRuJywgJzgnLCAnLW1hJywgJzIwMCcsICctbWV0YWxfYmluZGluZycsICctaW1hZScsICc8aW5maWxlLm1hZT4nLCAnLW9tYWUnLCAnPG91dGZpbGUubWFlPic=

> <r_lp_tautomer_probability>
0.999994

> <r_epik_Ionization_Penalty>
2.55677

> <r_epik_Ionization_Penalty_Charging>
2.55673

> <r_epik_Ionization_Penalty_Neutral>
3.71772e-05

> <r_epik_State_Penalty>
2.72571

> <r_epik_Charging_Adjusted_Penalty>
5.28244

> <i_epik_Tot_Q>
1

> <i_epik_Tot_abs_Q>
1

> <r_epik_Metal_State_Penalty>
2.73364

> <b_epik_Metal_Only>
0

> <s_lp_Force_Field>
OPLS_2005

> <r_lp_Energy>
21.2069

> <b_lp_Chiralities_Consistent>
1

> <s_lp_Variant>
AV-unprocessed.smi:1983-11

> <Gold.Version>
5.8.1

> <Gold.Id.Protein>
6NUR|6NUR_protein|mol2

> <Gold.PLP.Fitness>
54.0249

> <Gold.PLP.PLP>
-39.7483

> <Gold.PLP.part.hbond>
-3.9332

> <Gold.PLP.part.metal>
0.0000

> <Gold.PLP.part.buried>
-4.7289

> <Gold.PLP.part.nonpolar>
-32.4226

> <Gold.PLP.part.repulsive>
0.2118

> <Gold.PLP.ligand.clash>
0.0000

> <Gold.PLP.ligand.torsion>
0.3997

> <Gold.PLP.Chemscore.Hbond>
4.8640

> <Gold.PLP.Chemscore.CHOScore>
0.0000

> <Gold.PLP.Chemscore.Metal>
0.0000

> <Gold.Chemscore.Hbonds>
donor molecule, donor type, donor heavy atom, donor atom, acceptor molecule, acceptor atom, score
      L1  H     4    30       P1  7948  1.00
      L1  H     5    31       P1  7948  1.00
      L1  H     8    32       P1  7948  0.85
      L1  H    22    50       P1  8028  1.98

> <Gold.PLP.Chemscore.Internal.Correction>
0.4840

> <Gold.Rescore>
     Score         DG    S(hbond)    S(metal)    S(lipo)     H(rot)  DE(clash)    DE(int)     intcor
     21.64     -22.19       3.42        0.00     103.51       2.66       0.04       0.52       ----

> <Gold.Chemscore.Fitness>
21.6366

> <Gold.Chemscore.DG>
-22.1915

> <Gold.Chemscore.ZeroCoef>
-5.4800

> <Gold.Chemscore.Hbond>
3.4191

> <Gold.Chemscore.Metal>
0.0000

> <Gold.Chemscore.Lipo>
103.5126

> <Gold.Chemscore.Internal_Hbond>
0.0000

> <Gold.Chemscore.DEClash>
0.0375

> <Gold.Chemscore.DEInternal>
0.5174

> <Gold.Chemscore.Rot>
2.6637

> <Gold.Chemscore.Internal.Correction>
   9.000000E+99

> <Gold.Chemscore.Hbonds>
donor molecule, donor type, donor heavy atom, donor atom, acceptor molecule, acceptor atom, score
      L1  H     4    30       P1  7948  0.33
      L1  H     5    31       P1  7948  0.93
      L1  H     8    32       P1  7948  0.84
      L1  H    22    50       P1  8028  0.92

> <Gold.Chemscore.Hbond.Weighted>
-11.4197

> <Gold.Chemscore.Metal.Weighted>
-0.0000

> <Gold.Chemscore.Lipo.Weighted>
-12.1110

> <Gold.Chemscore.Internal_Hbond.Weighted>
0.0000

> <Gold.Chemscore.DEClash.Weighted>
0.0375

> <Gold.Chemscore.DEInternal.Weighted>
0.5174

> <Gold.Chemscore.Rot.Weighted>
6.8191

> <Gold.Chemscore.Internal.Correction.Weighted>
   9.000000E+99

> <Gold.Protein.RotatedTorsions>
[ 6907 6896 6895 6894 ] final  111.07 input  -60.11 | X-H torsion
[ 7974 7965 7964 7962 ] final  111.95 input  175.53 | X-H torsion
[ 8008 7997 7996 7995 ] final   85.18 input   59.86 | X-H torsion
[ 10167 10162 10161 10158 ] final -173.93 input  -65.29 | X-H torsion
[ 10718 10713 10712 10709 ] final  -40.82 input   66.30 | X-H torsion
[ 10763 10752 10751 10750 ] final  -48.72 input  -60.55 | X-H torsion
[ 11005 11000 10999 10996 ] final  -98.47 input  -57.11 | X-H torsion

> <Gold.Protein.ActiveResidues>
 VAL166  LYS551  ARG553  GLY616  TRP617  ASP618  TYR619  PRO620  LYS621  CYS622 
 ASP623  PHE694  ASN695  SER759  ASP760  ASP761  ALA762  ILE779  LEU786  VAL792 
 PHE793  MET794  SER795  GLU796  ALA797  LYS798  CYS799  TRP800  GLU811  SER814 

> <Gold.Protein.RotatedAtoms>
  152.4988  133.8709  159.7297 H   0  0  0  0  0  0  0  0  0  0  0  0  # atno 6907 bound_to 6896
  150.9196  133.6887  159.2842 H   0  0  0  0  0  0  0  0  0  0  0  0  # atno 6908 bound_to 6896
  151.4269  135.1009  159.9683 H   0  0  0  0  0  0  0  0  0  0  0  0  # atno 6909 bound_to 6896
  145.2357  139.2800  143.4144 H   0  0  0  0  0  0  0  0  0  0  0  0  # atno 7974 bound_to 7965
  155.9466  140.3404  155.6372 H   0  0  0  0  0  0  0  0  0  0  0  0  # atno 8008 bound_to 7997
  155.6972  140.0756  157.2443 H   0  0  0  0  0  0  0  0  0  0  0  0  # atno 8009 bound_to 7997
  154.4113  140.1646  156.2139 H   0  0  0  0  0  0  0  0  0  0  0  0  # atno 8010 bound_to 7997
  139.5661  144.1752  152.1314 H   0  0  0  0  0  0  0  0  0  0  0  0  # atno 10167 bound_to 10162
  156.2771  130.4213  149.8376 H   0  0  0  0  0  0  0  0  0  0  0  0  # atno 10718 bound_to 10713
  154.0824  135.6589  153.4840 H   0  0  0  0  0  0  0  0  0  0  0  0  # atno 10763 bound_to 10752
  153.0351  135.5183  154.7460 H   0  0  0  0  0  0  0  0  0  0  0  0  # atno 10764 bound_to 10752
  154.6559  135.3008  154.9896 H   0  0  0  0  0  0  0  0  0  0  0  0  # atno 10765 bound_to 10752
  141.1343  133.8248  157.0844 H   0  0  0  0  0  0  0  0  0  0  0  0  # atno 11005 bound_to 11000
  146.3341  140.2706  142.8605 LP  0  0  0  0  0  0  0  0  0  0  0  0  # atno 17320 bound_to 7965
  144.9635  140.8298  143.5499 LP  0  0  0  0  0  0  0  0  0  0  0  0  # atno 17321 bound_to 7965
  140.1275  144.5318  150.6823 LP  0  0  0  0  0  0  0  0  0  0  0  0  # atno 17342 bound_to 10162
  140.6944  143.2395  151.5040 LP  0  0  0  0  0  0  0  0  0  0  0  0  # atno 17343 bound_to 10162
  156.5837  130.8476  151.3389 LP  0  0  0  0  0  0  0  0  0  0  0  0  # atno 17370 bound_to 10713
  157.7303  130.9683  150.1825 LP  0  0  0  0  0  0  0  0  0  0  0  0  # atno 17371 bound_to 10713
  140.0431  134.9844  157.0999 LP  0  0  0  0  0  0  0  0  0  0  0  0  # atno 17394 bound_to 11000
  140.4104  134.1987  155.7163 LP  0  0  0  0  0  0  0  0  0  0  0  0  # atno 17395 bound_to 11000

$$$$
