AV-unprocessed.smi:158|AV-procd|sdf|1324|dock5
  -GOLD-   2262019 23D 1   1.00000     0.00000
 Structure written by MMmdl.
 31 33  0  0  0  0  0  0  0  0  1 V2000
  153.8403  142.3262  160.4447 N   0  0  0  0  0  0  0  0  0  0  0  0
  153.1352  141.3679  159.8271 C   0  0  0  0  0  0  0  0  0  0  0  0
  153.3563  140.0791  160.1761 N   0  0  0  0  0  0  0  0  0  0  0  0
  152.6731  139.0920  159.5837 C   0  0  0  0  0  0  0  0  0  0  0  0
  153.0337  137.4883  160.1037 Cl  0  0  0  0  0  0  0  0  0  0  0  0
  151.7390  139.2089  158.6341 N   0  0  0  0  0  0  0  0  0  0  0  0
  151.5127  140.5064  158.2787 C   0  0  0  0  0  0  0  0  0  0  0  0
  152.1696  141.6403  158.8273 C   0  0  0  0  0  0  0  0  0  0  0  0
  151.6915  142.7990  158.2313 N   0  0  0  0  0  0  0  0  0  0  0  0
  150.8015  142.3680  157.3777 C   0  0  0  0  0  0  0  0  0  0  0  0
  150.6243  141.0018  157.3451 N   0  0  0  0  0  0  0  0  0  0  0  0
  149.6921  140.2256  156.4704 C   0  0  1  0  0  0  0  0  0  0  0  0
  148.3964  140.7160  156.6452 O   0  0  0  0  0  0  0  0  0  0  0  0
  147.8698  141.2021  155.4109 C   0  0  2  0  0  0  0  0  0  0  0  0
  146.3616  140.9162  155.3397 C   0  0  0  0  0  0  0  0  0  0  0  0
  145.8066  141.5131  154.1873 O   0  0  0  0  0  0  0  0  0  0  0  0
  148.6796  140.4497  154.3506 C   0  0  1  0  0  0  0  0  0  0  0  0
  148.7281  141.1613  153.1303 O   0  0  0  0  0  0  0  0  0  0  0  0
  150.0521  140.3746  154.9900 C   0  0  2  0  0  0  0  0  0  0  0  0
  150.7351  139.3072  154.5751 F   0  0  0  0  0  0  0  0  0  0  0  0
  149.7457  139.1971  156.8303 H   0  0  0  0  0  0  0  0  0  0  0  0
  148.0679  142.2722  155.3317 H   0  0  0  0  0  0  0  0  0  0  0  0
  148.2758  139.4479  154.1962 H   0  0  0  0  0  0  0  0  0  0  0  0
  150.6432  141.2744  154.8146 H   0  0  0  0  0  0  0  0  0  0  0  0
  153.6921  143.2952  160.2011 H   0  0  0  0  0  0  0  0  0  0  0  0
  154.5192  142.0783  161.1499 H   0  0  0  0  0  0  0  0  0  0  0  0
  150.2428  143.0419  156.7445 H   0  0  0  0  0  0  0  0  0  0  0  0
  146.1869  139.8422  155.2659 H   0  0  0  0  0  0  0  0  0  0  0  0
  145.8483  141.2666  156.2355 H   0  0  0  0  0  0  0  0  0  0  0  0
  145.1779  140.9158  153.8123 H   0  0  0  0  0  0  0  0  0  0  0  0
  149.3417  140.7302  152.5549 H   0  0  0  0  0  0  0  0  0  0  0  0
  1  2  1  0  0  0  0
  1 25  1  0  0  0  0
  1 26  1  0  0  0  0
  2  8  1  0  0  0  0
  2  3  2  0  0  0  0
  3  4  1  0  0  0  0
  4  5  1  0  0  0  0
  4  6  2  0  0  0  0
  6  7  1  0  0  0  0
  7 11  1  0  0  0  0
  7  8  2  0  0  0  0
  8  9  1  0  0  0  0
  9 10  2  0  0  0  0
 10 11  1  0  0  0  0
 10 27  1  0  0  0  0
 11 12  1  0  0  0  0
 12 21  1  0  0  0  0
 12 19  1  0  0  0  0
 12 13  1  0  0  0  0
 13 14  1  0  0  0  0
 14 22  1  0  0  0  0
 14 15  1  0  0  0  0
 14 17  1  0  0  0  0
 15 16  1  0  0  0  0
 15 28  1  0  0  0  0
 15 29  1  0  0  0  0
 16 30  1  0  0  0  0
 17 23  1  0  0  0  0
 17 18  1  0  0  0  0
 17 19  1  0  0  0  0
 18 31  1  0  0  0  0
 19 24  1  0  0  0  0
 19 20  1  0  0  0  0
M  END
> <s_m_source_file>
AV-unprocessed.smi

> <i_m_source_file_index>
158

> <i_lp_mmshare_version>
43012

> <i_f3d_flags>
0

> <s_epik_input>
Q2xjKG4xKW5jKFtOSDJdKWMoYzEyKW5bY0hdbjJbQ0BASF0zT1tDQEhdKFtDSDJdW09IXSlbQ0BASF0oW09IXSlbQ0BASF0zRg==

> <s_epik_cmdline>
J2VwaWtfcHl0aG9uJywgJy1waCcsICc3LjAnLCAnLXRuJywgJzgnLCAnLW1hJywgJzIwMCcsICctbWV0YWxfYmluZGluZycsICctaW1hZScsICc8aW5maWxlLm1hZT4nLCAnLW9tYWUnLCAnPG91dGZpbGUubWFlPic=

> <r_lp_tautomer_probability>
1

> <r_epik_Ionization_Penalty>
6.51543e-05

> <r_epik_Ionization_Penalty_Charging>
0

> <r_epik_Ionization_Penalty_Neutral>
6.51543e-05

> <r_epik_State_Penalty>
-0

> <r_epik_Charging_Adjusted_Penalty>
0

> <i_epik_Tot_Q>
0

> <i_epik_Tot_abs_Q>
0

> <r_epik_Metal_State_Penalty>
-0

> <b_epik_Metal_Only>
0

> <s_epik_Chemistry_Notes>
This compound contains an acetal/aminal-like group ( X-CH(R)-Y where X, Y are N, S, or O) that may be acid/base labile, releasing an aldehyde.

> <s_lp_Force_Field>
OPLS_2005

> <r_lp_Energy>
33.0982

> <b_lp_Chiralities_Consistent>
1

> <s_lp_Variant>
AV-unprocessed.smi:158-2

> <Gold.Version>
5.8.1

> <Gold.Id.Protein>
6NUR|6NUR_protein|mol2

> <Gold.PLP.Fitness>
37.3134

> <Gold.PLP.PLP>
-28.5533

> <Gold.PLP.part.hbond>
-2.6280

> <Gold.PLP.part.metal>
0.0000

> <Gold.PLP.part.buried>
-2.9256

> <Gold.PLP.part.nonpolar>
-23.1817

> <Gold.PLP.part.repulsive>
0.1115

> <Gold.PLP.ligand.clash>
0.0000

> <Gold.PLP.ligand.torsion>
0.0868

> <Gold.PLP.Chemscore.Hbond>
1.9750

> <Gold.PLP.Chemscore.CHOScore>
1.0000

> <Gold.PLP.Chemscore.Metal>
0.0000

> <Gold.Chemscore.Hbonds>
donor molecule, donor type, donor heavy atom, donor atom, acceptor molecule, acceptor atom, score
      L1  H    16    30       P1 10175  0.98
      L1  H    18    31       P1  7957  0.96
      L1  C    10    27       P1  8028  1.00

> <Gold.PLP.Chemscore.Internal.Correction>
0.0087

> <Gold.Rescore>
     Score         DG    S(hbond)    S(metal)    S(lipo)     H(rot)  DE(clash)    DE(int)     intcor
      7.39      -7.45       1.78        0.00      34.29       3.12       0.03       0.03       ----

> <Gold.Chemscore.Fitness>
7.3896

> <Gold.Chemscore.DG>
-7.4510

> <Gold.Chemscore.ZeroCoef>
-5.4800

> <Gold.Chemscore.Hbond>
1.7827

> <Gold.Chemscore.Metal>
0.0000

> <Gold.Chemscore.Lipo>
34.2878

> <Gold.Chemscore.Internal_Hbond>
0.0000

> <Gold.Chemscore.DEClash>
0.0291

> <Gold.Chemscore.DEInternal>
0.0323

> <Gold.Chemscore.Rot>
3.1230

> <Gold.Chemscore.Internal.Correction>
   9.000000E+99

> <Gold.Chemscore.Hbonds>
donor molecule, donor type, donor heavy atom, donor atom, acceptor molecule, acceptor atom, score
      L1  H    16    30       P1 10175  0.77
      L1  H    18    31       P1  7957  0.89

> <Gold.Chemscore.Hbond.Weighted>
-5.9543

> <Gold.Chemscore.Metal.Weighted>
-0.0000

> <Gold.Chemscore.Lipo.Weighted>
-4.0117

> <Gold.Chemscore.Internal_Hbond.Weighted>
0.0000

> <Gold.Chemscore.DEClash.Weighted>
0.0291

> <Gold.Chemscore.DEInternal.Weighted>
0.0323

> <Gold.Chemscore.Rot.Weighted>
7.9950

> <Gold.Chemscore.Internal.Correction.Weighted>
   9.000000E+99

> <Gold.Protein.RotatedTorsions>
[ 6907 6896 6895 6894 ] final  117.97 input  -60.11 | X-H torsion
[ 7974 7965 7964 7962 ] final  172.23 input  175.53 | X-H torsion
[ 8008 7997 7996 7995 ] final   36.75 input   59.86 | X-H torsion
[ 10167 10162 10161 10158 ] final  166.15 input  -65.29 | X-H torsion
[ 10718 10713 10712 10709 ] final   45.56 input   66.30 | X-H torsion
[ 10763 10752 10751 10750 ] final   53.69 input  -60.55 | X-H torsion
[ 11005 11000 10999 10996 ] final  117.34 input  -57.11 | X-H torsion

> <Gold.Protein.ActiveResidues>
 VAL166  LYS551  ARG553  GLY616  TRP617  ASP618  TYR619  PRO620  LYS621  CYS622 
 ASP623  PHE694  ASN695  SER759  ASP760  ASP761  ALA762  ILE779  LEU786  VAL792 
 PHE793  MET794  SER795  GLU796  ALA797  LYS798  CYS799  TRP800  GLU811  SER814 

> <Gold.Protein.RotatedAtoms>
  152.4575  133.7754  159.6821 H   0  0  0  0  0  0  0  0  0  0  0  0  # atno 6907 bound_to 6896
  150.8507  133.7781  159.3033 H   0  0  0  0  0  0  0  0  0  0  0  0  # atno 6908 bound_to 6896
  151.5378  135.1071  159.9970 H   0  0  0  0  0  0  0  0  0  0  0  0  # atno 6909 bound_to 6896
  144.7273  139.9468  143.6430 H   0  0  0  0  0  0  0  0  0  0  0  0  # atno 7974 bound_to 7965
  155.1926  140.3309  155.4356 H   0  0  0  0  0  0  0  0  0  0  0  0  # atno 8008 bound_to 7997
  156.2436  140.1907  156.6968 H   0  0  0  0  0  0  0  0  0  0  0  0  # atno 8009 bound_to 7997
  154.6195  140.0597  156.9583 H   0  0  0  0  0  0  0  0  0  0  0  0  # atno 8010 bound_to 7997
  139.4919  144.4057  151.9358 H   0  0  0  0  0  0  0  0  0  0  0  0  # atno 10167 bound_to 10162
  157.4389  130.8069  149.7674 H   0  0  0  0  0  0  0  0  0  0  0  0  # atno 10718 bound_to 10713
  152.9797  135.5770  154.4782 H   0  0  0  0  0  0  0  0  0  0  0  0  # atno 10763 bound_to 10752
  154.4335  135.2774  155.1898 H   0  0  0  0  0  0  0  0  0  0  0  0  # atno 10764 bound_to 10752
  154.3596  135.6191  153.5738 H   0  0  0  0  0  0  0  0  0  0  0  0  # atno 10765 bound_to 10752
  139.9071  134.9609  156.7335 H   0  0  0  0  0  0  0  0  0  0  0  0  # atno 11005 bound_to 11000
  146.0742  139.3730  143.0504 LP  0  0  0  0  0  0  0  0  0  0  0  0  # atno 17320 bound_to 7965
  145.7928  140.9807  143.1040 LP  0  0  0  0  0  0  0  0  0  0  0  0  # atno 17321 bound_to 7965
  140.3497  144.3103  150.5951 LP  0  0  0  0  0  0  0  0  0  0  0  0  # atno 17342 bound_to 10162
  140.5495  143.2209  151.7950 LP  0  0  0  0  0  0  0  0  0  0  0  0  # atno 17343 bound_to 10162
  155.9941  130.3920  150.2873 LP  0  0  0  0  0  0  0  0  0  0  0  0  # atno 17370 bound_to 10713
  157.1036  131.0202  151.3075 LP  0  0  0  0  0  0  0  0  0  0  0  0  # atno 17371 bound_to 10713
  140.6906  133.9393  155.7964 LP  0  0  0  0  0  0  0  0  0  0  0  0  # atno 17394 bound_to 11000
  141.0444  134.0575  157.3862 LP  0  0  0  0  0  0  0  0  0  0  0  0  # atno 17395 bound_to 11000

$$$$
