AV-unprocessed.smi:977|AV-procd|sdf|4305|dock2
  -GOLD-   22720 2213D 1   1.00000     0.00000
 Structure written by MMmdl.
 37 38  0  0  0  0  0  0  0  0  1 V2000
  150.4559  132.6834  156.4245 C   0  0  0  0  0  0  0  0  0  0  0  0
  150.8741  134.0876  156.0866 C   0  0  0  0  0  0  0  0  0  0  0  0
  151.9056  134.6242  156.7220 N   0  0  0  0  0  0  0  0  0  0  0  0
  152.1085  135.8945  156.1602 O   0  0  0  0  0  0  0  0  0  0  0  0
  151.1824  136.0983  155.1872 C   0  0  0  0  0  0  0  0  0  0  0  0
  151.2434  137.3951  154.4533 C   0  0  0  0  0  0  0  0  0  0  0  0
  150.3669  135.0075  155.1227 C   0  0  0  0  0  0  0  0  0  0  0  0
  149.2980  134.8488  154.2060 N   0  0  0  0  0  0  0  0  0  0  0  0
  148.2061  134.0885  154.3766 C   0  0  0  0  0  0  0  0  0  0  0  0
  147.9434  133.4591  155.4014 O   0  0  0  0  0  0  0  0  0  0  0  0
  147.4163  134.1142  153.2932 N   0  0  0  0  0  0  0  0  0  0  0  0
  146.1549  133.3907  153.1473 C   0  0  1  0  0  0  0  0  0  0  0  0
  145.0107  134.4147  153.0835 C   0  0  0  0  0  0  0  0  0  0  0  0
  146.2002  132.4837  151.8977 C   0  0  2  0  0  0  0  0  0  0  0  0
  146.2988  133.2419  150.5698 C   0  0  0  0  0  0  0  0  0  0  0  0
  145.6208  132.2945  149.6077 C   0  0  0  0  0  0  0  0  0  0  0  0
  144.4833  131.7621  150.4687 C   0  0  0  0  0  0  0  0  0  0  0  0
  145.0085  131.7027  151.7898 O   0  0  0  0  0  0  0  0  0  0  0  0
  150.0716  132.1640  155.5465 H   0  0  0  0  0  0  0  0  0  0  0  0
  149.6758  132.6793  157.1859 H   0  0  0  0  0  0  0  0  0  0  0  0
  151.2932  132.0982  156.8060 H   0  0  0  0  0  0  0  0  0  0  0  0
  150.5755  137.3909  153.5918 H   0  0  0  0  0  0  0  0  0  0  0  0
  152.2544  137.5896  154.0947 H   0  0  0  0  0  0  0  0  0  0  0  0
  150.9504  138.2190  155.1039 H   0  0  0  0  0  0  0  0  0  0  0  0
  149.3324  135.4232  153.3767 H   0  0  0  0  0  0  0  0  0  0  0  0
  147.7159  134.6646  152.5019 H   0  0  0  0  0  0  0  0  0  0  0  0
  145.9921  132.7676  154.0286 H   0  0  0  0  0  0  0  0  0  0  0  0
  144.0387  133.9237  153.0365 H   0  0  0  0  0  0  0  0  0  0  0  0
  145.1015  135.0578  152.2074 H   0  0  0  0  0  0  0  0  0  0  0  0
  145.0075  135.0541  153.9668 H   0  0  0  0  0  0  0  0  0  0  0  0
  147.0365  131.7864  151.9706 H   0  0  0  0  0  0  0  0  0  0  0  0
  145.7403  134.1780  150.6171 H   0  0  0  0  0  0  0  0  0  0  0  0
  147.3263  133.4726  150.2873 H   0  0  0  0  0  0  0  0  0  0  0  0
  145.2741  132.7810  148.6956 H   0  0  0  0  0  0  0  0  0  0  0  0
  146.2991  131.4857  149.3325 H   0  0  0  0  0  0  0  0  0  0  0  0
  143.6432  132.4574  150.4608 H   0  0  0  0  0  0  0  0  0  0  0  0
  144.1228  130.7887  150.1363 H   0  0  0  0  0  0  0  0  0  0  0  0
  1  2  1  0  0  0  0
  1 19  1  0  0  0  0
  1 20  1  0  0  0  0
  1 21  1  0  0  0  0
  2  7  1  0  0  0  0
  2  3  2  0  0  0  0
  3  4  1  0  0  0  0
  4  5  1  0  0  0  0
  5  6  1  0  0  0  0
  5  7  2  0  0  0  0
  6 22  1  0  0  0  0
  6 23  1  0  0  0  0
  6 24  1  0  0  0  0
  7  8  1  0  0  0  0
  8  9  1  0  0  0  0
  8 25  1  0  0  0  0
  9 10  2  0  0  0  0
  9 11  1  0  0  0  0
 11 12  1  0  0  0  0
 11 26  1  0  0  0  0
 12 13  1  0  0  0  0
 12 14  1  0  0  0  0
 12 27  1  0  0  0  0
 13 28  1  0  0  0  0
 13 29  1  0  0  0  0
 13 30  1  0  0  0  0
 14 18  1  0  0  0  0
 14 15  1  0  0  0  0
 14 31  1  0  0  0  0
 15 16  1  0  0  0  0
 15 32  1  0  0  0  0
 15 33  1  0  0  0  0
 16 17  1  0  0  0  0
 16 34  1  0  0  0  0
 16 35  1  0  0  0  0
 17 18  1  0  0  0  0
 17 36  1  0  0  0  0
 17 37  1  0  0  0  0
M  END
> <s_m_source_file>
AV-unprocessed.smi

> <i_m_source_file_index>
977

> <i_lp_mmshare_version>
43012

> <i_f3d_flags>
0

> <s_epik_input>
W0NIM11jMW5vYyhbQ0gzXSljMVtOSF1DKD1PKVtOSF1bQ0BIXShbQ0gzXSlbQ0BASF0yW0NIMl1bQ0gyXVtDSDJdTzI=

> <s_epik_cmdline>
J2VwaWtfcHl0aG9uJywgJy1waCcsICc3LjAnLCAnLXRuJywgJzgnLCAnLW1hJywgJzIwMCcsICctbWV0YWxfYmluZGluZycsICctaW1hZScsICc8aW5maWxlLm1hZT4nLCAnLW9tYWUnLCAnPG91dGZpbGUubWFlPic=

> <r_lp_tautomer_probability>
1

> <r_epik_Ionization_Penalty>
3.41601e-05

> <r_epik_Ionization_Penalty_Charging>
0

> <r_epik_Ionization_Penalty_Neutral>
3.41601e-05

> <r_epik_State_Penalty>
-0

> <r_epik_Charging_Adjusted_Penalty>
0

> <i_epik_Tot_Q>
0

> <i_epik_Tot_abs_Q>
0

> <r_epik_Metal_State_Penalty>
-0

> <b_epik_Metal_Only>
0

> <s_lp_Force_Field>
OPLS_2005

> <r_lp_Energy>
19.7508

> <b_lp_Chiralities_Consistent>
1

> <s_lp_Variant>
AV-unprocessed.smi:977-2

> <Gold.Version>
5.8.1

> <Gold.Id.Protein>
6NUR|6NUR_protein|mol2

> <Gold.PLP.Fitness>
35.1863

> <Gold.PLP.PLP>
-27.7242

> <Gold.PLP.part.hbond>
-3.8952

> <Gold.PLP.part.metal>
0.0000

> <Gold.PLP.part.buried>
-2.8873

> <Gold.PLP.part.nonpolar>
-20.5941

> <Gold.PLP.part.repulsive>
0.1836

> <Gold.PLP.ligand.clash>
0.0000

> <Gold.PLP.ligand.torsion>
0.2139

> <Gold.PLP.Chemscore.Hbond>
2.5440

> <Gold.PLP.Chemscore.CHOScore>
0.0000

> <Gold.PLP.Chemscore.Metal>
0.0000

> <Gold.Chemscore.Hbonds>
donor molecule, donor type, donor heavy atom, donor atom, acceptor molecule, acceptor atom, score
      L1  H     8    25       P1  7948  0.90
      L1  H    11    26       P1  7948  0.86
      P1  H 10752 10764       L1     4  0.67

> <Gold.PLP.Chemscore.Internal.Correction>
0.2580

> <Gold.Rescore>
     Score         DG    S(hbond)    S(metal)    S(lipo)     H(rot)  DE(clash)    DE(int)     intcor
     14.86     -16.35       1.74        0.00      69.79       1.22       0.00       1.49       ----

> <Gold.Chemscore.Fitness>
14.8586

> <Gold.Chemscore.DG>
-16.3474

> <Gold.Chemscore.ZeroCoef>
-5.4800

> <Gold.Chemscore.Hbond>
1.7441

> <Gold.Chemscore.Metal>
0.0000

> <Gold.Chemscore.Lipo>
69.7879

> <Gold.Chemscore.Internal_Hbond>
0.0000

> <Gold.Chemscore.DEClash>
0.0038

> <Gold.Chemscore.DEInternal>
1.4850

> <Gold.Chemscore.Rot>
1.2200

> <Gold.Chemscore.Internal.Correction>
   9.000000E+99

> <Gold.Chemscore.Hbonds>
donor molecule, donor type, donor heavy atom, donor atom, acceptor molecule, acceptor atom, score
      L1  H     8    25       P1  7948  0.18
      L1  H    11    26       P1  7948  0.65
      P1  H 10752 10764       L1     4  0.02

> <Gold.Chemscore.Hbond.Weighted>
-5.8254

> <Gold.Chemscore.Metal.Weighted>
-0.0000

> <Gold.Chemscore.Lipo.Weighted>
-8.1652

> <Gold.Chemscore.Internal_Hbond.Weighted>
0.0000

> <Gold.Chemscore.DEClash.Weighted>
0.0038

> <Gold.Chemscore.DEInternal.Weighted>
1.4850

> <Gold.Chemscore.Rot.Weighted>
3.1232

> <Gold.Chemscore.Internal.Correction.Weighted>
   9.000000E+99

> <Gold.Protein.RotatedTorsions>
[ 6907 6896 6895 6894 ] final -102.51 input  -60.11 | X-H torsion
[ 7974 7965 7964 7962 ] final   48.67 input  175.53 | X-H torsion
[ 8008 7997 7996 7995 ] final -145.47 input   59.86 | X-H torsion
[ 10167 10162 10161 10158 ] final   71.26 input  -65.29 | X-H torsion
[ 10718 10713 10712 10709 ] final  162.05 input   66.30 | X-H torsion
[ 10763 10752 10751 10750 ] final  -12.48 input  -60.55 | X-H torsion
[ 11005 11000 10999 10996 ] final    7.11 input  -57.11 | X-H torsion

> <Gold.Protein.ActiveResidues>
 VAL166  LYS551  ARG553  GLY616  TRP617  ASP618  TYR619  PRO620  LYS621  CYS622 
 ASP623  PHE694  ASN695  SER759  ASP760  ASP761  ALA762  ILE779  LEU786  VAL792 
 PHE793  MET794  SER795  GLU796  ALA797  LYS798  CYS799  TRP800  GLU811  SER814 

> <Gold.Protein.RotatedAtoms>
  150.7199  134.0570  159.3817 H   0  0  0  0  0  0  0  0  0  0  0  0  # atno 6907 bound_to 6896
  151.8549  135.0542  160.0472 H   0  0  0  0  0  0  0  0  0  0  0  0  # atno 6908 bound_to 6896
  152.2762  133.5392  159.5506 H   0  0  0  0  0  0  0  0  0  0  0  0  # atno 6909 bound_to 6896
  146.0182  139.4620  142.9914 H   0  0  0  0  0  0  0  0  0  0  0  0  # atno 7974 bound_to 7965
  155.5438  140.0610  157.2864 H   0  0  0  0  0  0  0  0  0  0  0  0  # atno 8008 bound_to 7997
  154.4443  140.1914  156.0661 H   0  0  0  0  0  0  0  0  0  0  0  0  # atno 8009 bound_to 7997
  156.0566  140.3277  155.7416 H   0  0  0  0  0  0  0  0  0  0  0  0  # atno 8010 bound_to 7997
  140.0481  144.5334  150.7384 H   0  0  0  0  0  0  0  0  0  0  0  0  # atno 10167 bound_to 10162
  157.1279  131.0509  151.2385 H   0  0  0  0  0  0  0  0  0  0  0  0  # atno 10718 bound_to 10713
  153.4992  135.7017  153.5841 H   0  0  0  0  0  0  0  0  0  0  0  0  # atno 10763 bound_to 10752
  153.3980  135.3879  155.1968 H   0  0  0  0  0  0  0  0  0  0  0  0  # atno 10764 bound_to 10752
  154.8712  135.3874  154.4460 H   0  0  0  0  0  0  0  0  0  0  0  0  # atno 10765 bound_to 10752
  140.5519  134.0275  155.7940 H   0  0  0  0  0  0  0  0  0  0  0  0  # atno 11005 bound_to 11000
  145.7235  141.0067  143.1390 LP  0  0  0  0  0  0  0  0  0  0  0  0  # atno 17320 bound_to 7965
  144.6979  139.8899  143.7452 LP  0  0  0  0  0  0  0  0  0  0  0  0  # atno 17321 bound_to 7965
  140.7229  143.2607  151.4217 LP  0  0  0  0  0  0  0  0  0  0  0  0  # atno 17342 bound_to 10162
  139.5971  144.1375  152.2156 LP  0  0  0  0  0  0  0  0  0  0  0  0  # atno 17343 bound_to 10162
  157.4418  130.7548  149.7076 LP  0  0  0  0  0  0  0  0  0  0  0  0  # atno 17370 bound_to 10713
  155.9814  130.4020  150.3473 LP  0  0  0  0  0  0  0  0  0  0  0  0  # atno 17371 bound_to 10713
  141.1166  133.9529  157.2810 LP  0  0  0  0  0  0  0  0  0  0  0  0  # atno 17394 bound_to 11000
  139.9451  135.0185  156.8827 LP  0  0  0  0  0  0  0  0  0  0  0  0  # atno 17395 bound_to 11000

$$$$
