AV-unprocessed.smi:2467|AV-procd|sdf|9728|dock4
  -GOLD-   2272013373D 1   1.00000     0.00000
 Structure written by MMmdl.
 46 47  0  0  0  0  0  0  0  0  1 V2000
  153.0289  138.4424  154.9068 C   0  0  0  0  0  0  0  0  0  0  0  0
  151.5608  138.1040  154.6045 C   0  0  0  0  0  0  0  0  0  0  0  0
  150.6223  139.3294  154.4435 C   0  0  0  0  0  0  0  0  0  0  0  0
  150.6469  140.1968  155.7316 C   0  0  0  0  0  0  0  0  0  0  0  0
  149.9882  141.5786  155.6264 C   0  0  0  0  0  0  0  0  0  0  0  0
  149.1716  138.9081  154.0609 C   0  0  1  0  0  0  0  0  0  0  0  0
  148.4861  138.0375  155.1446 C   0  0  0  0  0  0  0  0  0  0  0  0
  147.0754  137.6076  154.7131 C   0  0  2  0  0  0  0  0  0  0  0  0
  147.1717  136.6424  153.6219 N   0  0  0  0  0  0  0  0  0  0  0  0
  146.1922  135.8476  153.1653 C   0  0  0  0  0  0  0  0  0  0  0  0
  145.0550  135.8568  153.6333 O   0  0  0  0  0  0  0  0  0  0  0  0
  146.5242  135.0254  152.1461 N   0  0  0  0  0  0  0  0  0  0  0  0
  145.7588  134.0621  151.4213 C   0  0  0  0  0  0  0  0  0  0  0  0
  146.5270  133.1789  150.6287 C   0  0  0  0  0  0  0  0  0  0  0  0
  145.8812  132.1863  149.8661 C   0  0  0  0  0  0  0  0  0  0  0  0
  144.4787  132.0997  149.9134 C   0  0  0  0  0  0  0  0  0  0  0  0
  143.7862  133.0151  150.7259 C   0  0  0  0  0  0  0  0  0  0  0  0
  144.4045  133.9662  151.4569 N   0  0  0  0  0  0  0  0  0  0  0  0
  146.2669  138.8505  154.3037 C   0  0  0  0  0  0  0  0  0  0  0  0
  147.0546  139.7265  153.3161 C   0  0  0  0  0  0  0  0  0  0  0  0
  148.3311  140.0458  153.8619 O   0  0  0  0  0  0  0  0  0  0  0  0
  153.6452  137.5445  154.8565 H   0  0  0  0  0  0  0  0  0  0  0  0
  153.1566  138.8597  155.9049 H   0  0  0  0  0  0  0  0  0  0  0  0
  153.4273  139.1556  154.1847 H   0  0  0  0  0  0  0  0  0  0  0  0
  151.5670  137.5274  153.6794 H   0  0  0  0  0  0  0  0  0  0  0  0
  151.1738  137.4370  155.3759 H   0  0  0  0  0  0  0  0  0  0  0  0
  151.0281  139.9240  153.6237 H   0  0  0  0  0  0  0  0  0  0  0  0
  150.1831  139.6469  156.5515 H   0  0  0  0  0  0  0  0  0  0  0  0
  151.6789  140.3683  156.0334 H   0  0  0  0  0  0  0  0  0  0  0  0
  150.1608  142.1540  156.5360 H   0  0  0  0  0  0  0  0  0  0  0  0
  148.9087  141.5020  155.4994 H   0  0  0  0  0  0  0  0  0  0  0  0
  150.3966  142.1505  154.7929 H   0  0  0  0  0  0  0  0  0  0  0  0
  149.2186  138.3679  153.1137 H   0  0  0  0  0  0  0  0  0  0  0  0
  149.0744  137.1557  155.3898 H   0  0  0  0  0  0  0  0  0  0  0  0
  148.4154  138.6116  156.0695 H   0  0  0  0  0  0  0  0  0  0  0  0
  146.5847  137.1218  155.5583 H   0  0  0  0  0  0  0  0  0  0  0  0
  148.0730  136.5648  153.1715 H   0  0  0  0  0  0  0  0  0  0  0  0
  147.4819  135.1118  151.8380 H   0  0  0  0  0  0  0  0  0  0  0  0
  147.6043  133.2576  150.6023 H   0  0  0  0  0  0  0  0  0  0  0  0
  146.4532  131.5034  149.2555 H   0  0  0  0  0  0  0  0  0  0  0  0
  143.9478  131.3520  149.3430 H   0  0  0  0  0  0  0  0  0  0  0  0
  142.7086  132.9850  150.7919 H   0  0  0  0  0  0  0  0  0  0  0  0
  145.3031  138.5683  153.8782 H   0  0  0  0  0  0  0  0  0  0  0  0
  146.0456  139.4386  155.1950 H   0  0  0  0  0  0  0  0  0  0  0  0
  147.1701  139.2266  152.3531 H   0  0  0  0  0  0  0  0  0  0  0  0
  146.5124  140.6529  153.1268 H   0  0  0  0  0  0  0  0  0  0  0  0
  1  2  1  0  0  0  0
  1 22  1  0  0  0  0
  1 23  1  0  0  0  0
  1 24  1  0  0  0  0
  2  3  1  0  0  0  0
  2 25  1  0  0  0  0
  2 26  1  0  0  0  0
  3  4  1  0  0  0  0
  3  6  1  0  0  0  0
  3 27  1  0  0  0  0
  4  5  1  0  0  0  0
  4 28  1  0  0  0  0
  4 29  1  0  0  0  0
  5 30  1  0  0  0  0
  5 31  1  0  0  0  0
  5 32  1  0  0  0  0
  6 21  1  0  0  0  0
  6  7  1  0  0  0  0
  6 33  1  0  0  0  0
  7  8  1  0  0  0  0
  7 34  1  0  0  0  0
  7 35  1  0  0  0  0
  8  9  1  0  0  0  0
  8 19  1  0  0  0  0
  8 36  1  0  0  0  0
  9 10  1  0  0  0  0
  9 37  1  0  0  0  0
 10 11  2  0  0  0  0
 10 12  1  0  0  0  0
 12 13  1  0  0  0  0
 12 38  1  0  0  0  0
 13 18  1  0  0  0  0
 13 14  2  0  0  0  0
 14 15  1  0  0  0  0
 14 39  1  0  0  0  0
 15 16  2  0  0  0  0
 15 40  1  0  0  0  0
 16 17  1  0  0  0  0
 16 41  1  0  0  0  0
 17 18  2  0  0  0  0
 17 42  1  0  0  0  0
 19 20  1  0  0  0  0
 19 43  1  0  0  0  0
 19 44  1  0  0  0  0
 20 21  1  0  0  0  0
 20 45  1  0  0  0  0
 20 46  1  0  0  0  0
M  END
> <s_m_source_file>
AV-unprocessed.smi

> <i_m_source_file_index>
2467

> <i_lp_mmshare_version>
43012

> <i_f3d_flags>
0

> <s_epik_input>
W0NIM11bQ0gyXVtDSF0oW0NIMl1bQ0gzXSlbQ0BASF0xW0NIMl1bQ0BIXShbQ0gyXVtDSDJdTzEpW05IXUMoPU8pW05IXWMyW2NIXVtjSF1bY0hdW2NIXW4y

> <s_epik_cmdline>
J2VwaWtfcHl0aG9uJywgJy1waCcsICc3LjAnLCAnLXRuJywgJzgnLCAnLW1hJywgJzIwMCcsICctbWV0YWxfYmluZGluZycsICctaW1hZScsICc8aW5maWxlLm1hZT4nLCAnLW9tYWUnLCAnPG91dGZpbGUubWFlPic=

> <r_lp_tautomer_probability>
1

> <r_epik_Ionization_Penalty>
4.80427e-05

> <r_epik_Ionization_Penalty_Charging>
0

> <r_epik_Ionization_Penalty_Neutral>
4.80427e-05

> <r_epik_State_Penalty>
-0

> <r_epik_Charging_Adjusted_Penalty>
0

> <i_epik_Tot_Q>
0

> <i_epik_Tot_abs_Q>
0

> <r_epik_Metal_State_Penalty>
-0

> <b_epik_Metal_Only>
0

> <s_lp_Force_Field>
OPLS_2005

> <r_lp_Energy>
20.8854

> <b_lp_Chiralities_Consistent>
1

> <s_lp_Variant>
AV-unprocessed.smi:2467-4

> <Gold.Version>
5.8.1

> <Gold.Id.Protein>
6NUR|6NUR_protein|mol2

> <Gold.PLP.Fitness>
45.5408

> <Gold.PLP.PLP>
-37.3029

> <Gold.PLP.part.hbond>
-2.0000

> <Gold.PLP.part.metal>
0.0000

> <Gold.PLP.part.buried>
-3.2136

> <Gold.PLP.part.nonpolar>
-33.4769

> <Gold.PLP.part.repulsive>
1.3052

> <Gold.PLP.ligand.clash>
0.0000

> <Gold.PLP.ligand.torsion>
0.2588

> <Gold.PLP.Chemscore.Hbond>
1.9040

> <Gold.PLP.Chemscore.CHOScore>
1.0000

> <Gold.PLP.Chemscore.Metal>
0.0000

> <Gold.Chemscore.Hbonds>
donor molecule, donor type, donor heavy atom, donor atom, acceptor molecule, acceptor atom, score
      L1  H     9    37       P1  7948  1.00
      L1  H    12    38       P1  7948  0.91
      L1  C    17    42       P1 10186  0.94

> <Gold.PLP.Chemscore.Internal.Correction>
0.0435

> <Gold.Rescore>
     Score         DG    S(hbond)    S(metal)    S(lipo)     H(rot)  DE(clash)    DE(int)     intcor
     16.22     -18.93       1.88        0.00      93.92       1.49       0.03       2.68       ----

> <Gold.Chemscore.Fitness>
16.2231

> <Gold.Chemscore.DG>
-18.9338

> <Gold.Chemscore.ZeroCoef>
-5.4800

> <Gold.Chemscore.Hbond>
1.8766

> <Gold.Chemscore.Metal>
0.0000

> <Gold.Chemscore.Lipo>
93.9222

> <Gold.Chemscore.Internal_Hbond>
0.0000

> <Gold.Chemscore.DEClash>
0.0269

> <Gold.Chemscore.DEInternal>
2.6838

> <Gold.Chemscore.Rot>
1.4856

> <Gold.Chemscore.Internal.Correction>
   9.000000E+99

> <Gold.Chemscore.Hbonds>
donor molecule, donor type, donor heavy atom, donor atom, acceptor molecule, acceptor atom, score
      L1  H     9    37       P1  7948  0.93
      L1  H    12    38       P1  7948  0.80

> <Gold.Chemscore.Hbond.Weighted>
-6.2680

> <Gold.Chemscore.Metal.Weighted>
-0.0000

> <Gold.Chemscore.Lipo.Weighted>
-10.9889

> <Gold.Chemscore.Internal_Hbond.Weighted>
0.0000

> <Gold.Chemscore.DEClash.Weighted>
0.0269

> <Gold.Chemscore.DEInternal.Weighted>
2.6838

> <Gold.Chemscore.Rot.Weighted>
3.8031

> <Gold.Chemscore.Internal.Correction.Weighted>
   9.000000E+99

> <Gold.Protein.RotatedTorsions>
[ 6907 6896 6895 6894 ] final  -75.46 input  -60.11 | X-H torsion
[ 7974 7965 7964 7962 ] final   13.02 input  175.53 | X-H torsion
[ 8008 7997 7996 7995 ] final   -1.61 input   59.86 | X-H torsion
[ 10167 10162 10161 10158 ] final  147.16 input  -65.29 | X-H torsion
[ 10718 10713 10712 10709 ] final  -11.22 input   66.30 | X-H torsion
[ 10763 10752 10751 10750 ] final -160.64 input  -60.55 | X-H torsion
[ 11005 11000 10999 10996 ] final  120.88 input  -57.11 | X-H torsion

> <Gold.Protein.ActiveResidues>
 VAL166  LYS551  ARG553  GLY616  TRP617  ASP618  TYR619  PRO620  LYS621  CYS622 
 ASP623  PHE694  ASN695  SER759  ASP760  ASP761  ALA762  ILE779  LEU786  VAL792 
 PHE793  MET794  SER795  GLU796  ALA797  LYS798  CYS799  TRP800  GLU811  SER814 

> <Gold.Protein.RotatedAtoms>
  150.7058  134.4717  159.5428 H   0  0  0  0  0  0  0  0  0  0  0  0  # atno 6907 bound_to 6896
  152.2372  134.8262  160.0474 H   0  0  0  0  0  0  0  0  0  0  0  0  # atno 6908 bound_to 6896
  151.9056  133.3513  159.3882 H   0  0  0  0  0  0  0  0  0  0  0  0  # atno 6909 bound_to 6896
  146.2339  139.9251  142.8504 H   0  0  0  0  0  0  0  0  0  0  0  0  # atno 7974 bound_to 7965
  154.6449  140.2555  155.7279 H   0  0  0  0  0  0  0  0  0  0  0  0  # atno 8008 bound_to 7997
  156.2547  140.2880  156.0779 H   0  0  0  0  0  0  0  0  0  0  0  0  # atno 8009 bound_to 7997
  155.1539  140.0383  157.2817 H   0  0  0  0  0  0  0  0  0  0  0  0  # atno 8010 bound_to 7997
  139.4894  144.5776  151.6935 H   0  0  0  0  0  0  0  0  0  0  0  0  # atno 10167 bound_to 10162
  156.6622  130.4985  149.6027 H   0  0  0  0  0  0  0  0  0  0  0  0  # atno 10718 bound_to 10713
  154.7373  135.3060  154.8789 H   0  0  0  0  0  0  0  0  0  0  0  0  # atno 10763 bound_to 10752
  153.9614  135.6752  153.4749 H   0  0  0  0  0  0  0  0  0  0  0  0  # atno 10764 bound_to 10752
  153.0975  135.4928  154.8728 H   0  0  0  0  0  0  0  0  0  0  0  0  # atno 10765 bound_to 10752
  139.9203  134.9636  156.7874 H   0  0  0  0  0  0  0  0  0  0  0  0  # atno 11005 bound_to 11000
  145.2099  140.9891  143.4107 LP  0  0  0  0  0  0  0  0  0  0  0  0  # atno 17320 bound_to 7965
  144.9700  139.3889  143.6313 LP  0  0  0  0  0  0  0  0  0  0  0  0  # atno 17321 bound_to 7965
  140.5375  144.0632  150.6076 LP  0  0  0  0  0  0  0  0  0  0  0  0  # atno 17342 bound_to 10162
  140.3643  143.2890  152.0349 LP  0  0  0  0  0  0  0  0  0  0  0  0  # atno 17343 bound_to 10162
  156.2002  130.6615  151.1159 LP  0  0  0  0  0  0  0  0  0  0  0  0  # atno 17370 bound_to 10713
  157.7105  131.0736  150.6515 LP  0  0  0  0  0  0  0  0  0  0  0  0  # atno 17371 bound_to 10713
  140.6494  133.9745  155.7747 LP  0  0  0  0  0  0  0  0  0  0  0  0  # atno 17394 bound_to 11000
  141.0718  134.0194  157.3515 LP  0  0  0  0  0  0  0  0  0  0  0  0  # atno 17395 bound_to 11000

$$$$
