AV-unprocessed.smi:2343|AV-procd|sdf|9356|dock2
  -GOLD-   2272012573D 1   1.00000     0.00000
 Structure written by MMmdl.
 34 35  0  0  0  0  0  0  0  0  1 V2000
  145.8801  138.6559  153.6951 O   0  0  0  0  0  0  0  0  0  0  0  0
  146.8109  137.9805  153.2563 C   0  0  0  0  0  0  0  0  0  0  0  0
  146.6359  136.8553  152.5486 N   0  0  0  0  0  0  0  0  0  0  0  0
  145.3441  136.2673  152.2150 C   0  0  0  0  0  0  0  0  0  0  0  0
  145.3412  135.6784  150.7946 C   0  0  0  0  0  0  0  0  0  0  0  0
  144.9633  134.2103  150.7772 C   0  0  0  0  0  0  0  0  0  0  0  0
  143.7849  133.6897  151.1168 C   0  0  0  0  0  0  0  0  0  0  0  0
  143.7548  132.1914  150.9922 C   0  0  0  0  0  0  0  0  0  0  0  0
  145.1811  131.8264  150.5230 C   0  0  0  0  0  0  0  0  0  0  0  0
  145.9565  133.1540  150.3659 C   0  0  0  0  0  0  0  0  0  0  0  0
  148.1173  138.2646  153.3973 N   0  0  0  0  0  0  0  0  0  0  0  0
  148.7323  139.3392  154.0975 C   0  0  0  0  0  0  0  0  0  0  0  0
  148.0950  140.5683  154.3956 C   0  0  0  0  0  0  0  0  0  0  0  0
  148.8141  141.5445  155.1143 C   0  0  0  0  0  0  0  0  0  0  0  0
  150.0819  141.3701  155.5435 N   0  0  0  0  0  0  0  0  0  0  0  0
  150.6821  140.1930  155.2680 C   0  0  0  0  0  0  0  0  0  0  0  0
  150.0534  139.1514  154.5567 C   0  0  0  0  0  0  0  0  0  0  0  0
  150.7127  137.9915  154.3192 F   0  0  0  0  0  0  0  0  0  0  0  0
  147.4558  136.3663  152.2199 H   0  0  0  0  0  0  0  0  0  0  0  0
  145.1363  135.4811  152.9412 H   0  0  0  0  0  0  0  0  0  0  0  0
  144.5546  137.0118  152.3295 H   0  0  0  0  0  0  0  0  0  0  0  0
  144.6437  136.2225  150.1565 H   0  0  0  0  0  0  0  0  0  0  0  0
  146.3293  135.7921  150.3467 H   0  0  0  0  0  0  0  0  0  0  0  0
  142.9256  134.2545  151.4477 H   0  0  0  0  0  0  0  0  0  0  0  0
  143.5153  131.7356  151.9533 H   0  0  0  0  0  0  0  0  0  0  0  0
  143.0002  131.8905  150.2649 H   0  0  0  0  0  0  0  0  0  0  0  0
  145.6709  131.1816  151.2535 H   0  0  0  0  0  0  0  0  0  0  0  0
  145.1512  131.2808  149.5793 H   0  0  0  0  0  0  0  0  0  0  0  0
  146.2764  133.3085  149.3351 H   0  0  0  0  0  0  0  0  0  0  0  0
  146.8350  133.1866  151.0109 H   0  0  0  0  0  0  0  0  0  0  0  0
  148.7561  137.6530  152.9105 H   0  0  0  0  0  0  0  0  0  0  0  0
  147.0783  140.7796  154.1040 H   0  0  0  0  0  0  0  0  0  0  0  0
  148.3539  142.4910  155.3571 H   0  0  0  0  0  0  0  0  0  0  0  0
  151.6940  140.0763  155.6273 H   0  0  0  0  0  0  0  0  0  0  0  0
  1  2  2  0  0  0  0
  2  3  1  0  0  0  0
  2 11  1  0  0  0  0
  3  4  1  0  0  0  0
  3 19  1  0  0  0  0
  4  5  1  0  0  0  0
  4 20  1  0  0  0  0
  4 21  1  0  0  0  0
  5  6  1  0  0  0  0
  5 22  1  0  0  0  0
  5 23  1  0  0  0  0
  6 10  1  0  0  0  0
  6  7  2  0  0  0  0
  7  8  1  0  0  0  0
  7 24  1  0  0  0  0
  8  9  1  0  0  0  0
  8 25  1  0  0  0  0
  8 26  1  0  0  0  0
  9 10  1  0  0  0  0
  9 27  1  0  0  0  0
  9 28  1  0  0  0  0
 10 29  1  0  0  0  0
 10 30  1  0  0  0  0
 11 12  1  0  0  0  0
 11 31  1  0  0  0  0
 12 17  1  0  0  0  0
 12 13  2  0  0  0  0
 13 14  1  0  0  0  0
 13 32  1  0  0  0  0
 14 15  2  0  0  0  0
 14 33  1  0  0  0  0
 15 16  1  0  0  0  0
 16 17  2  0  0  0  0
 16 34  1  0  0  0  0
 17 18  1  0  0  0  0
M  END
> <s_m_source_file>
AV-unprocessed.smi

> <i_m_source_file_index>
2343

> <i_lp_mmshare_version>
43012

> <i_f3d_flags>
0

> <s_epik_input>
RmMxW2NIXW5bY0hdW2NIXWMxW05IXUMoPU8pW05IXVtDSDJdW0NIMl1DMj1bQ0hdW0NIMl1bQ0gyXVtDSDJdMg==

> <s_epik_cmdline>
J2VwaWtfcHl0aG9uJywgJy1waCcsICc3LjAnLCAnLXRuJywgJzgnLCAnLW1hJywgJzIwMCcsICctbWV0YWxfYmluZGluZycsICctaW1hZScsICc8aW5maWxlLm1hZT4nLCAnLW9tYWUnLCAnPG91dGZpbGUubWFlPic=

> <r_epik_Ionization_Penalty>
0.0031801

> <r_epik_Ionization_Penalty_Charging>
0

> <r_epik_Ionization_Penalty_Neutral>
0.0031801

> <r_epik_State_Penalty>
0.0022135

> <r_epik_Charging_Adjusted_Penalty>
0.0022135

> <i_epik_Tot_Q>
0

> <i_epik_Tot_abs_Q>
0

> <r_epik_Metal_State_Penalty>
-0

> <b_epik_Metal_Only>
0

> <s_lp_Force_Field>
OPLS_2005

> <r_lp_Energy>
22.6316

> <b_lp_Chiralities_Consistent>
1

> <s_lp_Variant>
AV-unprocessed.smi:2343-1

> <Gold.Version>
5.8.1

> <Gold.Id.Protein>
6NUR|6NUR_protein|mol2

> <Gold.PLP.Fitness>
42.4067

> <Gold.PLP.PLP>
-34.9169

> <Gold.PLP.part.hbond>
-2.2710

> <Gold.PLP.part.metal>
0.0000

> <Gold.PLP.part.buried>
-2.4318

> <Gold.PLP.part.nonpolar>
-31.3478

> <Gold.PLP.part.repulsive>
0.4497

> <Gold.PLP.ligand.clash>
0.0000

> <Gold.PLP.ligand.torsion>
0.6830

> <Gold.PLP.Chemscore.Hbond>
1.9513

> <Gold.PLP.Chemscore.CHOScore>
1.0000

> <Gold.PLP.Chemscore.Metal>
0.0000

> <Gold.Chemscore.Hbonds>
donor molecule, donor type, donor heavy atom, donor atom, acceptor molecule, acceptor atom, score
      L1  H     3    19       P1  7948  1.00
      L1  H    11    31       P1  7948  0.96
      L1  C    14    33       P1  8028  1.00

> <Gold.PLP.Chemscore.Internal.Correction>
0.0021

> <Gold.Rescore>
     Score         DG    S(hbond)    S(metal)    S(lipo)     H(rot)  DE(clash)    DE(int)     intcor
     17.35     -18.31       1.93        0.00      85.83       1.43       0.10       0.86       ----

> <Gold.Chemscore.Fitness>
17.3543

> <Gold.Chemscore.DG>
-18.3123

> <Gold.Chemscore.ZeroCoef>
-5.4800

> <Gold.Chemscore.Hbond>
1.9301

> <Gold.Chemscore.Metal>
0.0000

> <Gold.Chemscore.Lipo>
85.8288

> <Gold.Chemscore.Internal_Hbond>
0.0000

> <Gold.Chemscore.DEClash>
0.0974

> <Gold.Chemscore.DEInternal>
0.8605

> <Gold.Chemscore.Rot>
1.4282

> <Gold.Chemscore.Internal.Correction>
   9.000000E+99

> <Gold.Chemscore.Hbonds>
donor molecule, donor type, donor heavy atom, donor atom, acceptor molecule, acceptor atom, score
      L1  H     3    19       P1  7948  0.92
      L1  H    11    31       P1  7948  0.92

> <Gold.Chemscore.Hbond.Weighted>
-6.4466

> <Gold.Chemscore.Metal.Weighted>
-0.0000

> <Gold.Chemscore.Lipo.Weighted>
-10.0420

> <Gold.Chemscore.Internal_Hbond.Weighted>
0.0000

> <Gold.Chemscore.DEClash.Weighted>
0.0974

> <Gold.Chemscore.DEInternal.Weighted>
0.8605

> <Gold.Chemscore.Rot.Weighted>
3.6563

> <Gold.Chemscore.Internal.Correction.Weighted>
   9.000000E+99

> <Gold.Protein.RotatedTorsions>
[ 6907 6896 6895 6894 ] final  -53.29 input  -60.11 | X-H torsion
[ 7974 7965 7964 7962 ] final  169.65 input  175.53 | X-H torsion
[ 8008 7997 7996 7995 ] final -124.76 input   59.86 | X-H torsion
[ 10167 10162 10161 10158 ] final -152.07 input  -65.29 | X-H torsion
[ 10718 10713 10712 10709 ] final -104.38 input   66.30 | X-H torsion
[ 10763 10752 10751 10750 ] final  -18.95 input  -60.55 | X-H torsion
[ 11005 11000 10999 10996 ] final  -11.53 input  -57.11 | X-H torsion

> <Gold.Protein.ActiveResidues>
 VAL166  LYS551  ARG553  GLY616  TRP617  ASP618  TYR619  PRO620  LYS621  CYS622 
 ASP623  PHE694  ASN695  SER759  ASP760  ASP761  ALA762  ILE779  LEU786  VAL792 
 PHE793  MET794  SER795  GLU796  ALA797  LYS798  CYS799  TRP800  GLU811  SER814 

> <Gold.Protein.RotatedAtoms>
  150.8440  134.7743  159.6955 H   0  0  0  0  0  0  0  0  0  0  0  0  # atno 6907 bound_to 6896
  152.4521  134.5367  159.9837 H   0  0  0  0  0  0  0  0  0  0  0  0  # atno 6908 bound_to 6896
  151.5501  133.3381  159.2987 H   0  0  0  0  0  0  0  0  0  0  0  0  # atno 6909 bound_to 6896
  144.7348  139.9085  143.6413 H   0  0  0  0  0  0  0  0  0  0  0  0  # atno 7974 bound_to 7965
  155.2022  140.0416  157.2919 H   0  0  0  0  0  0  0  0  0  0  0  0  # atno 8008 bound_to 7997
  154.6067  140.2466  155.7693 H   0  0  0  0  0  0  0  0  0  0  0  0  # atno 8009 bound_to 7997
  156.2354  140.2923  156.0309 H   0  0  0  0  0  0  0  0  0  0  0  0  # atno 8010 bound_to 7997
  139.7213  143.8953  152.2504 H   0  0  0  0  0  0  0  0  0  0  0  0  # atno 10167 bound_to 10162
  156.0302  130.5512  150.7388 H   0  0  0  0  0  0  0  0  0  0  0  0  # atno 10718 bound_to 10713
  153.5972  135.7000  153.5399 H   0  0  0  0  0  0  0  0  0  0  0  0  # atno 10763 bound_to 10752
  153.3128  135.4096  155.1350 H   0  0  0  0  0  0  0  0  0  0  0  0  # atno 10764 bound_to 10752
  154.8589  135.3676  154.5506 H   0  0  0  0  0  0  0  0  0  0  0  0  # atno 10765 bound_to 10752
  140.7563  133.8551  155.9086 H   0  0  0  0  0  0  0  0  0  0  0  0  # atno 11005 bound_to 11000
  146.1018  139.4014  143.0342 LP  0  0  0  0  0  0  0  0  0  0  0  0  # atno 17320 bound_to 7965
  145.7567  140.9951  143.1221 LP  0  0  0  0  0  0  0  0  0  0  0  0  # atno 17321 bound_to 7965
  139.8850  144.6997  150.8835 LP  0  0  0  0  0  0  0  0  0  0  0  0  # atno 17342 bound_to 10162
  140.7754  143.3631  151.1790 LP  0  0  0  0  0  0  0  0  0  0  0  0  # atno 17343 bound_to 10162
  157.4962  131.0915  151.0369 LP  0  0  0  0  0  0  0  0  0  0  0  0  # atno 17370 bound_to 10713
  157.0762  130.5884  149.5412 LP  0  0  0  0  0  0  0  0  0  0  0  0  # atno 17371 bound_to 10713
  140.9705  134.1538  157.4580 LP  0  0  0  0  0  0  0  0  0  0  0  0  # atno 17394 bound_to 11000
  139.8778  134.9977  156.5859 LP  0  0  0  0  0  0  0  0  0  0  0  0  # atno 17395 bound_to 11000

$$$$
