AV-unprocessed.smi:2259|AV-procd|sdf|9130|dock6
  -GOLD-   2272012333D 1   1.00000     0.00000
 Structure written by MMmdl.
 39 40  0  0  0  0  0  0  0  0  1 V2000
  152.4181  143.7139  161.6710 C   0  0  0  0  0  0  0  0  0  0  0  0
  152.1372  143.1643  160.2838 C   0  0  0  0  0  0  0  0  0  0  0  0
  151.2493  143.9130  159.5061 N   0  0  0  0  0  0  0  0  0  0  0  0
  150.9439  143.5167  158.3142 C   0  0  0  0  0  0  0  0  0  0  0  0
  151.4810  142.3388  157.7663 N   0  0  0  0  0  0  0  0  0  0  0  0
  151.0569  141.9932  156.3968 C   0  0  0  0  0  0  0  0  0  0  0  0
  150.4149  140.5896  156.2917 C   0  0  2  0  0  0  0  0  0  0  0  0
  150.6888  140.1066  154.9923 O   0  0  0  0  0  0  0  0  0  0  0  0
  148.8891  140.5856  156.4971 C   0  0  0  0  0  0  0  0  0  0  0  0
  148.2578  140.8284  155.2468 O   0  0  0  0  0  0  0  0  0  0  0  0
  147.2136  141.7275  155.2045 C   0  0  0  0  0  0  0  0  0  0  0  0
  146.8377  142.2108  153.9343 C   0  0  0  0  0  0  0  0  0  0  0  0
  145.7826  143.1331  153.7952 C   0  0  0  0  0  0  0  0  0  0  0  0
  145.0866  143.5845  154.9338 C   0  0  0  0  0  0  0  0  0  0  0  0
  143.9980  144.5374  154.7939 C   0  0  0  0  0  0  0  0  0  0  0  0
  143.1316  145.2961  154.6823 N   0  0  0  0  0  0  0  0  0  0  0  0
  145.4509  143.1077  156.2085 C   0  0  0  0  0  0  0  0  0  0  0  0
  146.5072  142.1855  156.3456 C   0  0  0  0  0  0  0  0  0  0  0  0
  152.3706  141.5619  158.4499 C   0  0  0  0  0  0  0  0  0  0  0  0
  152.8574  140.5450  157.9519 O   0  0  0  0  0  0  0  0  0  0  0  0
  152.7013  142.0206  159.8089 C   0  0  0  0  0  0  0  0  0  0  0  0
  153.6741  141.1644  160.6102 C   0  0  0  0  0  0  0  0  0  0  0  0
  153.4819  143.9192  161.7927 H   0  0  0  0  0  0  0  0  0  0  0  0
  152.1105  142.9987  162.4344 H   0  0  0  0  0  0  0  0  0  0  0  0
  151.8764  144.6443  161.8470 H   0  0  0  0  0  0  0  0  0  0  0  0
  150.2533  144.0645  157.6708 H   0  0  0  0  0  0  0  0  0  0  0  0
  150.3711  142.7379  155.9876 H   0  0  0  0  0  0  0  0  0  0  0  0
  151.9316  142.0413  155.7450 H   0  0  0  0  0  0  0  0  0  0  0  0
  150.8841  139.9160  157.0095 H   0  0  0  0  0  0  0  0  0  0  0  0
  151.0176  139.2235  155.0614 H   0  0  0  0  0  0  0  0  0  0  0  0
  148.5646  139.6059  156.8478 H   0  0  0  0  0  0  0  0  0  0  0  0
  148.5976  141.3225  157.2479 H   0  0  0  0  0  0  0  0  0  0  0  0
  147.3656  141.8710  153.0552 H   0  0  0  0  0  0  0  0  0  0  0  0
  145.5133  143.4903  152.8114 H   0  0  0  0  0  0  0  0  0  0  0  0
  144.9232  143.4459  157.0889 H   0  0  0  0  0  0  0  0  0  0  0  0
  146.7551  141.8440  157.3389 H   0  0  0  0  0  0  0  0  0  0  0  0
  153.2829  140.1523  160.7183 H   0  0  0  0  0  0  0  0  0  0  0  0
  153.8627  141.5502  161.6107 H   0  0  0  0  0  0  0  0  0  0  0  0
  154.6334  141.1034  160.0953 H   0  0  0  0  0  0  0  0  0  0  0  0
  1  2  1  0  0  0  0
  1 23  1  0  0  0  0
  1 24  1  0  0  0  0
  1 25  1  0  0  0  0
  2 21  2  0  0  0  0
  2  3  1  0  0  0  0
  3  4  2  0  0  0  0
  4  5  1  0  0  0  0
  4 26  1  0  0  0  0
  5  6  1  0  0  0  0
  5 19  1  0  0  0  0
  6  7  1  0  0  0  0
  6 27  1  0  0  0  0
  6 28  1  0  0  0  0
  7  8  1  0  0  0  0
  7  9  1  0  0  0  0
  7 29  1  0  0  0  0
  8 30  1  0  0  0  0
  9 10  1  0  0  0  0
  9 31  1  0  0  0  0
  9 32  1  0  0  0  0
 10 11  1  0  0  0  0
 11 18  1  0  0  0  0
 11 12  2  0  0  0  0
 12 13  1  0  0  0  0
 12 33  1  0  0  0  0
 13 14  2  0  0  0  0
 13 34  1  0  0  0  0
 14 15  1  0  0  0  0
 14 17  1  0  0  0  0
 15 16  3  0  0  0  0
 17 18  2  0  0  0  0
 17 35  1  0  0  0  0
 18 36  1  0  0  0  0
 19 20  2  0  0  0  0
 19 21  1  0  0  0  0
 21 22  1  0  0  0  0
 22 37  1  0  0  0  0
 22 38  1  0  0  0  0
 22 39  1  0  0  0  0
M  END
> <s_m_source_file>
AV-unprocessed.smi

> <i_m_source_file_index>
2259

> <i_lp_mmshare_version>
43012

> <i_f3d_flags>
0

> <s_epik_input>
W0NIM11jMW5bY0hdbihjKD1PKWMxW0NIM10pW0NIMl1bQ0BIXShbT0hdKVtDSDJdT2MyW2NIXVtjSF1jKEMjTilbY0hdW2NIXTI=

> <s_epik_cmdline>
J2VwaWtfcHl0aG9uJywgJy1waCcsICc3LjAnLCAnLXRuJywgJzgnLCAnLW1hJywgJzIwMCcsICctbWV0YWxfYmluZGluZycsICctaW1hZScsICc8aW5maWxlLm1hZT4nLCAnLW9tYWUnLCAnPG91dGZpbGUubWFlPic=

> <r_lp_tautomer_probability>
1

> <r_epik_Ionization_Penalty>
3.47921e-05

> <r_epik_Ionization_Penalty_Charging>
7.82631e-08

> <r_epik_Ionization_Penalty_Neutral>
3.47138e-05

> <r_epik_State_Penalty>
-0

> <r_epik_Charging_Adjusted_Penalty>
7.82631e-08

> <i_epik_Tot_Q>
0

> <i_epik_Tot_abs_Q>
0

> <r_epik_Metal_State_Penalty>
-0

> <b_epik_Metal_Only>
0

> <s_lp_Force_Field>
OPLS_2005

> <r_lp_Energy>
23.7954

> <b_lp_Chiralities_Consistent>
1

> <s_lp_Variant>
AV-unprocessed.smi:2259-1

> <Gold.Version>
5.8.1

> <Gold.Id.Protein>
6NUR|6NUR_protein|mol2

> <Gold.PLP.Fitness>
50.3279

> <Gold.PLP.PLP>
-44.2417

> <Gold.PLP.part.hbond>
-2.0000

> <Gold.PLP.part.metal>
0.0000

> <Gold.PLP.part.buried>
-7.4825

> <Gold.PLP.part.nonpolar>
-33.6054

> <Gold.PLP.part.repulsive>
0.2054

> <Gold.PLP.ligand.clash>
0.0000

> <Gold.PLP.ligand.torsion>
1.2415

> <Gold.PLP.Chemscore.Hbond>
1.8320

> <Gold.PLP.Chemscore.CHOScore>
1.0000

> <Gold.PLP.Chemscore.Metal>
0.0000

> <Gold.Chemscore.Hbonds>
donor molecule, donor type, donor heavy atom, donor atom, acceptor molecule, acceptor atom, score
      P1  H  7989  7998       L1     8  1.00
      P1  H  7997  8008       L1    20  0.80
      L1  C     4    26       P1  8028  1.00

> <Gold.PLP.Chemscore.Internal.Correction>
0.0733

> <Gold.Rescore>
     Score         DG    S(hbond)    S(metal)    S(lipo)     H(rot)  DE(clash)    DE(int)     intcor
     12.90     -15.32       1.84        0.00      89.59       2.66       0.11       2.31       ----

> <Gold.Chemscore.Fitness>
12.8985

> <Gold.Chemscore.DG>
-15.3168

> <Gold.Chemscore.ZeroCoef>
-5.4800

> <Gold.Chemscore.Hbond>
1.8429

> <Gold.Chemscore.Metal>
0.0000

> <Gold.Chemscore.Lipo>
89.5871

> <Gold.Chemscore.Internal_Hbond>
0.0000

> <Gold.Chemscore.DEClash>
0.1051

> <Gold.Chemscore.DEInternal>
2.3133

> <Gold.Chemscore.Rot>
2.6563

> <Gold.Chemscore.Internal.Correction>
   9.000000E+99

> <Gold.Chemscore.Hbonds>
donor molecule, donor type, donor heavy atom, donor atom, acceptor molecule, acceptor atom, score
      P1  H  7989  7998       L1     8  0.50
      P1  H  7997  8008       L1    20  0.76

> <Gold.Chemscore.Hbond.Weighted>
-6.1553

> <Gold.Chemscore.Metal.Weighted>
-0.0000

> <Gold.Chemscore.Lipo.Weighted>
-10.4817

> <Gold.Chemscore.Internal_Hbond.Weighted>
0.0000

> <Gold.Chemscore.DEClash.Weighted>
0.1051

> <Gold.Chemscore.DEInternal.Weighted>
2.3133

> <Gold.Chemscore.Rot.Weighted>
6.8002

> <Gold.Chemscore.Internal.Correction.Weighted>
   9.000000E+99

> <Gold.Protein.RotatedTorsions>
[ 6907 6896 6895 6894 ] final   54.27 input  -60.11 | X-H torsion
[ 7974 7965 7964 7962 ] final  139.09 input  175.53 | X-H torsion
[ 8008 7997 7996 7995 ] final  -73.32 input   59.86 | X-H torsion
[ 10167 10162 10161 10158 ] final  112.54 input  -65.29 | X-H torsion
[ 10718 10713 10712 10709 ] final -169.30 input   66.30 | X-H torsion
[ 10763 10752 10751 10750 ] final  -55.18 input  -60.55 | X-H torsion
[ 11005 11000 10999 10996 ] final  100.05 input  -57.11 | X-H torsion

> <Gold.Protein.ActiveResidues>
 VAL166  LYS551  ARG553  GLY616  TRP617  ASP618  TYR619  PRO620  LYS621  CYS622 
 ASP623  PHE694  ASN695  SER759  ASP760  ASP761  ALA762  ILE779  LEU786  VAL792 
 PHE793  MET794  SER795  GLU796  ALA797  LYS798  CYS799  TRP800  GLU811  SER814 

> <Gold.Protein.RotatedAtoms>
  152.3422  134.7119  160.0260 H   0  0  0  0  0  0  0  0  0  0  0  0  # atno 6907 bound_to 6896
  151.7500  133.3321  159.3397 H   0  0  0  0  0  0  0  0  0  0  0  0  # atno 6908 bound_to 6896
  150.7487  134.6133  159.6142 H   0  0  0  0  0  0  0  0  0  0  0  0  # atno 6909 bound_to 6896
  144.9311  139.5046  143.5617 H   0  0  0  0  0  0  0  0  0  0  0  0  # atno 7974 bound_to 7965
  154.5238  140.0781  156.8220 H   0  0  0  0  0  0  0  0  0  0  0  0  # atno 8008 bound_to 7997
  155.3520  140.3413  155.4221 H   0  0  0  0  0  0  0  0  0  0  0  0  # atno 8009 bound_to 7997
  156.1709  140.1619  156.8435 H   0  0  0  0  0  0  0  0  0  0  0  0  # atno 8010 bound_to 7997
  139.6528  144.7128  151.2016 H   0  0  0  0  0  0  0  0  0  0  0  0  # atno 10167 bound_to 10162
  156.7096  130.9228  151.3088 H   0  0  0  0  0  0  0  0  0  0  0  0  # atno 10718 bound_to 10713
  154.1867  135.6434  153.5049 H   0  0  0  0  0  0  0  0  0  0  0  0  # atno 10763 bound_to 10752
  153.0045  135.5419  154.6457 H   0  0  0  0  0  0  0  0  0  0  0  0  # atno 10764 bound_to 10752
  154.5836  135.2927  155.0681 H   0  0  0  0  0  0  0  0  0  0  0  0  # atno 10765 bound_to 10752
  139.8771  134.9123  156.4698 H   0  0  0  0  0  0  0  0  0  0  0  0  # atno 11005 bound_to 11000
  146.3247  139.8262  142.8917 LP  0  0  0  0  0  0  0  0  0  0  0  0  # atno 17320 bound_to 7965
  145.3141  141.0227  143.3538 LP  0  0  0  0  0  0  0  0  0  0  0  0  # atno 17321 bound_to 7965
  140.7545  143.6122  150.8594 LP  0  0  0  0  0  0  0  0  0  0  0  0  # atno 17342 bound_to 10162
  139.9772  143.5991  152.2954 LP  0  0  0  0  0  0  0  0  0  0  0  0  # atno 17343 bound_to 10162
  157.6941  130.9264  150.0596 LP  0  0  0  0  0  0  0  0  0  0  0  0  # atno 17370 bound_to 10713
  156.1671  130.3645  149.9217 LP  0  0  0  0  0  0  0  0  0  0  0  0  # atno 17371 bound_to 10713
  140.8804  133.7922  155.9460 LP  0  0  0  0  0  0  0  0  0  0  0  0  # atno 17394 bound_to 11000
  140.8860  134.2553  157.5119 LP  0  0  0  0  0  0  0  0  0  0  0  0  # atno 17395 bound_to 11000

$$$$
