AV-unprocessed.smi:2517|AV-procd|sdf|9900|dock9
  -GOLD-   2272013533D 1   1.00000     0.00000
 Structure written by MMmdl.
 41 42  0  0  0  0  0  0  0  0  1 V2000
  145.0758  133.2438  151.0317 C   0  0  0  0  0  0  0  0  0  0  0  0
  145.8414  134.5046  151.4479 C   0  0  0  0  0  0  0  0  0  0  0  0
  144.9453  135.5128  152.1132 C   0  0  0  0  0  0  0  0  0  0  0  0
  143.6482  135.2654  152.2369 N   0  0  0  0  0  0  0  0  0  0  0  0
  143.1394  136.3459  152.8758 N   0  0  0  0  0  0  0  0  0  0  0  0
  141.7234  136.3929  153.1697 C   0  0  0  0  0  0  0  0  0  0  0  0
  144.1067  137.2866  153.1646 C   0  0  0  0  0  0  0  0  0  0  0  0
  145.2776  136.7704  152.6857 C   0  0  0  0  0  0  0  0  0  0  0  0
  146.5837  137.3220  152.7308 N   0  0  0  0  0  0  0  0  0  0  0  0
  146.9775  138.4389  153.3635 C   0  0  0  0  0  0  0  0  0  0  0  0
  146.2396  139.1931  153.9977 O   0  0  0  0  0  0  0  0  0  0  0  0
  148.2928  138.6406  153.2191 N   0  0  0  0  0  0  0  0  0  0  0  0
  149.0251  139.7577  153.8006 C   0  0  0  0  0  0  0  0  0  0  0  0
  150.2151  139.2541  154.6289 C   0  0  0  0  0  0  0  0  0  0  0  0
  151.0544  140.3252  155.0617 O   0  0  0  0  0  0  0  0  0  0  0  0
  150.4215  141.3417  155.8280 C   0  0  0  0  0  0  0  0  0  0  0  0
  149.9140  138.3627  155.8487 C   0  0  0  0  0  0  0  0  0  0  0  0
  150.2331  137.1402  154.9864 C   0  0  0  0  0  0  0  0  0  0  0  0
  151.0478  138.0736  154.0897 C   0  0  0  0  0  0  0  0  0  0  0  0
  145.7414  132.5251  150.5537 H   0  0  0  0  0  0  0  0  0  0  0  0
  144.2792  133.4806  150.3259 H   0  0  0  0  0  0  0  0  0  0  0  0
  144.6243  132.7566  151.8963 H   0  0  0  0  0  0  0  0  0  0  0  0
  146.6554  134.2284  152.1185 H   0  0  0  0  0  0  0  0  0  0  0  0
  146.3142  134.9472  150.5703 H   0  0  0  0  0  0  0  0  0  0  0  0
  141.4872  137.2976  153.7307 H   0  0  0  0  0  0  0  0  0  0  0  0
  141.4402  135.5236  153.7640 H   0  0  0  0  0  0  0  0  0  0  0  0
  141.1540  136.3932  152.2399 H   0  0  0  0  0  0  0  0  0  0  0  0
  143.8753  138.2097  153.6750 H   0  0  0  0  0  0  0  0  0  0  0  0
  147.2958  136.8048  152.2363 H   0  0  0  0  0  0  0  0  0  0  0  0
  148.8287  137.9719  152.6853 H   0  0  0  0  0  0  0  0  0  0  0  0
  149.3712  140.4006  152.9902 H   0  0  0  0  0  0  0  0  0  0  0  0
  148.3573  140.3721  154.4054 H   0  0  0  0  0  0  0  0  0  0  0  0
  151.1293  142.1526  155.9995 H   0  0  0  0  0  0  0  0  0  0  0  0
  150.1069  140.9751  156.8049 H   0  0  0  0  0  0  0  0  0  0  0  0
  149.5561  141.7608  155.3144 H   0  0  0  0  0  0  0  0  0  0  0  0
  150.6265  138.4942  156.6653 H   0  0  0  0  0  0  0  0  0  0  0  0
  148.8853  138.4034  156.2076 H   0  0  0  0  0  0  0  0  0  0  0  0
  150.8135  136.3655  155.4881 H   0  0  0  0  0  0  0  0  0  0  0  0
  149.3534  136.7315  154.4869 H   0  0  0  0  0  0  0  0  0  0  0  0
  150.9361  137.8849  153.0217 H   0  0  0  0  0  0  0  0  0  0  0  0
  152.0988  138.1150  154.3817 H   0  0  0  0  0  0  0  0  0  0  0  0
  1  2  1  0  0  0  0
  1 20  1  0  0  0  0
  1 21  1  0  0  0  0
  1 22  1  0  0  0  0
  2  3  1  0  0  0  0
  2 23  1  0  0  0  0
  2 24  1  0  0  0  0
  3  8  1  0  0  0  0
  3  4  2  0  0  0  0
  4  5  1  0  0  0  0
  5  6  1  0  0  0  0
  5  7  1  0  0  0  0
  6 25  1  0  0  0  0
  6 26  1  0  0  0  0
  6 27  1  0  0  0  0
  7  8  2  0  0  0  0
  7 28  1  0  0  0  0
  8  9  1  0  0  0  0
  9 10  1  0  0  0  0
  9 29  1  0  0  0  0
 10 11  2  0  0  0  0
 10 12  1  0  0  0  0
 12 13  1  0  0  0  0
 12 30  1  0  0  0  0
 13 14  1  0  0  0  0
 13 31  1  0  0  0  0
 13 32  1  0  0  0  0
 14 19  1  0  0  0  0
 14 15  1  0  0  0  0
 14 17  1  0  0  0  0
 15 16  1  0  0  0  0
 16 33  1  0  0  0  0
 16 34  1  0  0  0  0
 16 35  1  0  0  0  0
 17 18  1  0  0  0  0
 17 36  1  0  0  0  0
 17 37  1  0  0  0  0
 18 19  1  0  0  0  0
 18 38  1  0  0  0  0
 18 39  1  0  0  0  0
 19 40  1  0  0  0  0
 19 41  1  0  0  0  0
M  END
> <s_m_source_file>
AV-unprocessed.smi

> <i_m_source_file_index>
2517

> <i_lp_mmshare_version>
43012

> <i_f3d_flags>
0

> <s_epik_input>
W0NIM11bQ0gyXWMxbm4oW0NIM10pW2NIXWMxW05IXUMoPU8pW05IXVtDSDJdQzIoT1tDSDNdKVtDSDJdW0NIMl1bQ0gyXTI=

> <s_epik_cmdline>
J2VwaWtfcHl0aG9uJywgJy1waCcsICc3LjAnLCAnLXRuJywgJzgnLCAnLW1hJywgJzIwMCcsICctbWV0YWxfYmluZGluZycsICctaW1hZScsICc8aW5maWxlLm1hZT4nLCAnLW9tYWUnLCAnPG91dGZpbGUubWFlPic=

> <r_lp_tautomer_probability>
1

> <r_epik_Ionization_Penalty>
0.000729918

> <r_epik_Ionization_Penalty_Charging>
0

> <r_epik_Ionization_Penalty_Neutral>
0.000729918

> <r_epik_State_Penalty>
-0

> <r_epik_Charging_Adjusted_Penalty>
0

> <i_epik_Tot_Q>
0

> <i_epik_Tot_abs_Q>
0

> <r_epik_Metal_State_Penalty>
-0

> <b_epik_Metal_Only>
0

> <s_lp_Force_Field>
OPLS_2005

> <r_lp_Energy>
14.833

> <b_lp_Chiralities_Consistent>
1

> <s_lp_Variant>
AV-unprocessed.smi:2517-1

> <Gold.Version>
5.8.1

> <Gold.Id.Protein>
6NUR|6NUR_protein|mol2

> <Gold.PLP.Fitness>
40.6300

> <Gold.PLP.PLP>
-29.2830

> <Gold.PLP.part.hbond>
-4.0000

> <Gold.PLP.part.metal>
0.0000

> <Gold.PLP.part.buried>
-3.8484

> <Gold.PLP.part.nonpolar>
-22.4896

> <Gold.PLP.part.repulsive>
0.4293

> <Gold.PLP.ligand.clash>
0.0000

> <Gold.PLP.ligand.torsion>
0.2320

> <Gold.PLP.Chemscore.Hbond>
3.0000

> <Gold.PLP.Chemscore.CHOScore>
0.8419

> <Gold.PLP.Chemscore.Metal>
0.0000

> <Gold.Chemscore.Hbonds>
donor molecule, donor type, donor heavy atom, donor atom, acceptor molecule, acceptor atom, score
      L1  H     9    29       P1  7948  1.00
      L1  H    12    30       P1  7948  1.00
      P1  H  7989  7998       L1    15  1.00
      L1  C     7    28       P1 10175  0.83

> <Gold.PLP.Chemscore.Internal.Correction>
0.2851

> <Gold.Rescore>
     Score         DG    S(hbond)    S(metal)    S(lipo)     H(rot)  DE(clash)    DE(int)     intcor
     13.87     -16.53       2.11        0.00      68.10       1.55       0.21       2.45       ----

> <Gold.Chemscore.Fitness>
13.8664

> <Gold.Chemscore.DG>
-16.5263

> <Gold.Chemscore.ZeroCoef>
-5.4800

> <Gold.Chemscore.Hbond>
2.1092

> <Gold.Chemscore.Metal>
0.0000

> <Gold.Chemscore.Lipo>
68.1002

> <Gold.Chemscore.Internal_Hbond>
0.0000

> <Gold.Chemscore.DEClash>
0.2137

> <Gold.Chemscore.DEInternal>
2.4462

> <Gold.Chemscore.Rot>
1.5493

> <Gold.Chemscore.Internal.Correction>
   9.000000E+99

> <Gold.Chemscore.Hbonds>
donor molecule, donor type, donor heavy atom, donor atom, acceptor molecule, acceptor atom, score
      L1  H     9    29       P1  7948  0.99
      L1  H    12    30       P1  7948  0.95
      P1  H  7989  7998       L1    15  0.22

> <Gold.Chemscore.Hbond.Weighted>
-7.0447

> <Gold.Chemscore.Metal.Weighted>
-0.0000

> <Gold.Chemscore.Lipo.Weighted>
-7.9677

> <Gold.Chemscore.Internal_Hbond.Weighted>
0.0000

> <Gold.Chemscore.DEClash.Weighted>
0.2137

> <Gold.Chemscore.DEInternal.Weighted>
2.4462

> <Gold.Chemscore.Rot.Weighted>
3.9661

> <Gold.Chemscore.Internal.Correction.Weighted>
   9.000000E+99

> <Gold.Protein.RotatedTorsions>
[ 6907 6896 6895 6894 ] final -117.11 input  -60.11 | X-H torsion
[ 7974 7965 7964 7962 ] final    6.68 input  175.53 | X-H torsion
[ 8008 7997 7996 7995 ] final   40.69 input   59.86 | X-H torsion
[ 10167 10162 10161 10158 ] final   75.69 input  -65.29 | X-H torsion
[ 10718 10713 10712 10709 ] final  -63.92 input   66.30 | X-H torsion
[ 10763 10752 10751 10750 ] final  -33.44 input  -60.55 | X-H torsion
[ 11005 11000 10999 10996 ] final  148.60 input  -57.11 | X-H torsion

> <Gold.Protein.ActiveResidues>
 VAL166  LYS551  ARG553  GLY616  TRP617  ASP618  TYR619  PRO620  LYS621  CYS622 
 ASP623  PHE694  ASN695  SER759  ASP760  ASP761  ALA762  ILE779  LEU786  VAL792 
 PHE793  MET794  SER795  GLU796  ALA797  LYS798  CYS799  TRP800  GLU811  SER814 

> <Gold.Protein.RotatedAtoms>
  150.8110  133.8422  159.3182 H   0  0  0  0  0  0  0  0  0  0  0  0  # atno 6907 bound_to 6896
  151.6208  135.1030  160.0110 H   0  0  0  0  0  0  0  0  0  0  0  0  # atno 6908 bound_to 6896
  152.4202  133.7063  159.6510 H   0  0  0  0  0  0  0  0  0  0  0  0  # atno 6909 bound_to 6896
  146.2433  140.0198  142.8399 H   0  0  0  0  0  0  0  0  0  0  0  0  # atno 7974 bound_to 7965
  155.2572  140.3356  155.4276 H   0  0  0  0  0  0  0  0  0  0  0  0  # atno 8008 bound_to 7997
  156.2190  140.1801  156.7564 H   0  0  0  0  0  0  0  0  0  0  0  0  # atno 8009 bound_to 7997
  154.5797  140.0656  156.9070 H   0  0  0  0  0  0  0  0  0  0  0  0  # atno 8010 bound_to 7997
  140.0003  144.5691  150.7743 H   0  0  0  0  0  0  0  0  0  0  0  0  # atno 10167 bound_to 10162
  156.0761  130.4227  150.1346 H   0  0  0  0  0  0  0  0  0  0  0  0  # atno 10718 bound_to 10713
  153.8302  135.6866  153.4815 H   0  0  0  0  0  0  0  0  0  0  0  0  # atno 10763 bound_to 10752
  153.1515  135.4616  154.9642 H   0  0  0  0  0  0  0  0  0  0  0  0  # atno 10764 bound_to 10752
  154.7890  135.3295  154.7766 H   0  0  0  0  0  0  0  0  0  0  0  0  # atno 10765 bound_to 10752
  140.0974  134.9004  157.1743 H   0  0  0  0  0  0  0  0  0  0  0  0  # atno 11005 bound_to 11000
  145.1252  140.9486  143.4577 LP  0  0  0  0  0  0  0  0  0  0  0  0  # atno 17320 bound_to 7965
  145.0442  139.3235  143.5961 LP  0  0  0  0  0  0  0  0  0  0  0  0  # atno 17321 bound_to 7965
  140.7421  143.2828  151.3550 LP  0  0  0  0  0  0  0  0  0  0  0  0  # atno 17342 bound_to 10162
  139.6277  144.0783  152.2448 LP  0  0  0  0  0  0  0  0  0  0  0  0  # atno 17343 bound_to 10162
  156.9387  130.9737  151.3520 LP  0  0  0  0  0  0  0  0  0  0  0  0  # atno 17370 bound_to 10713
  157.5857  130.8408  149.8586 LP  0  0  0  0  0  0  0  0  0  0  0  0  # atno 17371 bound_to 10713
  140.3268  134.2855  155.7235 LP  0  0  0  0  0  0  0  0  0  0  0  0  # atno 17394 bound_to 11000
  141.2096  133.7745  156.9987 LP  0  0  0  0  0  0  0  0  0  0  0  0  # atno 17395 bound_to 11000

$$$$
