AV-unprocessed.smi:2662|AV-procd|sdf|10321|dock1
  -GOLD-   2272014333D 1   1.00000     0.00000
 Structure written by MMmdl.
 37 39  0  0  0  0  0  0  0  0  2 V2000
  151.3743  136.4039  154.1148 O   0  0  0  0  0  0  0  0  0  0  0  0
  151.6720  137.6761  154.6441 C   0  0  0  0  0  0  0  0  0  0  0  0
  150.5640  138.6537  154.4283 C   0  0  0  0  0  0  0  0  0  0  0  0
  149.4984  138.4729  153.5977 N   0  3  0  0  0  0  0  0  0  0  0  0
  148.6603  139.5870  153.6531 C   0  0  0  0  0  0  0  0  0  0  0  0
  147.4676  139.8648  152.9924 C   0  0  0  0  0  0  0  0  0  0  0  0
  146.8602  141.1053  153.2783 C   0  0  0  0  0  0  0  0  0  0  0  0
  147.4379  142.0134  154.1894 C   0  0  0  0  0  0  0  0  0  0  0  0
  148.6474  141.7203  154.8534 C   0  0  0  0  0  0  0  0  0  0  0  0
  149.2414  140.4920  154.5644 C   0  0  0  0  0  0  0  0  0  0  0  0
  150.4115  139.8748  155.0200 N   0  0  0  0  0  0  0  0  0  0  0  0
  151.2508  140.5802  156.0020 C   0  0  0  0  0  0  0  0  0  0  0  0
  150.4456  141.1423  157.1906 C   0  0  1  0  0  0  0  0  0  0  0  0
  149.6921  140.1056  157.7901 O   0  0  0  0  0  0  0  0  0  0  0  0
  151.3569  141.8516  158.1826 C   0  0  0  0  0  0  0  0  0  0  0  0
  151.2483  143.2460  158.3856 C   0  0  0  0  0  0  0  0  0  0  0  0
  152.0858  143.8983  159.3110 C   0  0  0  0  0  0  0  0  0  0  0  0
  151.9756  145.2347  159.4985 F   0  0  0  0  0  0  0  0  0  0  0  0
  153.0358  143.1610  160.0426 C   0  0  0  0  0  0  0  0  0  0  0  0
  153.1445  141.7705  159.8514 C   0  0  0  0  0  0  0  0  0  0  0  0
  152.3066  141.1157  158.9273 C   0  0  0  0  0  0  0  0  0  0  0  0
  152.4169  139.7753  158.7637 F   0  0  0  0  0  0  0  0  0  0  0  0
  151.1500  136.5058  153.2015 H   0  0  0  0  0  0  0  0  0  0  0  0
  151.8852  137.5842  155.7088 H   0  0  0  0  0  0  0  0  0  0  0  0
  152.5797  138.0500  154.1698 H   0  0  0  0  0  0  0  0  0  0  0  0
  147.0229  139.1706  152.2946 H   0  0  0  0  0  0  0  0  0  0  0  0
  145.9326  141.3655  152.7890 H   0  0  0  0  0  0  0  0  0  0  0  0
  146.9433  142.9541  154.3838 H   0  0  0  0  0  0  0  0  0  0  0  0
  149.0810  142.4220  155.5507 H   0  0  0  0  0  0  0  0  0  0  0  0
  152.0153  139.8877  156.3549 H   0  0  0  0  0  0  0  0  0  0  0  0
  151.7825  141.3786  155.4826 H   0  0  0  0  0  0  0  0  0  0  0  0
  149.7173  141.8631  156.8186 H   0  0  0  0  0  0  0  0  0  0  0  0
  148.7755  140.3301  157.7318 H   0  0  0  0  0  0  0  0  0  0  0  0
  150.5191  143.8221  157.8349 H   0  0  0  0  0  0  0  0  0  0  0  0
  153.6785  143.6609  160.7523 H   0  0  0  0  0  0  0  0  0  0  0  0
  153.8701  141.2045  160.4168 H   0  0  0  0  0  0  0  0  0  0  0  0
  149.3567  137.6428  153.0364 H   0  0  0  0  0  0  0  0  0  0  0  0
  1  2  1  0  0  0  0
  1 23  1  0  0  0  0
  2  3  1  0  0  0  0
  2 24  1  0  0  0  0
  2 25  1  0  0  0  0
  3 11  1  0  0  0  0
  3  4  2  0  0  0  0
  4  5  1  0  0  0  0
  4 37  1  0  0  0  0
  5 10  2  0  0  0  0
  5  6  1  0  0  0  0
  6  7  2  0  0  0  0
  6 26  1  0  0  0  0
  7  8  1  0  0  0  0
  7 27  1  0  0  0  0
  8  9  2  0  0  0  0
  8 28  1  0  0  0  0
  9 10  1  0  0  0  0
  9 29  1  0  0  0  0
 10 11  1  0  0  0  0
 11 12  1  0  0  0  0
 12 13  1  0  0  0  0
 12 30  1  0  0  0  0
 12 31  1  0  0  0  0
 13 14  1  0  0  0  0
 13 15  1  0  0  0  0
 13 32  1  0  0  0  0
 14 33  1  0  0  0  0
 15 21  1  0  0  0  0
 15 16  2  0  0  0  0
 16 17  1  0  0  0  0
 16 34  1  0  0  0  0
 17 18  1  0  0  0  0
 17 19  2  0  0  0  0
 19 20  1  0  0  0  0
 19 35  1  0  0  0  0
 20 21  2  0  0  0  0
 20 36  1  0  0  0  0
 21 22  1  0  0  0  0
M  CHG  1   4   1
M  END
> <s_m_source_file>
AV-unprocessed.smi

> <i_m_source_file_index>
2662

> <i_lp_mmshare_version>
43012

> <i_f3d_flags>
0

> <s_epik_input>
W2NIXTFbY0hdW2NIXVtjSF1jKGMxMiluKGMobjIpW0NIMl1bT0hdKVtDSDJdW0NASF0oW09IXSljM1tjSF1jKEYpW2NIXVtjSF1jM0Y=

> <s_epik_cmdline>
J2VwaWtfcHl0aG9uJywgJy1waCcsICc3LjAnLCAnLXRuJywgJzgnLCAnLW1hJywgJzIwMCcsICctbWV0YWxfYmluZGluZycsICctaW1hZScsICc8aW5maWxlLm1hZT4nLCAnLW9tYWUnLCAnPG91dGZpbGUubWFlPic=

> <r_epik_Ionization_Penalty>
1.35643

> <r_epik_Ionization_Penalty_Charging>
1.35557

> <r_epik_Ionization_Penalty_Neutral>
0.000859316

> <r_epik_State_Penalty>
1.43401

> <r_epik_Charging_Adjusted_Penalty>
2.78958

> <i_epik_Tot_Q>
1

> <i_epik_Tot_abs_Q>
1

> <r_epik_Metal_State_Penalty>
5.47166

> <b_epik_Metal_Only>
0

> <s_lp_Force_Field>
OPLS_2005

> <r_lp_Energy>
14.5083

> <b_lp_Chiralities_Consistent>
1

> <s_lp_Variant>
AV-unprocessed.smi:2662-4

> <Gold.Version>
5.8.1

> <Gold.Id.Protein>
6NUR|6NUR_protein|mol2

> <Gold.PLP.Fitness>
66.0671

> <Gold.PLP.PLP>
-54.5762

> <Gold.PLP.part.hbond>
-4.1105

> <Gold.PLP.part.metal>
0.0000

> <Gold.PLP.part.buried>
1.9612

> <Gold.PLP.part.nonpolar>
-52.3699

> <Gold.PLP.part.repulsive>
0.0720

> <Gold.PLP.ligand.clash>
0.0000

> <Gold.PLP.ligand.torsion>
0.3316

> <Gold.PLP.Chemscore.Hbond>
4.0000

> <Gold.PLP.Chemscore.CHOScore>
0.0000

> <Gold.PLP.Chemscore.Metal>
0.0000

> <Gold.Chemscore.Hbonds>
donor molecule, donor type, donor heavy atom, donor atom, acceptor molecule, acceptor atom, score
      L1  H     1    23       P1  7949  1.00
      L1  H     4    37       P1  7948  2.00
      P1  H 10752 10763       L1     1  0.90

> <Gold.PLP.Chemscore.Internal.Correction>
0.1542

> <Gold.Rescore>
     Score         DG    S(hbond)    S(metal)    S(lipo)     H(rot)  DE(clash)    DE(int)     intcor
     18.47     -20.50       2.45        0.00     122.79       2.95       0.50       1.53       ----

> <Gold.Chemscore.Fitness>
18.4683

> <Gold.Chemscore.DG>
-20.4983

> <Gold.Chemscore.ZeroCoef>
-5.4800

> <Gold.Chemscore.Hbond>
2.4545

> <Gold.Chemscore.Metal>
0.0000

> <Gold.Chemscore.Lipo>
122.7854

> <Gold.Chemscore.Internal_Hbond>
0.0000

> <Gold.Chemscore.DEClash>
0.5035

> <Gold.Chemscore.DEInternal>
1.5264

> <Gold.Chemscore.Rot>
2.9475

> <Gold.Chemscore.Internal.Correction>
   9.000000E+99

> <Gold.Chemscore.Hbonds>
donor molecule, donor type, donor heavy atom, donor atom, acceptor molecule, acceptor atom, score
      L1  H     1    23       P1  7949  0.43
      L1  H     4    37       P1  7948  0.94
      P1  H 10752 10763       L1     1  0.17

> <Gold.Chemscore.Hbond.Weighted>
-8.1980

> <Gold.Chemscore.Metal.Weighted>
-0.0000

> <Gold.Chemscore.Lipo.Weighted>
-14.3659

> <Gold.Chemscore.Internal_Hbond.Weighted>
0.0000

> <Gold.Chemscore.DEClash.Weighted>
0.5035

> <Gold.Chemscore.DEInternal.Weighted>
1.5264

> <Gold.Chemscore.Rot.Weighted>
7.5457

> <Gold.Chemscore.Internal.Correction.Weighted>
   9.000000E+99

> <Gold.Protein.RotatedTorsions>
[ 6907 6896 6895 6894 ] final   72.25 input  -60.11 | X-H torsion
[ 7974 7965 7964 7962 ] final   75.84 input  175.53 | X-H torsion
[ 8008 7997 7996 7995 ] final  163.50 input   59.86 | X-H torsion
[ 10167 10162 10161 10158 ] final   72.64 input  -65.29 | X-H torsion
[ 10718 10713 10712 10709 ] final -158.22 input   66.30 | X-H torsion
[ 10763 10752 10751 10750 ] final   56.08 input  -60.55 | X-H torsion
[ 11005 11000 10999 10996 ] final  122.25 input  -57.11 | X-H torsion

> <Gold.Protein.ActiveResidues>
 VAL166  LYS551  ARG553  GLY616  TRP617  ASP618  TYR619  PRO620  LYS621  CYS622 
 ASP623  PHE694  ASN695  SER759  ASP760  ASP761  ALA762  ILE779  LEU786  VAL792 
 PHE793  MET794  SER795  GLU796  ALA797  LYS798  CYS799  TRP800  GLU811  SER814 

> <Gold.Protein.RotatedAtoms>
  152.4857  134.4599  159.9601 H   0  0  0  0  0  0  0  0  0  0  0  0  # atno 6907 bound_to 6896
  151.4596  133.3590  159.2815 H   0  0  0  0  0  0  0  0  0  0  0  0  # atno 6908 bound_to 6896
  150.8965  134.8399  159.7391 H   0  0  0  0  0  0  0  0  0  0  0  0  # atno 6909 bound_to 6896
  145.7104  139.2613  143.1654 H   0  0  0  0  0  0  0  0  0  0  0  0  # atno 7974 bound_to 7965
  156.1952  140.1722  156.8012 H   0  0  0  0  0  0  0  0  0  0  0  0  # atno 8008 bound_to 7997
  154.5521  140.0715  156.8716 H   0  0  0  0  0  0  0  0  0  0  0  0  # atno 8009 bound_to 7997
  155.3009  140.3361  155.4250 H   0  0  0  0  0  0  0  0  0  0  0  0  # atno 8010 bound_to 7997
  140.0331  144.5450  150.7492 H   0  0  0  0  0  0  0  0  0  0  0  0  # atno 10167 bound_to 10162
  156.5512  130.8606  151.2780 H   0  0  0  0  0  0  0  0  0  0  0  0  # atno 10718 bound_to 10713
  152.9826  135.5688  154.5172 H   0  0  0  0  0  0  0  0  0  0  0  0  # atno 10763 bound_to 10752
  154.4666  135.2783  155.1676 H   0  0  0  0  0  0  0  0  0  0  0  0  # atno 10764 bound_to 10752
  154.3241  135.6263  153.5575 H   0  0  0  0  0  0  0  0  0  0  0  0  # atno 10765 bound_to 10752
  139.9260  134.9641  156.8081 H   0  0  0  0  0  0  0  0  0  0  0  0  # atno 11005 bound_to 11000
  146.0717  140.7861  142.9685 LP  0  0  0  0  0  0  0  0  0  0  0  0  # atno 17320 bound_to 7965
  144.6943  140.3353  143.7209 LP  0  0  0  0  0  0  0  0  0  0  0  0  # atno 17321 bound_to 7965
  140.7293  143.2671  151.4008 LP  0  0  0  0  0  0  0  0  0  0  0  0  # atno 17342 bound_to 10162
  139.6063  144.1191  152.2252 LP  0  0  0  0  0  0  0  0  0  0  0  0  # atno 17343 bound_to 10162
  157.7387  130.9818  150.2269 LP  0  0  0  0  0  0  0  0  0  0  0  0  # atno 17370 bound_to 10713
  156.2883  130.3742  149.7867 LP  0  0  0  0  0  0  0  0  0  0  0  0  # atno 17371 bound_to 10713
  140.6334  133.9884  155.7673 LP  0  0  0  0  0  0  0  0  0  0  0  0  # atno 17394 bound_to 11000
  141.0818  134.0051  157.3374 LP  0  0  0  0  0  0  0  0  0  0  0  0  # atno 17395 bound_to 11000

$$$$
