AV-unprocessed.smi:2920|AV-procd|sdf|11196|dock5
  -GOLD-   2272016 83D 1   1.00000     0.00000
 Structure written by MMmdl.
 30 32  0  0  0  0  0  0  0  0  1 V2000
  149.0361  135.3848  156.2797 O   0  0  0  0  0  0  0  0  0  0  0  0
  148.9898  135.5619  155.0626 C   0  0  0  0  0  0  0  0  0  0  0  0
  149.4114  136.6660  154.4225 N   0  0  0  0  0  0  0  0  0  0  0  0
  149.9371  137.8635  154.9781 C   0  0  0  0  0  0  0  0  0  0  0  0
  149.9978  137.9958  156.3814 C   0  0  0  0  0  0  0  0  0  0  0  0
  150.5010  139.0983  156.9766 N   0  0  0  0  0  0  0  0  0  0  0  0
  150.9412  140.0696  156.1719 C   0  0  0  0  0  0  0  0  0  0  0  0
  151.5346  141.2749  156.8329 C   0  0  0  0  0  0  0  0  0  0  0  0
  151.6952  141.3354  158.3382 C   0  0  0  0  0  0  0  0  0  0  0  0
  150.6737  142.2065  157.6616 C   0  0  0  0  0  0  0  0  0  0  0  0
  150.9587  140.0496  154.8365 N   0  0  0  0  0  0  0  0  0  0  0  0
  150.4554  138.9514  154.2325 C   0  0  0  0  0  0  0  0  0  0  0  0
  148.5203  134.6523  154.1980 N   0  0  0  0  0  0  0  0  0  0  0  0
  148.0028  133.3683  154.5463 C   0  0  0  0  0  0  0  0  0  0  0  0
  148.8386  132.1556  154.1984 C   0  0  0  0  0  0  0  0  0  0  0  0
  147.5869  132.4488  153.4183 C   0  0  0  0  0  0  0  0  0  0  0  0
  149.3813  136.6340  153.4139 H   0  0  0  0  0  0  0  0  0  0  0  0
  149.6403  137.2121  157.0335 H   0  0  0  0  0  0  0  0  0  0  0  0
  152.3175  141.7173  156.2200 H   0  0  0  0  0  0  0  0  0  0  0  0
  151.3270  140.4948  158.9232 H   0  0  0  0  0  0  0  0  0  0  0  0
  152.5894  141.8179  158.7272 H   0  0  0  0  0  0  0  0  0  0  0  0
  150.8837  143.2720  157.5971 H   0  0  0  0  0  0  0  0  0  0  0  0
  149.6258  141.9452  157.7968 H   0  0  0  0  0  0  0  0  0  0  0  0
  150.4980  138.9562  153.1548 H   0  0  0  0  0  0  0  0  0  0  0  0
  148.5262  134.8856  153.2159 H   0  0  0  0  0  0  0  0  0  0  0  0
  147.4151  133.2967  155.4607 H   0  0  0  0  0  0  0  0  0  0  0  0
  149.7916  132.3193  153.6986 H   0  0  0  0  0  0  0  0  0  0  0  0
  148.8142  131.3151  154.8893 H   0  0  0  0  0  0  0  0  0  0  0  0
  146.7269  131.8041  153.5883 H   0  0  0  0  0  0  0  0  0  0  0  0
  147.7043  132.8084  152.3974 H   0  0  0  0  0  0  0  0  0  0  0  0
  1  2  2  0  0  0  0
  2  3  1  0  0  0  0
  2 13  1  0  0  0  0
  3  4  1  0  0  0  0
  3 17  1  0  0  0  0
  4 12  1  0  0  0  0
  4  5  2  0  0  0  0
  5  6  1  0  0  0  0
  5 18  1  0  0  0  0
  6  7  2  0  0  0  0
  7  8  1  0  0  0  0
  7 11  1  0  0  0  0
  8 10  1  0  0  0  0
  8  9  1  0  0  0  0
  8 19  1  0  0  0  0
  9 10  1  0  0  0  0
  9 20  1  0  0  0  0
  9 21  1  0  0  0  0
 10 22  1  0  0  0  0
 10 23  1  0  0  0  0
 11 12  2  0  0  0  0
 12 24  1  0  0  0  0
 13 14  1  0  0  0  0
 13 25  1  0  0  0  0
 14 16  1  0  0  0  0
 14 15  1  0  0  0  0
 14 26  1  0  0  0  0
 15 16  1  0  0  0  0
 15 27  1  0  0  0  0
 15 28  1  0  0  0  0
 16 29  1  0  0  0  0
 16 30  1  0  0  0  0
M  END
> <s_m_source_file>
AV-unprocessed.smi

> <i_m_source_file_index>
2920

> <i_lp_mmshare_version>
43012

> <i_f3d_flags>
0

> <s_epik_input>
W0NIMl0xW0NIMl1bQ0hdMVtOSF1DKD1PKVtOSF1jMltjSF1uYyhuW2NIXTIpW0NIXTNbQ0gyXVtDSDJdMw==

> <s_epik_cmdline>
J2VwaWtfcHl0aG9uJywgJy1waCcsICc3LjAnLCAnLXRuJywgJzgnLCAnLW1hJywgJzIwMCcsICctbWV0YWxfYmluZGluZycsICctaW1hZScsICc8aW5maWxlLm1hZT4nLCAnLW9tYWUnLCAnPG91dGZpbGUubWFlPic=

> <r_lp_tautomer_probability>
1

> <r_epik_Ionization_Penalty>
2.90508e-05

> <r_epik_Ionization_Penalty_Charging>
0

> <r_epik_Ionization_Penalty_Neutral>
2.90508e-05

> <r_epik_State_Penalty>
-0

> <r_epik_Charging_Adjusted_Penalty>
0

> <i_epik_Tot_Q>
0

> <i_epik_Tot_abs_Q>
0

> <r_epik_Metal_State_Penalty>
-0

> <b_epik_Metal_Only>
0

> <s_lp_Force_Field>
OPLS_2005

> <r_lp_Energy>
15.3097

> <b_lp_Chiralities_Consistent>
1

> <s_lp_Variant>
AV-unprocessed.smi:2920-1

> <Gold.Version>
5.8.1

> <Gold.Id.Protein>
6NUR|6NUR_protein|mol2

> <Gold.PLP.Fitness>
36.6021

> <Gold.PLP.PLP>
-24.8226

> <Gold.PLP.part.hbond>
-3.0227

> <Gold.PLP.part.metal>
0.0000

> <Gold.PLP.part.buried>
-4.2448

> <Gold.PLP.part.nonpolar>
-17.6170

> <Gold.PLP.part.repulsive>
0.1164

> <Gold.PLP.ligand.clash>
0.0000

> <Gold.PLP.ligand.torsion>
0.1271

> <Gold.PLP.Chemscore.Hbond>
2.9600

> <Gold.PLP.Chemscore.CHOScore>
1.0000

> <Gold.PLP.Chemscore.Metal>
0.0000

> <Gold.Chemscore.Hbonds>
donor molecule, donor type, donor heavy atom, donor atom, acceptor molecule, acceptor atom, score
      L1  H     3    17       P1  7948  1.00
      L1  H    13    25       P1  7948  0.94
      P1  H  7989  7998       L1    11  1.00
      L1  C    12    24       P1  7957  1.00

> <Gold.PLP.Chemscore.Internal.Correction>
0.1536

> <Gold.Rescore>
     Score         DG    S(hbond)    S(metal)    S(lipo)     H(rot)  DE(clash)    DE(int)     intcor
     14.03     -15.68       2.19        0.00      51.10       1.20       0.11       1.54       ----

> <Gold.Chemscore.Fitness>
14.0281

> <Gold.Chemscore.DG>
-15.6790

> <Gold.Chemscore.ZeroCoef>
-5.4800

> <Gold.Chemscore.Hbond>
2.1867

> <Gold.Chemscore.Metal>
0.0000

> <Gold.Chemscore.Lipo>
51.1040

> <Gold.Chemscore.Internal_Hbond>
0.0000

> <Gold.Chemscore.DEClash>
0.1112

> <Gold.Chemscore.DEInternal>
1.5397

> <Gold.Chemscore.Rot>
1.2045

> <Gold.Chemscore.Internal.Correction>
   9.000000E+99

> <Gold.Chemscore.Hbonds>
donor molecule, donor type, donor heavy atom, donor atom, acceptor molecule, acceptor atom, score
      L1  H     3    17       P1  7948  0.88
      L1  H    13    25       P1  7948  0.59
      P1  H  7989  7998       L1    11  0.30

> <Gold.Chemscore.Hbond.Weighted>
-7.3035

> <Gold.Chemscore.Metal.Weighted>
-0.0000

> <Gold.Chemscore.Lipo.Weighted>
-5.9792

> <Gold.Chemscore.Internal_Hbond.Weighted>
0.0000

> <Gold.Chemscore.DEClash.Weighted>
0.1112

> <Gold.Chemscore.DEInternal.Weighted>
1.5397

> <Gold.Chemscore.Rot.Weighted>
3.0836

> <Gold.Chemscore.Internal.Correction.Weighted>
   9.000000E+99

> <Gold.Protein.RotatedTorsions>
[ 6907 6896 6895 6894 ] final -170.68 input  -60.11 | X-H torsion
[ 7974 7965 7964 7962 ] final -136.61 input  175.53 | X-H torsion
[ 8008 7997 7996 7995 ] final  -21.99 input   59.86 | X-H torsion
[ 10167 10162 10161 10158 ] final   47.28 input  -65.29 | X-H torsion
[ 10718 10713 10712 10709 ] final   83.19 input   66.30 | X-H torsion
[ 10763 10752 10751 10750 ] final -133.66 input  -60.55 | X-H torsion
[ 11005 11000 10999 10996 ] final  145.20 input  -57.11 | X-H torsion

> <Gold.Protein.ActiveResidues>
 VAL166  LYS551  ARG553  GLY616  TRP617  ASP618  TYR619  PRO620  LYS621  CYS622 
 ASP623  PHE694  ASN695  SER759  ASP760  ASP761  ALA762  ILE779  LEU786  VAL792 
 PHE793  MET794  SER795  GLU796  ALA797  LYS798  CYS799  TRP800  GLU811  SER814 

> <Gold.Protein.RotatedAtoms>
  151.5116  133.3484  159.2885 H   0  0  0  0  0  0  0  0  0  0  0  0  # atno 6907 bound_to 6896
  150.8708  134.8084  159.7164 H   0  0  0  0  0  0  0  0  0  0  0  0  # atno 6908 bound_to 6896
  152.4697  134.5000  159.9773 H   0  0  0  0  0  0  0  0  0  0  0  0  # atno 6909 bound_to 6896
  144.8912  140.6645  143.5144 H   0  0  0  0  0  0  0  0  0  0  0  0  # atno 7974 bound_to 7965
  154.4671  140.2020  156.0089 H   0  0  0  0  0  0  0  0  0  0  0  0  # atno 8008 bound_to 7997
  156.0947  140.3253  155.7832 H   0  0  0  0  0  0  0  0  0  0  0  0  # atno 8009 bound_to 7997
  155.4898  140.0545  157.2946 H   0  0  0  0  0  0  0  0  0  0  0  0  # atno 8010 bound_to 7997
  140.3052  144.2886  150.6211 H   0  0  0  0  0  0  0  0  0  0  0  0  # atno 10167 bound_to 10162
  157.6873  131.0080  150.2486 H   0  0  0  0  0  0  0  0  0  0  0  0  # atno 10718 bound_to 10713
  154.8730  135.3759  154.4609 H   0  0  0  0  0  0  0  0  0  0  0  0  # atno 10763 bound_to 10752
  153.5277  135.7028  153.5704 H   0  0  0  0  0  0  0  0  0  0  0  0  # atno 10764 bound_to 10752
  153.3922  135.3969  155.1896 H   0  0  0  0  0  0  0  0  0  0  0  0  # atno 10765 bound_to 10752
  140.0693  134.9161  157.1318 H   0  0  0  0  0  0  0  0  0  0  0  0  # atno 11005 bound_to 11000
  145.3779  139.1643  143.4296 LP  0  0  0  0  0  0  0  0  0  0  0  0  # atno 17320 bound_to 7965
  146.3055  140.3857  142.8689 LP  0  0  0  0  0  0  0  0  0  0  0  0  # atno 17321 bound_to 7965
  140.5616  143.2191  151.7755 LP  0  0  0  0  0  0  0  0  0  0  0  0  # atno 17342 bound_to 10162
  139.4906  144.4340  151.9839 LP  0  0  0  0  0  0  0  0  0  0  0  0  # atno 17343 bound_to 10162
  156.3087  130.3769  149.7682 LP  0  0  0  0  0  0  0  0  0  0  0  0  # atno 17370 bound_to 10713
  156.5289  130.8248  151.3230 LP  0  0  0  0  0  0  0  0  0  0  0  0  # atno 17371 bound_to 10713
  140.3651  134.2452  155.7183 LP  0  0  0  0  0  0  0  0  0  0  0  0  # atno 17394 bound_to 11000
  141.2005  133.7985  157.0484 LP  0  0  0  0  0  0  0  0  0  0  0  0  # atno 17395 bound_to 11000

$$$$
