AV-unprocessed.smi:381|AV-procd|sdf|2462|dock2
  -GOLD-   2262022403D 1   1.00000     0.00000
 Structure written by MMmdl.
 46 47  0  0  0  0  0  0  0  0  2 V2000
  147.3232  135.4479  155.7820 O   0  0  0  0  0  0  0  0  0  0  0  0
  147.7430  135.6889  154.6517 C   0  0  0  0  0  0  0  0  0  0  0  0
  148.6330  136.6592  154.3886 N   0  0  0  0  0  0  0  0  0  0  0  0
  149.2214  137.5287  155.3973 C   0  0  0  0  0  0  0  0  0  0  0  0
  149.9816  138.6882  154.7399 C   0  0  0  0  0  0  0  0  0  0  0  0
  149.0918  139.8947  154.5117 C   0  0  0  0  0  0  0  0  0  0  0  0
  147.8931  139.7724  153.7741 C   0  0  0  0  0  0  0  0  0  0  0  0
  147.0780  140.9080  153.5852 C   0  0  0  0  0  0  0  0  0  0  0  0
  147.4809  142.1414  154.1364 C   0  0  0  0  0  0  0  0  0  0  0  0
  148.6350  142.2206  154.8351 N   0  3  0  0  0  0  0  0  0  0  0  0
  149.4421  141.1563  155.0398 C   0  0  0  0  0  0  0  0  0  0  0  0
  147.3390  134.9836  153.5796 N   0  0  0  0  0  0  0  0  0  0  0  0
  146.3877  133.8697  153.5158 C   0  0  0  0  0  0  0  0  0  0  0  0
  147.1146  132.6507  152.9013 C   0  0  0  0  0  0  0  0  0  0  0  0
  146.2496  131.4095  152.6132 C   0  0  0  0  0  0  0  0  0  0  0  0
  145.6980  131.3081  151.1727 C   0  0  0  0  0  0  0  0  0  0  0  0
  144.3315  131.9780  150.9368 C   0  0  0  0  0  0  0  0  0  0  0  0
  144.3583  133.4446  150.4563 C   0  0  0  0  0  0  0  0  0  0  0  0
  145.2322  134.4264  151.2575 C   0  0  0  0  0  0  0  0  0  0  0  0
  145.0951  134.3050  152.7879 C   0  0  0  0  0  0  0  0  0  0  0  0
  148.9277  136.7917  153.4321 H   0  0  0  0  0  0  0  0  0  0  0  0
  148.4371  137.9193  156.0481 H   0  0  0  0  0  0  0  0  0  0  0  0
  149.8961  136.9410  156.0215 H   0  0  0  0  0  0  0  0  0  0  0  0
  150.8306  138.9790  155.3602 H   0  0  0  0  0  0  0  0  0  0  0  0
  150.3948  138.3698  153.7817 H   0  0  0  0  0  0  0  0  0  0  0  0
  147.5984  138.8184  153.3612 H   0  0  0  0  0  0  0  0  0  0  0  0
  146.1563  140.8327  153.0268 H   0  0  0  0  0  0  0  0  0  0  0  0
  146.9192  143.0590  154.0420 H   0  0  0  0  0  0  0  0  0  0  0  0
  150.3350  141.3457  155.6176 H   0  0  0  0  0  0  0  0  0  0  0  0
  147.7412  135.2567  152.6944 H   0  0  0  0  0  0  0  0  0  0  0  0
  146.1107  133.5868  154.5326 H   0  0  0  0  0  0  0  0  0  0  0  0
  147.6633  132.9305  152.0016 H   0  0  0  0  0  0  0  0  0  0  0  0
  147.8895  132.3543  153.6099 H   0  0  0  0  0  0  0  0  0  0  0  0
  146.8929  130.5409  152.7604 H   0  0  0  0  0  0  0  0  0  0  0  0
  145.4559  131.3020  153.3531 H   0  0  0  0  0  0  0  0  0  0  0  0
  146.4312  131.6487  150.4410 H   0  0  0  0  0  0  0  0  0  0  0  0
  145.5640  130.2455  150.9654 H   0  0  0  0  0  0  0  0  0  0  0  0
  143.8083  131.4075  150.1684 H   0  0  0  0  0  0  0  0  0  0  0  0
  143.7074  131.8716  151.8240 H   0  0  0  0  0  0  0  0  0  0  0  0
  144.6818  133.4719  149.4151 H   0  0  0  0  0  0  0  0  0  0  0  0
  143.3324  133.8145  150.4519 H   0  0  0  0  0  0  0  0  0  0  0  0
  146.2709  134.3212  150.9480 H   0  0  0  0  0  0  0  0  0  0  0  0
  144.9645  135.4408  150.9601 H   0  0  0  0  0  0  0  0  0  0  0  0
  144.2886  133.6241  153.0532 H   0  0  0  0  0  0  0  0  0  0  0  0
  144.7628  135.2647  153.1849 H   0  0  0  0  0  0  0  0  0  0  0  0
  148.9076  143.1225  155.2266 H   0  0  0  0  0  0  0  0  0  0  0  0
  1  2  2  0  0  0  0
  2  3  1  0  0  0  0
  2 12  1  0  0  0  0
  3  4  1  0  0  0  0
  3 21  1  0  0  0  0
  4  5  1  0  0  0  0
  4 22  1  0  0  0  0
  4 23  1  0  0  0  0
  5  6  1  0  0  0  0
  5 24  1  0  0  0  0
  5 25  1  0  0  0  0
  6 11  1  0  0  0  0
  6  7  2  0  0  0  0
  7  8  1  0  0  0  0
  7 26  1  0  0  0  0
  8  9  2  0  0  0  0
  8 27  1  0  0  0  0
  9 10  1  0  0  0  0
  9 28  1  0  0  0  0
 10 11  2  0  0  0  0
 10 46  1  0  0  0  0
 11 29  1  0  0  0  0
 12 13  1  0  0  0  0
 12 30  1  0  0  0  0
 13 20  1  0  0  0  0
 13 14  1  0  0  0  0
 13 31  1  0  0  0  0
 14 15  1  0  0  0  0
 14 32  1  0  0  0  0
 14 33  1  0  0  0  0
 15 16  1  0  0  0  0
 15 34  1  0  0  0  0
 15 35  1  0  0  0  0
 16 17  1  0  0  0  0
 16 36  1  0  0  0  0
 16 37  1  0  0  0  0
 17 18  1  0  0  0  0
 17 38  1  0  0  0  0
 17 39  1  0  0  0  0
 18 19  1  0  0  0  0
 18 40  1  0  0  0  0
 18 41  1  0  0  0  0
 19 20  1  0  0  0  0
 19 42  1  0  0  0  0
 19 43  1  0  0  0  0
 20 44  1  0  0  0  0
 20 45  1  0  0  0  0
M  CHG  1  10   1
M  END
> <s_m_source_file>
AV-unprocessed.smi

> <i_m_source_file_index>
381

> <i_lp_mmshare_version>
43012

> <i_f3d_flags>
0

> <s_epik_input>
W0NIMl0xW0NIMl1bQ0gyXVtDSDJdW0NIMl1bQ0gyXVtDSDJdW0NIXTFbTkhdQyg9TylbTkhdW0NIMl1bQ0gyXWMyW2NIXVtjSF1bY0hdbltjSF0y

> <s_epik_cmdline>
J2VwaWtfcHl0aG9uJywgJy1waCcsICc3LjAnLCAnLXRuJywgJzgnLCAnLW1hJywgJzIwMCcsICctbWV0YWxfYmluZGluZycsICctaW1hZScsICc8aW5maWxlLm1hZT4nLCAnLW9tYWUnLCAnPG91dGZpbGUubWFlPic=

> <r_epik_Ionization_Penalty>
2.21063

> <r_epik_Ionization_Penalty_Charging>
2.21057

> <r_epik_Ionization_Penalty_Neutral>
5.85974e-05

> <r_epik_State_Penalty>
2.35476

> <r_epik_Charging_Adjusted_Penalty>
4.56533

> <i_epik_Tot_Q>
1

> <i_epik_Tot_abs_Q>
1

> <r_epik_Metal_State_Penalty>
2.36886

> <b_epik_Metal_Only>
0

> <s_lp_Force_Field>
OPLS_2005

> <r_lp_Energy>
36.9097

> <b_lp_Chiralities_Consistent>
1

> <s_lp_Variant>
AV-unprocessed.smi:381-2

> <Gold.Version>
5.8.1

> <Gold.Id.Protein>
6NUR|6NUR_protein|mol2

> <Gold.PLP.Fitness>
45.8170

> <Gold.PLP.PLP>
-34.5241

> <Gold.PLP.part.hbond>
-3.0000

> <Gold.PLP.part.metal>
0.0000

> <Gold.PLP.part.buried>
-4.1705

> <Gold.PLP.part.nonpolar>
-28.0766

> <Gold.PLP.part.repulsive>
0.2517

> <Gold.PLP.ligand.clash>
0.0000

> <Gold.PLP.ligand.torsion>
0.3019

> <Gold.PLP.Chemscore.Hbond>
3.9520

> <Gold.PLP.Chemscore.CHOScore>
0.0000

> <Gold.PLP.Chemscore.Metal>
0.0000

> <Gold.Chemscore.Hbonds>
donor molecule, donor type, donor heavy atom, donor atom, acceptor molecule, acceptor atom, score
      L1  H     3    21       P1  7948  0.99
      L1  H    10    46       P1  8028  2.00
      L1  H    12    30       P1  7948  0.96

> <Gold.PLP.Chemscore.Internal.Correction>
0.0406

> <Gold.Rescore>
     Score         DG    S(hbond)    S(metal)    S(lipo)     H(rot)  DE(clash)    DE(int)     intcor
     21.53     -21.81       2.89        0.00      90.25       1.51       0.03       0.25       ----

> <Gold.Chemscore.Fitness>
21.5309

> <Gold.Chemscore.DG>
-21.8144

> <Gold.Chemscore.ZeroCoef>
-5.4800

> <Gold.Chemscore.Hbond>
2.8854

> <Gold.Chemscore.Metal>
0.0000

> <Gold.Chemscore.Lipo>
90.2481

> <Gold.Chemscore.Internal_Hbond>
0.0000

> <Gold.Chemscore.DEClash>
0.0330

> <Gold.Chemscore.DEInternal>
0.2505

> <Gold.Chemscore.Rot>
1.5085

> <Gold.Chemscore.Internal.Correction>
   9.000000E+99

> <Gold.Chemscore.Hbonds>
donor molecule, donor type, donor heavy atom, donor atom, acceptor molecule, acceptor atom, score
      L1  H     3    21       P1  7948  0.93
      L1  H    10    46       P1  8028  0.99
      L1  H    12    30       P1  7948  0.92

> <Gold.Chemscore.Hbond.Weighted>
-9.6371

> <Gold.Chemscore.Metal.Weighted>
-0.0000

> <Gold.Chemscore.Lipo.Weighted>
-10.5590

> <Gold.Chemscore.Internal_Hbond.Weighted>
0.0000

> <Gold.Chemscore.DEClash.Weighted>
0.0330

> <Gold.Chemscore.DEInternal.Weighted>
0.2505

> <Gold.Chemscore.Rot.Weighted>
3.8617

> <Gold.Chemscore.Internal.Correction.Weighted>
   9.000000E+99

> <Gold.Protein.RotatedTorsions>
[ 6907 6896 6895 6894 ] final  129.63 input  -60.11 | X-H torsion
[ 7974 7965 7964 7962 ] final  169.71 input  175.53 | X-H torsion
[ 8008 7997 7996 7995 ] final -110.36 input   59.86 | X-H torsion
[ 10167 10162 10161 10158 ] final  -29.89 input  -65.29 | X-H torsion
[ 10718 10713 10712 10709 ] final  -50.79 input   66.30 | X-H torsion
[ 10763 10752 10751 10750 ] final   90.06 input  -60.55 | X-H torsion
[ 11005 11000 10999 10996 ] final   95.08 input  -57.11 | X-H torsion

> <Gold.Protein.ActiveResidues>
 VAL166  LYS551  ARG553  GLY616  TRP617  ASP618  TYR619  PRO620  LYS621  CYS622 
 ASP623  PHE694  ASN695  SER759  ASP760  ASP761  ALA762  ILE779  LEU786  VAL792 
 PHE793  MET794  SER795  GLU796  ALA797  LYS798  CYS799  TRP800  GLU811  SER814 

> <Gold.Protein.RotatedAtoms>
  152.3605  133.6291  159.6011 H   0  0  0  0  0  0  0  0  0  0  0  0  # atno 6907 bound_to 6896
  150.7598  133.9430  159.3471 H   0  0  0  0  0  0  0  0  0  0  0  0  # atno 6908 bound_to 6896
  151.7269  135.0884  160.0345 H   0  0  0  0  0  0  0  0  0  0  0  0  # atno 6909 bound_to 6896
  144.7346  139.9094  143.6414 H   0  0  0  0  0  0  0  0  0  0  0  0  # atno 7974 bound_to 7965
  154.9733  140.0397  157.2244 H   0  0  0  0  0  0  0  0  0  0  0  0  # atno 8008 bound_to 7997
  154.7781  140.2814  155.6063 H   0  0  0  0  0  0  0  0  0  0  0  0  # atno 8009 bound_to 7997
  156.2932  140.2597  156.2600 H   0  0  0  0  0  0  0  0  0  0  0  0  # atno 8010 bound_to 7997
  140.7255  143.3892  151.1460 H   0  0  0  0  0  0  0  0  0  0  0  0  # atno 10167 bound_to 10162
  156.1769  130.4150  149.9564 H   0  0  0  0  0  0  0  0  0  0  0  0  # atno 10718 bound_to 10713
  153.1935  135.4448  155.0179 H   0  0  0  0  0  0  0  0  0  0  0  0  # atno 10763 bound_to 10752
  154.8105  135.3292  154.7321 H   0  0  0  0  0  0  0  0  0  0  0  0  # atno 10764 bound_to 10752
  153.7772  135.6980  153.4950 H   0  0  0  0  0  0  0  0  0  0  0  0  # atno 10765 bound_to 10752
  139.8792  134.8880  156.3958 H   0  0  0  0  0  0  0  0  0  0  0  0  # atno 11005 bound_to 11000
  146.1012  139.4008  143.0346 LP  0  0  0  0  0  0  0  0  0  0  0  0  # atno 17320 bound_to 7965
  145.7576  140.9948  143.1217 LP  0  0  0  0  0  0  0  0  0  0  0  0  # atno 17321 bound_to 7965
  139.7495  143.8801  152.3073 LP  0  0  0  0  0  0  0  0  0  0  0  0  # atno 17342 bound_to 10162
  139.8650  144.7098  150.9055 LP  0  0  0  0  0  0  0  0  0  0  0  0  # atno 17343 bound_to 10162
  156.7347  130.9057  151.3628 LP  0  0  0  0  0  0  0  0  0  0  0  0  # atno 17370 bound_to 10713
  157.6841  130.9169  150.0342 LP  0  0  0  0  0  0  0  0  0  0  0  0  # atno 17371 bound_to 10713
  140.9301  133.7585  156.0014 LP  0  0  0  0  0  0  0  0  0  0  0  0  # atno 17394 bound_to 11000
  140.8340  134.3144  157.5338 LP  0  0  0  0  0  0  0  0  0  0  0  0  # atno 17395 bound_to 11000

$$$$
