AV-unprocessed.smi:2798|AV-procd|sdf|10785|dock1
  -GOLD-   2272015223D 1   1.00000     0.00000
 Structure written by MMmdl.
 29 31  0  0  0  0  0  0  0  0  1 V2000
  151.8990  137.3929  154.1072 N   0  0  0  0  0  0  0  0  0  0  0  0
  151.6782  138.3518  154.7163 C   0  0  0  0  0  0  0  0  0  0  0  0
  151.4017  139.5558  155.4814 C   0  0  0  0  0  0  0  0  0  0  0  0
  151.9466  139.6991  156.7745 C   0  0  0  0  0  0  0  0  0  0  0  0
  151.6660  140.8726  157.5004 C   0  0  0  0  0  0  0  0  0  0  0  0
  150.8493  141.8658  156.9114 C   0  0  0  0  0  0  0  0  0  0  0  0
  150.5087  143.0678  157.5499 N   0  0  0  0  0  0  0  0  0  0  0  0
  150.7962  143.2893  158.9621 C   0  0  2  0  0  0  0  0  0  0  0  0
  150.4512  144.7084  159.4334 C   0  0  0  0  0  0  0  0  0  0  0  0
  151.7896  145.1871  160.0091 C   0  0  1  0  0  0  0  0  0  0  0  0
  152.1690  144.4449  161.2977 C   0  0  0  0  0  0  0  0  0  0  0  0
  152.5671  143.0705  160.7603 C   0  0  0  0  0  0  0  0  0  0  0  0
  152.3055  143.2309  159.2564 C   0  0  2  0  0  0  0  0  0  0  0  0
  152.6823  144.5881  159.0872 O   0  0  0  0  0  0  0  0  0  0  0  0
  150.3587  141.6218  155.6113 C   0  0  0  0  0  0  0  0  0  0  0  0
  150.6222  140.4990  154.9094 N   0  0  0  0  0  0  0  0  0  0  0  0
  152.5684  138.9282  157.2068 H   0  0  0  0  0  0  0  0  0  0  0  0
  152.0794  140.9903  158.4907 H   0  0  0  0  0  0  0  0  0  0  0  0
  149.8795  143.7090  157.0878 H   0  0  0  0  0  0  0  0  0  0  0  0
  150.2814  142.5315  159.5537 H   0  0  0  0  0  0  0  0  0  0  0  0
  150.1525  145.3486  158.6016 H   0  0  0  0  0  0  0  0  0  0  0  0
  149.6508  144.7225  160.1738 H   0  0  0  0  0  0  0  0  0  0  0  0
  151.8774  146.2715  160.0797 H   0  0  0  0  0  0  0  0  0  0  0  0
  153.0174  144.9234  161.7884 H   0  0  0  0  0  0  0  0  0  0  0  0
  151.3427  144.4005  162.0079 H   0  0  0  0  0  0  0  0  0  0  0  0
  153.6240  142.8789  160.9490 H   0  0  0  0  0  0  0  0  0  0  0  0
  151.9894  142.2578  161.2015 H   0  0  0  0  0  0  0  0  0  0  0  0
  152.8619  142.5235  158.6403 H   0  0  0  0  0  0  0  0  0  0  0  0
  149.7315  142.3490  155.1166 H   0  0  0  0  0  0  0  0  0  0  0  0
  1  2  3  0  0  0  0
  2  3  1  0  0  0  0
  3 16  1  0  0  0  0
  3  4  2  0  0  0  0
  4  5  1  0  0  0  0
  4 17  1  0  0  0  0
  5  6  2  0  0  0  0
  5 18  1  0  0  0  0
  6  7  1  0  0  0  0
  6 15  1  0  0  0  0
  7  8  1  0  0  0  0
  7 19  1  0  0  0  0
  8 13  1  0  0  0  0
  8  9  1  0  0  0  0
  8 20  1  0  0  0  0
  9 10  1  0  0  0  0
  9 21  1  0  0  0  0
  9 22  1  0  0  0  0
 10 14  1  0  0  0  0
 10 11  1  0  0  0  0
 10 23  1  0  0  0  0
 11 12  1  0  0  0  0
 11 24  1  0  0  0  0
 11 25  1  0  0  0  0
 12 13  1  0  0  0  0
 12 26  1  0  0  0  0
 12 27  1  0  0  0  0
 13 14  1  0  0  0  0
 13 28  1  0  0  0  0
 15 16  2  0  0  0  0
 15 29  1  0  0  0  0
M  END
> <s_m_source_file>
AV-unprocessed.smi

> <i_m_source_file_index>
2798

> <i_lp_mmshare_version>
43012

> <i_f3d_flags>
0

> <s_epik_input>
TiNDYzFbY0hdW2NIXWMoW2NIXW4xKVtOSF1bQ0BIXShbQ0gyXVtDQEBIXTIzKVtDQEBIXShPMylbQ0gyXVtDSDJdMg==

> <s_epik_cmdline>
J2VwaWtfcHl0aG9uJywgJy1waCcsICc3LjAnLCAnLXRuJywgJzgnLCAnLW1hJywgJzIwMCcsICctbWV0YWxfYmluZGluZycsICctaW1hZScsICc8aW5maWxlLm1hZT4nLCAnLW9tYWUnLCAnPG91dGZpbGUubWFlPic=

> <r_lp_tautomer_probability>
1

> <r_epik_Ionization_Penalty>
2.201e-07

> <r_epik_Ionization_Penalty_Charging>
0

> <r_epik_Ionization_Penalty_Neutral>
2.201e-07

> <r_epik_State_Penalty>
-0

> <r_epik_Charging_Adjusted_Penalty>
0

> <i_epik_Tot_Q>
0

> <i_epik_Tot_abs_Q>
0

> <r_epik_Metal_State_Penalty>
-0

> <b_epik_Metal_Only>
0

> <s_lp_Force_Field>
OPLS_2005

> <r_lp_Energy>
43.4695

> <b_lp_Chiralities_Consistent>
1

> <s_lp_Variant>
AV-unprocessed.smi:2798-1

> <Gold.Version>
5.8.1

> <Gold.Id.Protein>
6NUR|6NUR_protein|mol2

> <Gold.PLP.Fitness>
50.7274

> <Gold.PLP.PLP>
-39.0052

> <Gold.PLP.part.hbond>
-3.0000

> <Gold.PLP.part.metal>
0.0000

> <Gold.PLP.part.buried>
-5.2618

> <Gold.PLP.part.nonpolar>
-30.7316

> <Gold.PLP.part.repulsive>
0.7740

> <Gold.PLP.ligand.clash>
0.0000

> <Gold.PLP.ligand.torsion>
0.0357

> <Gold.PLP.Chemscore.Hbond>
3.0000

> <Gold.PLP.Chemscore.CHOScore>
0.9245

> <Gold.PLP.Chemscore.Metal>
0.0000

> <Gold.Chemscore.Hbonds>
donor molecule, donor type, donor heavy atom, donor atom, acceptor molecule, acceptor atom, score
      L1  H     7    19       P1  8028  1.00
      P1  H  7989  7998       L1    16  0.95
      P1  H 10752 10765       L1     1  1.00
      L1  C    15    29       P1  8028  0.90

> <Gold.PLP.Chemscore.Internal.Correction>
0.0198

> <Gold.Rescore>
     Score         DG    S(hbond)    S(metal)    S(lipo)     H(rot)  DE(clash)    DE(int)     intcor
     20.32     -21.39       2.06        0.00      99.16       1.00       0.12       0.94       ----

> <Gold.Chemscore.Fitness>
20.3248

> <Gold.Chemscore.DG>
-21.3866

> <Gold.Chemscore.ZeroCoef>
-5.4800

> <Gold.Chemscore.Hbond>
2.0554

> <Gold.Chemscore.Metal>
0.0000

> <Gold.Chemscore.Lipo>
99.1581

> <Gold.Chemscore.Internal_Hbond>
0.0000

> <Gold.Chemscore.DEClash>
0.1227

> <Gold.Chemscore.DEInternal>
0.9391

> <Gold.Chemscore.Rot>
1.0000

> <Gold.Chemscore.Internal.Correction>
   9.000000E+99

> <Gold.Chemscore.Hbonds>
donor molecule, donor type, donor heavy atom, donor atom, acceptor molecule, acceptor atom, score
      L1  H     7    19       P1  8028  0.92
      P1  H  7989  7998       L1    16  0.15
      P1  H 10752 10765       L1     1  0.90

> <Gold.Chemscore.Hbond.Weighted>
-6.8651

> <Gold.Chemscore.Metal.Weighted>
-0.0000

> <Gold.Chemscore.Lipo.Weighted>
-11.6015

> <Gold.Chemscore.Internal_Hbond.Weighted>
0.0000

> <Gold.Chemscore.DEClash.Weighted>
0.1227

> <Gold.Chemscore.DEInternal.Weighted>
0.9391

> <Gold.Chemscore.Rot.Weighted>
2.5600

> <Gold.Chemscore.Internal.Correction.Weighted>
   9.000000E+99

> <Gold.Protein.RotatedTorsions>
[ 6907 6896 6895 6894 ] final -164.85 input  -60.11 | X-H torsion
[ 7974 7965 7964 7962 ] final  169.57 input  175.53 | X-H torsion
[ 8008 7997 7996 7995 ] final -136.99 input   59.86 | X-H torsion
[ 10167 10162 10161 10158 ] final -144.03 input  -65.29 | X-H torsion
[ 10718 10713 10712 10709 ] final   -5.33 input   66.30 | X-H torsion
[ 10763 10752 10751 10750 ] final  157.17 input  -60.55 | X-H torsion
[ 11005 11000 10999 10996 ] final   34.73 input  -57.11 | X-H torsion

> <Gold.Protein.ActiveResidues>
 VAL166  LYS551  ARG553  GLY616  TRP617  ASP618  TYR619  PRO620  LYS621  CYS622 
 ASP623  PHE694  ASN695  SER759  ASP760  ASP761  ALA762  ILE779  LEU786  VAL792 
 PHE793  MET794  SER795  GLU796  ALA797  LYS798  CYS799  TRP800  GLU811  SER814 

> <Gold.Protein.RotatedAtoms>
  151.4183  133.3706  159.2752 H   0  0  0  0  0  0  0  0  0  0  0  0  # atno 6907 bound_to 6896
  150.9312  134.8728  159.7563 H   0  0  0  0  0  0  0  0  0  0  0  0  # atno 6908 bound_to 6896
  152.5029  134.4128  159.9506 H   0  0  0  0  0  0  0  0  0  0  0  0  # atno 6909 bound_to 6896
  144.7351  139.9074  143.6413 H   0  0  0  0  0  0  0  0  0  0  0  0  # atno 7974 bound_to 7965
  155.4044  140.0508  157.3035 H   0  0  0  0  0  0  0  0  0  0  0  0  # atno 8008 bound_to 7997
  154.4975  140.2144  155.9376 H   0  0  0  0  0  0  0  0  0  0  0  0  # atno 8009 bound_to 7997
  156.1425  140.3151  155.8523 H   0  0  0  0  0  0  0  0  0  0  0  0  # atno 8010 bound_to 7997
  139.7937  143.7930  152.2652 H   0  0  0  0  0  0  0  0  0  0  0  0  # atno 10167 bound_to 10162
  156.7481  130.5231  149.5809 H   0  0  0  0  0  0  0  0  0  0  0  0  # atno 10718 bound_to 10713
  154.1959  135.2792  155.3007 H   0  0  0  0  0  0  0  0  0  0  0  0  # atno 10763 bound_to 10752
  154.5892  135.5565  153.7265 H   0  0  0  0  0  0  0  0  0  0  0  0  # atno 10764 bound_to 10752
  153.0100  135.6364  154.2098 H   0  0  0  0  0  0  0  0  0  0  0  0  # atno 10765 bound_to 10752
  140.2499  134.3316  155.7894 H   0  0  0  0  0  0  0  0  0  0  0  0  # atno 11005 bound_to 11000
  146.1027  139.4023  143.0337 LP  0  0  0  0  0  0  0  0  0  0  0  0  # atno 17320 bound_to 7965
  145.7556  140.9955  143.1227 LP  0  0  0  0  0  0  0  0  0  0  0  0  # atno 17321 bound_to 7965
  139.8029  144.7367  150.9801 LP  0  0  0  0  0  0  0  0  0  0  0  0  # atno 17342 bound_to 10162
  140.7820  143.4327  151.0670 LP  0  0  0  0  0  0  0  0  0  0  0  0  # atno 17343 bound_to 10162
  156.1419  130.6250  151.0479 LP  0  0  0  0  0  0  0  0  0  0  0  0  # atno 17370 bound_to 10713
  157.6789  131.0843  150.7422 LP  0  0  0  0  0  0  0  0  0  0  0  0  # atno 17371 bound_to 10713
  141.2202  133.7347  156.9020 LP  0  0  0  0  0  0  0  0  0  0  0  0  # atno 17394 bound_to 11000
  140.1569  134.9192  157.2664 LP  0  0  0  0  0  0  0  0  0  0  0  0  # atno 17395 bound_to 11000

$$$$
