AV-unprocessed.smi:3169|AV-procd|sdf|12105|dock9
  -GOLD-   2272017543D 1   1.00000     0.00000
 Structure written by MMmdl.
 35 36  0  0  0  0  0  0  0  0  1 V2000
  145.5991  138.3015  153.7818 O   0  0  0  0  0  0  0  0  0  0  0  0
  146.5720  137.6575  153.3893 C   0  0  0  0  0  0  0  0  0  0  0  0
  147.8223  137.8419  153.8333 N   0  0  0  0  0  0  0  0  0  0  0  0
  148.2132  138.7993  154.8633 C   0  0  0  0  0  0  0  0  0  0  0  0
  149.3755  139.7026  154.4104 C   0  0  0  0  0  0  0  0  0  0  0  0
  150.6700  139.0972  154.6609 N   0  0  0  0  0  0  0  0  0  0  0  0
  151.7165  139.6324  155.4000 C   0  0  0  0  0  0  0  0  0  0  0  0
  152.7394  138.7122  155.3558 C   0  0  0  0  0  0  0  0  0  0  0  0
  152.3464  137.6097  154.6008 N   0  0  0  0  0  0  0  0  0  0  0  0
  151.1098  137.9087  154.2244 C   0  0  0  0  0  0  0  0  0  0  0  0
  146.5117  136.6852  152.4693 N   0  0  0  0  0  0  0  0  0  0  0  0
  145.3016  136.2449  151.7834 C   0  0  0  0  0  0  0  0  0  0  0  0
  145.5531  134.9788  150.9481 C   0  0  2  0  0  0  0  0  0  0  0  0
  144.3233  134.4158  150.2355 C   0  0  0  0  0  0  0  0  0  0  0  0
  144.7311  132.9753  150.0300 C   0  0  0  0  0  0  0  0  0  0  0  0
  145.4763  132.6721  151.3275 C   0  0  0  0  0  0  0  0  0  0  0  0
  146.0042  133.9162  151.7831 O   0  0  0  0  0  0  0  0  0  0  0  0
  148.5554  137.2661  153.4456 H   0  0  0  0  0  0  0  0  0  0  0  0
  147.3439  139.4077  155.1147 H   0  0  0  0  0  0  0  0  0  0  0  0
  148.4880  138.2664  155.7749 H   0  0  0  0  0  0  0  0  0  0  0  0
  149.2944  139.9018  153.3414 H   0  0  0  0  0  0  0  0  0  0  0  0
  149.3342  140.6711  154.9108 H   0  0  0  0  0  0  0  0  0  0  0  0
  151.6493  140.5974  155.8802 H   0  0  0  0  0  0  0  0  0  0  0  0
  153.7204  138.7589  155.8050 H   0  0  0  0  0  0  0  0  0  0  0  0
  150.5116  137.2510  153.6107 H   0  0  0  0  0  0  0  0  0  0  0  0
  147.3694  136.2158  152.2184 H   0  0  0  0  0  0  0  0  0  0  0  0
  144.5498  136.0333  152.5442 H   0  0  0  0  0  0  0  0  0  0  0  0
  144.8881  137.0397  151.1602 H   0  0  0  0  0  0  0  0  0  0  0  0
  146.3368  135.1688  150.2129 H   0  0  0  0  0  0  0  0  0  0  0  0
  143.4457  134.4675  150.8818 H   0  0  0  0  0  0  0  0  0  0  0  0
  144.0947  134.9334  149.3036 H   0  0  0  0  0  0  0  0  0  0  0  0
  143.8864  132.3083  149.8561 H   0  0  0  0  0  0  0  0  0  0  0  0
  145.4096  132.8980  149.1794 H   0  0  0  0  0  0  0  0  0  0  0  0
  144.7885  132.2923  152.0839 H   0  0  0  0  0  0  0  0  0  0  0  0
  146.2656  131.9331  151.1872 H   0  0  0  0  0  0  0  0  0  0  0  0
  1  2  2  0  0  0  0
  2  3  1  0  0  0  0
  2 11  1  0  0  0  0
  3  4  1  0  0  0  0
  3 18  1  0  0  0  0
  4  5  1  0  0  0  0
  4 19  1  0  0  0  0
  4 20  1  0  0  0  0
  5  6  1  0  0  0  0
  5 21  1  0  0  0  0
  5 22  1  0  0  0  0
  6 10  1  0  0  0  0
  6  7  1  0  0  0  0
  7  8  2  0  0  0  0
  7 23  1  0  0  0  0
  8  9  1  0  0  0  0
  8 24  1  0  0  0  0
  9 10  2  0  0  0  0
 10 25  1  0  0  0  0
 11 12  1  0  0  0  0
 11 26  1  0  0  0  0
 12 13  1  0  0  0  0
 12 27  1  0  0  0  0
 12 28  1  0  0  0  0
 13 17  1  0  0  0  0
 13 14  1  0  0  0  0
 13 29  1  0  0  0  0
 14 15  1  0  0  0  0
 14 30  1  0  0  0  0
 14 31  1  0  0  0  0
 15 16  1  0  0  0  0
 15 32  1  0  0  0  0
 15 33  1  0  0  0  0
 16 17  1  0  0  0  0
 16 34  1  0  0  0  0
 16 35  1  0  0  0  0
M  END
> <s_m_source_file>
AV-unprocessed.smi

> <i_m_source_file_index>
3169

> <i_lp_mmshare_version>
43012

> <i_f3d_flags>
0

> <s_epik_input>
TzFbQ0gyXVtDSDJdW0NIMl1bQ0BIXTFbQ0gyXVtOSF1DKD1PKVtOSF1bQ0gyXVtDSDJdbjJbY0hdW2NIXW5bY0hdMg==

> <s_epik_cmdline>
J2VwaWtfcHl0aG9uJywgJy1waCcsICc3LjAnLCAnLXRuJywgJzgnLCAnLW1hJywgJzIwMCcsICctbWV0YWxfYmluZGluZycsICctaW1hZScsICc8aW5maWxlLm1hZT4nLCAnLW9tYWUnLCAnPG91dGZpbGUubWFlPic=

> <r_lp_tautomer_probability>
1

> <r_epik_Ionization_Penalty>
0.620462

> <r_epik_Ionization_Penalty_Charging>
0.620414

> <r_epik_Ionization_Penalty_Neutral>
4.72016e-05

> <r_epik_State_Penalty>
0.636391

> <r_epik_Charging_Adjusted_Penalty>
1.25681

> <i_epik_Tot_Q>
0

> <i_epik_Tot_abs_Q>
0

> <r_epik_Metal_State_Penalty>
0.306539

> <b_epik_Metal_Only>
0

> <s_lp_Force_Field>
OPLS_2005

> <r_lp_Energy>
16.7898

> <b_lp_Chiralities_Consistent>
1

> <s_lp_Variant>
AV-unprocessed.smi:3169-3

> <Gold.Version>
5.8.1

> <Gold.Id.Protein>
6NUR|6NUR_protein|mol2

> <Gold.PLP.Fitness>
42.3389

> <Gold.PLP.PLP>
-31.8321

> <Gold.PLP.part.hbond>
-3.0000

> <Gold.PLP.part.metal>
0.0000

> <Gold.PLP.part.buried>
-2.1587

> <Gold.PLP.part.nonpolar>
-26.6572

> <Gold.PLP.part.repulsive>
0.4364

> <Gold.PLP.ligand.clash>
0.0000

> <Gold.PLP.ligand.torsion>
0.2332

> <Gold.PLP.Chemscore.Hbond>
2.5040

> <Gold.PLP.Chemscore.CHOScore>
1.1499

> <Gold.PLP.Chemscore.Metal>
0.0000

> <Gold.Chemscore.Hbonds>
donor molecule, donor type, donor heavy atom, donor atom, acceptor molecule, acceptor atom, score
      L1  H     3    18       P1  7948  0.82
      L1  H    11    26       P1  7948  1.00
      P1  H 10752 10765       L1     9  0.64
      L1  C    10    25       P1  7948  0.65
      L1  C    10    25       P1  7949  0.51

> <Gold.PLP.Chemscore.Internal.Correction>
0.0116

> <Gold.Rescore>
     Score         DG    S(hbond)    S(metal)    S(lipo)     H(rot)  DE(clash)    DE(int)     intcor
     15.22     -15.59       2.62        0.00      60.69       2.25       0.18       0.19       ----

> <Gold.Chemscore.Fitness>
15.2216

> <Gold.Chemscore.DG>
-15.5918

> <Gold.Chemscore.ZeroCoef>
-5.4800

> <Gold.Chemscore.Hbond>
2.6239

> <Gold.Chemscore.Metal>
0.0000

> <Gold.Chemscore.Lipo>
60.6940

> <Gold.Chemscore.Internal_Hbond>
0.0000

> <Gold.Chemscore.DEClash>
0.1820

> <Gold.Chemscore.DEInternal>
0.1882

> <Gold.Chemscore.Rot>
2.2474

> <Gold.Chemscore.Internal.Correction>
   9.000000E+99

> <Gold.Chemscore.Hbonds>
donor molecule, donor type, donor heavy atom, donor atom, acceptor molecule, acceptor atom, score
      L1  H     3    18       P1  7948  0.81
      L1  H    11    26       P1  7948  0.95
      P1  H 10752 10765       L1     9  0.57

> <Gold.Chemscore.Hbond.Weighted>
-8.7638

> <Gold.Chemscore.Metal.Weighted>
-0.0000

> <Gold.Chemscore.Lipo.Weighted>
-7.1012

> <Gold.Chemscore.Internal_Hbond.Weighted>
0.0000

> <Gold.Chemscore.DEClash.Weighted>
0.1820

> <Gold.Chemscore.DEInternal.Weighted>
0.1882

> <Gold.Chemscore.Rot.Weighted>
5.7532

> <Gold.Chemscore.Internal.Correction.Weighted>
   9.000000E+99

> <Gold.Protein.RotatedTorsions>
[ 6907 6896 6895 6894 ] final  -51.39 input  -60.11 | X-H torsion
[ 7974 7965 7964 7962 ] final   -0.36 input  175.53 | X-H torsion
[ 8008 7997 7996 7995 ] final   87.78 input   59.86 | X-H torsion
[ 10167 10162 10161 10158 ] final  111.10 input  -65.29 | X-H torsion
[ 10718 10713 10712 10709 ] final  -14.56 input   66.30 | X-H torsion
[ 10763 10752 10751 10750 ] final  158.28 input  -60.55 | X-H torsion
[ 11005 11000 10999 10996 ] final  -62.43 input  -57.11 | X-H torsion

> <Gold.Protein.ActiveResidues>
 VAL166  LYS551  ARG553  GLY616  TRP617  ASP618  TYR619  PRO620  LYS621  CYS622 
 ASP623  PHE694  ASN695  SER759  ASP760  ASP761  ALA762  ILE779  LEU786  VAL792 
 PHE793  MET794  SER795  GLU796  ALA797  LYS798  CYS799  TRP800  GLU811  SER814 

> <Gold.Protein.RotatedAtoms>
  150.8616  134.7970  159.7086 H   0  0  0  0  0  0  0  0  0  0  0  0  # atno 6907 bound_to 6896
  152.4651  134.5090  159.9758 H   0  0  0  0  0  0  0  0  0  0  0  0  # atno 6908 bound_to 6896
  151.5193  133.3431  159.2934 H   0  0  0  0  0  0  0  0  0  0  0  0  # atno 6909 bound_to 6896
  146.2428  140.1258  142.8339 H   0  0  0  0  0  0  0  0  0  0  0  0  # atno 7974 bound_to 7965
  155.9796  140.3378  155.6650 H   0  0  0  0  0  0  0  0  0  0  0  0  # atno 8008 bound_to 7997
  155.6567  140.0711  157.2586 H   0  0  0  0  0  0  0  0  0  0  0  0  # atno 8009 bound_to 7997
  154.4188  140.1716  156.1720 H   0  0  0  0  0  0  0  0  0  0  0  0  # atno 8010 bound_to 7997
  139.6637  144.7128  151.1816 H   0  0  0  0  0  0  0  0  0  0  0  0  # atno 10167 bound_to 10162
  156.6142  130.4858  149.6189 H   0  0  0  0  0  0  0  0  0  0  0  0  # atno 10718 bound_to 10713
  154.2136  135.2785  155.2949 H   0  0  0  0  0  0  0  0  0  0  0  0  # atno 10763 bound_to 10752
  154.5758  135.5604  153.7142 H   0  0  0  0  0  0  0  0  0  0  0  0  # atno 10764 bound_to 10752
  153.0058  135.6332  154.2275 H   0  0  0  0  0  0  0  0  0  0  0  0  # atno 10765 bound_to 10752
  141.1359  133.6640  156.5526 H   0  0  0  0  0  0  0  0  0  0  0  0  # atno 11005 bound_to 11000
  145.0368  140.8914  143.5076 LP  0  0  0  0  0  0  0  0  0  0  0  0  # atno 17320 bound_to 7965
  145.1331  139.2619  143.5529 LP  0  0  0  0  0  0  0  0  0  0  0  0  # atno 17321 bound_to 7965
  140.7590  143.5953  150.8754 LP  0  0  0  0  0  0  0  0  0  0  0  0  # atno 17342 bound_to 10162
  139.9613  143.6161  152.3001 LP  0  0  0  0  0  0  0  0  0  0  0  0  # atno 17343 bound_to 10162
  156.2365  130.6825  151.1514 LP  0  0  0  0  0  0  0  0  0  0  0  0  # atno 17370 bound_to 10713
  157.7246  131.0659  150.5989 LP  0  0  0  0  0  0  0  0  0  0  0  0  # atno 17371 bound_to 10713
  140.4052  134.7321  157.4803 LP  0  0  0  0  0  0  0  0  0  0  0  0  # atno 17394 bound_to 11000
  140.0467  134.6189  155.8912 LP  0  0  0  0  0  0  0  0  0  0  0  0  # atno 17395 bound_to 11000

$$$$
