AV-unprocessed.smi:1152|AV-procd|sdf|4897|dock3
  -GOLD-   22720 3473D 1   1.00000     0.00000
 Structure written by MMmdl.
 32 33  0  0  0  0  0  0  0  0  1 V2000
  146.4928  138.5706  151.8263 C   0  0  0  0  0  0  0  0  0  0  0  0
  147.7705  138.5596  152.5220 N   0  0  0  0  0  0  0  0  0  0  0  0
  148.1448  139.4782  153.4224 C   0  0  0  0  0  0  0  0  0  0  0  0
  147.4368  140.4303  153.7519 O   0  0  0  0  0  0  0  0  0  0  0  0
  149.3737  139.2179  153.9029 N   0  0  0  0  0  0  0  0  0  0  0  0
  150.1163  139.9509  154.8660 C   0  0  0  0  0  0  0  0  0  0  0  0
  151.4526  140.0480  154.8598 N   0  0  0  0  0  0  0  0  0  0  0  0
  151.9199  140.8225  155.9117 N   0  0  0  0  0  0  0  0  0  0  0  0
  150.9278  141.2886  156.6823 C   0  0  0  0  0  0  0  0  0  0  0  0
  151.1642  142.1503  157.8833 C   0  0  0  0  0  0  0  0  0  0  0  0
  151.5996  143.5803  157.5083 C   0  0  0  0  0  0  0  0  0  0  0  0
  151.7928  144.4534  158.7592 C   0  0  0  0  0  0  0  0  0  0  0  0
  152.7733  143.8030  159.7487 C   0  0  0  0  0  0  0  0  0  0  0  0
  152.3154  142.3881  160.1383 C   0  0  0  0  0  0  0  0  0  0  0  0
  152.1259  141.5004  158.8971 C   0  0  0  0  0  0  0  0  0  0  0  0
  149.3136  140.8069  156.1710 S   0  0  0  0  0  0  0  0  0  0  0  0
  146.4309  137.7191  151.1488 H   0  0  0  0  0  0  0  0  0  0  0  0
  146.3779  139.4828  151.2394 H   0  0  0  0  0  0  0  0  0  0  0  0
  145.6649  138.5049  152.5335 H   0  0  0  0  0  0  0  0  0  0  0  0
  148.4074  137.8071  152.3043 H   0  0  0  0  0  0  0  0  0  0  0  0
  149.8330  138.3976  153.5361 H   0  0  0  0  0  0  0  0  0  0  0  0
  150.1991  142.2404  158.3840 H   0  0  0  0  0  0  0  0  0  0  0  0
  152.5328  143.5470  156.9441 H   0  0  0  0  0  0  0  0  0  0  0  0
  150.8577  144.0380  156.8529 H   0  0  0  0  0  0  0  0  0  0  0  0
  152.1558  145.4401  158.4702 H   0  0  0  0  0  0  0  0  0  0  0  0
  150.8306  144.6099  159.2485 H   0  0  0  0  0  0  0  0  0  0  0  0
  153.7668  143.7554  159.3010 H   0  0  0  0  0  0  0  0  0  0  0  0
  152.8657  144.4224  160.6414 H   0  0  0  0  0  0  0  0  0  0  0  0
  153.0430  141.9338  160.8114 H   0  0  0  0  0  0  0  0  0  0  0  0
  151.3777  142.4475  160.6923 H   0  0  0  0  0  0  0  0  0  0  0  0
  151.7470  140.5234  159.1996 H   0  0  0  0  0  0  0  0  0  0  0  0
  153.0950  141.3249  158.4278 H   0  0  0  0  0  0  0  0  0  0  0  0
  1  2  1  0  0  0  0
  1 17  1  0  0  0  0
  1 18  1  0  0  0  0
  1 19  1  0  0  0  0
  2  3  1  0  0  0  0
  2 20  1  0  0  0  0
  3  4  2  0  0  0  0
  3  5  1  0  0  0  0
  5  6  1  0  0  0  0
  5 21  1  0  0  0  0
  6 16  1  0  0  0  0
  6  7  2  0  0  0  0
  7  8  1  0  0  0  0
  8  9  2  0  0  0  0
  9 10  1  0  0  0  0
  9 16  1  0  0  0  0
 10 15  1  0  0  0  0
 10 11  1  0  0  0  0
 10 22  1  0  0  0  0
 11 12  1  0  0  0  0
 11 23  1  0  0  0  0
 11 24  1  0  0  0  0
 12 13  1  0  0  0  0
 12 25  1  0  0  0  0
 12 26  1  0  0  0  0
 13 14  1  0  0  0  0
 13 27  1  0  0  0  0
 13 28  1  0  0  0  0
 14 15  1  0  0  0  0
 14 29  1  0  0  0  0
 14 30  1  0  0  0  0
 15 31  1  0  0  0  0
 15 32  1  0  0  0  0
M  END
> <s_m_source_file>
AV-unprocessed.smi

> <i_m_source_file_index>
1152

> <i_lp_mmshare_version>
43012

> <i_f3d_flags>
0

> <s_epik_input>
W0NIM11bTkhdQyg9TylbTkhdYzFubmMoczEpW0NIXTJbQ0gyXVtDSDJdW0NIMl1bQ0gyXVtDSDJdMg==

> <s_epik_cmdline>
J2VwaWtfcHl0aG9uJywgJy1waCcsICc3LjAnLCAnLXRuJywgJzgnLCAnLW1hJywgJzIwMCcsICctbWV0YWxfYmluZGluZycsICctaW1hZScsICc8aW5maWxlLm1hZT4nLCAnLW9tYWUnLCAnPG91dGZpbGUubWFlPic=

> <r_lp_tautomer_probability>
1

> <r_epik_Ionization_Penalty>
0.00039794

> <r_epik_Ionization_Penalty_Charging>
0

> <r_epik_Ionization_Penalty_Neutral>
0.00039794

> <r_epik_State_Penalty>
-0

> <r_epik_Charging_Adjusted_Penalty>
0

> <i_epik_Tot_Q>
0

> <i_epik_Tot_abs_Q>
0

> <r_epik_Metal_State_Penalty>
0.193873

> <b_epik_Metal_Only>
0

> <s_lp_Force_Field>
OPLS_2005

> <r_lp_Energy>
2.48504

> <b_lp_Chiralities_Consistent>
1

> <s_lp_Variant>
AV-unprocessed.smi:1152-1

> <Gold.Version>
5.8.1

> <Gold.Id.Protein>
6NUR|6NUR_protein|mol2

> <Gold.PLP.Fitness>
38.8729

> <Gold.PLP.PLP>
-33.5528

> <Gold.PLP.part.hbond>
-4.6800

> <Gold.PLP.part.metal>
0.0000

> <Gold.PLP.part.buried>
0.0857

> <Gold.PLP.part.nonpolar>
-30.0562

> <Gold.PLP.part.repulsive>
0.3702

> <Gold.PLP.ligand.clash>
0.0000

> <Gold.PLP.ligand.torsion>
0.3707

> <Gold.PLP.Chemscore.Hbond>
2.0000

> <Gold.PLP.Chemscore.CHOScore>
0.0000

> <Gold.PLP.Chemscore.Metal>
0.0000

> <Gold.Chemscore.Hbonds>
donor molecule, donor type, donor heavy atom, donor atom, acceptor molecule, acceptor atom, score
      L1  H     2    20       P1  7948  1.00
      P1  H  7989  7998       L1     7  1.00

> <Gold.PLP.Chemscore.Internal.Correction>
0.0615

> <Gold.Rescore>
     Score         DG    S(hbond)    S(metal)    S(lipo)     H(rot)  DE(clash)    DE(int)     intcor
     14.81     -17.01       1.13        0.00      88.21       1.00       1.13       1.07       ----

> <Gold.Chemscore.Fitness>
14.8137

> <Gold.Chemscore.DG>
-17.0125

> <Gold.Chemscore.ZeroCoef>
-5.4800

> <Gold.Chemscore.Hbond>
1.1294

> <Gold.Chemscore.Metal>
0.0000

> <Gold.Chemscore.Lipo>
88.2085

> <Gold.Chemscore.Internal_Hbond>
0.0000

> <Gold.Chemscore.DEClash>
1.1257

> <Gold.Chemscore.DEInternal>
1.0731

> <Gold.Chemscore.Rot>
1.0000

> <Gold.Chemscore.Internal.Correction>
   9.000000E+99

> <Gold.Chemscore.Hbonds>
donor molecule, donor type, donor heavy atom, donor atom, acceptor molecule, acceptor atom, score
      L1  H     2    20       P1  7948  1.00
      P1  H  7989  7998       L1     7  0.16

> <Gold.Chemscore.Hbond.Weighted>
-3.7722

> <Gold.Chemscore.Metal.Weighted>
-0.0000

> <Gold.Chemscore.Lipo.Weighted>
-10.3204

> <Gold.Chemscore.Internal_Hbond.Weighted>
0.0000

> <Gold.Chemscore.DEClash.Weighted>
1.1257

> <Gold.Chemscore.DEInternal.Weighted>
1.0731

> <Gold.Chemscore.Rot.Weighted>
2.5600

> <Gold.Chemscore.Internal.Correction.Weighted>
   9.000000E+99

> <Gold.Protein.RotatedTorsions>
[ 6907 6896 6895 6894 ] final  148.01 input  -60.11 | X-H torsion
[ 7974 7965 7964 7962 ] final  -49.47 input  175.53 | X-H torsion
[ 8008 7997 7996 7995 ] final  175.17 input   59.86 | X-H torsion
[ 10167 10162 10161 10158 ] final  117.52 input  -65.29 | X-H torsion
[ 10718 10713 10712 10709 ] final -139.02 input   66.30 | X-H torsion
[ 10763 10752 10751 10750 ] final   98.35 input  -60.55 | X-H torsion
[ 11005 11000 10999 10996 ] final    0.55 input  -57.11 | X-H torsion

> <Gold.Protein.ActiveResidues>
 VAL166  LYS551  ARG553  GLY616  TRP617  ASP618  TYR619  PRO620  LYS621  CYS622 
 ASP623  PHE694  ASN695  SER759  ASP760  ASP761  ALA762  ILE779  LEU786  VAL792 
 PHE793  MET794  SER795  GLU796  ALA797  LYS798  CYS799  TRP800  GLU811  SER814 

> <Gold.Protein.RotatedAtoms>
  152.1471  133.4499  159.4795 H   0  0  0  0  0  0  0  0  0  0  0  0  # atno 6907 bound_to 6896
  150.6892  134.2234  159.4415 H   0  0  0  0  0  0  0  0  0  0  0  0  # atno 6908 bound_to 6896
  152.0128  134.9866  160.0619 H   0  0  0  0  0  0  0  0  0  0  0  0  # atno 6909 bound_to 6896
  145.9402  140.7669  142.9556 H   0  0  0  0  0  0  0  0  0  0  0  0  # atno 7974 bound_to 7965
  156.0898  140.1415  156.9606 H   0  0  0  0  0  0  0  0  0  0  0  0  # atno 8008 bound_to 7997
  154.4635  140.0934  156.7004 H   0  0  0  0  0  0  0  0  0  0  0  0  # atno 8009 bound_to 7997
  155.4938  140.3449  155.4361 H   0  0  0  0  0  0  0  0  0  0  0  0  # atno 8010 bound_to 7997
  139.6173  144.7094  151.2711 H   0  0  0  0  0  0  0  0  0  0  0  0  # atno 10167 bound_to 10162
  156.3059  130.7455  151.1518 H   0  0  0  0  0  0  0  0  0  0  0  0  # atno 10718 bound_to 10713
  153.2880  135.4151  155.1141 H   0  0  0  0  0  0  0  0  0  0  0  0  # atno 10763 bound_to 10752
  154.8511  135.3511  154.6020 H   0  0  0  0  0  0  0  0  0  0  0  0  # atno 10764 bound_to 10752
  153.6442  135.7055  153.5289 H   0  0  0  0  0  0  0  0  0  0  0  0  # atno 10765 bound_to 10752
  140.6253  133.9624  155.8246 H   0  0  0  0  0  0  0  0  0  0  0  0  # atno 11005 bound_to 11000
  144.6778  140.2267  143.7360 LP  0  0  0  0  0  0  0  0  0  0  0  0  # atno 17320 bound_to 7965
  145.8310  139.2086  143.1883 LP  0  0  0  0  0  0  0  0  0  0  0  0  # atno 17321 bound_to 7965
  140.7359  143.6723  150.8071 LP  0  0  0  0  0  0  0  0  0  0  0  0  # atno 17342 bound_to 10162
  140.0328  143.5426  152.2753 LP  0  0  0  0  0  0  0  0  0  0  0  0  # atno 17343 bound_to 10162
  157.7379  131.0546  150.5325 LP  0  0  0  0  0  0  0  0  0  0  0  0  # atno 17370 bound_to 10713
  156.5458  130.4219  149.6131 LP  0  0  0  0  0  0  0  0  0  0  0  0  # atno 17371 bound_to 10713
  141.0713  134.0201  157.3521 LP  0  0  0  0  0  0  0  0  0  0  0  0  # atno 17394 bound_to 11000
  139.9137  135.0194  156.7795 LP  0  0  0  0  0  0  0  0  0  0  0  0  # atno 17395 bound_to 11000

$$$$
