AV-unprocessed.smi:3195|AV-procd|sdf|12220|dock3
  -GOLD-   2272018 53D 1   1.00000     0.00000
 Structure written by MMmdl.
 29 30  0  0  0  0  0  0  0  0  2 V2000
  153.1358  142.2411  160.6124 C   0  0  0  0  0  0  0  0  0  0  0  0
  152.1679  142.6699  159.4961 C   0  0  2  0  0  0  0  0  0  0  0  0
  151.7356  141.4458  158.6594 C   0  0  0  0  0  0  0  0  0  0  0  0
  151.4635  140.3928  159.2385 O   0  0  0  0  0  0  0  0  0  0  0  0
  151.6746  141.6131  157.3241 N   0  0  0  0  0  0  0  0  0  0  0  0
  151.3253  140.6685  156.3197 C   0  0  0  0  0  0  0  0  0  0  0  0
  150.3874  140.9157  155.3706 N   0  0  0  0  0  0  0  0  0  0  0  0
  150.1116  139.9690  154.4504 C   0  0  0  0  0  0  0  0  0  0  0  0
  150.7512  138.7176  154.4161 C   0  0  0  0  0  0  0  0  0  0  0  0
  151.7247  138.4459  155.3930 C   0  0  0  0  0  0  0  0  0  0  0  0
  152.0182  139.4294  156.3591 C   0  0  0  0  0  0  0  0  0  0  0  0
  152.9649  139.1625  157.3109 O   0  5  0  0  0  0  0  0  0  0  0  0
  152.7631  143.7888  158.6082 C   0  0  0  0  0  0  0  0  0  0  0  0
  151.8759  144.9943  158.8659 C   0  0  0  0  0  0  0  0  0  0  0  0
  150.5746  144.3593  159.3280 C   0  0  0  0  0  0  0  0  0  0  0  0
  151.0280  143.2715  160.1194 O   0  0  0  0  0  0  0  0  0  0  0  0
  154.0541  141.8158  160.2060 H   0  0  0  0  0  0  0  0  0  0  0  0
  152.6822  141.4934  161.2643 H   0  0  0  0  0  0  0  0  0  0  0  0
  153.4141  143.0918  161.2352 H   0  0  0  0  0  0  0  0  0  0  0  0
  151.9153  142.5308  156.9770 H   0  0  0  0  0  0  0  0  0  0  0  0
  149.3576  140.2182  153.7188 H   0  0  0  0  0  0  0  0  0  0  0  0
  150.5018  137.9865  153.6618 H   0  0  0  0  0  0  0  0  0  0  0  0
  152.2380  137.4954  155.3994 H   0  0  0  0  0  0  0  0  0  0  0  0
  153.8056  144.0067  158.8434 H   0  0  0  0  0  0  0  0  0  0  0  0
  152.7241  143.5322  157.5480 H   0  0  0  0  0  0  0  0  0  0  0  0
  152.2966  145.5993  159.6700 H   0  0  0  0  0  0  0  0  0  0  0  0
  151.7522  145.6308  157.9894 H   0  0  0  0  0  0  0  0  0  0  0  0
  149.9502  145.0436  159.9022 H   0  0  0  0  0  0  0  0  0  0  0  0
  149.9950  143.9890  158.4807 H   0  0  0  0  0  0  0  0  0  0  0  0
  1  2  1  0  0  0  0
  1 17  1  0  0  0  0
  1 18  1  0  0  0  0
  1 19  1  0  0  0  0
  2 16  1  0  0  0  0
  2  3  1  0  0  0  0
  2 13  1  0  0  0  0
  3  4  2  0  0  0  0
  3  5  1  0  0  0  0
  5 20  1  0  0  0  0
  5  6  1  0  0  0  0
  6 11  2  0  0  0  0
  6  7  1  0  0  0  0
  7  8  2  0  0  0  0
  8 21  1  0  0  0  0
  8  9  1  0  0  0  0
  9 22  1  0  0  0  0
  9 10  2  0  0  0  0
 10 11  1  0  0  0  0
 10 23  1  0  0  0  0
 11 12  1  0  0  0  0
 13 14  1  0  0  0  0
 13 24  1  0  0  0  0
 13 25  1  0  0  0  0
 14 15  1  0  0  0  0
 14 26  1  0  0  0  0
 14 27  1  0  0  0  0
 15 16  1  0  0  0  0
 15 28  1  0  0  0  0
 15 29  1  0  0  0  0
M  CHG  1  12  -1
M  END
> <s_m_source_file>
AV-unprocessed.smi

> <i_m_source_file_index>
3195

> <i_lp_mmshare_version>
43012

> <i_f3d_flags>
0

> <s_epik_input>
TzFbQ0gyXVtDSDJdW0NIMl1bQ0BAXTEoW0NIM10pQyg9TylbTkhdYzJuW2NIXVtjSF1bY0hdYzJbT0hd

> <s_epik_cmdline>
J2VwaWtfcHl0aG9uJywgJy1waCcsICc3LjAnLCAnLXRuJywgJzgnLCAnLW1hJywgJzIwMCcsICctbWV0YWxfYmluZGluZycsICctaW1hZScsICc8aW5maWxlLm1hZT4nLCAnLW9tYWUnLCAnPG91dGZpbGUubWFlPic=

> <r_epik_Ionization_Penalty>
4.16712

> <r_epik_Ionization_Penalty_Charging>
2.09898

> <r_epik_Ionization_Penalty_Neutral>
2.06814

> <r_epik_State_Penalty>
2.6848

> <r_epik_Charging_Adjusted_Penalty>
4.78378

> <i_epik_Tot_Q>
-1

> <i_epik_Tot_abs_Q>
1

> <r_epik_Metal_State_Penalty>
0.595229

> <b_epik_Metal_Only>
0

> <s_lp_Force_Field>
OPLS_2005

> <r_lp_Energy>
19.5699

> <b_lp_Chiralities_Consistent>
1

> <s_lp_Variant>
AV-unprocessed.smi:3195-8

> <Gold.Version>
5.8.1

> <Gold.Id.Protein>
6NUR|6NUR_protein|mol2

> <Gold.PLP.Fitness>
42.6806

> <Gold.PLP.PLP>
-36.0207

> <Gold.PLP.part.hbond>
-3.0000

> <Gold.PLP.part.metal>
0.0000

> <Gold.PLP.part.buried>
-1.1135

> <Gold.PLP.part.nonpolar>
-31.9436

> <Gold.PLP.part.repulsive>
0.2196

> <Gold.PLP.ligand.clash>
0.0000

> <Gold.PLP.ligand.torsion>
1.0823

> <Gold.PLP.Chemscore.Hbond>
2.0000

> <Gold.PLP.Chemscore.CHOScore>
0.9305

> <Gold.PLP.Chemscore.Metal>
0.0000

> <Gold.Chemscore.Hbonds>
donor molecule, donor type, donor heavy atom, donor atom, acceptor molecule, acceptor atom, score
      P1  H  7997  8009       L1    12  2.00
      L1  C     8    21       P1  7957  0.81

> <Gold.PLP.Chemscore.Internal.Correction>
0.0332

> <Gold.Rescore>
     Score         DG    S(hbond)    S(metal)    S(lipo)     H(rot)  DE(clash)    DE(int)     intcor
     14.96     -15.94       0.83        0.00      87.58       1.00       0.02       0.96       ----

> <Gold.Chemscore.Fitness>
14.9559

> <Gold.Chemscore.DG>
-15.9368

> <Gold.Chemscore.ZeroCoef>
-5.4800

> <Gold.Chemscore.Hbond>
0.8294

> <Gold.Chemscore.Metal>
0.0000

> <Gold.Chemscore.Lipo>
87.5771

> <Gold.Chemscore.Internal_Hbond>
0.0000

> <Gold.Chemscore.DEClash>
0.0178

> <Gold.Chemscore.DEInternal>
0.9631

> <Gold.Chemscore.Rot>
1.0000

> <Gold.Chemscore.Internal.Correction>
   9.000000E+99

> <Gold.Chemscore.Hbonds>
donor molecule, donor type, donor heavy atom, donor atom, acceptor molecule, acceptor atom, score
      P1  H  7997  8009       L1    12  0.45

> <Gold.Chemscore.Hbond.Weighted>
-2.7703

> <Gold.Chemscore.Metal.Weighted>
-0.0000

> <Gold.Chemscore.Lipo.Weighted>
-10.2465

> <Gold.Chemscore.Internal_Hbond.Weighted>
0.0000

> <Gold.Chemscore.DEClash.Weighted>
0.0178

> <Gold.Chemscore.DEInternal.Weighted>
0.9631

> <Gold.Chemscore.Rot.Weighted>
2.5600

> <Gold.Chemscore.Internal.Correction.Weighted>
   9.000000E+99

> <Gold.Protein.RotatedTorsions>
[ 6907 6896 6895 6894 ] final  107.09 input  -60.11 | X-H torsion
[ 7974 7965 7964 7962 ] final   13.22 input  175.53 | X-H torsion
[ 8008 7997 7996 7995 ] final  173.40 input   59.86 | X-H torsion
[ 10167 10162 10161 10158 ] final   42.66 input  -65.29 | X-H torsion
[ 10718 10713 10712 10709 ] final  163.67 input   66.30 | X-H torsion
[ 10763 10752 10751 10750 ] final   93.66 input  -60.55 | X-H torsion
[ 11005 11000 10999 10996 ] final  -39.17 input  -57.11 | X-H torsion

> <Gold.Protein.ActiveResidues>
 VAL166  LYS551  ARG553  GLY616  TRP617  ASP618  TYR619  PRO620  LYS621  CYS622 
 ASP623  PHE694  ASN695  SER759  ASP760  ASP761  ALA762  ILE779  LEU786  VAL792 
 PHE793  MET794  SER795  GLU796  ALA797  LYS798  CYS799  TRP800  GLU811  SER814 

> <Gold.Protein.RotatedAtoms>
  152.5168  133.9285  159.7568 H   0  0  0  0  0  0  0  0  0  0  0  0  # atno 6907 bound_to 6896
  150.9641  133.6405  159.2756 H   0  0  0  0  0  0  0  0  0  0  0  0  # atno 6908 bound_to 6896
  151.3640  135.0915  159.9496 H   0  0  0  0  0  0  0  0  0  0  0  0  # atno 6909 bound_to 6896
  146.2334  139.9221  142.8508 H   0  0  0  0  0  0  0  0  0  0  0  0  # atno 7974 bound_to 7965
  156.1079  140.1461  156.9379 H   0  0  0  0  0  0  0  0  0  0  0  0  # atno 8008 bound_to 7997
  154.4746  140.0898  156.7274 H   0  0  0  0  0  0  0  0  0  0  0  0  # atno 8009 bound_to 7997
  155.4648  140.3439  155.4320 H   0  0  0  0  0  0  0  0  0  0  0  0  # atno 8010 bound_to 7997
  140.3522  144.2336  150.6145 H   0  0  0  0  0  0  0  0  0  0  0  0  # atno 10167 bound_to 10162
  157.1052  131.0453  151.2481 H   0  0  0  0  0  0  0  0  0  0  0  0  # atno 10718 bound_to 10713
  153.2328  135.4317  155.0614 H   0  0  0  0  0  0  0  0  0  0  0  0  # atno 10763 bound_to 10752
  154.8305  135.3384  154.6762 H   0  0  0  0  0  0  0  0  0  0  0  0  # atno 10764 bound_to 10752
  153.7188  135.7018  153.5074 H   0  0  0  0  0  0  0  0  0  0  0  0  # atno 10765 bound_to 10752
  141.0082  133.6921  156.2151 H   0  0  0  0  0  0  0  0  0  0  0  0  # atno 11005 bound_to 11000
  145.2127  140.9902  143.4091 LP  0  0  0  0  0  0  0  0  0  0  0  0  # atno 17320 bound_to 7965
  144.9678  139.3912  143.6324 LP  0  0  0  0  0  0  0  0  0  0  0  0  # atno 17321 bound_to 7965
  140.5208  143.2266  151.8391 LP  0  0  0  0  0  0  0  0  0  0  0  0  # atno 17342 bound_to 10162
  139.4825  144.4839  151.9272 LP  0  0  0  0  0  0  0  0  0  0  0  0  # atno 17343 bound_to 10162
  157.4607  130.7651  149.7233 LP  0  0  0  0  0  0  0  0  0  0  0  0  # atno 17370 bound_to 10713
  155.9864  130.3975  150.3215 LP  0  0  0  0  0  0  0  0  0  0  0  0  # atno 17371 bound_to 10713
  140.6777  134.4800  157.5588 LP  0  0  0  0  0  0  0  0  0  0  0  0  # atno 17394 bound_to 11000
  139.9075  134.8417  156.1650 LP  0  0  0  0  0  0  0  0  0  0  0  0  # atno 17395 bound_to 11000

$$$$
