AV-unprocessed.smi:96|AV-procd|sdf|859|dock10
  -GOLD-   2262017303D 1   1.00000     0.00000
 Structure written by MMmdl.
 43 46  0  0  0  0  0  0  0  0  1 V2000
  151.2783  135.5635  155.7601 O   0  0  0  0  0  0  0  0  0  0  0  0
  150.9277  136.7440  155.7850 C   0  0  0  0  0  0  0  0  0  0  0  0
  151.5807  137.7728  154.8479 C   0  0  0  0  0  0  0  0  0  0  0  0
  151.0990  139.1569  155.0532 N   0  0  0  0  0  0  0  0  0  0  0  0
  149.9309  139.5781  154.3701 C   0  0  0  0  0  0  0  0  0  0  0  0
  149.3305  138.8219  153.6050 O   0  0  0  0  0  0  0  0  0  0  0  0
  149.4970  140.9424  154.6470 C   0  0  0  0  0  0  0  0  0  0  0  0
  148.3898  141.4224  154.0555 F   0  0  0  0  0  0  0  0  0  0  0  0
  150.1888  141.7325  155.4932 C   0  0  0  0  0  0  0  0  0  0  0  0
  151.3385  141.3178  156.1363 N   0  0  0  0  0  0  0  0  0  0  0  0
  152.0207  142.2554  157.1055 C   0  0  2  0  0  0  0  0  0  0  0  0
  152.0180  141.7483  158.5601 C   0  0  0  0  0  0  0  0  0  0  0  0
  151.3089  142.8654  159.3081 C   0  0  0  0  0  0  0  0  0  0  0  0
  151.4729  144.0583  158.3728 C   0  0  0  0  0  0  0  0  0  0  0  0
  151.3555  143.4805  157.0822 O   0  0  0  0  0  0  0  0  0  0  0  0
  151.8030  139.9950  155.9511 C   0  0  0  0  0  0  0  0  0  0  0  0
  152.7895  139.5772  156.5597 O   0  0  0  0  0  0  0  0  0  0  0  0
  149.9966  137.2457  156.6170 N   0  0  0  0  0  0  0  0  0  0  0  0
  149.2148  136.5680  157.5915 C   0  0  0  0  0  0  0  0  0  0  0  0
  148.7957  135.2126  157.4566 C   0  0  0  0  0  0  0  0  0  0  0  0
  148.0019  134.5977  158.4515 C   0  0  0  0  0  0  0  0  0  0  0  0
  147.6331  135.3671  159.5660 C   0  0  0  0  0  0  0  0  0  0  0  0
  148.0221  136.6836  159.6954 C   0  0  0  0  0  0  0  0  0  0  0  0
  148.8106  137.3184  158.7220 C   0  0  0  0  0  0  0  0  0  0  0  0
  147.5266  137.1926  160.8523 O   0  0  0  0  0  0  0  0  0  0  0  0
  146.8084  136.1470  161.4550 C   0  0  0  0  0  0  0  0  0  0  0  0
  146.8814  135.0073  160.6374 O   0  0  0  0  0  0  0  0  0  0  0  0
  152.6635  137.7167  154.9726 H   0  0  0  0  0  0  0  0  0  0  0  0
  151.4187  137.4514  153.8178 H   0  0  0  0  0  0  0  0  0  0  0  0
  149.8217  142.7334  155.6678 H   0  0  0  0  0  0  0  0  0  0  0  0
  153.0355  142.3922  156.7288 H   0  0  0  0  0  0  0  0  0  0  0  0
  151.5237  140.7824  158.6674 H   0  0  0  0  0  0  0  0  0  0  0  0
  153.0511  141.6457  158.8939 H   0  0  0  0  0  0  0  0  0  0  0  0
  150.2510  142.6283  159.4247 H   0  0  0  0  0  0  0  0  0  0  0  0
  151.7247  143.0447  160.2999 H   0  0  0  0  0  0  0  0  0  0  0  0
  150.7216  144.8308  158.5381 H   0  0  0  0  0  0  0  0  0  0  0  0
  152.4612  144.5074  158.4837 H   0  0  0  0  0  0  0  0  0  0  0  0
  149.8796  138.2483  156.5912 H   0  0  0  0  0  0  0  0  0  0  0  0
  149.0596  134.6284  156.5888 H   0  0  0  0  0  0  0  0  0  0  0  0
  147.6831  133.5704  158.3538 H   0  0  0  0  0  0  0  0  0  0  0  0
  149.1022  138.3517  158.8420 H   0  0  0  0  0  0  0  0  0  0  0  0
  147.2385  135.9243  162.4321 H   0  0  0  0  0  0  0  0  0  0  0  0
  145.7659  136.4428  161.5773 H   0  0  0  0  0  0  0  0  0  0  0  0
  1  2  2  0  0  0  0
  2  3  1  0  0  0  0
  2 18  1  0  0  0  0
  3  4  1  0  0  0  0
  3 28  1  0  0  0  0
  3 29  1  0  0  0  0
  4 16  1  0  0  0  0
  4  5  1  0  0  0  0
  5  6  2  0  0  0  0
  5  7  1  0  0  0  0
  7  8  1  0  0  0  0
  7  9  2  0  0  0  0
  9 10  1  0  0  0  0
  9 30  1  0  0  0  0
 10 11  1  0  0  0  0
 10 16  1  0  0  0  0
 11 15  1  0  0  0  0
 11 12  1  0  0  0  0
 11 31  1  0  0  0  0
 12 13  1  0  0  0  0
 12 32  1  0  0  0  0
 12 33  1  0  0  0  0
 13 14  1  0  0  0  0
 13 34  1  0  0  0  0
 13 35  1  0  0  0  0
 14 15  1  0  0  0  0
 14 36  1  0  0  0  0
 14 37  1  0  0  0  0
 16 17  2  0  0  0  0
 18 19  1  0  0  0  0
 18 38  1  0  0  0  0
 19 24  1  0  0  0  0
 19 20  2  0  0  0  0
 20 21  1  0  0  0  0
 20 39  1  0  0  0  0
 21 22  2  0  0  0  0
 21 40  1  0  0  0  0
 22 27  1  0  0  0  0
 22 23  1  0  0  0  0
 23 24  2  0  0  0  0
 23 25  1  0  0  0  0
 24 41  1  0  0  0  0
 25 26  1  0  0  0  0
 26 27  1  0  0  0  0
 26 42  1  0  0  0  0
 26 43  1  0  0  0  0
M  END
> <s_m_source_file>
AV-unprocessed.smi

> <i_m_source_file_index>
96

> <i_lp_mmshare_version>
43012

> <i_f3d_flags>
0

> <s_epik_input>
TzFbQ0gyXU9jKGMxMilbY0hdYyhbY0hdW2NIXTIpW05IXUMoPU8pW0NIMl1uM2MoPU8pYyhGKVtjSF1uKGMzPU8pW0NAQEhdNFtDSDJdW0NIMl1bQ0gyXU80

> <s_epik_cmdline>
J2VwaWtfcHl0aG9uJywgJy1waCcsICc3LjAnLCAnLXRuJywgJzgnLCAnLW1hJywgJzIwMCcsICctbWV0YWxfYmluZGluZycsICctaW1hZScsICc8aW5maWxlLm1hZT4nLCAnLW9tYWUnLCAnPG91dGZpbGUubWFlPic=

> <r_lp_tautomer_probability>
1

> <r_epik_Ionization_Penalty>
1.04778e-05

> <r_epik_Ionization_Penalty_Charging>
3.88729e-08

> <r_epik_Ionization_Penalty_Neutral>
1.04389e-05

> <r_epik_State_Penalty>
-0

> <r_epik_Charging_Adjusted_Penalty>
3.88729e-08

> <i_epik_Tot_Q>
0

> <i_epik_Tot_abs_Q>
0

> <r_epik_Metal_State_Penalty>
-0

> <b_epik_Metal_Only>
0

> <s_epik_Chemistry_Notes>
This compound contains an acetal/aminal-like group ( X-CH(R)-Y where X, Y are N, S, or O) that may be acid/base labile, releasing an aldehyde.

> <s_lp_Force_Field>
OPLS_2005

> <r_lp_Energy>
41.3846

> <b_lp_Chiralities_Consistent>
1

> <s_lp_Variant>
AV-unprocessed.smi:96-1

> <Gold.Version>
5.8.1

> <Gold.Id.Protein>
6NUR|6NUR_protein|mol2

> <Gold.PLP.Fitness>
55.7916

> <Gold.PLP.PLP>
-42.6292

> <Gold.PLP.part.hbond>
-4.0000

> <Gold.PLP.part.metal>
0.0000

> <Gold.PLP.part.buried>
-7.3378

> <Gold.PLP.part.nonpolar>
-31.9576

> <Gold.PLP.part.repulsive>
1.7517

> <Gold.PLP.ligand.clash>
0.0000

> <Gold.PLP.ligand.torsion>
0.5885

> <Gold.PLP.Chemscore.Hbond>
3.7680

> <Gold.PLP.Chemscore.CHOScore>
1.0000

> <Gold.PLP.Chemscore.Metal>
0.0000

> <Gold.Chemscore.Hbonds>
donor molecule, donor type, donor heavy atom, donor atom, acceptor molecule, acceptor atom, score
      P1  H  6931  6943       L1    25  0.65
      P1  H  6934  6947       L1    25  1.00
      P1  H  7997  8008       L1    17  1.00
      P1  H 10752 10765       L1     1  1.00
      L1  C     9    30       P1  8028  1.00

> <Gold.PLP.Chemscore.Internal.Correction>
0.0353

> <Gold.Rescore>
     Score         DG    S(hbond)    S(metal)    S(lipo)     H(rot)  DE(clash)    DE(int)     intcor
     16.01     -19.30       3.02        0.00      72.46       1.85       1.79       1.50       ----

> <Gold.Chemscore.Fitness>
16.0062

> <Gold.Chemscore.DG>
-19.2967

> <Gold.Chemscore.ZeroCoef>
-5.4800

> <Gold.Chemscore.Hbond>
3.0162

> <Gold.Chemscore.Metal>
0.0000

> <Gold.Chemscore.Lipo>
72.4626

> <Gold.Chemscore.Internal_Hbond>
0.0000

> <Gold.Chemscore.DEClash>
1.7871

> <Gold.Chemscore.DEInternal>
1.5034

> <Gold.Chemscore.Rot>
1.8497

> <Gold.Chemscore.Internal.Correction>
   9.000000E+99

> <Gold.Chemscore.Hbonds>
donor molecule, donor type, donor heavy atom, donor atom, acceptor molecule, acceptor atom, score
      P1  H  6931  6943       L1    25  0.48
      P1  H  6934  6947       L1    25  0.90
      P1  H  7997  8008       L1    17  1.00
      P1  H 10752 10765       L1     1  0.59

> <Gold.Chemscore.Hbond.Weighted>
-10.0739

> <Gold.Chemscore.Metal.Weighted>
-0.0000

> <Gold.Chemscore.Lipo.Weighted>
-8.4781

> <Gold.Chemscore.Internal_Hbond.Weighted>
0.0000

> <Gold.Chemscore.DEClash.Weighted>
1.7871

> <Gold.Chemscore.DEInternal.Weighted>
1.5034

> <Gold.Chemscore.Rot.Weighted>
4.7354

> <Gold.Chemscore.Internal.Correction.Weighted>
   9.000000E+99

> <Gold.Protein.RotatedTorsions>
[ 6907 6896 6895 6894 ] final  136.72 input  -60.11 | X-H torsion
[ 7974 7965 7964 7962 ] final   41.65 input  175.53 | X-H torsion
[ 8008 7997 7996 7995 ] final  -45.39 input   59.86 | X-H torsion
[ 10167 10162 10161 10158 ] final   65.21 input  -65.29 | X-H torsion
[ 10718 10713 10712 10709 ] final  169.79 input   66.30 | X-H torsion
[ 10763 10752 10751 10750 ] final -160.02 input  -60.55 | X-H torsion
[ 11005 11000 10999 10996 ] final -141.52 input  -57.11 | X-H torsion

> <Gold.Protein.ActiveResidues>
 VAL166  LYS551  ARG553  GLY616  TRP617  ASP618  TYR619  PRO620  LYS621  CYS622 
 ASP623  PHE694  ASN695  SER759  ASP760  ASP761  ALA762  ILE779  LEU786  VAL792 
 PHE793  MET794  SER795  GLU796  ALA797  LYS798  CYS799  TRP800  GLU811  SER814 

> <Gold.Protein.RotatedAtoms>
  152.2862  133.5517  159.5528 H   0  0  0  0  0  0  0  0  0  0  0  0  # atno 6907 bound_to 6896
  150.7216  134.0494  159.3802 H   0  0  0  0  0  0  0  0  0  0  0  0  # atno 6908 bound_to 6896
  151.8402  135.0593  160.0498 H   0  0  0  0  0  0  0  0  0  0  0  0  # atno 6909 bound_to 6896
  146.0806  139.5391  142.9539 H   0  0  0  0  0  0  0  0  0  0  0  0  # atno 7974 bound_to 7965
  154.4001  140.1398  156.3840 H   0  0  0  0  0  0  0  0  0  0  0  0  # atno 8008 bound_to 7997
  155.7977  140.3477  155.5364 H   0  0  0  0  0  0  0  0  0  0  0  0  # atno 8009 bound_to 7997
  155.8515  140.0942  157.1662 H   0  0  0  0  0  0  0  0  0  0  0  0  # atno 8010 bound_to 7997
  140.1137  144.4795  150.6962 H   0  0  0  0  0  0  0  0  0  0  0  0  # atno 10167 bound_to 10162
  157.0175  131.0222  151.2785 H   0  0  0  0  0  0  0  0  0  0  0  0  # atno 10718 bound_to 10713
  154.7425  135.3072  154.8702 H   0  0  0  0  0  0  0  0  0  0  0  0  # atno 10763 bound_to 10752
  153.9512  135.6763  153.4748 H   0  0  0  0  0  0  0  0  0  0  0  0  # atno 10764 bound_to 10752
  153.1023  135.4906  154.8815 H   0  0  0  0  0  0  0  0  0  0  0  0  # atno 10765 bound_to 10752
  140.8316  134.2510  157.4854 H   0  0  0  0  0  0  0  0  0  0  0  0  # atno 11005 bound_to 11000
  145.6225  141.0320  143.1907 LP  0  0  0  0  0  0  0  0  0  0  0  0  # atno 17320 bound_to 7965
  144.7291  139.7782  143.7354 LP  0  0  0  0  0  0  0  0  0  0  0  0  # atno 17321 bound_to 7965
  140.6911  143.2376  151.5128 LP  0  0  0  0  0  0  0  0  0  0  0  0  # atno 17342 bound_to 10162
  139.5605  144.2168  152.1684 LP  0  0  0  0  0  0  0  0  0  0  0  0  # atno 17343 bound_to 10162
  157.5275  130.8037  149.7878 LP  0  0  0  0  0  0  0  0  0  0  0  0  # atno 17370 bound_to 10713
  156.0114  130.3832  150.2252 LP  0  0  0  0  0  0  0  0  0  0  0  0  # atno 17371 bound_to 10713
  139.8705  134.9589  156.4314 LP  0  0  0  0  0  0  0  0  0  0  0  0  # atno 17394 bound_to 11000
  140.8992  133.7792  155.9661 LP  0  0  0  0  0  0  0  0  0  0  0  0  # atno 17395 bound_to 11000

$$$$
