AV-unprocessed.smi:497|AV-procd|sdf|2727|dock10
  -GOLD-   2262023173D 1   1.00000     0.00000
 Structure written by MMmdl.
 39 41  0  0  0  0  0  0  0  0  3 V2000
  154.1316  138.7495  159.3277 C   0  0  0  0  0  0  0  0  0  0  0  0
  153.9193  139.1670  157.9909 O   0  0  0  0  0  0  0  0  0  0  0  0
  152.5589  139.0685  157.6026 C   0  0  0  0  0  0  0  0  0  0  0  0
  151.6632  139.8494  158.5786 C   0  0  0  0  0  0  0  0  0  0  0  0
  151.2688  141.1755  158.0551 N   0  0  0  0  0  0  0  0  0  0  0  0
  150.6250  141.5452  156.8991 C   0  0  0  0  0  0  0  0  0  0  0  0
  150.1079  140.6753  155.7891 C   0  0  0  0  0  0  0  0  0  0  0  0
  148.6493  140.6463  155.7812 N   0  5  0  0  0  0  0  0  0  0  0  0
  147.8604  141.5400  156.4413 C   0  0  0  0  0  0  0  0  0  0  0  0
  147.8075  141.8065  157.6466 O   0  0  0  0  0  0  0  0  0  0  0  0
  146.9362  142.2532  155.5286 C   0  0  0  0  0  0  0  0  0  0  0  0
  146.9135  142.3009  154.1600 C   0  0  0  0  0  0  0  0  0  0  0  0
  145.8296  143.1467  153.7952 C   0  0  0  0  0  0  0  0  0  0  0  0
  145.2636  143.5580  154.9671 C   0  0  0  0  0  0  0  0  0  0  0  0
  145.9231  143.0252  156.0306 O   0  0  0  0  0  0  0  0  0  0  0  0
  150.5306  142.9047  156.9131 N   0  3  0  0  0  0  0  0  0  0  0  0
  151.1075  143.4143  158.0751 C   0  0  0  0  0  0  0  0  0  0  0  0
  151.2462  144.7247  158.5221 C   0  0  0  0  0  0  0  0  0  0  0  0
  151.8931  144.9053  159.7619 C   0  0  0  0  0  0  0  0  0  0  0  0
  152.3736  143.8079  160.5048 C   0  0  0  0  0  0  0  0  0  0  0  0
  152.2263  142.4844  160.0402 C   0  0  0  0  0  0  0  0  0  0  0  0
  151.5837  142.3122  158.8135 C   0  0  0  0  0  0  0  0  0  0  0  0
  155.1885  138.8422  159.5762 H   0  0  0  0  0  0  0  0  0  0  0  0
  153.8444  137.7062  159.4652 H   0  0  0  0  0  0  0  0  0  0  0  0
  153.5648  139.3645  160.0277 H   0  0  0  0  0  0  0  0  0  0  0  0
  152.4382  139.4592  156.5925 H   0  0  0  0  0  0  0  0  0  0  0  0
  152.2553  138.0211  157.5796 H   0  0  0  0  0  0  0  0  0  0  0  0
  150.7573  139.2797  158.7862 H   0  0  0  0  0  0  0  0  0  0  0  0
  152.1574  139.9776  159.5413 H   0  0  0  0  0  0  0  0  0  0  0  0
  150.5344  141.0452  154.8558 H   0  0  0  0  0  0  0  0  0  0  0  0
  150.5207  139.6742  155.9189 H   0  0  0  0  0  0  0  0  0  0  0  0
  147.5993  141.7902  153.5004 H   0  0  0  0  0  0  0  0  0  0  0  0
  145.5067  143.4204  152.8019 H   0  0  0  0  0  0  0  0  0  0  0  0
  144.4298  144.1977  155.2152 H   0  0  0  0  0  0  0  0  0  0  0  0
  150.8804  145.5658  157.9518 H   0  0  0  0  0  0  0  0  0  0  0  0
  152.0251  145.9050  160.1495 H   0  0  0  0  0  0  0  0  0  0  0  0
  152.8671  143.9838  161.4495 H   0  0  0  0  0  0  0  0  0  0  0  0
  152.6059  141.6525  160.6146 H   0  0  0  0  0  0  0  0  0  0  0  0
  150.1041  143.4389  156.1675 H   0  0  0  0  0  0  0  0  0  0  0  0
  1  2  1  0  0  0  0
  1 23  1  0  0  0  0
  1 24  1  0  0  0  0
  1 25  1  0  0  0  0
  2  3  1  0  0  0  0
  3  4  1  0  0  0  0
  3 26  1  0  0  0  0
  3 27  1  0  0  0  0
  4  5  1  0  0  0  0
  4 28  1  0  0  0  0
  4 29  1  0  0  0  0
  5 22  1  0  0  0  0
  5  6  1  0  0  0  0
  6  7  1  0  0  0  0
  6 16  2  0  0  0  0
  7  8  1  0  0  0  0
  7 30  1  0  0  0  0
  7 31  1  0  0  0  0
  8  9  1  0  0  0  0
  9 10  2  0  0  0  0
  9 11  1  0  0  0  0
 11 15  1  0  0  0  0
 11 12  2  0  0  0  0
 12 13  1  0  0  0  0
 12 32  1  0  0  0  0
 13 14  2  0  0  0  0
 13 33  1  0  0  0  0
 14 15  1  0  0  0  0
 14 34  1  0  0  0  0
 16 17  1  0  0  0  0
 16 39  1  0  0  0  0
 17 22  2  0  0  0  0
 17 18  1  0  0  0  0
 18 19  2  0  0  0  0
 18 35  1  0  0  0  0
 19 20  1  0  0  0  0
 19 36  1  0  0  0  0
 20 21  2  0  0  0  0
 20 37  1  0  0  0  0
 21 22  1  0  0  0  0
 21 38  1  0  0  0  0
M  CHG  1   8  -1
M  CHG  1  16   1
M  END
> <s_m_source_file>
AV-unprocessed.smi

> <i_m_source_file_index>
497

> <i_lp_mmshare_version>
43012

> <i_f3d_flags>
0

> <s_epik_input>
W2NIXTFbY0hdW2NIXVtjSF1jKGMxMiluKFtDSDJdW0NIMl1PW0NIM10pYyhuMilbQ0gyXVtOSF1DKD1PKWMzW2NIXVtjSF1bY0hdbzM=

> <s_epik_cmdline>
J2VwaWtfcHl0aG9uJywgJy1waCcsICc3LjAnLCAnLXRuJywgJzgnLCAnLW1hJywgJzIwMCcsICctbWV0YWxfYmluZGluZycsICctaW1hZScsICc8aW5maWxlLm1hZT4nLCAnLW9tYWUnLCAnPG91dGZpbGUubWFlPic=

> <r_epik_Ionization_Penalty>
6.0511

> <r_epik_Ionization_Penalty_Charging>
6.0511

> <r_epik_Ionization_Penalty_Neutral>
2.61117e-12

> <r_epik_State_Penalty>
7.24158

> <r_epik_Charging_Adjusted_Penalty>
13.2927

> <i_epik_Tot_Q>
0

> <i_epik_Tot_abs_Q>
2

> <r_epik_Metal_State_Penalty>
3.25464

> <b_epik_Metal_Only>
1

> <s_lp_Force_Field>
OPLS_2005

> <r_lp_Energy>
9.23096

> <b_lp_Chiralities_Consistent>
1

> <s_lp_Variant>
AV-unprocessed.smi:497-4

> <Gold.Version>
5.8.1

> <Gold.Id.Protein>
6NUR|6NUR_protein|mol2

> <Gold.PLP.Fitness>
50.8479

> <Gold.PLP.PLP>
-44.0791

> <Gold.PLP.part.hbond>
-1.8108

> <Gold.PLP.part.metal>
0.0000

> <Gold.PLP.part.buried>
-6.3203

> <Gold.PLP.part.nonpolar>
-37.3651

> <Gold.PLP.part.repulsive>
0.3583

> <Gold.PLP.ligand.clash>
0.0000

> <Gold.PLP.ligand.torsion>
1.1101

> <Gold.PLP.Chemscore.Hbond>
2.9520

> <Gold.PLP.Chemscore.CHOScore>
0.0000

> <Gold.PLP.Chemscore.Metal>
0.0000

> <Gold.Chemscore.Hbonds>
donor molecule, donor type, donor heavy atom, donor atom, acceptor molecule, acceptor atom, score
      L1  H    16    39       P1  8028  1.92
      P1  H  7997  8008       L1     2  0.96

> <Gold.PLP.Chemscore.Internal.Correction>
0.1331

> <Gold.Rescore>
     Score         DG    S(hbond)    S(metal)    S(lipo)     H(rot)  DE(clash)    DE(int)     intcor
     17.20     -19.59       1.92        0.00     107.25       1.89       0.00       2.39       ----

> <Gold.Chemscore.Fitness>
17.2024

> <Gold.Chemscore.DG>
-19.5927

> <Gold.Chemscore.ZeroCoef>
-5.4800

> <Gold.Chemscore.Hbond>
1.9162

> <Gold.Chemscore.Metal>
0.0000

> <Gold.Chemscore.Lipo>
107.2547

> <Gold.Chemscore.Internal_Hbond>
0.0000

> <Gold.Chemscore.DEClash>
0.0000

> <Gold.Chemscore.DEInternal>
2.3903

> <Gold.Chemscore.Rot>
1.8892

> <Gold.Chemscore.Internal.Correction>
   9.000000E+99

> <Gold.Chemscore.Hbonds>
donor molecule, donor type, donor heavy atom, donor atom, acceptor molecule, acceptor atom, score
      L1  H    16    39       P1  8028  0.92
      P1  H  7997  8008       L1     2  0.85

> <Gold.Chemscore.Hbond.Weighted>
-6.4001

> <Gold.Chemscore.Metal.Weighted>
-0.0000

> <Gold.Chemscore.Lipo.Weighted>
-12.5488

> <Gold.Chemscore.Internal_Hbond.Weighted>
0.0000

> <Gold.Chemscore.DEClash.Weighted>
0.0000

> <Gold.Chemscore.DEInternal.Weighted>
2.3903

> <Gold.Chemscore.Rot.Weighted>
4.8363

> <Gold.Chemscore.Internal.Correction.Weighted>
   9.000000E+99

> <Gold.Protein.RotatedTorsions>
[ 6907 6896 6895 6894 ] final  159.10 input  -60.11 | X-H torsion
[ 7974 7965 7964 7962 ] final  -75.31 input  175.53 | X-H torsion
[ 8008 7997 7996 7995 ] final -112.42 input   59.86 | X-H torsion
[ 10167 10162 10161 10158 ] final   52.05 input  -65.29 | X-H torsion
[ 10718 10713 10712 10709 ] final  -45.92 input   66.30 | X-H torsion
[ 10763 10752 10751 10750 ] final -162.39 input  -60.55 | X-H torsion
[ 11005 11000 10999 10996 ] final  144.02 input  -57.11 | X-H torsion

> <Gold.Protein.ActiveResidues>
 VAL166  LYS551  ARG553  GLY616  TRP617  ASP618  TYR619  PRO620  LYS621  CYS622 
 ASP623  PHE694  ASN695  SER759  ASP760  ASP761  ALA762  ILE779  LEU786  VAL792 
 PHE793  MET794  SER795  GLU796  ALA797  LYS798  CYS799  TRP800  GLU811  SER814 

> <Gold.Protein.RotatedAtoms>
  151.9906  133.3789  159.4142 H   0  0  0  0  0  0  0  0  0  0  0  0  # atno 6907 bound_to 6896
  150.6922  134.3941  159.5098 H   0  0  0  0  0  0  0  0  0  0  0  0  # atno 6908 bound_to 6896
  152.1673  134.8863  160.0588 H   0  0  0  0  0  0  0  0  0  0  0  0  # atno 6909 bound_to 6896
  145.6277  140.9346  143.1104 H   0  0  0  0  0  0  0  0  0  0  0  0  # atno 7974 bound_to 7965
  155.0049  140.0394  157.2375 H   0  0  0  0  0  0  0  0  0  0  0  0  # atno 8008 bound_to 7997
  154.7511  140.2767  155.6269 H   0  0  0  0  0  0  0  0  0  0  0  0  # atno 8009 bound_to 7997
  156.2885  140.2647  156.2264 H   0  0  0  0  0  0  0  0  0  0  0  0  # atno 8010 bound_to 7997
  140.2555  144.3432  150.6334 H   0  0  0  0  0  0  0  0  0  0  0  0  # atno 10167 bound_to 10162
  156.2235  130.4167  149.8963 H   0  0  0  0  0  0  0  0  0  0  0  0  # atno 10718 bound_to 10713
  154.7218  135.3027  154.9035 H   0  0  0  0  0  0  0  0  0  0  0  0  # atno 10763 bound_to 10752
  153.9904  135.6719  153.4758 H   0  0  0  0  0  0  0  0  0  0  0  0  # atno 10764 bound_to 10752
  153.0841  135.4993  154.8479 H   0  0  0  0  0  0  0  0  0  0  0  0  # atno 10765 bound_to 10752
  140.0600  134.9210  157.1167 H   0  0  0  0  0  0  0  0  0  0  0  0  # atno 11005 bound_to 11000
  144.7206  139.8045  143.7383 LP  0  0  0  0  0  0  0  0  0  0  0  0  # atno 17320 bound_to 7965
  146.1381  139.4431  143.0126 LP  0  0  0  0  0  0  0  0  0  0  0  0  # atno 17321 bound_to 7965
  140.6007  143.2167  151.7077 LP  0  0  0  0  0  0  0  0  0  0  0  0  # atno 17342 bound_to 10162
  139.5033  144.3797  152.0388 LP  0  0  0  0  0  0  0  0  0  0  0  0  # atno 17343 bound_to 10162
  156.6602  130.8779  151.3546 LP  0  0  0  0  0  0  0  0  0  0  0  0  # atno 17370 bound_to 10713
  157.7099  130.9428  150.1054 LP  0  0  0  0  0  0  0  0  0  0  0  0  # atno 17371 bound_to 10713
  140.3785  134.2312  155.7172 LP  0  0  0  0  0  0  0  0  0  0  0  0  # atno 17394 bound_to 11000
  141.1969  133.8072  157.0653 LP  0  0  0  0  0  0  0  0  0  0  0  0  # atno 17395 bound_to 11000

$$$$
