AV-unprocessed.smi:11|AV-procd|sdf|57|dock7
  -GOLD-   2262015173D 1   1.00000     0.00000
 Structure written by MMmdl.
 34 36  0  0  0  0  0  0  0  0  2 V2000
  151.9944  144.5744  157.8740 C   0  0  0  0  0  0  0  0  0  0  0  0
  151.4746  143.2530  157.2839 C   0  0  0  0  0  0  0  0  0  0  0  0
  150.7177  142.3361  158.2769 C   0  0  1  0  0  0  0  0  0  0  0  0
  151.3337  142.4389  159.5455 O   0  0  0  0  0  0  0  0  0  0  0  0
  149.2104  142.6212  158.3656 C   0  0  0  0  0  0  0  0  0  0  0  0
  148.6338  141.8126  157.2050 C   0  0  0  0  0  0  0  0  0  0  0  0
  149.4927  140.6407  157.1091 N   0  0  0  0  0  0  0  0  0  0  0  0
  149.4229  139.7671  156.0053 C   0  0  0  0  0  0  0  0  0  0  0  0
  148.2350  139.6661  155.3479 N   0  0  0  0  0  0  0  0  0  0  0  0
  148.0642  138.8675  154.2848 C   0  0  0  0  0  0  0  0  0  0  0  0
  149.0429  138.1033  153.7907 N   0  3  0  0  0  0  0  0  0  0  0  0
  150.2416  138.1609  154.4240 C   0  0  0  0  0  0  0  0  0  0  0  0
  151.4026  137.4763  154.1313 N   0  0  0  0  0  0  0  0  0  0  0  0
  152.3934  137.8175  155.0356 C   0  0  0  0  0  0  0  0  0  0  0  0
  151.8892  138.7305  155.9278 C   0  0  0  0  0  0  0  0  0  0  0  0
  150.5178  138.9739  155.5538 C   0  0  0  0  0  0  0  0  0  0  0  0
  150.7506  140.8703  157.8072 C   0  0  0  0  0  0  0  0  0  0  0  0
  151.5412  136.8141  153.3811 H   0  0  0  0  0  0  0  0  0  0  0  0
  152.5553  145.1317  157.1237 H   0  0  0  0  0  0  0  0  0  0  0  0
  152.6620  144.4022  158.7183 H   0  0  0  0  0  0  0  0  0  0  0  0
  151.1824  145.2170  158.2120 H   0  0  0  0  0  0  0  0  0  0  0  0
  150.8332  143.4805  156.4317 H   0  0  0  0  0  0  0  0  0  0  0  0
  152.3246  142.7058  156.8737 H   0  0  0  0  0  0  0  0  0  0  0  0
  152.0944  141.8780  159.5575 H   0  0  0  0  0  0  0  0  0  0  0  0
  148.8116  142.2265  159.3018 H   0  0  0  0  0  0  0  0  0  0  0  0
  148.9444  143.6764  158.3210 H   0  0  0  0  0  0  0  0  0  0  0  0
  147.5946  141.5348  157.3831 H   0  0  0  0  0  0  0  0  0  0  0  0
  148.6834  142.3889  156.2802 H   0  0  0  0  0  0  0  0  0  0  0  0
  147.1070  138.8184  153.7865 H   0  0  0  0  0  0  0  0  0  0  0  0
  153.3792  137.3797  154.9728 H   0  0  0  0  0  0  0  0  0  0  0  0
  152.4182  139.1813  156.7541 H   0  0  0  0  0  0  0  0  0  0  0  0
  151.6183  140.6742  157.1761 H   0  0  0  0  0  0  0  0  0  0  0  0
  150.7900  140.1878  158.6573 H   0  0  0  0  0  0  0  0  0  0  0  0
  148.9018  137.4988  152.9813 H   0  0  0  0  0  0  0  0  0  0  0  0
  1  2  1  0  0  0  0
  1 19  1  0  0  0  0
  1 20  1  0  0  0  0
  1 21  1  0  0  0  0
  2  3  1  0  0  0  0
  2 22  1  0  0  0  0
  2 23  1  0  0  0  0
  3 17  1  0  0  0  0
  3  4  1  0  0  0  0
  3  5  1  0  0  0  0
  4 24  1  0  0  0  0
  5  6  1  0  0  0  0
  5 25  1  0  0  0  0
  5 26  1  0  0  0  0
  6  7  1  0  0  0  0
  6 27  1  0  0  0  0
  6 28  1  0  0  0  0
  7  8  1  0  0  0  0
  7 17  1  0  0  0  0
  8 16  1  0  0  0  0
  8  9  2  0  0  0  0
  9 10  1  0  0  0  0
 10 11  2  0  0  0  0
 10 29  1  0  0  0  0
 11 12  1  0  0  0  0
 11 34  1  0  0  0  0
 12 16  2  0  0  0  0
 12 13  1  0  0  0  0
 13 18  1  0  0  0  0
 13 14  1  0  0  0  0
 14 15  2  0  0  0  0
 14 30  1  0  0  0  0
 15 16  1  0  0  0  0
 15 31  1  0  0  0  0
 17 32  1  0  0  0  0
 17 33  1  0  0  0  0
M  CHG  1  11   1
M  END
> <s_m_source_file>
AV-unprocessed.smi

> <i_m_source_file_index>
11

> <i_lp_mmshare_version>
43012

> <i_f3d_flags>
0

> <s_epik_input>
W0NIM11bQ0gyXVtDQEBdMShbT0hdKVtDSDJdW0NIMl1OKFtDSDJdMSljKG5bY0hdbjIpYyhjMjMpW2NIXVtjSF1bbkhdMw==

> <s_epik_cmdline>
J2VwaWtfcHl0aG9uJywgJy1waCcsICc3LjAnLCAnLXRuJywgJzgnLCAnLW1hJywgJzIwMCcsICctbWV0YWxfYmluZGluZycsICctaW1hZScsICc8aW5maWxlLm1hZT4nLCAnLW9tYWUnLCAnPG91dGZpbGUubWFlPic=

> <r_lp_tautomer_probability>
1.75997e-05

> <r_epik_Ionization_Penalty>
1.53257

> <r_epik_Ionization_Penalty_Charging>
1.53255

> <r_epik_Ionization_Penalty_Neutral>
1.78556e-05

> <r_epik_State_Penalty>
1.6253

> <r_epik_Charging_Adjusted_Penalty>
3.15785

> <i_epik_Tot_Q>
1

> <i_epik_Tot_abs_Q>
1

> <r_epik_Metal_State_Penalty>
1.66891

> <b_epik_Metal_Only>
0

> <s_lp_Force_Field>
OPLS_2005

> <r_lp_Energy>
33.1489

> <b_lp_Chiralities_Consistent>
1

> <s_lp_Variant>
AV-unprocessed.smi:11-3

> <Gold.Version>
5.8.1

> <Gold.Id.Protein>
6NUR|6NUR_protein|mol2

> <Gold.PLP.Fitness>
40.7381

> <Gold.PLP.PLP>
-29.7224

> <Gold.PLP.part.hbond>
-3.3845

> <Gold.PLP.part.metal>
0.0000

> <Gold.PLP.part.buried>
-3.1674

> <Gold.PLP.part.nonpolar>
-23.6902

> <Gold.PLP.part.repulsive>
0.2515

> <Gold.PLP.ligand.clash>
0.0000

> <Gold.PLP.ligand.torsion>
0.5866

> <Gold.PLP.Chemscore.Hbond>
3.9840

> <Gold.PLP.Chemscore.CHOScore>
0.0000

> <Gold.PLP.Chemscore.Metal>
0.0000

> <Gold.Chemscore.Hbonds>
donor molecule, donor type, donor heavy atom, donor atom, acceptor molecule, acceptor atom, score
      L1  H    11    34       P1  7948  2.00
      L1  H    13    18       P1  7949  1.69

> <Gold.PLP.Chemscore.Internal.Correction>
0.2371

> <Gold.Rescore>
     Score         DG    S(hbond)    S(metal)    S(lipo)     H(rot)  DE(clash)    DE(int)     intcor
     14.63     -15.74       1.91        0.00      64.80       1.44       0.52       0.60       ----

> <Gold.Chemscore.Fitness>
14.6301

> <Gold.Chemscore.DG>
-15.7425

> <Gold.Chemscore.ZeroCoef>
-5.4800

> <Gold.Chemscore.Hbond>
1.9059

> <Gold.Chemscore.Metal>
0.0000

> <Gold.Chemscore.Lipo>
64.7965

> <Gold.Chemscore.Internal_Hbond>
0.0000

> <Gold.Chemscore.DEClash>
0.5153

> <Gold.Chemscore.DEInternal>
0.5971

> <Gold.Chemscore.Rot>
1.4392

> <Gold.Chemscore.Internal.Correction>
   9.000000E+99

> <Gold.Chemscore.Hbonds>
donor molecule, donor type, donor heavy atom, donor atom, acceptor molecule, acceptor atom, score
      L1  H    11    34       P1  7948  1.00
      L1  H    13    18       P1  7949  0.73

> <Gold.Chemscore.Hbond.Weighted>
-6.3657

> <Gold.Chemscore.Metal.Weighted>
-0.0000

> <Gold.Chemscore.Lipo.Weighted>
-7.5812

> <Gold.Chemscore.Internal_Hbond.Weighted>
0.0000

> <Gold.Chemscore.DEClash.Weighted>
0.5153

> <Gold.Chemscore.DEInternal.Weighted>
0.5971

> <Gold.Chemscore.Rot.Weighted>
3.6844

> <Gold.Chemscore.Internal.Correction.Weighted>
   9.000000E+99

> <Gold.Protein.RotatedTorsions>
[ 6907 6896 6895 6894 ] final  -17.21 input  -60.11 | X-H torsion
[ 7974 7965 7964 7962 ] final  -76.15 input  175.53 | X-H torsion
[ 8008 7997 7996 7995 ] final   49.85 input   59.86 | X-H torsion
[ 10167 10162 10161 10158 ] final   94.71 input  -65.29 | X-H torsion
[ 10718 10713 10712 10709 ] final    6.41 input   66.30 | X-H torsion
[ 10763 10752 10751 10750 ] final   19.63 input  -60.55 | X-H torsion
[ 11005 11000 10999 10996 ] final -156.58 input  -57.11 | X-H torsion

> <Gold.Protein.ActiveResidues>
 VAL166  LYS551  ARG553  GLY616  TRP617  ASP618  TYR619  PRO620  LYS621  CYS622 
 ASP623  PHE694  ASN695  SER759  ASP760  ASP761  ALA762  ILE779  LEU786  VAL792 
 PHE793  MET794  SER795  GLU796  ALA797  LYS798  CYS799  TRP800  GLU811  SER814 

> <Gold.Protein.RotatedAtoms>
  151.2969  135.0757  159.9224 H   0  0  0  0  0  0  0  0  0  0  0  0  # atno 6907 bound_to 6896
  152.5305  133.9874  159.7845 H   0  0  0  0  0  0  0  0  0  0  0  0  # atno 6908 bound_to 6896
  151.0154  133.5875  159.2708 H   0  0  0  0  0  0  0  0  0  0  0  0  # atno 6909 bound_to 6896
  145.6166  140.9373  143.1161 H   0  0  0  0  0  0  0  0  0  0  0  0  # atno 7974 bound_to 7965
  155.4091  140.3441  155.4262 H   0  0  0  0  0  0  0  0  0  0  0  0  # atno 8008 bound_to 7997
  156.1459  140.1556  156.8879 H   0  0  0  0  0  0  0  0  0  0  0  0  # atno 8009 bound_to 7997
  154.5010  140.0814  156.7779 H   0  0  0  0  0  0  0  0  0  0  0  0  # atno 8010 bound_to 7997
  139.8057  144.6795  150.9706 H   0  0  0  0  0  0  0  0  0  0  0  0  # atno 10167 bound_to 10162
  156.9218  130.5793  149.5648 H   0  0  0  0  0  0  0  0  0  0  0  0  # atno 10718 bound_to 10713
  153.1145  135.6704  153.9442 H   0  0  0  0  0  0  0  0  0  0  0  0  # atno 10763 bound_to 10752
  153.8975  135.3040  155.3449 H   0  0  0  0  0  0  0  0  0  0  0  0  # atno 10764 bound_to 10752
  154.7563  135.5010  153.9458 H   0  0  0  0  0  0  0  0  0  0  0  0  # atno 10765 bound_to 10752
  140.6740  134.4217  157.5230 H   0  0  0  0  0  0  0  0  0  0  0  0  # atno 11005 bound_to 11000
  144.7248  139.7911  143.7369 LP  0  0  0  0  0  0  0  0  0  0  0  0  # atno 17320 bound_to 7965
  146.1463  139.4534  143.0077 LP  0  0  0  0  0  0  0  0  0  0  0  0  # atno 17321 bound_to 7965
  140.7819  143.4236  151.0803 LP  0  0  0  0  0  0  0  0  0  0  0  0  # atno 17342 bound_to 10162
  139.7905  143.8225  152.3151 LP  0  0  0  0  0  0  0  0  0  0  0  0  # atno 17343 bound_to 10162
  156.0488  130.5560  150.8941 LP  0  0  0  0  0  0  0  0  0  0  0  0  # atno 17370 bound_to 10713
  157.5903  131.0944  150.9129 LP  0  0  0  0  0  0  0  0  0  0  0  0  # atno 17371 bound_to 10713
  139.8972  134.8641  156.2052 LP  0  0  0  0  0  0  0  0  0  0  0  0  # atno 17394 bound_to 11000
  141.0370  133.6958  156.1530 LP  0  0  0  0  0  0  0  0  0  0  0  0  # atno 17395 bound_to 11000

$$$$
