AV-unprocessed.smi:62|AV-procd|sdf|606|dock1
  -GOLD-   2262016503D 1   1.00000     0.00000
 Structure written by MMmdl.
 30 31  0  0  0  0  0  0  0  0  2 V2000
  151.6944  144.6435  159.1727 C   0  0  0  0  0  0  0  0  0  0  0  0
  152.1842  143.2959  158.9778 N   0  0  0  0  0  0  0  0  0  0  0  0
  151.5232  142.2061  158.4598 C   0  0  0  0  0  0  0  0  0  0  0  0
  152.3868  141.1460  158.4647 C   0  0  0  0  0  0  0  0  0  0  0  0
  152.0798  139.7526  157.9687 C   0  0  0  0  0  0  0  0  0  0  0  0
  151.7757  139.7196  156.5414 N   0  0  0  0  0  0  0  0  0  0  0  0
  150.3574  139.7953  156.2332 C   0  0  0  0  0  0  0  0  0  0  0  0
  150.1927  139.2564  154.8054 C   0  0  0  0  0  0  0  0  0  0  0  0
  151.5118  138.5155  154.5307 C   0  0  2  0  0  0  0  0  0  0  0  0
  151.3134  137.2119  154.0248 O   0  0  0  0  0  0  0  0  0  0  0  0
  152.2081  138.5002  155.8924 C   0  0  0  0  0  0  0  0  0  0  0  0
  153.5848  141.7061  159.0263 C   0  0  0  0  0  0  0  0  0  0  0  0
  154.8368  140.8964  159.2408 C   0  0  0  0  0  0  0  0  0  0  0  0
  155.0429  139.8645  158.5653 O   0  0  0  0  0  0  0  0  0  0  0  0
  155.6430  141.2900  160.1129 O   0  5  0  0  0  0  0  0  0  0  0  0
  153.4487  142.9924  159.3240 N   0  0  0  0  0  0  0  0  0  0  0  0
  150.6275  144.6893  158.9523 H   0  0  0  0  0  0  0  0  0  0  0  0
  152.2245  145.3267  158.5085 H   0  0  0  0  0  0  0  0  0  0  0  0
  151.8556  144.9505  160.2066 H   0  0  0  0  0  0  0  0  0  0  0  0
  150.4984  142.2721  158.1261 H   0  0  0  0  0  0  0  0  0  0  0  0
  152.9191  139.0872  158.1716 H   0  0  0  0  0  0  0  0  0  0  0  0
  151.2441  139.3260  158.5253 H   0  0  0  0  0  0  0  0  0  0  0  0
  149.7928  139.1624  156.9198 H   0  0  0  0  0  0  0  0  0  0  0  0
  149.9801  140.8132  156.3363 H   0  0  0  0  0  0  0  0  0  0  0  0
  149.3214  138.6035  154.7390 H   0  0  0  0  0  0  0  0  0  0  0  0
  150.0561  140.0691  154.0912 H   0  0  0  0  0  0  0  0  0  0  0  0
  152.1106  139.0878  153.8208 H   0  0  0  0  0  0  0  0  0  0  0  0
  150.8652  137.2782  153.1956 H   0  0  0  0  0  0  0  0  0  0  0  0
  153.2941  138.4536  155.8044 H   0  0  0  0  0  0  0  0  0  0  0  0
  151.8802  137.6353  156.4721 H   0  0  0  0  0  0  0  0  0  0  0  0
  1  2  1  0  0  0  0
  1 17  1  0  0  0  0
  1 18  1  0  0  0  0
  1 19  1  0  0  0  0
  2 16  1  0  0  0  0
  2  3  1  0  0  0  0
  3  4  2  0  0  0  0
  3 20  1  0  0  0  0
  4  5  1  0  0  0  0
  4 12  1  0  0  0  0
  5  6  1  0  0  0  0
  5 21  1  0  0  0  0
  5 22  1  0  0  0  0
  6 11  1  0  0  0  0
  6  7  1  0  0  0  0
  7  8  1  0  0  0  0
  7 23  1  0  0  0  0
  7 24  1  0  0  0  0
  8  9  1  0  0  0  0
  8 25  1  0  0  0  0
  8 26  1  0  0  0  0
  9 10  1  0  0  0  0
  9 11  1  0  0  0  0
  9 27  1  0  0  0  0
 10 28  1  0  0  0  0
 11 29  1  0  0  0  0
 11 30  1  0  0  0  0
 12 13  1  0  0  0  0
 12 16  2  0  0  0  0
 13 14  2  0  0  0  0
 13 15  1  0  0  0  0
M  CHG  1  15  -1
M  END
> <s_m_source_file>
AV-unprocessed.smi

> <i_m_source_file_index>
62

> <i_lp_mmshare_version>
43012

> <i_f3d_flags>
0

> <s_epik_input>
W0NIM11uMVtjSF1jKGMobjEpQyg9TylbT0hdKVtDSDJdTjJbQ0gyXVtDSDJdW0NAQEhdKFtPSF0pW0NIMl0y

> <s_epik_cmdline>
J2VwaWtfcHl0aG9uJywgJy1waCcsICc3LjAnLCAnLXRuJywgJzgnLCAnLW1hJywgJzIwMCcsICctbWV0YWxfYmluZGluZycsICctaW1hZScsICc8aW5maWxlLm1hZT4nLCAnLW9tYWUnLCAnPG91dGZpbGUubWFlPic=

> <r_epik_Ionization_Penalty>
1.46526

> <r_epik_Ionization_Penalty_Charging>
0.000523675

> <r_epik_Ionization_Penalty_Neutral>
1.46474

> <r_epik_State_Penalty>
1.55202

> <r_epik_Charging_Adjusted_Penalty>
1.55254

> <i_epik_Tot_Q>
-1

> <i_epik_Tot_abs_Q>
1

> <r_epik_Metal_State_Penalty>
1.552

> <b_epik_Metal_Only>
0

> <s_lp_Force_Field>
OPLS_2005

> <r_lp_Energy>
37.4103

> <b_lp_Chiralities_Consistent>
1

> <s_lp_Variant>
AV-unprocessed.smi:62-6

> <Gold.Version>
5.8.1

> <Gold.Id.Protein>
6NUR|6NUR_protein|mol2

> <Gold.PLP.Fitness>
44.7720

> <Gold.PLP.PLP>
-34.7381

> <Gold.PLP.part.hbond>
-4.0000

> <Gold.PLP.part.metal>
0.0000

> <Gold.PLP.part.buried>
-4.8825

> <Gold.PLP.part.nonpolar>
-25.7219

> <Gold.PLP.part.repulsive>
0.0000

> <Gold.PLP.ligand.clash>
0.0000

> <Gold.PLP.ligand.torsion>
0.6976

> <Gold.PLP.Chemscore.Hbond>
3.8050

> <Gold.PLP.Chemscore.CHOScore>
0.0000

> <Gold.PLP.Chemscore.Metal>
0.0000

> <Gold.Chemscore.Hbonds>
donor molecule, donor type, donor heavy atom, donor atom, acceptor molecule, acceptor atom, score
      L1  H    10    28       P1  7949  0.32
      P1  H  7997  8010       L1    14  0.68
      P1  H 10752 10765       L1    10  0.31

> <Gold.PLP.Chemscore.Internal.Correction>
0.0140

> <Gold.Rescore>
     Score         DG    S(hbond)    S(metal)    S(lipo)     H(rot)  DE(clash)    DE(int)     intcor
     16.65     -17.77       2.62        0.00      68.77       1.77       0.11       1.00       ----

> <Gold.Chemscore.Fitness>
16.6530

> <Gold.Chemscore.DG>
-17.7659

> <Gold.Chemscore.ZeroCoef>
-5.4800

> <Gold.Chemscore.Hbond>
2.6240

> <Gold.Chemscore.Metal>
0.0000

> <Gold.Chemscore.Lipo>
68.7713

> <Gold.Chemscore.Internal_Hbond>
0.0000

> <Gold.Chemscore.DEClash>
0.1111

> <Gold.Chemscore.DEInternal>
1.0018

> <Gold.Chemscore.Rot>
1.7674

> <Gold.Chemscore.Internal.Correction>
   9.000000E+99

> <Gold.Chemscore.Hbonds>
donor molecule, donor type, donor heavy atom, donor atom, acceptor molecule, acceptor atom, score
      L1  H    10    28       P1  7949  0.06
      P1  H  7997  8010       L1    14  0.31
      P1  H 10752 10765       L1    10  0.24

> <Gold.Chemscore.Hbond.Weighted>
-8.7641

> <Gold.Chemscore.Metal.Weighted>
-0.0000

> <Gold.Chemscore.Lipo.Weighted>
-8.0462

> <Gold.Chemscore.Internal_Hbond.Weighted>
0.0000

> <Gold.Chemscore.DEClash.Weighted>
0.1111

> <Gold.Chemscore.DEInternal.Weighted>
1.0018

> <Gold.Chemscore.Rot.Weighted>
4.5245

> <Gold.Chemscore.Internal.Correction.Weighted>
   9.000000E+99

> <Gold.Protein.RotatedTorsions>
[ 6907 6896 6895 6894 ] final  -17.05 input  -60.11 | X-H torsion
[ 7974 7965 7964 7962 ] final  -25.44 input  175.53 | X-H torsion
[ 8008 7997 7996 7995 ] final  -18.72 input   59.86 | X-H torsion
[ 10167 10162 10161 10158 ] final  -12.49 input  -65.29 | X-H torsion
[ 10718 10713 10712 10709 ] final   65.50 input   66.30 | X-H torsion
[ 10763 10752 10751 10750 ] final  138.41 input  -60.55 | X-H torsion
[ 11005 11000 10999 10996 ] final  -46.69 input  -57.11 | X-H torsion

> <Gold.Protein.ActiveResidues>
 VAL166  LYS551  ARG553  GLY616  TRP617  ASP618  TYR619  PRO620  LYS621  CYS622 
 ASP623  PHE694  ASN695  SER759  ASP760  ASP761  ALA762  ILE779  LEU786  VAL792 
 PHE793  MET794  SER795  GLU796  ALA797  LYS798  CYS799  TRP800  GLU811  SER814 

> <Gold.Protein.RotatedAtoms>
  151.2992  135.0764  159.9232 H   0  0  0  0  0  0  0  0  0  0  0  0  # atno 6907 bound_to 6896
  152.5301  133.9851  159.7835 H   0  0  0  0  0  0  0  0  0  0  0  0  # atno 6908 bound_to 6896
  151.0134  133.5892  159.2710 H   0  0  0  0  0  0  0  0  0  0  0  0  # atno 6909 bound_to 6896
  146.1491  140.4887  142.8619 H   0  0  0  0  0  0  0  0  0  0  0  0  # atno 7974 bound_to 7965
  154.4886  140.2108  155.9598 H   0  0  0  0  0  0  0  0  0  0  0  0  # atno 8008 bound_to 7997
  156.1273  140.3203  155.8265 H   0  0  0  0  0  0  0  0  0  0  0  0  # atno 8009 bound_to 7997
  155.4360  140.0507  157.3005 H   0  0  0  0  0  0  0  0  0  0  0  0  # atno 8010 bound_to 7997
  140.7162  143.5526  150.9284 H   0  0  0  0  0  0  0  0  0  0  0  0  # atno 10167 bound_to 10162
  157.6109  130.9217  149.9985 H   0  0  0  0  0  0  0  0  0  0  0  0  # atno 10718 bound_to 10713
  153.8891  135.3035  155.3447 H   0  0  0  0  0  0  0  0  0  0  0  0  # atno 10763 bound_to 10752
  154.7725  135.4878  153.9681 H   0  0  0  0  0  0  0  0  0  0  0  0  # atno 10764 bound_to 10752
  153.1308  135.6803  153.9280 H   0  0  0  0  0  0  0  0  0  0  0  0  # atno 10765 bound_to 10752
  141.0594  133.6714  156.3190 H   0  0  0  0  0  0  0  0  0  0  0  0  # atno 11005 bound_to 11000
  144.7882  140.5978  143.6560 LP  0  0  0  0  0  0  0  0  0  0  0  0  # atno 17320 bound_to 7965
  145.4867  139.1491  143.3732 LP  0  0  0  0  0  0  0  0  0  0  0  0  # atno 17321 bound_to 7965
  139.9251  143.6560  152.3088 LP  0  0  0  0  0  0  0  0  0  0  0  0  # atno 17342 bound_to 10162
  139.6990  144.7637  151.1305 LP  0  0  0  0  0  0  0  0  0  0  0  0  # atno 17343 bound_to 10162
  156.1212  130.3646  149.9884 LP  0  0  0  0  0  0  0  0  0  0  0  0  # atno 17370 bound_to 10713
  156.7964  130.9274  151.3646 LP  0  0  0  0  0  0  0  0  0  0  0  0  # atno 17371 bound_to 10713
  140.5898  134.5661  157.5497 LP  0  0  0  0  0  0  0  0  0  0  0  0  # atno 17394 bound_to 11000
  139.9419  134.7771  156.0657 LP  0  0  0  0  0  0  0  0  0  0  0  0  # atno 17395 bound_to 11000

$$$$
