AV-unprocessed.smi:2147|AV-procd|sdf|8744|dock4
  -GOLD-   2272011523D 1   1.00000     0.00000
 Structure written by MMmdl.
 42 44  0  0  0  0  0  0  0  0  2 V2000
  147.4717  131.7345  155.6033 C   0  0  0  0  0  0  0  0  0  0  0  0
  147.1910  133.2363  155.6005 C   0  0  0  0  0  0  0  0  0  0  0  0
  146.0276  133.6204  155.7181 O   0  0  0  0  0  0  0  0  0  0  0  0
  148.3517  134.1604  155.4549 C   0  0  0  0  0  0  0  0  0  0  0  0
  149.6835  133.6861  155.4253 C   0  0  0  0  0  0  0  0  0  0  0  0
  150.7581  134.5849  155.2844 C   0  0  0  0  0  0  0  0  0  0  0  0
  150.5339  135.9707  155.1692 C   0  0  0  0  0  0  0  0  0  0  0  0
  151.6441  136.7761  155.0322 O   0  0  0  0  0  0  0  0  0  0  0  0
  151.4878  138.0343  154.3892 C   0  0  0  0  0  0  0  0  0  0  0  0
  152.4290  139.0517  155.0509 C   0  0  2  0  0  0  0  0  0  0  0  0
  153.7482  138.5475  154.9853 O   0  0  0  0  0  0  0  0  0  0  0  0
  152.0420  139.3417  156.5153 C   0  0  0  0  0  0  0  0  0  0  0  0
  151.5217  140.7022  156.7120 N   0  0  0  0  0  0  0  0  0  0  0  0
  150.6433  141.4127  155.9536 C   0  0  0  0  0  0  0  0  0  0  0  0
  150.4692  142.6241  156.5510 N   0  3  0  0  0  0  0  0  0  0  0  0
  151.2488  142.6903  157.7076 C   0  0  0  0  0  0  0  0  0  0  0  0
  151.4066  143.7090  158.6423 C   0  0  0  0  0  0  0  0  0  0  0  0
  152.2881  143.4543  159.7133 C   0  0  0  0  0  0  0  0  0  0  0  0
  152.9724  142.2266  159.8253 C   0  0  0  0  0  0  0  0  0  0  0  0
  152.8033  141.2002  158.8728 C   0  0  0  0  0  0  0  0  0  0  0  0
  151.9293  141.4589  157.8171 C   0  0  0  0  0  0  0  0  0  0  0  0
  149.2006  136.4476  155.2004 C   0  0  0  0  0  0  0  0  0  0  0  0
  148.1243  135.5503  155.3410 C   0  0  0  0  0  0  0  0  0  0  0  0
  147.9345  131.4303  154.6644 H   0  0  0  0  0  0  0  0  0  0  0  0
  146.5452  131.1730  155.7241 H   0  0  0  0  0  0  0  0  0  0  0  0
  148.1382  131.4724  156.4251 H   0  0  0  0  0  0  0  0  0  0  0  0
  149.9067  132.6331  155.5086 H   0  0  0  0  0  0  0  0  0  0  0  0
  151.7686  134.2039  155.2632 H   0  0  0  0  0  0  0  0  0  0  0  0
  151.7117  137.9570  153.3237 H   0  0  0  0  0  0  0  0  0  0  0  0
  150.4533  138.3660  154.4950 H   0  0  0  0  0  0  0  0  0  0  0  0
  152.4069  139.9804  154.4793 H   0  0  0  0  0  0  0  0  0  0  0  0
  153.8587  137.9053  155.6701 H   0  0  0  0  0  0  0  0  0  0  0  0
  151.2580  138.6539  156.8346 H   0  0  0  0  0  0  0  0  0  0  0  0
  152.8826  139.1763  157.1896 H   0  0  0  0  0  0  0  0  0  0  0  0
  150.1687  141.0751  155.0435 H   0  0  0  0  0  0  0  0  0  0  0  0
  150.8845  144.6508  158.5585 H   0  0  0  0  0  0  0  0  0  0  0  0
  152.4439  144.2165  160.4631 H   0  0  0  0  0  0  0  0  0  0  0  0
  153.6424  142.0684  160.6580 H   0  0  0  0  0  0  0  0  0  0  0  0
  153.3371  140.2660  158.9653 H   0  0  0  0  0  0  0  0  0  0  0  0
  148.9742  137.4996  155.1183 H   0  0  0  0  0  0  0  0  0  0  0  0
  147.1189  135.9459  155.3601 H   0  0  0  0  0  0  0  0  0  0  0  0
  149.8623  143.3507  156.1934 H   0  0  0  0  0  0  0  0  0  0  0  0
  1  2  1  0  0  0  0
  1 24  1  0  0  0  0
  1 25  1  0  0  0  0
  1 26  1  0  0  0  0
  2  3  2  0  0  0  0
  2  4  1  0  0  0  0
  4 23  1  0  0  0  0
  4  5  2  0  0  0  0
  5  6  1  0  0  0  0
  5 27  1  0  0  0  0
  6  7  2  0  0  0  0
  6 28  1  0  0  0  0
  7  8  1  0  0  0  0
  7 22  1  0  0  0  0
  8  9  1  0  0  0  0
  9 10  1  0  0  0  0
  9 29  1  0  0  0  0
  9 30  1  0  0  0  0
 10 11  1  0  0  0  0
 10 12  1  0  0  0  0
 10 31  1  0  0  0  0
 11 32  1  0  0  0  0
 12 13  1  0  0  0  0
 12 33  1  0  0  0  0
 12 34  1  0  0  0  0
 13 21  1  0  0  0  0
 13 14  1  0  0  0  0
 14 15  2  0  0  0  0
 14 35  1  0  0  0  0
 15 16  1  0  0  0  0
 15 42  1  0  0  0  0
 16 21  2  0  0  0  0
 16 17  1  0  0  0  0
 17 18  2  0  0  0  0
 17 36  1  0  0  0  0
 18 19  1  0  0  0  0
 18 37  1  0  0  0  0
 19 20  2  0  0  0  0
 19 38  1  0  0  0  0
 20 21  1  0  0  0  0
 20 39  1  0  0  0  0
 22 23  2  0  0  0  0
 22 40  1  0  0  0  0
 23 41  1  0  0  0  0
M  CHG  1  15   1
M  END
> <s_m_source_file>
AV-unprocessed.smi

> <i_m_source_file_index>
2147

> <i_lp_mmshare_version>
43012

> <i_f3d_flags>
0

> <s_epik_input>
W0NIM11DKD1PKWMxW2NIXVtjSF1jKFtjSF1bY0hdMSlPW0NIMl1bQ0BIXShbT0hdKVtDSDJdbihbY0hdbjIpYyhjMjMpW2NIXVtjSF1bY0hdW2NIXTM=

> <s_epik_cmdline>
J2VwaWtfcHl0aG9uJywgJy1waCcsICc3LjAnLCAnLXRuJywgJzgnLCAnLW1hJywgJzIwMCcsICctbWV0YWxfYmluZGluZycsICctaW1hZScsICc8aW5maWxlLm1hZT4nLCAnLW9tYWUnLCAnPG91dGZpbGUubWFlPic=

> <r_lp_tautomer_probability>
0.99995

> <r_epik_Ionization_Penalty>
1.40272

> <r_epik_Ionization_Penalty_Charging>
1.40272

> <r_epik_Ionization_Penalty_Neutral>
2.3993e-06

> <r_epik_State_Penalty>
1.48501

> <r_epik_Charging_Adjusted_Penalty>
2.88772

> <i_epik_Tot_Q>
1

> <i_epik_Tot_abs_Q>
1

> <r_epik_Metal_State_Penalty>
5.5274

> <b_epik_Metal_Only>
0

> <s_lp_Force_Field>
OPLS_2005

> <r_lp_Energy>
26.2273

> <b_lp_Chiralities_Consistent>
1

> <s_lp_Variant>
AV-unprocessed.smi:2147-3

> <Gold.Version>
5.8.1

> <Gold.Id.Protein>
6NUR|6NUR_protein|mol2

> <Gold.PLP.Fitness>
50.2048

> <Gold.PLP.PLP>
-42.3422

> <Gold.PLP.part.hbond>
-3.0000

> <Gold.PLP.part.metal>
0.0000

> <Gold.PLP.part.buried>
-6.8599

> <Gold.PLP.part.nonpolar>
-32.0417

> <Gold.PLP.part.repulsive>
0.2454

> <Gold.PLP.ligand.clash>
0.0000

> <Gold.PLP.ligand.torsion>
1.5482

> <Gold.PLP.Chemscore.Hbond>
3.6016

> <Gold.PLP.Chemscore.CHOScore>
0.0000

> <Gold.PLP.Chemscore.Metal>
0.0000

> <Gold.Chemscore.Hbonds>
donor molecule, donor type, donor heavy atom, donor atom, acceptor molecule, acceptor atom, score
      L1  H    15    42       P1  8028  2.00
      P1  H  7997  8009       L1    11  0.61
      P1  H 10752 10765       L1     8  1.00

> <Gold.PLP.Chemscore.Internal.Correction>
0.1541

> <Gold.Rescore>
     Score         DG    S(hbond)    S(metal)    S(lipo)     H(rot)  DE(clash)    DE(int)     intcor
     16.19     -17.78       1.78        0.00     108.68       2.48       0.14       1.45       ----

> <Gold.Chemscore.Fitness>
16.1854

> <Gold.Chemscore.DG>
-17.7773

> <Gold.Chemscore.ZeroCoef>
-5.4800

> <Gold.Chemscore.Hbond>
1.7787

> <Gold.Chemscore.Metal>
0.0000

> <Gold.Chemscore.Lipo>
108.6817

> <Gold.Chemscore.Internal_Hbond>
0.0000

> <Gold.Chemscore.DEClash>
0.1402

> <Gold.Chemscore.DEInternal>
1.4517

> <Gold.Chemscore.Rot>
2.4842

> <Gold.Chemscore.Internal.Correction>
   9.000000E+99

> <Gold.Chemscore.Hbonds>
donor molecule, donor type, donor heavy atom, donor atom, acceptor molecule, acceptor atom, score
      L1  H    15    42       P1  8028  1.00
      P1  H  7997  8009       L1    11  0.04
      P1  H 10752 10765       L1     8  0.45

> <Gold.Chemscore.Hbond.Weighted>
-5.9410

> <Gold.Chemscore.Metal.Weighted>
-0.0000

> <Gold.Chemscore.Lipo.Weighted>
-12.7158

> <Gold.Chemscore.Internal_Hbond.Weighted>
0.0000

> <Gold.Chemscore.DEClash.Weighted>
0.1402

> <Gold.Chemscore.DEInternal.Weighted>
1.4517

> <Gold.Chemscore.Rot.Weighted>
6.3594

> <Gold.Chemscore.Internal.Correction.Weighted>
   9.000000E+99

> <Gold.Protein.RotatedTorsions>
[ 6907 6896 6895 6894 ] final  -51.56 input  -60.11 | X-H torsion
[ 7974 7965 7964 7962 ] final  167.50 input  175.53 | X-H torsion
[ 8008 7997 7996 7995 ] final -118.06 input   59.86 | X-H torsion
[ 10167 10162 10161 10158 ] final   75.11 input  -65.29 | X-H torsion
[ 10718 10713 10712 10709 ] final -164.08 input   66.30 | X-H torsion
[ 10763 10752 10751 10750 ] final  163.36 input  -60.55 | X-H torsion
[ 11005 11000 10999 10996 ] final  108.04 input  -57.11 | X-H torsion

> <Gold.Protein.ActiveResidues>
 VAL166  LYS551  ARG553  GLY616  TRP617  ASP618  TYR619  PRO620  LYS621  CYS622 
 ASP623  PHE694  ASN695  SER759  ASP760  ASP761  ALA762  ILE779  LEU786  VAL792 
 PHE793  MET794  SER795  GLU796  ALA797  LYS798  CYS799  TRP800  GLU811  SER814 

> <Gold.Protein.RotatedAtoms>
  150.8600  134.7949  159.7074 H   0  0  0  0  0  0  0  0  0  0  0  0  # atno 6907 bound_to 6896
  152.4640  134.5116  159.9765 H   0  0  0  0  0  0  0  0  0  0  0  0  # atno 6908 bound_to 6896
  151.5221  133.3426  159.2939 H   0  0  0  0  0  0  0  0  0  0  0  0  # atno 6909 bound_to 6896
  144.7422  139.8770  143.6393 H   0  0  0  0  0  0  0  0  0  0  0  0  # atno 7974 bound_to 7965
  155.0936  140.0395  157.2676 H   0  0  0  0  0  0  0  0  0  0  0  0  # atno 8008 bound_to 7997
  154.6813  140.2633  155.6881 H   0  0  0  0  0  0  0  0  0  0  0  0  # atno 8009 bound_to 7997
  156.2695  140.2778  156.1358 H   0  0  0  0  0  0  0  0  0  0  0  0  # atno 8010 bound_to 7997
  140.0065  144.5647  150.7694 H   0  0  0  0  0  0  0  0  0  0  0  0  # atno 10167 bound_to 10162
  156.6339  130.8941  151.2983 H   0  0  0  0  0  0  0  0  0  0  0  0  # atno 10718 bound_to 10713
  154.2925  135.2760  155.2648 H   0  0  0  0  0  0  0  0  0  0  0  0  # atno 10763 bound_to 10752
  154.5121  135.5779  153.6616 H   0  0  0  0  0  0  0  0  0  0  0  0  # atno 10764 bound_to 10752
  152.9912  135.6183  154.3090 H   0  0  0  0  0  0  0  0  0  0  0  0  # atno 10765 bound_to 10752
  139.8837  134.9419  156.5912 H   0  0  0  0  0  0  0  0  0  0  0  0  # atno 11005 bound_to 11000
  146.1239  139.4262  143.0211 LP  0  0  0  0  0  0  0  0  0  0  0  0  # atno 17320 bound_to 7965
  145.7264  141.0057  143.1375 LP  0  0  0  0  0  0  0  0  0  0  0  0  # atno 17321 bound_to 7965
  140.7398  143.2797  151.3636 LP  0  0  0  0  0  0  0  0  0  0  0  0  # atno 17342 bound_to 10162
  139.6235  144.0860  152.2413 LP  0  0  0  0  0  0  0  0  0  0  0  0  # atno 17343 bound_to 10162
  157.7191  130.9536  150.1370 LP  0  0  0  0  0  0  0  0  0  0  0  0  # atno 17370 bound_to 10713
  156.2213  130.3674  149.8553 LP  0  0  0  0  0  0  0  0  0  0  0  0  # atno 17371 bound_to 10713
  140.7954  133.8548  155.8681 LP  0  0  0  0  0  0  0  0  0  0  0  0  # atno 17394 bound_to 11000
  140.9640  134.1618  157.4631 LP  0  0  0  0  0  0  0  0  0  0  0  0  # atno 17395 bound_to 11000

$$$$
