AV-unprocessed.smi:3298|AV-procd|sdf|12640|dock2
  -GOLD-   2272018573D 1   1.00000     0.00000
 Structure written by MMmdl.
 35 36  0  0  0  0  0  0  0  0  1 V2000
  151.9448  139.9783  155.5508 C   0  0  0  0  0  0  0  0  0  0  0  0
  150.5268  140.0998  155.0331 C   0  0  0  0  0  0  0  0  0  0  0  0
  149.9080  139.0222  154.3655 C   0  0  0  0  0  0  0  0  0  0  0  0
  148.5880  139.1805  153.8949 C   0  0  0  0  0  0  0  0  0  0  0  0
  147.9857  138.0739  153.2372 N   0  0  0  0  0  0  0  0  0  0  0  0
  146.6888  137.7215  153.1951 C   0  0  0  0  0  0  0  0  0  0  0  0
  145.7638  138.3304  153.7323 O   0  0  0  0  0  0  0  0  0  0  0  0
  146.5129  136.6126  152.4625 N   0  0  0  0  0  0  0  0  0  0  0  0
  145.2234  135.9838  152.1997 C   0  0  2  0  0  0  0  0  0  0  0  0
  144.9877  134.8461  153.1549 C   0  0  0  0  0  0  0  0  0  0  0  0
  144.7380  133.6962  152.5332 C   0  0  0  0  0  0  0  0  0  0  0  0
  144.7620  133.8253  151.0313 C   0  0  2  0  0  0  0  0  0  0  0  0
  145.7269  132.8323  150.3603 C   0  0  0  0  0  0  0  0  0  0  0  0
  146.9879  132.8576  150.9957 O   0  0  0  0  0  0  0  0  0  0  0  0
  145.1577  135.3069  150.8049 C   0  0  0  0  0  0  0  0  0  0  0  0
  147.9368  140.4135  154.1396 C   0  0  0  0  0  0  0  0  0  0  0  0
  148.6439  141.4257  154.8187 C   0  0  0  0  0  0  0  0  0  0  0  0
  149.9122  141.2812  155.2573 N   0  0  0  0  0  0  0  0  0  0  0  0
  144.4160  136.7079  152.3212 H   0  0  0  0  0  0  0  0  0  0  0  0
  143.7483  133.6591  150.6639 H   0  0  0  0  0  0  0  0  0  0  0  0
  152.4768  139.1700  155.0484 H   0  0  0  0  0  0  0  0  0  0  0  0
  151.9381  139.7713  156.6210 H   0  0  0  0  0  0  0  0  0  0  0  0
  152.4990  140.9023  155.3821 H   0  0  0  0  0  0  0  0  0  0  0  0
  150.4392  138.0939  154.2134 H   0  0  0  0  0  0  0  0  0  0  0  0
  148.6133  137.5109  152.6821 H   0  0  0  0  0  0  0  0  0  0  0  0
  147.3250  136.1764  152.0511 H   0  0  0  0  0  0  0  0  0  0  0  0
  145.0084  134.9798  154.2266 H   0  0  0  0  0  0  0  0  0  0  0  0
  144.5274  132.7582  153.0257 H   0  0  0  0  0  0  0  0  0  0  0  0
  145.3295  131.8188  150.4225 H   0  0  0  0  0  0  0  0  0  0  0  0
  145.8530  133.0662  149.3025 H   0  0  0  0  0  0  0  0  0  0  0  0
  147.4950  132.1219  150.6879 H   0  0  0  0  0  0  0  0  0  0  0  0
  144.4318  135.8100  150.1648 H   0  0  0  0  0  0  0  0  0  0  0  0
  146.1194  135.3722  150.2931 H   0  0  0  0  0  0  0  0  0  0  0  0
  146.9184  140.5997  153.8364 H   0  0  0  0  0  0  0  0  0  0  0  0
  148.1742  142.3769  155.0205 H   0  0  0  0  0  0  0  0  0  0  0  0
  1  2  1  0  0  0  0
  1 21  1  0  0  0  0
  1 22  1  0  0  0  0
  1 23  1  0  0  0  0
  2 18  1  0  0  0  0
  2  3  2  0  0  0  0
  3  4  1  0  0  0  0
  3 24  1  0  0  0  0
  4  5  1  0  0  0  0
  4 16  2  0  0  0  0
  5  6  1  0  0  0  0
  5 25  1  0  0  0  0
  6  7  2  0  0  0  0
  6  8  1  0  0  0  0
  8  9  1  0  0  0  0
  8 26  1  0  0  0  0
  9 19  1  0  0  0  0
  9 15  1  0  0  0  0
  9 10  1  0  0  0  0
 10 11  2  0  0  0  0
 10 27  1  0  0  0  0
 11 12  1  0  0  0  0
 11 28  1  0  0  0  0
 12 20  1  0  0  0  0
 12 13  1  0  0  0  0
 12 15  1  0  0  0  0
 13 14  1  0  0  0  0
 13 29  1  0  0  0  0
 13 30  1  0  0  0  0
 14 31  1  0  0  0  0
 15 32  1  0  0  0  0
 15 33  1  0  0  0  0
 16 17  1  0  0  0  0
 16 34  1  0  0  0  0
 17 18  2  0  0  0  0
 17 35  1  0  0  0  0
M  END
> <s_m_source_file>
AV-unprocessed.smi

> <i_m_source_file_index>
3298

> <i_lp_mmshare_version>
43012

> <i_f3d_flags>
0

> <s_epik_input>
W0NIM11jMVtjSF1jKFtjSF1bY0hdbjEpW05IXUMoPU8pW05IXVtDQEBIXTJbQ0hdPVtDSF1bQ0BASF0oW0NIMl0yKVtDSDJdW09IXQ==

> <s_epik_cmdline>
J2VwaWtfcHl0aG9uJywgJy1waCcsICc3LjAnLCAnLXRuJywgJzgnLCAnLW1hJywgJzIwMCcsICctbWV0YWxfYmluZGluZycsICctaW1hZScsICc8aW5maWxlLm1hZT4nLCAnLW9tYWUnLCAnPG91dGZpbGUubWFlPic=

> <r_epik_Ionization_Penalty>
0.379275

> <r_epik_Ionization_Penalty_Charging>
0

> <r_epik_Ionization_Penalty_Neutral>
0.379275

> <r_epik_State_Penalty>
0.377195

> <r_epik_Charging_Adjusted_Penalty>
0.377195

> <i_epik_Tot_Q>
0

> <i_epik_Tot_abs_Q>
0

> <r_epik_Metal_State_Penalty>
0.22815

> <b_epik_Metal_Only>
0

> <s_lp_Force_Field>
OPLS_2005

> <r_lp_Energy>
20.8901

> <b_lp_Chiralities_Consistent>
1

> <s_lp_Variant>
AV-unprocessed.smi:3298-1

> <Gold.Version>
5.8.1

> <Gold.Id.Protein>
6NUR|6NUR_protein|mol2

> <Gold.PLP.Fitness>
40.6361

> <Gold.PLP.PLP>
-29.8946

> <Gold.PLP.part.hbond>
-3.3516

> <Gold.PLP.part.metal>
0.0000

> <Gold.PLP.part.buried>
-0.8617

> <Gold.PLP.part.nonpolar>
-26.0151

> <Gold.PLP.part.repulsive>
0.3721

> <Gold.PLP.ligand.clash>
0.0000

> <Gold.PLP.ligand.torsion>
0.5776

> <Gold.PLP.Chemscore.Hbond>
2.9600

> <Gold.PLP.Chemscore.CHOScore>
1.0000

> <Gold.PLP.Chemscore.Metal>
0.0000

> <Gold.Chemscore.Hbonds>
donor molecule, donor type, donor heavy atom, donor atom, acceptor molecule, acceptor atom, score
      L1  H     5    25       P1  7948  1.00
      L1  H     8    26       P1  7948  0.94
      L1  H    14    31       P1 10747  1.00
      L1  C    17    35       P1  8028  1.00

> <Gold.PLP.Chemscore.Internal.Correction>
0.0166

> <Gold.Rescore>
     Score         DG    S(hbond)    S(metal)    S(lipo)     H(rot)  DE(clash)    DE(int)     intcor
     17.29     -18.78       2.90        0.00      69.70       1.78       0.08       1.40       ----

> <Gold.Chemscore.Fitness>
17.2918

> <Gold.Chemscore.DG>
-18.7754

> <Gold.Chemscore.ZeroCoef>
-5.4800

> <Gold.Chemscore.Hbond>
2.9030

> <Gold.Chemscore.Metal>
0.0000

> <Gold.Chemscore.Lipo>
69.7025

> <Gold.Chemscore.Internal_Hbond>
0.0000

> <Gold.Chemscore.DEClash>
0.0832

> <Gold.Chemscore.DEInternal>
1.4004

> <Gold.Chemscore.Rot>
1.7796

> <Gold.Chemscore.Internal.Correction>
   9.000000E+99

> <Gold.Chemscore.Hbonds>
donor molecule, donor type, donor heavy atom, donor atom, acceptor molecule, acceptor atom, score
      L1  H     5    25       P1  7948  0.92
      L1  H     8    26       P1  7948  0.91
      L1  H    14    31       P1 10747  0.97

> <Gold.Chemscore.Hbond.Weighted>
-9.6960

> <Gold.Chemscore.Metal.Weighted>
-0.0000

> <Gold.Chemscore.Lipo.Weighted>
-8.1552

> <Gold.Chemscore.Internal_Hbond.Weighted>
0.0000

> <Gold.Chemscore.DEClash.Weighted>
0.0832

> <Gold.Chemscore.DEInternal.Weighted>
1.4004

> <Gold.Chemscore.Rot.Weighted>
4.5558

> <Gold.Chemscore.Internal.Correction.Weighted>
   9.000000E+99

> <Gold.Protein.RotatedTorsions>
[ 6907 6896 6895 6894 ] final   -5.98 input  -60.11 | X-H torsion
[ 7974 7965 7964 7962 ] final  177.93 input  175.53 | X-H torsion
[ 8008 7997 7996 7995 ] final   40.46 input   59.86 | X-H torsion
[ 10167 10162 10161 10158 ] final   75.69 input  -65.29 | X-H torsion
[ 10718 10713 10712 10709 ] final -139.12 input   66.30 | X-H torsion
[ 10763 10752 10751 10750 ] final   62.75 input  -60.55 | X-H torsion
[ 11005 11000 10999 10996 ] final  -61.39 input  -57.11 | X-H torsion

> <Gold.Protein.ActiveResidues>
 VAL166  LYS551  ARG553  GLY616  TRP617  ASP618  TYR619  PRO620  LYS621  CYS622 
 ASP623  PHE694  ASN695  SER759  ASP760  ASP761  ALA762  ILE779  LEU786  VAL792 
 PHE793  MET794  SER795  GLU796  ALA797  LYS798  CYS799  TRP800  GLU811  SER814 

> <Gold.Protein.RotatedAtoms>
  151.4730  135.1047  159.9756 H   0  0  0  0  0  0  0  0  0  0  0  0  # atno 6907 bound_to 6896
  152.4809  133.8248  159.7083 H   0  0  0  0  0  0  0  0  0  0  0  0  # atno 6908 bound_to 6896
  150.8880  133.7220  159.2939 H   0  0  0  0  0  0  0  0  0  0  0  0  # atno 6909 bound_to 6896
  144.7162  140.0320  143.6439 H   0  0  0  0  0  0  0  0  0  0  0  0  # atno 7974 bound_to 7965
  155.2536  140.3354  155.4280 H   0  0  0  0  0  0  0  0  0  0  0  0  # atno 8008 bound_to 7997
  156.2205  140.1807  156.7531 H   0  0  0  0  0  0  0  0  0  0  0  0  # atno 8009 bound_to 7997
  154.5818  140.0652  156.9100 H   0  0  0  0  0  0  0  0  0  0  0  0  # atno 8010 bound_to 7997
  140.0003  144.5691  150.7743 H   0  0  0  0  0  0  0  0  0  0  0  0  # atno 10167 bound_to 10162
  156.3071  130.7461  151.1527 H   0  0  0  0  0  0  0  0  0  0  0  0  # atno 10718 bound_to 10713
  152.9994  135.5453  154.6243 H   0  0  0  0  0  0  0  0  0  0  0  0  # atno 10763 bound_to 10752
  154.5535  135.2828  155.0988 H   0  0  0  0  0  0  0  0  0  0  0  0  # atno 10764 bound_to 10752
  154.2218  135.6449  153.5200 H   0  0  0  0  0  0  0  0  0  0  0  0  # atno 10765 bound_to 10752
  141.1322  133.6630  156.5368 H   0  0  0  0  0  0  0  0  0  0  0  0  # atno 11005 bound_to 11000
  146.0094  139.3157  143.0879 LP  0  0  0  0  0  0  0  0  0  0  0  0  # atno 17320 bound_to 7965
  145.8699  140.9426  143.0656 LP  0  0  0  0  0  0  0  0  0  0  0  0  # atno 17321 bound_to 7965
  140.7421  143.2828  151.3550 LP  0  0  0  0  0  0  0  0  0  0  0  0  # atno 17342 bound_to 10162
  139.6276  144.0783  152.2448 LP  0  0  0  0  0  0  0  0  0  0  0  0  # atno 17343 bound_to 10162
  157.7382  131.0543  150.5308 LP  0  0  0  0  0  0  0  0  0  0  0  0  # atno 17370 bound_to 10713
  156.5443  130.4216  149.6138 LP  0  0  0  0  0  0  0  0  0  0  0  0  # atno 17371 bound_to 10713
  140.4172  134.7220  157.4869 LP  0  0  0  0  0  0  0  0  0  0  0  0  # atno 17394 bound_to 11000
  140.0386  134.6301  155.9011 LP  0  0  0  0  0  0  0  0  0  0  0  0  # atno 17395 bound_to 11000

$$$$
