AV-unprocessed.smi:1232|AV-procd|sdf|5168|dock1
  -GOLD-   22720 4243D 1   1.00000     0.00000
 Structure written by MMmdl.
 53 54  0  0  0  0  0  0  0  0  1 V2000
  148.2107  136.2476  159.2924 C   0  0  0  0  0  0  0  0  0  0  0  0
  149.0347  135.6753  158.1434 C   0  0  0  0  0  0  0  0  0  0  0  0
  150.2034  135.3475  158.3408 O   0  0  0  0  0  0  0  0  0  0  0  0
  148.4098  135.5715  156.9564 N   0  0  0  0  0  0  0  0  0  0  0  0
  148.9233  135.0331  155.6884 C   0  0  1  0  0  0  0  0  0  0  0  0
  150.0739  135.8988  155.1427 C   0  0  0  0  0  0  0  0  0  0  0  0
  151.1889  135.4097  154.9595 O   0  0  0  0  0  0  0  0  0  0  0  0
  149.7815  137.1800  154.8655 N   0  0  0  0  0  0  0  0  0  0  0  0
  150.7110  138.1688  154.3290 C   0  0  0  0  0  0  0  0  0  0  0  0
  151.0418  139.2739  155.3179 C   0  0  0  0  0  0  0  0  0  0  0  0
  150.1914  140.3871  155.4662 C   0  0  0  0  0  0  0  0  0  0  0  0
  150.5370  141.3932  156.3883 C   0  0  0  0  0  0  0  0  0  0  0  0
  151.7308  141.2639  157.1380 C   0  0  0  0  0  0  0  0  0  0  0  0
  152.1022  142.2656  158.0616 N   0  0  0  0  0  0  0  0  0  0  0  0
  151.4036  143.5482  158.0011 C   0  0  0  0  0  0  0  0  0  0  0  0
  152.1207  144.5910  158.8745 C   0  0  0  0  0  0  0  0  0  0  0  0
  152.2531  144.0950  160.2026 O   0  0  0  0  0  0  0  0  0  0  0  0
  153.0340  142.9043  160.2555 C   0  0  1  0  0  0  0  0  0  0  0  0
  153.1958  142.4998  161.7246 C   0  0  0  0  0  0  0  0  0  0  0  0
  152.3416  141.8048  159.4271 C   0  0  0  0  0  0  0  0  0  0  0  0
  152.5433  140.1874  156.9955 N   0  0  0  0  0  0  0  0  0  0  0  0
  152.2083  139.2263  156.1092 C   0  0  0  0  0  0  0  0  0  0  0  0
  149.1869  133.4942  155.7014 C   0  0  0  0  0  0  0  0  0  0  0  0
  149.7689  132.9748  154.3716 C   0  0  0  0  0  0  0  0  0  0  0  0
  147.9178  132.6906  156.0466 C   0  0  0  0  0  0  0  0  0  0  0  0
  147.2843  136.6995  158.9357 H   0  0  0  0  0  0  0  0  0  0  0  0
  148.7799  137.0127  159.8210 H   0  0  0  0  0  0  0  0  0  0  0  0
  147.9580  135.4584  160.0004 H   0  0  0  0  0  0  0  0  0  0  0  0
  147.4528  135.8919  156.9286 H   0  0  0  0  0  0  0  0  0  0  0  0
  148.0910  135.1836  154.9987 H   0  0  0  0  0  0  0  0  0  0  0  0
  148.8376  137.4945  155.0376 H   0  0  0  0  0  0  0  0  0  0  0  0
  151.6384  137.6979  153.9992 H   0  0  0  0  0  0  0  0  0  0  0  0
  150.2587  138.6006  153.4358 H   0  0  0  0  0  0  0  0  0  0  0  0
  149.2839  140.4715  154.8866 H   0  0  0  0  0  0  0  0  0  0  0  0
  149.8799  142.2405  156.5171 H   0  0  0  0  0  0  0  0  0  0  0  0
  151.3606  143.9078  156.9722 H   0  0  0  0  0  0  0  0  0  0  0  0
  150.3766  143.4177  158.3451 H   0  0  0  0  0  0  0  0  0  0  0  0
  153.1026  144.8339  158.4650 H   0  0  0  0  0  0  0  0  0  0  0  0
  151.5480  145.5181  158.8976 H   0  0  0  0  0  0  0  0  0  0  0  0
  154.0232  143.1070  159.8412 H   0  0  0  0  0  0  0  0  0  0  0  0
  153.7993  141.5966  161.8187 H   0  0  0  0  0  0  0  0  0  0  0  0
  152.2288  142.3063  162.1898 H   0  0  0  0  0  0  0  0  0  0  0  0
  153.6877  143.2886  162.2941 H   0  0  0  0  0  0  0  0  0  0  0  0
  151.3841  141.5414  159.8783 H   0  0  0  0  0  0  0  0  0  0  0  0
  152.9572  140.9066  159.4464 H   0  0  0  0  0  0  0  0  0  0  0  0
  152.8964  138.3981  156.0304 H   0  0  0  0  0  0  0  0  0  0  0  0
  149.9332  133.2698  156.4629 H   0  0  0  0  0  0  0  0  0  0  0  0
  149.1107  133.2053  153.5334 H   0  0  0  0  0  0  0  0  0  0  0  0
  149.9028  131.8931  154.3990 H   0  0  0  0  0  0  0  0  0  0  0  0
  150.7472  133.4066  154.1594 H   0  0  0  0  0  0  0  0  0  0  0  0
  147.1242  132.8752  155.3221 H   0  0  0  0  0  0  0  0  0  0  0  0
  147.5310  132.9412  157.0338 H   0  0  0  0  0  0  0  0  0  0  0  0
  148.1204  131.6192  156.0493 H   0  0  0  0  0  0  0  0  0  0  0  0
  1  2  1  0  0  0  0
  1 26  1  0  0  0  0
  1 27  1  0  0  0  0
  1 28  1  0  0  0  0
  2  3  2  0  0  0  0
  2  4  1  0  0  0  0
  4  5  1  0  0  0  0
  4 29  1  0  0  0  0
  5  6  1  0  0  0  0
  5 23  1  0  0  0  0
  5 30  1  0  0  0  0
  6  7  2  0  0  0  0
  6  8  1  0  0  0  0
  8  9  1  0  0  0  0
  8 31  1  0  0  0  0
  9 10  1  0  0  0  0
  9 32  1  0  0  0  0
  9 33  1  0  0  0  0
 10 22  1  0  0  0  0
 10 11  2  0  0  0  0
 11 12  1  0  0  0  0
 11 34  1  0  0  0  0
 12 13  2  0  0  0  0
 12 35  1  0  0  0  0
 13 14  1  0  0  0  0
 13 21  1  0  0  0  0
 14 20  1  0  0  0  0
 14 15  1  0  0  0  0
 15 16  1  0  0  0  0
 15 36  1  0  0  0  0
 15 37  1  0  0  0  0
 16 17  1  0  0  0  0
 16 38  1  0  0  0  0
 16 39  1  0  0  0  0
 17 18  1  0  0  0  0
 18 19  1  0  0  0  0
 18 20  1  0  0  0  0
 18 40  1  0  0  0  0
 19 41  1  0  0  0  0
 19 42  1  0  0  0  0
 19 43  1  0  0  0  0
 20 44  1  0  0  0  0
 20 45  1  0  0  0  0
 21 22  2  0  0  0  0
 22 46  1  0  0  0  0
 23 24  1  0  0  0  0
 23 25  1  0  0  0  0
 23 47  1  0  0  0  0
 24 48  1  0  0  0  0
 24 49  1  0  0  0  0
 24 50  1  0  0  0  0
 25 51  1  0  0  0  0
 25 52  1  0  0  0  0
 25 53  1  0  0  0  0
M  END
> <s_m_source_file>
AV-unprocessed.smi

> <i_m_source_file_index>
1232

> <i_lp_mmshare_version>
43012

> <i_f3d_flags>
0

> <s_epik_input>
W0NIM11DKD1PKVtOSF1bQ0BASF0oW0NIXShbQ0gzXSlbQ0gzXSlDKD1PKVtOSF1bQ0gyXWMxW2NIXVtjSF1jKG5bY0hdMSlOMltDSDJdW0NIMl1PW0NAQEhdKFtDSDNdKVtDSDJdMg==

> <s_epik_cmdline>
J2VwaWtfcHl0aG9uJywgJy1waCcsICc3LjAnLCAnLXRuJywgJzgnLCAnLW1hJywgJzIwMCcsICctbWV0YWxfYmluZGluZycsICctaW1hZScsICc8aW5maWxlLm1hZT4nLCAnLW9tYWUnLCAnPG91dGZpbGUubWFlPic=

> <r_lp_tautomer_probability>
1

> <r_epik_Ionization_Penalty>
0.00557618

> <r_epik_Ionization_Penalty_Charging>
0

> <r_epik_Ionization_Penalty_Neutral>
0.00557618

> <r_epik_State_Penalty>
0.00408363

> <r_epik_Charging_Adjusted_Penalty>
0.00408363

> <i_epik_Tot_Q>
0

> <i_epik_Tot_abs_Q>
0

> <r_epik_Metal_State_Penalty>
-0

> <b_epik_Metal_Only>
0

> <s_lp_Force_Field>
OPLS_2005

> <r_lp_Energy>
20.4044

> <b_lp_Chiralities_Consistent>
1

> <s_lp_Variant>
AV-unprocessed.smi:1232-2

> <Gold.Version>
5.8.1

> <Gold.Id.Protein>
6NUR|6NUR_protein|mol2

> <Gold.PLP.Fitness>
52.3419

> <Gold.PLP.PLP>
-44.8024

> <Gold.PLP.part.hbond>
-3.7303

> <Gold.PLP.part.metal>
0.0000

> <Gold.PLP.part.buried>
-2.9335

> <Gold.PLP.part.nonpolar>
-37.2467

> <Gold.PLP.part.repulsive>
0.2292

> <Gold.PLP.ligand.clash>
0.0000

> <Gold.PLP.ligand.torsion>
0.7918

> <Gold.PLP.Chemscore.Hbond>
2.8032

> <Gold.PLP.Chemscore.CHOScore>
0.0000

> <Gold.PLP.Chemscore.Metal>
0.0000

> <Gold.Chemscore.Hbonds>
donor molecule, donor type, donor heavy atom, donor atom, acceptor molecule, acceptor atom, score
      P1  H  6896  6909       L1     3  0.79
      P1  H  7997  8009       L1    21  0.85
      P1  H 10752 10765       L1     7  0.91

> <Gold.PLP.Chemscore.Internal.Correction>
0.7136

> <Gold.Rescore>
     Score         DG    S(hbond)    S(metal)    S(lipo)     H(rot)  DE(clash)    DE(int)     intcor
     17.09     -18.97       1.94        0.00     106.69       2.13       0.04       1.84       ----

> <Gold.Chemscore.Fitness>
17.0940

> <Gold.Chemscore.DG>
-18.9739

> <Gold.Chemscore.ZeroCoef>
-5.4800

> <Gold.Chemscore.Hbond>
1.9367

> <Gold.Chemscore.Metal>
0.0000

> <Gold.Chemscore.Lipo>
106.6887

> <Gold.Chemscore.Internal_Hbond>
0.0000

> <Gold.Chemscore.DEClash>
0.0425

> <Gold.Chemscore.DEInternal>
1.8374

> <Gold.Chemscore.Rot>
2.1317

> <Gold.Chemscore.Internal.Correction>
   9.000000E+99

> <Gold.Chemscore.Hbonds>
donor molecule, donor type, donor heavy atom, donor atom, acceptor molecule, acceptor atom, score
      P1  H  6896  6909       L1     3  0.75
      P1  H  7997  8009       L1    21  0.16
      P1  H 10752 10765       L1     7  0.88

> <Gold.Chemscore.Hbond.Weighted>
-6.4685

> <Gold.Chemscore.Metal.Weighted>
-0.0000

> <Gold.Chemscore.Lipo.Weighted>
-12.4826

> <Gold.Chemscore.Internal_Hbond.Weighted>
0.0000

> <Gold.Chemscore.DEClash.Weighted>
0.0425

> <Gold.Chemscore.DEInternal.Weighted>
1.8374

> <Gold.Chemscore.Rot.Weighted>
5.4572

> <Gold.Chemscore.Internal.Correction.Weighted>
   9.000000E+99

> <Gold.Protein.RotatedTorsions>
[ 6907 6896 6895 6894 ] final   53.42 input  -60.11 | X-H torsion
[ 7974 7965 7964 7962 ] final -144.42 input  175.53 | X-H torsion
[ 8008 7997 7996 7995 ] final  170.98 input   59.86 | X-H torsion
[ 10167 10162 10161 10158 ] final -139.46 input  -65.29 | X-H torsion
[ 10718 10713 10712 10709 ] final    6.77 input   66.30 | X-H torsion
[ 10763 10752 10751 10750 ] final  168.40 input  -60.55 | X-H torsion
[ 11005 11000 10999 10996 ] final -120.31 input  -57.11 | X-H torsion

> <Gold.Protein.ActiveResidues>
 VAL166  LYS551  ARG553  GLY616  TRP617  ASP618  TYR619  PRO620  LYS621  CYS622 
 ASP623  PHE694  ASN695  SER759  ASP760  ASP761  ALA762  ILE779  LEU786  VAL792 
 PHE793  MET794  SER795  GLU796  ALA797  LYS798  CYS799  TRP800  GLU811  SER814 

> <Gold.Protein.RotatedAtoms>
  152.3335  134.7229  160.0282 H   0  0  0  0  0  0  0  0  0  0  0  0  # atno 6907 bound_to 6896
  151.7637  133.3330  159.3433 H   0  0  0  0  0  0  0  0  0  0  0  0  # atno 6908 bound_to 6896
  150.7437  134.6014  159.6083 H   0  0  0  0  0  0  0  0  0  0  0  0  # atno 6909 bound_to 6896
  144.8299  140.5712  143.5522 H   0  0  0  0  0  0  0  0  0  0  0  0  # atno 7974 bound_to 7965
  156.1314  140.1523  156.9059 H   0  0  0  0  0  0  0  0  0  0  0  0  # atno 8008 bound_to 7997
  154.4912  140.0851  156.7638 H   0  0  0  0  0  0  0  0  0  0  0  0  # atno 8009 bound_to 7997
  155.4249  140.3424  155.4277 H   0  0  0  0  0  0  0  0  0  0  0  0  # atno 8010 bound_to 7997
  139.8377  143.7363  152.2664 H   0  0  0  0  0  0  0  0  0  0  0  0  # atno 10167 bound_to 10162
  156.9271  130.5812  149.5649 H   0  0  0  0  0  0  0  0  0  0  0  0  # atno 10718 bound_to 10713
  154.3680  135.2753  155.2283 H   0  0  0  0  0  0  0  0  0  0  0  0  # atno 10763 bound_to 10752
  154.4442  135.5947  153.6153 H   0  0  0  0  0  0  0  0  0  0  0  0  # atno 10764 bound_to 10752
  152.9840  135.6026  154.3908 H   0  0  0  0  0  0  0  0  0  0  0  0  # atno 10765 bound_to 10752
  141.0153  134.0205  157.3358 H   0  0  0  0  0  0  0  0  0  0  0  0  # atno 11005 bound_to 11000
  145.4919  139.1488  143.3705 LP  0  0  0  0  0  0  0  0  0  0  0  0  # atno 17320 bound_to 7965
  146.2602  140.5057  142.8856 LP  0  0  0  0  0  0  0  0  0  0  0  0  # atno 17321 bound_to 7965
  139.7590  144.7512  151.0392 LP  0  0  0  0  0  0  0  0  0  0  0  0  # atno 17342 bound_to 10162
  140.7801  143.4772  151.0066 LP  0  0  0  0  0  0  0  0  0  0  0  0  # atno 17343 bound_to 10162
  156.0464  130.5540  150.8890 LP  0  0  0  0  0  0  0  0  0  0  0  0  # atno 17370 bound_to 10713
  157.5870  131.0945  150.9180 LP  0  0  0  0  0  0  0  0  0  0  0  0  # atno 17371 bound_to 10713
  139.9113  135.0190  156.7703 LP  0  0  0  0  0  0  0  0  0  0  0  0  # atno 17394 bound_to 11000
  140.6665  133.9598  155.7833 LP  0  0  0  0  0  0  0  0  0  0  0  0  # atno 17395 bound_to 11000

$$$$
