AV-unprocessed.smi:1680|AV-procd|sdf|6738|dock8
  -GOLD-   22720 7483D 1   1.00000     0.00000
 Structure written by MMmdl.
 39 40  0  0  0  0  0  0  0  0  2 V2000
  150.3976  141.5947  157.9393 C   0  0  0  0  0  0  0  0  0  0  0  0
  150.7359  140.3861  157.0638 C   0  0  0  0  0  0  0  0  0  0  0  0
  151.2552  139.4088  157.6024 O   0  0  0  0  0  0  0  0  0  0  0  0
  150.4560  140.4271  155.7389 N   0  0  0  0  0  0  0  0  0  0  0  0
  149.7596  141.5163  155.0478 C   0  0  0  0  0  0  0  0  0  0  0  0
  148.3860  141.0090  154.5720 C   0  0  0  0  0  0  0  0  0  0  0  0
  148.5157  139.7948  153.7213 N   0  3  0  0  0  0  0  0  0  0  0  0
  147.1981  139.3025  153.2470 C   0  0  0  0  0  0  0  0  0  0  0  0
  146.6947  138.0899  154.0545 C   0  0  0  0  0  0  0  0  0  0  0  0
  146.8735  136.8433  153.3187 N   0  0  0  0  0  0  0  0  0  0  0  0
  145.8803  136.0126  152.9697 C   0  0  0  0  0  0  0  0  0  0  0  0
  144.6986  136.2219  153.2456 O   0  0  0  0  0  0  0  0  0  0  0  0
  146.3473  134.9452  152.2984 N   0  0  0  0  0  0  0  0  0  0  0  0
  145.6165  133.8413  151.7842 C   0  0  0  0  0  0  0  0  0  0  0  0
  146.1736  132.8421  151.0822 N   0  0  0  0  0  0  0  0  0  0  0  0
  145.2357  131.8937  150.6951 N   0  0  0  0  0  0  0  0  0  0  0  0
  144.0103  132.2142  151.1201 C   0  0  0  0  0  0  0  0  0  0  0  0
  143.8822  133.7056  152.0361 S   0  0  0  0  0  0  0  0  0  0  0  0
  149.3513  138.7361  154.3538 C   0  0  0  0  0  0  0  0  0  0  0  0
  150.7007  139.2963  154.8396 C   0  0  0  0  0  0  0  0  0  0  0  0
  149.3268  141.7999  157.9205 H   0  0  0  0  0  0  0  0  0  0  0  0
  150.9357  142.4805  157.6003 H   0  0  0  0  0  0  0  0  0  0  0  0
  150.6826  141.4099  158.9758 H   0  0  0  0  0  0  0  0  0  0  0  0
  149.6295  142.4103  155.6560 H   0  0  0  0  0  0  0  0  0  0  0  0
  150.3569  141.8317  154.1911 H   0  0  0  0  0  0  0  0  0  0  0  0
  147.7574  140.7804  155.4343 H   0  0  0  0  0  0  0  0  0  0  0  0
  147.8824  141.7974  154.0112 H   0  0  0  0  0  0  0  0  0  0  0  0
  146.4686  140.1137  153.2713 H   0  0  0  0  0  0  0  0  0  0  0  0
  147.2927  139.0062  152.2014 H   0  0  0  0  0  0  0  0  0  0  0  0
  147.2075  138.0303  155.0160 H   0  0  0  0  0  0  0  0  0  0  0  0
  145.6320  138.1839  154.2739 H   0  0  0  0  0  0  0  0  0  0  0  0
  147.8165  136.6004  153.0511 H   0  0  0  0  0  0  0  0  0  0  0  0
  147.3443  134.9115  152.1453 H   0  0  0  0  0  0  0  0  0  0  0  0
  143.1756  131.5681  150.8922 H   0  0  0  0  0  0  0  0  0  0  0  0
  148.8095  138.3026  155.1961 H   0  0  0  0  0  0  0  0  0  0  0  0
  149.5379  137.9283  153.6471 H   0  0  0  0  0  0  0  0  0  0  0  0
  151.2931  139.6374  153.9892 H   0  0  0  0  0  0  0  0  0  0  0  0
  151.2832  138.5006  155.3059 H   0  0  0  0  0  0  0  0  0  0  0  0
  149.0163  140.0973  152.8977 H   0  0  0  0  0  0  0  0  0  0  0  0
  1  2  1  0  0  0  0
  1 21  1  0  0  0  0
  1 22  1  0  0  0  0
  1 23  1  0  0  0  0
  2  3  2  0  0  0  0
  2  4  1  0  0  0  0
  4 20  1  0  0  0  0
  4  5  1  0  0  0  0
  5  6  1  0  0  0  0
  5 24  1  0  0  0  0
  5 25  1  0  0  0  0
  6  7  1  0  0  0  0
  6 26  1  0  0  0  0
  6 27  1  0  0  0  0
  7  8  1  0  0  0  0
  7 19  1  0  0  0  0
  7 39  1  0  0  0  0
  8  9  1  0  0  0  0
  8 28  1  0  0  0  0
  8 29  1  0  0  0  0
  9 10  1  0  0  0  0
  9 30  1  0  0  0  0
  9 31  1  0  0  0  0
 10 11  1  0  0  0  0
 10 32  1  0  0  0  0
 11 12  2  0  0  0  0
 11 13  1  0  0  0  0
 13 14  1  0  0  0  0
 13 33  1  0  0  0  0
 14 18  1  0  0  0  0
 14 15  2  0  0  0  0
 15 16  1  0  0  0  0
 16 17  2  0  0  0  0
 17 18  1  0  0  0  0
 17 34  1  0  0  0  0
 19 20  1  0  0  0  0
 19 35  1  0  0  0  0
 19 36  1  0  0  0  0
 20 37  1  0  0  0  0
 20 38  1  0  0  0  0
M  CHG  1   7   1
M  END
> <s_m_source_file>
AV-unprocessed.smi

> <i_m_source_file_index>
1680

> <i_lp_mmshare_version>
43012

> <i_f3d_flags>
0

> <s_epik_input>
W0NIM11DKD1PKU4xW0NIMl1bQ0gyXU4oW0NIMl1bQ0gyXTEpW0NIMl1bQ0gyXVtOSF1DKD1PKVtOSF1jMm5uW2NIXXMy

> <s_epik_cmdline>
J2VwaWtfcHl0aG9uJywgJy1waCcsICc3LjAnLCAnLXRuJywgJzgnLCAnLW1hJywgJzIwMCcsICctbWV0YWxfYmluZGluZycsICctaW1hZScsICc8aW5maWxlLm1hZT4nLCAnLW9tYWUnLCAnPG91dGZpbGUubWFlPic=

> <r_lp_tautomer_probability>
1

> <r_epik_Ionization_Penalty>
0.679071

> <r_epik_Ionization_Penalty_Charging>
0.67523

> <r_epik_Ionization_Penalty_Neutral>
0.00384089

> <r_epik_State_Penalty>
0.695776

> <r_epik_Charging_Adjusted_Penalty>
1.37101

> <i_epik_Tot_Q>
1

> <i_epik_Tot_abs_Q>
1

> <r_epik_Metal_State_Penalty>
1.03363

> <b_epik_Metal_Only>
0

> <s_lp_Force_Field>
OPLS_2005

> <r_lp_Energy>
38.3378

> <b_lp_Chiralities_Consistent>
1

> <s_lp_Variant>
AV-unprocessed.smi:1680-2

> <Gold.Version>
5.8.1

> <Gold.Id.Protein>
6NUR|6NUR_protein|mol2

> <Gold.PLP.Fitness>
40.6289

> <Gold.PLP.PLP>
-32.2041

> <Gold.PLP.part.hbond>
-3.0000

> <Gold.PLP.part.metal>
0.0000

> <Gold.PLP.part.buried>
-4.4783

> <Gold.PLP.part.nonpolar>
-25.4244

> <Gold.PLP.part.repulsive>
0.6282

> <Gold.PLP.ligand.clash>
0.0000

> <Gold.PLP.ligand.torsion>
0.8185

> <Gold.PLP.Chemscore.Hbond>
2.8882

> <Gold.PLP.Chemscore.CHOScore>
0.4542

> <Gold.PLP.Chemscore.Metal>
0.0000

> <Gold.Chemscore.Hbonds>
donor molecule, donor type, donor heavy atom, donor atom, acceptor molecule, acceptor atom, score
      L1  H     7    39       P1  7957  1.00
      L1  H    10    32       P1  7948  1.00
      L1  H    13    33       P1  7948  0.74

> <Gold.PLP.Chemscore.Internal.Correction>
0.0349

> <Gold.Rescore>
     Score         DG    S(hbond)    S(metal)    S(lipo)     H(rot)  DE(clash)    DE(int)     intcor
     14.94     -16.94       2.81        0.00      57.63       1.83       0.03       1.97       ----

> <Gold.Chemscore.Fitness>
14.9436

> <Gold.Chemscore.DG>
-16.9442

> <Gold.Chemscore.ZeroCoef>
-5.4800

> <Gold.Chemscore.Hbond>
2.8141

> <Gold.Chemscore.Metal>
0.0000

> <Gold.Chemscore.Lipo>
57.6318

> <Gold.Chemscore.Internal_Hbond>
0.0000

> <Gold.Chemscore.DEClash>
0.0270

> <Gold.Chemscore.DEInternal>
1.9737

> <Gold.Chemscore.Rot>
1.8272

> <Gold.Chemscore.Internal.Correction>
   9.000000E+99

> <Gold.Chemscore.Hbonds>
donor molecule, donor type, donor heavy atom, donor atom, acceptor molecule, acceptor atom, score
      L1  H     7    39       P1  7957  0.99
      L1  H    10    32       P1  7948  0.94
      L1  H    13    33       P1  7948  0.66

> <Gold.Chemscore.Hbond.Weighted>
-9.3990

> <Gold.Chemscore.Metal.Weighted>
-0.0000

> <Gold.Chemscore.Lipo.Weighted>
-6.7429

> <Gold.Chemscore.Internal_Hbond.Weighted>
0.0000

> <Gold.Chemscore.DEClash.Weighted>
0.0270

> <Gold.Chemscore.DEInternal.Weighted>
1.9737

> <Gold.Chemscore.Rot.Weighted>
4.6776

> <Gold.Chemscore.Internal.Correction.Weighted>
   9.000000E+99

> <Gold.Protein.RotatedTorsions>
[ 6907 6896 6895 6894 ] final  -54.77 input  -60.11 | X-H torsion
[ 7974 7965 7964 7962 ] final   27.01 input  175.53 | X-H torsion
[ 8008 7997 7996 7995 ] final -145.27 input   59.86 | X-H torsion
[ 10167 10162 10161 10158 ] final   36.20 input  -65.29 | X-H torsion
[ 10718 10713 10712 10709 ] final -151.08 input   66.30 | X-H torsion
[ 10763 10752 10751 10750 ] final  -58.43 input  -60.55 | X-H torsion
[ 11005 11000 10999 10996 ] final   23.53 input  -57.11 | X-H torsion

> <Gold.Protein.ActiveResidues>
 VAL166  LYS551  ARG553  GLY616  TRP617  ASP618  TYR619  PRO620  LYS621  CYS622 
 ASP623  PHE694  ASN695  SER759  ASP760  ASP761  ALA762  ILE779  LEU786  VAL792 
 PHE793  MET794  SER795  GLU796  ALA797  LYS798  CYS799  TRP800  GLU811  SER814 

> <Gold.Protein.RotatedAtoms>
  150.8309  134.7561  159.6852 H   0  0  0  0  0  0  0  0  0  0  0  0  # atno 6907 bound_to 6896
  152.4413  134.5581  159.9896 H   0  0  0  0  0  0  0  0  0  0  0  0  # atno 6908 bound_to 6896
  151.5742  133.3348  159.3031 H   0  0  0  0  0  0  0  0  0  0  0  0  # atno 6909 bound_to 6896
  146.1807  139.7249  142.8902 H   0  0  0  0  0  0  0  0  0  0  0  0  # atno 7974 bound_to 7965
  155.5405  140.0607  157.2871 H   0  0  0  0  0  0  0  0  0  0  0  0  # atno 8008 bound_to 7997
  154.4454  140.1920  156.0630 H   0  0  0  0  0  0  0  0  0  0  0  0  # atno 8009 bound_to 7997
  156.0588  140.3275  155.7441 H   0  0  0  0  0  0  0  0  0  0  0  0  # atno 8010 bound_to 7997
  140.4150  144.1539  150.6142 H   0  0  0  0  0  0  0  0  0  0  0  0  # atno 10167 bound_to 10162
  156.4545  130.8184  151.2415 H   0  0  0  0  0  0  0  0  0  0  0  0  # atno 10718 bound_to 10713
  154.2380  135.6349  153.5197 H   0  0  0  0  0  0  0  0  0  0  0  0  # atno 10763 bound_to 10752
  152.9936  135.5535  154.5941 H   0  0  0  0  0  0  0  0  0  0  0  0  # atno 10764 bound_to 10752
  154.5440  135.2897  155.1044 H   0  0  0  0  0  0  0  0  0  0  0  0  # atno 10765 bound_to 10752
  140.3686  134.2047  155.7668 H   0  0  0  0  0  0  0  0  0  0  0  0  # atno 11005 bound_to 11000
  145.4084  141.0393  143.3031 LP  0  0  0  0  0  0  0  0  0  0  0  0  # atno 17320 bound_to 7965
  144.8310  139.5628  143.6944 LP  0  0  0  0  0  0  0  0  0  0  0  0  # atno 17321 bound_to 7965
  140.4596  143.2454  151.9238 LP  0  0  0  0  0  0  0  0  0  0  0  0  # atno 17342 bound_to 10162
  139.4782  144.5481  151.8428 LP  0  0  0  0  0  0  0  0  0  0  0  0  # atno 17343 bound_to 10162
  157.7501  131.0127  150.3395 LP  0  0  0  0  0  0  0  0  0  0  0  0  # atno 17370 bound_to 10713
  156.3781  130.3875  149.7123 LP  0  0  0  0  0  0  0  0  0  0  0  0  # atno 17371 bound_to 10713
  141.1962  133.8088  157.0683 LP  0  0  0  0  0  0  0  0  0  0  0  0  # atno 17394 bound_to 11000
  140.0570  134.9775  157.1237 LP  0  0  0  0  0  0  0  0  0  0  0  0  # atno 17395 bound_to 11000

$$$$
