AV-unprocessed.smi:419|AV-procd|sdf|2530|dock8
  -GOLD-   2262022483D 1   1.00000     0.00000
 Structure written by MMmdl.
 44 46  0  0  0  0  0  0  0  0  1 V2000
  144.8224  145.0883  153.3620 C   0  0  0  0  0  0  0  0  0  0  0  0
  144.6688  144.3719  154.5786 O   0  0  0  0  0  0  0  0  0  0  0  0
  145.5040  143.2999  154.8098 C   0  0  0  0  0  0  0  0  0  0  0  0
  145.4028  142.6655  156.0634 C   0  0  0  0  0  0  0  0  0  0  0  0
  146.2184  141.5632  156.3815 C   0  0  0  0  0  0  0  0  0  0  0  0
  147.1552  141.0676  155.4538 C   0  0  0  0  0  0  0  0  0  0  0  0
  147.9128  139.9843  155.8449 O   0  0  0  0  0  0  0  0  0  0  0  0
  149.2061  139.8267  155.2753 C   0  0  0  0  0  0  0  0  0  0  0  0
  150.2297  140.5672  156.1517 C   0  0  2  0  0  0  0  0  0  0  0  0
  151.4643  140.5475  155.4629 O   0  0  0  0  0  0  0  0  0  0  0  0
  150.4367  139.8624  157.5082 C   0  0  0  0  0  0  0  0  0  0  0  0
  151.5051  140.4853  158.2886 N   0  0  0  0  0  0  0  0  0  0  0  0
  152.4310  139.8442  159.0411 C   0  0  0  0  0  0  0  0  0  0  0  0
  152.5195  138.6257  159.1917 O   0  0  0  0  0  0  0  0  0  0  0  0
  153.2399  140.7770  159.5957 N   0  0  0  0  0  0  0  0  0  0  0  0
  154.3774  140.5407  160.4763 C   0  0  0  0  0  0  0  0  0  0  0  0
  152.8225  142.0496  159.1858 C   0  0  0  0  0  0  0  0  0  0  0  0
  153.3307  143.3259  159.4815 C   0  0  0  0  0  0  0  0  0  0  0  0
  152.6699  144.4341  158.9016 C   0  0  0  0  0  0  0  0  0  0  0  0
  151.5419  144.2491  158.0605 C   0  0  0  0  0  0  0  0  0  0  0  0
  151.0519  142.9520  157.7791 C   0  0  0  0  0  0  0  0  0  0  0  0
  151.7290  141.8681  158.3652 C   0  0  0  0  0  0  0  0  0  0  0  0
  147.2608  141.7022  154.1916 C   0  0  0  0  0  0  0  0  0  0  0  0
  146.4449  142.8054  153.8733 C   0  0  0  0  0  0  0  0  0  0  0  0
  144.0960  145.9001  153.3280 H   0  0  0  0  0  0  0  0  0  0  0  0
  144.6421  144.4486  152.4969 H   0  0  0  0  0  0  0  0  0  0  0  0
  145.8159  145.5319  153.2833 H   0  0  0  0  0  0  0  0  0  0  0  0
  144.6905  143.0276  156.7904 H   0  0  0  0  0  0  0  0  0  0  0  0
  146.1226  141.0922  157.3489 H   0  0  0  0  0  0  0  0  0  0  0  0
  149.4439  138.7618  155.2635 H   0  0  0  0  0  0  0  0  0  0  0  0
  149.2411  140.1876  154.2456 H   0  0  0  0  0  0  0  0  0  0  0  0
  149.9017  141.5964  156.3047 H   0  0  0  0  0  0  0  0  0  0  0  0
  151.9321  139.7651  155.7129 H   0  0  0  0  0  0  0  0  0  0  0  0
  149.5225  139.9292  158.1000 H   0  0  0  0  0  0  0  0  0  0  0  0
  150.6178  138.7954  157.3740 H   0  0  0  0  0  0  0  0  0  0  0  0
  154.3027  141.1641  161.3675 H   0  0  0  0  0  0  0  0  0  0  0  0
  155.3068  140.7877  159.9630 H   0  0  0  0  0  0  0  0  0  0  0  0
  154.4348  139.5008  160.8007 H   0  0  0  0  0  0  0  0  0  0  0  0
  154.1889  143.4581  160.1238 H   0  0  0  0  0  0  0  0  0  0  0  0
  153.0282  145.4332  159.1021 H   0  0  0  0  0  0  0  0  0  0  0  0
  151.0507  145.1091  157.6299 H   0  0  0  0  0  0  0  0  0  0  0  0
  150.1927  142.8073  157.1412 H   0  0  0  0  0  0  0  0  0  0  0  0
  147.9620  141.3614  153.4453 H   0  0  0  0  0  0  0  0  0  0  0  0
  146.5610  143.2556  152.8992 H   0  0  0  0  0  0  0  0  0  0  0  0
  1  2  1  0  0  0  0
  1 25  1  0  0  0  0
  1 26  1  0  0  0  0
  1 27  1  0  0  0  0
  2  3  1  0  0  0  0
  3 24  1  0  0  0  0
  3  4  2  0  0  0  0
  4  5  1  0  0  0  0
  4 28  1  0  0  0  0
  5  6  2  0  0  0  0
  5 29  1  0  0  0  0
  6  7  1  0  0  0  0
  6 23  1  0  0  0  0
  7  8  1  0  0  0  0
  8  9  1  0  0  0  0
  8 30  1  0  0  0  0
  8 31  1  0  0  0  0
  9 10  1  0  0  0  0
  9 11  1  0  0  0  0
  9 32  1  0  0  0  0
 10 33  1  0  0  0  0
 11 12  1  0  0  0  0
 11 34  1  0  0  0  0
 11 35  1  0  0  0  0
 12 22  1  0  0  0  0
 12 13  1  0  0  0  0
 13 14  2  0  0  0  0
 13 15  1  0  0  0  0
 15 16  1  0  0  0  0
 15 17  1  0  0  0  0
 16 36  1  0  0  0  0
 16 37  1  0  0  0  0
 16 38  1  0  0  0  0
 17 22  2  0  0  0  0
 17 18  1  0  0  0  0
 18 19  2  0  0  0  0
 18 39  1  0  0  0  0
 19 20  1  0  0  0  0
 19 40  1  0  0  0  0
 20 21  2  0  0  0  0
 20 41  1  0  0  0  0
 21 22  1  0  0  0  0
 21 42  1  0  0  0  0
 23 24  2  0  0  0  0
 23 43  1  0  0  0  0
 24 44  1  0  0  0  0
M  END
> <s_m_source_file>
AV-unprocessed.smi

> <i_m_source_file_index>
419

> <i_lp_mmshare_version>
43012

> <i_f3d_flags>
0

> <s_epik_input>
W0NIM11PYzFbY0hdW2NIXWMoW2NIXVtjSF0xKU9bQ0gyXVtDQEhdKFtPSF0pW0NIMl1uKGMoPU8pbjJbQ0gzXSljKGMyMylbY0hdW2NIXVtjSF1bY0hdMw==

> <s_epik_cmdline>
J2VwaWtfcHl0aG9uJywgJy1waCcsICc3LjAnLCAnLXRuJywgJzgnLCAnLW1hJywgJzIwMCcsICctbWV0YWxfYmluZGluZycsICctaW1hZScsICc8aW5maWxlLm1hZT4nLCAnLW9tYWUnLCAnPG91dGZpbGUubWFlPic=

> <r_lp_tautomer_probability>
1

> <r_epik_Ionization_Penalty>
2.40131e-06

> <r_epik_Ionization_Penalty_Charging>
2.01037e-09

> <r_epik_Ionization_Penalty_Neutral>
2.3993e-06

> <r_epik_State_Penalty>
-0

> <r_epik_Charging_Adjusted_Penalty>
2.01037e-09

> <i_epik_Tot_Q>
0

> <i_epik_Tot_abs_Q>
0

> <r_epik_Metal_State_Penalty>
-0

> <b_epik_Metal_Only>
0

> <s_lp_Force_Field>
OPLS_2005

> <r_lp_Energy>
51.0107

> <b_lp_Chiralities_Consistent>
1

> <s_lp_Variant>
AV-unprocessed.smi:419-1

> <Gold.Version>
5.8.1

> <Gold.Id.Protein>
6NUR|6NUR_protein|mol2

> <Gold.PLP.Fitness>
52.9415

> <Gold.PLP.PLP>
-52.1037

> <Gold.PLP.part.hbond>
-1.0000

> <Gold.PLP.part.metal>
0.0000

> <Gold.PLP.part.buried>
-7.3991

> <Gold.PLP.part.nonpolar>
-43.9290

> <Gold.PLP.part.repulsive>
0.1807

> <Gold.PLP.ligand.clash>
0.0000

> <Gold.PLP.ligand.torsion>
0.9219

> <Gold.PLP.Chemscore.Hbond>
0.8640

> <Gold.PLP.Chemscore.CHOScore>
0.0000

> <Gold.PLP.Chemscore.Metal>
0.0000

> <Gold.Chemscore.Hbonds>
donor molecule, donor type, donor heavy atom, donor atom, acceptor molecule, acceptor atom, score
      P1  H  7989  7998       L1    10  0.82

> <Gold.PLP.Chemscore.Internal.Correction>
0.0896

> <Gold.Rescore>
     Score         DG    S(hbond)    S(metal)    S(lipo)     H(rot)  DE(clash)    DE(int)     intcor
     16.01     -16.80       0.92        0.00     122.90       2.40       0.05       0.73       ----

> <Gold.Chemscore.Fitness>
16.0126

> <Gold.Chemscore.DG>
-16.7991

> <Gold.Chemscore.ZeroCoef>
-5.4800

> <Gold.Chemscore.Hbond>
0.9194

> <Gold.Chemscore.Metal>
0.0000

> <Gold.Chemscore.Lipo>
122.9046

> <Gold.Chemscore.Internal_Hbond>
0.0000

> <Gold.Chemscore.DEClash>
0.0544

> <Gold.Chemscore.DEInternal>
0.7321

> <Gold.Chemscore.Rot>
2.3952

> <Gold.Chemscore.Internal.Correction>
   9.000000E+99

> <Gold.Chemscore.Hbonds>
donor molecule, donor type, donor heavy atom, donor atom, acceptor molecule, acceptor atom, score
      P1  H  7989  7998       L1    10  0.62

> <Gold.Chemscore.Hbond.Weighted>
-3.0709

> <Gold.Chemscore.Metal.Weighted>
-0.0000

> <Gold.Chemscore.Lipo.Weighted>
-14.3798

> <Gold.Chemscore.Internal_Hbond.Weighted>
0.0000

> <Gold.Chemscore.DEClash.Weighted>
0.0544

> <Gold.Chemscore.DEInternal.Weighted>
0.7321

> <Gold.Chemscore.Rot.Weighted>
6.1316

> <Gold.Chemscore.Internal.Correction.Weighted>
   9.000000E+99

> <Gold.Protein.RotatedTorsions>
[ 6907 6896 6895 6894 ] final  147.19 input  -60.11 | X-H torsion
[ 7974 7965 7964 7962 ] final  -16.55 input  175.53 | X-H torsion
[ 8008 7997 7996 7995 ] final  -90.07 input   59.86 | X-H torsion
[ 10167 10162 10161 10158 ] final   16.29 input  -65.29 | X-H torsion
[ 10718 10713 10712 10709 ] final   63.73 input   66.30 | X-H torsion
[ 10763 10752 10751 10750 ] final   13.64 input  -60.55 | X-H torsion
[ 11005 11000 10999 10996 ] final -131.94 input  -57.11 | X-H torsion

> <Gold.Protein.ActiveResidues>
 VAL166  LYS551  ARG553  GLY616  TRP617  ASP618  TYR619  PRO620  LYS621  CYS622 
 ASP623  PHE694  ASN695  SER759  ASP760  ASP761  ALA762  ILE779  LEU786  VAL792 
 PHE793  MET794  SER795  GLU796  ALA797  LYS798  CYS799  TRP800  GLU811  SER814 

> <Gold.Protein.RotatedAtoms>
  152.1580  133.4564  159.4846 H   0  0  0  0  0  0  0  0  0  0  0  0  # atno 6907 bound_to 6896
  150.6903  134.2106  159.4367 H   0  0  0  0  0  0  0  0  0  0  0  0  # atno 6908 bound_to 6896
  152.0007  134.9929  160.0615 H   0  0  0  0  0  0  0  0  0  0  0  0  # atno 6909 bound_to 6896
  146.1982  140.3653  142.8433 H   0  0  0  0  0  0  0  0  0  0  0  0  # atno 7974 bound_to 7965
  154.6942  140.0534  157.0394 H   0  0  0  0  0  0  0  0  0  0  0  0  # atno 8008 bound_to 7997
  155.0775  140.3206  155.4593 H   0  0  0  0  0  0  0  0  0  0  0  0  # atno 8009 bound_to 7997
  156.2738  140.2071  156.5902 H   0  0  0  0  0  0  0  0  0  0  0  0  # atno 8010 bound_to 7997
  140.5808  143.8985  150.6788 H   0  0  0  0  0  0  0  0  0  0  0  0  # atno 10167 bound_to 10162
  157.5992  130.9121  149.9754 H   0  0  0  0  0  0  0  0  0  0  0  0  # atno 10718 bound_to 10713
  153.1701  135.6811  153.8620 H   0  0  0  0  0  0  0  0  0  0  0  0  # atno 10763 bound_to 10752
  153.7987  135.3159  155.3388 H   0  0  0  0  0  0  0  0  0  0  0  0  # atno 10764 bound_to 10752
  154.7992  135.4788  154.0326 H   0  0  0  0  0  0  0  0  0  0  0  0  # atno 10765 bound_to 10752
  140.9215  134.1439  157.4310 H   0  0  0  0  0  0  0  0  0  0  0  0  # atno 11005 bound_to 11000
  144.8626  140.7160  143.6098 LP  0  0  0  0  0  0  0  0  0  0  0  0  # atno 17320 bound_to 7965
  145.3573  139.1691  143.4402 LP  0  0  0  0  0  0  0  0  0  0  0  0  # atno 17321 bound_to 7965
  140.2483  143.3612  152.1427 LP  0  0  0  0  0  0  0  0  0  0  0  0  # atno 17342 bound_to 10162
  139.5168  144.6983  151.5566 LP  0  0  0  0  0  0  0  0  0  0  0  0  # atno 17343 bound_to 10162
  156.1061  130.3652  150.0132 LP  0  0  0  0  0  0  0  0  0  0  0  0  # atno 17370 bound_to 10713
  156.8239  130.9368  151.3640 LP  0  0  0  0  0  0  0  0  0  0  0  0  # atno 17371 bound_to 10713
  139.8776  134.9973  156.5838 LP  0  0  0  0  0  0  0  0  0  0  0  0  # atno 17394 bound_to 11000
  140.7982  133.8527  155.8704 LP  0  0  0  0  0  0  0  0  0  0  0  0  # atno 17395 bound_to 11000

$$$$
