AV-unprocessed.smi:1978|AV-procd|sdf|8010|dock7
  -GOLD-   2272010203D 1   1.00000     0.00000
 Structure written by MMmdl.
 44 45  0  0  0  0  0  0  0  0  3 V2000
  153.3169  142.1342  160.7393 C   0  0  0  0  0  0  0  0  0  0  0  0
  152.4919  142.5439  159.5681 C   0  0  0  0  0  0  0  0  0  0  0  0
  151.4599  141.9456  158.9015 C   0  0  0  0  0  0  0  0  0  0  0  0
  151.1487  142.8846  157.8823 C   0  0  0  0  0  0  0  0  0  0  0  0
  150.1077  142.6246  156.9523 N   0  0  0  0  0  0  0  0  0  0  0  0
  149.7961  141.4686  156.3388 C   0  0  0  0  0  0  0  0  0  0  0  0
  150.4520  140.4448  156.5647 O   0  0  0  0  0  0  0  0  0  0  0  0
  148.7342  141.6012  155.4966 N   0  5  0  0  0  0  0  0  0  0  0  0
  148.6526  141.0190  154.1561 C   0  0  0  0  0  0  0  0  0  0  0  0
  147.2218  141.2037  153.5462 C   0  0  2  0  0  0  0  0  0  0  0  0
  146.5974  142.5832  153.8706 C   0  0  0  0  0  0  0  0  0  0  0  0
  146.2406  140.0960  153.8463 N   0  3  2  0  0  0  0  0  0  0  0  0
  145.8529  139.9542  155.2860 C   0  0  0  0  0  0  0  0  0  0  0  0
  144.6024  139.0797  155.4468 C   0  0  0  0  0  0  0  0  0  0  0  0
  144.8340  137.6981  154.8330 C   0  0  0  0  0  0  0  0  0  0  0  0
  145.2451  137.8504  153.3657 C   0  0  0  0  0  0  0  0  0  0  0  0
  146.4837  138.7584  153.1981 C   0  0  1  0  0  0  0  0  0  0  0  0
  146.8273  138.8449  151.6964 C   0  0  0  0  0  0  0  0  0  0  0  0
  151.9175  143.9627  157.9285 N   0  0  0  0  0  0  0  0  0  0  0  0
  152.7821  143.7494  159.0084 O   0  0  0  0  0  0  0  0  0  0  0  0
  153.0914  141.1099  161.0362 H   0  0  0  0  0  0  0  0  0  0  0  0
  153.1252  142.7844  161.5928 H   0  0  0  0  0  0  0  0  0  0  0  0
  154.3793  142.1906  160.5015 H   0  0  0  0  0  0  0  0  0  0  0  0
  151.0047  140.9884  159.1078 H   0  0  0  0  0  0  0  0  0  0  0  0
  149.5206  143.4128  156.7235 H   0  0  0  0  0  0  0  0  0  0  0  0
  149.3872  141.4665  153.4857 H   0  0  0  0  0  0  0  0  0  0  0  0
  148.8953  139.9566  154.1707 H   0  0  0  0  0  0  0  0  0  0  0  0
  147.3301  141.2263  152.4638 H   0  0  0  0  0  0  0  0  0  0  0  0
  147.1693  143.4006  153.4274 H   0  0  0  0  0  0  0  0  0  0  0  0
  146.5309  142.7852  154.9405 H   0  0  0  0  0  0  0  0  0  0  0  0
  145.5891  142.6552  153.4619 H   0  0  0  0  0  0  0  0  0  0  0  0
  146.6730  139.5159  155.8566 H   0  0  0  0  0  0  0  0  0  0  0  0
  145.6455  140.9253  155.7323 H   0  0  0  0  0  0  0  0  0  0  0  0
  144.3507  138.9799  156.5031 H   0  0  0  0  0  0  0  0  0  0  0  0
  143.7494  139.5619  154.9676 H   0  0  0  0  0  0  0  0  0  0  0  0
  145.6132  137.1708  155.3850 H   0  0  0  0  0  0  0  0  0  0  0  0
  143.9298  137.0940  154.9110 H   0  0  0  0  0  0  0  0  0  0  0  0
  145.4449  136.8639  152.9457 H   0  0  0  0  0  0  0  0  0  0  0  0
  144.4090  138.2616  152.7980 H   0  0  0  0  0  0  0  0  0  0  0  0
  147.3198  138.2751  153.7057 H   0  0  0  0  0  0  0  0  0  0  0  0
  146.8551  137.8525  151.2456 H   0  0  0  0  0  0  0  0  0  0  0  0
  147.8099  139.2823  151.5235 H   0  0  0  0  0  0  0  0  0  0  0  0
  146.0892  139.4335  151.1505 H   0  0  0  0  0  0  0  0  0  0  0  0
  145.3975  140.4227  153.3972 H   0  0  0  0  0  0  0  0  0  0  0  0
  1  2  1  0  0  0  0
  1 21  1  0  0  0  0
  1 22  1  0  0  0  0
  1 23  1  0  0  0  0
  2 20  1  0  0  0  0
  2  3  2  0  0  0  0
  3  4  1  0  0  0  0
  3 24  1  0  0  0  0
  4  5  1  0  0  0  0
  4 19  2  0  0  0  0
  5  6  1  0  0  0  0
  5 25  1  0  0  0  0
  6  7  2  0  0  0  0
  6  8  1  0  0  0  0
  8  9  1  0  0  0  0
  9 10  1  0  0  0  0
  9 26  1  0  0  0  0
  9 27  1  0  0  0  0
 10 11  1  0  0  0  0
 10 12  1  0  0  0  0
 10 28  1  0  0  0  0
 11 29  1  0  0  0  0
 11 30  1  0  0  0  0
 11 31  1  0  0  0  0
 12 17  1  0  0  0  0
 12 13  1  0  0  0  0
 12 44  1  0  0  0  0
 13 14  1  0  0  0  0
 13 32  1  0  0  0  0
 13 33  1  0  0  0  0
 14 15  1  0  0  0  0
 14 34  1  0  0  0  0
 14 35  1  0  0  0  0
 15 16  1  0  0  0  0
 15 36  1  0  0  0  0
 15 37  1  0  0  0  0
 16 17  1  0  0  0  0
 16 38  1  0  0  0  0
 16 39  1  0  0  0  0
 17 18  1  0  0  0  0
 17 40  1  0  0  0  0
 18 41  1  0  0  0  0
 18 42  1  0  0  0  0
 18 43  1  0  0  0  0
 19 20  1  0  0  0  0
M  CHG  1   8  -1
M  CHG  1  12   1
M  END
> <s_m_source_file>
AV-unprocessed.smi

> <i_m_source_file_index>
1978

> <i_lp_mmshare_version>
43012

> <i_f3d_flags>
0

> <s_epik_input>
W0NIM11jMVtjSF1jKG5vMSlbTkhdQyg9TylbTkhdW0NIMl1bQ0BIXShbQ0gzXSlOMltDSDJdW0NIMl1bQ0gyXVtDSDJdW0NASF0yW0NIM10=

> <s_epik_cmdline>
J2VwaWtfcHl0aG9uJywgJy1waCcsICc3LjAnLCAnLXRuJywgJzgnLCAnLW1hJywgJzIwMCcsICctbWV0YWxfYmluZGluZycsICctaW1hZScsICc8aW5maWxlLm1hZT4nLCAnLW9tYWUnLCAnPG91dGZpbGUubWFlPic=

> <r_epik_Ionization_Penalty>
6.7666

> <r_epik_Ionization_Penalty_Charging>
6.7666

> <r_epik_Ionization_Penalty_Neutral>
5.77131e-06

> <r_epik_State_Penalty>
6.79217

> <r_epik_Charging_Adjusted_Penalty>
13.5588

> <i_epik_Tot_Q>
0

> <i_epik_Tot_abs_Q>
2

> <r_epik_Metal_State_Penalty>
2.72569

> <b_epik_Metal_Only>
1

> <s_lp_Force_Field>
OPLS_2005

> <r_lp_Energy>
22.3249

> <b_lp_Chiralities_Consistent>
1

> <s_lp_Variant>
AV-unprocessed.smi:1978-19

> <Gold.Version>
5.8.1

> <Gold.Id.Protein>
6NUR|6NUR_protein|mol2

> <Gold.PLP.Fitness>
43.3830

> <Gold.PLP.PLP>
-36.3728

> <Gold.PLP.part.hbond>
-2.0000

> <Gold.PLP.part.metal>
0.0000

> <Gold.PLP.part.buried>
-5.7033

> <Gold.PLP.part.nonpolar>
-29.8194

> <Gold.PLP.part.repulsive>
0.6580

> <Gold.PLP.ligand.clash>
0.0000

> <Gold.PLP.ligand.torsion>
1.0935

> <Gold.PLP.Chemscore.Hbond>
3.0000

> <Gold.PLP.Chemscore.CHOScore>
0.0000

> <Gold.PLP.Chemscore.Metal>
0.0000

> <Gold.Chemscore.Hbonds>
donor molecule, donor type, donor heavy atom, donor atom, acceptor molecule, acceptor atom, score
      L1  H     5    25       P1  8028  1.00
      L1  H    12    44       P1 10175  2.00

> <Gold.PLP.Chemscore.Internal.Correction>
0.1972

> <Gold.Rescore>
     Score         DG    S(hbond)    S(metal)    S(lipo)     H(rot)  DE(clash)    DE(int)     intcor
     15.64     -17.08       1.97        0.00      76.09       1.52       0.17       1.28       ----

> <Gold.Chemscore.Fitness>
15.6386

> <Gold.Chemscore.DG>
-17.0834

> <Gold.Chemscore.ZeroCoef>
-5.4800

> <Gold.Chemscore.Hbond>
1.9731

> <Gold.Chemscore.Metal>
0.0000

> <Gold.Chemscore.Lipo>
76.0854

> <Gold.Chemscore.Internal_Hbond>
0.0000

> <Gold.Chemscore.DEClash>
0.1689

> <Gold.Chemscore.DEInternal>
1.2759

> <Gold.Chemscore.Rot>
1.5190

> <Gold.Chemscore.Internal.Correction>
   9.000000E+99

> <Gold.Chemscore.Hbonds>
donor molecule, donor type, donor heavy atom, donor atom, acceptor molecule, acceptor atom, score
      L1  H     5    25       P1  8028  0.98
      L1  H    12    44       P1 10175  0.97

> <Gold.Chemscore.Hbond.Weighted>
-6.5900

> <Gold.Chemscore.Metal.Weighted>
-0.0000

> <Gold.Chemscore.Lipo.Weighted>
-8.9020

> <Gold.Chemscore.Internal_Hbond.Weighted>
0.0000

> <Gold.Chemscore.DEClash.Weighted>
0.1689

> <Gold.Chemscore.DEInternal.Weighted>
1.2759

> <Gold.Chemscore.Rot.Weighted>
3.8886

> <Gold.Chemscore.Internal.Correction.Weighted>
   9.000000E+99

> <Gold.Protein.RotatedTorsions>
[ 6907 6896 6895 6894 ] final  101.88 input  -60.11 | X-H torsion
[ 7974 7965 7964 7962 ] final  159.02 input  175.53 | X-H torsion
[ 8008 7997 7996 7995 ] final  159.29 input   59.86 | X-H torsion
[ 10167 10162 10161 10158 ] final  -15.87 input  -65.29 | X-H torsion
[ 10718 10713 10712 10709 ] final   13.82 input   66.30 | X-H torsion
[ 10763 10752 10751 10750 ] final   13.66 input  -60.55 | X-H torsion
[ 11005 11000 10999 10996 ] final  -58.69 input  -57.11 | X-H torsion

> <Gold.Protein.ActiveResidues>
 VAL166  LYS551  ARG553  GLY616  TRP617  ASP618  TYR619  PRO620  LYS621  CYS622 
 ASP623  PHE694  ASN695  SER759  ASP760  ASP761  ALA762  ILE779  LEU786  VAL792 
 PHE793  MET794  SER795  GLU796  ALA797  LYS798  CYS799  TRP800  GLU811  SER814 

> <Gold.Protein.RotatedAtoms>
  152.5338  134.0059  159.7915 H   0  0  0  0  0  0  0  0  0  0  0  0  # atno 6907 bound_to 6896
  151.0269  133.5817  159.2672 H   0  0  0  0  0  0  0  0  0  0  0  0  # atno 6908 bound_to 6896
  151.2836  135.0728  159.9232 H   0  0  0  0  0  0  0  0  0  0  0  0  # atno 6909 bound_to 6896
  144.7813  139.7559  143.6258 H   0  0  0  0  0  0  0  0  0  0  0  0  # atno 7974 bound_to 7965
  156.2248  140.1835  156.7389 H   0  0  0  0  0  0  0  0  0  0  0  0  # atno 8008 bound_to 7997
  154.5924  140.0648  156.9285 H   0  0  0  0  0  0  0  0  0  0  0  0  # atno 8009 bound_to 7997
  155.2314  140.3315  155.4305 H   0  0  0  0  0  0  0  0  0  0  0  0  # atno 8010 bound_to 7997
  140.7225  143.5174  150.9675 H   0  0  0  0  0  0  0  0  0  0  0  0  # atno 10167 bound_to 10162
  157.0301  130.6189  149.5734 H   0  0  0  0  0  0  0  0  0  0  0  0  # atno 10718 bound_to 10713
  153.1699  135.6810  153.8623 H   0  0  0  0  0  0  0  0  0  0  0  0  # atno 10763 bound_to 10752
  153.7990  135.3158  155.3389 H   0  0  0  0  0  0  0  0  0  0  0  0  # atno 10764 bound_to 10752
  154.7991  135.4789  154.0323 H   0  0  0  0  0  0  0  0  0  0  0  0  # atno 10765 bound_to 10752
  141.1218  133.6613  156.4959 H   0  0  0  0  0  0  0  0  0  0  0  0  # atno 11005 bound_to 11000
  146.2023  139.5325  142.9735 LP  0  0  0  0  0  0  0  0  0  0  0  0  # atno 17320 bound_to 7965
  145.6042  141.0350  143.2002 LP  0  0  0  0  0  0  0  0  0  0  0  0  # atno 17321 bound_to 7965
  139.8890  143.6976  152.3147 LP  0  0  0  0  0  0  0  0  0  0  0  0  # atno 17342 bound_to 10162
  139.7286  144.7587  151.0839 LP  0  0  0  0  0  0  0  0  0  0  0  0  # atno 17343 bound_to 10162
  156.0072  130.5160  150.7870 LP  0  0  0  0  0  0  0  0  0  0  0  0  # atno 17370 bound_to 10713
  157.5184  131.0930  151.0110 LP  0  0  0  0  0  0  0  0  0  0  0  0  # atno 17371 bound_to 10713
  140.4485  134.6950  157.5028 LP  0  0  0  0  0  0  0  0  0  0  0  0  # atno 17394 bound_to 11000
  140.0181  134.6588  155.9279 LP  0  0  0  0  0  0  0  0  0  0  0  0  # atno 17395 bound_to 11000

$$$$
