AV-unprocessed.smi:3348|AV-procd|sdf|12928|dock10
  -GOLD-   2272019353D 1   1.00000     0.00000
 Structure written by MMmdl.
 46 47  0  0  0  0  0  0  0  0  1 V2000
  144.3392  137.3910  152.9076 C   0  0  0  0  0  0  0  0  0  0  0  0
  145.1391  136.0722  152.8526 C   0  0  1  0  0  0  0  0  0  0  0  0
  145.3199  135.5619  151.4080 C   0  0  0  0  0  0  0  0  0  0  0  0
  145.2206  134.1169  151.3013 N   0  0  0  0  0  0  0  0  0  0  0  0
  144.2086  133.3706  150.7355 C   0  0  0  0  0  0  0  0  0  0  0  0
  144.5492  132.0552  150.8700 C   0  0  0  0  0  0  0  0  0  0  0  0
  145.8018  132.0980  151.5439 C   0  0  0  0  0  0  0  0  0  0  0  0
  146.1997  133.3330  151.8032 N   0  0  0  0  0  0  0  0  0  0  0  0
  146.4587  136.2081  153.4775 N   0  0  0  0  0  0  0  0  0  0  0  0
  146.5572  137.2056  154.5425 C   0  0  0  0  0  0  0  0  0  0  0  0
  148.0149  137.4054  154.9680 C   0  0  0  0  0  0  0  0  0  0  0  0
  148.2502  138.7959  155.1320 O   0  0  0  0  0  0  0  0  0  0  0  0
  149.3486  139.3040  154.3824 C   0  0  2  0  0  0  0  0  0  0  0  0
  150.6720  138.7100  154.9096 C   0  0  0  0  0  0  0  0  0  0  0  0
  150.9606  139.1575  156.3522 C   0  0  0  0  0  0  0  0  0  0  0  0
  150.9595  140.6892  156.4710 C   0  0  0  0  0  0  0  0  0  0  0  0
  149.6444  141.2898  155.9490 C   0  0  0  0  0  0  0  0  0  0  0  0
  149.3545  140.8445  154.5014 C   0  0  2  0  0  0  0  0  0  0  0  0
  148.0602  141.4692  153.9576 C   0  0  0  0  0  0  0  0  0  0  0  0
  143.3667  137.2885  152.4268 H   0  0  0  0  0  0  0  0  0  0  0  0
  144.8721  138.1981  152.4040 H   0  0  0  0  0  0  0  0  0  0  0  0
  144.1398  137.7072  153.9307 H   0  0  0  0  0  0  0  0  0  0  0  0
  144.5735  135.3167  153.3997 H   0  0  0  0  0  0  0  0  0  0  0  0
  144.5813  136.0193  150.7473 H   0  0  0  0  0  0  0  0  0  0  0  0
  146.2992  135.8555  151.0271 H   0  0  0  0  0  0  0  0  0  0  0  0
  143.3416  133.8337  150.2879 H   0  0  0  0  0  0  0  0  0  0  0  0
  143.9892  131.1937  150.5382 H   0  0  0  0  0  0  0  0  0  0  0  0
  146.4288  131.2741  151.8511 H   0  0  0  0  0  0  0  0  0  0  0  0
  147.1547  136.4085  152.7660 H   0  0  0  0  0  0  0  0  0  0  0  0
  146.1462  138.1645  154.2287 H   0  0  0  0  0  0  0  0  0  0  0  0
  145.9738  136.8771  155.4033 H   0  0  0  0  0  0  0  0  0  0  0  0
  148.1865  136.8838  155.9094 H   0  0  0  0  0  0  0  0  0  0  0  0
  148.6964  136.9793  154.2297 H   0  0  0  0  0  0  0  0  0  0  0  0
  149.2292  139.0440  153.3291 H   0  0  0  0  0  0  0  0  0  0  0  0
  150.6590  137.6219  154.8546 H   0  0  0  0  0  0  0  0  0  0  0  0
  151.4905  139.0323  154.2650 H   0  0  0  0  0  0  0  0  0  0  0  0
  150.2095  138.7382  157.0229 H   0  0  0  0  0  0  0  0  0  0  0  0
  151.9216  138.7602  156.6793 H   0  0  0  0  0  0  0  0  0  0  0  0
  151.1149  140.9817  157.5099 H   0  0  0  0  0  0  0  0  0  0  0  0
  151.7975  141.0995  155.9062 H   0  0  0  0  0  0  0  0  0  0  0  0
  148.8227  140.9905  156.6011 H   0  0  0  0  0  0  0  0  0  0  0  0
  149.6958  142.3778  156.0007 H   0  0  0  0  0  0  0  0  0  0  0  0
  150.1697  141.2152  153.8780 H   0  0  0  0  0  0  0  0  0  0  0  0
  147.1916  141.1603  154.5398 H   0  0  0  0  0  0  0  0  0  0  0  0
  147.8878  141.1753  152.9219 H   0  0  0  0  0  0  0  0  0  0  0  0
  148.1085  142.5580  153.9872 H   0  0  0  0  0  0  0  0  0  0  0  0
  1  2  1  0  0  0  0
  1 20  1  0  0  0  0
  1 21  1  0  0  0  0
  1 22  1  0  0  0  0
  2  3  1  0  0  0  0
  2  9  1  0  0  0  0
  2 23  1  0  0  0  0
  3  4  1  0  0  0  0
  3 24  1  0  0  0  0
  3 25  1  0  0  0  0
  4  8  1  0  0  0  0
  4  5  1  0  0  0  0
  5  6  2  0  0  0  0
  5 26  1  0  0  0  0
  6  7  1  0  0  0  0
  6 27  1  0  0  0  0
  7  8  2  0  0  0  0
  7 28  1  0  0  0  0
  9 10  1  0  0  0  0
  9 29  1  0  0  0  0
 10 11  1  0  0  0  0
 10 30  1  0  0  0  0
 10 31  1  0  0  0  0
 11 12  1  0  0  0  0
 11 32  1  0  0  0  0
 11 33  1  0  0  0  0
 12 13  1  0  0  0  0
 13 18  1  0  0  0  0
 13 14  1  0  0  0  0
 13 34  1  0  0  0  0
 14 15  1  0  0  0  0
 14 35  1  0  0  0  0
 14 36  1  0  0  0  0
 15 16  1  0  0  0  0
 15 37  1  0  0  0  0
 15 38  1  0  0  0  0
 16 17  1  0  0  0  0
 16 39  1  0  0  0  0
 16 40  1  0  0  0  0
 17 18  1  0  0  0  0
 17 41  1  0  0  0  0
 17 42  1  0  0  0  0
 18 19  1  0  0  0  0
 18 43  1  0  0  0  0
 19 44  1  0  0  0  0
 19 45  1  0  0  0  0
 19 46  1  0  0  0  0
M  END
> <s_m_source_file>
AV-unprocessed.smi

> <i_m_source_file_index>
3348

> <i_lp_mmshare_version>
43012

> <i_f3d_flags>
0

> <s_epik_input>
bjFbY0hdW2NIXVtjSF1uMVtDSDJdW0NAQEhdKFtDSDNdKVtOSF1bQ0gyXVtDSDJdT1tDQEBIXTJbQ0gyXVtDSDJdW0NIMl1bQ0gyXVtDQEhdMltDSDNd

> <s_epik_cmdline>
J2VwaWtfcHl0aG9uJywgJy1waCcsICc3LjAnLCAnLXRuJywgJzgnLCAnLW1hJywgJzIwMCcsICctbWV0YWxfYmluZGluZycsICctaW1hZScsICc8aW5maWxlLm1hZT4nLCAnLW9tYWUnLCAnPG91dGZpbGUubWFlPic=

> <r_lp_tautomer_probability>
1

> <r_epik_Ionization_Penalty>
2.46945

> <r_epik_Ionization_Penalty_Charging>
0

> <r_epik_Ionization_Penalty_Neutral>
2.46945

> <r_epik_State_Penalty>
2.6322

> <r_epik_Charging_Adjusted_Penalty>
2.6322

> <i_epik_Tot_Q>
0

> <i_epik_Tot_abs_Q>
0

> <r_epik_Metal_State_Penalty>
2.63217

> <b_epik_Metal_Only>
0

> <s_lp_Force_Field>
OPLS_2005

> <r_lp_Energy>
17.7248

> <b_lp_Chiralities_Consistent>
1

> <s_lp_Variant>
AV-unprocessed.smi:3348-14

> <Gold.Version>
5.8.1

> <Gold.Id.Protein>
6NUR|6NUR_protein|mol2

> <Gold.PLP.Fitness>
40.3557

> <Gold.PLP.PLP>
-35.4906

> <Gold.PLP.part.hbond>
-1.0000

> <Gold.PLP.part.metal>
0.0000

> <Gold.PLP.part.buried>
-1.9965

> <Gold.PLP.part.nonpolar>
-33.1188

> <Gold.PLP.part.repulsive>
0.2774

> <Gold.PLP.ligand.clash>
0.0000

> <Gold.PLP.ligand.torsion>
1.6727

> <Gold.PLP.Chemscore.Hbond>
0.6720

> <Gold.PLP.Chemscore.CHOScore>
2.0000

> <Gold.PLP.Chemscore.Metal>
0.0000

> <Gold.Chemscore.Hbonds>
donor molecule, donor type, donor heavy atom, donor atom, acceptor molecule, acceptor atom, score
      L1  H     9    29       P1  7948  1.00
      L1  C     5    26       P1 10186  1.00

> <Gold.PLP.Chemscore.Internal.Correction>
0.1943

> <Gold.Rescore>
     Score         DG    S(hbond)    S(metal)    S(lipo)     H(rot)  DE(clash)    DE(int)     intcor
     12.89     -14.62       0.88        0.00      90.73       1.72       0.05       1.69       ----

> <Gold.Chemscore.Fitness>
12.8866

> <Gold.Chemscore.DG>
-14.6216

> <Gold.Chemscore.ZeroCoef>
-5.4800

> <Gold.Chemscore.Hbond>
0.8800

> <Gold.Chemscore.Metal>
0.0000

> <Gold.Chemscore.Lipo>
90.7261

> <Gold.Chemscore.Internal_Hbond>
0.0000

> <Gold.Chemscore.DEClash>
0.0479

> <Gold.Chemscore.DEInternal>
1.6870

> <Gold.Chemscore.Rot>
1.7237

> <Gold.Chemscore.Internal.Correction>
   9.000000E+99

> <Gold.Chemscore.Hbonds>
donor molecule, donor type, donor heavy atom, donor atom, acceptor molecule, acceptor atom, score
      L1  H     9    29       P1  7948  0.93

> <Gold.Chemscore.Hbond.Weighted>
-2.9392

> <Gold.Chemscore.Metal.Weighted>
-0.0000

> <Gold.Chemscore.Lipo.Weighted>
-10.6150

> <Gold.Chemscore.Internal_Hbond.Weighted>
0.0000

> <Gold.Chemscore.DEClash.Weighted>
0.0479

> <Gold.Chemscore.DEInternal.Weighted>
1.6870

> <Gold.Chemscore.Rot.Weighted>
4.4126

> <Gold.Chemscore.Internal.Correction.Weighted>
   9.000000E+99

> <Gold.Protein.RotatedTorsions>
[ 6907 6896 6895 6894 ] final  107.83 input  -60.11 | X-H torsion
[ 7974 7965 7964 7962 ] final   -3.67 input  175.53 | X-H torsion
[ 8008 7997 7996 7995 ] final  107.36 input   59.86 | X-H torsion
[ 10167 10162 10161 10158 ] final  -61.66 input  -65.29 | X-H torsion
[ 10718 10713 10712 10709 ] final -172.50 input   66.30 | X-H torsion
[ 10763 10752 10751 10750 ] final  146.63 input  -60.55 | X-H torsion
[ 11005 11000 10999 10996 ] final -156.48 input  -57.11 | X-H torsion

> <Gold.Protein.ActiveResidues>
 VAL166  LYS551  ARG553  GLY616  TRP617  ASP618  TYR619  PRO620  LYS621  CYS622 
 ASP623  PHE694  ASN695  SER759  ASP760  ASP761  ALA762  ILE779  LEU786  VAL792 
 PHE793  MET794  SER795  GLU796  ALA797  LYS798  CYS799  TRP800  GLU811  SER814 

> <Gold.Protein.RotatedAtoms>
  152.5138  133.9177  159.7518 H   0  0  0  0  0  0  0  0  0  0  0  0  # atno 6907 bound_to 6896
  150.9556  133.6493  159.2770 H   0  0  0  0  0  0  0  0  0  0  0  0  # atno 6908 bound_to 6896
  151.3756  135.0936  159.9532 H   0  0  0  0  0  0  0  0  0  0  0  0  # atno 6909 bound_to 6896
  146.2385  140.1756  142.8332 H   0  0  0  0  0  0  0  0  0  0  0  0  # atno 7974 bound_to 7965
  156.1818  140.3096  155.9163 H   0  0  0  0  0  0  0  0  0  0  0  0  # atno 8008 bound_to 7997
  155.3367  140.0463  157.3061 H   0  0  0  0  0  0  0  0  0  0  0  0  # atno 8009 bound_to 7997
  154.5351  140.2243  155.8746 H   0  0  0  0  0  0  0  0  0  0  0  0  # atno 8010 bound_to 7997
  140.5991  143.2357  151.5969 H   0  0  0  0  0  0  0  0  0  0  0  0  # atno 10167 bound_to 10162
  156.7565  130.9397  151.3116 H   0  0  0  0  0  0  0  0  0  0  0  0  # atno 10718 bound_to 10713
  154.0250  135.2902  155.3376 H   0  0  0  0  0  0  0  0  0  0  0  0  # atno 10763 bound_to 10752
  154.7023  135.5183  153.8548 H   0  0  0  0  0  0  0  0  0  0  0  0  # atno 10764 bound_to 10752
  153.0665  135.6632  154.0468 H   0  0  0  0  0  0  0  0  0  0  0  0  # atno 10765 bound_to 10752
  140.6751  134.4205  157.5230 H   0  0  0  0  0  0  0  0  0  0  0  0  # atno 11005 bound_to 11000
  144.9976  140.8603  143.5301 LP  0  0  0  0  0  0  0  0  0  0  0  0  # atno 17320 bound_to 7965
  145.1771  139.2372  143.5312 LP  0  0  0  0  0  0  0  0  0  0  0  0  # atno 17321 bound_to 7965
  139.5278  144.3005  152.1077 LP  0  0  0  0  0  0  0  0  0  0  0  0  # atno 17342 bound_to 10162
  140.2183  144.4492  150.6354 LP  0  0  0  0  0  0  0  0  0  0  0  0  # atno 17343 bound_to 10162
  157.6754  130.9089  150.0138 LP  0  0  0  0  0  0  0  0  0  0  0  0  # atno 17370 bound_to 10713
  156.1367  130.3642  149.9646 LP  0  0  0  0  0  0  0  0  0  0  0  0  # atno 17371 bound_to 10713
  139.8969  134.8649  156.2067 LP  0  0  0  0  0  0  0  0  0  0  0  0  # atno 17394 bound_to 11000
  141.0361  133.6962  156.1515 LP  0  0  0  0  0  0  0  0  0  0  0  0  # atno 17395 bound_to 11000

$$$$
