AV-unprocessed.smi:2528|AV-procd|sdf|9949|dock2
  -GOLD-   2272013593D 1   1.00000     0.00000
 Structure written by MMmdl.
 44 46  0  0  0  0  0  0  0  0  2 V2000
  146.3027  139.2316  153.6977 O   0  0  0  0  0  0  0  0  0  0  0  0
  147.1613  138.5489  153.1385 C   0  0  0  0  0  0  0  0  0  0  0  0
  146.8725  137.6034  152.2324 N   0  0  0  0  0  0  0  0  0  0  0  0
  145.5248  137.2554  151.7955 C   0  0  0  0  0  0  0  0  0  0  0  0
  144.8090  136.3451  152.8196 C   0  0  1  0  0  0  0  0  0  0  0  0
  143.8691  135.3132  152.1682 C   0  0  0  0  0  0  0  0  0  0  0  0
  144.6310  134.2305  151.5034 N   0  3  2  0  0  0  0  0  0  0  0  0
  143.7392  133.2472  150.8373 C   0  0  0  0  0  0  0  0  0  0  0  0
  144.5506  132.1812  150.0852 C   0  0  0  0  0  0  0  0  0  0  0  0
  145.5273  131.4755  151.0337 C   0  0  0  0  0  0  0  0  0  0  0  0
  146.4244  132.5109  151.7245 C   0  0  0  0  0  0  0  0  0  0  0  0
  145.5898  133.5900  152.4444 C   0  0  1  0  0  0  0  0  0  0  0  0
  146.4988  134.6606  153.0774 C   0  0  0  0  0  0  0  0  0  0  0  0
  145.7179  135.6777  153.6956 O   0  0  0  0  0  0  0  0  0  0  0  0
  148.4865  138.6388  153.3478 N   0  0  0  0  0  0  0  0  0  0  0  0
  149.1793  139.5254  154.2153 C   0  0  0  0  0  0  0  0  0  0  0  0
  150.4889  139.1229  154.5614 C   0  0  0  0  0  0  0  0  0  0  0  0
  151.2608  139.9348  155.4150 C   0  0  0  0  0  0  0  0  0  0  0  0
  150.7025  141.1305  155.9010 C   0  0  0  0  0  0  0  0  0  0  0  0
  149.3917  141.4576  155.5086 C   0  0  0  0  0  0  0  0  0  0  0  0
  148.6501  140.6808  154.6905 N   0  0  0  0  0  0  0  0  0  0  0  0
  147.6357  137.0858  151.8211 H   0  0  0  0  0  0  0  0  0  0  0  0
  144.9461  138.1677  151.6405 H   0  0  0  0  0  0  0  0  0  0  0  0
  145.5907  136.7803  150.8174 H   0  0  0  0  0  0  0  0  0  0  0  0
  144.1919  136.9849  153.4514 H   0  0  0  0  0  0  0  0  0  0  0  0
  143.2249  134.8757  152.9327 H   0  0  0  0  0  0  0  0  0  0  0  0
  143.2128  135.8047  151.4488 H   0  0  0  0  0  0  0  0  0  0  0  0
  143.0972  132.7722  151.5811 H   0  0  0  0  0  0  0  0  0  0  0  0
  143.0834  133.7662  150.1371 H   0  0  0  0  0  0  0  0  0  0  0  0
  143.8792  131.4523  149.6305 H   0  0  0  0  0  0  0  0  0  0  0  0
  145.1025  132.6473  149.2678 H   0  0  0  0  0  0  0  0  0  0  0  0
  144.9716  130.9090  151.7822 H   0  0  0  0  0  0  0  0  0  0  0  0
  146.1344  130.7561  150.4831 H   0  0  0  0  0  0  0  0  0  0  0  0
  147.0812  132.0098  152.4364 H   0  0  0  0  0  0  0  0  0  0  0  0
  147.0737  132.9781  150.9826 H   0  0  0  0  0  0  0  0  0  0  0  0
  145.0144  133.1125  153.2397 H   0  0  0  0  0  0  0  0  0  0  0  0
  147.1322  134.2068  153.8399 H   0  0  0  0  0  0  0  0  0  0  0  0
  147.1738  135.0925  152.3384 H   0  0  0  0  0  0  0  0  0  0  0  0
  149.0692  138.0041  152.8226 H   0  0  0  0  0  0  0  0  0  0  0  0
  150.9030  138.2013  154.1787 H   0  0  0  0  0  0  0  0  0  0  0  0
  152.2640  139.6448  155.6906 H   0  0  0  0  0  0  0  0  0  0  0  0
  151.2637  141.7795  156.5570 H   0  0  0  0  0  0  0  0  0  0  0  0
  148.9261  142.3665  155.8594 H   0  0  0  0  0  0  0  0  0  0  0  0
  145.1814  134.6637  150.7758 H   0  0  0  0  0  0  0  0  0  0  0  0
  1  2  2  0  0  0  0
  2  3  1  0  0  0  0
  2 15  1  0  0  0  0
  3  4  1  0  0  0  0
  3 22  1  0  0  0  0
  4  5  1  0  0  0  0
  4 23  1  0  0  0  0
  4 24  1  0  0  0  0
  5 14  1  0  0  0  0
  5  6  1  0  0  0  0
  5 25  1  0  0  0  0
  6  7  1  0  0  0  0
  6 26  1  0  0  0  0
  6 27  1  0  0  0  0
  7 12  1  0  0  0  0
  7  8  1  0  0  0  0
  7 44  1  0  0  0  0
  8  9  1  0  0  0  0
  8 28  1  0  0  0  0
  8 29  1  0  0  0  0
  9 10  1  0  0  0  0
  9 30  1  0  0  0  0
  9 31  1  0  0  0  0
 10 11  1  0  0  0  0
 10 32  1  0  0  0  0
 10 33  1  0  0  0  0
 11 12  1  0  0  0  0
 11 34  1  0  0  0  0
 11 35  1  0  0  0  0
 12 13  1  0  0  0  0
 12 36  1  0  0  0  0
 13 14  1  0  0  0  0
 13 37  1  0  0  0  0
 13 38  1  0  0  0  0
 15 16  1  0  0  0  0
 15 39  1  0  0  0  0
 16 21  1  0  0  0  0
 16 17  2  0  0  0  0
 17 18  1  0  0  0  0
 17 40  1  0  0  0  0
 18 19  2  0  0  0  0
 18 41  1  0  0  0  0
 19 20  1  0  0  0  0
 19 42  1  0  0  0  0
 20 21  2  0  0  0  0
 20 43  1  0  0  0  0
M  CHG  1   7   1
M  END
> <s_m_source_file>
AV-unprocessed.smi

> <i_m_source_file_index>
2528

> <i_lp_mmshare_version>
43012

> <i_f3d_flags>
0

> <s_epik_input>
bjFbY0hdW2NIXVtjSF1bY0hdYzFbTkhdQyg9TylbTkhdW0NIMl1bQ0BIXShbQ0gyXTIpT1tDSDJdW0NAQEhdKE4yMylbQ0gyXVtDSDJdW0NIMl1bQ0gyXTM=

> <s_epik_cmdline>
J2VwaWtfcHl0aG9uJywgJy1waCcsICc3LjAnLCAnLXRuJywgJzgnLCAnLW1hJywgJzIwMCcsICctbWV0YWxfYmluZGluZycsICctaW1hZScsICc8aW5maWxlLm1hZT4nLCAnLW9tYWUnLCAnPG91dGZpbGUubWFlPic=

> <r_epik_Ionization_Penalty>
0.0932337

> <r_epik_Ionization_Penalty_Charging>
0.0931942

> <r_epik_Ionization_Penalty_Neutral>
3.9565e-05

> <r_epik_State_Penalty>
0.0834605

> <r_epik_Charging_Adjusted_Penalty>
0.176655

> <i_epik_Tot_Q>
1

> <i_epik_Tot_abs_Q>
1

> <r_epik_Metal_State_Penalty>
0.0834607

> <b_epik_Metal_Only>
0

> <s_lp_Force_Field>
OPLS_2005

> <r_lp_Energy>
28.0782

> <b_lp_Chiralities_Consistent>
1

> <s_lp_Variant>
AV-unprocessed.smi:2528-2

> <Gold.Version>
5.8.1

> <Gold.Id.Protein>
6NUR|6NUR_protein|mol2

> <Gold.PLP.Fitness>
41.4041

> <Gold.PLP.PLP>
-34.3574

> <Gold.PLP.part.hbond>
-2.8583

> <Gold.PLP.part.metal>
0.0000

> <Gold.PLP.part.buried>
-0.7262

> <Gold.PLP.part.nonpolar>
-31.8954

> <Gold.PLP.part.repulsive>
0.4850

> <Gold.PLP.ligand.clash>
0.0000

> <Gold.PLP.ligand.torsion>
0.7296

> <Gold.PLP.Chemscore.Hbond>
1.8320

> <Gold.PLP.Chemscore.CHOScore>
1.0000

> <Gold.PLP.Chemscore.Metal>
0.0000

> <Gold.Chemscore.Hbonds>
donor molecule, donor type, donor heavy atom, donor atom, acceptor molecule, acceptor atom, score
      L1  H     3    22       P1  7948  1.00
      L1  H    15    39       P1  7948  0.83
      L1  C    20    43       P1  8028  1.00

> <Gold.PLP.Chemscore.Internal.Correction>
0.0098

> <Gold.Rescore>
     Score         DG    S(hbond)    S(metal)    S(lipo)     H(rot)  DE(clash)    DE(int)     intcor
     14.99     -17.49       1.77        0.00      80.19       1.29       0.61       1.90       ----

> <Gold.Chemscore.Fitness>
14.9857

> <Gold.Chemscore.DG>
-17.4864

> <Gold.Chemscore.ZeroCoef>
-5.4800

> <Gold.Chemscore.Hbond>
1.7721

> <Gold.Chemscore.Metal>
0.0000

> <Gold.Chemscore.Lipo>
80.1930

> <Gold.Chemscore.Internal_Hbond>
0.0000

> <Gold.Chemscore.DEClash>
0.6051

> <Gold.Chemscore.DEInternal>
1.8957

> <Gold.Chemscore.Rot>
1.2870

> <Gold.Chemscore.Internal.Correction>
   9.000000E+99

> <Gold.Chemscore.Hbonds>
donor molecule, donor type, donor heavy atom, donor atom, acceptor molecule, acceptor atom, score
      L1  H     3    22       P1  7948  0.93
      L1  H    15    39       P1  7948  0.80

> <Gold.Chemscore.Hbond.Weighted>
-5.9187

> <Gold.Chemscore.Metal.Weighted>
-0.0000

> <Gold.Chemscore.Lipo.Weighted>
-9.3826

> <Gold.Chemscore.Internal_Hbond.Weighted>
0.0000

> <Gold.Chemscore.DEClash.Weighted>
0.6051

> <Gold.Chemscore.DEInternal.Weighted>
1.8957

> <Gold.Chemscore.Rot.Weighted>
3.2948

> <Gold.Chemscore.Internal.Correction.Weighted>
   9.000000E+99

> <Gold.Protein.RotatedTorsions>
[ 6907 6896 6895 6894 ] final  -36.61 input  -60.11 | X-H torsion
[ 7974 7965 7964 7962 ] final  157.00 input  175.53 | X-H torsion
[ 8008 7997 7996 7995 ] final   72.34 input   59.86 | X-H torsion
[ 10167 10162 10161 10158 ] final   29.20 input  -65.29 | X-H torsion
[ 10718 10713 10712 10709 ] final   21.17 input   66.30 | X-H torsion
[ 10763 10752 10751 10750 ] final  170.21 input  -60.55 | X-H torsion
[ 11005 11000 10999 10996 ] final   39.77 input  -57.11 | X-H torsion

> <Gold.Protein.ActiveResidues>
 VAL166  LYS551  ARG553  GLY616  TRP617  ASP618  TYR619  PRO620  LYS621  CYS622 
 ASP623  PHE694  ASN695  SER759  ASP760  ASP761  ALA762  ILE779  LEU786  VAL792 
 PHE793  MET794  SER795  GLU796  ALA797  LYS798  CYS799  TRP800  GLU811  SER814 

> <Gold.Protein.RotatedAtoms>
  151.0250  134.9497  159.8079 H   0  0  0  0  0  0  0  0  0  0  0  0  # atno 6907 bound_to 6896
  152.5333  134.2854  159.9033 H   0  0  0  0  0  0  0  0  0  0  0  0  # atno 6908 bound_to 6896
  151.2863  133.4144  159.2664 H   0  0  0  0  0  0  0  0  0  0  0  0  # atno 6909 bound_to 6896
  144.7929  139.7281  143.6214 H   0  0  0  0  0  0  0  0  0  0  0  0  # atno 7974 bound_to 7965
  155.7674  140.3485  155.5229 H   0  0  0  0  0  0  0  0  0  0  0  0  # atno 8008 bound_to 7997
  155.8855  140.1009  157.1476 H   0  0  0  0  0  0  0  0  0  0  0  0  # atno 8009 bound_to 7997
  154.4028  140.1314  156.4237 H   0  0  0  0  0  0  0  0  0  0  0  0  # atno 8010 bound_to 7997
  140.4786  144.0651  150.6258 H   0  0  0  0  0  0  0  0  0  0  0  0  # atno 10167 bound_to 10162
  157.1348  130.6606  149.5962 H   0  0  0  0  0  0  0  0  0  0  0  0  # atno 10718 bound_to 10713
  154.3943  135.2754  155.2136 H   0  0  0  0  0  0  0  0  0  0  0  0  # atno 10763 bound_to 10752
  154.4189  135.6005  153.6001 H   0  0  0  0  0  0  0  0  0  0  0  0  # atno 10764 bound_to 10752
  152.9831  135.5967  154.4202 H   0  0  0  0  0  0  0  0  0  0  0  0  # atno 10765 bound_to 10752
  140.1996  134.3887  155.8103 H   0  0  0  0  0  0  0  0  0  0  0  0  # atno 11005 bound_to 11000
  146.2187  139.5597  142.9632 LP  0  0  0  0  0  0  0  0  0  0  0  0  # atno 17320 bound_to 7965
  145.5748  141.0390  143.2154 LP  0  0  0  0  0  0  0  0  0  0  0  0  # atno 17321 bound_to 7965
  140.3886  143.2764  152.0086 LP  0  0  0  0  0  0  0  0  0  0  0  0  # atno 17342 bound_to 10162
  139.4829  144.6096  151.7459 LP  0  0  0  0  0  0  0  0  0  0  0  0  # atno 17343 bound_to 10162
  155.9800  130.4798  150.6750 LP  0  0  0  0  0  0  0  0  0  0  0  0  # atno 17370 bound_to 10713
  157.4360  131.0855  151.0991 LP  0  0  0  0  0  0  0  0  0  0  0  0  # atno 17371 bound_to 10713
  141.2227  133.7087  156.8234 LP  0  0  0  0  0  0  0  0  0  0  0  0  # atno 17394 bound_to 11000
  140.2069  134.8856  157.3232 LP  0  0  0  0  0  0  0  0  0  0  0  0  # atno 17395 bound_to 11000

$$$$
