AV-unprocessed.smi:934|AV-procd|sdf|4206|dock1
  -GOLD-   22720 2113D 1   1.00000     0.00000
 Structure written by MMmdl.
 42 43  0  0  0  0  0  0  0  0  1 V2000
  146.3360  139.1628  156.8625 C   0  0  0  0  0  0  0  0  0  0  0  0
  146.1731  138.8265  155.4467 N   0  0  0  0  0  0  0  0  0  0  0  0
  145.7631  137.4227  155.3800 C   0  0  0  0  0  0  0  0  0  0  0  0
  147.3031  139.2400  154.5658 C   0  0  0  0  0  0  0  0  0  0  0  0
  146.8376  139.0859  153.0808 C   0  0  0  0  0  0  0  0  0  0  0  0
  146.8880  137.7021  152.6088 N   0  0  0  0  0  0  0  0  0  0  0  0
  145.8336  136.9426  152.2801 C   0  0  0  0  0  0  0  0  0  0  0  0
  144.6673  137.3257  152.3625 O   0  0  0  0  0  0  0  0  0  0  0  0
  146.2308  135.7289  151.8610 N   0  0  0  0  0  0  0  0  0  0  0  0
  145.4489  134.6230  151.4269 C   0  0  0  0  0  0  0  0  0  0  0  0
  145.9301  133.5509  150.6355 C   0  0  0  0  0  0  0  0  0  0  0  0
  145.0442  132.5134  150.2854 C   0  0  0  0  0  0  0  0  0  0  0  0
  143.7139  132.5807  150.7422 C   0  0  0  0  0  0  0  0  0  0  0  0
  143.2440  133.5902  151.5040 N   0  0  0  0  0  0  0  0  0  0  0  0
  144.0986  134.5813  151.8351 C   0  0  0  0  0  0  0  0  0  0  0  0
  147.7306  140.7092  154.8413 C   0  0  0  0  0  0  0  0  0  0  0  0
  149.0372  141.0923  154.1187 C   0  0  0  0  0  0  0  0  0  0  0  0
  150.0819  140.1919  154.4632 O   0  0  0  0  0  0  0  0  0  0  0  0
  149.8071  138.8505  154.0796 C   0  0  0  0  0  0  0  0  0  0  0  0
  148.5569  138.3496  154.8247 C   0  0  0  0  0  0  0  0  0  0  0  0
  146.5162  140.2237  157.0228 H   0  0  0  0  0  0  0  0  0  0  0  0
  147.1504  138.6002  157.3195 H   0  0  0  0  0  0  0  0  0  0  0  0
  145.4258  138.9251  157.4143 H   0  0  0  0  0  0  0  0  0  0  0  0
  145.3696  137.1608  154.3991 H   0  0  0  0  0  0  0  0  0  0  0  0
  144.9515  137.2277  156.0820 H   0  0  0  0  0  0  0  0  0  0  0  0
  146.5786  136.7437  155.6262 H   0  0  0  0  0  0  0  0  0  0  0  0
  145.8176  139.4433  152.9487 H   0  0  0  0  0  0  0  0  0  0  0  0
  147.4168  139.7251  152.4166 H   0  0  0  0  0  0  0  0  0  0  0  0
  147.8085  137.3019  152.5011 H   0  0  0  0  0  0  0  0  0  0  0  0
  147.2261  135.5612  151.8903 H   0  0  0  0  0  0  0  0  0  0  0  0
  146.9517  133.4913  150.2967 H   0  0  0  0  0  0  0  0  0  0  0  0
  145.3785  131.6826  149.6819 H   0  0  0  0  0  0  0  0  0  0  0  0
  143.0098  131.8010  150.4918 H   0  0  0  0  0  0  0  0  0  0  0  0
  143.6874  135.3711  152.4469 H   0  0  0  0  0  0  0  0  0  0  0  0
  146.9481  141.4065  154.5410 H   0  0  0  0  0  0  0  0  0  0  0  0
  147.8863  140.8674  155.9079 H   0  0  0  0  0  0  0  0  0  0  0  0
  148.9045  141.1154  153.0367 H   0  0  0  0  0  0  0  0  0  0  0  0
  149.3385  142.0978  154.4129 H   0  0  0  0  0  0  0  0  0  0  0  0
  149.7017  138.7747  152.9976 H   0  0  0  0  0  0  0  0  0  0  0  0
  150.6656  138.2343  154.3472 H   0  0  0  0  0  0  0  0  0  0  0  0
  148.8364  138.3615  155.8768 H   0  0  0  0  0  0  0  0  0  0  0  0
  148.3606  137.3068  154.5754 H   0  0  0  0  0  0  0  0  0  0  0  0
  1  2  1  0  0  0  0
  1 21  1  0  0  0  0
  1 22  1  0  0  0  0
  1 23  1  0  0  0  0
  2  3  1  0  0  0  0
  2  4  1  0  0  0  0
  3 24  1  0  0  0  0
  3 25  1  0  0  0  0
  3 26  1  0  0  0  0
  4 20  1  0  0  0  0
  4  5  1  0  0  0  0
  4 16  1  0  0  0  0
  5  6  1  0  0  0  0
  5 27  1  0  0  0  0
  5 28  1  0  0  0  0
  6  7  1  0  0  0  0
  6 29  1  0  0  0  0
  7  8  2  0  0  0  0
  7  9  1  0  0  0  0
  9 10  1  0  0  0  0
  9 30  1  0  0  0  0
 10 15  1  0  0  0  0
 10 11  2  0  0  0  0
 11 12  1  0  0  0  0
 11 31  1  0  0  0  0
 12 13  2  0  0  0  0
 12 32  1  0  0  0  0
 13 14  1  0  0  0  0
 13 33  1  0  0  0  0
 14 15  2  0  0  0  0
 15 34  1  0  0  0  0
 16 17  1  0  0  0  0
 16 35  1  0  0  0  0
 16 36  1  0  0  0  0
 17 18  1  0  0  0  0
 17 37  1  0  0  0  0
 17 38  1  0  0  0  0
 18 19  1  0  0  0  0
 19 20  1  0  0  0  0
 19 39  1  0  0  0  0
 19 40  1  0  0  0  0
 20 41  1  0  0  0  0
 20 42  1  0  0  0  0
M  END
> <s_m_source_file>
AV-unprocessed.smi

> <i_m_source_file_index>
934

> <i_lp_mmshare_version>
43012

> <i_f3d_flags>
0

> <s_epik_input>
W0NIMl0xW0NIMl1PW0NIMl1bQ0gyXUMxKE4oW0NIM10pW0NIM10pW0NIMl1bTkhdQyg9TylbTkhdYzJbY0hdW2NIXVtjSF1uW2NIXTI=

> <s_epik_cmdline>
J2VwaWtfcHl0aG9uJywgJy1waCcsICc3LjAnLCAnLXRuJywgJzgnLCAnLW1hJywgJzIwMCcsICctbWV0YWxfYmluZGluZycsICctaW1hZScsICc8aW5maWxlLm1hZT4nLCAnLW9tYWUnLCAnPG91dGZpbGUubWFlPic=

> <r_epik_Ionization_Penalty>
2.28202

> <r_epik_Ionization_Penalty_Charging>
0

> <r_epik_Ionization_Penalty_Neutral>
2.28202

> <r_epik_State_Penalty>
2.42606

> <r_epik_Charging_Adjusted_Penalty>
2.42606

> <i_epik_Tot_Q>
0

> <i_epik_Tot_abs_Q>
0

> <r_epik_Metal_State_Penalty>
2.42536

> <b_epik_Metal_Only>
0

> <s_lp_Force_Field>
OPLS_2005

> <r_lp_Energy>
30.2098

> <b_lp_Chiralities_Consistent>
1

> <s_lp_Variant>
AV-unprocessed.smi:934-2

> <Gold.Version>
5.8.1

> <Gold.Id.Protein>
6NUR|6NUR_protein|mol2

> <Gold.PLP.Fitness>
36.9524

> <Gold.PLP.PLP>
-27.5671

> <Gold.PLP.part.hbond>
-3.0000

> <Gold.PLP.part.metal>
0.0000

> <Gold.PLP.part.buried>
-4.5588

> <Gold.PLP.part.nonpolar>
-21.0171

> <Gold.PLP.part.repulsive>
1.1425

> <Gold.PLP.ligand.clash>
0.0000

> <Gold.PLP.ligand.torsion>
0.5167

> <Gold.PLP.Chemscore.Hbond>
3.0000

> <Gold.PLP.Chemscore.CHOScore>
0.4283

> <Gold.PLP.Chemscore.Metal>
0.0000

> <Gold.Chemscore.Hbonds>
donor molecule, donor type, donor heavy atom, donor atom, acceptor molecule, acceptor atom, score
      L1  H     6    29       P1  7948  1.00
      L1  H     9    30       P1  7948  0.99
      P1  H  7989  7998       L1    18  1.00
      L1  C    13    33       P1 10952  0.37

> <Gold.PLP.Chemscore.Internal.Correction>
0.1338

> <Gold.Rescore>
     Score         DG    S(hbond)    S(metal)    S(lipo)     H(rot)  DE(clash)    DE(int)     intcor
     15.32     -18.21       2.56        0.00      67.26       1.44       0.18       2.71       ----

> <Gold.Chemscore.Fitness>
15.3178

> <Gold.Chemscore.DG>
-18.2116

> <Gold.Chemscore.ZeroCoef>
-5.4800

> <Gold.Chemscore.Hbond>
2.5602

> <Gold.Chemscore.Metal>
0.0000

> <Gold.Chemscore.Lipo>
67.2637

> <Gold.Chemscore.Internal_Hbond>
0.0000

> <Gold.Chemscore.DEClash>
0.1836

> <Gold.Chemscore.DEInternal>
2.7103

> <Gold.Chemscore.Rot>
1.4411

> <Gold.Chemscore.Internal.Correction>
   9.000000E+99

> <Gold.Chemscore.Hbonds>
donor molecule, donor type, donor heavy atom, donor atom, acceptor molecule, acceptor atom, score
      L1  H     6    29       P1  7948  0.98
      L1  H     9    30       P1  7948  0.94
      P1  H  7989  7998       L1    18  0.28

> <Gold.Chemscore.Hbond.Weighted>
-8.5510

> <Gold.Chemscore.Metal.Weighted>
-0.0000

> <Gold.Chemscore.Lipo.Weighted>
-7.8699

> <Gold.Chemscore.Internal_Hbond.Weighted>
0.0000

> <Gold.Chemscore.DEClash.Weighted>
0.1836

> <Gold.Chemscore.DEInternal.Weighted>
2.7103

> <Gold.Chemscore.Rot.Weighted>
3.6892

> <Gold.Chemscore.Internal.Correction.Weighted>
   9.000000E+99

> <Gold.Protein.RotatedTorsions>
[ 6907 6896 6895 6894 ] final -141.76 input  -60.11 | X-H torsion
[ 7974 7965 7964 7962 ] final  -45.02 input  175.53 | X-H torsion
[ 8008 7997 7996 7995 ] final -123.92 input   59.86 | X-H torsion
[ 10167 10162 10161 10158 ] final -130.79 input  -65.29 | X-H torsion
[ 10718 10713 10712 10709 ] final  102.99 input   66.30 | X-H torsion
[ 10763 10752 10751 10750 ] final -163.40 input  -60.55 | X-H torsion
[ 11005 11000 10999 10996 ] final   11.96 input  -57.11 | X-H torsion

> <Gold.Protein.ActiveResidues>
 VAL166  LYS551  ARG553  GLY616  TRP617  ASP618  TYR619  PRO620  LYS621  CYS622 
 ASP623  PHE694  ASN695  SER759  ASP760  ASP761  ALA762  ILE779  LEU786  VAL792 
 PHE793  MET794  SER795  GLU796  ALA797  LYS798  CYS799  TRP800  GLU811  SER814 

> <Gold.Protein.RotatedAtoms>
  151.0781  133.5412  159.2622 H   0  0  0  0  0  0  0  0  0  0  0  0  # atno 6907 bound_to 6896
  151.2326  135.0559  159.9003 H   0  0  0  0  0  0  0  0  0  0  0  0  # atno 6908 bound_to 6896
  152.5420  134.0567  159.8188 H   0  0  0  0  0  0  0  0  0  0  0  0  # atno 6909 bound_to 6896
  145.9862  140.7230  142.9339 H   0  0  0  0  0  0  0  0  0  0  0  0  # atno 7974 bound_to 7965
  155.1884  140.0412  157.2895 H   0  0  0  0  0  0  0  0  0  0  0  0  # atno 8008 bound_to 7997
  154.6156  140.2487  155.7586 H   0  0  0  0  0  0  0  0  0  0  0  0  # atno 8009 bound_to 7997
  156.2404  140.2905  156.0439 H   0  0  0  0  0  0  0  0  0  0  0  0  # atno 8010 bound_to 7997
  139.9257  143.6331  152.2542 H   0  0  0  0  0  0  0  0  0  0  0  0  # atno 10167 bound_to 10162
  157.6786  131.0767  150.5487 H   0  0  0  0  0  0  0  0  0  0  0  0  # atno 10718 bound_to 10713
  154.7126  135.3009  154.9174 H   0  0  0  0  0  0  0  0  0  0  0  0  # atno 10763 bound_to 10752
  154.0071  135.6699  153.4767 H   0  0  0  0  0  0  0  0  0  0  0  0  # atno 10764 bound_to 10752
  153.0767  135.5031  154.8333 H   0  0  0  0  0  0  0  0  0  0  0  0  # atno 10765 bound_to 10752
  140.4973  134.0781  155.7785 H   0  0  0  0  0  0  0  0  0  0  0  0  # atno 11005 bound_to 11000
  144.6875  140.2992  143.7266 LP  0  0  0  0  0  0  0  0  0  0  0  0  # atno 17320 bound_to 7965
  145.7697  139.1853  143.2219 LP  0  0  0  0  0  0  0  0  0  0  0  0  # atno 17321 bound_to 7965
  139.6824  144.7654  151.1584 LP  0  0  0  0  0  0  0  0  0  0  0  0  # atno 17342 bound_to 10162
  140.7651  143.5705  150.9001 LP  0  0  0  0  0  0  0  0  0  0  0  0  # atno 17343 bound_to 10162
  156.5792  130.4300  149.5985 LP  0  0  0  0  0  0  0  0  0  0  0  0  # atno 17370 bound_to 10713
  156.2676  130.6998  151.1786 LP  0  0  0  0  0  0  0  0  0  0  0  0  # atno 17371 bound_to 10713
  141.1453  133.9065  157.2229 LP  0  0  0  0  0  0  0  0  0  0  0  0  # atno 17394 bound_to 11000
  139.9734  135.0121  156.9569 LP  0  0  0  0  0  0  0  0  0  0  0  0  # atno 17395 bound_to 11000

$$$$
