AV-unprocessed.smi:2677|AV-procd|sdf|10365|dock7
  -GOLD-   2272014393D 1   1.00000     0.00000
 Structure written by MMmdl.
 40 41  0  0  0  0  0  0  0  0  1 V2000
  152.9359  142.7647  162.1754 C   0  0  0  0  0  0  0  0  0  0  0  0
  153.5904  142.3857  160.8426 C   0  0  0  0  0  0  0  0  0  0  0  0
  152.5938  142.2979  159.7247 C   0  0  0  0  0  0  0  0  0  0  0  0
  152.3771  141.0675  159.0989 N   0  0  0  0  0  0  0  0  0  0  0  0
  151.4681  141.1356  158.1237 C   0  0  0  0  0  0  0  0  0  0  0  0
  151.1053  139.9773  157.2499 C   0  0  0  0  0  0  0  0  0  0  0  0
  150.9705  140.3496  155.7605 C   0  0  0  0  0  0  0  0  0  0  0  0
  149.7048  139.8957  155.1935 N   0  0  0  0  0  0  0  0  0  0  0  0
  148.9722  140.5650  154.2882 C   0  0  0  0  0  0  0  0  0  0  0  0
  149.3782  141.5964  153.7513 O   0  0  0  0  0  0  0  0  0  0  0  0
  147.7685  140.0033  154.0094 N   0  0  0  0  0  0  0  0  0  0  0  0
  147.1842  138.8286  154.6775 C   0  0  0  0  0  0  0  0  0  0  0  0
  147.3590  137.5980  153.7737 C   0  0  0  0  0  0  0  0  0  0  0  0
  146.4592  137.8125  152.2063 S   0  0  0  0  0  0  0  0  0  0  0  0
  147.0672  139.4607  151.7274 C   0  0  0  0  0  0  0  0  0  0  0  0
  146.9373  140.4604  152.8893 C   0  0  0  0  0  0  0  0  0  0  0  0
  150.8096  142.7504  157.9076 S   0  0  0  0  0  0  0  0  0  0  0  0
  151.8221  143.3149  159.2122 C   0  0  0  0  0  0  0  0  0  0  0  0
  151.7882  144.7445  159.6405 C   0  0  0  0  0  0  0  0  0  0  0  0
  153.6790  142.8232  162.9709 H   0  0  0  0  0  0  0  0  0  0  0  0
  152.1883  142.0282  162.4713 H   0  0  0  0  0  0  0  0  0  0  0  0
  152.4428  143.7348  162.1077 H   0  0  0  0  0  0  0  0  0  0  0  0
  154.3661  143.1135  160.6031 H   0  0  0  0  0  0  0  0  0  0  0  0
  154.1061  141.4312  160.9560 H   0  0  0  0  0  0  0  0  0  0  0  0
  151.8649  139.2036  157.3692 H   0  0  0  0  0  0  0  0  0  0  0  0
  150.1708  139.5465  157.6098 H   0  0  0  0  0  0  0  0  0  0  0  0
  151.0954  141.4245  155.6205 H   0  0  0  0  0  0  0  0  0  0  0  0
  151.7701  139.8708  155.1948 H   0  0  0  0  0  0  0  0  0  0  0  0
  149.3167  139.0453  155.5749 H   0  0  0  0  0  0  0  0  0  0  0  0
  147.6143  138.6376  155.6612 H   0  0  0  0  0  0  0  0  0  0  0  0
  146.1241  139.0011  154.8686 H   0  0  0  0  0  0  0  0  0  0  0  0
  148.4148  137.4285  153.5599 H   0  0  0  0  0  0  0  0  0  0  0  0
  146.9853  136.7035  154.2719 H   0  0  0  0  0  0  0  0  0  0  0  0
  148.1082  139.3779  151.4127 H   0  0  0  0  0  0  0  0  0  0  0  0
  146.4988  139.8055  150.8636 H   0  0  0  0  0  0  0  0  0  0  0  0
  145.8956  140.5439  153.2024 H   0  0  0  0  0  0  0  0  0  0  0  0
  147.2172  141.4579  152.5475 H   0  0  0  0  0  0  0  0  0  0  0  0
  152.6782  145.2708  159.2953 H   0  0  0  0  0  0  0  0  0  0  0  0
  151.7478  144.8239  160.7268 H   0  0  0  0  0  0  0  0  0  0  0  0
  150.9153  145.2570  159.2360 H   0  0  0  0  0  0  0  0  0  0  0  0
  1  2  1  0  0  0  0
  1 20  1  0  0  0  0
  1 21  1  0  0  0  0
  1 22  1  0  0  0  0
  2  3  1  0  0  0  0
  2 23  1  0  0  0  0
  2 24  1  0  0  0  0
  3 18  2  0  0  0  0
  3  4  1  0  0  0  0
  4  5  2  0  0  0  0
  5  6  1  0  0  0  0
  5 17  1  0  0  0  0
  6  7  1  0  0  0  0
  6 25  1  0  0  0  0
  6 26  1  0  0  0  0
  7  8  1  0  0  0  0
  7 27  1  0  0  0  0
  7 28  1  0  0  0  0
  8  9  1  0  0  0  0
  8 29  1  0  0  0  0
  9 10  2  0  0  0  0
  9 11  1  0  0  0  0
 11 16  1  0  0  0  0
 11 12  1  0  0  0  0
 12 13  1  0  0  0  0
 12 30  1  0  0  0  0
 12 31  1  0  0  0  0
 13 14  1  0  0  0  0
 13 32  1  0  0  0  0
 13 33  1  0  0  0  0
 14 15  1  0  0  0  0
 15 16  1  0  0  0  0
 15 34  1  0  0  0  0
 15 35  1  0  0  0  0
 16 36  1  0  0  0  0
 16 37  1  0  0  0  0
 17 18  1  0  0  0  0
 18 19  1  0  0  0  0
 19 38  1  0  0  0  0
 19 39  1  0  0  0  0
 19 40  1  0  0  0  0
M  END
> <s_m_source_file>
AV-unprocessed.smi

> <i_m_source_file_index>
2677

> <i_lp_mmshare_version>
43012

> <i_f3d_flags>
0

> <s_epik_input>
W0NIM11bQ0gyXWMxbmMoc2MxW0NIM10pW0NIMl1bQ0gyXVtOSF1DKD1PKU4yW0NIMl1bQ0gyXVNbQ0gyXVtDSDJdMg==

> <s_epik_cmdline>
J2VwaWtfcHl0aG9uJywgJy1waCcsICc3LjAnLCAnLXRuJywgJzgnLCAnLW1hJywgJzIwMCcsICctbWV0YWxfYmluZGluZycsICctaW1hZScsICc8aW5maWxlLm1hZT4nLCAnLW9tYWUnLCAnPG91dGZpbGUubWFlPic=

> <r_epik_Ionization_Penalty>
0.00440659

> <r_epik_Ionization_Penalty_Charging>
0

> <r_epik_Ionization_Penalty_Neutral>
0.00440659

> <r_epik_State_Penalty>
0.00314229

> <r_epik_Charging_Adjusted_Penalty>
0.00314229

> <i_epik_Tot_Q>
0

> <i_epik_Tot_abs_Q>
0

> <r_epik_Metal_State_Penalty>
-0

> <b_epik_Metal_Only>
0

> <s_lp_Force_Field>
OPLS_2005

> <r_lp_Energy>
14.3594

> <b_lp_Chiralities_Consistent>
1

> <s_lp_Variant>
AV-unprocessed.smi:2677-1

> <Gold.Version>
5.8.1

> <Gold.Id.Protein>
6NUR|6NUR_protein|mol2

> <Gold.PLP.Fitness>
41.3991

> <Gold.PLP.PLP>
-39.9848

> <Gold.PLP.part.hbond>
-2.0000

> <Gold.PLP.part.metal>
0.0000

> <Gold.PLP.part.buried>
-0.7239

> <Gold.PLP.part.nonpolar>
-39.1025

> <Gold.PLP.part.repulsive>
1.5028

> <Gold.PLP.ligand.clash>
0.0000

> <Gold.PLP.ligand.torsion>
0.8193

> <Gold.PLP.Chemscore.Hbond>
1.0110

> <Gold.PLP.Chemscore.CHOScore>
0.0000

> <Gold.PLP.Chemscore.Metal>
0.0000

> <Gold.Chemscore.Hbonds>
donor molecule, donor type, donor heavy atom, donor atom, acceptor molecule, acceptor atom, score
      P1  H  7989  7998       L1    10  0.02
      P1  H  8011  8017       L1    10  0.70

> <Gold.PLP.Chemscore.Internal.Correction>
0.0199

> <Gold.Rescore>
     Score         DG    S(hbond)    S(metal)    S(lipo)     H(rot)  DE(clash)    DE(int)     intcor
     16.40     -17.54       0.93        0.00     107.26       1.40       0.44       0.69       ----

> <Gold.Chemscore.Fitness>
16.4050

> <Gold.Chemscore.DG>
-17.5380

> <Gold.Chemscore.ZeroCoef>
-5.4800

> <Gold.Chemscore.Hbond>
0.9259

> <Gold.Chemscore.Metal>
0.0000

> <Gold.Chemscore.Lipo>
107.2592

> <Gold.Chemscore.Internal_Hbond>
0.0000

> <Gold.Chemscore.DEClash>
0.4407

> <Gold.Chemscore.DEInternal>
0.6923

> <Gold.Chemscore.Rot>
1.4000

> <Gold.Chemscore.Internal.Correction>
   9.000000E+99

> <Gold.Chemscore.Hbonds>
donor molecule, donor type, donor heavy atom, donor atom, acceptor molecule, acceptor atom, score
      P1  H  8011  8017       L1    10  0.70

> <Gold.Chemscore.Hbond.Weighted>
-3.0926

> <Gold.Chemscore.Metal.Weighted>
-0.0000

> <Gold.Chemscore.Lipo.Weighted>
-12.5493

> <Gold.Chemscore.Internal_Hbond.Weighted>
0.0000

> <Gold.Chemscore.DEClash.Weighted>
0.4407

> <Gold.Chemscore.DEInternal.Weighted>
0.6923

> <Gold.Chemscore.Rot.Weighted>
3.5839

> <Gold.Chemscore.Internal.Correction.Weighted>
   9.000000E+99

> <Gold.Protein.RotatedTorsions>
[ 6907 6896 6895 6894 ] final  120.14 input  -60.11 | X-H torsion
[ 7974 7965 7964 7962 ] final  110.79 input  175.53 | X-H torsion
[ 8008 7997 7996 7995 ] final   82.39 input   59.86 | X-H torsion
[ 10167 10162 10161 10158 ] final  -65.76 input  -65.29 | X-H torsion
[ 10718 10713 10712 10709 ] final  -87.86 input   66.30 | X-H torsion
[ 10763 10752 10751 10750 ] final   23.64 input  -60.55 | X-H torsion
[ 11005 11000 10999 10996 ] final  155.88 input  -57.11 | X-H torsion

> <Gold.Protein.ActiveResidues>
 VAL166  LYS551  ARG553  GLY616  TRP617  ASP618  TYR619  PRO620  LYS621  CYS622 
 ASP623  PHE694  ASN695  SER759  ASP760  ASP761  ALA762  ILE779  LEU786  VAL792 
 PHE793  MET794  SER795  GLU796  ALA797  LYS798  CYS799  TRP800  GLU811  SER814 

> <Gold.Protein.RotatedAtoms>
  152.4420  133.7466  159.6670 H   0  0  0  0  0  0  0  0  0  0  0  0  # atno 6907 bound_to 6896
  150.8313  133.8076  159.3103 H   0  0  0  0  0  0  0  0  0  0  0  0  # atno 6908 bound_to 6896
  151.5729  135.1064  160.0051 H   0  0  0  0  0  0  0  0  0  0  0  0  # atno 6909 bound_to 6896
  145.2505  139.2742  143.4070 H   0  0  0  0  0  0  0  0  0  0  0  0  # atno 7974 bound_to 7965
  155.9100  140.3428  155.6091 H   0  0  0  0  0  0  0  0  0  0  0  0  # atno 8008 bound_to 7997
  155.7399  140.0806  157.2269 H   0  0  0  0  0  0  0  0  0  0  0  0  # atno 8009 bound_to 7997
  154.4054  140.1572  156.2591 H   0  0  0  0  0  0  0  0  0  0  0  0  # atno 8010 bound_to 7997
  140.5706  143.2317  151.6545 H   0  0  0  0  0  0  0  0  0  0  0  0  # atno 10167 bound_to 10162
  155.9984  130.4815  150.4931 H   0  0  0  0  0  0  0  0  0  0  0  0  # atno 10718 bound_to 10713
  153.0823  135.6622  154.0019 H   0  0  0  0  0  0  0  0  0  0  0  0  # atno 10763 bound_to 10752
  153.9638  135.2971  155.3433 H   0  0  0  0  0  0  0  0  0  0  0  0  # atno 10764 bound_to 10752
  154.7225  135.5158  153.8906 H   0  0  0  0  0  0  0  0  0  0  0  0  # atno 10765 bound_to 10752
  140.1622  134.8601  157.2588 H   0  0  0  0  0  0  0  0  0  0  0  0  # atno 11005 bound_to 11000
  146.3304  140.2894  142.8614 LP  0  0  0  0  0  0  0  0  0  0  0  0  # atno 17320 bound_to 7965
  144.9507  140.8176  143.5573 LP  0  0  0  0  0  0  0  0  0  0  0  0  # atno 17321 bound_to 7965
  139.5116  144.3505  152.0657 LP  0  0  0  0  0  0  0  0  0  0  0  0  # atno 17342 bound_to 10162
  140.2642  144.4034  150.6174 LP  0  0  0  0  0  0  0  0  0  0  0  0  # atno 17343 bound_to 10162
  157.2924  131.0629  151.2125 LP  0  0  0  0  0  0  0  0  0  0  0  0  # atno 17370 bound_to 10713
  157.3133  130.6900  149.6228 LP  0  0  0  0  0  0  0  0  0  0  0  0  # atno 17371 bound_to 10713
  140.2476  134.3721  155.7455 LP  0  0  0  0  0  0  0  0  0  0  0  0  # atno 17394 bound_to 11000
  141.2210  133.7299  156.8885 LP  0  0  0  0  0  0  0  0  0  0  0  0  # atno 17395 bound_to 11000

$$$$
