AV-unprocessed.smi:3263|AV-procd|sdf|12488|dock8
  -GOLD-   2272018383D 1   1.00000     0.00000
 Structure written by MMmdl.
 41 43  0  0  0  0  0  0  0  0  1 V2000
  149.4555  141.9361  156.8151 O   0  0  0  0  0  0  0  0  0  0  0  0
  150.4584  141.2338  156.6859 C   0  0  0  0  0  0  0  0  0  0  0  0
  151.6179  141.3477  157.6813 C   0  0  0  0  0  0  0  0  0  0  0  0
  151.3737  142.3952  158.7910 C   0  0  2  0  0  0  0  0  0  0  0  0
  151.0082  143.8049  158.2649 C   0  0  0  0  0  0  0  0  0  0  0  0
  152.0585  144.7105  158.9327 C   0  0  1  0  0  0  0  0  0  0  0  0
  151.7853  144.7894  160.4461 C   0  0  0  0  0  0  0  0  0  0  0  0
  152.2120  143.3944  160.9404 C   0  0  0  0  0  0  0  0  0  0  0  0
  152.6341  142.6874  159.6378 C   0  0  2  0  0  0  0  0  0  0  0  0
  153.3006  143.8311  158.8785 C   0  0  0  0  0  0  0  0  0  0  0  0
  150.6082  140.3392  155.6972 N   0  0  0  0  0  0  0  0  0  0  0  0
  149.6307  140.0796  154.6472 C   0  0  0  0  0  0  0  0  0  0  0  0
  148.2571  139.7105  155.2315 C   0  0  0  0  0  0  0  0  0  0  0  0
  147.2284  140.8028  155.0092 C   0  0  0  0  0  0  0  0  0  0  0  0
  147.4345  141.7991  154.0311 C   0  0  0  0  0  0  0  0  0  0  0  0
  146.4442  142.7857  153.8595 C   0  0  0  0  0  0  0  0  0  0  0  0
  145.2914  142.7375  154.6668 C   0  0  0  0  0  0  0  0  0  0  0  0
  145.1803  141.7008  155.6148 C   0  0  0  0  0  0  0  0  0  0  0  0
  146.1240  140.7504  155.7880 N   0  0  0  0  0  0  0  0  0  0  0  0
  151.7639  140.3663  158.1336 H   0  0  0  0  0  0  0  0  0  0  0  0
  152.5394  141.5763  157.1442 H   0  0  0  0  0  0  0  0  0  0  0  0
  150.5813  142.0257  159.4445 H   0  0  0  0  0  0  0  0  0  0  0  0
  151.1023  143.8631  157.1797 H   0  0  0  0  0  0  0  0  0  0  0  0
  149.9881  144.0912  158.5229 H   0  0  0  0  0  0  0  0  0  0  0  0
  152.1622  145.6850  158.4546 H   0  0  0  0  0  0  0  0  0  0  0  0
  152.3946  145.5644  160.9131 H   0  0  0  0  0  0  0  0  0  0  0  0
  150.7393  145.0067  160.6655 H   0  0  0  0  0  0  0  0  0  0  0  0
  153.0558  143.4742  161.6270 H   0  0  0  0  0  0  0  0  0  0  0  0
  151.4089  142.8715  161.4612 H   0  0  0  0  0  0  0  0  0  0  0  0
  153.2673  141.8160  159.8072 H   0  0  0  0  0  0  0  0  0  0  0  0
  153.6015  143.5683  157.8633 H   0  0  0  0  0  0  0  0  0  0  0  0
  154.1567  144.2588  159.4035 H   0  0  0  0  0  0  0  0  0  0  0  0
  151.4628  139.8023  155.6673 H   0  0  0  0  0  0  0  0  0  0  0  0
  149.5463  140.9468  153.9898 H   0  0  0  0  0  0  0  0  0  0  0  0
  150.0068  139.2608  154.0334 H   0  0  0  0  0  0  0  0  0  0  0  0
  147.8940  138.7862  154.7795 H   0  0  0  0  0  0  0  0  0  0  0  0
  148.3423  139.5149  156.3014 H   0  0  0  0  0  0  0  0  0  0  0  0
  148.3285  141.8078  153.4246 H   0  0  0  0  0  0  0  0  0  0  0  0
  146.5667  143.5647  153.1213 H   0  0  0  0  0  0  0  0  0  0  0  0
  144.5112  143.4767  154.5619 H   0  0  0  0  0  0  0  0  0  0  0  0
  144.3099  141.6326  156.2505 H   0  0  0  0  0  0  0  0  0  0  0  0
  1  2  2  0  0  0  0
  2  3  1  0  0  0  0
  2 11  1  0  0  0  0
  3  4  1  0  0  0  0
  3 20  1  0  0  0  0
  3 21  1  0  0  0  0
  4  9  1  0  0  0  0
  4  5  1  0  0  0  0
  4 22  1  0  0  0  0
  5  6  1  0  0  0  0
  5 23  1  0  0  0  0
  5 24  1  0  0  0  0
  6 10  1  0  0  0  0
  6  7  1  0  0  0  0
  6 25  1  0  0  0  0
  7  8  1  0  0  0  0
  7 26  1  0  0  0  0
  7 27  1  0  0  0  0
  8  9  1  0  0  0  0
  8 28  1  0  0  0  0
  8 29  1  0  0  0  0
  9 10  1  0  0  0  0
  9 30  1  0  0  0  0
 10 31  1  0  0  0  0
 10 32  1  0  0  0  0
 11 12  1  0  0  0  0
 11 33  1  0  0  0  0
 12 13  1  0  0  0  0
 12 34  1  0  0  0  0
 12 35  1  0  0  0  0
 13 14  1  0  0  0  0
 13 36  1  0  0  0  0
 13 37  1  0  0  0  0
 14 19  1  0  0  0  0
 14 15  2  0  0  0  0
 15 16  1  0  0  0  0
 15 38  1  0  0  0  0
 16 17  2  0  0  0  0
 16 39  1  0  0  0  0
 17 18  1  0  0  0  0
 17 40  1  0  0  0  0
 18 19  2  0  0  0  0
 18 41  1  0  0  0  0
M  END
> <s_m_source_file>
AV-unprocessed.smi

> <i_m_source_file_index>
3263

> <i_lp_mmshare_version>
43012

> <i_f3d_flags>
0

> <s_epik_input>
W0NIMl0xW0NIMl1bQ0BASF0oW0NIMl0yKVtDQEBIXShbQ0gyXVtDQEhdMTIpW0NIMl1DKD1PKVtOSF1bQ0gyXVtDSDJdYzNbY0hdW2NIXVtjSF1bY0hdbjM=

> <s_epik_cmdline>
J2VwaWtfcHl0aG9uJywgJy1waCcsICc3LjAnLCAnLXRuJywgJzgnLCAnLW1hJywgJzIwMCcsICctbWV0YWxfYmluZGluZycsICctaW1hZScsICc8aW5maWxlLm1hZT4nLCAnLW9tYWUnLCAnPG91dGZpbGUubWFlPic=

> <r_epik_Ionization_Penalty>
0.0273541

> <r_epik_Ionization_Penalty_Charging>
0

> <r_epik_Ionization_Penalty_Neutral>
0.0273541

> <r_epik_State_Penalty>
0.0223838

> <r_epik_Charging_Adjusted_Penalty>
0.0223838

> <i_epik_Tot_Q>
0

> <i_epik_Tot_abs_Q>
0

> <r_epik_Metal_State_Penalty>
0.0213927

> <b_epik_Metal_Only>
0

> <s_lp_Force_Field>
OPLS_2005

> <r_lp_Energy>
45.3245

> <b_lp_Chiralities_Consistent>
1

> <s_lp_Variant>
AV-unprocessed.smi:3263-3

> <Gold.Version>
5.8.1

> <Gold.Id.Protein>
6NUR|6NUR_protein|mol2

> <Gold.PLP.Fitness>
41.7983

> <Gold.PLP.PLP>
-43.0454

> <Gold.PLP.part.hbond>
0.0000

> <Gold.PLP.part.metal>
0.0000

> <Gold.PLP.part.buried>
-7.2298

> <Gold.PLP.part.nonpolar>
-36.0181

> <Gold.PLP.part.repulsive>
1.1123

> <Gold.PLP.ligand.clash>
0.0000

> <Gold.PLP.ligand.torsion>
0.6413

> <Gold.PLP.Chemscore.Hbond>
0.0000

> <Gold.PLP.Chemscore.CHOScore>
0.0000

> <Gold.PLP.Chemscore.Metal>
0.0000

> <Gold.PLP.Chemscore.Internal.Correction>
0.0354

> <Gold.Rescore>
     Score         DG    S(hbond)    S(metal)    S(lipo)     H(rot)  DE(clash)    DE(int)     intcor
     14.18     -16.44       0.00        0.00     125.49       1.46       0.25       2.01       ----

> <Gold.Chemscore.Fitness>
14.1751

> <Gold.Chemscore.DG>
-16.4365

> <Gold.Chemscore.ZeroCoef>
-5.4800

> <Gold.Chemscore.Hbond>
0.0000

> <Gold.Chemscore.Metal>
0.0000

> <Gold.Chemscore.Lipo>
125.4915

> <Gold.Chemscore.Internal_Hbond>
0.0000

> <Gold.Chemscore.DEClash>
0.2483

> <Gold.Chemscore.DEInternal>
2.0131

> <Gold.Chemscore.Rot>
1.4555

> <Gold.Chemscore.Internal.Correction>
   9.000000E+99

> <Gold.Chemscore.Hbond.Weighted>
-0.0000

> <Gold.Chemscore.Metal.Weighted>
-0.0000

> <Gold.Chemscore.Lipo.Weighted>
-14.6825

> <Gold.Chemscore.Internal_Hbond.Weighted>
0.0000

> <Gold.Chemscore.DEClash.Weighted>
0.2483

> <Gold.Chemscore.DEInternal.Weighted>
2.0131

> <Gold.Chemscore.Rot.Weighted>
3.7260

> <Gold.Chemscore.Internal.Correction.Weighted>
   9.000000E+99

> <Gold.Protein.RotatedTorsions>
[ 6907 6896 6895 6894 ] final  -91.16 input  -60.11 | X-H torsion
[ 7974 7965 7964 7962 ] final -155.81 input  175.53 | X-H torsion
[ 8008 7997 7996 7995 ] final  -42.67 input   59.86 | X-H torsion
[ 10167 10162 10161 10158 ] final    8.55 input  -65.29 | X-H torsion
[ 10718 10713 10712 10709 ] final    8.59 input   66.30 | X-H torsion
[ 10763 10752 10751 10750 ] final   69.72 input  -60.55 | X-H torsion
[ 11005 11000 10999 10996 ] final   12.54 input  -57.11 | X-H torsion

> <Gold.Protein.ActiveResidues>
 VAL166  LYS551  ARG553  GLY616  TRP617  ASP618  TYR619  PRO620  LYS621  CYS622 
 ASP623  PHE694  ASN695  SER759  ASP760  ASP761  ALA762  ILE779  LEU786  VAL792 
 PHE793  MET794  SER795  GLU796  ALA797  LYS798  CYS799  TRP800  GLU811  SER814 

> <Gold.Protein.RotatedAtoms>
  150.6889  134.2320  159.4438 H   0  0  0  0  0  0  0  0  0  0  0  0  # atno 6907 bound_to 6896
  152.0270  134.9787  160.0581 H   0  0  0  0  0  0  0  0  0  0  0  0  # atno 6908 bound_to 6896
  152.1341  133.4390  159.4772 H   0  0  0  0  0  0  0  0  0  0  0  0  # atno 6909 bound_to 6896
  144.7622  140.4197  143.5968 H   0  0  0  0  0  0  0  0  0  0  0  0  # atno 7974 bound_to 7965
  154.3998  140.1467  156.3394 H   0  0  0  0  0  0  0  0  0  0  0  0  # atno 8008 bound_to 7997
  155.8370  140.3463  155.5587 H   0  0  0  0  0  0  0  0  0  0  0  0  # atno 8009 bound_to 7997
  155.8127  140.0886  157.1885 H   0  0  0  0  0  0  0  0  0  0  0  0  # atno 8010 bound_to 7997
  140.6307  143.7999  150.7292 H   0  0  0  0  0  0  0  0  0  0  0  0  # atno 10167 bound_to 10162
  156.9539  130.5907  149.5658 H   0  0  0  0  0  0  0  0  0  0  0  0  # atno 10718 bound_to 10713
  153.0302  135.5200  154.7331 H   0  0  0  0  0  0  0  0  0  0  0  0  # atno 10763 bound_to 10752
  154.6353  135.2905  155.0171 H   0  0  0  0  0  0  0  0  0  0  0  0  # atno 10764 bound_to 10752
  154.1108  135.6622  153.4937 H   0  0  0  0  0  0  0  0  0  0  0  0  # atno 10765 bound_to 10752
  140.4908  134.0842  155.7771 H   0  0  0  0  0  0  0  0  0  0  0  0  # atno 11005 bound_to 11000
  145.6582  139.1577  143.2823 LP  0  0  0  0  0  0  0  0  0  0  0  0  # atno 17320 bound_to 7965
  146.1696  140.6665  142.9239 LP  0  0  0  0  0  0  0  0  0  0  0  0  # atno 17321 bound_to 7965
  140.1610  143.4275  152.2067 LP  0  0  0  0  0  0  0  0  0  0  0  0  # atno 17342 bound_to 10162
  139.5522  144.7346  151.4401 LP  0  0  0  0  0  0  0  0  0  0  0  0  # atno 17343 bound_to 10162
  156.0351  130.5439  150.8632 LP  0  0  0  0  0  0  0  0  0  0  0  0  # atno 17370 bound_to 10713
  157.5703  131.0946  150.9428 LP  0  0  0  0  0  0  0  0  0  0  0  0  # atno 17371 bound_to 10713
  141.1485  133.9012  157.2157 LP  0  0  0  0  0  0  0  0  0  0  0  0  # atno 17394 bound_to 11000
  139.9770  135.0110  156.9656 LP  0  0  0  0  0  0  0  0  0  0  0  0  # atno 17395 bound_to 11000

$$$$
