AV-unprocessed.smi:929|AV-procd|sdf|4195|dock5
  -GOLD-   22720 2103D 1   1.00000     0.00000
 Structure written by MMmdl.
 34 35  0  0  0  0  0  0  0  0  1 V2000
  153.5072  142.2780  161.4673 C   0  0  0  0  0  0  0  0  0  0  0  0
  152.6457  143.0087  160.4850 C   0  0  0  0  0  0  0  0  0  0  0  0
  151.9485  142.3927  159.3977 C   0  0  0  0  0  0  0  0  0  0  0  0
  151.2310  143.2972  158.6550 C   0  0  0  0  0  0  0  0  0  0  0  0
  150.4391  143.1477  157.5639 N   0  0  0  0  0  0  0  0  0  0  0  0
  149.9995  142.0038  157.0127 C   0  0  0  0  0  0  0  0  0  0  0  0
  150.2777  140.8706  157.4060 O   0  0  0  0  0  0  0  0  0  0  0  0
  149.2032  142.2471  155.9611 N   0  0  0  0  0  0  0  0  0  0  0  0
  148.5317  141.2264  155.1586 C   0  0  0  0  0  0  0  0  0  0  0  0
  147.6105  141.8118  154.0715 C   0  0  0  0  0  0  0  0  0  0  0  0
  147.8479  141.5956  152.8815 O   0  0  0  0  0  0  0  0  0  0  0  0
  146.5491  142.5449  154.4659 N   0  0  0  0  0  0  0  0  0  0  0  0
  145.5825  143.1941  153.5806 C   0  0  0  0  0  0  0  0  0  0  0  0
  144.7407  144.0985  154.4817 C   0  0  0  0  0  0  0  0  0  0  0  0
  144.8337  143.4468  155.8543 C   0  0  0  0  0  0  0  0  0  0  0  0
  146.2191  142.8005  155.8666 C   0  0  0  0  0  0  0  0  0  0  0  0
  151.4832  144.8555  159.3705 S   0  0  0  0  0  0  0  0  0  0  0  0
  152.4949  144.3118  160.5938 N   0  0  0  0  0  0  0  0  0  0  0  0
  153.3570  141.1999  161.4045 H   0  0  0  0  0  0  0  0  0  0  0  0
  153.2851  142.5794  162.4913 H   0  0  0  0  0  0  0  0  0  0  0  0
  154.5639  142.4744  161.2850 H   0  0  0  0  0  0  0  0  0  0  0  0
  152.0048  141.3299  159.2175 H   0  0  0  0  0  0  0  0  0  0  0  0
  150.1363  144.0051  157.1254 H   0  0  0  0  0  0  0  0  0  0  0  0
  149.0244  143.2088  155.7122 H   0  0  0  0  0  0  0  0  0  0  0  0
  149.2995  140.6196  154.6783 H   0  0  0  0  0  0  0  0  0  0  0  0
  147.9655  140.5608  155.8122 H   0  0  0  0  0  0  0  0  0  0  0  0
  146.0648  143.7700  152.7898 H   0  0  0  0  0  0  0  0  0  0  0  0
  144.9556  142.4320  153.1157 H   0  0  0  0  0  0  0  0  0  0  0  0
  145.1872  145.0931  154.5205 H   0  0  0  0  0  0  0  0  0  0  0  0
  143.7135  144.2064  154.1321 H   0  0  0  0  0  0  0  0  0  0  0  0
  144.6893  144.1548  156.6709 H   0  0  0  0  0  0  0  0  0  0  0  0
  144.0690  142.6739  155.9429 H   0  0  0  0  0  0  0  0  0  0  0  0
  146.2250  141.8872  156.4639 H   0  0  0  0  0  0  0  0  0  0  0  0
  146.9585  143.4849  156.2854 H   0  0  0  0  0  0  0  0  0  0  0  0
  1  2  1  0  0  0  0
  1 19  1  0  0  0  0
  1 20  1  0  0  0  0
  1 21  1  0  0  0  0
  2 18  2  0  0  0  0
  2  3  1  0  0  0  0
  3  4  2  0  0  0  0
  3 22  1  0  0  0  0
  4  5  1  0  0  0  0
  4 17  1  0  0  0  0
  5  6  1  0  0  0  0
  5 23  1  0  0  0  0
  6  7  2  0  0  0  0
  6  8  1  0  0  0  0
  8  9  1  0  0  0  0
  8 24  1  0  0  0  0
  9 10  1  0  0  0  0
  9 25  1  0  0  0  0
  9 26  1  0  0  0  0
 10 11  2  0  0  0  0
 10 12  1  0  0  0  0
 12 16  1  0  0  0  0
 12 13  1  0  0  0  0
 13 14  1  0  0  0  0
 13 27  1  0  0  0  0
 13 28  1  0  0  0  0
 14 15  1  0  0  0  0
 14 29  1  0  0  0  0
 14 30  1  0  0  0  0
 15 16  1  0  0  0  0
 15 31  1  0  0  0  0
 15 32  1  0  0  0  0
 16 33  1  0  0  0  0
 16 34  1  0  0  0  0
 17 18  1  0  0  0  0
M  END
> <s_m_source_file>
AV-unprocessed.smi

> <i_m_source_file_index>
929

> <i_lp_mmshare_version>
43012

> <i_f3d_flags>
0

> <s_epik_input>
W0NIM11jMVtjSF1jKHNuMSlbTkhdQyg9TylbTkhdW0NIMl1DKD1PKU4yW0NIMl1bQ0gyXVtDSDJdW0NIMl0y

> <s_epik_cmdline>
J2VwaWtfcHl0aG9uJywgJy1waCcsICc3LjAnLCAnLXRuJywgJzgnLCAnLW1hJywgJzIwMCcsICctbWV0YWxfYmluZGluZycsICctaW1hZScsICc8aW5maWxlLm1hZT4nLCAnLW9tYWUnLCAnPG91dGZpbGUubWFlPic=

> <r_lp_tautomer_probability>
1

> <r_epik_Ionization_Penalty>
3.14678e-05

> <r_epik_Ionization_Penalty_Charging>
0

> <r_epik_Ionization_Penalty_Neutral>
3.14678e-05

> <r_epik_State_Penalty>
-0

> <r_epik_Charging_Adjusted_Penalty>
0

> <i_epik_Tot_Q>
0

> <i_epik_Tot_abs_Q>
0

> <r_epik_Metal_State_Penalty>
-0

> <b_epik_Metal_Only>
0

> <s_lp_Force_Field>
OPLS_2005

> <r_lp_Energy>
23.5851

> <b_lp_Chiralities_Consistent>
1

> <s_lp_Variant>
AV-unprocessed.smi:929-1

> <Gold.Version>
5.8.1

> <Gold.Id.Protein>
6NUR|6NUR_protein|mol2

> <Gold.PLP.Fitness>
40.3474

> <Gold.PLP.PLP>
-33.7189

> <Gold.PLP.part.hbond>
-2.9384

> <Gold.PLP.part.metal>
0.0000

> <Gold.PLP.part.buried>
-0.5189

> <Gold.PLP.part.nonpolar>
-31.3288

> <Gold.PLP.part.repulsive>
1.9585

> <Gold.PLP.ligand.clash>
0.0000

> <Gold.PLP.ligand.torsion>
0.0389

> <Gold.PLP.Chemscore.Hbond>
2.2339

> <Gold.PLP.Chemscore.CHOScore>
0.0000

> <Gold.PLP.Chemscore.Metal>
0.0000

> <Gold.Chemscore.Hbonds>
donor molecule, donor type, donor heavy atom, donor atom, acceptor molecule, acceptor atom, score
      L1  H     5    23       P1  8028  0.86
      L1  H     8    24       P1  8028  0.96
      P1  H  8011  8017       L1    11  0.37

> <Gold.PLP.Chemscore.Internal.Correction>
0.0046

> <Gold.Rescore>
     Score         DG    S(hbond)    S(metal)    S(lipo)     H(rot)  DE(clash)    DE(int)     intcor
     14.93     -17.77       1.94        0.00      77.86       1.29       1.77       1.07       ----

> <Gold.Chemscore.Fitness>
14.9324

> <Gold.Chemscore.DG>
-17.7651

> <Gold.Chemscore.ZeroCoef>
-5.4800

> <Gold.Chemscore.Hbond>
1.9420

> <Gold.Chemscore.Metal>
0.0000

> <Gold.Chemscore.Lipo>
77.8563

> <Gold.Chemscore.Internal_Hbond>
0.0000

> <Gold.Chemscore.DEClash>
1.7664

> <Gold.Chemscore.DEInternal>
1.0663

> <Gold.Chemscore.Rot>
1.2931

> <Gold.Chemscore.Internal.Correction>
   9.000000E+99

> <Gold.Chemscore.Hbonds>
donor molecule, donor type, donor heavy atom, donor atom, acceptor molecule, acceptor atom, score
      L1  H     5    23       P1  8028  0.71
      L1  H     8    24       P1  8028  0.91
      P1  H  8011  8017       L1    11  0.29

> <Gold.Chemscore.Hbond.Weighted>
-6.4863

> <Gold.Chemscore.Metal.Weighted>
-0.0000

> <Gold.Chemscore.Lipo.Weighted>
-9.1092

> <Gold.Chemscore.Internal_Hbond.Weighted>
0.0000

> <Gold.Chemscore.DEClash.Weighted>
1.7664

> <Gold.Chemscore.DEInternal.Weighted>
1.0663

> <Gold.Chemscore.Rot.Weighted>
3.3105

> <Gold.Chemscore.Internal.Correction.Weighted>
   9.000000E+99

> <Gold.Protein.RotatedTorsions>
[ 6907 6896 6895 6894 ] final  107.80 input  -60.11 | X-H torsion
[ 7974 7965 7964 7962 ] final  -41.88 input  175.53 | X-H torsion
[ 8008 7997 7996 7995 ] final   54.74 input   59.86 | X-H torsion
[ 10167 10162 10161 10158 ] final  107.06 input  -65.29 | X-H torsion
[ 10718 10713 10712 10709 ] final -110.51 input   66.30 | X-H torsion
[ 10763 10752 10751 10750 ] final   -7.42 input  -60.55 | X-H torsion
[ 11005 11000 10999 10996 ] final    2.82 input  -57.11 | X-H torsion

> <Gold.Protein.ActiveResidues>
 VAL166  LYS551  ARG553  GLY616  TRP617  ASP618  TYR619  PRO620  LYS621  CYS622 
 ASP623  PHE694  ASN695  SER759  ASP760  ASP761  ALA762  ILE779  LEU786  VAL792 
 PHE793  MET794  SER795  GLU796  ALA797  LYS798  CYS799  TRP800  GLU811  SER814 

> <Gold.Protein.RotatedAtoms>
  152.5139  133.9182  159.7521 H   0  0  0  0  0  0  0  0  0  0  0  0  # atno 6907 bound_to 6896
  150.9560  133.6489  159.2770 H   0  0  0  0  0  0  0  0  0  0  0  0  # atno 6908 bound_to 6896
  151.3751  135.0935  159.9531 H   0  0  0  0  0  0  0  0  0  0  0  0  # atno 6909 bound_to 6896
  146.0168  140.6898  142.9197 H   0  0  0  0  0  0  0  0  0  0  0  0  # atno 7974 bound_to 7965
  155.4896  140.3471  155.4353 H   0  0  0  0  0  0  0  0  0  0  0  0  # atno 8008 bound_to 7997
  156.0985  140.1429  156.9527 H   0  0  0  0  0  0  0  0  0  0  0  0  # atno 8009 bound_to 7997
  154.4679  140.0911  156.7045 H   0  0  0  0  0  0  0  0  0  0  0  0  # atno 8010 bound_to 7997
  139.6958  144.7101  151.1269 H   0  0  0  0  0  0  0  0  0  0  0  0  # atno 10167 bound_to 10162
  156.0595  130.5819  150.8247 H   0  0  0  0  0  0  0  0  0  0  0  0  # atno 10718 bound_to 10713
  153.4261  135.7011  153.6262 H   0  0  0  0  0  0  0  0  0  0  0  0  # atno 10763 bound_to 10752
  153.4696  135.3718  155.2384 H   0  0  0  0  0  0  0  0  0  0  0  0  # atno 10764 bound_to 10752
  154.8724  135.4040  154.3637 H   0  0  0  0  0  0  0  0  0  0  0  0  # atno 10765 bound_to 10752
  140.6000  133.9845  155.8127 H   0  0  0  0  0  0  0  0  0  0  0  0  # atno 11005 bound_to 11000
  144.6974  140.3496  143.7184 LP  0  0  0  0  0  0  0  0  0  0  0  0  # atno 17320 bound_to 7965
  145.7255  139.1721  143.2460 LP  0  0  0  0  0  0  0  0  0  0  0  0  # atno 17321 bound_to 7965
  140.7696  143.5493  150.9222 LP  0  0  0  0  0  0  0  0  0  0  0  0  # atno 17342 bound_to 10162
  139.9173  143.6648  152.3104 LP  0  0  0  0  0  0  0  0  0  0  0  0  # atno 17343 bound_to 10162
  157.5592  131.0945  150.9584 LP  0  0  0  0  0  0  0  0  0  0  0  0  # atno 17370 bound_to 10713
  156.9826  130.5532  149.5297 LP  0  0  0  0  0  0  0  0  0  0  0  0  # atno 17371 bound_to 10713
  141.0878  133.9963  157.3285 LP  0  0  0  0  0  0  0  0  0  0  0  0  # atno 17394 bound_to 11000
  139.9236  135.0201  156.8155 LP  0  0  0  0  0  0  0  0  0  0  0  0  # atno 17395 bound_to 11000

$$$$
