AV-unprocessed.smi:1662|AV-procd|sdf|6658|dock5
  -GOLD-   22720 7363D 1   1.00000     0.00000
 Structure written by MMmdl.
 47 48  0  0  0  0  0  0  0  0  1 V2000
  145.3100  144.3594  153.3012 C   0  0  0  0  0  0  0  0  0  0  0  0
  145.6670  143.2150  154.2111 C   0  0  0  0  0  0  0  0  0  0  0  0
  146.8776  142.7689  154.1339 N   0  0  0  0  0  0  0  0  0  0  0  0
  147.3089  141.7184  154.9203 N   0  0  0  0  0  0  0  0  0  0  0  0
  148.7081  141.3300  154.6897 C   0  0  0  0  0  0  0  0  0  0  0  0
  149.4894  141.0921  155.9897 C   0  0  0  0  0  0  0  0  0  0  0  0
  149.8182  139.9536  156.3260 O   0  0  0  0  0  0  0  0  0  0  0  0
  149.7888  142.1866  156.7053 N   0  0  0  0  0  0  0  0  0  0  0  0
  150.4939  142.1940  157.9850 C   0  0  1  0  0  0  0  0  0  0  0  0
  151.7274  141.2738  157.9058 C   0  0  0  0  0  0  0  0  0  0  0  0
  152.4771  141.2310  159.2457 C   0  0  0  0  0  0  0  0  0  0  0  0
  152.8573  142.6405  159.7253 C   0  0  0  0  0  0  0  0  0  0  0  0
  151.6244  143.5640  159.7973 C   0  0  1  0  0  0  0  0  0  0  0  0
  151.9788  144.9455  160.3726 C   0  0  0  0  0  0  0  0  0  0  0  0
  150.8783  143.6305  158.4377 C   0  0  1  0  0  0  0  0  0  0  0  0
  151.6388  144.4286  157.3524 C   0  0  0  0  0  0  0  0  0  0  0  0
  146.5370  141.0673  155.8382 C   0  0  0  0  0  0  0  0  0  0  0  0
  146.9663  140.1390  156.5254 O   0  0  0  0  0  0  0  0  0  0  0  0
  145.1668  141.5776  155.9200 C   0  0  0  0  0  0  0  0  0  0  0  0
  144.3222  140.9182  156.8629 C   0  0  0  0  0  0  0  0  0  0  0  0
  143.6448  140.3954  157.6428 N   0  0  0  0  0  0  0  0  0  0  0  0
  144.7305  142.6065  155.1508 C   0  0  0  0  0  0  0  0  0  0  0  0
  143.3180  143.1729  155.1987 C   0  0  0  0  0  0  0  0  0  0  0  0
  145.0985  145.2594  153.8784 H   0  0  0  0  0  0  0  0  0  0  0  0
  144.4278  144.1228  152.7066 H   0  0  0  0  0  0  0  0  0  0  0  0
  146.1182  144.5942  152.6071 H   0  0  0  0  0  0  0  0  0  0  0  0
  148.7569  140.4157  154.0957 H   0  0  0  0  0  0  0  0  0  0  0  0
  149.2089  142.0944  154.0920 H   0  0  0  0  0  0  0  0  0  0  0  0
  149.4850  143.0815  156.3500 H   0  0  0  0  0  0  0  0  0  0  0  0
  149.8244  141.7686  158.7356 H   0  0  0  0  0  0  0  0  0  0  0  0
  151.4210  140.2638  157.6307 H   0  0  0  0  0  0  0  0  0  0  0  0
  152.4027  141.6123  157.1192 H   0  0  0  0  0  0  0  0  0  0  0  0
  151.8496  140.7491  159.9965 H   0  0  0  0  0  0  0  0  0  0  0  0
  153.3722  140.6156  159.1519 H   0  0  0  0  0  0  0  0  0  0  0  0
  153.3270  142.5715  160.7070 H   0  0  0  0  0  0  0  0  0  0  0  0
  153.6085  143.0660  159.0592 H   0  0  0  0  0  0  0  0  0  0  0  0
  150.9331  143.1116  160.5101 H   0  0  0  0  0  0  0  0  0  0  0  0
  152.7499  145.4445  159.7855 H   0  0  0  0  0  0  0  0  0  0  0  0
  152.3556  144.8559  161.3917 H   0  0  0  0  0  0  0  0  0  0  0  0
  151.1039  145.5957  160.4028 H   0  0  0  0  0  0  0  0  0  0  0  0
  149.9478  144.1720  158.6148 H   0  0  0  0  0  0  0  0  0  0  0  0
  152.6042  143.9828  157.1156 H   0  0  0  0  0  0  0  0  0  0  0  0
  151.8181  145.4565  157.6651 H   0  0  0  0  0  0  0  0  0  0  0  0
  151.0690  144.4883  156.4252 H   0  0  0  0  0  0  0  0  0  0  0  0
  142.7193  142.7223  155.9899 H   0  0  0  0  0  0  0  0  0  0  0  0
  142.8043  142.9931  154.2536 H   0  0  0  0  0  0  0  0  0  0  0  0
  143.3390  144.2480  155.3803 H   0  0  0  0  0  0  0  0  0  0  0  0
  1  2  1  0  0  0  0
  1 24  1  0  0  0  0
  1 25  1  0  0  0  0
  1 26  1  0  0  0  0
  2 22  1  0  0  0  0
  2  3  2  0  0  0  0
  3  4  1  0  0  0  0
  4  5  1  0  0  0  0
  4 17  1  0  0  0  0
  5  6  1  0  0  0  0
  5 27  1  0  0  0  0
  5 28  1  0  0  0  0
  6  7  2  0  0  0  0
  6  8  1  0  0  0  0
  8  9  1  0  0  0  0
  8 29  1  0  0  0  0
  9 15  1  0  0  0  0
  9 10  1  0  0  0  0
  9 30  1  0  0  0  0
 10 11  1  0  0  0  0
 10 31  1  0  0  0  0
 10 32  1  0  0  0  0
 11 12  1  0  0  0  0
 11 33  1  0  0  0  0
 11 34  1  0  0  0  0
 12 13  1  0  0  0  0
 12 35  1  0  0  0  0
 12 36  1  0  0  0  0
 13 14  1  0  0  0  0
 13 15  1  0  0  0  0
 13 37  1  0  0  0  0
 14 38  1  0  0  0  0
 14 39  1  0  0  0  0
 14 40  1  0  0  0  0
 15 16  1  0  0  0  0
 15 41  1  0  0  0  0
 16 42  1  0  0  0  0
 16 43  1  0  0  0  0
 16 44  1  0  0  0  0
 17 18  2  0  0  0  0
 17 19  1  0  0  0  0
 19 20  1  0  0  0  0
 19 22  2  0  0  0  0
 20 21  3  0  0  0  0
 22 23  1  0  0  0  0
 23 45  1  0  0  0  0
 23 46  1  0  0  0  0
 23 47  1  0  0  0  0
M  END
> <s_m_source_file>
AV-unprocessed.smi

> <i_m_source_file_index>
1662

> <i_lp_mmshare_version>
43012

> <i_f3d_flags>
0

> <s_epik_input>
TiNDYyhjMVtDSDNdKWMoPU8pbihuYzFbQ0gzXSlbQ0gyXUMoPU8pW05IXVtDQEBIXTJbQ0gyXVtDSDJdW0NIMl1bQ0BASF0oW0NIM10pW0NASF0yW0NIM10=

> <s_epik_cmdline>
J2VwaWtfcHl0aG9uJywgJy1waCcsICc3LjAnLCAnLXRuJywgJzgnLCAnLW1hJywgJzIwMCcsICctbWV0YWxfYmluZGluZycsICctaW1hZScsICc8aW5maWxlLm1hZT4nLCAnLW9tYWUnLCAnPG91dGZpbGUubWFlPic=

> <r_lp_tautomer_probability>
1

> <r_epik_Ionization_Penalty>
1.90709e-08

> <r_epik_Ionization_Penalty_Charging>
2.37982e-11

> <r_epik_Ionization_Penalty_Neutral>
1.90471e-08

> <r_epik_State_Penalty>
-0

> <r_epik_Charging_Adjusted_Penalty>
2.37982e-11

> <i_epik_Tot_Q>
0

> <i_epik_Tot_abs_Q>
0

> <r_epik_Metal_State_Penalty>
-0

> <b_epik_Metal_Only>
0

> <s_lp_Force_Field>
OPLS_2005

> <r_lp_Energy>
29.2459

> <b_lp_Chiralities_Consistent>
1

> <s_lp_Variant>
AV-unprocessed.smi:1662-2

> <Gold.Version>
5.8.1

> <Gold.Id.Protein>
6NUR|6NUR_protein|mol2

> <Gold.PLP.Fitness>
43.1522

> <Gold.PLP.PLP>
-41.0234

> <Gold.PLP.part.hbond>
-1.0000

> <Gold.PLP.part.metal>
0.0000

> <Gold.PLP.part.buried>
-6.8736

> <Gold.PLP.part.nonpolar>
-34.9830

> <Gold.PLP.part.repulsive>
0.2342

> <Gold.PLP.ligand.clash>
0.0061

> <Gold.PLP.ligand.torsion>
0.4389

> <Gold.PLP.Chemscore.Hbond>
1.0000

> <Gold.PLP.Chemscore.CHOScore>
0.0000

> <Gold.PLP.Chemscore.Metal>
0.0000

> <Gold.Chemscore.Hbonds>
donor molecule, donor type, donor heavy atom, donor atom, acceptor molecule, acceptor atom, score
      L1  H     8    29       P1  8028  1.00

> <Gold.PLP.Chemscore.Internal.Correction>
0.0127

> <Gold.Rescore>
     Score         DG    S(hbond)    S(metal)    S(lipo)     H(rot)  DE(clash)    DE(int)     intcor
     13.45     -17.48       1.00        0.00     105.83       1.45       0.23       3.80       ----

> <Gold.Chemscore.Fitness>
13.4475

> <Gold.Chemscore.DG>
-17.4776

> <Gold.Chemscore.ZeroCoef>
-5.4800

> <Gold.Chemscore.Hbond>
0.9966

> <Gold.Chemscore.Metal>
0.0000

> <Gold.Chemscore.Lipo>
105.8289

> <Gold.Chemscore.Internal_Hbond>
0.0000

> <Gold.Chemscore.DEClash>
0.2310

> <Gold.Chemscore.DEInternal>
3.7991

> <Gold.Chemscore.Rot>
1.4504

> <Gold.Chemscore.Internal.Correction>
   9.000000E+99

> <Gold.Chemscore.Hbonds>
donor molecule, donor type, donor heavy atom, donor atom, acceptor molecule, acceptor atom, score
      L1  H     8    29       P1  8028  1.00

> <Gold.Chemscore.Hbond.Weighted>
-3.3286

> <Gold.Chemscore.Metal.Weighted>
-0.0000

> <Gold.Chemscore.Lipo.Weighted>
-12.3820

> <Gold.Chemscore.Internal_Hbond.Weighted>
0.0000

> <Gold.Chemscore.DEClash.Weighted>
0.2310

> <Gold.Chemscore.DEInternal.Weighted>
3.7991

> <Gold.Chemscore.Rot.Weighted>
3.7129

> <Gold.Chemscore.Internal.Correction.Weighted>
   9.000000E+99

> <Gold.Protein.RotatedTorsions>
[ 6907 6896 6895 6894 ] final  -84.19 input  -60.11 | X-H torsion
[ 7974 7965 7964 7962 ] final   -6.19 input  175.53 | X-H torsion
[ 8008 7997 7996 7995 ] final   63.48 input   59.86 | X-H torsion
[ 10167 10162 10161 10158 ] final  -13.37 input  -65.29 | X-H torsion
[ 10718 10713 10712 10709 ] final  138.60 input   66.30 | X-H torsion
[ 10763 10752 10751 10750 ] final  139.93 input  -60.55 | X-H torsion
[ 11005 11000 10999 10996 ] final -175.45 input  -57.11 | X-H torsion

> <Gold.Protein.ActiveResidues>
 VAL166  LYS551  ARG553  GLY616  TRP617  ASP618  TYR619  PRO620  LYS621  CYS622 
 ASP623  PHE694  ASN695  SER759  ASP760  ASP761  ALA762  ILE779  LEU786  VAL792 
 PHE793  MET794  SER795  GLU796  ALA797  LYS798  CYS799  TRP800  GLU811  SER814 

> <Gold.Protein.RotatedAtoms>
  150.6878  134.3396  159.4861 H   0  0  0  0  0  0  0  0  0  0  0  0  # atno 6907 bound_to 6896
  152.1251  134.9174  160.0570 H   0  0  0  0  0  0  0  0  0  0  0  0  # atno 6908 bound_to 6896
  152.0365  133.3924  159.4356 H   0  0  0  0  0  0  0  0  0  0  0  0  # atno 6909 bound_to 6896
  146.2336  140.2133  142.8336 H   0  0  0  0  0  0  0  0  0  0  0  0  # atno 7974 bound_to 7965
  155.6308  140.3496  155.4682 H   0  0  0  0  0  0  0  0  0  0  0  0  # atno 8008 bound_to 7997
  156.0004  140.1212  157.0576 H   0  0  0  0  0  0  0  0  0  0  0  0  # atno 8009 bound_to 7997
  154.4247  140.1101  156.5675 H   0  0  0  0  0  0  0  0  0  0  0  0  # atno 8010 bound_to 7997
  140.7181  143.5433  150.9384 H   0  0  0  0  0  0  0  0  0  0  0  0  # atno 10167 bound_to 10162
  157.4235  131.1041  151.0328 H   0  0  0  0  0  0  0  0  0  0  0  0  # atno 10718 bound_to 10713
  153.9144  135.3007  155.3448 H   0  0  0  0  0  0  0  0  0  0  0  0  # atno 10763 bound_to 10752
  154.7607  135.4935  153.9462 H   0  0  0  0  0  0  0  0  0  0  0  0  # atno 10764 bound_to 10752
  153.1175  135.6774  153.9494 H   0  0  0  0  0  0  0  0  0  0  0  0  # atno 10765 bound_to 10752
  140.4631  134.6236  157.4851 H   0  0  0  0  0  0  0  0  0  0  0  0  # atno 11005 bound_to 11000
  144.9689  140.8349  143.5467 LP  0  0  0  0  0  0  0  0  0  0  0  0  # atno 17320 bound_to 7965
  145.2112  139.2203  143.5142 LP  0  0  0  0  0  0  0  0  0  0  0  0  # atno 17321 bound_to 7965
  139.9156  143.6668  152.3107 LP  0  0  0  0  0  0  0  0  0  0  0  0  # atno 17342 bound_to 10162
  139.7066  144.7627  151.1182 LP  0  0  0  0  0  0  0  0  0  0  0  0  # atno 17343 bound_to 10162
  157.1250  130.6078  149.5514 LP  0  0  0  0  0  0  0  0  0  0  0  0  # atno 17370 bound_to 10713
  155.9888  130.4933  150.7188 LP  0  0  0  0  0  0  0  0  0  0  0  0  # atno 17371 bound_to 10713
  139.9932  134.6952  155.9653 LP  0  0  0  0  0  0  0  0  0  0  0  0  # atno 17394 bound_to 11000
  141.1612  133.6539  156.4325 LP  0  0  0  0  0  0  0  0  0  0  0  0  # atno 17395 bound_to 11000

$$$$
