AV-unprocessed.smi:1594|AV-procd|sdf|6414|dock1
  -GOLD-   22720 7 53D 1   1.00000     0.00000
 Structure written by MMmdl.
 35 36  0  0  0  0  0  0  0  0  1 V2000
  150.1928  135.3528  156.4618 C   0  0  0  0  0  0  0  0  0  0  0  0
  150.1454  133.8576  156.3319 C   0  0  0  0  0  0  0  0  0  0  0  0
  150.3812  133.1008  157.3904 N   0  0  0  0  0  0  0  0  0  0  0  0
  150.2587  131.7791  156.9508 O   0  0  0  0  0  0  0  0  0  0  0  0
  149.9511  131.7928  155.6288 C   0  0  0  0  0  0  0  0  0  0  0  0
  149.7730  130.4678  154.9685 C   0  0  0  0  0  0  0  0  0  0  0  0
  149.8687  133.0791  155.1716 C   0  0  0  0  0  0  0  0  0  0  0  0
  149.5563  133.5667  153.7779 C   0  0  0  0  0  0  0  0  0  0  0  0
  148.1485  133.1535  153.3309 C   0  0  0  0  0  0  0  0  0  0  0  0
  147.6918  132.0413  153.6010 O   0  0  0  0  0  0  0  0  0  0  0  0
  147.4644  134.0768  152.6384 N   0  0  0  0  0  0  0  0  0  0  0  0
  146.1086  133.9095  152.1233 C   0  0  0  0  0  0  0  0  0  0  0  0
  145.9909  132.5675  151.3856 C   0  0  0  0  0  0  0  0  0  0  0  0
  144.6154  132.4373  150.7107 C   0  0  0  0  0  0  0  0  0  0  0  0
  144.4001  133.5338  149.8287 O   0  0  0  0  0  0  0  0  0  0  0  0
  144.3802  134.7893  150.4994 C   0  0  0  0  0  0  0  0  0  0  0  0
  145.7413  135.0538  151.1627 C   0  0  0  0  0  0  0  0  0  0  0  0
  149.3484  135.8154  155.9505 H   0  0  0  0  0  0  0  0  0  0  0  0
  151.1066  135.7524  156.0218 H   0  0  0  0  0  0  0  0  0  0  0  0
  150.1596  135.6689  157.5052 H   0  0  0  0  0  0  0  0  0  0  0  0
  148.9909  130.5151  154.2106 H   0  0  0  0  0  0  0  0  0  0  0  0
  149.4928  129.7037  155.6935 H   0  0  0  0  0  0  0  0  0  0  0  0
  150.6965  130.1527  154.4829 H   0  0  0  0  0  0  0  0  0  0  0  0
  149.6342  134.6534  153.7228 H   0  0  0  0  0  0  0  0  0  0  0  0
  150.2731  133.1748  153.0555 H   0  0  0  0  0  0  0  0  0  0  0  0
  147.9140  134.9628  152.4579 H   0  0  0  0  0  0  0  0  0  0  0  0
  145.4037  133.9036  152.9571 H   0  0  0  0  0  0  0  0  0  0  0  0
  146.7699  132.4907  150.6256 H   0  0  0  0  0  0  0  0  0  0  0  0
  146.1467  131.7397  152.0781 H   0  0  0  0  0  0  0  0  0  0  0  0
  144.5659  131.5109  150.1384 H   0  0  0  0  0  0  0  0  0  0  0  0
  143.8190  132.3940  151.4551 H   0  0  0  0  0  0  0  0  0  0  0  0
  144.1594  135.5727  149.7742 H   0  0  0  0  0  0  0  0  0  0  0  0
  143.5781  134.8059  151.2389 H   0  0  0  0  0  0  0  0  0  0  0  0
  145.7158  136.0057  151.6943 H   0  0  0  0  0  0  0  0  0  0  0  0
  146.5043  135.1486  150.3888 H   0  0  0  0  0  0  0  0  0  0  0  0
  1  2  1  0  0  0  0
  1 18  1  0  0  0  0
  1 19  1  0  0  0  0
  1 20  1  0  0  0  0
  2  7  1  0  0  0  0
  2  3  2  0  0  0  0
  3  4  1  0  0  0  0
  4  5  1  0  0  0  0
  5  6  1  0  0  0  0
  5  7  2  0  0  0  0
  6 21  1  0  0  0  0
  6 22  1  0  0  0  0
  6 23  1  0  0  0  0
  7  8  1  0  0  0  0
  8  9  1  0  0  0  0
  8 24  1  0  0  0  0
  8 25  1  0  0  0  0
  9 10  2  0  0  0  0
  9 11  1  0  0  0  0
 11 12  1  0  0  0  0
 11 26  1  0  0  0  0
 12 17  1  0  0  0  0
 12 13  1  0  0  0  0
 12 27  1  0  0  0  0
 13 14  1  0  0  0  0
 13 28  1  0  0  0  0
 13 29  1  0  0  0  0
 14 15  1  0  0  0  0
 14 30  1  0  0  0  0
 14 31  1  0  0  0  0
 15 16  1  0  0  0  0
 16 17  1  0  0  0  0
 16 32  1  0  0  0  0
 16 33  1  0  0  0  0
 17 34  1  0  0  0  0
 17 35  1  0  0  0  0
M  END
> <s_m_source_file>
AV-unprocessed.smi

> <i_m_source_file_index>
1594

> <i_lp_mmshare_version>
43012

> <i_f3d_flags>
0

> <s_epik_input>
W0NIM11jMW5vYyhbQ0gzXSljMVtDSDJdQyg9TylbTkhdW0NIXTJbQ0gyXVtDSDJdT1tDSDJdW0NIMl0y

> <s_epik_cmdline>
J2VwaWtfcHl0aG9uJywgJy1waCcsICc3LjAnLCAnLXRuJywgJzgnLCAnLW1hJywgJzIwMCcsICctbWV0YWxfYmluZGluZycsICctaW1hZScsICc8aW5maWxlLm1hZT4nLCAnLW9tYWUnLCAnPG91dGZpbGUubWFlPic=

> <r_lp_tautomer_probability>
1

> <r_epik_Ionization_Penalty>
2.34123e-08

> <r_epik_Ionization_Penalty_Charging>
0

> <r_epik_Ionization_Penalty_Neutral>
2.34123e-08

> <r_epik_State_Penalty>
-0

> <r_epik_Charging_Adjusted_Penalty>
0

> <i_epik_Tot_Q>
0

> <i_epik_Tot_abs_Q>
0

> <r_epik_Metal_State_Penalty>
-0

> <b_epik_Metal_Only>
0

> <s_lp_Force_Field>
OPLS_2005

> <r_lp_Energy>
1.65601

> <b_lp_Chiralities_Consistent>
1

> <s_lp_Variant>
AV-unprocessed.smi:1594-1

> <Gold.Version>
5.8.1

> <Gold.Id.Protein>
6NUR|6NUR_protein|mol2

> <Gold.PLP.Fitness>
34.1755

> <Gold.PLP.PLP>
-28.9870

> <Gold.PLP.part.hbond>
-2.0000

> <Gold.PLP.part.metal>
0.0000

> <Gold.PLP.part.buried>
-5.2593

> <Gold.PLP.part.nonpolar>
-22.5065

> <Gold.PLP.part.repulsive>
0.6371

> <Gold.PLP.ligand.clash>
0.0000

> <Gold.PLP.ligand.torsion>
0.4074

> <Gold.PLP.Chemscore.Hbond>
2.0000

> <Gold.PLP.Chemscore.CHOScore>
0.0000

> <Gold.PLP.Chemscore.Metal>
0.0000

> <Gold.Chemscore.Hbonds>
donor molecule, donor type, donor heavy atom, donor atom, acceptor molecule, acceptor atom, score
      L1  H    11    26       P1  7948  1.00
      P1  H  6896  6907       L1     3  1.00

> <Gold.PLP.Chemscore.Internal.Correction>
0.0033

> <Gold.Rescore>
     Score         DG    S(hbond)    S(metal)    S(lipo)     H(rot)  DE(clash)    DE(int)     intcor
     13.57     -15.45       1.88        0.00      61.64       1.38       0.00       1.88       ----

> <Gold.Chemscore.Fitness>
13.5698

> <Gold.Chemscore.DG>
-15.4540

> <Gold.Chemscore.ZeroCoef>
-5.4800

> <Gold.Chemscore.Hbond>
1.8838

> <Gold.Chemscore.Metal>
0.0000

> <Gold.Chemscore.Lipo>
61.6370

> <Gold.Chemscore.Internal_Hbond>
0.0000

> <Gold.Chemscore.DEClash>
0.0000

> <Gold.Chemscore.DEInternal>
1.8842

> <Gold.Chemscore.Rot>
1.3786

> <Gold.Chemscore.Internal.Correction>
   9.000000E+99

> <Gold.Chemscore.Hbonds>
donor molecule, donor type, donor heavy atom, donor atom, acceptor molecule, acceptor atom, score
      L1  H    11    26       P1  7948  0.88
      P1  H  6896  6907       L1     3  0.96

> <Gold.Chemscore.Hbond.Weighted>
-6.2918

> <Gold.Chemscore.Metal.Weighted>
-0.0000

> <Gold.Chemscore.Lipo.Weighted>
-7.2115

> <Gold.Chemscore.Internal_Hbond.Weighted>
0.0000

> <Gold.Chemscore.DEClash.Weighted>
0.0000

> <Gold.Chemscore.DEInternal.Weighted>
1.8842

> <Gold.Chemscore.Rot.Weighted>
3.5293

> <Gold.Chemscore.Internal.Correction.Weighted>
   9.000000E+99

> <Gold.Protein.RotatedTorsions>
[ 6907 6896 6895 6894 ] final -138.83 input  -60.11 | X-H torsion
[ 7974 7965 7964 7962 ] final  -90.72 input  175.53 | X-H torsion
[ 8008 7997 7996 7995 ] final  175.55 input   59.86 | X-H torsion
[ 10167 10162 10161 10158 ] final  102.74 input  -65.29 | X-H torsion
[ 10718 10713 10712 10709 ] final  166.86 input   66.30 | X-H torsion
[ 10763 10752 10751 10750 ] final  -27.28 input  -60.55 | X-H torsion
[ 11005 11000 10999 10996 ] final  129.32 input  -57.11 | X-H torsion

> <Gold.Protein.ActiveResidues>
 VAL166  LYS551  ARG553  GLY616  TRP617  ASP618  TYR619  PRO620  LYS621  CYS622 
 ASP623  PHE694  ASN695  SER759  ASP760  ASP761  ALA762  ILE779  LEU786  VAL792 
 PHE793  MET794  SER795  GLU796  ALA797  LYS798  CYS799  TRP800  GLU811  SER814 

> <Gold.Protein.RotatedAtoms>
  151.0400  133.5715  159.2651 H   0  0  0  0  0  0  0  0  0  0  0  0  # atno 6907 bound_to 6896
  151.2765  135.0700  159.9163 H   0  0  0  0  0  0  0  0  0  0  0  0  # atno 6908 bound_to 6896
  152.5362  134.0121  159.7997 H   0  0  0  0  0  0  0  0  0  0  0  0  # atno 6909 bound_to 6896
  145.4227  140.9552  143.2172 H   0  0  0  0  0  0  0  0  0  0  0  0  # atno 7974 bound_to 7965
  156.0858  140.1406  156.9654 H   0  0  0  0  0  0  0  0  0  0  0  0  # atno 8008 bound_to 7997
  154.4612  140.0942  156.6946 H   0  0  0  0  0  0  0  0  0  0  0  0  # atno 8009 bound_to 7997
  155.5000  140.3450  155.4372 H   0  0  0  0  0  0  0  0  0  0  0  0  # atno 8010 bound_to 7997
  139.7323  144.7033  151.0702 H   0  0  0  0  0  0  0  0  0  0  0  0  # atno 10167 bound_to 10162
  157.0599  131.0337  151.2651 H   0  0  0  0  0  0  0  0  0  0  0  0  # atno 10718 bound_to 10713
  153.7296  135.6939  153.4992 H   0  0  0  0  0  0  0  0  0  0  0  0  # atno 10763 bound_to 10752
  153.2145  135.4391  155.0417 H   0  0  0  0  0  0  0  0  0  0  0  0  # atno 10764 bound_to 10752
  154.8257  135.3445  154.6826 H   0  0  0  0  0  0  0  0  0  0  0  0  # atno 10765 bound_to 10752
  139.9609  134.9602  156.9131 H   0  0  0  0  0  0  0  0  0  0  0  0  # atno 11005 bound_to 11000
  144.8234  139.5751  143.6976 LP  0  0  0  0  0  0  0  0  0  0  0  0  # atno 17320 bound_to 7965
  146.2648  139.6494  142.9337 LP  0  0  0  0  0  0  0  0  0  0  0  0  # atno 17321 bound_to 7965
  140.7773  143.5027  150.9751 LP  0  0  0  0  0  0  0  0  0  0  0  0  # atno 17342 bound_to 10162
  139.8715  143.7186  152.3166 LP  0  0  0  0  0  0  0  0  0  0  0  0  # atno 17343 bound_to 10162
  157.4963  130.7853  149.7559 LP  0  0  0  0  0  0  0  0  0  0  0  0  # atno 17370 bound_to 10713
  155.9982  130.3896  150.2712 LP  0  0  0  0  0  0  0  0  0  0  0  0  # atno 17371 bound_to 10713
  140.5503  134.0634  155.7367 LP  0  0  0  0  0  0  0  0  0  0  0  0  # atno 17394 bound_to 11000
  141.1286  133.9341  157.2584 LP  0  0  0  0  0  0  0  0  0  0  0  0  # atno 17395 bound_to 11000

$$$$
