AV-unprocessed.smi:2310|AV-procd|sdf|9258|dock3
  -GOLD-   2272012483D 1   1.00000     0.00000
 Structure written by MMmdl.
 46 47  0  0  0  0  0  0  0  0  2 V2000
  150.8848  145.2708  159.3743 C   0  0  0  0  0  0  0  0  0  0  0  0
  151.8086  145.0585  158.1660 C   0  0  0  0  0  0  0  0  0  0  0  0
  151.8252  143.6095  157.6449 C   0  0  1  0  0  0  0  0  0  0  0  0
  151.8726  142.5989  158.8015 C   0  0  0  0  0  0  0  0  0  0  0  0
  153.1630  142.5859  159.5092 C   0  0  0  0  0  0  0  0  0  0  0  0
  154.1772  142.5736  160.0656 N   0  0  0  0  0  0  0  0  0  0  0  0
  150.6432  143.3579  156.8196 N   0  0  0  0  0  0  0  0  0  0  0  0
  150.4157  142.2556  156.0908 C   0  0  0  0  0  0  0  0  0  0  0  0
  151.1945  141.3048  156.0281 O   0  0  0  0  0  0  0  0  0  0  0  0
  149.2463  142.3417  155.4340 N   0  0  0  0  0  0  0  0  0  0  0  0
  148.6787  141.4067  154.5244 C   0  0  0  0  0  0  0  0  0  0  0  0
  149.4043  140.3157  153.9857 C   0  0  0  0  0  0  0  0  0  0  0  0
  148.7703  139.4261  153.0955 C   0  0  0  0  0  0  0  0  0  0  0  0
  147.4131  139.6245  152.7521 C   0  0  0  0  0  0  0  0  0  0  0  0
  146.7158  138.7779  151.8685 N   0  0  0  0  0  0  0  0  0  0  0  0
  146.6582  137.3418  152.0872 C   0  0  0  0  0  0  0  0  0  0  0  0
  146.0115  136.7803  150.8217 C   0  0  0  0  0  0  0  0  0  0  0  0
  146.4862  137.7434  149.7341 C   0  0  0  0  0  0  0  0  0  0  0  0
  146.5858  139.0945  150.4515 C   0  0  0  0  0  0  0  0  0  0  0  0
  146.7525  140.6656  153.3117 N   0  3  0  0  0  0  0  0  0  0  0  0
  147.3158  141.5448  154.1704 C   0  0  0  0  0  0  0  0  0  0  0  0
  146.4356  142.6590  154.7069 C   0  0  0  0  0  0  0  0  0  0  0  0
  150.8700  146.3200  159.6696 H   0  0  0  0  0  0  0  0  0  0  0  0
  151.2119  144.6915  160.2379 H   0  0  0  0  0  0  0  0  0  0  0  0
  149.8607  144.9771  159.1422 H   0  0  0  0  0  0  0  0  0  0  0  0
  151.4865  145.7218  157.3625 H   0  0  0  0  0  0  0  0  0  0  0  0
  152.8211  145.3693  158.4262 H   0  0  0  0  0  0  0  0  0  0  0  0
  152.7363  143.4809  157.0574 H   0  0  0  0  0  0  0  0  0  0  0  0
  151.1040  142.8323  159.5386 H   0  0  0  0  0  0  0  0  0  0  0  0
  151.6741  141.5893  158.4407 H   0  0  0  0  0  0  0  0  0  0  0  0
  149.9452  144.0871  156.8017 H   0  0  0  0  0  0  0  0  0  0  0  0
  148.7520  143.2176  155.5209 H   0  0  0  0  0  0  0  0  0  0  0  0
  150.4353  140.1358  154.2487 H   0  0  0  0  0  0  0  0  0  0  0  0
  149.3360  138.5996  152.6915 H   0  0  0  0  0  0  0  0  0  0  0  0
  147.6699  136.9511  152.2070 H   0  0  0  0  0  0  0  0  0  0  0  0
  146.0805  137.0912  152.9775 H   0  0  0  0  0  0  0  0  0  0  0  0
  146.2892  135.7439  150.6272 H   0  0  0  0  0  0  0  0  0  0  0  0
  144.9249  136.8280  150.9071 H   0  0  0  0  0  0  0  0  0  0  0  0
  147.4747  137.4394  149.3872 H   0  0  0  0  0  0  0  0  0  0  0  0
  145.8226  137.7701  148.8692 H   0  0  0  0  0  0  0  0  0  0  0  0
  145.6759  139.6774  150.3052 H   0  0  0  0  0  0  0  0  0  0  0  0
  147.4276  139.6747  150.0720 H   0  0  0  0  0  0  0  0  0  0  0  0
  146.8398  143.6309  154.4226 H   0  0  0  0  0  0  0  0  0  0  0  0
  146.3837  142.6123  155.7949 H   0  0  0  0  0  0  0  0  0  0  0  0
  145.4197  142.5876  154.3174 H   0  0  0  0  0  0  0  0  0  0  0  0
  145.7703  140.7962  153.0700 H   0  0  0  0  0  0  0  0  0  0  0  0
  1  2  1  0  0  0  0
  1 23  1  0  0  0  0
  1 24  1  0  0  0  0
  1 25  1  0  0  0  0
  2  3  1  0  0  0  0
  2 26  1  0  0  0  0
  2 27  1  0  0  0  0
  3  4  1  0  0  0  0
  3  7  1  0  0  0  0
  3 28  1  0  0  0  0
  4  5  1  0  0  0  0
  4 29  1  0  0  0  0
  4 30  1  0  0  0  0
  5  6  3  0  0  0  0
  7  8  1  0  0  0  0
  7 31  1  0  0  0  0
  8  9  2  0  0  0  0
  8 10  1  0  0  0  0
 10 11  1  0  0  0  0
 10 32  1  0  0  0  0
 11 21  1  0  0  0  0
 11 12  2  0  0  0  0
 12 13  1  0  0  0  0
 12 33  1  0  0  0  0
 13 14  2  0  0  0  0
 13 34  1  0  0  0  0
 14 15  1  0  0  0  0
 14 20  1  0  0  0  0
 15 19  1  0  0  0  0
 15 16  1  0  0  0  0
 16 17  1  0  0  0  0
 16 35  1  0  0  0  0
 16 36  1  0  0  0  0
 17 18  1  0  0  0  0
 17 37  1  0  0  0  0
 17 38  1  0  0  0  0
 18 19  1  0  0  0  0
 18 39  1  0  0  0  0
 18 40  1  0  0  0  0
 19 41  1  0  0  0  0
 19 42  1  0  0  0  0
 20 21  2  0  0  0  0
 20 46  1  0  0  0  0
 21 22  1  0  0  0  0
 22 43  1  0  0  0  0
 22 44  1  0  0  0  0
 22 45  1  0  0  0  0
M  CHG  1  20   1
M  END
> <s_m_source_file>
AV-unprocessed.smi

> <i_m_source_file_index>
2310

> <i_lp_mmshare_version>
43012

> <i_f3d_flags>
0

> <s_epik_input>
TiNDW0NIMl1bQ0BASF0oW0NIMl1bQ0gzXSlbTkhdQyg9TylbTkhdYzFbY0hdW2NIXWMobmMxW0NIM10pTjJbQ0gyXVtDSDJdW0NIMl1bQ0gyXTI=

> <s_epik_cmdline>
J2VwaWtfcHl0aG9uJywgJy1waCcsICc3LjAnLCAnLXRuJywgJzgnLCAnLW1hJywgJzIwMCcsICctbWV0YWxfYmluZGluZycsICctaW1hZScsICc8aW5maWxlLm1hZT4nLCAnLW9tYWUnLCAnPG91dGZpbGUubWFlPic=

> <r_lp_tautomer_probability>
0.999994

> <r_epik_Ionization_Penalty>
0.577302

> <r_epik_Ionization_Penalty_Charging>
0.577278

> <r_epik_Ionization_Penalty_Neutral>
2.39253e-05

> <r_epik_State_Penalty>
0.589738

> <r_epik_Charging_Adjusted_Penalty>
1.16702

> <i_epik_Tot_Q>
1

> <i_epik_Tot_abs_Q>
1

> <r_epik_Metal_State_Penalty>
0.784556

> <b_epik_Metal_Only>
0

> <s_lp_Force_Field>
OPLS_2005

> <r_lp_Energy>
35.6243

> <b_lp_Chiralities_Consistent>
1

> <s_lp_Variant>
AV-unprocessed.smi:2310-4

> <Gold.Version>
5.8.1

> <Gold.Id.Protein>
6NUR|6NUR_protein|mol2

> <Gold.PLP.Fitness>
53.2968

> <Gold.PLP.PLP>
-44.2068

> <Gold.PLP.part.hbond>
-3.0000

> <Gold.PLP.part.metal>
0.0000

> <Gold.PLP.part.buried>
0.3646

> <Gold.PLP.part.nonpolar>
-43.7591

> <Gold.PLP.part.repulsive>
0.1972

> <Gold.PLP.ligand.clash>
0.0000

> <Gold.PLP.ligand.torsion>
1.5517

> <Gold.PLP.Chemscore.Hbond>
3.9825

> <Gold.PLP.Chemscore.CHOScore>
0.0000

> <Gold.PLP.Chemscore.Metal>
0.0000

> <Gold.Chemscore.Hbonds>
donor molecule, donor type, donor heavy atom, donor atom, acceptor molecule, acceptor atom, score
      L1  H     7    31       P1  8028  0.75
      L1  H    10    32       P1  8028  0.87
      L1  H    20    46       P1 10175  1.24

> <Gold.PLP.Chemscore.Internal.Correction>
0.2459

> <Gold.Rescore>
     Score         DG    S(hbond)    S(metal)    S(lipo)     H(rot)  DE(clash)    DE(int)     intcor
     17.42     -23.40       2.82        0.00     104.73       1.47       2.84       3.14       ----

> <Gold.Chemscore.Fitness>
17.4206

> <Gold.Chemscore.DG>
-23.3994

> <Gold.Chemscore.ZeroCoef>
-5.4800

> <Gold.Chemscore.Hbond>
2.8223

> <Gold.Chemscore.Metal>
0.0000

> <Gold.Chemscore.Lipo>
104.7309

> <Gold.Chemscore.Internal_Hbond>
0.0000

> <Gold.Chemscore.DEClash>
2.8393

> <Gold.Chemscore.DEInternal>
3.1395

> <Gold.Chemscore.Rot>
1.4690

> <Gold.Chemscore.Internal.Correction>
   9.000000E+99

> <Gold.Chemscore.Hbonds>
donor molecule, donor type, donor heavy atom, donor atom, acceptor molecule, acceptor atom, score
      L1  H     7    31       P1  8028  0.71
      L1  H    10    32       P1  8028  0.82
      L1  H    20    46       P1 10175  0.36

> <Gold.Chemscore.Hbond.Weighted>
-9.4264

> <Gold.Chemscore.Metal.Weighted>
-0.0000

> <Gold.Chemscore.Lipo.Weighted>
-12.2535

> <Gold.Chemscore.Internal_Hbond.Weighted>
0.0000

> <Gold.Chemscore.DEClash.Weighted>
2.8393

> <Gold.Chemscore.DEInternal.Weighted>
3.1395

> <Gold.Chemscore.Rot.Weighted>
3.7606

> <Gold.Chemscore.Internal.Correction.Weighted>
   9.000000E+99

> <Gold.Protein.RotatedTorsions>
[ 6907 6896 6895 6894 ] final  157.40 input  -60.11 | X-H torsion
[ 7974 7965 7964 7962 ] final  114.76 input  175.53 | X-H torsion
[ 8008 7997 7996 7995 ] final    2.04 input   59.86 | X-H torsion
[ 10167 10162 10161 10158 ] final  -67.02 input  -65.29 | X-H torsion
[ 10718 10713 10712 10709 ] final  -53.40 input   66.30 | X-H torsion
[ 10763 10752 10751 10750 ] final  -86.44 input  -60.55 | X-H torsion
[ 11005 11000 10999 10996 ] final    3.65 input  -57.11 | X-H torsion

> <Gold.Protein.ActiveResidues>
 VAL166  LYS551  ARG553  GLY616  TRP617  ASP618  TYR619  PRO620  LYS621  CYS622 
 ASP623  PHE694  ASN695  SER759  ASP760  ASP761  ALA762  ILE779  LEU786  VAL792 
 PHE793  MET794  SER795  GLU796  ALA797  LYS798  CYS799  TRP800  GLU811  SER814 

> <Gold.Protein.RotatedAtoms>
  152.0156  133.3878  159.4237 H   0  0  0  0  0  0  0  0  0  0  0  0  # atno 6907 bound_to 6896
  150.6895  134.3682  159.4989 H   0  0  0  0  0  0  0  0  0  0  0  0  # atno 6908 bound_to 6896
  152.1449  134.9033  160.0602 H   0  0  0  0  0  0  0  0  0  0  0  0  # atno 6909 bound_to 6896
  145.2005  139.2955  143.4321 H   0  0  0  0  0  0  0  0  0  0  0  0  # atno 7974 bound_to 7965
  154.6868  140.2644  155.6852 H   0  0  0  0  0  0  0  0  0  0  0  0  # atno 8008 bound_to 7997
  156.2717  140.2799  156.1355 H   0  0  0  0  0  0  0  0  0  0  0  0  # atno 8009 bound_to 7997
  155.0953  140.0374  157.2671 H   0  0  0  0  0  0  0  0  0  0  0  0  # atno 8010 bound_to 7997
  140.5614  143.2313  151.6720 H   0  0  0  0  0  0  0  0  0  0  0  0  # atno 10167 bound_to 10162
  156.1538  130.4151  149.9901 H   0  0  0  0  0  0  0  0  0  0  0  0  # atno 10718 bound_to 10713
  154.6225  135.5449  153.7590 H   0  0  0  0  0  0  0  0  0  0  0  0  # atno 10763 bound_to 10752
  153.0245  135.6416  154.1420 H   0  0  0  0  0  0  0  0  0  0  0  0  # atno 10764 bound_to 10752
  154.1354  135.2911  155.3154 H   0  0  0  0  0  0  0  0  0  0  0  0  # atno 10765 bound_to 10752
  140.5907  133.9926  155.8088 H   0  0  0  0  0  0  0  0  0  0  0  0  # atno 11005 bound_to 11000
  146.3418  140.2247  142.8592 LP  0  0  0  0  0  0  0  0  0  0  0  0  # atno 17320 bound_to 7965
  144.9953  140.8583  143.5315 LP  0  0  0  0  0  0  0  0  0  0  0  0  # atno 17321 bound_to 7965
  139.5072  144.3655  152.0521 LP  0  0  0  0  0  0  0  0  0  0  0  0  # atno 17342 bound_to 10162
  140.2782  144.3889  150.6128 LP  0  0  0  0  0  0  0  0  0  0  0  0  # atno 17343 bound_to 10162
  156.7751  130.9200  151.3645 LP  0  0  0  0  0  0  0  0  0  0  0  0  # atno 17370 bound_to 10713
  157.6679  130.9024  149.9973 LP  0  0  0  0  0  0  0  0  0  0  0  0  # atno 17371 bound_to 10713
  141.0936  133.9878  157.3196 LP  0  0  0  0  0  0  0  0  0  0  0  0  # atno 17394 bound_to 11000
  139.9275  135.0201  156.8286 LP  0  0  0  0  0  0  0  0  0  0  0  0  # atno 17395 bound_to 11000

$$$$
