AV-unprocessed.smi:3132|AV-procd|sdf|11933|dock6
  -GOLD-   2272017323D 1   1.00000     0.00000
 Structure written by MMmdl.
 33 34  0  0  0  0  0  0  0  0  1 V2000
  150.2605  139.7751  157.0269 C   0  0  0  0  0  0  0  0  0  0  0  0
  149.9315  141.2489  156.7538 C   0  0  2  0  0  0  0  0  0  0  0  0
  149.8473  141.5363  155.2399 C   0  0  0  0  0  0  0  0  0  0  0  0
  148.5254  141.2833  154.6955 N   0  0  0  0  0  0  0  0  0  0  0  0
  148.1808  140.3483  153.7275 C   0  0  0  0  0  0  0  0  0  0  0  0
  146.8264  140.4789  153.5201 C   0  0  0  0  0  0  0  0  0  0  0  0
  146.3190  141.4765  154.3492 N   0  0  0  0  0  0  0  0  0  0  0  0
  147.3830  141.9061  155.0152 C   0  0  0  0  0  0  0  0  0  0  0  0
  150.9515  142.0884  157.3803 N   0  0  0  0  0  0  0  0  0  0  0  0
  151.4529  141.9251  158.6148 C   0  0  0  0  0  0  0  0  0  0  0  0
  151.1325  140.9980  159.3596 O   0  0  0  0  0  0  0  0  0  0  0  0
  152.4370  143.0004  159.0877 C   0  0  2  0  0  0  0  0  0  0  0  0
  152.9348  142.8144  160.5330 C   0  0  0  0  0  0  0  0  0  0  0  0
  152.2070  143.8989  161.3013 C   0  0  0  0  0  0  0  0  0  0  0  0
  152.0656  144.9830  160.2426 C   0  0  0  0  0  0  0  0  0  0  0  0
  151.7558  144.2543  159.0646 O   0  0  0  0  0  0  0  0  0  0  0  0
  149.5073  139.1182  156.5908 H   0  0  0  0  0  0  0  0  0  0  0  0
  150.2922  139.5719  158.0979 H   0  0  0  0  0  0  0  0  0  0  0  0
  151.2274  139.4980  156.6056 H   0  0  0  0  0  0  0  0  0  0  0  0
  148.9563  141.4486  157.2021 H   0  0  0  0  0  0  0  0  0  0  0  0
  150.1218  142.5708  155.0289 H   0  0  0  0  0  0  0  0  0  0  0  0
  150.5568  140.9091  154.6988 H   0  0  0  0  0  0  0  0  0  0  0  0
  148.9087  139.6931  153.2723 H   0  0  0  0  0  0  0  0  0  0  0  0
  146.1835  139.9362  152.8430 H   0  0  0  0  0  0  0  0  0  0  0  0
  147.3316  142.6971  155.7491 H   0  0  0  0  0  0  0  0  0  0  0  0
  151.2710  142.8846  156.8479 H   0  0  0  0  0  0  0  0  0  0  0  0
  153.2911  143.0448  158.4096 H   0  0  0  0  0  0  0  0  0  0  0  0
  152.7524  141.8218  160.9471 H   0  0  0  0  0  0  0  0  0  0  0  0
  154.0106  142.9896  160.5742 H   0  0  0  0  0  0  0  0  0  0  0  0
  151.2222  143.5458  161.6106 H   0  0  0  0  0  0  0  0  0  0  0  0
  152.7475  144.2337  162.1868 H   0  0  0  0  0  0  0  0  0  0  0  0
  151.2887  145.7091  160.4817 H   0  0  0  0  0  0  0  0  0  0  0  0
  153.0073  145.5155  160.1034 H   0  0  0  0  0  0  0  0  0  0  0  0
  1  2  1  0  0  0  0
  1 17  1  0  0  0  0
  1 18  1  0  0  0  0
  1 19  1  0  0  0  0
  2  3  1  0  0  0  0
  2  9  1  0  0  0  0
  2 20  1  0  0  0  0
  3  4  1  0  0  0  0
  3 21  1  0  0  0  0
  3 22  1  0  0  0  0
  4  8  1  0  0  0  0
  4  5  1  0  0  0  0
  5  6  2  0  0  0  0
  5 23  1  0  0  0  0
  6  7  1  0  0  0  0
  6 24  1  0  0  0  0
  7  8  2  0  0  0  0
  8 25  1  0  0  0  0
  9 10  1  0  0  0  0
  9 26  1  0  0  0  0
 10 11  2  0  0  0  0
 10 12  1  0  0  0  0
 12 16  1  0  0  0  0
 12 13  1  0  0  0  0
 12 27  1  0  0  0  0
 13 14  1  0  0  0  0
 13 28  1  0  0  0  0
 13 29  1  0  0  0  0
 14 15  1  0  0  0  0
 14 30  1  0  0  0  0
 14 31  1  0  0  0  0
 15 16  1  0  0  0  0
 15 32  1  0  0  0  0
 15 33  1  0  0  0  0
M  END
> <s_m_source_file>
AV-unprocessed.smi

> <i_m_source_file_index>
3132

> <i_lp_mmshare_version>
43012

> <i_f3d_flags>
0

> <s_epik_input>
W2NIXTFuW2NIXVtjSF1uMVtDSDJdW0NAQEhdKFtDSDNdKVtOSF1DKD1PKVtDQEBIXTJbQ0gyXVtDSDJdW0NIMl1PMg==

> <s_epik_cmdline>
J2VwaWtfcHl0aG9uJywgJy1waCcsICc3LjAnLCAnLXRuJywgJzgnLCAnLW1hJywgJzIwMCcsICctbWV0YWxfYmluZGluZycsICctaW1hZScsICc8aW5maWxlLm1hZT4nLCAnLW9tYWUnLCAnPG91dGZpbGUubWFlPic=

> <r_lp_tautomer_probability>
1

> <r_epik_Ionization_Penalty>
0.630322

> <r_epik_Ionization_Penalty_Charging>
0.630322

> <r_epik_Ionization_Penalty_Neutral>
3.82652e-08

> <r_epik_State_Penalty>
0.647117

> <r_epik_Charging_Adjusted_Penalty>
1.27744

> <i_epik_Tot_Q>
0

> <i_epik_Tot_abs_Q>
0

> <r_epik_Metal_State_Penalty>
0.309095

> <b_epik_Metal_Only>
0

> <s_lp_Force_Field>
OPLS_2005

> <r_lp_Energy>
19.5701

> <b_lp_Chiralities_Consistent>
1

> <s_lp_Variant>
AV-unprocessed.smi:3132-5

> <Gold.Version>
5.8.1

> <Gold.Id.Protein>
6NUR|6NUR_protein|mol2

> <Gold.PLP.Fitness>
38.8184

> <Gold.PLP.PLP>
-31.9511

> <Gold.PLP.part.hbond>
-0.1015

> <Gold.PLP.part.metal>
0.0000

> <Gold.PLP.part.buried>
-2.0779

> <Gold.PLP.part.nonpolar>
-29.8212

> <Gold.PLP.part.repulsive>
0.2391

> <Gold.PLP.ligand.clash>
0.0000

> <Gold.PLP.ligand.torsion>
0.5193

> <Gold.PLP.Chemscore.Hbond>
0.0000

> <Gold.PLP.Chemscore.CHOScore>
2.6259

> <Gold.PLP.Chemscore.Metal>
0.0000

> <Gold.Chemscore.Hbonds>
donor molecule, donor type, donor heavy atom, donor atom, acceptor molecule, acceptor atom, score
      L1  C     5    23       P1  7957  0.82
      L1  C     6    24       P1 10175  0.77
      L1  C     8    25       P1  8028  0.84

> <Gold.PLP.Chemscore.Internal.Correction>
0.0282

> <Gold.Rescore>
     Score         DG    S(hbond)    S(metal)    S(lipo)     H(rot)  DE(clash)    DE(int)     intcor
      9.57      -9.80       0.00        0.00      77.72       1.86       0.03       0.20       ----

> <Gold.Chemscore.Fitness>
9.5712

> <Gold.Chemscore.DG>
-9.8029

> <Gold.Chemscore.ZeroCoef>
-5.4800

> <Gold.Chemscore.Hbond>
0.0000

> <Gold.Chemscore.Metal>
0.0000

> <Gold.Chemscore.Lipo>
77.7248

> <Gold.Chemscore.Internal_Hbond>
0.0000

> <Gold.Chemscore.DEClash>
0.0272

> <Gold.Chemscore.DEInternal>
0.2046

> <Gold.Chemscore.Rot>
1.8636

> <Gold.Chemscore.Internal.Correction>
   9.000000E+99

> <Gold.Chemscore.Hbond.Weighted>
-0.0000

> <Gold.Chemscore.Metal.Weighted>
-0.0000

> <Gold.Chemscore.Lipo.Weighted>
-9.0938

> <Gold.Chemscore.Internal_Hbond.Weighted>
0.0000

> <Gold.Chemscore.DEClash.Weighted>
0.0272

> <Gold.Chemscore.DEInternal.Weighted>
0.2046

> <Gold.Chemscore.Rot.Weighted>
4.7709

> <Gold.Chemscore.Internal.Correction.Weighted>
   9.000000E+99

> <Gold.Protein.RotatedTorsions>
[ 6907 6896 6895 6894 ] final -105.40 input  -60.11 | X-H torsion
[ 7974 7965 7964 7962 ] final  116.98 input  175.53 | X-H torsion
[ 8008 7997 7996 7995 ] final  126.59 input   59.86 | X-H torsion
[ 10167 10162 10161 10158 ] final   -5.32 input  -65.29 | X-H torsion
[ 10718 10713 10712 10709 ] final -135.84 input   66.30 | X-H torsion
[ 10763 10752 10751 10750 ] final   -5.57 input  -60.55 | X-H torsion
[ 11005 11000 10999 10996 ] final    8.82 input  -57.11 | X-H torsion

> <Gold.Protein.ActiveResidues>
 VAL166  LYS551  ARG553  GLY616  TRP617  ASP618  TYR619  PRO620  LYS621  CYS622 
 ASP623  PHE694  ASN695  SER759  ASP760  ASP761  ALA762  ILE779  LEU786  VAL792 
 PHE793  MET794  SER795  GLU796  ALA797  LYS798  CYS799  TRP800  GLU811  SER814 

> <Gold.Protein.RotatedAtoms>
  150.7335  134.0133  159.3676 H   0  0  0  0  0  0  0  0  0  0  0  0  # atno 6907 bound_to 6896
  151.8094  135.0683  160.0420 H   0  0  0  0  0  0  0  0  0  0  0  0  # atno 6908 bound_to 6896
  152.3084  133.5690  159.5700 H   0  0  0  0  0  0  0  0  0  0  0  0  # atno 6909 bound_to 6896
  145.1730  139.3091  143.4457 H   0  0  0  0  0  0  0  0  0  0  0  0  # atno 7974 bound_to 7965
  156.2868  140.2689  156.2136 H   0  0  0  0  0  0  0  0  0  0  0  0  # atno 8008 bound_to 7997
  155.0239  140.0386  157.2466 H   0  0  0  0  0  0  0  0  0  0  0  0  # atno 8009 bound_to 7997
  154.7412  140.2725  155.6377 H   0  0  0  0  0  0  0  0  0  0  0  0  # atno 8010 bound_to 7997
  140.6959  143.6322  150.8512 H   0  0  0  0  0  0  0  0  0  0  0  0  # atno 10167 bound_to 10162
  156.2706  130.7263  151.1228 H   0  0  0  0  0  0  0  0  0  0  0  0  # atno 10718 bound_to 10713
  153.4004  135.7004  153.6430 H   0  0  0  0  0  0  0  0  0  0  0  0  # atno 10763 bound_to 10752
  153.4966  135.3661  155.2519 H   0  0  0  0  0  0  0  0  0  0  0  0  # atno 10764 bound_to 10752
  154.8710  135.4102  154.3337 H   0  0  0  0  0  0  0  0  0  0  0  0  # atno 10765 bound_to 10752
  140.5327  134.0451  155.7878 H   0  0  0  0  0  0  0  0  0  0  0  0  # atno 11005 bound_to 11000
  146.3465  140.1882  142.8589 LP  0  0  0  0  0  0  0  0  0  0  0  0  # atno 17320 bound_to 7965
  145.0213  140.8796  143.5165 LP  0  0  0  0  0  0  0  0  0  0  0  0  # atno 17321 bound_to 7965
  140.0040  143.5714  152.2865 LP  0  0  0  0  0  0  0  0  0  0  0  0  # atno 17342 bound_to 10162
  139.6413  144.7655  151.2332 LP  0  0  0  0  0  0  0  0  0  0  0  0  # atno 17343 bound_to 10162
  157.7282  131.0633  150.5829 LP  0  0  0  0  0  0  0  0  0  0  0  0  # atno 17370 bound_to 10713
  156.5925  130.4333  149.5930 LP  0  0  0  0  0  0  0  0  0  0  0  0  # atno 17371 bound_to 10713
  141.1272  133.9363  157.2610 LP  0  0  0  0  0  0  0  0  0  0  0  0  # atno 17394 bound_to 11000
  139.9546  135.0168  156.9090 LP  0  0  0  0  0  0  0  0  0  0  0  0  # atno 17395 bound_to 11000

$$$$
