AV-unprocessed.smi:1439|AV-procd|sdf|5872|dock7
  -GOLD-   22720 5553D 1   1.00000     0.00000
 Structure written by MMmdl.
 35 36  0  0  0  0  0  0  0  0  2 V2000
  143.5649  143.5471  154.6648 N   0  0  0  0  0  0  0  0  0  0  0  0
  144.8607  143.5178  154.9918 C   0  0  0  0  0  0  0  0  0  0  0  0
  145.2397  143.6217  156.1567 O   0  0  0  0  0  0  0  0  0  0  0  0
  145.8807  143.3187  153.8637 C   0  0  0  0  0  0  0  0  0  0  0  0
  146.7486  142.1144  154.1022 C   0  0  0  0  0  0  0  0  0  0  0  0
  146.7910  140.9701  153.3477 C   0  0  0  0  0  0  0  0  0  0  0  0
  147.9453  139.8282  153.9732 S   0  0  0  0  0  0  0  0  0  0  0  0
  148.3454  140.9583  155.2676 C   0  0  0  0  0  0  0  0  0  0  0  0
  149.2505  140.7312  156.2319 N   0  5  0  0  0  0  0  0  0  0  0  0
  150.5512  141.0392  156.0123 C   0  0  0  0  0  0  0  0  0  0  0  0
  151.3675  140.4633  155.2905 O   0  0  0  0  0  0  0  0  0  0  0  0
  150.9899  142.2795  156.8020 C   0  0  0  0  0  0  0  0  0  0  0  0
  151.8259  141.9144  158.0417 C   0  0  0  0  0  0  0  0  0  0  0  0
  152.3529  143.1498  158.7861 C   0  0  1  0  0  0  0  0  0  0  0  0
  151.4562  144.3787  158.6547 C   0  0  0  0  0  0  0  0  0  0  0  0
  151.8760  145.1868  159.8612 C   0  0  0  0  0  0  0  0  0  0  0  0
  152.1055  144.0999  160.9093 C   0  0  0  0  0  0  0  0  0  0  0  0
  152.4237  142.9109  160.1891 O   0  0  0  0  0  0  0  0  0  0  0  0
  147.6238  142.0820  155.1921 N   0  0  0  0  0  0  0  0  0  0  0  0
  142.8705  143.7060  155.3800 H   0  0  0  0  0  0  0  0  0  0  0  0
  143.2878  143.4396  153.6996 H   0  0  0  0  0  0  0  0  0  0  0  0
  145.3514  143.2209  152.9150 H   0  0  0  0  0  0  0  0  0  0  0  0
  146.4885  144.2203  153.7836 H   0  0  0  0  0  0  0  0  0  0  0  0
  146.2190  140.7314  152.4638 H   0  0  0  0  0  0  0  0  0  0  0  0
  151.5734  142.9158  156.1358 H   0  0  0  0  0  0  0  0  0  0  0  0
  150.1264  142.8715  157.1118 H   0  0  0  0  0  0  0  0  0  0  0  0
  151.2138  141.3246  158.7257 H   0  0  0  0  0  0  0  0  0  0  0  0
  152.6651  141.2797  157.7538 H   0  0  0  0  0  0  0  0  0  0  0  0
  153.3548  143.4026  158.4350 H   0  0  0  0  0  0  0  0  0  0  0  0
  151.5966  144.9099  157.7128 H   0  0  0  0  0  0  0  0  0  0  0  0
  150.4047  144.1003  158.7391 H   0  0  0  0  0  0  0  0  0  0  0  0
  152.8102  145.7099  159.6521 H   0  0  0  0  0  0  0  0  0  0  0  0
  151.1321  145.9235  160.1658 H   0  0  0  0  0  0  0  0  0  0  0  0
  152.9002  144.3647  161.6073 H   0  0  0  0  0  0  0  0  0  0  0  0
  151.1958  143.9221  161.4837 H   0  0  0  0  0  0  0  0  0  0  0  0
  1  2  1  0  0  0  0
  1 20  1  0  0  0  0
  1 21  1  0  0  0  0
  2  3  2  0  0  0  0
  2  4  1  0  0  0  0
  4  5  1  0  0  0  0
  4 22  1  0  0  0  0
  4 23  1  0  0  0  0
  5 19  1  0  0  0  0
  5  6  2  0  0  0  0
  6  7  1  0  0  0  0
  6 24  1  0  0  0  0
  7  8  1  0  0  0  0
  8  9  1  0  0  0  0
  8 19  2  0  0  0  0
  9 10  1  0  0  0  0
 10 11  2  0  0  0  0
 10 12  1  0  0  0  0
 12 13  1  0  0  0  0
 12 25  1  0  0  0  0
 12 26  1  0  0  0  0
 13 14  1  0  0  0  0
 13 27  1  0  0  0  0
 13 28  1  0  0  0  0
 14 18  1  0  0  0  0
 14 15  1  0  0  0  0
 14 29  1  0  0  0  0
 15 16  1  0  0  0  0
 15 30  1  0  0  0  0
 15 31  1  0  0  0  0
 16 17  1  0  0  0  0
 16 32  1  0  0  0  0
 16 33  1  0  0  0  0
 17 18  1  0  0  0  0
 17 34  1  0  0  0  0
 17 35  1  0  0  0  0
M  CHG  1   9  -1
M  END
> <s_m_source_file>
AV-unprocessed.smi

> <i_m_source_file_index>
1439

> <i_lp_mmshare_version>
43012

> <i_f3d_flags>
0

> <s_epik_input>
W05IMl1DKD1PKVtDSDJdYzFbY0hdc2MobjEpW05IXUMoPU8pW0NIMl1bQ0gyXVtDQEBIXTJbQ0gyXVtDSDJdW0NIMl1PMg==

> <s_epik_cmdline>
J2VwaWtfcHl0aG9uJywgJy1waCcsICc3LjAnLCAnLXRuJywgJzgnLCAnLW1hJywgJzIwMCcsICctbWV0YWxfYmluZGluZycsICctaW1hZScsICc8aW5maWxlLm1hZT4nLCAnLW9tYWUnLCAnPG91dGZpbGUubWFlPic=

> <r_lp_tautomer_probability>
1

> <r_epik_Ionization_Penalty>
4.85214

> <r_epik_Ionization_Penalty_Charging>
4.5239

> <r_epik_Ionization_Penalty_Neutral>
0.32824

> <r_epik_State_Penalty>
4.52362

> <r_epik_Charging_Adjusted_Penalty>
9.04752

> <i_epik_Tot_Q>
-1

> <i_epik_Tot_abs_Q>
1

> <r_epik_Metal_State_Penalty>
0.831335

> <b_epik_Metal_Only>
1

> <s_lp_Force_Field>
OPLS_2005

> <r_lp_Energy>
13.9468

> <b_lp_Chiralities_Consistent>
1

> <s_lp_Variant>
AV-unprocessed.smi:1439-4

> <Gold.Version>
5.8.1

> <Gold.Id.Protein>
6NUR|6NUR_protein|mol2

> <Gold.PLP.Fitness>
45.5066

> <Gold.PLP.PLP>
-41.1930

> <Gold.PLP.part.hbond>
-2.0000

> <Gold.PLP.part.metal>
0.0000

> <Gold.PLP.part.buried>
-7.8597

> <Gold.PLP.part.nonpolar>
-33.6654

> <Gold.PLP.part.repulsive>
1.3858

> <Gold.PLP.ligand.clash>
0.0000

> <Gold.PLP.ligand.torsion>
2.1065

> <Gold.PLP.Chemscore.Hbond>
1.9280

> <Gold.PLP.Chemscore.CHOScore>
0.8534

> <Gold.PLP.Chemscore.Metal>
0.0000

> <Gold.Chemscore.Hbonds>
donor molecule, donor type, donor heavy atom, donor atom, acceptor molecule, acceptor atom, score
      L1  H     1    21       P1 10174  1.00
      P1  H  7989  7998       L1    11  0.91
      L1  C     6    24       P1 10175  0.86

> <Gold.PLP.Chemscore.Internal.Correction>
0.1825

> <Gold.Rescore>
     Score         DG    S(hbond)    S(metal)    S(lipo)     H(rot)  DE(clash)    DE(int)     intcor
     14.03     -16.09       1.94        0.00      90.32       2.51       0.21       1.85       ----

> <Gold.Chemscore.Fitness>
14.0299

> <Gold.Chemscore.DG>
-16.0895

> <Gold.Chemscore.ZeroCoef>
-5.4800

> <Gold.Chemscore.Hbond>
1.9366

> <Gold.Chemscore.Metal>
0.0000

> <Gold.Chemscore.Lipo>
90.3220

> <Gold.Chemscore.Internal_Hbond>
0.0000

> <Gold.Chemscore.DEClash>
0.2131

> <Gold.Chemscore.DEInternal>
1.8465

> <Gold.Chemscore.Rot>
2.5103

> <Gold.Chemscore.Internal.Correction>
   9.000000E+99

> <Gold.Chemscore.Hbonds>
donor molecule, donor type, donor heavy atom, donor atom, acceptor molecule, acceptor atom, score
      L1  H     1    21       P1 10174  0.91
      P1  H  7989  7998       L1    11  0.88

> <Gold.Chemscore.Hbond.Weighted>
-6.4683

> <Gold.Chemscore.Metal.Weighted>
-0.0000

> <Gold.Chemscore.Lipo.Weighted>
-10.5677

> <Gold.Chemscore.Internal_Hbond.Weighted>
0.0000

> <Gold.Chemscore.DEClash.Weighted>
0.2131

> <Gold.Chemscore.DEInternal.Weighted>
1.8465

> <Gold.Chemscore.Rot.Weighted>
6.4264

> <Gold.Chemscore.Internal.Correction.Weighted>
   9.000000E+99

> <Gold.Protein.RotatedTorsions>
[ 6907 6896 6895 6894 ] final -116.91 input  -60.11 | X-H torsion
[ 7974 7965 7964 7962 ] final -162.73 input  175.53 | X-H torsion
[ 8008 7997 7996 7995 ] final   91.75 input   59.86 | X-H torsion
[ 10167 10162 10161 10158 ] final  101.69 input  -65.29 | X-H torsion
[ 10718 10713 10712 10709 ] final -158.07 input   66.30 | X-H torsion
[ 10763 10752 10751 10750 ] final -167.25 input  -60.55 | X-H torsion
[ 11005 11000 10999 10996 ] final -141.04 input  -57.11 | X-H torsion

> <Gold.Protein.ActiveResidues>
 VAL166  LYS551  ARG553  GLY616  TRP617  ASP618  TYR619  PRO620  LYS621  CYS622 
 ASP623  PHE694  ASN695  SER759  ASP760  ASP761  ALA762  ILE779  LEU786  VAL792 
 PHE793  MET794  SER795  GLU796  ALA797  LYS798  CYS799  TRP800  GLU811  SER814 

> <Gold.Protein.RotatedAtoms>
  150.8094  133.8450  159.3189 H   0  0  0  0  0  0  0  0  0  0  0  0  # atno 6907 bound_to 6896
  151.6240  135.1027  160.0117 H   0  0  0  0  0  0  0  0  0  0  0  0  # atno 6908 bound_to 6896
  152.4185  133.7038  159.6496 H   0  0  0  0  0  0  0  0  0  0  0  0  # atno 6909 bound_to 6896
  144.7348  140.3210  143.6170 H   0  0  0  0  0  0  0  0  0  0  0  0  # atno 7974 bound_to 7965
  156.0273  140.3334  155.7102 H   0  0  0  0  0  0  0  0  0  0  0  0  # atno 8008 bound_to 7997
  155.5935  140.0648  157.2770 H   0  0  0  0  0  0  0  0  0  0  0  0  # atno 8009 bound_to 7997
  154.4339  140.1823  156.1087 H   0  0  0  0  0  0  0  0  0  0  0  0  # atno 8010 bound_to 7997
  139.7416  144.7009  151.0567 H   0  0  0  0  0  0  0  0  0  0  0  0  # atno 10167 bound_to 10162
  156.5490  130.8597  151.2774 H   0  0  0  0  0  0  0  0  0  0  0  0  # atno 10718 bound_to 10713
  154.6751  135.2945  154.9690 H   0  0  0  0  0  0  0  0  0  0  0  0  # atno 10763 bound_to 10752
  154.0704  135.6619  153.4827 H   0  0  0  0  0  0  0  0  0  0  0  0  # atno 10764 bound_to 10752
  153.0511  135.5173  154.7766 H   0  0  0  0  0  0  0  0  0  0  0  0  # atno 10765 bound_to 10752
  140.8363  134.2456  157.4832 H   0  0  0  0  0  0  0  0  0  0  0  0  # atno 11005 bound_to 11000
  145.7568  139.1811  143.2290 LP  0  0  0  0  0  0  0  0  0  0  0  0  # atno 17320 bound_to 7965
  146.1018  140.7535  142.9545 LP  0  0  0  0  0  0  0  0  0  0  0  0  # atno 17321 bound_to 7965
  140.7786  143.4917  150.9884 LP  0  0  0  0  0  0  0  0  0  0  0  0  # atno 17342 bound_to 10162
  139.8606  143.7320  152.3173 LP  0  0  0  0  0  0  0  0  0  0  0  0  # atno 17343 bound_to 10162
  157.7391  130.9825  150.2293 LP  0  0  0  0  0  0  0  0  0  0  0  0  # atno 17370 bound_to 10713
  156.2902  130.3744  149.7849 LP  0  0  0  0  0  0  0  0  0  0  0  0  # atno 17371 bound_to 10713
  139.8704  134.9612  156.4390 LP  0  0  0  0  0  0  0  0  0  0  0  0  # atno 17394 bound_to 11000
  140.8944  133.7825  155.9608 LP  0  0  0  0  0  0  0  0  0  0  0  0  # atno 17395 bound_to 11000

$$$$
