AV-unprocessed.smi:2881|AV-procd|sdf|11068|dock7
  -GOLD-   2272015543D 1   1.00000     0.00000
 Structure written by MMmdl.
 40 42  0  0  0  0  0  0  0  0  1 V2000
  153.4003  142.6704  161.8850 C   0  0  0  0  0  0  0  0  0  0  0  0
  152.6839  143.0668  160.6277 C   0  0  0  0  0  0  0  0  0  0  0  0
  152.7316  142.4347  159.3504 C   0  0  0  0  0  0  0  0  0  0  0  0
  151.9046  143.1911  158.5676 C   0  0  0  0  0  0  0  0  0  0  0  0
  151.5203  143.0670  157.1283 C   0  0  0  0  0  0  0  0  0  0  0  0
  150.6892  141.8067  156.8916 C   0  0  0  0  0  0  0  0  0  0  0  0
  151.1031  140.7140  157.2786 O   0  0  0  0  0  0  0  0  0  0  0  0
  149.5187  141.9722  156.2576 N   0  0  0  0  0  0  0  0  0  0  0  0
  148.5816  140.8977  155.9388 C   0  0  1  0  0  0  0  0  0  0  0  0
  147.1105  141.2377  156.2892 C   0  0  1  0  0  0  0  0  0  0  0  0
  146.6854  142.5967  155.6922 C   0  0  0  0  0  0  0  0  0  0  0  0
  146.6344  142.2989  154.1821 C   0  0  0  0  0  0  0  0  0  0  0  0
  147.0061  140.8045  154.1161 C   0  0  2  0  0  0  0  0  0  0  0  0
  146.3521  140.2733  155.3867 C   0  0  0  0  0  0  0  0  0  0  0  0
  148.5167  140.6386  154.4112 C   0  0  2  0  0  0  0  0  0  0  0  0
  149.0779  139.2579  154.0189 C   0  0  0  0  0  0  0  0  0  0  0  0
  148.4279  138.7724  152.8633 O   0  0  0  0  0  0  0  0  0  0  0  0
  151.4248  144.1961  159.3769 N   0  0  0  0  0  0  0  0  0  0  0  0
  151.8934  144.1299  160.6369 N   0  0  0  0  0  0  0  0  0  0  0  0
  150.7837  144.9213  159.0871 H   0  0  0  0  0  0  0  0  0  0  0  0
  153.8818  141.6986  161.7742 H   0  0  0  0  0  0  0  0  0  0  0  0
  152.7115  142.6039  162.7276 H   0  0  0  0  0  0  0  0  0  0  0  0
  154.1724  143.3962  162.1410 H   0  0  0  0  0  0  0  0  0  0  0  0
  153.2887  141.5579  159.0549 H   0  0  0  0  0  0  0  0  0  0  0  0
  152.4135  143.0380  156.5027 H   0  0  0  0  0  0  0  0  0  0  0  0
  150.9501  143.9420  156.8136 H   0  0  0  0  0  0  0  0  0  0  0  0
  149.2578  142.9055  155.9742 H   0  0  0  0  0  0  0  0  0  0  0  0
  148.8800  139.9872  156.4629 H   0  0  0  0  0  0  0  0  0  0  0  0
  146.8829  141.1407  157.3512 H   0  0  0  0  0  0  0  0  0  0  0  0
  145.6962  142.8787  156.0548 H   0  0  0  0  0  0  0  0  0  0  0  0
  147.3645  143.4134  155.9373 H   0  0  0  0  0  0  0  0  0  0  0  0
  145.6292  142.4671  153.7936 H   0  0  0  0  0  0  0  0  0  0  0  0
  147.3208  142.9244  153.6104 H   0  0  0  0  0  0  0  0  0  0  0  0
  146.6769  140.3226  153.1950 H   0  0  0  0  0  0  0  0  0  0  0  0
  146.5733  139.2249  155.5908 H   0  0  0  0  0  0  0  0  0  0  0  0
  145.2704  140.4174  155.4092 H   0  0  0  0  0  0  0  0  0  0  0  0
  149.0817  141.3976  153.8664 H   0  0  0  0  0  0  0  0  0  0  0  0
  150.1441  139.3341  153.8034 H   0  0  0  0  0  0  0  0  0  0  0  0
  148.9648  138.5346  154.8265 H   0  0  0  0  0  0  0  0  0  0  0  0
  148.7992  137.9326  152.6396 H   0  0  0  0  0  0  0  0  0  0  0  0
  1 21  1  0  0  0  0
  1 22  1  0  0  0  0
  1 23  1  0  0  0  0
  1  2  1  0  0  0  0
  2 19  2  0  0  0  0
  2  3  1  0  0  0  0
  3  4  2  0  0  0  0
  3 24  1  0  0  0  0
  4 18  1  0  0  0  0
  4  5  1  0  0  0  0
  5  6  1  0  0  0  0
  5 25  1  0  0  0  0
  5 26  1  0  0  0  0
  6  7  2  0  0  0  0
  6  8  1  0  0  0  0
  8  9  1  0  0  0  0
  8 27  1  0  0  0  0
  9 15  1  0  0  0  0
  9 10  1  0  0  0  0
  9 28  1  0  0  0  0
 10 14  1  0  0  0  0
 10 11  1  0  0  0  0
 10 29  1  0  0  0  0
 11 12  1  0  0  0  0
 11 30  1  0  0  0  0
 11 31  1  0  0  0  0
 12 13  1  0  0  0  0
 12 32  1  0  0  0  0
 12 33  1  0  0  0  0
 13 14  1  0  0  0  0
 13 15  1  0  0  0  0
 13 34  1  0  0  0  0
 14 35  1  0  0  0  0
 14 36  1  0  0  0  0
 15 16  1  0  0  0  0
 15 37  1  0  0  0  0
 16 17  1  0  0  0  0
 16 38  1  0  0  0  0
 16 39  1  0  0  0  0
 17 40  1  0  0  0  0
 18 19  1  0  0  0  0
 18 20  1  0  0  0  0
M  END
> <s_m_source_file>
AV-unprocessed.smi

> <i_m_source_file_index>
2881

> <i_lp_mmshare_version>
43012

> <i_f3d_flags>
0

> <s_epik_input>
W0NIM11jMVtjSF1jKG5bbkhdMSlbQ0gyXUMoPU8pW05IXVtDQEhdKFtDQEBIXTIzKVtDQEhdKFtDSDJdW09IXSlbQ0BASF0oW0NIMl0zKVtDSDJdW0NIMl0y

> <s_epik_cmdline>
J2VwaWtfcHl0aG9uJywgJy1waCcsICc3LjAnLCAnLXRuJywgJzgnLCAnLW1hJywgJzIwMCcsICctbWV0YWxfYmluZGluZycsICctaW1hZScsICc8aW5maWxlLm1hZT4nLCAnLW9tYWUnLCAnPG91dGZpbGUubWFlPic=

> <r_lp_tautomer_probability>
0.5

> <r_epik_Ionization_Penalty>
0.00013396

> <r_epik_Ionization_Penalty_Charging>
0

> <r_epik_Ionization_Penalty_Neutral>
0.00013396

> <r_epik_State_Penalty>
0.41068

> <r_epik_Charging_Adjusted_Penalty>
0.41068

> <i_epik_Tot_Q>
0

> <i_epik_Tot_abs_Q>
0

> <r_epik_Metal_State_Penalty>
0.41066

> <b_epik_Metal_Only>
0

> <s_lp_Force_Field>
OPLS_2005

> <r_lp_Energy>
46.8949

> <b_lp_Chiralities_Consistent>
1

> <s_lp_Variant>
AV-unprocessed.smi:2881-14

> <Gold.Version>
5.8.1

> <Gold.Id.Protein>
6NUR|6NUR_protein|mol2

> <Gold.PLP.Fitness>
42.2384

> <Gold.PLP.PLP>
-37.3626

> <Gold.PLP.part.hbond>
-2.5393

> <Gold.PLP.part.metal>
0.0000

> <Gold.PLP.part.buried>
-4.5309

> <Gold.PLP.part.nonpolar>
-30.1451

> <Gold.PLP.part.repulsive>
0.3377

> <Gold.PLP.ligand.clash>
0.0000

> <Gold.PLP.ligand.torsion>
0.5596

> <Gold.PLP.Chemscore.Hbond>
1.9920

> <Gold.PLP.Chemscore.CHOScore>
0.0000

> <Gold.PLP.Chemscore.Metal>
0.0000

> <Gold.Chemscore.Hbonds>
donor molecule, donor type, donor heavy atom, donor atom, acceptor molecule, acceptor atom, score
      L1  H     8    27       P1  8028  1.00
      L1  H    17    40       P1  7948  1.00

> <Gold.PLP.Chemscore.Internal.Correction>
0.0189

> <Gold.Rescore>
     Score         DG    S(hbond)    S(metal)    S(lipo)     H(rot)  DE(clash)    DE(int)     intcor
     16.48     -16.98       1.90        0.00      93.86       2.28       0.02       0.49       ----

> <Gold.Chemscore.Fitness>
16.4790

> <Gold.Chemscore.DG>
-16.9815

> <Gold.Chemscore.ZeroCoef>
-5.4800

> <Gold.Chemscore.Hbond>
1.8997

> <Gold.Chemscore.Metal>
0.0000

> <Gold.Chemscore.Lipo>
93.8611

> <Gold.Chemscore.Internal_Hbond>
0.0000

> <Gold.Chemscore.DEClash>
0.0172

> <Gold.Chemscore.DEInternal>
0.4853

> <Gold.Chemscore.Rot>
2.2755

> <Gold.Chemscore.Internal.Correction>
   9.000000E+99

> <Gold.Chemscore.Hbonds>
donor molecule, donor type, donor heavy atom, donor atom, acceptor molecule, acceptor atom, score
      L1  H     8    27       P1  8028  1.00
      L1  H    17    40       P1  7948  1.00

> <Gold.Chemscore.Hbond.Weighted>
-6.3450

> <Gold.Chemscore.Metal.Weighted>
-0.0000

> <Gold.Chemscore.Lipo.Weighted>
-10.9817

> <Gold.Chemscore.Internal_Hbond.Weighted>
0.0000

> <Gold.Chemscore.DEClash.Weighted>
0.0172

> <Gold.Chemscore.DEInternal.Weighted>
0.4853

> <Gold.Chemscore.Rot.Weighted>
5.8252

> <Gold.Chemscore.Internal.Correction.Weighted>
   9.000000E+99

> <Gold.Protein.RotatedTorsions>
[ 6907 6896 6895 6894 ] final  175.27 input  -60.11 | X-H torsion
[ 7974 7965 7964 7962 ] final  125.14 input  175.53 | X-H torsion
[ 8008 7997 7996 7995 ] final   41.06 input   59.86 | X-H torsion
[ 10167 10162 10161 10158 ] final -108.10 input  -65.29 | X-H torsion
[ 10718 10713 10712 10709 ] final   89.21 input   66.30 | X-H torsion
[ 10763 10752 10751 10750 ] final  -15.06 input  -60.55 | X-H torsion
[ 11005 11000 10999 10996 ] final   55.60 input  -57.11 | X-H torsion

> <Gold.Protein.ActiveResidues>
 VAL166  LYS551  ARG553  GLY616  TRP617  ASP618  TYR619  PRO620  LYS621  CYS622 
 ASP623  PHE694  ASN695  SER759  ASP760  ASP761  ALA762  ILE779  LEU786  VAL792 
 PHE793  MET794  SER795  GLU796  ALA797  LYS798  CYS799  TRP800  GLU811  SER814 

> <Gold.Protein.RotatedAtoms>
  151.7390  133.3321  159.3360 H   0  0  0  0  0  0  0  0  0  0  0  0  # atno 6907 bound_to 6896
  150.7581  134.6295  159.6188 H   0  0  0  0  0  0  0  0  0  0  0  0  # atno 6908 bound_to 6896
  152.3543  134.6964  160.0278 H   0  0  0  0  0  0  0  0  0  0  0  0  # atno 6909 bound_to 6896
  145.0764  139.3691  143.4931 H   0  0  0  0  0  0  0  0  0  0  0  0  # atno 7974 bound_to 7965
  155.2635  140.3361  155.4271 H   0  0  0  0  0  0  0  0  0  0  0  0  # atno 8008 bound_to 7997
  156.2164  140.1791  156.7621 H   0  0  0  0  0  0  0  0  0  0  0  0  # atno 8009 bound_to 7997
  154.5760  140.0662  156.9019 H   0  0  0  0  0  0  0  0  0  0  0  0  # atno 8010 bound_to 7997
  140.1698  143.4052  152.1363 H   0  0  0  0  0  0  0  0  0  0  0  0  # atno 10167 bound_to 10162
  157.6954  131.0324  150.3391 H   0  0  0  0  0  0  0  0  0  0  0  0  # atno 10718 bound_to 10713
  153.5376  135.7014  153.5652 H   0  0  0  0  0  0  0  0  0  0  0  0  # atno 10763 bound_to 10752
  153.3632  135.3964  155.1734 H   0  0  0  0  0  0  0  0  0  0  0  0  # atno 10764 bound_to 10752
  154.8677  135.3794  154.4878 H   0  0  0  0  0  0  0  0  0  0  0  0  # atno 10765 bound_to 10752
  140.0594  134.5624  155.9170 H   0  0  0  0  0  0  0  0  0  0  0  0  # atno 11005 bound_to 11000
  146.3530  140.0533  142.8634 LP  0  0  0  0  0  0  0  0  0  0  0  0  # atno 17320 bound_to 7965
  145.1231  140.9474  143.4589 LP  0  0  0  0  0  0  0  0  0  0  0  0  # atno 17321 bound_to 7965
  139.5343  144.7193  151.4947 LP  0  0  0  0  0  0  0  0  0  0  0  0  # atno 17342 bound_to 10162
  140.6589  143.8540  150.6866 LP  0  0  0  0  0  0  0  0  0  0  0  0  # atno 17343 bound_to 10162
  156.3854  130.3888  149.7070 LP  0  0  0  0  0  0  0  0  0  0  0  0  # atno 17370 bound_to 10713
  156.4437  130.7873  151.2895 LP  0  0  0  0  0  0  0  0  0  0  0  0  # atno 17371 bound_to 10713
  141.1966  133.6592  156.5702 LP  0  0  0  0  0  0  0  0  0  0  0  0  # atno 17394 bound_to 11000
  140.3794  134.7537  157.4651 LP  0  0  0  0  0  0  0  0  0  0  0  0  # atno 17395 bound_to 11000

$$$$
