AV-unprocessed.smi:1220|AV-procd|sdf|5116|dock3
  -GOLD-   22720 4173D 1   1.00000     0.00000
 Structure written by MMmdl.
 35 36  0  0  0  0  0  0  0  0  1 V2000
  154.2626  140.6387  161.3628 C   0  0  0  0  0  0  0  0  0  0  0  0
  153.5996  141.4635  160.2515 C   0  0  2  0  0  0  0  0  0  0  0  0
  152.9543  142.7490  160.8134 C   0  0  0  0  0  0  0  0  0  0  0  0
  152.2604  143.5193  159.7952 N   0  0  0  0  0  0  0  0  0  0  0  0
  152.7490  143.9880  158.5939 C   0  0  0  0  0  0  0  0  0  0  0  0
  151.7235  144.6303  157.9610 C   0  0  0  0  0  0  0  0  0  0  0  0
  150.6351  144.5060  158.8688 C   0  0  0  0  0  0  0  0  0  0  0  0
  150.9605  143.8450  159.9678 N   0  0  0  0  0  0  0  0  0  0  0  0
  152.6038  140.6350  159.5723 N   0  0  0  0  0  0  0  0  0  0  0  0
  152.8692  139.6733  158.6732 C   0  0  0  0  0  0  0  0  0  0  0  0
  154.0125  139.3389  158.3605 O   0  0  0  0  0  0  0  0  0  0  0  0
  151.6553  139.0009  158.0137 C   0  0  1  0  0  0  0  0  0  0  0  0
  150.6981  140.0506  157.4029 C   0  0  0  0  0  0  0  0  0  0  0  0
  151.1916  140.4470  156.0078 C   0  0  0  0  0  0  0  0  0  0  0  0
  151.9172  138.9226  155.3034 S   0  0  0  0  0  0  0  0  0  0  0  0
  150.9051  138.2399  154.4831 O   0  0  0  0  0  0  0  0  0  0  0  0
  153.2501  139.2261  154.7612 O   0  0  0  0  0  0  0  0  0  0  0  0
  152.0843  138.0253  156.8973 C   0  0  0  0  0  0  0  0  0  0  0  0
  155.0344  141.2166  161.8719 H   0  0  0  0  0  0  0  0  0  0  0  0
  154.7361  139.7434  160.9585 H   0  0  0  0  0  0  0  0  0  0  0  0
  153.5357  140.3223  162.1117 H   0  0  0  0  0  0  0  0  0  0  0  0
  154.3861  141.7472  159.5500 H   0  0  0  0  0  0  0  0  0  0  0  0
  152.2575  142.5077  161.6181 H   0  0  0  0  0  0  0  0  0  0  0  0
  153.7211  143.3905  161.2497 H   0  0  0  0  0  0  0  0  0  0  0  0
  153.7711  143.8180  158.2892 H   0  0  0  0  0  0  0  0  0  0  0  0
  151.7465  145.1129  156.9953 H   0  0  0  0  0  0  0  0  0  0  0  0
  149.6251  144.8735  158.7629 H   0  0  0  0  0  0  0  0  0  0  0  0
  151.6350  140.8410  159.7683 H   0  0  0  0  0  0  0  0  0  0  0  0
  151.1258  138.4416  158.7869 H   0  0  0  0  0  0  0  0  0  0  0  0
  149.7070  139.6044  157.3110 H   0  0  0  0  0  0  0  0  0  0  0  0
  150.5819  140.9271  158.0417 H   0  0  0  0  0  0  0  0  0  0  0  0
  150.3994  140.8245  155.3613 H   0  0  0  0  0  0  0  0  0  0  0  0
  151.9778  141.1998  156.0729 H   0  0  0  0  0  0  0  0  0  0  0  0
  153.1065  137.6589  157.0026 H   0  0  0  0  0  0  0  0  0  0  0  0
  151.4223  137.1600  156.8669 H   0  0  0  0  0  0  0  0  0  0  0  0
  1  2  1  0  0  0  0
  1 19  1  0  0  0  0
  1 20  1  0  0  0  0
  1 21  1  0  0  0  0
  2  3  1  0  0  0  0
  2  9  1  0  0  0  0
  2 22  1  0  0  0  0
  3  4  1  0  0  0  0
  3 23  1  0  0  0  0
  3 24  1  0  0  0  0
  4  8  1  0  0  0  0
  4  5  1  0  0  0  0
  5  6  2  0  0  0  0
  5 25  1  0  0  0  0
  6  7  1  0  0  0  0
  6 26  1  0  0  0  0
  7  8  2  0  0  0  0
  7 27  1  0  0  0  0
  9 10  1  0  0  0  0
  9 28  1  0  0  0  0
 10 11  2  0  0  0  0
 10 12  1  0  0  0  0
 12 18  1  0  0  0  0
 12 13  1  0  0  0  0
 12 29  1  0  0  0  0
 13 14  1  0  0  0  0
 13 30  1  0  0  0  0
 13 31  1  0  0  0  0
 14 15  1  0  0  0  0
 14 32  1  0  0  0  0
 14 33  1  0  0  0  0
 15 16  2  0  0  0  0
 15 17  2  0  0  0  0
 15 18  1  0  0  0  0
 18 34  1  0  0  0  0
 18 35  1  0  0  0  0
M  END
> <s_m_source_file>
AV-unprocessed.smi

> <i_m_source_file_index>
1220

> <i_lp_mmshare_version>
43012

> <i_f3d_flags>
0

> <s_epik_input>
bjFbY0hdW2NIXVtjSF1uMVtDSDJdW0NAQEhdKFtDSDNdKVtOSF1DKD1PKVtDQEBIXShbQ0gyXTIpW0NIMl1bQ0gyXVMyKD1PKT1P

> <s_epik_cmdline>
J2VwaWtfcHl0aG9uJywgJy1waCcsICc3LjAnLCAnLXRuJywgJzgnLCAnLW1hJywgJzIwMCcsICctbWV0YWxfYmluZGluZycsICctaW1hZScsICc8aW5maWxlLm1hZT4nLCAnLW9tYWUnLCAnPG91dGZpbGUubWFlPic=

> <r_lp_tautomer_probability>
1

> <r_epik_Ionization_Penalty>
0.000293905

> <r_epik_Ionization_Penalty_Charging>
0

> <r_epik_Ionization_Penalty_Neutral>
0.000293905

> <r_epik_State_Penalty>
-0

> <r_epik_Charging_Adjusted_Penalty>
0

> <i_epik_Tot_Q>
0

> <i_epik_Tot_abs_Q>
0

> <r_epik_Metal_State_Penalty>
-0

> <b_epik_Metal_Only>
0

> <s_lp_Force_Field>
OPLS_2005

> <r_lp_Energy>
1.9569

> <b_lp_Chiralities_Consistent>
1

> <s_lp_Variant>
AV-unprocessed.smi:1220-3

> <Gold.Version>
5.8.1

> <Gold.Id.Protein>
6NUR|6NUR_protein|mol2

> <Gold.PLP.Fitness>
49.8847

> <Gold.PLP.PLP>
-41.5764

> <Gold.PLP.part.hbond>
-2.6234

> <Gold.PLP.part.metal>
0.0000

> <Gold.PLP.part.buried>
-5.5213

> <Gold.PLP.part.nonpolar>
-33.6124

> <Gold.PLP.part.repulsive>
0.4211

> <Gold.PLP.ligand.clash>
0.0000

> <Gold.PLP.ligand.torsion>
0.3615

> <Gold.PLP.Chemscore.Hbond>
2.0000

> <Gold.PLP.Chemscore.CHOScore>
1.0000

> <Gold.PLP.Chemscore.Metal>
0.0000

> <Gold.Chemscore.Hbonds>
donor molecule, donor type, donor heavy atom, donor atom, acceptor molecule, acceptor atom, score
      P1  H  7997  8008       L1    17  1.00
      P1  H  7997  8010       L1    11  1.00
      L1  C     7    27       P1  8029  1.00

> <Gold.PLP.Chemscore.Internal.Correction>
0.0313

> <Gold.Rescore>
     Score         DG    S(hbond)    S(metal)    S(lipo)     H(rot)  DE(clash)    DE(int)     intcor
     17.98     -18.36       1.96        0.00      92.48       1.75       0.00       0.37       ----

> <Gold.Chemscore.Fitness>
17.9850

> <Gold.Chemscore.DG>
-18.3638

> <Gold.Chemscore.ZeroCoef>
-5.4800

> <Gold.Chemscore.Hbond>
1.9560

> <Gold.Chemscore.Metal>
0.0000

> <Gold.Chemscore.Lipo>
92.4814

> <Gold.Chemscore.Internal_Hbond>
0.0000

> <Gold.Chemscore.DEClash>
0.0042

> <Gold.Chemscore.DEInternal>
0.3746

> <Gold.Chemscore.Rot>
1.7460

> <Gold.Chemscore.Internal.Correction>
   9.000000E+99

> <Gold.Chemscore.Hbonds>
donor molecule, donor type, donor heavy atom, donor atom, acceptor molecule, acceptor atom, score
      P1  H  7997  8008       L1    17  0.99
      P1  H  7997  8010       L1    11  0.95

> <Gold.Chemscore.Hbond.Weighted>
-6.5332

> <Gold.Chemscore.Metal.Weighted>
-0.0000

> <Gold.Chemscore.Lipo.Weighted>
-10.8203

> <Gold.Chemscore.Internal_Hbond.Weighted>
0.0000

> <Gold.Chemscore.DEClash.Weighted>
0.0042

> <Gold.Chemscore.DEInternal.Weighted>
0.3746

> <Gold.Chemscore.Rot.Weighted>
4.4697

> <Gold.Chemscore.Internal.Correction.Weighted>
   9.000000E+99

> <Gold.Protein.RotatedTorsions>
[ 6907 6896 6895 6894 ] final  135.79 input  -60.11 | X-H torsion
[ 7974 7965 7964 7962 ] final  -21.71 input  175.53 | X-H torsion
[ 8008 7997 7996 7995 ] final    0.42 input   59.86 | X-H torsion
[ 10167 10162 10161 10158 ] final  -84.01 input  -65.29 | X-H torsion
[ 10718 10713 10712 10709 ] final   10.19 input   66.30 | X-H torsion
[ 10763 10752 10751 10750 ] final -153.74 input  -60.55 | X-H torsion
[ 11005 11000 10999 10996 ] final   33.19 input  -57.11 | X-H torsion

> <Gold.Protein.ActiveResidues>
 VAL166  LYS551  ARG553  GLY616  TRP617  ASP618  TYR619  PRO620  LYS621  CYS622 
 ASP623  PHE694  ASN695  SER759  ASP760  ASP761  ALA762  ILE779  LEU786  VAL792 
 PHE793  MET794  SER795  GLU796  ALA797  LYS798  CYS799  TRP800  GLU811  SER814 

> <Gold.Protein.RotatedAtoms>
  152.2965  133.5613  159.5590 H   0  0  0  0  0  0  0  0  0  0  0  0  # atno 6907 bound_to 6896
  150.7258  134.0353  159.3756 H   0  0  0  0  0  0  0  0  0  0  0  0  # atno 6908 bound_to 6896
  151.8255  135.0638  160.0481 H   0  0  0  0  0  0  0  0  0  0  0  0  # atno 6909 bound_to 6896
  146.1718  140.4378  142.8529 H   0  0  0  0  0  0  0  0  0  0  0  0  # atno 7974 bound_to 7965
  154.6679  140.2605  155.7038 H   0  0  0  0  0  0  0  0  0  0  0  0  # atno 8008 bound_to 7997
  156.2646  140.2835  156.1099 H   0  0  0  0  0  0  0  0  0  0  0  0  # atno 8009 bound_to 7997
  155.1211  140.0377  157.2740 H   0  0  0  0  0  0  0  0  0  0  0  0  # atno 8010 bound_to 7997
  140.4172  143.2599  151.8938 H   0  0  0  0  0  0  0  0  0  0  0  0  # atno 10167 bound_to 10162
  156.9774  130.5992  149.5674 H   0  0  0  0  0  0  0  0  0  0  0  0  # atno 10718 bound_to 10713
  154.7907  135.3206  154.7784 H   0  0  0  0  0  0  0  0  0  0  0  0  # atno 10763 bound_to 10752
  153.8474  135.6865  153.4800 H   0  0  0  0  0  0  0  0  0  0  0  0  # atno 10764 bound_to 10752
  153.1576  135.4674  154.9666 H   0  0  0  0  0  0  0  0  0  0  0  0  # atno 10765 bound_to 10752
  140.2657  134.3141  155.7843 H   0  0  0  0  0  0  0  0  0  0  0  0  # atno 11005 bound_to 11000
  144.8174  140.6491  143.6375 LP  0  0  0  0  0  0  0  0  0  0  0  0  # atno 17320 bound_to 7965
  145.4320  139.1547  143.4017 LP  0  0  0  0  0  0  0  0  0  0  0  0  # atno 17321 bound_to 7965
  139.4782  144.5475  151.8436 LP  0  0  0  0  0  0  0  0  0  0  0  0  # atno 17342 bound_to 10162
  140.4573  144.1771  150.5903 LP  0  0  0  0  0  0  0  0  0  0  0  0  # atno 17343 bound_to 10162
  156.0258  130.5352  150.8402 LP  0  0  0  0  0  0  0  0  0  0  0  0  # atno 17370 bound_to 10713
  157.5550  131.0945  150.9641 LP  0  0  0  0  0  0  0  0  0  0  0  0  # atno 17371 bound_to 10713
  141.2184  133.7436  156.9256 LP  0  0  0  0  0  0  0  0  0  0  0  0  # atno 17394 bound_to 11000
  140.1422  134.9286  157.2481 LP  0  0  0  0  0  0  0  0  0  0  0  0  # atno 17395 bound_to 11000

$$$$
