AV-unprocessed.smi:2179|AV-procd|sdf|8856|dock9
  -GOLD-   2272012 53D 1   1.00000     0.00000
 Structure written by MMmdl.
 47 48  0  0  0  0  0  0  0  0  1 V2000
  144.5761  135.0693  150.5297 C   0  0  0  0  0  0  0  0  0  0  0  0
  145.4013  135.7050  151.6438 C   0  0  0  0  0  0  0  0  0  0  0  0
  146.2006  135.0216  152.2826 O   0  0  0  0  0  0  0  0  0  0  0  0
  145.2031  137.0136  151.8626 N   0  0  0  0  0  0  0  0  0  0  0  0
  145.8930  137.8059  152.8734 C   0  0  0  0  0  0  0  0  0  0  0  0
  146.7623  138.9037  152.2341 C   0  0  0  0  0  0  0  0  0  0  0  0
  147.6447  139.5236  153.2148 N   0  0  0  0  0  0  0  0  0  0  0  0
  148.2733  138.8701  154.2054 C   0  0  0  0  0  0  0  0  0  0  0  0
  148.1908  137.6538  154.3772 O   0  0  0  0  0  0  0  0  0  0  0  0
  149.1570  139.7119  155.0794 C   0  0  0  0  0  0  0  0  0  0  0  0
  149.4194  141.0675  154.7851 C   0  0  0  0  0  0  0  0  0  0  0  0
  150.2357  141.8131  155.6571 C   0  0  0  0  0  0  0  0  0  0  0  0
  150.7690  141.1881  156.8092 C   0  0  0  0  0  0  0  0  0  0  0  0
  151.5907  141.9156  157.6977 N   0  0  0  0  0  0  0  0  0  0  0  0
  152.2542  141.1315  158.7359 C   0  0  0  0  0  0  0  0  0  0  0  0
  153.3523  141.9663  159.4217 C   0  0  2  0  0  0  0  0  0  0  0  0
  153.9898  141.2218  160.5993 C   0  0  0  0  0  0  0  0  0  0  0  0
  152.7835  143.1766  159.9136 O   0  0  0  0  0  0  0  0  0  0  0  0
  152.2400  143.9845  158.8733 C   0  0  2  0  0  0  0  0  0  0  0  0
  151.7435  145.2956  159.4914 C   0  0  0  0  0  0  0  0  0  0  0  0
  151.1078  143.2105  158.1733 C   0  0  0  0  0  0  0  0  0  0  0  0
  150.5013  139.8908  157.0979 N   0  0  0  0  0  0  0  0  0  0  0  0
  149.7175  139.1800  156.2600 C   0  0  0  0  0  0  0  0  0  0  0  0
  145.1074  135.1426  149.5805 H   0  0  0  0  0  0  0  0  0  0  0  0
  143.6093  135.5630  150.4241 H   0  0  0  0  0  0  0  0  0  0  0  0
  144.3968  134.0147  150.7411 H   0  0  0  0  0  0  0  0  0  0  0  0
  144.5248  137.4941  151.2891 H   0  0  0  0  0  0  0  0  0  0  0  0
  145.1376  138.2579  153.5168 H   0  0  0  0  0  0  0  0  0  0  0  0
  146.4949  137.1558  153.5111 H   0  0  0  0  0  0  0  0  0  0  0  0
  147.3481  138.5024  151.4050 H   0  0  0  0  0  0  0  0  0  0  0  0
  146.1267  139.6844  151.8149 H   0  0  0  0  0  0  0  0  0  0  0  0
  147.7912  140.5191  153.1333 H   0  0  0  0  0  0  0  0  0  0  0  0
  149.0000  141.5426  153.9102 H   0  0  0  0  0  0  0  0  0  0  0  0
  150.4263  142.8538  155.4420 H   0  0  0  0  0  0  0  0  0  0  0  0
  151.5079  140.8191  159.4676 H   0  0  0  0  0  0  0  0  0  0  0  0
  152.7000  140.2236  158.3320 H   0  0  0  0  0  0  0  0  0  0  0  0
  154.1351  142.2065  158.6996 H   0  0  0  0  0  0  0  0  0  0  0  0
  154.4519  140.2903  160.2714 H   0  0  0  0  0  0  0  0  0  0  0  0
  153.2482  140.9784  161.3608 H   0  0  0  0  0  0  0  0  0  0  0  0
  154.7634  141.8288  161.0703 H   0  0  0  0  0  0  0  0  0  0  0  0
  153.0261  144.2171  158.1526 H   0  0  0  0  0  0  0  0  0  0  0  0
  151.3258  145.9548  158.7300 H   0  0  0  0  0  0  0  0  0  0  0  0
  152.5588  145.8285  159.9811 H   0  0  0  0  0  0  0  0  0  0  0  0
  150.9695  145.1121  160.2372 H   0  0  0  0  0  0  0  0  0  0  0  0
  150.7306  143.8014  157.3375 H   0  0  0  0  0  0  0  0  0  0  0  0
  150.2772  143.0518  158.8630 H   0  0  0  0  0  0  0  0  0  0  0  0
  149.5402  138.1531  156.5452 H   0  0  0  0  0  0  0  0  0  0  0  0
  1  2  1  0  0  0  0
  1 24  1  0  0  0  0
  1 25  1  0  0  0  0
  1 26  1  0  0  0  0
  2  3  2  0  0  0  0
  2  4  1  0  0  0  0
  4  5  1  0  0  0  0
  4 27  1  0  0  0  0
  5  6  1  0  0  0  0
  5 28  1  0  0  0  0
  5 29  1  0  0  0  0
  6  7  1  0  0  0  0
  6 30  1  0  0  0  0
  6 31  1  0  0  0  0
  7  8  1  0  0  0  0
  7 32  1  0  0  0  0
  8  9  2  0  0  0  0
  8 10  1  0  0  0  0
 10 23  1  0  0  0  0
 10 11  2  0  0  0  0
 11 12  1  0  0  0  0
 11 33  1  0  0  0  0
 12 13  2  0  0  0  0
 12 34  1  0  0  0  0
 13 14  1  0  0  0  0
 13 22  1  0  0  0  0
 14 21  1  0  0  0  0
 14 15  1  0  0  0  0
 15 16  1  0  0  0  0
 15 35  1  0  0  0  0
 15 36  1  0  0  0  0
 16 17  1  0  0  0  0
 16 18  1  0  0  0  0
 16 37  1  0  0  0  0
 17 38  1  0  0  0  0
 17 39  1  0  0  0  0
 17 40  1  0  0  0  0
 18 19  1  0  0  0  0
 19 20  1  0  0  0  0
 19 21  1  0  0  0  0
 19 41  1  0  0  0  0
 20 42  1  0  0  0  0
 20 43  1  0  0  0  0
 20 44  1  0  0  0  0
 21 45  1  0  0  0  0
 21 46  1  0  0  0  0
 22 23  2  0  0  0  0
 23 47  1  0  0  0  0
M  END
> <s_m_source_file>
AV-unprocessed.smi

> <i_m_source_file_index>
2179

> <i_lp_mmshare_version>
43012

> <i_f3d_flags>
0

> <s_epik_input>
W0NIM11DKD1PKVtOSF1bQ0gyXVtDSDJdW05IXUMoPU8pYzFbY0hdW2NIXWMobltjSF0xKU4yW0NIMl1bQ0BASF0oW0NIM10pT1tDQEBIXShbQ0gzXSlbQ0gyXTI=

> <s_epik_cmdline>
J2VwaWtfcHl0aG9uJywgJy1waCcsICc3LjAnLCAnLXRuJywgJzgnLCAnLW1hJywgJzIwMCcsICctbWV0YWxfYmluZGluZycsICctaW1hZScsICc8aW5maWxlLm1hZT4nLCAnLW9tYWUnLCAnPG91dGZpbGUubWFlPic=

> <r_lp_tautomer_probability>
1

> <r_epik_Ionization_Penalty>
2.00433e-05

> <r_epik_Ionization_Penalty_Charging>
0

> <r_epik_Ionization_Penalty_Neutral>
2.00433e-05

> <r_epik_State_Penalty>
-0

> <r_epik_Charging_Adjusted_Penalty>
0

> <i_epik_Tot_Q>
0

> <i_epik_Tot_abs_Q>
0

> <r_epik_Metal_State_Penalty>
-0

> <b_epik_Metal_Only>
0

> <s_lp_Force_Field>
OPLS_2005

> <r_lp_Energy>
13.6511

> <b_lp_Chiralities_Consistent>
1

> <s_lp_Variant>
AV-unprocessed.smi:2179-1

> <Gold.Version>
5.8.1

> <Gold.Id.Protein>
6NUR|6NUR_protein|mol2

> <Gold.PLP.Fitness>
47.6719

> <Gold.PLP.PLP>
-45.1194

> <Gold.PLP.part.hbond>
-2.0000

> <Gold.PLP.part.metal>
0.0000

> <Gold.PLP.part.buried>
-4.6080

> <Gold.PLP.part.nonpolar>
-38.6989

> <Gold.PLP.part.repulsive>
0.5305

> <Gold.PLP.ligand.clash>
0.0000

> <Gold.PLP.ligand.torsion>
0.3991

> <Gold.PLP.Chemscore.Hbond>
1.0000

> <Gold.PLP.Chemscore.CHOScore>
0.0000

> <Gold.PLP.Chemscore.Metal>
0.0000

> <Gold.Chemscore.Hbonds>
donor molecule, donor type, donor heavy atom, donor atom, acceptor molecule, acceptor atom, score
      L1  H     4    27       P1 10171  1.00

> <Gold.PLP.Chemscore.Internal.Correction>
0.3508

> <Gold.Rescore>
     Score         DG    S(hbond)    S(metal)    S(lipo)     H(rot)  DE(clash)    DE(int)     intcor
     14.76     -16.86       1.00        0.00     109.43       1.86       0.17       1.93       ----

> <Gold.Chemscore.Fitness>
14.7632

> <Gold.Chemscore.DG>
-16.8632

> <Gold.Chemscore.ZeroCoef>
-5.4800

> <Gold.Chemscore.Hbond>
0.9993

> <Gold.Chemscore.Metal>
0.0000

> <Gold.Chemscore.Lipo>
109.4327

> <Gold.Chemscore.Internal_Hbond>
0.0000

> <Gold.Chemscore.DEClash>
0.1661

> <Gold.Chemscore.DEInternal>
1.9340

> <Gold.Chemscore.Rot>
1.8586

> <Gold.Chemscore.Internal.Correction>
   9.000000E+99

> <Gold.Chemscore.Hbonds>
donor molecule, donor type, donor heavy atom, donor atom, acceptor molecule, acceptor atom, score
      L1  H     4    27       P1 10171  0.98

> <Gold.Chemscore.Hbond.Weighted>
-3.3375

> <Gold.Chemscore.Metal.Weighted>
-0.0000

> <Gold.Chemscore.Lipo.Weighted>
-12.8036

> <Gold.Chemscore.Internal_Hbond.Weighted>
0.0000

> <Gold.Chemscore.DEClash.Weighted>
0.1661

> <Gold.Chemscore.DEInternal.Weighted>
1.9340

> <Gold.Chemscore.Rot.Weighted>
4.7579

> <Gold.Chemscore.Internal.Correction.Weighted>
   9.000000E+99

> <Gold.Protein.RotatedTorsions>
[ 6907 6896 6895 6894 ] final  137.37 input  -60.11 | X-H torsion
[ 7974 7965 7964 7962 ] final  174.48 input  175.53 | X-H torsion
[ 8008 7997 7996 7995 ] final  161.18 input   59.86 | X-H torsion
[ 10167 10162 10161 10158 ] final   60.27 input  -65.29 | X-H torsion
[ 10718 10713 10712 10709 ] final  154.06 input   66.30 | X-H torsion
[ 10763 10752 10751 10750 ] final   93.65 input  -60.55 | X-H torsion
[ 11005 11000 10999 10996 ] final   60.59 input  -57.11 | X-H torsion

> <Gold.Protein.ActiveResidues>
 VAL166  LYS551  ARG553  GLY616  TRP617  ASP618  TYR619  PRO620  LYS621  CYS622 
 ASP623  PHE694  ASN695  SER759  ASP760  ASP761  ALA762  ILE779  LEU786  VAL792 
 PHE793  MET794  SER795  GLU796  ALA797  LYS798  CYS799  TRP800  GLU811  SER814 

> <Gold.Protein.RotatedAtoms>
  152.2788  133.5451  159.5484 H   0  0  0  0  0  0  0  0  0  0  0  0  # atno 6907 bound_to 6896
  150.7187  134.0594  159.3835 H   0  0  0  0  0  0  0  0  0  0  0  0  # atno 6908 bound_to 6896
  151.8505  135.0559  160.0509 H   0  0  0  0  0  0  0  0  0  0  0  0  # atno 6909 bound_to 6896
  144.7221  139.9803  143.6438 H   0  0  0  0  0  0  0  0  0  0  0  0  # atno 7974 bound_to 7965
  156.2121  140.1784  156.7671 H   0  0  0  0  0  0  0  0  0  0  0  0  # atno 8008 bound_to 7997
  154.5738  140.0678  156.9033 H   0  0  0  0  0  0  0  0  0  0  0  0  # atno 8009 bound_to 7997
  155.2625  140.3337  155.4274 H   0  0  0  0  0  0  0  0  0  0  0  0  # atno 8010 bound_to 7997
  140.1674  144.4311  150.6678 H   0  0  0  0  0  0  0  0  0  0  0  0  # atno 10167 bound_to 10162
  157.2366  131.0750  151.1819 H   0  0  0  0  0  0  0  0  0  0  0  0  # atno 10718 bound_to 10713
  153.2327  135.4318  155.0613 H   0  0  0  0  0  0  0  0  0  0  0  0  # atno 10763 bound_to 10752
  154.8304  135.3383  154.6764 H   0  0  0  0  0  0  0  0  0  0  0  0  # atno 10764 bound_to 10752
  153.7190  135.7018  153.5074 H   0  0  0  0  0  0  0  0  0  0  0  0  # atno 10765 bound_to 10752
  140.0221  134.6138  155.9625 H   0  0  0  0  0  0  0  0  0  0  0  0  # atno 11005 bound_to 11000
  146.0493  139.3495  143.0649 LP  0  0  0  0  0  0  0  0  0  0  0  0  # atno 17320 bound_to 7965
  145.8235  140.9667  143.0886 LP  0  0  0  0  0  0  0  0  0  0  0  0  # atno 17321 bound_to 7965
  140.6604  143.2250  151.5869 LP  0  0  0  0  0  0  0  0  0  0  0  0  # atno 17342 bound_to 10162
  139.5353  144.2798  152.1238 LP  0  0  0  0  0  0  0  0  0  0  0  0  # atno 17343 bound_to 10162
  157.3422  130.7039  149.6389 LP  0  0  0  0  0  0  0  0  0  0  0  0  # atno 17370 bound_to 10713
  155.9672  130.4276  150.4753 LP  0  0  0  0  0  0  0  0  0  0  0  0  # atno 17371 bound_to 10713
  141.1780  133.6542  156.4905 LP  0  0  0  0  0  0  0  0  0  0  0  0  # atno 17394 bound_to 11000
  140.4370  134.7050  157.4972 LP  0  0  0  0  0  0  0  0  0  0  0  0  # atno 17395 bound_to 11000

$$$$
