AV-unprocessed.smi:657|AV-procd|sdf|3227|dock7
  -GOLD-   22720 0163D 1   1.00000     0.00000
 Structure written by MMmdl.
 46 47  0  0  0  0  0  0  0  0  3 V2000
  151.3517  136.8876  154.8780 C   0  0  0  0  0  0  0  0  0  0  0  0
  149.8305  136.7412  155.0985 C   0  0  0  0  0  0  0  0  0  0  0  0
  149.4506  135.2634  154.8685 C   0  0  0  0  0  0  0  0  0  0  0  0
  149.0271  137.6790  154.2406 N   0  3  1  0  0  0  0  0  0  0  0  0
  147.5593  137.6716  154.5379 C   0  0  0  0  0  0  0  0  0  0  0  0
  146.7497  138.5322  153.5524 C   0  0  0  0  0  0  0  0  0  0  0  0
  147.2842  139.9630  153.4805 C   0  0  0  0  0  0  0  0  0  0  0  0
  148.7686  139.9155  153.1070 C   0  0  0  0  0  0  0  0  0  0  0  0
  149.5961  139.0650  154.0979 C   0  0  1  0  0  0  0  0  0  0  0  0
  149.8301  139.8220  155.4295 C   0  0  0  0  0  0  0  0  0  0  0  0
  149.2363  139.4544  156.4487 O   0  0  0  0  0  0  0  0  0  0  0  0
  150.6914  140.8625  155.2510 N   0  5  0  0  0  0  0  0  0  0  0  0
  151.3495  141.5743  156.3486 C   0  0  0  0  0  0  0  0  0  0  0  0
  151.7903  140.5892  157.4562 C   0  0  0  0  0  0  0  0  0  0  0  0
  152.4687  141.2518  158.6354 C   0  0  0  0  0  0  0  0  0  0  0  0
  152.7749  142.6319  158.8266 C   0  0  0  0  0  0  0  0  0  0  0  0
  153.4020  142.8689  159.9675 N   0  0  0  0  0  0  0  0  0  0  0  0
  153.5110  141.6566  160.5477 N   0  0  0  0  0  0  0  0  0  0  0  0
  154.1682  141.5343  161.8308 C   0  0  0  0  0  0  0  0  0  0  0  0
  152.9440  140.6666  159.7762 C   0  0  0  0  0  0  0  0  0  0  0  0
  151.9034  136.1326  155.4385 H   0  0  0  0  0  0  0  0  0  0  0  0
  151.7298  137.8505  155.2202 H   0  0  0  0  0  0  0  0  0  0  0  0
  151.6147  136.7729  153.8260 H   0  0  0  0  0  0  0  0  0  0  0  0
  149.6243  136.9674  156.1454 H   0  0  0  0  0  0  0  0  0  0  0  0
  150.1311  134.5965  155.3988 H   0  0  0  0  0  0  0  0  0  0  0  0
  149.4929  135.0005  153.8111 H   0  0  0  0  0  0  0  0  0  0  0  0
  148.4540  135.0294  155.2411 H   0  0  0  0  0  0  0  0  0  0  0  0
  147.1601  136.6625  154.4608 H   0  0  0  0  0  0  0  0  0  0  0  0
  147.3726  137.9918  155.5621 H   0  0  0  0  0  0  0  0  0  0  0  0
  146.7852  138.0804  152.5603 H   0  0  0  0  0  0  0  0  0  0  0  0
  145.6999  138.5440  153.8472 H   0  0  0  0  0  0  0  0  0  0  0  0
  146.7280  140.5378  152.7397 H   0  0  0  0  0  0  0  0  0  0  0  0
  147.1432  140.4684  154.4365 H   0  0  0  0  0  0  0  0  0  0  0  0
  148.8720  139.4983  152.1044 H   0  0  0  0  0  0  0  0  0  0  0  0
  149.1677  140.9285  153.0464 H   0  0  0  0  0  0  0  0  0  0  0  0
  150.5621  138.9444  153.6058 H   0  0  0  0  0  0  0  0  0  0  0  0
  152.2147  142.1502  156.0169 H   0  0  0  0  0  0  0  0  0  0  0  0
  150.6731  142.3068  156.7893 H   0  0  0  0  0  0  0  0  0  0  0  0
  150.9112  140.0413  157.7958 H   0  0  0  0  0  0  0  0  0  0  0  0
  152.4437  139.8341  157.0172 H   0  0  0  0  0  0  0  0  0  0  0  0
  152.5732  143.4608  158.1641 H   0  0  0  0  0  0  0  0  0  0  0  0
  154.3299  140.4824  162.0679 H   0  0  0  0  0  0  0  0  0  0  0  0
  153.5472  141.9837  162.6063 H   0  0  0  0  0  0  0  0  0  0  0  0
  155.1333  142.0413  161.8032 H   0  0  0  0  0  0  0  0  0  0  0  0
  152.9402  139.6327  160.0884 H   0  0  0  0  0  0  0  0  0  0  0  0
  149.0950  137.2929  153.3104 H   0  0  0  0  0  0  0  0  0  0  0  0
  1  2  1  0  0  0  0
  1 21  1  0  0  0  0
  1 22  1  0  0  0  0
  1 23  1  0  0  0  0
  2  3  1  0  0  0  0
  2  4  1  0  0  0  0
  2 24  1  0  0  0  0
  3 25  1  0  0  0  0
  3 26  1  0  0  0  0
  3 27  1  0  0  0  0
  4  9  1  0  0  0  0
  4  5  1  0  0  0  0
  4 46  1  0  0  0  0
  5  6  1  0  0  0  0
  5 28  1  0  0  0  0
  5 29  1  0  0  0  0
  6  7  1  0  0  0  0
  6 30  1  0  0  0  0
  6 31  1  0  0  0  0
  7  8  1  0  0  0  0
  7 32  1  0  0  0  0
  7 33  1  0  0  0  0
  8  9  1  0  0  0  0
  8 34  1  0  0  0  0
  8 35  1  0  0  0  0
  9 10  1  0  0  0  0
  9 36  1  0  0  0  0
 10 11  2  0  0  0  0
 10 12  1  0  0  0  0
 12 13  1  0  0  0  0
 13 14  1  0  0  0  0
 13 37  1  0  0  0  0
 13 38  1  0  0  0  0
 14 15  1  0  0  0  0
 14 39  1  0  0  0  0
 14 40  1  0  0  0  0
 15 20  2  0  0  0  0
 15 16  1  0  0  0  0
 16 17  2  0  0  0  0
 16 41  1  0  0  0  0
 17 18  1  0  0  0  0
 18 19  1  0  0  0  0
 18 20  1  0  0  0  0
 19 42  1  0  0  0  0
 19 43  1  0  0  0  0
 19 44  1  0  0  0  0
 20 45  1  0  0  0  0
M  CHG  1   4   1
M  CHG  1  12  -1
M  END
> <s_m_source_file>
AV-unprocessed.smi

> <i_m_source_file_index>
657

> <i_lp_mmshare_version>
43012

> <i_f3d_flags>
0

> <s_epik_input>
W0NIM11bQ0hdKFtDSDNdKU4xW0NIMl1bQ0gyXVtDSDJdW0NIMl1bQ0BIXTFDKD1PKVtOSF1bQ0gyXVtDSDJdYzJbY0hdbm4oW0NIM10pW2NIXTI=

> <s_epik_cmdline>
J2VwaWtfcHl0aG9uJywgJy1waCcsICc3LjAnLCAnLXRuJywgJzgnLCAnLW1hJywgJzIwMCcsICctbWV0YWxfYmluZGluZycsICctaW1hZScsICc8aW5maWxlLm1hZT4nLCAnLW9tYWUnLCAnPG91dGZpbGUubWFlPic=

> <r_lp_tautomer_probability>
1

> <r_epik_Ionization_Penalty>
6.1622

> <r_epik_Ionization_Penalty_Charging>
6.16146

> <r_epik_Ionization_Penalty_Neutral>
0.00073675

> <r_epik_State_Penalty>
6.18018

> <r_epik_Charging_Adjusted_Penalty>
12.3416

> <i_epik_Tot_Q>
0

> <i_epik_Tot_abs_Q>
2

> <r_epik_Metal_State_Penalty>
2.12232

> <b_epik_Metal_Only>
1

> <s_lp_Force_Field>
OPLS_2005

> <r_lp_Energy>
12.187

> <b_lp_Chiralities_Consistent>
1

> <s_lp_Variant>
AV-unprocessed.smi:657-8

> <Gold.Version>
5.8.1

> <Gold.Id.Protein>
6NUR|6NUR_protein|mol2

> <Gold.PLP.Fitness>
38.6102

> <Gold.PLP.PLP>
-32.4617

> <Gold.PLP.part.hbond>
-2.0000

> <Gold.PLP.part.metal>
0.0000

> <Gold.PLP.part.buried>
2.4675

> <Gold.PLP.part.nonpolar>
-32.0317

> <Gold.PLP.part.repulsive>
0.0923

> <Gold.PLP.ligand.clash>
0.0000

> <Gold.PLP.ligand.torsion>
0.7502

> <Gold.PLP.Chemscore.Hbond>
2.4584

> <Gold.PLP.Chemscore.CHOScore>
0.0000

> <Gold.PLP.Chemscore.Metal>
0.0000

> <Gold.Chemscore.Hbonds>
donor molecule, donor type, donor heavy atom, donor atom, acceptor molecule, acceptor atom, score
      L1  H     4    46       P1  7948  2.00
      P1  H  7989  7998       L1    12  0.80

> <Gold.PLP.Chemscore.Internal.Correction>
0.2737

> <Gold.Rescore>
     Score         DG    S(hbond)    S(metal)    S(lipo)     H(rot)  DE(clash)    DE(int)     intcor
     13.33     -16.36       1.11        0.00      95.78       1.57       2.17       0.85       ----

> <Gold.Chemscore.Fitness>
13.3330

> <Gold.Chemscore.DG>
-16.3555

> <Gold.Chemscore.ZeroCoef>
-5.4800

> <Gold.Chemscore.Hbond>
1.1074

> <Gold.Chemscore.Metal>
0.0000

> <Gold.Chemscore.Lipo>
95.7806

> <Gold.Chemscore.Internal_Hbond>
0.0000

> <Gold.Chemscore.DEClash>
2.1723

> <Gold.Chemscore.DEInternal>
0.8502

> <Gold.Chemscore.Rot>
1.5741

> <Gold.Chemscore.Internal.Correction>
   9.000000E+99

> <Gold.Chemscore.Hbonds>
donor molecule, donor type, donor heavy atom, donor atom, acceptor molecule, acceptor atom, score
      L1  H     4    46       P1  7948  1.00
      P1  H  7989  7998       L1    12  0.67

> <Gold.Chemscore.Hbond.Weighted>
-3.6988

> <Gold.Chemscore.Metal.Weighted>
-0.0000

> <Gold.Chemscore.Lipo.Weighted>
-11.2063

> <Gold.Chemscore.Internal_Hbond.Weighted>
0.0000

> <Gold.Chemscore.DEClash.Weighted>
2.1723

> <Gold.Chemscore.DEInternal.Weighted>
0.8502

> <Gold.Chemscore.Rot.Weighted>
4.0297

> <Gold.Chemscore.Internal.Correction.Weighted>
   9.000000E+99

> <Gold.Protein.RotatedTorsions>
[ 6907 6896 6895 6894 ] final -112.79 input  -60.11 | X-H torsion
[ 7974 7965 7964 7962 ] final  179.70 input  175.53 | X-H torsion
[ 8008 7997 7996 7995 ] final  155.87 input   59.86 | X-H torsion
[ 10167 10162 10161 10158 ] final  -98.03 input  -65.29 | X-H torsion
[ 10718 10713 10712 10709 ] final  172.65 input   66.30 | X-H torsion
[ 10763 10752 10751 10750 ] final   41.13 input  -60.55 | X-H torsion
[ 11005 11000 10999 10996 ] final -100.14 input  -57.11 | X-H torsion

> <Gold.Protein.ActiveResidues>
 VAL166  LYS551  ARG553  GLY616  TRP617  ASP618  TYR619  PRO620  LYS621  CYS622 
 ASP623  PHE694  ASN695  SER759  ASP760  ASP761  ALA762  ILE779  LEU786  VAL792 
 PHE793  MET794  SER795  GLU796  ALA797  LYS798  CYS799  TRP800  GLU811  SER814 

> <Gold.Protein.RotatedAtoms>
  150.7783  133.9039  159.3349 H   0  0  0  0  0  0  0  0  0  0  0  0  # atno 6907 bound_to 6896
  151.6908  135.0945  160.0243 H   0  0  0  0  0  0  0  0  0  0  0  0  # atno 6908 bound_to 6896
  152.3826  133.6528  159.6209 H   0  0  0  0  0  0  0  0  0  0  0  0  # atno 6909 bound_to 6896
  144.7143  140.0588  143.6433 H   0  0  0  0  0  0  0  0  0  0  0  0  # atno 7974 bound_to 7965
  156.2454  140.1928  156.6867 H   0  0  0  0  0  0  0  0  0  0  0  0  # atno 8008 bound_to 7997
  154.6281  140.0599  156.9725 H   0  0  0  0  0  0  0  0  0  0  0  0  # atno 8009 bound_to 7997
  155.1753  140.3272  155.4387 H   0  0  0  0  0  0  0  0  0  0  0  0  # atno 8010 bound_to 7997
  140.2772  143.3305  152.0477 H   0  0  0  0  0  0  0  0  0  0  0  0  # atno 10167 bound_to 10162
  156.9758  131.0104  151.2894 H   0  0  0  0  0  0  0  0  0  0  0  0  # atno 10718 bound_to 10713
  152.9917  135.6171  154.2737 H   0  0  0  0  0  0  0  0  0  0  0  0  # atno 10763 bound_to 10752
  154.2469  135.2786  155.2834 H   0  0  0  0  0  0  0  0  0  0  0  0  # atno 10764 bound_to 10752
  154.5321  135.5785  153.6825 H   0  0  0  0  0  0  0  0  0  0  0  0  # atno 10765 bound_to 10752
  141.1282  133.8376  157.1064 H   0  0  0  0  0  0  0  0  0  0  0  0  # atno 11005 bound_to 11000
  145.9882  139.2994  143.1001 LP  0  0  0  0  0  0  0  0  0  0  0  0  # atno 17320 bound_to 7965
  145.8933  140.9290  143.0540 LP  0  0  0  0  0  0  0  0  0  0  0  0  # atno 17321 bound_to 7965
  139.4972  144.6616  151.6450 LP  0  0  0  0  0  0  0  0  0  0  0  0  # atno 17342 bound_to 10162
  140.5842  143.9894  150.6285 LP  0  0  0  0  0  0  0  0  0  0  0  0  # atno 17343 bound_to 10162
  157.5561  130.8214  149.8205 LP  0  0  0  0  0  0  0  0  0  0  0  0  # atno 17370 bound_to 10713
  156.0264  130.3778  150.1811 LP  0  0  0  0  0  0  0  0  0  0  0  0  # atno 17371 bound_to 10713
  140.0302  134.9905  157.0765 LP  0  0  0  0  0  0  0  0  0  0  0  0  # atno 17394 bound_to 11000
  140.4298  134.1793  155.7167 LP  0  0  0  0  0  0  0  0  0  0  0  0  # atno 17395 bound_to 11000

$$$$
