AV-unprocessed.smi:2448|AV-procd|sdf|9655|dock6
  -GOLD-   2272013293D 1   1.00000     0.00000
 Structure written by MMmdl.
 38 39  0  0  0  0  0  0  0  0  2 V2000
  150.9090  143.8984  157.0404 O   0  0  0  0  0  0  0  0  0  0  0  0
  150.5445  143.2431  158.2439 C   0  0  1  0  0  0  0  0  0  0  0  0
  149.7957  141.9434  157.8866 C   0  0  0  0  0  0  0  0  0  0  0  0
  148.6949  142.1805  156.9257 N   0  3  0  0  0  0  0  0  0  0  0  0
  148.5341  141.1430  155.8792 C   0  0  2  0  0  0  0  0  0  0  0  0
  149.8122  141.0206  155.0184 C   0  0  0  0  0  0  0  0  0  0  0  0
  150.4821  139.6619  155.1130 C   0  0  0  0  0  0  0  0  0  0  0  0
  151.7457  139.5215  155.7238 C   0  0  0  0  0  0  0  0  0  0  0  0
  152.3113  138.2333  155.8083 C   0  0  0  0  0  0  0  0  0  0  0  0
  151.7038  137.1252  155.3330 N   0  0  0  0  0  0  0  0  0  0  0  0
  150.4975  137.2678  154.7436 C   0  0  0  0  0  0  0  0  0  0  0  0
  149.8443  138.5098  154.6094 C   0  0  0  0  0  0  0  0  0  0  0  0
  147.2995  141.4663  155.0157 C   0  0  0  0  0  0  0  0  0  0  0  0
  147.5826  142.4721  154.1876 F   0  0  0  0  0  0  0  0  0  0  0  0
  146.9397  140.4040  154.2944 F   0  0  0  0  0  0  0  0  0  0  0  0
  146.2780  141.8340  155.7888 F   0  0  0  0  0  0  0  0  0  0  0  0
  151.8379  142.9583  159.0252 C   0  0  0  0  0  0  0  0  0  0  0  0
  152.3370  144.2851  159.6062 C   0  0  0  0  0  0  0  0  0  0  0  0
  150.8826  145.2822  160.0162 S   0  0  0  0  0  0  0  0  0  0  0  0
  149.7288  144.2006  159.1311 C   0  0  0  0  0  0  0  0  0  0  0  0
  150.1879  144.4360  156.7515 H   0  0  0  0  0  0  0  0  0  0  0  0
  150.4992  141.2180  157.4779 H   0  0  0  0  0  0  0  0  0  0  0  0
  149.3767  141.4952  158.7886 H   0  0  0  0  0  0  0  0  0  0  0  0
  147.8355  142.2214  157.4552 H   0  0  0  0  0  0  0  0  0  0  0  0
  148.3436  140.1825  156.3619 H   0  0  0  0  0  0  0  0  0  0  0  0
  149.5715  141.2004  153.9701 H   0  0  0  0  0  0  0  0  0  0  0  0
  150.5294  141.7937  155.2980 H   0  0  0  0  0  0  0  0  0  0  0  0
  152.2714  140.3755  156.1255 H   0  0  0  0  0  0  0  0  0  0  0  0
  153.2753  138.0892  156.2737 H   0  0  0  0  0  0  0  0  0  0  0  0
  150.0362  136.3649  154.3718 H   0  0  0  0  0  0  0  0  0  0  0  0
  148.8761  138.5709  154.1342 H   0  0  0  0  0  0  0  0  0  0  0  0
  151.6204  142.2773  159.8493 H   0  0  0  0  0  0  0  0  0  0  0  0
  152.5986  142.4758  158.4095 H   0  0  0  0  0  0  0  0  0  0  0  0
  152.9713  144.1380  160.4806 H   0  0  0  0  0  0  0  0  0  0  0  0
  152.9211  144.8256  158.8605 H   0  0  0  0  0  0  0  0  0  0  0  0
  149.0016  144.7849  158.5660 H   0  0  0  0  0  0  0  0  0  0  0  0
  149.1770  143.6352  159.8832 H   0  0  0  0  0  0  0  0  0  0  0  0
  148.8349  143.0724  156.4729 H   0  0  0  0  0  0  0  0  0  0  0  0
  1  2  1  0  0  0  0
  1 21  1  0  0  0  0
  2 20  1  0  0  0  0
  2  3  1  0  0  0  0
  2 17  1  0  0  0  0
  3  4  1  0  0  0  0
  3 22  1  0  0  0  0
  3 23  1  0  0  0  0
  4  5  1  0  0  0  0
  4 24  1  0  0  0  0
  4 38  1  0  0  0  0
  5  6  1  0  0  0  0
  5 13  1  0  0  0  0
  5 25  1  0  0  0  0
  6  7  1  0  0  0  0
  6 26  1  0  0  0  0
  6 27  1  0  0  0  0
  7 12  1  0  0  0  0
  7  8  2  0  0  0  0
  8  9  1  0  0  0  0
  8 28  1  0  0  0  0
  9 10  2  0  0  0  0
  9 29  1  0  0  0  0
 10 11  1  0  0  0  0
 11 12  2  0  0  0  0
 11 30  1  0  0  0  0
 12 31  1  0  0  0  0
 13 14  1  0  0  0  0
 13 15  1  0  0  0  0
 13 16  1  0  0  0  0
 17 18  1  0  0  0  0
 17 32  1  0  0  0  0
 17 33  1  0  0  0  0
 18 19  1  0  0  0  0
 18 34  1  0  0  0  0
 18 35  1  0  0  0  0
 19 20  1  0  0  0  0
 20 36  1  0  0  0  0
 20 37  1  0  0  0  0
M  CHG  1   4   1
M  END
> <s_m_source_file>
AV-unprocessed.smi

> <i_m_source_file_index>
2448

> <i_lp_mmshare_version>
43012

> <i_f3d_flags>
0

> <s_epik_input>
W0NIMl0xU1tDSDJdW0NIMl1bQ0BAXTEoW09IXSlbQ0gyXVtOSF1bQ0BASF0oQyhGKShGKUYpW0NIMl1jMltjSF1bY0hdbltjSF1bY0hdMg==

> <s_epik_cmdline>
J2VwaWtfcHl0aG9uJywgJy1waCcsICc3LjAnLCAnLXRuJywgJzgnLCAnLW1hJywgJzIwMCcsICctbWV0YWxfYmluZGluZycsICctaW1hZScsICc8aW5maWxlLm1hZT4nLCAnLW9tYWUnLCAnPG91dGZpbGUubWFlPic=

> <r_epik_Ionization_Penalty>
1.19945

> <r_epik_Ionization_Penalty_Charging>
1.19892

> <r_epik_Ionization_Penalty_Neutral>
0.000532129

> <r_epik_State_Penalty>
0.752927

> <r_epik_Charging_Adjusted_Penalty>
1.95185

> <i_epik_Tot_Q>
1

> <i_epik_Tot_abs_Q>
1

> <r_epik_Metal_State_Penalty>
0.804507

> <b_epik_Metal_Only>
0

> <s_lp_Force_Field>
OPLS_2005

> <r_lp_Energy>
24.3965

> <b_lp_Chiralities_Consistent>
1

> <s_lp_Variant>
AV-unprocessed.smi:2448-5

> <Gold.Version>
5.8.1

> <Gold.Id.Protein>
6NUR|6NUR_protein|mol2

> <Gold.PLP.Fitness>
54.0324

> <Gold.PLP.PLP>
-41.7785

> <Gold.PLP.part.hbond>
-3.0000

> <Gold.PLP.part.metal>
0.0000

> <Gold.PLP.part.buried>
-1.1179

> <Gold.PLP.part.nonpolar>
-38.0583

> <Gold.PLP.part.repulsive>
0.1215

> <Gold.PLP.ligand.clash>
0.0000

> <Gold.PLP.ligand.torsion>
1.4426

> <Gold.PLP.Chemscore.Hbond>
4.0000

> <Gold.PLP.Chemscore.CHOScore>
0.8413

> <Gold.PLP.Chemscore.Metal>
0.0000

> <Gold.Chemscore.Hbonds>
donor molecule, donor type, donor heavy atom, donor atom, acceptor molecule, acceptor atom, score
      L1  H     1    21       P1  8028  1.00
      L1  H     4    38       P1  8028  2.00
      P1  H 10752 10763       L1    10  0.75
      L1  C    11    30       P1  7948  0.48

> <Gold.PLP.Chemscore.Internal.Correction>
0.6153

> <Gold.Rescore>
     Score         DG    S(hbond)    S(metal)    S(lipo)     H(rot)  DE(clash)    DE(int)     intcor
     20.02     -21.34       2.84        0.00     106.60       2.39       0.11       1.22       ----

> <Gold.Chemscore.Fitness>
20.0161

> <Gold.Chemscore.DG>
-21.3442

> <Gold.Chemscore.ZeroCoef>
-5.4800

> <Gold.Chemscore.Hbond>
2.8449

> <Gold.Chemscore.Metal>
0.0000

> <Gold.Chemscore.Lipo>
106.5965

> <Gold.Chemscore.Internal_Hbond>
0.0000

> <Gold.Chemscore.DEClash>
0.1077

> <Gold.Chemscore.DEInternal>
1.2205

> <Gold.Chemscore.Rot>
2.3866

> <Gold.Chemscore.Internal.Correction>
   9.000000E+99

> <Gold.Chemscore.Hbonds>
donor molecule, donor type, donor heavy atom, donor atom, acceptor molecule, acceptor atom, score
      L1  H     1    21       P1  8028  0.86
      L1  H     4    38       P1  8028  0.97
      P1  H 10752 10763       L1    10  0.60

> <Gold.Chemscore.Hbond.Weighted>
-9.5021

> <Gold.Chemscore.Metal.Weighted>
-0.0000

> <Gold.Chemscore.Lipo.Weighted>
-12.4718

> <Gold.Chemscore.Internal_Hbond.Weighted>
0.0000

> <Gold.Chemscore.DEClash.Weighted>
0.1077

> <Gold.Chemscore.DEInternal.Weighted>
1.2205

> <Gold.Chemscore.Rot.Weighted>
6.1096

> <Gold.Chemscore.Internal.Correction.Weighted>
   9.000000E+99

> <Gold.Protein.RotatedTorsions>
[ 6907 6896 6895 6894 ] final  -88.78 input  -60.11 | X-H torsion
[ 7974 7965 7964 7962 ] final  145.86 input  175.53 | X-H torsion
[ 8008 7997 7996 7995 ] final  -38.74 input   59.86 | X-H torsion
[ 10167 10162 10161 10158 ] final   31.50 input  -65.29 | X-H torsion
[ 10718 10713 10712 10709 ] final  158.59 input   66.30 | X-H torsion
[ 10763 10752 10751 10750 ] final   50.82 input  -60.55 | X-H torsion
[ 11005 11000 10999 10996 ] final  141.33 input  -57.11 | X-H torsion

> <Gold.Protein.ActiveResidues>
 VAL166  LYS551  ARG553  GLY616  TRP617  ASP618  TYR619  PRO620  LYS621  CYS622 
 ASP623  PHE694  ASN695  SER759  ASP760  ASP761  ALA762  ILE779  LEU786  VAL792 
 PHE793  MET794  SER795  GLU796  ALA797  LYS798  CYS799  TRP800  GLU811  SER814 

> <Gold.Protein.RotatedAtoms>
  150.6870  134.2688  159.4579 H   0  0  0  0  0  0  0  0  0  0  0  0  # atno 6907 bound_to 6896
  152.0612  134.9590  160.0584 H   0  0  0  0  0  0  0  0  0  0  0  0  # atno 6908 bound_to 6896
  152.1016  133.4218  159.4627 H   0  0  0  0  0  0  0  0  0  0  0  0  # atno 6909 bound_to 6896
  144.8718  139.5834  143.5883 H   0  0  0  0  0  0  0  0  0  0  0  0  # atno 7974 bound_to 7965
  154.4032  140.1570  156.2749 H   0  0  0  0  0  0  0  0  0  0  0  0  # atno 8008 bound_to 7997
  155.8921  140.3438  155.5941 H   0  0  0  0  0  0  0  0  0  0  0  0  # atno 8009 bound_to 7997
  155.7547  140.0809  157.2175 H   0  0  0  0  0  0  0  0  0  0  0  0  # atno 8010 bound_to 7997
  140.4583  144.0945  150.6207 H   0  0  0  0  0  0  0  0  0  0  0  0  # atno 10167 bound_to 10162
  157.1758  131.0621  151.2158 H   0  0  0  0  0  0  0  0  0  0  0  0  # atno 10718 bound_to 10713
  152.9784  135.5866  154.4314 H   0  0  0  0  0  0  0  0  0  0  0  0  # atno 10763 bound_to 10752
  154.3927  135.2768  155.2147 H   0  0  0  0  0  0  0  0  0  0  0  0  # atno 10764 bound_to 10752
  154.4012  135.6103  153.5953 H   0  0  0  0  0  0  0  0  0  0  0  0  # atno 10765 bound_to 10752
  140.0393  134.9313  157.0813 H   0  0  0  0  0  0  0  0  0  0  0  0  # atno 11005 bound_to 11000
  146.2935  139.7210  142.9143 LP  0  0  0  0  0  0  0  0  0  0  0  0  # atno 17320 bound_to 7965
  145.4116  141.0397  143.3014 LP  0  0  0  0  0  0  0  0  0  0  0  0  # atno 17321 bound_to 7965
  140.4124  143.2650  151.9816 LP  0  0  0  0  0  0  0  0  0  0  0  0  # atno 17342 bound_to 10162
  139.4803  144.5903  151.7782 LP  0  0  0  0  0  0  0  0  0  0  0  0  # atno 17343 bound_to 10162
  157.4000  130.7328  149.6760 LP  0  0  0  0  0  0  0  0  0  0  0  0  # atno 17370 bound_to 10713
  155.9731  130.4123  150.4026 LP  0  0  0  0  0  0  0  0  0  0  0  0  # atno 17371 bound_to 10713
  140.4095  134.1996  155.7163 LP  0  0  0  0  0  0  0  0  0  0  0  0  # atno 17394 bound_to 11000
  141.1874  133.8281  157.1032 LP  0  0  0  0  0  0  0  0  0  0  0  0  # atno 17395 bound_to 11000

$$$$
