AV-unprocessed.smi:2772|AV-procd|sdf|10666|dock1
  -GOLD-   2272015113D 1   1.00000     0.00000
 Structure written by MMmdl.
 55 57  0  0  0  0  0  0  0  0  3 V2000
  148.1867  131.1445  153.5070 C   0  0  0  0  0  0  0  0  0  0  0  0
  148.5320  132.3940  154.2901 C   0  0  0  0  0  0  0  0  0  0  0  0
  149.3901  133.3747  153.7514 C   0  0  0  0  0  0  0  0  0  0  0  0
  149.6703  134.5178  154.5244 C   0  0  0  0  0  0  0  0  0  0  0  0
  149.0964  134.6383  155.8068 C   0  0  0  0  0  0  0  0  0  0  0  0
  149.3708  135.8127  156.5585 N   0  0  0  0  0  0  0  0  0  0  0  0
  150.5257  136.4958  156.6364 C   0  0  0  0  0  0  0  0  0  0  0  0
  151.5376  136.2518  155.9797 O   0  0  0  0  0  0  0  0  0  0  0  0
  150.4351  137.5081  157.5120 N   0  0  0  0  0  0  0  0  0  0  0  0
  151.5046  138.4516  157.8311 C   0  0  2  0  0  0  0  0  0  0  0  0
  151.9321  138.3000  159.2935 C   0  0  0  0  0  0  0  0  0  0  0  0
  153.0195  139.3236  159.6609 C   0  0  0  0  0  0  0  0  0  0  0  0
  152.5905  140.7325  159.4075 N   0  3  1  0  0  0  0  0  0  0  0  0
  153.6205  141.7500  159.8183 C   0  0  2  0  0  0  0  0  0  0  0  0
  153.4120  142.3162  161.2459 C   0  0  0  0  0  0  0  0  0  0  0  0
  152.1458  143.1878  161.3387 C   0  0  0  0  0  0  0  0  0  0  0  0
  152.2044  144.3141  160.3734 N   0  3  2  0  0  0  0  0  0  0  0  0
  151.0427  145.2214  160.4912 C   0  0  0  0  0  0  0  0  0  0  0  0
  152.4250  143.8521  158.9800 C   0  0  0  0  0  0  0  0  0  0  0  0
  153.6921  142.9825  158.8818 C   0  0  0  0  0  0  0  0  0  0  0  0
  152.1319  140.8976  157.9946 C   0  0  0  0  0  0  0  0  0  0  0  0
  151.0346  139.8918  157.6083 C   0  0  0  0  0  0  0  0  0  0  0  0
  148.2406  133.5986  156.2476 C   0  0  0  0  0  0  0  0  0  0  0  0
  147.9652  132.5009  155.5109 N   0  0  0  0  0  0  0  0  0  0  0  0
  148.6649  131.1462  152.5272 H   0  0  0  0  0  0  0  0  0  0  0  0
  147.1085  131.0766  153.3587 H   0  0  0  0  0  0  0  0  0  0  0  0
  148.5168  130.2560  154.0458 H   0  0  0  0  0  0  0  0  0  0  0  0
  149.8220  133.2587  152.7682 H   0  0  0  0  0  0  0  0  0  0  0  0
  150.3201  135.2882  154.1358 H   0  0  0  0  0  0  0  0  0  0  0  0
  148.5880  136.1929  157.0703 H   0  0  0  0  0  0  0  0  0  0  0  0
  149.5588  137.6309  157.9986 H   0  0  0  0  0  0  0  0  0  0  0  0
  152.3761  138.2686  157.1996 H   0  0  0  0  0  0  0  0  0  0  0  0
  151.0717  138.4298  159.9520 H   0  0  0  0  0  0  0  0  0  0  0  0
  152.3061  137.2904  159.4689 H   0  0  0  0  0  0  0  0  0  0  0  0
  153.2432  139.1656  160.7132 H   0  0  0  0  0  0  0  0  0  0  0  0
  153.9340  139.1154  159.1029 H   0  0  0  0  0  0  0  0  0  0  0  0
  154.5890  141.2480  159.7923 H   0  0  0  0  0  0  0  0  0  0  0  0
  153.4089  141.5427  162.0112 H   0  0  0  0  0  0  0  0  0  0  0  0
  154.2720  142.9369  161.5024 H   0  0  0  0  0  0  0  0  0  0  0  0
  151.2548  142.5860  161.1522 H   0  0  0  0  0  0  0  0  0  0  0  0
  152.0523  143.5856  162.3500 H   0  0  0  0  0  0  0  0  0  0  0  0
  150.1157  144.7080  160.2326 H   0  0  0  0  0  0  0  0  0  0  0  0
  151.1559  146.0793  159.8276 H   0  0  0  0  0  0  0  0  0  0  0  0
  150.9519  145.6006  161.5096 H   0  0  0  0  0  0  0  0  0  0  0  0
  151.5534  143.2954  158.6321 H   0  0  0  0  0  0  0  0  0  0  0  0
  152.5280  144.7191  158.3261 H   0  0  0  0  0  0  0  0  0  0  0  0
  154.5475  143.5929  159.1753 H   0  0  0  0  0  0  0  0  0  0  0  0
  153.9008  142.7167  157.8476 H   0  0  0  0  0  0  0  0  0  0  0  0
  151.7108  141.8869  157.8324 H   0  0  0  0  0  0  0  0  0  0  0  0
  152.9847  140.7977  157.3210 H   0  0  0  0  0  0  0  0  0  0  0  0
  150.7574  140.0358  156.5630 H   0  0  0  0  0  0  0  0  0  0  0  0
  150.1365  140.0887  158.1961 H   0  0  0  0  0  0  0  0  0  0  0  0
  147.7355  133.6413  157.1999 H   0  0  0  0  0  0  0  0  0  0  0  0
  151.7791  140.8887  159.9880 H   0  0  0  0  0  0  0  0  0  0  0  0
  153.0157  144.8620  160.6240 H   0  0  0  0  0  0  0  0  0  0  0  0
  1  2  1  0  0  0  0
  1 25  1  0  0  0  0
  1 26  1  0  0  0  0
  1 27  1  0  0  0  0
  2 24  1  0  0  0  0
  2  3  2  0  0  0  0
  3  4  1  0  0  0  0
  3 28  1  0  0  0  0
  4  5  2  0  0  0  0
  4 29  1  0  0  0  0
  5  6  1  0  0  0  0
  5 23  1  0  0  0  0
  6  7  1  0  0  0  0
  6 30  1  0  0  0  0
  7  8  2  0  0  0  0
  7  9  1  0  0  0  0
  9 10  1  0  0  0  0
  9 31  1  0  0  0  0
 10 22  1  0  0  0  0
 10 11  1  0  0  0  0
 10 32  1  0  0  0  0
 11 12  1  0  0  0  0
 11 33  1  0  0  0  0
 11 34  1  0  0  0  0
 12 13  1  0  0  0  0
 12 35  1  0  0  0  0
 12 36  1  0  0  0  0
 13 14  1  0  0  0  0
 13 21  1  0  0  0  0
 13 54  1  0  0  0  0
 14 20  1  0  0  0  0
 14 15  1  0  0  0  0
 14 37  1  0  0  0  0
 15 16  1  0  0  0  0
 15 38  1  0  0  0  0
 15 39  1  0  0  0  0
 16 17  1  0  0  0  0
 16 40  1  0  0  0  0
 16 41  1  0  0  0  0
 17 18  1  0  0  0  0
 17 19  1  0  0  0  0
 17 55  1  0  0  0  0
 18 42  1  0  0  0  0
 18 43  1  0  0  0  0
 18 44  1  0  0  0  0
 19 20  1  0  0  0  0
 19 45  1  0  0  0  0
 19 46  1  0  0  0  0
 20 47  1  0  0  0  0
 20 48  1  0  0  0  0
 21 22  1  0  0  0  0
 21 49  1  0  0  0  0
 21 50  1  0  0  0  0
 22 51  1  0  0  0  0
 22 52  1  0  0  0  0
 23 24  2  0  0  0  0
 23 53  1  0  0  0  0
M  CHG  1  13   1
M  CHG  1  17   1
M  END
> <s_m_source_file>
AV-unprocessed.smi

> <i_m_source_file_index>
2772

> <i_lp_mmshare_version>
43012

> <i_f3d_flags>
0

> <s_epik_input>
W0NIM11jMVtjSF1bY0hdYyhbY0hdbjEpW05IXUMoPU8pW05IXVtDSF0yW0NIMl1bQ0gyXU4oW0NIMl1bQ0gyXTIpW0NIXTNbQ0gyXVtDSDJdTihbQ0gzXSlbQ0gyXVtDSDJdMw==

> <s_epik_cmdline>
J2VwaWtfcHl0aG9uJywgJy1waCcsICc3LjAnLCAnLXRuJywgJzgnLCAnLW1hJywgJzIwMCcsICctbWV0YWxfYmluZGluZycsICctaW1hZScsICc8aW5maWxlLm1hZT4nLCAnLW9tYWUnLCAnPG91dGZpbGUubWFlPic=

> <r_epik_Ionization_Penalty>
0.196786

> <r_epik_Ionization_Penalty_Charging>
0.180787

> <r_epik_Ionization_Penalty_Neutral>
0.0159988

> <r_epik_State_Penalty>
0.163322

> <r_epik_Charging_Adjusted_Penalty>
0.344109

> <i_epik_Tot_Q>
2

> <i_epik_Tot_abs_Q>
2

> <r_epik_Metal_State_Penalty>
0.163596

> <b_epik_Metal_Only>
0

> <s_lp_Force_Field>
OPLS_2005

> <r_lp_Energy>
49.2909

> <b_lp_Chiralities_Consistent>
1

> <s_lp_Variant>
AV-unprocessed.smi:2772-3

> <Gold.Version>
5.8.1

> <Gold.Id.Protein>
6NUR|6NUR_protein|mol2

> <Gold.PLP.Fitness>
38.2440

> <Gold.PLP.PLP>
-37.9544

> <Gold.PLP.part.hbond>
-1.0000

> <Gold.PLP.part.metal>
0.0000

> <Gold.PLP.part.buried>
-4.6460

> <Gold.PLP.part.nonpolar>
-32.1695

> <Gold.PLP.part.repulsive>
0.2796

> <Gold.PLP.ligand.clash>
0.0000

> <Gold.PLP.ligand.torsion>
1.3696

> <Gold.PLP.Chemscore.Hbond>
1.0000

> <Gold.PLP.Chemscore.CHOScore>
0.0000

> <Gold.PLP.Chemscore.Metal>
0.0000

> <Gold.Chemscore.Hbonds>
donor molecule, donor type, donor heavy atom, donor atom, acceptor molecule, acceptor atom, score
      P1  H 10752 10765       L1     8  1.00

> <Gold.PLP.Chemscore.Internal.Correction>
0.0289

> <Gold.Rescore>
     Score         DG    S(hbond)    S(metal)    S(lipo)     H(rot)  DE(clash)    DE(int)     intcor
     17.79     -20.65       0.99        0.00     127.89       1.21       0.26       2.60       ----

> <Gold.Chemscore.Fitness>
17.7914

> <Gold.Chemscore.DG>
-20.6525

> <Gold.Chemscore.ZeroCoef>
-5.4800

> <Gold.Chemscore.Hbond>
0.9893

> <Gold.Chemscore.Metal>
0.0000

> <Gold.Chemscore.Lipo>
127.8938

> <Gold.Chemscore.Internal_Hbond>
0.0000

> <Gold.Chemscore.DEClash>
0.2612

> <Gold.Chemscore.DEInternal>
2.5999

> <Gold.Chemscore.Rot>
1.2092

> <Gold.Chemscore.Internal.Correction>
   9.000000E+99

> <Gold.Chemscore.Hbonds>
donor molecule, donor type, donor heavy atom, donor atom, acceptor molecule, acceptor atom, score
      P1  H 10752 10765       L1     8  0.94

> <Gold.Chemscore.Hbond.Weighted>
-3.3044

> <Gold.Chemscore.Metal.Weighted>
-0.0000

> <Gold.Chemscore.Lipo.Weighted>
-14.9636

> <Gold.Chemscore.Internal_Hbond.Weighted>
0.0000

> <Gold.Chemscore.DEClash.Weighted>
0.2612

> <Gold.Chemscore.DEInternal.Weighted>
2.5999

> <Gold.Chemscore.Rot.Weighted>
3.0955

> <Gold.Chemscore.Internal.Correction.Weighted>
   9.000000E+99

> <Gold.Protein.RotatedTorsions>
[ 6907 6896 6895 6894 ] final  176.09 input  -60.11 | X-H torsion
[ 7974 7965 7964 7962 ] final    6.68 input  175.53 | X-H torsion
[ 8008 7997 7996 7995 ] final  113.94 input   59.86 | X-H torsion
[ 10167 10162 10161 10158 ] final   45.34 input  -65.29 | X-H torsion
[ 10718 10713 10712 10709 ] final   72.94 input   66.30 | X-H torsion
[ 10763 10752 10751 10750 ] final -147.34 input  -60.55 | X-H torsion
[ 11005 11000 10999 10996 ] final  -36.04 input  -57.11 | X-H torsion

> <Gold.Protein.ActiveResidues>
 VAL166  LYS551  ARG553  GLY616  TRP617  ASP618  TYR619  PRO620  LYS621  CYS622 
 ASP623  PHE694  ASN695  SER759  ASP760  ASP761  ALA762  ILE779  LEU786  VAL792 
 PHE793  MET794  SER795  GLU796  ALA797  LYS798  CYS799  TRP800  GLU811  SER814 

> <Gold.Protein.RotatedAtoms>
  151.7256  133.3316  159.3326 H   0  0  0  0  0  0  0  0  0  0  0  0  # atno 6907 bound_to 6896
  150.7634  134.6409  159.6246 H   0  0  0  0  0  0  0  0  0  0  0  0  # atno 6908 bound_to 6896
  152.3624  134.6855  160.0254 H   0  0  0  0  0  0  0  0  0  0  0  0  # atno 6909 bound_to 6896
  146.2433  140.0197  142.8399 H   0  0  0  0  0  0  0  0  0  0  0  0  # atno 7974 bound_to 7965
  156.2290  140.2969  156.0139 H   0  0  0  0  0  0  0  0  0  0  0  0  # atno 8008 bound_to 7997
  155.2278  140.0418  157.2975 H   0  0  0  0  0  0  0  0  0  0  0  0  # atno 8009 bound_to 7997
  154.5963  140.2415  155.7860 H   0  0  0  0  0  0  0  0  0  0  0  0  # atno 8010 bound_to 7997
  140.3251  144.2658  150.6176 H   0  0  0  0  0  0  0  0  0  0  0  0  # atno 10167 bound_to 10162
  157.6525  130.9604  150.1000 H   0  0  0  0  0  0  0  0  0  0  0  0  # atno 10718 bound_to 10713
  154.8291  135.3363  154.6803 H   0  0  0  0  0  0  0  0  0  0  0  0  # atno 10763 bound_to 10752
  153.7425  135.6945  153.4968 H   0  0  0  0  0  0  0  0  0  0  0  0  # atno 10764 bound_to 10752
  153.2234  135.4441  155.0466 H   0  0  0  0  0  0  0  0  0  0  0  0  # atno 10765 bound_to 10752
  140.9844  133.7039  156.1739 H   0  0  0  0  0  0  0  0  0  0  0  0  # atno 11005 bound_to 11000
  145.1252  140.9486  143.4577 LP  0  0  0  0  0  0  0  0  0  0  0  0  # atno 17320 bound_to 7965
  145.0441  139.3235  143.5961 LP  0  0  0  0  0  0  0  0  0  0  0  0  # atno 17321 bound_to 7965
  140.5448  143.2216  151.8025 LP  0  0  0  0  0  0  0  0  0  0  0  0  # atno 17342 bound_to 10162
  139.4867  144.4553  151.9605 LP  0  0  0  0  0  0  0  0  0  0  0  0  # atno 17343 bound_to 10162
  156.1925  130.3655  149.8891 LP  0  0  0  0  0  0  0  0  0  0  0  0  # atno 17370 bound_to 10713
  156.6816  130.8860  151.3576 LP  0  0  0  0  0  0  0  0  0  0  0  0  # atno 17371 bound_to 10713
  140.7138  134.4433  157.5580 LP  0  0  0  0  0  0  0  0  0  0  0  0  # atno 17394 bound_to 11000
  139.8964  134.8661  156.2090 LP  0  0  0  0  0  0  0  0  0  0  0  0  # atno 17395 bound_to 11000

$$$$
