AV-unprocessed.smi:1424|AV-procd|sdf|5802|dock10
  -GOLD-   22720 5453D 1   1.00000     0.00000
 Structure written by MMmdl.
 46 48  0  0  0  0  0  0  0  0  2 V2000
  149.4250  133.7866  155.8971 O   0  0  0  0  0  0  0  0  0  0  0  0
  149.0206  134.3878  154.9020 C   0  0  0  0  0  0  0  0  0  0  0  0
  149.0466  135.7224  154.7806 N   0  0  0  0  0  0  0  0  0  0  0  0
  149.5398  136.6441  155.7988 C   0  0  0  0  0  0  0  0  0  0  0  0
  151.0778  136.7454  155.7924 C   0  0  1  0  0  0  0  0  0  0  0  0
  151.5772  138.0693  155.1829 C   0  0  0  0  0  0  0  0  0  0  0  0
  153.0769  138.1998  155.4642 C   0  0  0  0  0  0  0  0  0  0  0  0
  153.3361  137.4382  157.1089 S   0  0  0  0  0  0  0  0  0  0  0  0
  154.4014  136.4293  157.0090 O   0  0  0  0  0  0  0  0  0  0  0  0
  153.3828  138.4909  158.1349 O   0  0  0  0  0  0  0  0  0  0  0  0
  151.7059  136.6028  157.1901 C   0  0  0  0  0  0  0  0  0  0  0  0
  148.4791  133.8096  153.8170 N   0  0  0  0  0  0  0  0  0  0  0  0
  148.2528  132.4232  153.5831 C   0  0  0  0  0  0  0  0  0  0  0  0
  148.9945  131.4315  154.2755 C   0  0  0  0  0  0  0  0  0  0  0  0
  148.7375  130.0679  154.0403 C   0  0  0  0  0  0  0  0  0  0  0  0
  147.7448  129.7139  153.1112 C   0  0  0  0  0  0  0  0  0  0  0  0
  147.0707  130.6795  152.4532 N   0  3  0  0  0  0  0  0  0  0  0  0
  147.2818  132.0087  152.6246 C   0  0  0  0  0  0  0  0  0  0  0  0
  146.5041  132.9026  151.8532 N   0  0  0  0  0  0  0  0  0  0  0  0
  145.7952  134.0059  152.4914 C   0  0  0  0  0  0  0  0  0  0  0  0
  144.8217  134.5161  151.4324 C   0  0  0  0  0  0  0  0  0  0  0  0
  144.4285  133.2347  150.7038 C   0  0  0  0  0  0  0  0  0  0  0  0
  145.7027  132.3848  150.7487 C   0  0  0  0  0  0  0  0  0  0  0  0
  148.6925  136.1338  153.9295 H   0  0  0  0  0  0  0  0  0  0  0  0
  149.0937  137.6298  155.6547 H   0  0  0  0  0  0  0  0  0  0  0  0
  149.1929  136.2903  156.7701 H   0  0  0  0  0  0  0  0  0  0  0  0
  151.4781  135.9424  155.1716 H   0  0  0  0  0  0  0  0  0  0  0  0
  151.3668  138.1276  154.1146 H   0  0  0  0  0  0  0  0  0  0  0  0
  151.0563  138.9029  155.6561 H   0  0  0  0  0  0  0  0  0  0  0  0
  153.6577  137.6341  154.7351 H   0  0  0  0  0  0  0  0  0  0  0  0
  153.4254  139.2325  155.4652 H   0  0  0  0  0  0  0  0  0  0  0  0
  151.1087  137.1149  157.9450 H   0  0  0  0  0  0  0  0  0  0  0  0
  151.8335  135.5639  157.4939 H   0  0  0  0  0  0  0  0  0  0  0  0
  148.0965  134.4368  153.1249 H   0  0  0  0  0  0  0  0  0  0  0  0
  149.7652  131.6964  154.9837 H   0  0  0  0  0  0  0  0  0  0  0  0
  149.2941  129.3062  154.5668 H   0  0  0  0  0  0  0  0  0  0  0  0
  147.4764  128.6957  152.8690 H   0  0  0  0  0  0  0  0  0  0  0  0
  145.2380  133.6495  153.3591 H   0  0  0  0  0  0  0  0  0  0  0  0
  146.4825  134.7865  152.8191 H   0  0  0  0  0  0  0  0  0  0  0  0
  143.9689  135.0453  151.8583 H   0  0  0  0  0  0  0  0  0  0  0  0
  145.3347  135.1923  150.7468 H   0  0  0  0  0  0  0  0  0  0  0  0
  143.6317  132.7317  151.2535 H   0  0  0  0  0  0  0  0  0  0  0  0
  144.0739  133.4136  149.6882 H   0  0  0  0  0  0  0  0  0  0  0  0
  146.2633  132.5069  149.8215 H   0  0  0  0  0  0  0  0  0  0  0  0
  145.4692  131.3262  150.8698 H   0  0  0  0  0  0  0  0  0  0  0  0
  146.3630  130.3901  151.7779 H   0  0  0  0  0  0  0  0  0  0  0  0
  1  2  2  0  0  0  0
  2  3  1  0  0  0  0
  2 12  1  0  0  0  0
  3  4  1  0  0  0  0
  3 24  1  0  0  0  0
  4  5  1  0  0  0  0
  4 25  1  0  0  0  0
  4 26  1  0  0  0  0
  5 11  1  0  0  0  0
  5  6  1  0  0  0  0
  5 27  1  0  0  0  0
  6  7  1  0  0  0  0
  6 28  1  0  0  0  0
  6 29  1  0  0  0  0
  7  8  1  0  0  0  0
  7 30  1  0  0  0  0
  7 31  1  0  0  0  0
  8  9  2  0  0  0  0
  8 10  2  0  0  0  0
  8 11  1  0  0  0  0
 11 32  1  0  0  0  0
 11 33  1  0  0  0  0
 12 13  1  0  0  0  0
 12 34  1  0  0  0  0
 13 18  1  0  0  0  0
 13 14  2  0  0  0  0
 14 15  1  0  0  0  0
 14 35  1  0  0  0  0
 15 16  2  0  0  0  0
 15 36  1  0  0  0  0
 16 17  1  0  0  0  0
 16 37  1  0  0  0  0
 17 18  2  0  0  0  0
 17 46  1  0  0  0  0
 18 19  1  0  0  0  0
 19 23  1  0  0  0  0
 19 20  1  0  0  0  0
 20 21  1  0  0  0  0
 20 38  1  0  0  0  0
 20 39  1  0  0  0  0
 21 22  1  0  0  0  0
 21 40  1  0  0  0  0
 21 41  1  0  0  0  0
 22 23  1  0  0  0  0
 22 42  1  0  0  0  0
 22 43  1  0  0  0  0
 23 44  1  0  0  0  0
 23 45  1  0  0  0  0
M  CHG  1  17   1
M  END
> <s_m_source_file>
AV-unprocessed.smi

> <i_m_source_file_index>
1424

> <i_lp_mmshare_version>
43012

> <i_f3d_flags>
0

> <s_epik_input>
Tz1TMSg9TylbQ0gyXVtDSDJdW0NASF0oW0NIMl0xKVtDSDJdW05IXUMoPU8pW05IXWMyW2NIXVtjSF1bY0hdbmMyTjNbQ0gyXVtDSDJdW0NIMl1bQ0gyXTM=

> <s_epik_cmdline>
J2VwaWtfcHl0aG9uJywgJy1waCcsICc3LjAnLCAnLXRuJywgJzgnLCAnLW1hJywgJzIwMCcsICctbWV0YWxfYmluZGluZycsICctaW1hZScsICc8aW5maWxlLm1hZT4nLCAnLW9tYWUnLCAnPG91dGZpbGUubWFlPic=

> <r_lp_tautomer_probability>
0.999994

> <r_epik_Ionization_Penalty>
1.12573

> <r_epik_Ionization_Penalty_Charging>
1.12571

> <r_epik_Ionization_Penalty_Neutral>
1.92863e-05

> <r_epik_State_Penalty>
1.18495

> <r_epik_Charging_Adjusted_Penalty>
2.31065

> <i_epik_Tot_Q>
1

> <i_epik_Tot_abs_Q>
1

> <r_epik_Metal_State_Penalty>
1.26881

> <b_epik_Metal_Only>
0

> <s_lp_Force_Field>
OPLS_2005

> <r_lp_Energy>
39.7192

> <b_lp_Chiralities_Consistent>
1

> <s_lp_Variant>
AV-unprocessed.smi:1424-4

> <Gold.Version>
5.8.1

> <Gold.Id.Protein>
6NUR|6NUR_protein|mol2

> <Gold.PLP.Fitness>
44.7709

> <Gold.PLP.PLP>
-36.2582

> <Gold.PLP.part.hbond>
-5.0000

> <Gold.PLP.part.metal>
0.0000

> <Gold.PLP.part.buried>
-2.3063

> <Gold.PLP.part.nonpolar>
-29.2769

> <Gold.PLP.part.repulsive>
0.2113

> <Gold.PLP.ligand.clash>
0.0050

> <Gold.PLP.ligand.torsion>
1.1155

> <Gold.PLP.Chemscore.Hbond>
3.4480

> <Gold.PLP.Chemscore.CHOScore>
0.0000

> <Gold.PLP.Chemscore.Metal>
0.0000

> <Gold.Chemscore.Hbonds>
donor molecule, donor type, donor heavy atom, donor atom, acceptor molecule, acceptor atom, score
      L1  H     3    24       P1  7948  0.77
      L1  H    12    34       P1  7948  0.19
      P1  H  7997  8008       L1    10  0.41
      P1  H 10752 10763       L1     9  1.00

> <Gold.PLP.Chemscore.Internal.Correction>
0.4046

> <Gold.Rescore>
     Score         DG    S(hbond)    S(metal)    S(lipo)     H(rot)  DE(clash)    DE(int)     intcor
     17.19     -19.71       2.78        0.00      75.11       1.50       0.02       2.49       ----

> <Gold.Chemscore.Fitness>
17.1893

> <Gold.Chemscore.DG>
-19.7063

> <Gold.Chemscore.ZeroCoef>
-5.4800

> <Gold.Chemscore.Hbond>
2.7751

> <Gold.Chemscore.Metal>
0.0000

> <Gold.Chemscore.Lipo>
75.1102

> <Gold.Chemscore.Internal_Hbond>
0.0000

> <Gold.Chemscore.DEClash>
0.0239

> <Gold.Chemscore.DEInternal>
2.4931

> <Gold.Chemscore.Rot>
1.4962

> <Gold.Chemscore.Internal.Correction>
   9.000000E+99

> <Gold.Chemscore.Hbonds>
donor molecule, donor type, donor heavy atom, donor atom, acceptor molecule, acceptor atom, score
      L1  H     3    24       P1  7948  0.73
      L1  H    12    34       P1  7948  0.13
      P1  H  7997  8008       L1    10  0.08
      P1  H 10752 10763       L1     9  0.62

> <Gold.Chemscore.Hbond.Weighted>
-9.2688

> <Gold.Chemscore.Metal.Weighted>
-0.0000

> <Gold.Chemscore.Lipo.Weighted>
-8.7879

> <Gold.Chemscore.Internal_Hbond.Weighted>
0.0000

> <Gold.Chemscore.DEClash.Weighted>
0.0239

> <Gold.Chemscore.DEInternal.Weighted>
2.4931

> <Gold.Chemscore.Rot.Weighted>
3.8303

> <Gold.Chemscore.Internal.Correction.Weighted>
   9.000000E+99

> <Gold.Protein.RotatedTorsions>
[ 6907 6896 6895 6894 ] final  108.79 input  -60.11 | X-H torsion
[ 7974 7965 7964 7962 ] final    1.05 input  175.53 | X-H torsion
[ 8008 7997 7996 7995 ] final  -83.08 input   59.86 | X-H torsion
[ 10167 10162 10161 10158 ] final  160.08 input  -65.29 | X-H torsion
[ 10718 10713 10712 10709 ] final -162.15 input   66.30 | X-H torsion
[ 10763 10752 10751 10750 ] final  147.94 input  -60.55 | X-H torsion
[ 11005 11000 10999 10996 ] final   -8.59 input  -57.11 | X-H torsion

> <Gold.Protein.ActiveResidues>
 VAL166  LYS551  ARG553  GLY616  TRP617  ASP618  TYR619  PRO620  LYS621  CYS622 
 ASP623  PHE694  ASN695  SER759  ASP760  ASP761  ALA762  ILE779  LEU786  VAL792 
 PHE793  MET794  SER795  GLU796  ALA797  LYS798  CYS799  TRP800  GLU811  SER814 

> <Gold.Protein.RotatedAtoms>
  152.5097  133.9038  159.7454 H   0  0  0  0  0  0  0  0  0  0  0  0  # atno 6907 bound_to 6896
  150.9448  133.6607  159.2790 H   0  0  0  0  0  0  0  0  0  0  0  0  # atno 6908 bound_to 6896
  151.3906  135.0960  159.9577 H   0  0  0  0  0  0  0  0  0  0  0  0  # atno 6909 bound_to 6896
  146.2438  140.1045  142.8346 H   0  0  0  0  0  0  0  0  0  0  0  0  # atno 7974 bound_to 7965
  154.6153  140.0624  156.9546 H   0  0  0  0  0  0  0  0  0  0  0  0  # atno 8008 bound_to 7997
  155.1906  140.3307  155.4341 H   0  0  0  0  0  0  0  0  0  0  0  0  # atno 8009 bound_to 7997
  156.2400  140.1882  156.6996 H   0  0  0  0  0  0  0  0  0  0  0  0  # atno 8010 bound_to 7997
  139.4837  144.4668  151.8630 H   0  0  0  0  0  0  0  0  0  0  0  0  # atno 10167 bound_to 10162
  156.6063  130.8832  151.2926 H   0  0  0  0  0  0  0  0  0  0  0  0  # atno 10718 bound_to 10713
  154.0467  135.2885  155.3347 H   0  0  0  0  0  0  0  0  0  0  0  0  # atno 10763 bound_to 10752
  154.6895  135.5232  153.8376 H   0  0  0  0  0  0  0  0  0  0  0  0  # atno 10764 bound_to 10752
  153.0578  135.6602  154.0666 H   0  0  0  0  0  0  0  0  0  0  0  0  # atno 10765 bound_to 10752
  140.7251  133.8796  155.8850 H   0  0  0  0  0  0  0  0  0  0  0  0  # atno 11005 bound_to 11000
  145.0540  140.9039  143.4978 LP  0  0  0  0  0  0  0  0  0  0  0  0  # atno 17320 bound_to 7965
  145.1148  139.2733  143.5619 LP  0  0  0  0  0  0  0  0  0  0  0  0  # atno 17321 bound_to 7965
  140.4134  144.2338  150.5888 LP  0  0  0  0  0  0  0  0  0  0  0  0  # atno 17342 bound_to 10162
  140.4944  143.2337  151.8771 LP  0  0  0  0  0  0  0  0  0  0  0  0  # atno 17343 bound_to 10162
  157.7266  130.9632  150.1664 LP  0  0  0  0  0  0  0  0  0  0  0  0  # atno 17370 bound_to 10713
  156.2427  130.3692  149.8319 LP  0  0  0  0  0  0  0  0  0  0  0  0  # atno 17371 bound_to 10713
  140.9970  134.1202  157.4354 LP  0  0  0  0  0  0  0  0  0  0  0  0  # atno 17394 bound_to 11000
  139.8839  135.0057  156.6332 LP  0  0  0  0  0  0  0  0  0  0  0  0  # atno 17395 bound_to 11000

$$$$
