AV-unprocessed.smi:2751|AV-procd|sdf|10599|dock3
  -GOLD-   2272015 53D 1   1.00000     0.00000
 Structure written by MMmdl.
 34 35  0  0  0  0  0  0  0  0  1 V2000
  150.7549  140.7171  155.4537 O   0  0  0  0  0  0  0  0  0  0  0  0
  149.9539  141.6529  155.5452 C   0  0  0  0  0  0  0  0  0  0  0  0
  150.2131  142.7242  156.3100 N   0  0  0  0  0  0  0  0  0  0  0  0
  151.4223  142.9284  157.1003 C   0  0  0  0  0  0  0  0  0  0  0  0
  151.6677  141.7633  158.0745 C   0  0  0  0  0  0  0  0  0  0  0  0
  152.4879  142.1780  159.3063 C   0  0  2  0  0  0  0  0  0  0  0  0
  152.9718  140.9579  160.1143 C   0  0  0  0  0  0  0  0  0  0  0  0
  153.7202  141.4079  161.3742 C   0  0  0  0  0  0  0  0  0  0  0  0
  152.8491  142.3837  162.1721 C   0  0  0  0  0  0  0  0  0  0  0  0
  152.3634  143.5276  161.2682 C   0  0  0  0  0  0  0  0  0  0  0  0
  151.6710  142.9957  160.1429 O   0  0  0  0  0  0  0  0  0  0  0  0
  148.7213  141.7994  154.9251 N   0  0  0  0  0  0  0  0  0  0  0  0
  148.1548  140.7726  154.3706 C   0  0  0  0  0  0  0  0  0  0  0  0
  146.9345  140.7319  153.7149 N   0  0  0  0  0  0  0  0  0  0  0  0
  146.7265  139.4518  153.2812 C   0  0  0  0  0  0  0  0  0  0  0  0
  147.7713  138.7156  153.6484 C   0  0  0  0  0  0  0  0  0  0  0  0
  148.6650  139.4958  154.3176 O   0  0  0  0  0  0  0  0  0  0  0  0
  149.5197  143.4577  156.3427 H   0  0  0  0  0  0  0  0  0  0  0  0
  152.2816  143.0663  156.4420 H   0  0  0  0  0  0  0  0  0  0  0  0
  151.3058  143.8600  157.6546 H   0  0  0  0  0  0  0  0  0  0  0  0
  150.7133  141.3422  158.3939 H   0  0  0  0  0  0  0  0  0  0  0  0
  152.1950  140.9644  157.5514 H   0  0  0  0  0  0  0  0  0  0  0  0
  153.3526  142.7552  158.9734 H   0  0  0  0  0  0  0  0  0  0  0  0
  152.1178  140.3412  160.3980 H   0  0  0  0  0  0  0  0  0  0  0  0
  153.6204  140.3309  159.5017 H   0  0  0  0  0  0  0  0  0  0  0  0
  153.9876  140.5467  161.9870 H   0  0  0  0  0  0  0  0  0  0  0  0
  154.6542  141.8952  161.0917 H   0  0  0  0  0  0  0  0  0  0  0  0
  151.9883  141.8549  162.5834 H   0  0  0  0  0  0  0  0  0  0  0  0
  153.4072  142.7819  163.0199 H   0  0  0  0  0  0  0  0  0  0  0  0
  151.6872  144.1800  161.8208 H   0  0  0  0  0  0  0  0  0  0  0  0
  153.1999  144.1445  160.9360 H   0  0  0  0  0  0  0  0  0  0  0  0
  146.2817  141.4866  153.5600 H   0  0  0  0  0  0  0  0  0  0  0  0
  145.8267  139.1975  152.7405 H   0  0  0  0  0  0  0  0  0  0  0  0
  148.0175  137.6724  153.5153 H   0  0  0  0  0  0  0  0  0  0  0  0
  1  2  2  0  0  0  0
  2 12  1  0  0  0  0
  2  3  1  0  0  0  0
  3  4  1  0  0  0  0
  3 18  1  0  0  0  0
  4  5  1  0  0  0  0
  4 19  1  0  0  0  0
  4 20  1  0  0  0  0
  5  6  1  0  0  0  0
  5 21  1  0  0  0  0
  5 22  1  0  0  0  0
  6 11  1  0  0  0  0
  6  7  1  0  0  0  0
  6 23  1  0  0  0  0
  7  8  1  0  0  0  0
  7 24  1  0  0  0  0
  7 25  1  0  0  0  0
  8  9  1  0  0  0  0
  8 26  1  0  0  0  0
  8 27  1  0  0  0  0
  9 10  1  0  0  0  0
  9 28  1  0  0  0  0
  9 29  1  0  0  0  0
 10 11  1  0  0  0  0
 10 30  1  0  0  0  0
 10 31  1  0  0  0  0
 12 13  2  0  0  0  0
 13 17  1  0  0  0  0
 13 14  1  0  0  0  0
 14 32  1  0  0  0  0
 14 15  1  0  0  0  0
 15 33  1  0  0  0  0
 15 16  2  0  0  0  0
 16 34  1  0  0  0  0
 16 17  1  0  0  0  0
M  END
> <s_m_source_file>
AV-unprocessed.smi

> <i_m_source_file_index>
2751

> <i_lp_mmshare_version>
43012

> <i_f3d_flags>
0

> <s_epik_input>
bzFbY0hdW2NIXW5jMVtOSF1DKD1PKVtOSF1bQ0gyXVtDSDJdW0NAQEhdMltDSDJdW0NIMl1bQ0gyXVtDSDJdTzI=

> <s_epik_cmdline>
J2VwaWtfcHl0aG9uJywgJy1waCcsICc3LjAnLCAnLXRuJywgJzgnLCAnLW1hJywgJzIwMCcsICctbWV0YWxfYmluZGluZycsICctaW1hZScsICc8aW5maWxlLm1hZT4nLCAnLW9tYWUnLCAnPG91dGZpbGUubWFlPic=

> <r_lp_tautomer_probability>
0.107061

> <r_epik_Ionization_Penalty>
1.421

> <r_epik_Ionization_Penalty_Charging>
1.42064

> <r_epik_Ionization_Penalty_Neutral>
0.0003614

> <r_epik_State_Penalty>
2.61489

> <r_epik_Charging_Adjusted_Penalty>
4.03553

> <i_epik_Tot_Q>
0

> <i_epik_Tot_abs_Q>
0

> <r_epik_Metal_State_Penalty>
3.57288

> <b_epik_Metal_Only>
0

> <s_lp_Force_Field>
OPLS_2005

> <r_lp_Energy>
32.3985

> <b_lp_Chiralities_Consistent>
1

> <s_lp_Variant>
AV-unprocessed.smi:2751-5

> <Gold.Version>
5.8.1

> <Gold.Id.Protein>
6NUR|6NUR_protein|mol2

> <Gold.PLP.Fitness>
43.6993

> <Gold.PLP.PLP>
-32.7133

> <Gold.PLP.part.hbond>
-1.8981

> <Gold.PLP.part.metal>
0.0000

> <Gold.PLP.part.buried>
-5.4177

> <Gold.PLP.part.nonpolar>
-26.0680

> <Gold.PLP.part.repulsive>
1.4312

> <Gold.PLP.ligand.clash>
0.0000

> <Gold.PLP.ligand.torsion>
0.2710

> <Gold.PLP.Chemscore.Hbond>
1.8400

> <Gold.PLP.Chemscore.CHOScore>
2.0000

> <Gold.PLP.Chemscore.Metal>
0.0000

> <Gold.Chemscore.Hbonds>
donor molecule, donor type, donor heavy atom, donor atom, acceptor molecule, acceptor atom, score
      L1  H     3    18       P1  8028  0.96
      P1  H  7989  7998       L1     1  0.62
      L1  C    15    33       P1 10175  1.00
      L1  C    16    34       P1  7948  1.00

> <Gold.PLP.Chemscore.Internal.Correction>
0.0081

> <Gold.Rescore>
     Score         DG    S(hbond)    S(metal)    S(lipo)     H(rot)  DE(clash)    DE(int)     intcor
     12.95     -15.66       1.37        0.00      83.66       1.63       0.21       2.50       ----

> <Gold.Chemscore.Fitness>
12.9521

> <Gold.Chemscore.DG>
-15.6569

> <Gold.Chemscore.ZeroCoef>
-5.4800

> <Gold.Chemscore.Hbond>
1.3677

> <Gold.Chemscore.Metal>
0.0000

> <Gold.Chemscore.Lipo>
83.6636

> <Gold.Chemscore.Internal_Hbond>
0.0000

> <Gold.Chemscore.DEClash>
0.2068

> <Gold.Chemscore.DEInternal>
2.4980

> <Gold.Chemscore.Rot>
1.6328

> <Gold.Chemscore.Internal.Correction>
   9.000000E+99

> <Gold.Chemscore.Hbonds>
donor molecule, donor type, donor heavy atom, donor atom, acceptor molecule, acceptor atom, score
      L1  H     3    18       P1  8028  0.89
      P1  H  7989  7998       L1     1  0.34

> <Gold.Chemscore.Hbond.Weighted>
-4.5682

> <Gold.Chemscore.Metal.Weighted>
-0.0000

> <Gold.Chemscore.Lipo.Weighted>
-9.7886

> <Gold.Chemscore.Internal_Hbond.Weighted>
0.0000

> <Gold.Chemscore.DEClash.Weighted>
0.2068

> <Gold.Chemscore.DEInternal.Weighted>
2.4980

> <Gold.Chemscore.Rot.Weighted>
4.1799

> <Gold.Chemscore.Internal.Correction.Weighted>
   9.000000E+99

> <Gold.Protein.RotatedTorsions>
[ 6907 6896 6895 6894 ] final  -16.90 input  -60.11 | X-H torsion
[ 7974 7965 7964 7962 ] final  140.88 input  175.53 | X-H torsion
[ 8008 7997 7996 7995 ] final  149.97 input   59.86 | X-H torsion
[ 10167 10162 10161 10158 ] final  111.58 input  -65.29 | X-H torsion
[ 10718 10713 10712 10709 ] final -130.15 input   66.30 | X-H torsion
[ 10763 10752 10751 10750 ] final   34.49 input  -60.55 | X-H torsion
[ 11005 11000 10999 10996 ] final  -28.31 input  -57.11 | X-H torsion

> <Gold.Protein.ActiveResidues>
 VAL166  LYS551  ARG553  GLY616  TRP617  ASP618  TYR619  PRO620  LYS621  CYS622 
 ASP623  PHE694  ASN695  SER759  ASP760  ASP761  ALA762  ILE779  LEU786  VAL792 
 PHE793  MET794  SER795  GLU796  ALA797  LYS798  CYS799  TRP800  GLU811  SER814 

> <Gold.Protein.RotatedAtoms>
  151.3016  135.0770  159.9240 H   0  0  0  0  0  0  0  0  0  0  0  0  # atno 6907 bound_to 6896
  152.5296  133.9828  159.7824 H   0  0  0  0  0  0  0  0  0  0  0  0  # atno 6908 bound_to 6896
  151.0115  133.5909  159.2712 H   0  0  0  0  0  0  0  0  0  0  0  0  # atno 6909 bound_to 6896
  144.9146  139.5247  143.5692 H   0  0  0  0  0  0  0  0  0  0  0  0  # atno 7974 bound_to 7965
  156.2734  140.2087  156.5943 H   0  0  0  0  0  0  0  0  0  0  0  0  # atno 8008 bound_to 7997
  154.6957  140.0526  157.0432 H   0  0  0  0  0  0  0  0  0  0  0  0  # atno 8009 bound_to 7997
  155.0804  140.3186  155.4606 H   0  0  0  0  0  0  0  0  0  0  0  0  # atno 8010 bound_to 7997
  139.6600  144.7129  151.1883 H   0  0  0  0  0  0  0  0  0  0  0  0  # atno 10167 bound_to 10162
  156.2116  130.6922  151.0656 H   0  0  0  0  0  0  0  0  0  0  0  0  # atno 10718 bound_to 10713
  153.0162  135.6359  154.1676 H   0  0  0  0  0  0  0  0  0  0  0  0  # atno 10763 bound_to 10752
  154.1415  135.2834  155.3161 H   0  0  0  0  0  0  0  0  0  0  0  0  # atno 10764 bound_to 10752
  154.6121  135.5553  153.7545 H   0  0  0  0  0  0  0  0  0  0  0  0  # atno 10765 bound_to 10752
  140.9197  133.7407  156.0784 H   0  0  0  0  0  0  0  0  0  0  0  0  # atno 11005 bound_to 11000
  146.3176  139.7980  142.8971 LP  0  0  0  0  0  0  0  0  0  0  0  0  # atno 17320 bound_to 7965
  145.3396  141.0285  143.3400 LP  0  0  0  0  0  0  0  0  0  0  0  0  # atno 17321 bound_to 7965
  140.7576  143.6009  150.8700 LP  0  0  0  0  0  0  0  0  0  0  0  0  # atno 17342 bound_to 10162
  139.9666  143.6104  152.2986 LP  0  0  0  0  0  0  0  0  0  0  0  0  # atno 17343 bound_to 10162
  157.7041  131.0764  150.6724 LP  0  0  0  0  0  0  0  0  0  0  0  0  # atno 17370 bound_to 10713
  156.6784  130.4560  149.5635 LP  0  0  0  0  0  0  0  0  0  0  0  0  # atno 17371 bound_to 10713
  140.8003  134.3516  157.5441 LP  0  0  0  0  0  0  0  0  0  0  0  0  # atno 17394 bound_to 11000
  139.8773  134.9194  156.3225 LP  0  0  0  0  0  0  0  0  0  0  0  0  # atno 17395 bound_to 11000

$$$$
