AV-unprocessed.smi:2061|AV-procd|sdf|8382|dock2
  -GOLD-   2272011 63D 1   1.00000     0.00000
 Structure written by MMmdl.
 45 46  0  0  0  0  0  0  0  0  3 V2000
  149.6487  132.8809  153.5832 C   0  0  0  0  0  0  0  0  0  0  0  0
  150.2650  133.6076  154.7293 C   0  0  0  0  0  0  0  0  0  0  0  0
  150.6556  134.9051  154.9029 C   0  0  0  0  0  0  0  0  0  0  0  0
  151.1530  134.9189  156.2346 C   0  0  0  0  0  0  0  0  0  0  0  0
  151.6700  135.9804  156.8722 N   0  5  0  0  0  0  0  0  0  0  0  0
  151.8986  137.1329  156.2026 C   0  0  0  0  0  0  0  0  0  0  0  0
  152.0907  137.2515  154.9902 O   0  0  0  0  0  0  0  0  0  0  0  0
  151.9126  138.2180  156.9894 N   0  0  0  0  0  0  0  0  0  0  0  0
  152.1563  139.5872  156.5462 C   0  0  0  0  0  0  0  0  0  0  0  0
  151.0748  140.5862  157.0360 C   0  0  2  0  0  0  0  0  0  0  0  0
  150.2565  141.1183  155.8340 C   0  0  0  0  0  0  0  0  0  0  0  0
  151.7114  141.6669  157.8567 N   0  3  1  0  0  0  0  0  0  0  0  0
  150.7979  142.7325  158.3529 C   0  0  0  0  0  0  0  0  0  0  0  0
  151.5643  143.8215  159.1315 C   0  0  2  0  0  0  0  0  0  0  0  0
  152.3818  144.7614  158.2269 C   0  0  0  0  0  0  0  0  0  0  0  0
  152.3612  143.2380  160.1599 O   0  0  0  0  0  0  0  0  0  0  0  0
  153.2761  142.2463  159.7071 C   0  0  1  0  0  0  0  0  0  0  0  0
  154.0478  141.7275  160.9256 C   0  0  0  0  0  0  0  0  0  0  0  0
  152.4972  141.1261  158.9969 C   0  0  0  0  0  0  0  0  0  0  0  0
  151.0868  133.7309  156.8118 N   0  0  0  0  0  0  0  0  0  0  0  0
  150.5119  132.8856  155.8552 O   0  0  0  0  0  0  0  0  0  0  0  0
  150.1710  133.1111  152.6547 H   0  0  0  0  0  0  0  0  0  0  0  0
  148.6038  133.1664  153.4640 H   0  0  0  0  0  0  0  0  0  0  0  0
  149.6893  131.8020  153.7343 H   0  0  0  0  0  0  0  0  0  0  0  0
  150.5925  135.7162  154.1931 H   0  0  0  0  0  0  0  0  0  0  0  0
  151.7455  138.0769  157.9751 H   0  0  0  0  0  0  0  0  0  0  0  0
  153.1568  139.8729  156.8688 H   0  0  0  0  0  0  0  0  0  0  0  0
  152.1840  139.5823  155.4562 H   0  0  0  0  0  0  0  0  0  0  0  0
  150.3705  140.0592  157.6817 H   0  0  0  0  0  0  0  0  0  0  0  0
  149.8296  140.3059  155.2462 H   0  0  0  0  0  0  0  0  0  0  0  0
  150.8751  141.7149  155.1628 H   0  0  0  0  0  0  0  0  0  0  0  0
  149.4093  141.7255  156.1523 H   0  0  0  0  0  0  0  0  0  0  0  0
  150.2721  143.2199  157.5324 H   0  0  0  0  0  0  0  0  0  0  0  0
  150.0422  142.2804  158.9972 H   0  0  0  0  0  0  0  0  0  0  0  0
  150.8274  144.4427  159.6417 H   0  0  0  0  0  0  0  0  0  0  0  0
  151.7279  145.3123  157.5502 H   0  0  0  0  0  0  0  0  0  0  0  0
  153.1016  144.2220  157.6118 H   0  0  0  0  0  0  0  0  0  0  0  0
  152.9299  145.4931  158.8209 H   0  0  0  0  0  0  0  0  0  0  0  0
  153.9946  142.6890  159.0171 H   0  0  0  0  0  0  0  0  0  0  0  0
  154.7705  140.9638  160.6371 H   0  0  0  0  0  0  0  0  0  0  0  0
  153.3744  141.2896  161.6631 H   0  0  0  0  0  0  0  0  0  0  0  0
  154.5953  142.5345  161.4130 H   0  0  0  0  0  0  0  0  0  0  0  0
  151.8230  140.6339  159.7003 H   0  0  0  0  0  0  0  0  0  0  0  0
  153.2035  140.3685  158.6624 H   0  0  0  0  0  0  0  0  0  0  0  0
  152.3651  142.1309  157.2424 H   0  0  0  0  0  0  0  0  0  0  0  0
  1  2  1  0  0  0  0
  1 22  1  0  0  0  0
  1 23  1  0  0  0  0
  1 24  1  0  0  0  0
  2 21  1  0  0  0  0
  2  3  2  0  0  0  0
  3  4  1  0  0  0  0
  3 25  1  0  0  0  0
  4  5  1  0  0  0  0
  4 20  2  0  0  0  0
  5  6  1  0  0  0  0
  6  7  2  0  0  0  0
  6  8  1  0  0  0  0
  8  9  1  0  0  0  0
  8 26  1  0  0  0  0
  9 10  1  0  0  0  0
  9 27  1  0  0  0  0
  9 28  1  0  0  0  0
 10 11  1  0  0  0  0
 10 12  1  0  0  0  0
 10 29  1  0  0  0  0
 11 30  1  0  0  0  0
 11 31  1  0  0  0  0
 11 32  1  0  0  0  0
 12 19  1  0  0  0  0
 12 13  1  0  0  0  0
 12 45  1  0  0  0  0
 13 14  1  0  0  0  0
 13 33  1  0  0  0  0
 13 34  1  0  0  0  0
 14 15  1  0  0  0  0
 14 16  1  0  0  0  0
 14 35  1  0  0  0  0
 15 36  1  0  0  0  0
 15 37  1  0  0  0  0
 15 38  1  0  0  0  0
 16 17  1  0  0  0  0
 17 18  1  0  0  0  0
 17 19  1  0  0  0  0
 17 39  1  0  0  0  0
 18 40  1  0  0  0  0
 18 41  1  0  0  0  0
 18 42  1  0  0  0  0
 19 43  1  0  0  0  0
 19 44  1  0  0  0  0
 20 21  1  0  0  0  0
M  CHG  1   5  -1
M  CHG  1  12   1
M  END
> <s_m_source_file>
AV-unprocessed.smi

> <i_m_source_file_index>
2061

> <i_lp_mmshare_version>
43012

> <i_f3d_flags>
0

> <s_epik_input>
W0NIM11jMVtjSF1jKG5vMSlbTkhdQyg9TylbTkhdW0NIMl1bQ0BIXShbQ0gzXSlOMltDSDJdW0NAQEhdKFtDSDNdKU9bQ0BASF0oW0NIM10pW0NIMl0y

> <s_epik_cmdline>
J2VwaWtfcHl0aG9uJywgJy1waCcsICc3LjAnLCAnLXRuJywgJzgnLCAnLW1hJywgJzIwMCcsICctbWV0YWxfYmluZGluZycsICctaW1hZScsICc8aW5maWxlLm1hZT4nLCAnLW9tYWUnLCAnPG91dGZpbGUubWFlPic=

> <r_epik_Ionization_Penalty>
6.73511

> <r_epik_Ionization_Penalty_Charging>
6.73502

> <r_epik_Ionization_Penalty_Neutral>
9.50841e-05

> <r_epik_State_Penalty>
6.93549

> <r_epik_Charging_Adjusted_Penalty>
13.6705

> <i_epik_Tot_Q>
0

> <i_epik_Tot_abs_Q>
2

> <r_epik_Metal_State_Penalty>
2.87211

> <b_epik_Metal_Only>
1

> <s_lp_Force_Field>
OPLS_2005

> <r_lp_Energy>
12.0901

> <b_lp_Chiralities_Consistent>
1

> <s_lp_Variant>
AV-unprocessed.smi:2061-23

> <Gold.Version>
5.8.1

> <Gold.Id.Protein>
6NUR|6NUR_protein|mol2

> <Gold.PLP.Fitness>
44.0198

> <Gold.PLP.PLP>
-40.6050

> <Gold.PLP.part.hbond>
-2.3567

> <Gold.PLP.part.metal>
0.0000

> <Gold.PLP.part.buried>
-6.6140

> <Gold.PLP.part.nonpolar>
-33.1764

> <Gold.PLP.part.repulsive>
0.2040

> <Gold.PLP.ligand.clash>
0.0000

> <Gold.PLP.ligand.torsion>
0.9362

> <Gold.PLP.Chemscore.Hbond>
1.7280

> <Gold.PLP.Chemscore.CHOScore>
0.0000

> <Gold.PLP.Chemscore.Metal>
0.0000

> <Gold.Chemscore.Hbonds>
donor molecule, donor type, donor heavy atom, donor atom, acceptor molecule, acceptor atom, score
      P1  H  6896  6909       L1    20  0.06
      P1  H 10752 10764       L1     7  0.73

> <Gold.PLP.Chemscore.Internal.Correction>
0.1033

> <Gold.Rescore>
     Score         DG    S(hbond)    S(metal)    S(lipo)     H(rot)  DE(clash)    DE(int)     intcor
     16.60     -19.08       1.78        0.00      99.38       1.56       0.06       2.41       ----

> <Gold.Chemscore.Fitness>
16.6046

> <Gold.Chemscore.DG>
-19.0773

> <Gold.Chemscore.ZeroCoef>
-5.4800

> <Gold.Chemscore.Hbond>
1.7817

> <Gold.Chemscore.Metal>
0.0000

> <Gold.Chemscore.Lipo>
99.3781

> <Gold.Chemscore.Internal_Hbond>
0.0000

> <Gold.Chemscore.DEClash>
0.0637

> <Gold.Chemscore.DEInternal>
2.4090

> <Gold.Chemscore.Rot>
1.5550

> <Gold.Chemscore.Internal.Correction>
   9.000000E+99

> <Gold.Chemscore.Hbonds>
donor molecule, donor type, donor heavy atom, donor atom, acceptor molecule, acceptor atom, score
      P1  H  6896  6909       L1    20  0.07
      P1  H 10752 10764       L1     7  0.15

> <Gold.Chemscore.Hbond.Weighted>
-5.9510

> <Gold.Chemscore.Metal.Weighted>
-0.0000

> <Gold.Chemscore.Lipo.Weighted>
-11.6272

> <Gold.Chemscore.Internal_Hbond.Weighted>
0.0000

> <Gold.Chemscore.DEClash.Weighted>
0.0637

> <Gold.Chemscore.DEInternal.Weighted>
2.4090

> <Gold.Chemscore.Rot.Weighted>
3.9809

> <Gold.Chemscore.Internal.Correction.Weighted>
   9.000000E+99

> <Gold.Protein.RotatedTorsions>
[ 6907 6896 6895 6894 ] final  -21.91 input  -60.11 | X-H torsion
[ 7974 7965 7964 7962 ] final  -47.66 input  175.53 | X-H torsion
[ 8008 7997 7996 7995 ] final   57.24 input   59.86 | X-H torsion
[ 10167 10162 10161 10158 ] final  -60.68 input  -65.29 | X-H torsion
[ 10718 10713 10712 10709 ] final -128.98 input   66.30 | X-H torsion
[ 10763 10752 10751 10750 ] final  -53.38 input  -60.55 | X-H torsion
[ 11005 11000 10999 10996 ] final  -23.09 input  -57.11 | X-H torsion

> <Gold.Protein.ActiveResidues>
 VAL166  LYS551  ARG553  GLY616  TRP617  ASP618  TYR619  PRO620  LYS621  CYS622 
 ASP623  PHE694  ASN695  SER759  ASP760  ASP761  ALA762  ILE779  LEU786  VAL792 
 PHE793  MET794  SER795  GLU796  ALA797  LYS798  CYS799  TRP800  GLU811  SER814 

> <Gold.Protein.RotatedAtoms>
  151.2264  135.0538  159.8969 H   0  0  0  0  0  0  0  0  0  0  0  0  # atno 6907 bound_to 6896
  152.5410  134.0585  159.8152 H   0  0  0  0  0  0  0  0  0  0  0  0  # atno 6908 bound_to 6896
  151.0758  133.5381  159.2655 H   0  0  0  0  0  0  0  0  0  0  0  0  # atno 6909 bound_to 6896
  145.9593  140.7495  142.9465 H   0  0  0  0  0  0  0  0  0  0  0  0  # atno 7974 bound_to 7965
  155.5306  140.3482  155.4425 H   0  0  0  0  0  0  0  0  0  0  0  0  # atno 8008 bound_to 7997
  156.0721  140.1365  156.9842 H   0  0  0  0  0  0  0  0  0  0  0  0  # atno 8009 bound_to 7997
  154.4534  140.0963  156.6660 H   0  0  0  0  0  0  0  0  0  0  0  0  # atno 8010 bound_to 7997
  140.6055  143.2372  151.5830 H   0  0  0  0  0  0  0  0  0  0  0  0  # atno 10167 bound_to 10162
  156.2002  130.6852  151.0530 H   0  0  0  0  0  0  0  0  0  0  0  0  # atno 10718 bound_to 10713
  154.1578  135.6479  153.4978 H   0  0  0  0  0  0  0  0  0  0  0  0  # atno 10763 bound_to 10752
  153.0119  135.5353  154.6741 H   0  0  0  0  0  0  0  0  0  0  0  0  # atno 10764 bound_to 10752
  154.6047  135.2947  155.0469 H   0  0  0  0  0  0  0  0  0  0  0  0  # atno 10765 bound_to 10752
  140.8719  133.7715  156.0196 H   0  0  0  0  0  0  0  0  0  0  0  0  # atno 11005 bound_to 11000
  144.6811  140.2564  143.7325 LP  0  0  0  0  0  0  0  0  0  0  0  0  # atno 17320 bound_to 7965
  145.8062  139.1984  143.2019 LP  0  0  0  0  0  0  0  0  0  0  0  0  # atno 17321 bound_to 7965
  139.5322  144.2883  152.1173 LP  0  0  0  0  0  0  0  0  0  0  0  0  # atno 17342 bound_to 10162
  140.2072  144.4599  150.6403 LP  0  0  0  0  0  0  0  0  0  0  0  0  # atno 17343 bound_to 10162
  157.6981  131.0786  150.6905 LP  0  0  0  0  0  0  0  0  0  0  0  0  # atno 17370 bound_to 10713
  156.6963  130.4610  149.5585 LP  0  0  0  0  0  0  0  0  0  0  0  0  # atno 17371 bound_to 10713
  140.8564  134.2893  157.5253 LP  0  0  0  0  0  0  0  0  0  0  0  0  # atno 17394 bound_to 11000
  139.8713  134.9495  156.4027 LP  0  0  0  0  0  0  0  0  0  0  0  0  # atno 17395 bound_to 11000

$$$$
