AV-unprocessed.smi:1360|AV-procd|sdf|5554|dock1
  -GOLD-   22720 5143D 1   1.00000     0.00000
 Structure written by MMmdl.
 36 37  0  0  0  0  0  0  0  0  1 V2000
  152.0164  138.7181  154.9962 C   0  0  0  0  0  0  0  0  0  0  0  0
  151.0459  139.9089  155.0585 C   0  0  1  0  0  0  0  0  0  0  0  0
  149.5868  139.4940  155.3471 C   0  0  0  0  0  0  0  0  0  0  0  0
  148.6223  140.2725  154.5917 N   0  0  0  0  0  0  0  0  0  0  0  0
  148.4289  141.6376  154.6062 C   0  0  0  0  0  0  0  0  0  0  0  0
  147.4147  141.9135  153.7347 C   0  0  0  0  0  0  0  0  0  0  0  0
  147.0450  140.6351  153.2309 C   0  0  0  0  0  0  0  0  0  0  0  0
  147.7680  139.6543  153.7474 N   0  0  0  0  0  0  0  0  0  0  0  0
  151.5099  140.8484  156.0752 N   0  0  0  0  0  0  0  0  0  0  0  0
  151.7111  140.5592  157.3703 C   0  0  0  0  0  0  0  0  0  0  0  0
  151.5302  139.4389  157.8486 O   0  0  0  0  0  0  0  0  0  0  0  0
  152.1941  141.7120  158.2602 C   0  0  1  0  0  0  0  0  0  0  0  0
  151.2537  142.9336  158.1495 C   0  0  0  0  0  0  0  0  0  0  0  0
  151.5658  143.9914  159.1933 C   0  0  0  0  0  0  0  0  0  0  0  0
  152.3144  143.7544  160.2841 C   0  0  0  0  0  0  0  0  0  0  0  0
  152.9280  142.4015  160.5996 C   0  0  0  0  0  0  0  0  0  0  0  0
  152.3352  141.2742  159.7322 C   0  0  0  0  0  0  0  0  0  0  0  0
  151.7587  138.0336  154.1880 H   0  0  0  0  0  0  0  0  0  0  0  0
  152.0091  138.1514  155.9280 H   0  0  0  0  0  0  0  0  0  0  0  0
  153.0382  139.0550  154.8186 H   0  0  0  0  0  0  0  0  0  0  0  0
  151.0794  140.4038  154.0861 H   0  0  0  0  0  0  0  0  0  0  0  0
  149.4416  138.4359  155.1225 H   0  0  0  0  0  0  0  0  0  0  0  0
  149.3590  139.6190  156.4065 H   0  0  0  0  0  0  0  0  0  0  0  0
  149.0243  142.2906  155.2275 H   0  0  0  0  0  0  0  0  0  0  0  0
  146.9996  142.8809  153.4940 H   0  0  0  0  0  0  0  0  0  0  0  0
  146.2775  140.3917  152.5112 H   0  0  0  0  0  0  0  0  0  0  0  0
  151.6881  141.7945  155.7703 H   0  0  0  0  0  0  0  0  0  0  0  0
  153.1839  142.0157  157.9134 H   0  0  0  0  0  0  0  0  0  0  0  0
  151.3480  143.3830  157.1603 H   0  0  0  0  0  0  0  0  0  0  0  0
  150.2087  142.6431  158.2674 H   0  0  0  0  0  0  0  0  0  0  0  0
  151.1436  144.9728  159.0343 H   0  0  0  0  0  0  0  0  0  0  0  0
  152.5123  144.5538  160.9831 H   0  0  0  0  0  0  0  0  0  0  0  0
  154.0042  142.4732  160.4394 H   0  0  0  0  0  0  0  0  0  0  0  0
  152.7780  142.1753  161.6556 H   0  0  0  0  0  0  0  0  0  0  0  0
  151.3551  141.0002  160.1265 H   0  0  0  0  0  0  0  0  0  0  0  0
  152.9589  140.3830  159.8140 H   0  0  0  0  0  0  0  0  0  0  0  0
  1  2  1  0  0  0  0
  1 18  1  0  0  0  0
  1 19  1  0  0  0  0
  1 20  1  0  0  0  0
  2  3  1  0  0  0  0
  2  9  1  0  0  0  0
  2 21  1  0  0  0  0
  3  4  1  0  0  0  0
  3 22  1  0  0  0  0
  3 23  1  0  0  0  0
  4  8  1  0  0  0  0
  4  5  1  0  0  0  0
  5  6  2  0  0  0  0
  5 24  1  0  0  0  0
  6  7  1  0  0  0  0
  6 25  1  0  0  0  0
  7  8  2  0  0  0  0
  7 26  1  0  0  0  0
  9 10  1  0  0  0  0
  9 27  1  0  0  0  0
 10 11  2  0  0  0  0
 10 12  1  0  0  0  0
 12 17  1  0  0  0  0
 12 13  1  0  0  0  0
 12 28  1  0  0  0  0
 13 14  1  0  0  0  0
 13 29  1  0  0  0  0
 13 30  1  0  0  0  0
 14 15  2  0  0  0  0
 14 31  1  0  0  0  0
 15 16  1  0  0  0  0
 15 32  1  0  0  0  0
 16 17  1  0  0  0  0
 16 33  1  0  0  0  0
 16 34  1  0  0  0  0
 17 35  1  0  0  0  0
 17 36  1  0  0  0  0
M  END
> <s_m_source_file>
AV-unprocessed.smi

> <i_m_source_file_index>
1360

> <i_lp_mmshare_version>
43012

> <i_f3d_flags>
0

> <s_epik_input>
bjFbY0hdW2NIXVtjSF1uMVtDSDJdW0NAQEhdKFtDSDNdKVtOSF1DKD1PKVtDQEBIXTJbQ0gyXVtDSF09W0NIXVtDSDJdW0NIMl0y

> <s_epik_cmdline>
J2VwaWtfcHl0aG9uJywgJy1waCcsICc3LjAnLCAnLXRuJywgJzgnLCAnLW1hJywgJzIwMCcsICctbWV0YWxfYmluZGluZycsICctaW1hZScsICc8aW5maWxlLm1hZT4nLCAnLW9tYWUnLCAnPG91dGZpbGUubWFlPic=

> <r_lp_tautomer_probability>
1

> <r_epik_Ionization_Penalty>
0.000315076

> <r_epik_Ionization_Penalty_Charging>
0

> <r_epik_Ionization_Penalty_Neutral>
0.000315076

> <r_epik_State_Penalty>
-0

> <r_epik_Charging_Adjusted_Penalty>
0

> <i_epik_Tot_Q>
0

> <i_epik_Tot_abs_Q>
0

> <r_epik_Metal_State_Penalty>
-0

> <b_epik_Metal_Only>
0

> <s_lp_Force_Field>
OPLS_2005

> <r_lp_Energy>
7.88056

> <b_lp_Chiralities_Consistent>
1

> <s_lp_Variant>
AV-unprocessed.smi:1360-4

> <Gold.Version>
5.8.1

> <Gold.Id.Protein>
6NUR|6NUR_protein|mol2

> <Gold.PLP.Fitness>
40.9338

> <Gold.PLP.PLP>
-36.0872

> <Gold.PLP.part.hbond>
0.0000

> <Gold.PLP.part.metal>
0.0000

> <Gold.PLP.part.buried>
-2.8145

> <Gold.PLP.part.nonpolar>
-33.6288

> <Gold.PLP.part.repulsive>
0.3232

> <Gold.PLP.ligand.clash>
0.0000

> <Gold.PLP.ligand.torsion>
0.5911

> <Gold.PLP.Chemscore.Hbond>
0.0000

> <Gold.PLP.Chemscore.CHOScore>
1.9984

> <Gold.PLP.Chemscore.Metal>
0.0000

> <Gold.Chemscore.Hbonds>
donor molecule, donor type, donor heavy atom, donor atom, acceptor molecule, acceptor atom, score
      L1  C     5    24       P1  8028  1.00
      L1  C     7    26       P1 10175  0.86

> <Gold.PLP.Chemscore.Internal.Correction>
0.0335

> <Gold.Rescore>
     Score         DG    S(hbond)    S(metal)    S(lipo)     H(rot)  DE(clash)    DE(int)     intcor
     12.33     -14.04       0.00        0.00     106.11       1.51       0.07       1.64       ----

> <Gold.Chemscore.Fitness>
12.3314

> <Gold.Chemscore.DG>
-14.0401

> <Gold.Chemscore.ZeroCoef>
-5.4800

> <Gold.Chemscore.Hbond>
0.0000

> <Gold.Chemscore.Metal>
0.0000

> <Gold.Chemscore.Lipo>
106.1088

> <Gold.Chemscore.Internal_Hbond>
0.0000

> <Gold.Chemscore.DEClash>
0.0677

> <Gold.Chemscore.DEInternal>
1.6410

> <Gold.Chemscore.Rot>
1.5057

> <Gold.Chemscore.Internal.Correction>
   9.000000E+99

> <Gold.Chemscore.Hbond.Weighted>
-0.0000

> <Gold.Chemscore.Metal.Weighted>
-0.0000

> <Gold.Chemscore.Lipo.Weighted>
-12.4147

> <Gold.Chemscore.Internal_Hbond.Weighted>
0.0000

> <Gold.Chemscore.DEClash.Weighted>
0.0677

> <Gold.Chemscore.DEInternal.Weighted>
1.6410

> <Gold.Chemscore.Rot.Weighted>
3.8546

> <Gold.Chemscore.Internal.Correction.Weighted>
   9.000000E+99

> <Gold.Protein.RotatedTorsions>
[ 6907 6896 6895 6894 ] final  -92.53 input  -60.11 | X-H torsion
[ 7974 7965 7964 7962 ] final -137.11 input  175.53 | X-H torsion
[ 8008 7997 7996 7995 ] final    7.83 input   59.86 | X-H torsion
[ 10167 10162 10161 10158 ] final  178.98 input  -65.29 | X-H torsion
[ 10718 10713 10712 10709 ] final  157.76 input   66.30 | X-H torsion
[ 10763 10752 10751 10750 ] final   -1.85 input  -60.55 | X-H torsion
[ 11005 11000 10999 10996 ] final   46.58 input  -57.11 | X-H torsion

> <Gold.Protein.ActiveResidues>
 VAL166  LYS551  ARG553  GLY616  TRP617  ASP618  TYR619  PRO620  LYS621  CYS622 
 ASP623  PHE694  ASN695  SER759  ASP760  ASP761  ALA762  ILE779  LEU786  VAL792 
 PHE793  MET794  SER795  GLU796  ALA797  LYS798  CYS799  TRP800  GLU811  SER814 

> <Gold.Protein.RotatedAtoms>
  150.6907  134.2108  159.4358 H   0  0  0  0  0  0  0  0  0  0  0  0  # atno 6907 bound_to 6896
  152.0070  134.9895  160.0576 H   0  0  0  0  0  0  0  0  0  0  0  0  # atno 6908 bound_to 6896
  152.1525  133.4496  159.4857 H   0  0  0  0  0  0  0  0  0  0  0  0  # atno 6909 bound_to 6896
  144.8870  140.6588  143.5170 H   0  0  0  0  0  0  0  0  0  0  0  0  # atno 7974 bound_to 7965
  154.7590  140.2781  155.6230 H   0  0  0  0  0  0  0  0  0  0  0  0  # atno 8008 bound_to 7997
  156.2911  140.2663  156.2290 H   0  0  0  0  0  0  0  0  0  0  0  0  # atno 8009 bound_to 7997
  155.0041  140.0372  157.2362 H   0  0  0  0  0  0  0  0  0  0  0  0  # atno 8010 bound_to 7997
  139.5317  144.2615  152.0703 H   0  0  0  0  0  0  0  0  0  0  0  0  # atno 10167 bound_to 10162
  157.1871  131.0646  151.2100 H   0  0  0  0  0  0  0  0  0  0  0  0  # atno 10718 bound_to 10713
  153.3503  135.6985  153.6794 H   0  0  0  0  0  0  0  0  0  0  0  0  # atno 10763 bound_to 10752
  153.5524  135.3551  155.2765 H   0  0  0  0  0  0  0  0  0  0  0  0  # atno 10764 bound_to 10752
  154.8652  135.4229  154.2737 H   0  0  0  0  0  0  0  0  0  0  0  0  # atno 10765 bound_to 10752
  140.1356  134.4650  155.8488 H   0  0  0  0  0  0  0  0  0  0  0  0  # atno 11005 bound_to 11000
  145.3852  139.1628  143.4259 LP  0  0  0  0  0  0  0  0  0  0  0  0  # atno 17320 bound_to 7965
  146.3030  140.3936  142.8697 LP  0  0  0  0  0  0  0  0  0  0  0  0  # atno 17321 bound_to 7965
  140.2080  144.4592  150.6399 LP  0  0  0  0  0  0  0  0  0  0  0  0  # atno 17342 bound_to 10162
  140.6499  143.2222  151.6101 LP  0  0  0  0  0  0  0  0  0  0  0  0  # atno 17343 bound_to 10162
  157.3896  130.7275  149.6688 LP  0  0  0  0  0  0  0  0  0  0  0  0  # atno 17370 bound_to 10713
  155.9716  130.4150  150.4159 LP  0  0  0  0  0  0  0  0  0  0  0  0  # atno 17371 bound_to 10713
  141.2177  133.6813  156.7150 LP  0  0  0  0  0  0  0  0  0  0  0  0  # atno 17394 bound_to 11000
  140.2787  134.8334  157.3914 LP  0  0  0  0  0  0  0  0  0  0  0  0  # atno 17395 bound_to 11000

$$$$
