AV-unprocessed.smi:1103|AV-procd|sdf|4771|dock2
  -GOLD-   22720 3313D 1   1.00000     0.00000
 Structure written by MMmdl.
 44 45  0  0  0  0  0  0  0  0  2 V2000
  151.0383  133.2181  151.7006 C   0  0  0  0  0  0  0  0  0  0  0  0
  151.8970  134.3259  152.3279 C   0  0  0  0  0  0  0  0  0  0  0  0
  151.1302  135.1733  153.2759 N   0  3  1  0  0  0  0  0  0  0  0  0
  150.5494  134.3810  154.3900 C   0  0  0  0  0  0  0  0  0  0  0  0
  149.6444  135.2531  155.2730 C   0  0  0  0  0  0  0  0  0  0  0  0
  150.4128  136.4644  155.8143 C   0  0  0  0  0  0  0  0  0  0  0  0
  151.0344  137.2665  154.6579 C   0  0  1  0  0  0  0  0  0  0  0  0
  151.8189  138.4842  155.1943 C   0  0  0  0  0  0  0  0  0  0  0  0
  150.9577  139.4864  155.8151 N   0  0  0  0  0  0  0  0  0  0  0  0
  151.3659  140.6864  156.2557 C   0  0  0  0  0  0  0  0  0  0  0  0
  152.5356  141.0659  156.1820 O   0  0  0  0  0  0  0  0  0  0  0  0
  150.2822  141.5809  156.8688 C   0  0  0  0  0  0  0  0  0  0  0  0
  150.7902  142.4071  157.9517 N   0  0  0  0  0  0  0  0  0  0  0  0
  150.1186  143.3547  158.6963 C   0  0  0  0  0  0  0  0  0  0  0  0
  151.0029  143.8696  159.6011 C   0  0  0  0  0  0  0  0  0  0  0  0
  150.7701  144.9248  160.6434 C   0  0  0  0  0  0  0  0  0  0  0  0
  152.2086  143.1648  159.3231 C   0  0  0  0  0  0  0  0  0  0  0  0
  152.0794  142.2936  158.3360 N   0  0  0  0  0  0  0  0  0  0  0  0
  151.9051  136.3397  153.7794 C   0  0  0  0  0  0  0  0  0  0  0  0
  151.6530  132.5620  151.0837 H   0  0  0  0  0  0  0  0  0  0  0  0
  150.2530  133.6179  151.0599 H   0  0  0  0  0  0  0  0  0  0  0  0
  150.5671  132.6028  152.4678 H   0  0  0  0  0  0  0  0  0  0  0  0
  152.7182  133.8438  152.8597 H   0  0  0  0  0  0  0  0  0  0  0  0
  152.3533  134.9458  151.5547 H   0  0  0  0  0  0  0  0  0  0  0  0
  149.9636  133.5524  153.9896 H   0  0  0  0  0  0  0  0  0  0  0  0
  151.3519  133.9438  154.9863 H   0  0  0  0  0  0  0  0  0  0  0  0
  148.7838  135.5923  154.6946 H   0  0  0  0  0  0  0  0  0  0  0  0
  149.2482  134.6628  156.0998 H   0  0  0  0  0  0  0  0  0  0  0  0
  149.7408  137.0973  156.3950 H   0  0  0  0  0  0  0  0  0  0  0  0
  151.1936  136.1280  156.4979 H   0  0  0  0  0  0  0  0  0  0  0  0
  150.2143  137.6382  154.0413 H   0  0  0  0  0  0  0  0  0  0  0  0
  152.5733  138.1621  155.9142 H   0  0  0  0  0  0  0  0  0  0  0  0
  152.3614  138.9657  154.3802 H   0  0  0  0  0  0  0  0  0  0  0  0
  149.9780  139.2572  155.9027 H   0  0  0  0  0  0  0  0  0  0  0  0
  149.8595  142.2186  156.0907 H   0  0  0  0  0  0  0  0  0  0  0  0
  149.4696  140.9677  157.2604 H   0  0  0  0  0  0  0  0  0  0  0  0
  149.0759  143.5781  158.5244 H   0  0  0  0  0  0  0  0  0  0  0  0
  151.6481  145.0742  161.2722 H   0  0  0  0  0  0  0  0  0  0  0  0
  149.9437  144.6616  161.3041 H   0  0  0  0  0  0  0  0  0  0  0  0
  150.5295  145.8881  160.1937 H   0  0  0  0  0  0  0  0  0  0  0  0
  153.1693  143.2599  159.8075 H   0  0  0  0  0  0  0  0  0  0  0  0
  152.7682  135.9857  154.3457 H   0  0  0  0  0  0  0  0  0  0  0  0
  152.2951  136.9067  152.9353 H   0  0  0  0  0  0  0  0  0  0  0  0
  150.3457  135.5424  152.7576 H   0  0  0  0  0  0  0  0  0  0  0  0
  1  2  1  0  0  0  0
  1 20  1  0  0  0  0
  1 21  1  0  0  0  0
  1 22  1  0  0  0  0
  2  3  1  0  0  0  0
  2 23  1  0  0  0  0
  2 24  1  0  0  0  0
  3 19  1  0  0  0  0
  3  4  1  0  0  0  0
  3 44  1  0  0  0  0
  4  5  1  0  0  0  0
  4 25  1  0  0  0  0
  4 26  1  0  0  0  0
  5  6  1  0  0  0  0
  5 27  1  0  0  0  0
  5 28  1  0  0  0  0
  6  7  1  0  0  0  0
  6 29  1  0  0  0  0
  6 30  1  0  0  0  0
  7  8  1  0  0  0  0
  7 19  1  0  0  0  0
  7 31  1  0  0  0  0
  8  9  1  0  0  0  0
  8 32  1  0  0  0  0
  8 33  1  0  0  0  0
  9 10  1  0  0  0  0
  9 34  1  0  0  0  0
 10 11  2  0  0  0  0
 10 12  1  0  0  0  0
 12 13  1  0  0  0  0
 12 35  1  0  0  0  0
 12 36  1  0  0  0  0
 13 18  1  0  0  0  0
 13 14  1  0  0  0  0
 14 15  2  0  0  0  0
 14 37  1  0  0  0  0
 15 16  1  0  0  0  0
 15 17  1  0  0  0  0
 16 38  1  0  0  0  0
 16 39  1  0  0  0  0
 16 40  1  0  0  0  0
 17 18  2  0  0  0  0
 17 41  1  0  0  0  0
 19 42  1  0  0  0  0
 19 43  1  0  0  0  0
M  CHG  1   3   1
M  END
> <s_m_source_file>
AV-unprocessed.smi

> <i_m_source_file_index>
1103

> <i_lp_mmshare_version>
43012

> <i_f3d_flags>
0

> <s_epik_input>
W0NIM11bQ0gyXU4xW0NIMl1bQ0gyXVtDSDJdW0NASF0oW0NIMl0xKVtDSDJdW05IXUMoPU8pW0NIMl1uMltjSF1jKFtDSDNdKVtjSF1uMg==

> <s_epik_cmdline>
J2VwaWtfcHl0aG9uJywgJy1waCcsICc3LjAnLCAnLXRuJywgJzgnLCAnLW1hJywgJzIwMCcsICctbWV0YWxfYmluZGluZycsICctaW1hZScsICc8aW5maWxlLm1hZT4nLCAnLW9tYWUnLCAnPG91dGZpbGUubWFlPic=

> <r_lp_tautomer_probability>
1

> <r_epik_Ionization_Penalty>
0.000672456

> <r_epik_Ionization_Penalty_Charging>
0.000647327

> <r_epik_Ionization_Penalty_Neutral>
2.51297e-05

> <r_epik_State_Penalty>
0.000409793

> <r_epik_Charging_Adjusted_Penalty>
0.00105712

> <i_epik_Tot_Q>
1

> <i_epik_Tot_abs_Q>
1

> <r_epik_Metal_State_Penalty>
-0

> <b_epik_Metal_Only>
0

> <s_lp_Force_Field>
OPLS_2005

> <r_lp_Energy>
19.0507

> <b_lp_Chiralities_Consistent>
1

> <s_lp_Variant>
AV-unprocessed.smi:1103-1

> <Gold.Version>
5.8.1

> <Gold.Id.Protein>
6NUR|6NUR_protein|mol2

> <Gold.PLP.Fitness>
47.0700

> <Gold.PLP.PLP>
-35.8505

> <Gold.PLP.part.hbond>
-2.0000

> <Gold.PLP.part.metal>
0.0000

> <Gold.PLP.part.buried>
-4.0439

> <Gold.PLP.part.nonpolar>
-30.0316

> <Gold.PLP.part.repulsive>
0.0667

> <Gold.PLP.ligand.clash>
0.0000

> <Gold.PLP.ligand.torsion>
0.4343

> <Gold.PLP.Chemscore.Hbond>
3.0000

> <Gold.PLP.Chemscore.CHOScore>
1.0000

> <Gold.PLP.Chemscore.Metal>
0.0000

> <Gold.Chemscore.Hbonds>
donor molecule, donor type, donor heavy atom, donor atom, acceptor molecule, acceptor atom, score
      P1  H  7997  8008       L1    11  0.50
      L1  C    14    37       P1  8029  0.02

> <Gold.PLP.Chemscore.Internal.Correction>
0.0881

> <Gold.Rescore>
     Score         DG    S(hbond)    S(metal)    S(lipo)     H(rot)  DE(clash)    DE(int)     intcor
     14.25     -16.87       1.97        0.00      77.91       1.68       0.57       2.05       ----

> <Gold.Chemscore.Fitness>
14.2542

> <Gold.Chemscore.DG>
-16.8718

> <Gold.Chemscore.ZeroCoef>
-5.4800

> <Gold.Chemscore.Hbond>
1.9708

> <Gold.Chemscore.Metal>
0.0000

> <Gold.Chemscore.Lipo>
77.9130

> <Gold.Chemscore.Internal_Hbond>
0.0000

> <Gold.Chemscore.DEClash>
0.5711

> <Gold.Chemscore.DEInternal>
2.0464

> <Gold.Chemscore.Rot>
1.6823

> <Gold.Chemscore.Internal.Correction>
   9.000000E+99

> <Gold.Chemscore.Hbonds>
donor molecule, donor type, donor heavy atom, donor atom, acceptor molecule, acceptor atom, score
      P1  H  7997  8008       L1    11  0.48

> <Gold.Chemscore.Hbond.Weighted>
-6.5825

> <Gold.Chemscore.Metal.Weighted>
-0.0000

> <Gold.Chemscore.Lipo.Weighted>
-9.1158

> <Gold.Chemscore.Internal_Hbond.Weighted>
0.0000

> <Gold.Chemscore.DEClash.Weighted>
0.5711

> <Gold.Chemscore.DEInternal.Weighted>
2.0464

> <Gold.Chemscore.Rot.Weighted>
4.3066

> <Gold.Chemscore.Internal.Correction.Weighted>
   9.000000E+99

> <Gold.Protein.RotatedTorsions>
[ 6907 6896 6895 6894 ] final -108.81 input  -60.11 | X-H torsion
[ 7974 7965 7964 7962 ] final  -42.45 input  175.53 | X-H torsion
[ 8008 7997 7996 7995 ] final  -53.94 input   59.86 | X-H torsion
[ 10167 10162 10161 10158 ] final  -99.42 input  -65.29 | X-H torsion
[ 10718 10713 10712 10709 ] final  173.65 input   66.30 | X-H torsion
[ 10763 10752 10751 10750 ] final  -65.48 input  -60.55 | X-H torsion
[ 11005 11000 10999 10996 ] final  -11.62 input  -57.11 | X-H torsion

> <Gold.Protein.ActiveResidues>
 VAL166  LYS551  ARG553  GLY616  TRP617  ASP618  TYR619  PRO620  LYS621  CYS622 
 ASP623  PHE694  ASN695  SER759  ASP760  ASP761  ALA762  ILE779  LEU786  VAL792 
 PHE793  MET794  SER795  GLU796  ALA797  LYS798  CYS799  TRP800  GLU811  SER814 

> <Gold.Protein.RotatedAtoms>
  150.7524  133.9623  159.3519 H   0  0  0  0  0  0  0  0  0  0  0  0  # atno 6907 bound_to 6896
  151.7550  135.0822  160.0346 H   0  0  0  0  0  0  0  0  0  0  0  0  # atno 6908 bound_to 6896
  152.3441  133.6064  159.5933 H   0  0  0  0  0  0  0  0  0  0  0  0  # atno 6909 bound_to 6896
  146.0114  140.6959  142.9222 H   0  0  0  0  0  0  0  0  0  0  0  0  # atno 7974 bound_to 7965
  154.4148  140.1188  156.5235 H   0  0  0  0  0  0  0  0  0  0  0  0  # atno 8008 bound_to 7997
  155.6678  140.3496  155.4787 H   0  0  0  0  0  0  0  0  0  0  0  0  # atno 8009 bound_to 7997
  155.9659  140.1132  157.0845 H   0  0  0  0  0  0  0  0  0  0  0  0  # atno 8010 bound_to 7997
  140.2626  143.3397  152.0611 H   0  0  0  0  0  0  0  0  0  0  0  0  # atno 10167 bound_to 10162
  156.9611  131.0061  151.2927 H   0  0  0  0  0  0  0  0  0  0  0  0  # atno 10718 bound_to 10713
  154.3456  135.6147  153.5618 H   0  0  0  0  0  0  0  0  0  0  0  0  # atno 10763 bound_to 10752
  152.9801  135.5780  154.4802 H   0  0  0  0  0  0  0  0  0  0  0  0  # atno 10764 bound_to 10752
  154.4514  135.2853  155.1755 H   0  0  0  0  0  0  0  0  0  0  0  0  # atno 10765 bound_to 10752
  140.7572  133.8544  155.9094 H   0  0  0  0  0  0  0  0  0  0  0  0  # atno 11005 bound_to 11000
  144.6954  140.3406  143.7200 LP  0  0  0  0  0  0  0  0  0  0  0  0  # atno 17320 bound_to 7965
  145.7335  139.1743  143.2416 LP  0  0  0  0  0  0  0  0  0  0  0  0  # atno 17321 bound_to 7965
  139.5012  144.6709  151.6246 LP  0  0  0  0  0  0  0  0  0  0  0  0  # atno 17342 bound_to 10162
  140.5954  143.9706  150.6351 LP  0  0  0  0  0  0  0  0  0  0  0  0  # atno 17343 bound_to 10162
  157.5657  130.8276  149.8324 LP  0  0  0  0  0  0  0  0  0  0  0  0  # atno 17370 bound_to 10713
  156.0322  130.3761  150.1658 LP  0  0  0  0  0  0  0  0  0  0  0  0  # atno 17371 bound_to 10713
  140.9697  134.1548  157.4587 LP  0  0  0  0  0  0  0  0  0  0  0  0  # atno 17394 bound_to 11000
  139.8777  134.9974  156.5845 LP  0  0  0  0  0  0  0  0  0  0  0  0  # atno 17395 bound_to 11000

$$$$
