AV-unprocessed.smi:1888|AV-procd|sdf|7658|dock10
  -GOLD-   22720 9393D 1   1.00000     0.00000
 Structure written by MMmdl.
 43 45  0  0  0  0  0  0  0  0  2 V2000
  147.8949  141.5992  154.2803 C   0  0  0  0  0  0  0  0  0  0  0  0
  148.6085  140.2456  154.2570 C   0  0  0  0  0  0  0  0  0  0  0  0
  149.9390  140.4197  154.7135 O   0  0  0  0  0  0  0  0  0  0  0  0
  150.0154  140.5942  156.1180 C   0  0  0  0  0  0  0  0  0  0  0  0
  151.4512  140.9866  156.4895 C   0  0  0  0  0  0  0  0  0  0  0  0
  151.9861  140.1444  157.5541 N   0  0  0  0  0  0  0  0  0  0  0  0
  152.3413  140.5208  158.8090 C   0  0  0  0  0  0  0  0  0  0  0  0
  152.2240  141.8606  159.2360 N   0  0  0  0  0  0  0  0  0  0  0  0
  151.3834  142.7056  158.6002 N   0  0  0  0  0  0  0  0  0  0  0  0
  151.5129  143.8573  159.2371 C   0  0  0  0  0  0  0  0  0  0  0  0
  150.7008  145.0387  158.7957 C   0  0  0  0  0  0  0  0  0  0  0  0
  152.4575  143.7826  160.2987 C   0  0  0  0  0  0  0  0  0  0  0  0
  152.8966  142.4888  160.2679 C   0  0  0  0  0  0  0  0  0  0  0  0
  153.8910  141.7845  161.1314 C   0  0  0  0  0  0  0  0  0  0  0  0
  152.7799  139.5329  159.5916 N   0  0  0  0  0  0  0  0  0  0  0  0
  152.7102  138.4290  158.7529 C   0  0  0  0  0  0  0  0  0  0  0  0
  152.2393  138.7710  157.5230 C   0  0  0  0  0  0  0  0  0  0  0  0
  152.0542  137.8115  156.4135 C   0  0  0  0  0  0  0  0  0  0  0  0
  151.6289  138.1807  155.3209 O   0  0  0  0  0  0  0  0  0  0  0  0
  152.4086  136.5363  156.7701 N   0  5  0  0  0  0  0  0  0  0  0  0
  152.8871  136.1427  158.0018 C   0  0  0  0  0  0  0  0  0  0  0  0
  153.1835  134.9710  158.2398 O   0  0  0  0  0  0  0  0  0  0  0  0
  153.0427  137.0689  159.0002 N   0  0  0  0  0  0  0  0  0  0  0  0
  153.5466  136.6781  160.3199 C   0  0  0  0  0  0  0  0  0  0  0  0
  146.8672  141.5036  153.9297 H   0  0  0  0  0  0  0  0  0  0  0  0
  148.4023  142.3200  153.6387 H   0  0  0  0  0  0  0  0  0  0  0  0
  147.8677  142.0088  155.2902 H   0  0  0  0  0  0  0  0  0  0  0  0
  148.0804  139.5357  154.8957 H   0  0  0  0  0  0  0  0  0  0  0  0
  148.6087  139.8424  153.2432 H   0  0  0  0  0  0  0  0  0  0  0  0
  149.3150  141.3668  156.4379 H   0  0  0  0  0  0  0  0  0  0  0  0
  149.7344  139.6691  156.6228 H   0  0  0  0  0  0  0  0  0  0  0  0
  152.0958  140.9136  155.6135 H   0  0  0  0  0  0  0  0  0  0  0  0
  151.4995  142.0297  156.8004 H   0  0  0  0  0  0  0  0  0  0  0  0
  150.8502  145.8900  159.4600 H   0  0  0  0  0  0  0  0  0  0  0  0
  149.6359  144.8044  158.7921 H   0  0  0  0  0  0  0  0  0  0  0  0
  150.9779  145.3505  157.7886 H   0  0  0  0  0  0  0  0  0  0  0  0
  152.7651  144.5614  160.9807 H   0  0  0  0  0  0  0  0  0  0  0  0
  154.2031  142.4168  161.9625 H   0  0  0  0  0  0  0  0  0  0  0  0
  154.7795  141.5175  160.5590 H   0  0  0  0  0  0  0  0  0  0  0  0
  153.4672  140.8695  161.5461 H   0  0  0  0  0  0  0  0  0  0  0  0
  154.5442  136.2463  160.2343 H   0  0  0  0  0  0  0  0  0  0  0  0
  152.8902  135.9349  160.7743 H   0  0  0  0  0  0  0  0  0  0  0  0
  153.6147  137.5179  161.0107 H   0  0  0  0  0  0  0  0  0  0  0  0
  1  2  1  0  0  0  0
  1 25  1  0  0  0  0
  1 26  1  0  0  0  0
  1 27  1  0  0  0  0
  2  3  1  0  0  0  0
  2 28  1  0  0  0  0
  2 29  1  0  0  0  0
  3  4  1  0  0  0  0
  4  5  1  0  0  0  0
  4 30  1  0  0  0  0
  4 31  1  0  0  0  0
  5  6  1  0  0  0  0
  5 32  1  0  0  0  0
  5 33  1  0  0  0  0
  6 17  1  0  0  0  0
  6  7  1  0  0  0  0
  7  8  1  0  0  0  0
  7 15  2  0  0  0  0
  8 13  1  0  0  0  0
  8  9  1  0  0  0  0
  9 10  2  0  0  0  0
 10 11  1  0  0  0  0
 10 12  1  0  0  0  0
 11 34  1  0  0  0  0
 11 35  1  0  0  0  0
 11 36  1  0  0  0  0
 12 13  2  0  0  0  0
 12 37  1  0  0  0  0
 13 14  1  0  0  0  0
 14 38  1  0  0  0  0
 14 39  1  0  0  0  0
 14 40  1  0  0  0  0
 15 16  1  0  0  0  0
 16 23  1  0  0  0  0
 16 17  2  0  0  0  0
 17 18  1  0  0  0  0
 18 19  2  0  0  0  0
 18 20  1  0  0  0  0
 20 21  1  0  0  0  0
 21 22  2  0  0  0  0
 21 23  1  0  0  0  0
 23 24  1  0  0  0  0
 24 41  1  0  0  0  0
 24 42  1  0  0  0  0
 24 43  1  0  0  0  0
M  CHG  1  20  -1
M  END
> <s_m_source_file>
AV-unprocessed.smi

> <i_m_source_file_index>
1888

> <i_lp_mmshare_version>
43012

> <i_f3d_flags>
0

> <s_epik_input>
W0NIM11uMWMoPU8pW25IXWMoPU8pYyhjMTIpbihbQ0gyXVtDSDJdT1tDSDJdW0NIM10pYyhuMiktbjNuYyhbQ0gzXSlbY0hdYzNbQ0gzXQ==

> <s_epik_cmdline>
J2VwaWtfcHl0aG9uJywgJy1waCcsICc3LjAnLCAnLXRuJywgJzgnLCAnLW1hJywgJzIwMCcsICctbWV0YWxfYmluZGluZycsICctaW1hZScsICc8aW5maWxlLm1hZT4nLCAnLW9tYWUnLCAnPG91dGZpbGUubWFlPic=

> <r_lp_tautomer_probability>
1

> <r_epik_Ionization_Penalty>
3.99912

> <r_epik_Ionization_Penalty_Charging>
0.0169474

> <r_epik_Ionization_Penalty_Neutral>
3.98217

> <r_epik_State_Penalty>
3.98062

> <r_epik_Charging_Adjusted_Penalty>
3.99756

> <i_epik_Tot_Q>
-1

> <i_epik_Tot_abs_Q>
1

> <r_epik_Metal_State_Penalty>
0.61592

> <b_epik_Metal_Only>
1

> <s_lp_Force_Field>
OPLS_2005

> <r_lp_Energy>
30.4579

> <b_lp_Chiralities_Consistent>
1

> <s_lp_Variant>
AV-unprocessed.smi:1888-2

> <Gold.Version>
5.8.1

> <Gold.Id.Protein>
6NUR|6NUR_protein|mol2

> <Gold.PLP.Fitness>
49.5124

> <Gold.PLP.PLP>
-41.1401

> <Gold.PLP.part.hbond>
-3.0000

> <Gold.PLP.part.metal>
0.0000

> <Gold.PLP.part.buried>
-4.9730

> <Gold.PLP.part.nonpolar>
-33.7318

> <Gold.PLP.part.repulsive>
0.1469

> <Gold.PLP.ligand.clash>
0.9784

> <Gold.PLP.ligand.torsion>
0.6672

> <Gold.PLP.Chemscore.Hbond>
3.3804

> <Gold.PLP.Chemscore.CHOScore>
0.0000

> <Gold.PLP.Chemscore.Metal>
0.0000

> <Gold.Chemscore.Hbonds>
donor molecule, donor type, donor heavy atom, donor atom, acceptor molecule, acceptor atom, score
      P1  H  6896  6909       L1    22  0.34
      P1  H  7989  7998       L1     3  0.71
      P1  H 10752 10764       L1    20  1.33

> <Gold.PLP.Chemscore.Internal.Correction>
0.5439

> <Gold.Rescore>
     Score         DG    S(hbond)    S(metal)    S(lipo)     H(rot)  DE(clash)    DE(int)     intcor
     14.25     -19.48       2.24        0.00      92.09       1.67       0.72       4.51       ----

> <Gold.Chemscore.Fitness>
14.2522

> <Gold.Chemscore.DG>
-19.4828

> <Gold.Chemscore.ZeroCoef>
-5.4800

> <Gold.Chemscore.Hbond>
2.2446

> <Gold.Chemscore.Metal>
0.0000

> <Gold.Chemscore.Lipo>
92.0909

> <Gold.Chemscore.Internal_Hbond>
0.0000

> <Gold.Chemscore.DEClash>
0.7165

> <Gold.Chemscore.DEInternal>
4.5140

> <Gold.Chemscore.Rot>
1.6675

> <Gold.Chemscore.Internal.Correction>
   9.000000E+99

> <Gold.Chemscore.Hbonds>
donor molecule, donor type, donor heavy atom, donor atom, acceptor molecule, acceptor atom, score
      P1  H  6896  6909       L1    22  0.32
      P1  H  7989  7998       L1     3  0.67
      P1  H 10752 10764       L1    20  0.30

> <Gold.Chemscore.Hbond.Weighted>
-7.4970

> <Gold.Chemscore.Metal.Weighted>
-0.0000

> <Gold.Chemscore.Lipo.Weighted>
-10.7746

> <Gold.Chemscore.Internal_Hbond.Weighted>
0.0000

> <Gold.Chemscore.DEClash.Weighted>
0.7165

> <Gold.Chemscore.DEInternal.Weighted>
4.5140

> <Gold.Chemscore.Rot.Weighted>
4.2689

> <Gold.Chemscore.Internal.Correction.Weighted>
   9.000000E+99

> <Gold.Protein.RotatedTorsions>
[ 6907 6896 6895 6894 ] final -154.81 input  -60.11 | X-H torsion
[ 7974 7965 7964 7962 ] final -140.54 input  175.53 | X-H torsion
[ 8008 7997 7996 7995 ] final  -54.53 input   59.86 | X-H torsion
[ 10167 10162 10161 10158 ] final  -25.62 input  -65.29 | X-H torsion
[ 10718 10713 10712 10709 ] final  -34.15 input   66.30 | X-H torsion
[ 10763 10752 10751 10750 ] final    0.30 input  -60.55 | X-H torsion
[ 11005 11000 10999 10996 ] final   30.64 input  -57.11 | X-H torsion

> <Gold.Protein.ActiveResidues>
 VAL166  LYS551  ARG553  GLY616  TRP617  ASP618  TYR619  PRO620  LYS621  CYS622 
 ASP623  PHE694  ASN695  SER759  ASP760  ASP761  ALA762  ILE779  LEU786  VAL792 
 PHE793  MET794  SER795  GLU796  ALA797  LYS798  CYS799  TRP800  GLU811  SER814 

> <Gold.Protein.RotatedAtoms>
  151.2631  133.4292  159.2616 H   0  0  0  0  0  0  0  0  0  0  0  0  # atno 6907 bound_to 6896
  151.0513  134.9675  159.8223 H   0  0  0  0  0  0  0  0  0  0  0  0  # atno 6908 bound_to 6896
  152.5383  134.2585  159.8979 H   0  0  0  0  0  0  0  0  0  0  0  0  # atno 6909 bound_to 6896
  144.8589  140.6188  143.5341 H   0  0  0  0  0  0  0  0  0  0  0  0  # atno 7974 bound_to 7965
  154.4166  140.1174  156.5331 H   0  0  0  0  0  0  0  0  0  0  0  0  # atno 8008 bound_to 7997
  155.6585  140.3496  155.4755 H   0  0  0  0  0  0  0  0  0  0  0  0  # atno 8009 bound_to 7997
  155.9733  140.1145  157.0782 H   0  0  0  0  0  0  0  0  0  0  0  0  # atno 8010 bound_to 7997
  140.7286  143.4249  151.0893 H   0  0  0  0  0  0  0  0  0  0  0  0  # atno 10167 bound_to 10162
  156.3540  130.4313  149.7680 H   0  0  0  0  0  0  0  0  0  0  0  0  # atno 10718 bound_to 10713
  153.3224  135.6970  153.7019 H   0  0  0  0  0  0  0  0  0  0  0  0  # atno 10763 bound_to 10752
  153.5854  135.3490  155.2891 H   0  0  0  0  0  0  0  0  0  0  0  0  # atno 10764 bound_to 10752
  154.8600  135.4305  154.2391 H   0  0  0  0  0  0  0  0  0  0  0  0  # atno 10765 bound_to 10752
  140.2923  134.2851  155.7773 H   0  0  0  0  0  0  0  0  0  0  0  0  # atno 11005 bound_to 11000
  145.4351  139.1543  143.4001 LP  0  0  0  0  0  0  0  0  0  0  0  0  # atno 17320 bound_to 7965
  146.2845  140.4469  142.8763 LP  0  0  0  0  0  0  0  0  0  0  0  0  # atno 17321 bound_to 7965
  139.7899  143.8234  152.3150 LP  0  0  0  0  0  0  0  0  0  0  0  0  # atno 17342 bound_to 10162
  139.8214  144.7294  150.9568 LP  0  0  0  0  0  0  0  0  0  0  0  0  # atno 17343 bound_to 10162
  156.4869  130.8067  151.3079 LP  0  0  0  0  0  0  0  0  0  0  0  0  # atno 17370 bound_to 10713
  157.7465  130.9988  150.2865 LP  0  0  0  0  0  0  0  0  0  0  0  0  # atno 17371 bound_to 10713
  141.2144  133.7593  156.9643 LP  0  0  0  0  0  0  0  0  0  0  0  0  # atno 17394 bound_to 11000
  140.1184  134.9432  157.2168 LP  0  0  0  0  0  0  0  0  0  0  0  0  # atno 17395 bound_to 11000

$$$$
