AV-unprocessed.smi:256|AV-procd|sdf|1957|dock1
  -GOLD-   2262021103D 1   1.00000     0.00000
 Structure written by MMmdl.
 62 65  0  0  0  0  0  0  0  0  2 V2000
  146.3199  137.5813  153.2197 C   0  0  0  0  0  0  0  0  0  0  0  0
  146.2502  136.5973  154.3977 C   0  0  0  0  0  0  0  0  0  0  0  0
  147.6271  136.1739  154.9771 C   0  0  2  0  0  0  0  0  0  0  0  0
  148.5735  137.3968  155.0695 C   0  0  0  0  0  0  0  0  0  0  0  0
  149.9011  137.0315  155.5544 N   0  0  0  0  0  0  0  0  0  0  0  0
  150.6695  138.0393  156.0487 C   0  0  0  0  0  0  0  0  0  0  0  0
  151.7783  137.6886  156.7517 N   0  0  0  0  0  0  0  0  0  0  0  0
  152.5903  138.6221  157.2549 C   0  0  0  0  0  0  0  0  0  0  0  0
  152.4846  139.9484  157.1751 N   0  0  0  0  0  0  0  0  0  0  0  0
  151.3724  140.3145  156.4771 C   0  0  0  0  0  0  0  0  0  0  0  0
  150.4196  139.4365  155.8822 C   0  0  0  0  0  0  0  0  0  0  0  0
  149.4255  140.1870  155.2612 N   0  0  0  0  0  0  0  0  0  0  0  0
  149.7765  141.4266  155.4643 C   0  0  0  0  0  0  0  0  0  0  0  0
  150.9291  141.5951  156.1955 N   0  0  0  0  0  0  0  0  0  0  0  0
  151.5455  142.8586  156.5707 C   0  0  0  0  0  0  0  0  0  0  0  0
  151.3269  143.2555  158.0523 C   0  0  0  0  0  0  0  0  0  0  0  0
  149.9864  142.9467  158.3913 O   0  0  0  0  0  0  0  0  0  0  0  0
  152.2625  142.4375  158.9656 C   0  0  0  0  0  0  0  0  0  0  0  0
  152.2135  142.9139  160.4280 C   0  0  0  0  0  0  0  0  0  0  0  0
  152.5093  144.3034  160.4959 O   0  0  0  0  0  0  0  0  0  0  0  0
  151.5541  145.1023  159.8089 C   0  0  0  0  0  0  0  0  0  0  0  0
  151.5573  144.7613  158.3077 C   0  0  0  0  0  0  0  0  0  0  0  0
  150.5384  135.9440  154.8302 C   0  0  0  0  0  0  0  0  0  0  0  0
  149.6159  134.7224  154.7615 C   0  0  0  0  0  0  0  0  0  0  0  0
  148.2753  135.0602  154.2048 N   0  3  1  0  0  0  0  0  0  0  0  0
  147.4070  133.8556  154.0351 C   0  0  0  0  0  0  0  0  0  0  0  0
  147.9509  132.7999  153.0535 C   0  0  0  0  0  0  0  0  0  0  0  0
  146.9455  131.8404  152.7692 O   0  0  0  0  0  0  0  0  0  0  0  0
  146.1154  132.2253  151.6875 C   0  0  0  0  0  0  0  0  0  0  0  0
  145.3224  137.9334  152.9559 H   0  0  0  0  0  0  0  0  0  0  0  0
  146.7415  137.1205  152.3266 H   0  0  0  0  0  0  0  0  0  0  0  0
  146.9218  138.4553  153.4700 H   0  0  0  0  0  0  0  0  0  0  0  0
  145.6601  137.1003  155.1619 H   0  0  0  0  0  0  0  0  0  0  0  0
  145.6843  135.7148  154.0972 H   0  0  0  0  0  0  0  0  0  0  0  0
  147.4612  135.8060  155.9914 H   0  0  0  0  0  0  0  0  0  0  0  0
  148.6815  137.8608  154.0881 H   0  0  0  0  0  0  0  0  0  0  0  0
  148.1302  138.1474  155.7222 H   0  0  0  0  0  0  0  0  0  0  0  0
  153.4482  138.2541  157.7981 H   0  0  0  0  0  0  0  0  0  0  0  0
  149.1961  142.2580  155.0914 H   0  0  0  0  0  0  0  0  0  0  0  0
  152.6121  142.8003  156.3476 H   0  0  0  0  0  0  0  0  0  0  0  0
  151.1433  143.6322  155.9154 H   0  0  0  0  0  0  0  0  0  0  0  0
  149.5524  142.6055  157.6244 H   0  0  0  0  0  0  0  0  0  0  0  0
  152.0204  141.3753  158.9096 H   0  0  0  0  0  0  0  0  0  0  0  0
  153.2885  142.5345  158.6085 H   0  0  0  0  0  0  0  0  0  0  0  0
  151.2393  142.7139  160.8764 H   0  0  0  0  0  0  0  0  0  0  0  0
  152.9501  142.3709  161.0199 H   0  0  0  0  0  0  0  0  0  0  0  0
  150.5635  144.9583  160.2425 H   0  0  0  0  0  0  0  0  0  0  0  0
  151.8096  146.1524  159.9517 H   0  0  0  0  0  0  0  0  0  0  0  0
  152.5207  145.0534  157.8879 H   0  0  0  0  0  0  0  0  0  0  0  0
  150.8045  145.3628  157.7976 H   0  0  0  0  0  0  0  0  0  0  0  0
  150.7860  136.2798  153.8222 H   0  0  0  0  0  0  0  0  0  0  0  0
  151.4692  135.6574  155.3206 H   0  0  0  0  0  0  0  0  0  0  0  0
  150.1190  133.9784  154.1465 H   0  0  0  0  0  0  0  0  0  0  0  0
  149.4948  134.2884  155.7553 H   0  0  0  0  0  0  0  0  0  0  0  0
  147.1852  133.4018  155.0021 H   0  0  0  0  0  0  0  0  0  0  0  0
  146.4568  134.1721  153.6100 H   0  0  0  0  0  0  0  0  0  0  0  0
  148.2263  133.2912  152.1188 H   0  0  0  0  0  0  0  0  0  0  0  0
  148.8547  132.3301  153.4458 H   0  0  0  0  0  0  0  0  0  0  0  0
  145.3640  131.4557  151.5104 H   0  0  0  0  0  0  0  0  0  0  0  0
  146.6943  132.3474  150.7711 H   0  0  0  0  0  0  0  0  0  0  0  0
  145.5956  133.1599  151.9018 H   0  0  0  0  0  0  0  0  0  0  0  0
  148.4420  135.4217  153.2765 H   0  0  0  0  0  0  0  0  0  0  0  0
  1  2  1  0  0  0  0
  1 30  1  0  0  0  0
  1 31  1  0  0  0  0
  1 32  1  0  0  0  0
  2  3  1  0  0  0  0
  2 33  1  0  0  0  0
  2 34  1  0  0  0  0
  3 25  1  0  0  0  0
  3  4  1  0  0  0  0
  3 35  1  0  0  0  0
  4  5  1  0  0  0  0
  4 36  1  0  0  0  0
  4 37  1  0  0  0  0
  5  6  1  0  0  0  0
  5 23  1  0  0  0  0
  6 11  1  0  0  0  0
  6  7  2  0  0  0  0
  7  8  1  0  0  0  0
  8  9  2  0  0  0  0
  8 38  1  0  0  0  0
  9 10  1  0  0  0  0
 10 14  1  0  0  0  0
 10 11  2  0  0  0  0
 11 12  1  0  0  0  0
 12 13  2  0  0  0  0
 13 14  1  0  0  0  0
 13 39  1  0  0  0  0
 14 15  1  0  0  0  0
 15 16  1  0  0  0  0
 15 40  1  0  0  0  0
 15 41  1  0  0  0  0
 16 22  1  0  0  0  0
 16 17  1  0  0  0  0
 16 18  1  0  0  0  0
 17 42  1  0  0  0  0
 18 19  1  0  0  0  0
 18 43  1  0  0  0  0
 18 44  1  0  0  0  0
 19 20  1  0  0  0  0
 19 45  1  0  0  0  0
 19 46  1  0  0  0  0
 20 21  1  0  0  0  0
 21 22  1  0  0  0  0
 21 47  1  0  0  0  0
 21 48  1  0  0  0  0
 22 49  1  0  0  0  0
 22 50  1  0  0  0  0
 23 24  1  0  0  0  0
 23 51  1  0  0  0  0
 23 52  1  0  0  0  0
 24 25  1  0  0  0  0
 24 53  1  0  0  0  0
 24 54  1  0  0  0  0
 25 26  1  0  0  0  0
 25 62  1  0  0  0  0
 26 27  1  0  0  0  0
 26 55  1  0  0  0  0
 26 56  1  0  0  0  0
 27 28  1  0  0  0  0
 27 57  1  0  0  0  0
 27 58  1  0  0  0  0
 28 29  1  0  0  0  0
 29 59  1  0  0  0  0
 29 60  1  0  0  0  0
 29 61  1  0  0  0  0
M  CHG  1  25   1
M  END
> <s_m_source_file>
AV-unprocessed.smi

> <i_m_source_file_index>
256

> <i_lp_mmshare_version>
43012

> <i_f3d_flags>
0

> <s_epik_input>
W0NIM11PW0NIMl1bQ0gyXU4xW0NIMl1bQ0gyXU4oW0NIMl1bQ0BIXTFbQ0gyXVtDSDNdKWMobltjSF1uMiljKGMyMyluW2NIXW4zW0NIMl1DNChbT0hdKVtDSDJdW0NIMl1PW0NIMl1bQ0gyXTQ=

> <s_epik_cmdline>
J2VwaWtfcHl0aG9uJywgJy1waCcsICc3LjAnLCAnLXRuJywgJzgnLCAnLW1hJywgJzIwMCcsICctbWV0YWxfYmluZGluZycsICctaW1hZScsICc8aW5maWxlLm1hZT4nLCAnLW9tYWUnLCAnPG91dGZpbGUubWFlPic=

> <r_lp_tautomer_probability>
1

> <r_epik_Ionization_Penalty>
0.233023

> <r_epik_Ionization_Penalty_Charging>
0.23295

> <r_epik_Ionization_Penalty_Neutral>
7.2493e-05

> <r_epik_State_Penalty>
0.223667

> <r_epik_Charging_Adjusted_Penalty>
0.456618

> <i_epik_Tot_Q>
1

> <i_epik_Tot_abs_Q>
1

> <r_epik_Metal_State_Penalty>
0.226879

> <b_epik_Metal_Only>
0

> <s_lp_Force_Field>
OPLS_2005

> <r_lp_Energy>
46.9599

> <b_lp_Chiralities_Consistent>
1

> <s_lp_Variant>
AV-unprocessed.smi:256-1

> <Gold.Version>
5.8.1

> <Gold.Id.Protein>
6NUR|6NUR_protein|mol2

> <Gold.PLP.Fitness>
51.2444

> <Gold.PLP.PLP>
-42.3553

> <Gold.PLP.part.hbond>
-2.0000

> <Gold.PLP.part.metal>
0.0000

> <Gold.PLP.part.buried>
-5.2432

> <Gold.PLP.part.nonpolar>
-35.6910

> <Gold.PLP.part.repulsive>
0.2515

> <Gold.PLP.ligand.clash>
0.0000

> <Gold.PLP.ligand.torsion>
1.3393

> <Gold.PLP.Chemscore.Hbond>
2.6500

> <Gold.PLP.Chemscore.CHOScore>
0.9881

> <Gold.PLP.Chemscore.Metal>
0.0000

> <Gold.Chemscore.Hbonds>
donor molecule, donor type, donor heavy atom, donor atom, acceptor molecule, acceptor atom, score
      L1  H    25    62       P1  7948  2.00
      P1  H  7997  8009       L1     9  0.55
      L1  C    13    39       P1  8028  0.98

> <Gold.PLP.Chemscore.Internal.Correction>
0.6533

> <Gold.Rescore>
     Score         DG    S(hbond)    S(metal)    S(lipo)     H(rot)  DE(clash)    DE(int)     intcor
     12.26     -17.13       1.74        0.00     107.73       2.65       2.06       2.80       ----

> <Gold.Chemscore.Fitness>
12.2642

> <Gold.Chemscore.DG>
-17.1269

> <Gold.Chemscore.ZeroCoef>
-5.4800

> <Gold.Chemscore.Hbond>
1.7416

> <Gold.Chemscore.Metal>
0.0000

> <Gold.Chemscore.Lipo>
107.7285

> <Gold.Chemscore.Internal_Hbond>
0.0000

> <Gold.Chemscore.DEClash>
2.0606

> <Gold.Chemscore.DEInternal>
2.8022

> <Gold.Chemscore.Rot>
2.6462

> <Gold.Chemscore.Internal.Correction>
   9.000000E+99

> <Gold.Chemscore.Hbonds>
donor molecule, donor type, donor heavy atom, donor atom, acceptor molecule, acceptor atom, score
      L1  H    25    62       P1  7948  0.98
      P1  H  7997  8009       L1     9  0.03

> <Gold.Chemscore.Hbond.Weighted>
-5.8169

> <Gold.Chemscore.Metal.Weighted>
-0.0000

> <Gold.Chemscore.Lipo.Weighted>
-12.6042

> <Gold.Chemscore.Internal_Hbond.Weighted>
0.0000

> <Gold.Chemscore.DEClash.Weighted>
2.0606

> <Gold.Chemscore.DEInternal.Weighted>
2.8022

> <Gold.Chemscore.Rot.Weighted>
6.7742

> <Gold.Chemscore.Internal.Correction.Weighted>
   9.000000E+99

> <Gold.Protein.RotatedTorsions>
[ 6907 6896 6895 6894 ] final   31.33 input  -60.11 | X-H torsion
[ 7974 7965 7964 7962 ] final   88.69 input  175.53 | X-H torsion
[ 8008 7997 7996 7995 ] final  175.77 input   59.86 | X-H torsion
[ 10167 10162 10161 10158 ] final   27.71 input  -65.29 | X-H torsion
[ 10718 10713 10712 10709 ] final   52.19 input   66.30 | X-H torsion
[ 10763 10752 10751 10750 ] final  110.82 input  -60.55 | X-H torsion
[ 11005 11000 10999 10996 ] final  -41.20 input  -57.11 | X-H torsion

> <Gold.Protein.ActiveResidues>
 VAL166  LYS551  ARG553  GLY616  TRP617  ASP618  TYR619  PRO620  LYS621  CYS622 
 ASP623  PHE694  ASN695  SER759  ASP760  ASP761  ALA762  ILE779  LEU786  VAL792 
 PHE793  MET794  SER795  GLU796  ALA797  LYS798  CYS799  TRP800  GLU811  SER814 

> <Gold.Protein.RotatedAtoms>
  152.0587  134.9608  160.0574 H   0  0  0  0  0  0  0  0  0  0  0  0  # atno 6907 bound_to 6896
  152.0980  133.4230  159.4582 H   0  0  0  0  0  0  0  0  0  0  0  0  # atno 6908 bound_to 6896
  150.6838  134.2713  159.4633 H   0  0  0  0  0  0  0  0  0  0  0  0  # atno 6909 bound_to 6896
  145.5423  139.2289  143.2559 H   0  0  0  0  0  0  0  0  0  0  0  0  # atno 7974 bound_to 7965
  156.0835  140.1400  156.9682 H   0  0  0  0  0  0  0  0  0  0  0  0  # atno 8008 bound_to 7997
  154.4599  140.0947  156.6912 H   0  0  0  0  0  0  0  0  0  0  0  0  # atno 8009 bound_to 7997
  155.5037  140.3451  155.4378 H   0  0  0  0  0  0  0  0  0  0  0  0  # atno 8010 bound_to 7997
  140.4915  144.0459  150.6299 H   0  0  0  0  0  0  0  0  0  0  0  0  # atno 10167 bound_to 10162
  157.5052  130.8464  149.8365 H   0  0  0  0  0  0  0  0  0  0  0  0  # atno 10718 bound_to 10713
  153.4545  135.3736  155.2303 H   0  0  0  0  0  0  0  0  0  0  0  0  # atno 10763 bound_to 10752
  154.8757  135.3894  154.3998 H   0  0  0  0  0  0  0  0  0  0  0  0  # atno 10764 bound_to 10752
  153.4563  135.7086  153.6142 H   0  0  0  0  0  0  0  0  0  0  0  0  # atno 10765 bound_to 10752
  141.0229  133.6854  156.2424 H   0  0  0  0  0  0  0  0  0  0  0  0  # atno 11005 bound_to 11000
  146.1972  140.6244  142.9118 LP  0  0  0  0  0  0  0  0  0  0  0  0  # atno 17320 bound_to 7965
  144.7570  140.5332  143.6761 LP  0  0  0  0  0  0  0  0  0  0  0  0  # atno 17321 bound_to 7965
  140.3730  143.2844  152.0257 LP  0  0  0  0  0  0  0  0  0  0  0  0  # atno 17342 bound_to 10162
  139.4852  144.6215  151.7246 LP  0  0  0  0  0  0  0  0  0  0  0  0  # atno 17343 bound_to 10162
  156.0253  130.3781  150.1840 LP  0  0  0  0  0  0  0  0  0  0  0  0  # atno 17370 bound_to 10713
  157.0030  130.9928  151.3386 LP  0  0  0  0  0  0  0  0  0  0  0  0  # atno 17371 bound_to 10713
  140.6542  134.5035  157.5579 LP  0  0  0  0  0  0  0  0  0  0  0  0  # atno 17394 bound_to 11000
  139.9157  134.8251  156.1374 LP  0  0  0  0  0  0  0  0  0  0  0  0  # atno 17395 bound_to 11000

$$$$
