AV-unprocessed.smi:561|AV-procd|sdf|2942|dock10
  -GOLD-   2262023443D 1   1.00000     0.00000
 Structure written by MMmdl.
 35 36  0  0  0  0  0  0  0  0  2 V2000
  148.0579  138.4132  157.4365 C   0  0  0  0  0  0  0  0  0  0  0  0
  149.2380  138.3822  158.4176 C   0  0  2  0  0  0  0  0  0  0  0  0
  150.5231  137.8522  157.7310 C   0  0  0  0  0  0  0  0  0  0  0  0
  150.6533  138.2272  156.3267 N   0  0  0  0  0  0  0  0  0  0  0  0
  150.6569  137.3744  155.2276 C   0  0  0  0  0  0  0  0  0  0  0  0
  150.7907  138.1674  154.1109 C   0  0  0  0  0  0  0  0  0  0  0  0
  150.8548  139.5056  154.4905 N   0  0  0  0  0  0  0  0  0  0  0  0
  150.7654  139.4630  155.8139 C   0  0  0  0  0  0  0  0  0  0  0  0
  148.8805  137.5230  159.5529 N   0  5  0  0  0  0  0  0  0  0  0  0
  148.6541  136.1752  159.4873 C   0  0  0  0  0  0  0  0  0  0  0  0
  149.0658  135.4090  158.6077 O   0  0  0  0  0  0  0  0  0  0  0  0
  147.8197  135.5345  160.5466 C   0  0  0  0  0  0  0  0  0  0  0  0
  147.5801  134.2612  160.4920 N   0  0  0  0  0  0  0  0  0  0  0  0
  146.8429  133.6073  161.4571 N   0  0  0  0  0  0  0  0  0  0  0  0
  146.8974  132.1487  161.3849 C   0  0  0  0  0  0  0  0  0  0  0  0
  146.0923  134.2230  162.4033 C   0  0  0  0  0  0  0  0  0  0  0  0
  145.4604  133.6232  163.2733 O   0  0  0  0  0  0  0  0  0  0  0  0
  146.0261  135.7505  162.3339 C   0  0  0  0  0  0  0  0  0  0  0  0
  147.2928  136.3634  161.7049 C   0  0  0  0  0  0  0  0  0  0  0  0
  148.2749  139.0599  156.5858 H   0  0  0  0  0  0  0  0  0  0  0  0
  147.1566  138.7959  157.9166 H   0  0  0  0  0  0  0  0  0  0  0  0
  147.8336  137.4188  157.0487 H   0  0  0  0  0  0  0  0  0  0  0  0
  149.4212  139.4126  158.7258 H   0  0  0  0  0  0  0  0  0  0  0  0
  151.4100  138.1973  158.2646 H   0  0  0  0  0  0  0  0  0  0  0  0
  150.5422  136.7629  157.7826 H   0  0  0  0  0  0  0  0  0  0  0  0
  150.5776  136.3026  155.3339 H   0  0  0  0  0  0  0  0  0  0  0  0
  150.8410  137.8797  153.0712 H   0  0  0  0  0  0  0  0  0  0  0  0
  150.7841  140.3519  156.4273 H   0  0  0  0  0  0  0  0  0  0  0  0
  145.8983  131.7328  161.2484 H   0  0  0  0  0  0  0  0  0  0  0  0
  147.3181  131.7349  162.3023 H   0  0  0  0  0  0  0  0  0  0  0  0
  147.5140  131.8027  160.5535 H   0  0  0  0  0  0  0  0  0  0  0  0
  145.1554  136.0121  161.7314 H   0  0  0  0  0  0  0  0  0  0  0  0
  145.8570  136.1655  163.3279 H   0  0  0  0  0  0  0  0  0  0  0  0
  148.0740  136.4619  162.4593 H   0  0  0  0  0  0  0  0  0  0  0  0
  147.0504  137.3749  161.3780 H   0  0  0  0  0  0  0  0  0  0  0  0
  1  2  1  0  0  0  0
  1 20  1  0  0  0  0
  1 21  1  0  0  0  0
  1 22  1  0  0  0  0
  2  3  1  0  0  0  0
  2  9  1  0  0  0  0
  2 23  1  0  0  0  0
  3  4  1  0  0  0  0
  3 24  1  0  0  0  0
  3 25  1  0  0  0  0
  4  8  1  0  0  0  0
  4  5  1  0  0  0  0
  5  6  2  0  0  0  0
  5 26  1  0  0  0  0
  6  7  1  0  0  0  0
  6 27  1  0  0  0  0
  7  8  2  0  0  0  0
  8 28  1  0  0  0  0
  9 10  1  0  0  0  0
 10 11  2  0  0  0  0
 10 12  1  0  0  0  0
 12 19  1  0  0  0  0
 12 13  2  0  0  0  0
 13 14  1  0  0  0  0
 14 15  1  0  0  0  0
 14 16  1  0  0  0  0
 15 29  1  0  0  0  0
 15 30  1  0  0  0  0
 15 31  1  0  0  0  0
 16 17  2  0  0  0  0
 16 18  1  0  0  0  0
 18 19  1  0  0  0  0
 18 32  1  0  0  0  0
 18 33  1  0  0  0  0
 19 34  1  0  0  0  0
 19 35  1  0  0  0  0
M  CHG  1   9  -1
M  END
> <s_m_source_file>
AV-unprocessed.smi

> <i_m_source_file_index>
561

> <i_lp_mmshare_version>
43012

> <i_f3d_flags>
0

> <s_epik_input>
W2NIXTFuW2NIXVtjSF1uMVtDSDJdW0NAQEhdKFtDSDNdKVtOSF1DKD1PKUMyPU5OKFtDSDNdKUMoPU8pW0NIMl1bQ0gyXTI=

> <s_epik_cmdline>
J2VwaWtfcHl0aG9uJywgJy1waCcsICc3LjAnLCAnLXRuJywgJzgnLCAnLW1hJywgJzIwMCcsICctbWV0YWxfYmluZGluZycsICctaW1hZScsICc8aW5maWxlLm1hZT4nLCAnLW9tYWUnLCAnPG91dGZpbGUubWFlPic=

> <r_lp_tautomer_probability>
1

> <r_epik_Ionization_Penalty>
6.06239

> <r_epik_Ionization_Penalty_Charging>
6.06239

> <r_epik_Ionization_Penalty_Neutral>
3.91387e-09

> <r_epik_State_Penalty>
5.76729

> <r_epik_Charging_Adjusted_Penalty>
11.8297

> <i_epik_Tot_Q>
-1

> <i_epik_Tot_abs_Q>
1

> <r_epik_Metal_State_Penalty>
2.02369

> <b_epik_Metal_Only>
1

> <s_epik_Chemistry_Notes>
This compound has an imine and may undergo hydrolysis.

> <s_lp_Force_Field>
OPLS_2005

> <r_lp_Energy>
24.7282

> <b_lp_Chiralities_Consistent>
1

> <s_lp_Variant>
AV-unprocessed.smi:561-7

> <Gold.Version>
5.8.1

> <Gold.Id.Protein>
6NUR|6NUR_protein|mol2

> <Gold.PLP.Fitness>
41.0595

> <Gold.PLP.PLP>
-32.3077

> <Gold.PLP.part.hbond>
-4.5080

> <Gold.PLP.part.metal>
0.0000

> <Gold.PLP.part.buried>
-5.8552

> <Gold.PLP.part.nonpolar>
-23.8610

> <Gold.PLP.part.repulsive>
0.1477

> <Gold.PLP.ligand.clash>
0.0000

> <Gold.PLP.ligand.torsion>
0.4326

> <Gold.PLP.Chemscore.Hbond>
2.1966

> <Gold.PLP.Chemscore.CHOScore>
1.0000

> <Gold.PLP.Chemscore.Metal>
0.0000

> <Gold.Chemscore.Hbonds>
donor molecule, donor type, donor heavy atom, donor atom, acceptor molecule, acceptor atom, score
      P1  H  6896  6908       L1    11  0.99
      P1  H  7989  7998       L1     7  1.00
      L1  C     6    27       P1  7948  0.16
      L1  C     6    27       P1  7949  0.88

> <Gold.PLP.Chemscore.Internal.Correction>
0.0274

> <Gold.Rescore>
     Score         DG    S(hbond)    S(metal)    S(lipo)     H(rot)  DE(clash)    DE(int)     intcor
     13.02     -13.56       2.03        0.00      47.87       1.68       0.03       0.51       ----

> <Gold.Chemscore.Fitness>
13.0173

> <Gold.Chemscore.DG>
-13.5570

> <Gold.Chemscore.ZeroCoef>
-5.4800

> <Gold.Chemscore.Hbond>
2.0288

> <Gold.Chemscore.Metal>
0.0000

> <Gold.Chemscore.Lipo>
47.8665

> <Gold.Chemscore.Internal_Hbond>
0.0000

> <Gold.Chemscore.DEClash>
0.0275

> <Gold.Chemscore.DEInternal>
0.5121

> <Gold.Chemscore.Rot>
1.6796

> <Gold.Chemscore.Internal.Correction>
   9.000000E+99

> <Gold.Chemscore.Hbonds>
donor molecule, donor type, donor heavy atom, donor atom, acceptor molecule, acceptor atom, score
      P1  H  6896  6908       L1    11  0.28
      P1  H  6931  6943       L1     9  0.01
      P1  H  7989  7998       L1     7  1.00

> <Gold.Chemscore.Hbond.Weighted>
-6.7763

> <Gold.Chemscore.Metal.Weighted>
-0.0000

> <Gold.Chemscore.Lipo.Weighted>
-5.6004

> <Gold.Chemscore.Internal_Hbond.Weighted>
0.0000

> <Gold.Chemscore.DEClash.Weighted>
0.0275

> <Gold.Chemscore.DEInternal.Weighted>
0.5121

> <Gold.Chemscore.Rot.Weighted>
4.2997

> <Gold.Chemscore.Internal.Correction.Weighted>
   9.000000E+99

> <Gold.Protein.RotatedTorsions>
[ 6907 6896 6895 6894 ] final  167.62 input  -60.11 | X-H torsion
[ 7974 7965 7964 7962 ] final   85.74 input  175.53 | X-H torsion
[ 8008 7997 7996 7995 ] final   42.10 input   59.86 | X-H torsion
[ 10167 10162 10161 10158 ] final  -69.09 input  -65.29 | X-H torsion
[ 10718 10713 10712 10709 ] final   92.80 input   66.30 | X-H torsion
[ 10763 10752 10751 10750 ] final  -97.20 input  -60.55 | X-H torsion
[ 11005 11000 10999 10996 ] final  130.72 input  -57.11 | X-H torsion

> <Gold.Protein.ActiveResidues>
 VAL166  LYS551  ARG553  GLY616  TRP617  ASP618  TYR619  PRO620  LYS621  CYS622 
 ASP623  PHE694  ASN695  SER759  ASP760  ASP761  ALA762  ILE779  LEU786  VAL792 
 PHE793  MET794  SER795  GLU796  ALA797  LYS798  CYS799  TRP800  GLU811  SER814 

> <Gold.Protein.RotatedAtoms>
  151.8605  133.3456  159.3701 H   0  0  0  0  0  0  0  0  0  0  0  0  # atno 6907 bound_to 6896
  150.7180  134.5211  159.5663 H   0  0  0  0  0  0  0  0  0  0  0  0  # atno 6908 bound_to 6896
  152.2723  134.7919  160.0463 H   0  0  0  0  0  0  0  0  0  0  0  0  # atno 6909 bound_to 6896
  145.5815  139.2326  143.2350 H   0  0  0  0  0  0  0  0  0  0  0  0  # atno 7974 bound_to 7965
  155.2805  140.3372  155.4258 H   0  0  0  0  0  0  0  0  0  0  0  0  # atno 8008 bound_to 7997
  156.2092  140.1763  156.7774 H   0  0  0  0  0  0  0  0  0  0  0  0  # atno 8009 bound_to 7997
  154.5662  140.0678  156.8880 H   0  0  0  0  0  0  0  0  0  0  0  0  # atno 8010 bound_to 7997
  140.5457  143.2313  151.7006 H   0  0  0  0  0  0  0  0  0  0  0  0  # atno 10167 bound_to 10162
  157.6957  131.0456  150.3936 H   0  0  0  0  0  0  0  0  0  0  0  0  # atno 10718 bound_to 10713
  154.7307  135.5055  153.8959 H   0  0  0  0  0  0  0  0  0  0  0  0  # atno 10763 bound_to 10752
  153.0947  135.6669  153.9794 H   0  0  0  0  0  0  0  0  0  0  0  0  # atno 10764 bound_to 10752
  153.9596  135.3049  155.3413 H   0  0  0  0  0  0  0  0  0  0  0  0  # atno 10765 bound_to 10752
  139.9688  134.9583  156.9335 H   0  0  0  0  0  0  0  0  0  0  0  0  # atno 11005 bound_to 11000
  146.1713  140.6641  142.9232 LP  0  0  0  0  0  0  0  0  0  0  0  0  # atno 17320 bound_to 7965
  144.7392  140.4894  143.6881 LP  0  0  0  0  0  0  0  0  0  0  0  0  # atno 17321 bound_to 7965
  139.5006  144.3898  152.0291 LP  0  0  0  0  0  0  0  0  0  0  0  0  # atno 17342 bound_to 10162
  140.3011  144.3645  150.6060 LP  0  0  0  0  0  0  0  0  0  0  0  0  # atno 17343 bound_to 10162
  156.4337  130.3977  149.6743 LP  0  0  0  0  0  0  0  0  0  0  0  0  # atno 17370 bound_to 10713
  156.3951  130.7647  151.2650 LP  0  0  0  0  0  0  0  0  0  0  0  0  # atno 17371 bound_to 10713
  140.5337  134.0788  155.7322 LP  0  0  0  0  0  0  0  0  0  0  0  0  # atno 17394 bound_to 11000
  141.1368  133.9207  157.2415 LP  0  0  0  0  0  0  0  0  0  0  0  0  # atno 17395 bound_to 11000

$$$$
