AV-unprocessed.smi:1400|AV-procd|sdf|5686|dock1
  -GOLD-   22720 5313D 1   1.00000     0.00000
 Structure written by MMmdl.
 34 35  0  0  0  0  0  0  0  0  1 V2000
  152.8551  142.5884  162.3827 C   0  0  0  0  0  0  0  0  0  0  0  0
  152.5190  143.4288  161.1485 C   0  0  0  0  0  0  0  0  0  0  0  0
  151.9733  144.5186  161.3220 O   0  0  0  0  0  0  0  0  0  0  0  0
  152.8358  142.9560  159.9189 N   0  0  0  0  0  0  0  0  0  0  0  0
  153.4051  141.6206  159.7038 C   0  0  0  0  0  0  0  0  0  0  0  0
  152.3431  140.7290  159.0342 C   0  0  0  0  0  0  0  0  0  0  0  0
  151.8218  141.3614  157.7254 C   0  0  0  0  0  0  0  0  0  0  0  0
  150.6769  140.6024  157.2287 N   0  0  0  0  0  0  0  0  0  0  0  0
  150.1092  140.7358  156.0208 C   0  0  0  0  0  0  0  0  0  0  0  0
  150.4985  141.5332  155.1668 O   0  0  0  0  0  0  0  0  0  0  0  0
  149.0726  139.8913  155.8781 N   0  0  0  0  0  0  0  0  0  0  0  0
  148.2151  139.7335  154.7574 C   0  0  0  0  0  0  0  0  0  0  0  0
  147.9368  138.5594  154.1788 N   0  0  0  0  0  0  0  0  0  0  0  0
  147.0655  138.7019  153.0959 C   0  0  0  0  0  0  0  0  0  0  0  0
  146.6877  140.0007  152.8623 C   0  0  0  0  0  0  0  0  0  0  0  0
  147.4152  141.1033  154.0004 S   0  0  0  0  0  0  0  0  0  0  0  0
  151.4190  142.8376  157.9298 C   0  0  0  0  0  0  0  0  0  0  0  0
  152.5306  143.6238  158.6474 C   0  0  0  0  0  0  0  0  0  0  0  0
  153.9242  142.3789  162.4295 H   0  0  0  0  0  0  0  0  0  0  0  0
  152.3081  141.6455  162.3693 H   0  0  0  0  0  0  0  0  0  0  0  0
  152.5813  143.1199  163.2948 H   0  0  0  0  0  0  0  0  0  0  0  0
  154.2852  141.7010  159.0642 H   0  0  0  0  0  0  0  0  0  0  0  0
  153.7516  141.1547  160.6271 H   0  0  0  0  0  0  0  0  0  0  0  0
  152.7591  139.7411  158.8332 H   0  0  0  0  0  0  0  0  0  0  0  0
  151.5149  140.5804  159.7290 H   0  0  0  0  0  0  0  0  0  0  0  0
  152.6377  141.3422  157.0006 H   0  0  0  0  0  0  0  0  0  0  0  0
  150.2856  139.9177  157.8590 H   0  0  0  0  0  0  0  0  0  0  0  0
  148.8703  139.2926  156.6652 H   0  0  0  0  0  0  0  0  0  0  0  0
  146.7651  137.8229  152.5450 H   0  0  0  0  0  0  0  0  0  0  0  0
  146.0284  140.3737  152.0928 H   0  0  0  0  0  0  0  0  0  0  0  0
  151.1962  143.3010  156.9680 H   0  0  0  0  0  0  0  0  0  0  0  0
  150.5033  142.8952  158.5206 H   0  0  0  0  0  0  0  0  0  0  0  0
  152.2358  144.6660  158.7605 H   0  0  0  0  0  0  0  0  0  0  0  0
  153.4293  143.6432  158.0292 H   0  0  0  0  0  0  0  0  0  0  0  0
  1  2  1  0  0  0  0
  1 19  1  0  0  0  0
  1 20  1  0  0  0  0
  1 21  1  0  0  0  0
  2  3  2  0  0  0  0
  2  4  1  0  0  0  0
  4 18  1  0  0  0  0
  4  5  1  0  0  0  0
  5  6  1  0  0  0  0
  5 22  1  0  0  0  0
  5 23  1  0  0  0  0
  6  7  1  0  0  0  0
  6 24  1  0  0  0  0
  6 25  1  0  0  0  0
  7  8  1  0  0  0  0
  7 17  1  0  0  0  0
  7 26  1  0  0  0  0
  8  9  1  0  0  0  0
  8 27  1  0  0  0  0
  9 10  2  0  0  0  0
  9 11  1  0  0  0  0
 11 12  1  0  0  0  0
 11 28  1  0  0  0  0
 12 16  1  0  0  0  0
 12 13  2  0  0  0  0
 13 14  1  0  0  0  0
 14 15  2  0  0  0  0
 14 29  1  0  0  0  0
 15 16  1  0  0  0  0
 15 30  1  0  0  0  0
 17 18  1  0  0  0  0
 17 31  1  0  0  0  0
 17 32  1  0  0  0  0
 18 33  1  0  0  0  0
 18 34  1  0  0  0  0
M  END
> <s_m_source_file>
AV-unprocessed.smi

> <i_m_source_file_index>
1400

> <i_lp_mmshare_version>
43012

> <i_f3d_flags>
0

> <s_epik_input>
W0NIM11DKD1PKU4xW0NIMl1bQ0gyXVtDSF0oW0NIMl1bQ0gyXTEpW05IXUMoPU8pW05IXWMybltjSF1bY0hdczI=

> <s_epik_cmdline>
J2VwaWtfcHl0aG9uJywgJy1waCcsICc3LjAnLCAnLXRuJywgJzgnLCAnLW1hJywgJzIwMCcsICctbWV0YWxfYmluZGluZycsICctaW1hZScsICc8aW5maWxlLm1hZT4nLCAnLW9tYWUnLCAnPG91dGZpbGUubWFlPic=

> <r_lp_tautomer_probability>
1

> <r_epik_Ionization_Penalty>
0.000151384

> <r_epik_Ionization_Penalty_Charging>
0

> <r_epik_Ionization_Penalty_Neutral>
0.000151384

> <r_epik_State_Penalty>
-0

> <r_epik_Charging_Adjusted_Penalty>
0

> <i_epik_Tot_Q>
0

> <i_epik_Tot_abs_Q>
0

> <r_epik_Metal_State_Penalty>
0.0312905

> <b_epik_Metal_Only>
0

> <s_lp_Force_Field>
OPLS_2005

> <r_lp_Energy>
21.754

> <b_lp_Chiralities_Consistent>
1

> <s_lp_Variant>
AV-unprocessed.smi:1400-1

> <Gold.Version>
5.8.1

> <Gold.Id.Protein>
6NUR|6NUR_protein|mol2

> <Gold.PLP.Fitness>
38.6757

> <Gold.PLP.PLP>
-34.0537

> <Gold.PLP.part.hbond>
-1.0000

> <Gold.PLP.part.metal>
0.0000

> <Gold.PLP.part.buried>
-1.2160

> <Gold.PLP.part.nonpolar>
-32.9412

> <Gold.PLP.part.repulsive>
0.6754

> <Gold.PLP.ligand.clash>
0.0000

> <Gold.PLP.ligand.torsion>
0.5482

> <Gold.PLP.Chemscore.Hbond>
0.4640

> <Gold.PLP.Chemscore.CHOScore>
1.4366

> <Gold.PLP.Chemscore.Metal>
0.0000

> <Gold.Chemscore.Hbonds>
donor molecule, donor type, donor heavy atom, donor atom, acceptor molecule, acceptor atom, score
      P1  H  7989  7998       L1    10  0.36
      L1  C    14    29       P1  7948  0.25
      L1  C    15    30       P1 10175  0.83

> <Gold.PLP.Chemscore.Internal.Correction>
0.0165

> <Gold.Rescore>
     Score         DG    S(hbond)    S(metal)    S(lipo)     H(rot)  DE(clash)    DE(int)     intcor
     13.73     -14.43       0.64        0.00      80.18       1.00       0.33       0.38       ----

> <Gold.Chemscore.Fitness>
13.7256

> <Gold.Chemscore.DG>
-14.4329

> <Gold.Chemscore.ZeroCoef>
-5.4800

> <Gold.Chemscore.Hbond>
0.6384

> <Gold.Chemscore.Metal>
0.0000

> <Gold.Chemscore.Lipo>
80.1773

> <Gold.Chemscore.Internal_Hbond>
0.0000

> <Gold.Chemscore.DEClash>
0.3269

> <Gold.Chemscore.DEInternal>
0.3803

> <Gold.Chemscore.Rot>
1.0000

> <Gold.Chemscore.Internal.Correction>
   9.000000E+99

> <Gold.Chemscore.Hbonds>
donor molecule, donor type, donor heavy atom, donor atom, acceptor molecule, acceptor atom, score
      P1  H  7989  7998       L1    10  0.35

> <Gold.Chemscore.Hbond.Weighted>
-2.1321

> <Gold.Chemscore.Metal.Weighted>
-0.0000

> <Gold.Chemscore.Lipo.Weighted>
-9.3807

> <Gold.Chemscore.Internal_Hbond.Weighted>
0.0000

> <Gold.Chemscore.DEClash.Weighted>
0.3269

> <Gold.Chemscore.DEInternal.Weighted>
0.3803

> <Gold.Chemscore.Rot.Weighted>
2.5600

> <Gold.Chemscore.Internal.Correction.Weighted>
   9.000000E+99

> <Gold.Protein.RotatedTorsions>
[ 6907 6896 6895 6894 ] final -120.72 input  -60.11 | X-H torsion
[ 7974 7965 7964 7962 ] final   22.06 input  175.53 | X-H torsion
[ 8008 7997 7996 7995 ] final -156.26 input   59.86 | X-H torsion
[ 10167 10162 10161 10158 ] final -138.81 input  -65.29 | X-H torsion
[ 10718 10713 10712 10709 ] final  -86.54 input   66.30 | X-H torsion
[ 10763 10752 10751 10750 ] final   82.57 input  -60.55 | X-H torsion
[ 11005 11000 10999 10996 ] final   89.18 input  -57.11 | X-H torsion

> <Gold.Protein.ActiveResidues>
 VAL166  LYS551  ARG553  GLY616  TRP617  ASP618  TYR619  PRO620  LYS621  CYS622 
 ASP623  PHE694  ASN695  SER759  ASP760  ASP761  ALA762  ILE779  LEU786  VAL792 
 PHE793  MET794  SER795  GLU796  ALA797  LYS798  CYS799  TRP800  GLU811  SER814 

> <Gold.Protein.RotatedAtoms>
  150.8418  133.7923  159.3057 H   0  0  0  0  0  0  0  0  0  0  0  0  # atno 6907 bound_to 6896
  151.5622  135.1063  159.9985 H   0  0  0  0  0  0  0  0  0  0  0  0  # atno 6908 bound_to 6896
  152.4480  133.7532  159.6762 H   0  0  0  0  0  0  0  0  0  0  0  0  # atno 6909 bound_to 6896
  146.2045  139.7938  142.8736 H   0  0  0  0  0  0  0  0  0  0  0  0  # atno 7974 bound_to 7965
  155.7144  140.0782  157.2357 H   0  0  0  0  0  0  0  0  0  0  0  0  # atno 8008 bound_to 7997
  154.4054  140.1624  156.2386 H   0  0  0  0  0  0  0  0  0  0  0  0  # atno 8009 bound_to 7997
  155.9253  140.3395  155.6208 H   0  0  0  0  0  0  0  0  0  0  0  0  # atno 8010 bound_to 7997
  139.8441  143.7283  152.2662 H   0  0  0  0  0  0  0  0  0  0  0  0  # atno 10167 bound_to 10162
  155.9989  130.4768  150.4730 H   0  0  0  0  0  0  0  0  0  0  0  0  # atno 10718 bound_to 10713
  153.1215  135.4723  154.9202 H   0  0  0  0  0  0  0  0  0  0  0  0  # atno 10763 bound_to 10752
  154.7579  135.3123  154.8436 H   0  0  0  0  0  0  0  0  0  0  0  0  # atno 10764 bound_to 10752
  153.9000  135.6876  153.4809 H   0  0  0  0  0  0  0  0  0  0  0  0  # atno 10765 bound_to 10752
  139.8880  134.8535  156.3106 H   0  0  0  0  0  0  0  0  0  0  0  0  # atno 11005 bound_to 11000
  145.3369  141.0279  143.3415 LP  0  0  0  0  0  0  0  0  0  0  0  0  # atno 17320 bound_to 7965
  144.8759  139.4971  143.6745 LP  0  0  0  0  0  0  0  0  0  0  0  0  # atno 17321 bound_to 7965
  139.7530  144.7529  151.0478 LP  0  0  0  0  0  0  0  0  0  0  0  0  # atno 17342 bound_to 10162
  140.7795  143.4838  150.9982 LP  0  0  0  0  0  0  0  0  0  0  0  0  # atno 17343 bound_to 10162
  157.2743  131.0593  151.2239 LP  0  0  0  0  0  0  0  0  0  0  0  0  # atno 17370 bound_to 10713
  157.3309  130.6984  149.6324 LP  0  0  0  0  0  0  0  0  0  0  0  0  # atno 17371 bound_to 10713
  140.9853  133.7242  156.0732 LP  0  0  0  0  0  0  0  0  0  0  0  0  # atno 17394 bound_to 11000
  140.7697  134.3847  157.5510 LP  0  0  0  0  0  0  0  0  0  0  0  0  # atno 17395 bound_to 11000

$$$$
