AV-unprocessed.smi:288|AV-procd|sdf|2212|dock6
  -GOLD-   2262022 43D 1   1.00000     0.00000
 Structure written by MMmdl.
 33 34  0  0  0  0  0  0  0  0  1 V2000
  153.2454  136.0971  160.1711 O   0  0  0  0  0  0  0  0  0  0  0  0
  153.3777  137.3194  160.2540 C   0  0  0  0  0  0  0  0  0  0  0  0
  153.8868  137.9916  161.4448 C   0  0  0  0  0  0  0  0  0  0  0  0
  154.2134  137.2663  162.5279 F   0  0  0  0  0  0  0  0  0  0  0  0
  154.0382  139.3334  161.4786 C   0  0  0  0  0  0  0  0  0  0  0  0
  153.7295  140.1558  160.4070 N   0  0  0  0  0  0  0  0  0  0  0  0
  153.9175  141.6569  160.4648 C   0  0  1  0  0  0  0  0  0  0  0  0
  152.6264  142.3800  160.0392 C   0  0  0  0  0  0  0  0  0  0  0  0
  152.4170  143.3753  161.1624 C   0  0  0  0  0  0  0  0  0  0  0  0
  153.0373  142.6477  162.3456 C   0  0  0  0  0  0  0  0  0  0  0  0
  154.1966  142.0515  161.7783 O   0  0  0  0  0  0  0  0  0  0  0  0
  153.2313  139.5905  159.2132 C   0  0  0  0  0  0  0  0  0  0  0  0
  152.9698  140.3012  158.2396 O   0  0  0  0  0  0  0  0  0  0  0  0
  153.0555  138.1868  159.1821 N   0  0  0  0  0  0  0  0  0  0  0  0
  152.5458  137.5958  157.9556 C   0  0  0  0  0  0  0  0  0  0  0  0
  153.3780  137.9650  156.7067 C   0  0  1  0  0  0  0  0  0  0  0  0
  154.0589  136.8083  156.2595 O   0  0  0  0  0  0  0  0  0  0  0  0
  152.5015  138.4769  155.5469 C   0  0  0  0  0  0  0  0  0  0  0  0
  153.2514  138.7049  154.4682 F   0  0  0  0  0  0  0  0  0  0  0  0
  151.5427  137.5992  155.2479 F   0  0  0  0  0  0  0  0  0  0  0  0
  151.9295  139.6290  155.8978 F   0  0  0  0  0  0  0  0  0  0  0  0
  154.4224  139.7631  162.3907 H   0  0  0  0  0  0  0  0  0  0  0  0
  154.7812  141.8746  159.8340 H   0  0  0  0  0  0  0  0  0  0  0  0
  152.7433  142.8486  159.0617 H   0  0  0  0  0  0  0  0  0  0  0  0
  151.7949  141.6743  159.9984 H   0  0  0  0  0  0  0  0  0  0  0  0
  152.9677  144.2944  160.9578 H   0  0  0  0  0  0  0  0  0  0  0  0
  151.3685  143.6299  161.3190 H   0  0  0  0  0  0  0  0  0  0  0  0
  153.2913  143.3167  163.1678 H   0  0  0  0  0  0  0  0  0  0  0  0
  152.3634  141.8772  162.7229 H   0  0  0  0  0  0  0  0  0  0  0  0
  152.4545  136.5169  158.0933 H   0  0  0  0  0  0  0  0  0  0  0  0
  151.5135  137.9354  157.8585 H   0  0  0  0  0  0  0  0  0  0  0  0
  154.1162  138.7304  156.9502 H   0  0  0  0  0  0  0  0  0  0  0  0
  154.3539  136.3219  157.0143 H   0  0  0  0  0  0  0  0  0  0  0  0
  1  2  2  0  0  0  0
  2 14  1  0  0  0  0
  2  3  1  0  0  0  0
  3  4  1  0  0  0  0
  3  5  2  0  0  0  0
  5  6  1  0  0  0  0
  5 22  1  0  0  0  0
  6  7  1  0  0  0  0
  6 12  1  0  0  0  0
  7 11  1  0  0  0  0
  7  8  1  0  0  0  0
  7 23  1  0  0  0  0
  8  9  1  0  0  0  0
  8 24  1  0  0  0  0
  8 25  1  0  0  0  0
  9 10  1  0  0  0  0
  9 26  1  0  0  0  0
  9 27  1  0  0  0  0
 10 11  1  0  0  0  0
 10 28  1  0  0  0  0
 10 29  1  0  0  0  0
 12 13  2  0  0  0  0
 12 14  1  0  0  0  0
 14 15  1  0  0  0  0
 15 16  1  0  0  0  0
 15 30  1  0  0  0  0
 15 31  1  0  0  0  0
 16 17  1  0  0  0  0
 16 18  1  0  0  0  0
 16 32  1  0  0  0  0
 17 33  1  0  0  0  0
 18 19  1  0  0  0  0
 18 20  1  0  0  0  0
 18 21  1  0  0  0  0
M  END
> <s_m_source_file>
AV-unprocessed.smi

> <i_m_source_file_index>
288

> <i_lp_mmshare_version>
43012

> <i_f3d_flags>
0

> <s_epik_input>
TzFbQ0gyXVtDSDJdW0NIMl1bQ0BIXTFuKFtjSF1jKEYpYzI9TyljKD1PKW4yW0NIMl1bQ0BIXShbT0hdKUMoRikoRilG

> <s_epik_cmdline>
J2VwaWtfcHl0aG9uJywgJy1waCcsICc3LjAnLCAnLXRuJywgJzgnLCAnLW1hJywgJzIwMCcsICctbWV0YWxfYmluZGluZycsICctaW1hZScsICc8aW5maWxlLm1hZT4nLCAnLW9tYWUnLCAnPG91dGZpbGUubWFlPic=

> <r_lp_tautomer_probability>
1

> <r_epik_Ionization_Penalty>
0.000551119

> <r_epik_Ionization_Penalty_Charging>
2.51184e-08

> <r_epik_Ionization_Penalty_Neutral>
0.000551094

> <r_epik_State_Penalty>
0.000345115

> <r_epik_Charging_Adjusted_Penalty>
0.00034514

> <i_epik_Tot_Q>
0

> <i_epik_Tot_abs_Q>
0

> <r_epik_Metal_State_Penalty>
-0

> <b_epik_Metal_Only>
0

> <s_epik_Chemistry_Notes>
This compound contains an acetal/aminal-like group ( X-CH(R)-Y where X, Y are N, S, or O) that may be acid/base labile, releasing an aldehyde.

> <s_lp_Force_Field>
OPLS_2005

> <r_lp_Energy>
35.613

> <b_lp_Chiralities_Consistent>
1

> <s_lp_Variant>
AV-unprocessed.smi:288-4

> <Gold.Version>
5.8.1

> <Gold.Id.Protein>
6NUR|6NUR_protein|mol2

> <Gold.PLP.Fitness>
47.3195

> <Gold.PLP.PLP>
-42.2984

> <Gold.PLP.part.hbond>
-3.6963

> <Gold.PLP.part.metal>
0.0000

> <Gold.PLP.part.buried>
-1.5352

> <Gold.PLP.part.nonpolar>
-36.0076

> <Gold.PLP.part.repulsive>
0.0000

> <Gold.PLP.ligand.clash>
0.0000

> <Gold.PLP.ligand.torsion>
0.9184

> <Gold.PLP.Chemscore.Hbond>
2.2800

> <Gold.PLP.Chemscore.CHOScore>
0.0000

> <Gold.PLP.Chemscore.Metal>
0.0000

> <Gold.Chemscore.Hbonds>
donor molecule, donor type, donor heavy atom, donor atom, acceptor molecule, acceptor atom, score
      P1  H  6896  6909       L1     1  1.00
      P1  H  7997  8009       L1    13  0.93
      P1  H 10752 10763       L1    17  0.35

> <Gold.PLP.Chemscore.Internal.Correction>
0.0179

> <Gold.Rescore>
     Score         DG    S(hbond)    S(metal)    S(lipo)     H(rot)  DE(clash)    DE(int)     intcor
      7.80     -13.43       2.09        0.00      64.50       2.57       0.15       5.49       ----

> <Gold.Chemscore.Fitness>
7.7957

> <Gold.Chemscore.DG>
-13.4335

> <Gold.Chemscore.ZeroCoef>
-5.4800

> <Gold.Chemscore.Hbond>
2.0882

> <Gold.Chemscore.Metal>
0.0000

> <Gold.Chemscore.Lipo>
64.5031

> <Gold.Chemscore.Internal_Hbond>
0.0000

> <Gold.Chemscore.DEClash>
0.1485

> <Gold.Chemscore.DEInternal>
5.4893

> <Gold.Chemscore.Rot>
2.5656

> <Gold.Chemscore.Internal.Correction>
   9.000000E+99

> <Gold.Chemscore.Hbonds>
donor molecule, donor type, donor heavy atom, donor atom, acceptor molecule, acceptor atom, score
      P1  H  6896  6909       L1     1  0.95
      P1  H  7997  8009       L1    13  0.42
      P1  H 10752 10763       L1    17  0.08

> <Gold.Chemscore.Hbond.Weighted>
-6.9745

> <Gold.Chemscore.Metal.Weighted>
-0.0000

> <Gold.Chemscore.Lipo.Weighted>
-7.5469

> <Gold.Chemscore.Internal_Hbond.Weighted>
0.0000

> <Gold.Chemscore.DEClash.Weighted>
0.1485

> <Gold.Chemscore.DEInternal.Weighted>
5.4893

> <Gold.Chemscore.Rot.Weighted>
6.5679

> <Gold.Chemscore.Internal.Correction.Weighted>
   9.000000E+99

> <Gold.Protein.RotatedTorsions>
[ 6907 6896 6895 6894 ] final  159.81 input  -60.11 | X-H torsion
[ 7974 7965 7964 7962 ] final   50.99 input  175.53 | X-H torsion
[ 8008 7997 7996 7995 ] final  157.69 input   59.86 | X-H torsion
[ 10167 10162 10161 10158 ] final  -40.54 input  -65.29 | X-H torsion
[ 10718 10713 10712 10709 ] final  110.85 input   66.30 | X-H torsion
[ 10763 10752 10751 10750 ] final  107.98 input  -60.55 | X-H torsion
[ 11005 11000 10999 10996 ] final  -45.00 input  -57.11 | X-H torsion

> <Gold.Protein.ActiveResidues>
 VAL166  LYS551  ARG553  GLY616  TRP617  ASP618  TYR619  PRO620  LYS621  CYS622 
 ASP623  PHE694  ASN695  SER759  ASP760  ASP761  ALA762  ILE779  LEU786  VAL792 
 PHE793  MET794  SER795  GLU796  ALA797  LYS798  CYS799  TRP800  GLU811  SER814 

> <Gold.Protein.RotatedAtoms>
  151.9801  133.3755  159.4103 H   0  0  0  0  0  0  0  0  0  0  0  0  # atno 6907 bound_to 6896
  150.6936  134.4048  159.5144 H   0  0  0  0  0  0  0  0  0  0  0  0  # atno 6908 bound_to 6896
  152.1765  134.8790  160.0581 H   0  0  0  0  0  0  0  0  0  0  0  0  # atno 6909 bound_to 6896
  145.9958  139.4386  143.0045 H   0  0  0  0  0  0  0  0  0  0  0  0  # atno 7974 bound_to 7965
  156.2348  140.1878  156.7147 H   0  0  0  0  0  0  0  0  0  0  0  0  # atno 8008 bound_to 7997
  154.6087  140.0625  156.9493 H   0  0  0  0  0  0  0  0  0  0  0  0  # atno 8009 bound_to 7997
  155.2052  140.3295  155.4339 H   0  0  0  0  0  0  0  0  0  0  0  0  # atno 8010 bound_to 7997
  140.7031  143.3147  151.2938 H   0  0  0  0  0  0  0  0  0  0  0  0  # atno 10167 bound_to 10162
  157.6474  131.0940  150.6662 H   0  0  0  0  0  0  0  0  0  0  0  0  # atno 10718 bound_to 10713
  153.4142  135.3827  155.2070 H   0  0  0  0  0  0  0  0  0  0  0  0  # atno 10763 bound_to 10752
  154.8740  135.3801  154.4463 H   0  0  0  0  0  0  0  0  0  0  0  0  # atno 10764 bound_to 10752
  153.4975  135.7088  153.5912 H   0  0  0  0  0  0  0  0  0  0  0  0  # atno 10765 bound_to 10752
  141.0487  133.6751  156.2951 H   0  0  0  0  0  0  0  0  0  0  0  0  # atno 11005 bound_to 11000
  145.7562  140.9953  143.1224 LP  0  0  0  0  0  0  0  0  0  0  0  0  # atno 17320 bound_to 7965
  144.6903  139.9275  143.7470 LP  0  0  0  0  0  0  0  0  0  0  0  0  # atno 17321 bound_to 7965
  139.6582  144.0237  152.2674 LP  0  0  0  0  0  0  0  0  0  0  0  0  # atno 17342 bound_to 10162
  139.9796  144.6438  150.7913 LP  0  0  0  0  0  0  0  0  0  0  0  0  # atno 17343 bound_to 10162
  156.6977  130.4614  149.5582 LP  0  0  0  0  0  0  0  0  0  0  0  0  # atno 17370 bound_to 10713
  156.1817  130.6503  151.0959 LP  0  0  0  0  0  0  0  0  0  0  0  0  # atno 17371 bound_to 10713
  140.6097  134.5471  157.5531 LP  0  0  0  0  0  0  0  0  0  0  0  0  # atno 17394 bound_to 11000
  139.9332  134.7923  156.0872 LP  0  0  0  0  0  0  0  0  0  0  0  0  # atno 17395 bound_to 11000

$$$$
