AV-unprocessed.smi:3021|AV-procd|sdf|11499|dock6
  -GOLD-   2272016433D 1   1.00000     0.00000
 Structure written by MMmdl.
 35 37  0  0  0  0  0  0  0  0  1 V2000
  151.0346  140.3826  154.6682 O   0  0  0  0  0  0  0  0  0  0  0  0
  150.3160  141.1242  155.6345 C   0  0  1  0  0  0  0  0  0  0  0  0
  149.6524  140.1375  156.6070 C   0  0  0  0  0  0  0  0  0  0  0  0
  148.7899  140.8562  157.4726 O   0  0  0  0  0  0  0  0  0  0  0  0
  147.4210  140.7139  157.1272 C   0  0  0  0  0  0  0  0  0  0  0  0
  147.1698  141.5159  155.8893 C   0  0  0  0  0  0  0  0  0  0  0  0
  146.4966  142.6847  155.6616 C   0  0  0  0  0  0  0  0  0  0  0  0
  146.6116  142.9532  154.2695 C   0  0  0  0  0  0  0  0  0  0  0  0
  147.3477  141.9279  153.7481 C   0  0  0  0  0  0  0  0  0  0  0  0
  147.6978  141.0442  154.7218 O   0  0  0  0  0  0  0  0  0  0  0  0
  151.2833  142.0824  156.3567 C   0  0  0  0  0  0  0  0  0  0  0  0
  152.0539  141.4175  157.3933 N   0  0  0  0  0  0  0  0  0  0  0  0
  152.5872  140.1860  157.1528 N   0  0  0  0  0  0  0  0  0  0  0  0
  153.2276  139.7955  158.2142 N   0  0  0  0  0  0  0  0  0  0  0  0
  153.1144  140.7886  159.1727 C   0  0  0  0  0  0  0  0  0  0  0  0
  153.6116  140.8871  160.4914 C   0  0  0  0  0  0  0  0  0  0  0  0
  153.3454  142.0342  161.2711 C   0  0  0  0  0  0  0  0  0  0  0  0
  153.9712  142.1179  162.8796 Cl  0  0  0  0  0  0  0  0  0  0  0  0
  152.5767  143.0975  160.7388 C   0  0  0  0  0  0  0  0  0  0  0  0
  152.2421  144.5080  161.6785 Cl  0  0  0  0  0  0  0  0  0  0  0  0
  152.0740  143.0125  159.4251 C   0  0  0  0  0  0  0  0  0  0  0  0
  152.3509  141.8626  158.6664 C   0  0  0  0  0  0  0  0  0  0  0  0
  150.6207  139.5382  154.5726 H   0  0  0  0  0  0  0  0  0  0  0  0
  149.5470  141.7108  155.1300 H   0  0  0  0  0  0  0  0  0  0  0  0
  149.1174  139.3521  156.0699 H   0  0  0  0  0  0  0  0  0  0  0  0
  150.4166  139.6505  157.2152 H   0  0  0  0  0  0  0  0  0  0  0  0
  147.1810  139.6649  156.9480 H   0  0  0  0  0  0  0  0  0  0  0  0
  146.7835  141.0702  157.9375 H   0  0  0  0  0  0  0  0  0  0  0  0
  145.9838  143.2747  156.4067 H   0  0  0  0  0  0  0  0  0  0  0  0
  146.2072  143.7901  153.7196 H   0  0  0  0  0  0  0  0  0  0  0  0
  147.6974  141.6837  152.7561 H   0  0  0  0  0  0  0  0  0  0  0  0
  151.9871  142.5121  155.6429 H   0  0  0  0  0  0  0  0  0  0  0  0
  150.7368  142.9191  156.7956 H   0  0  0  0  0  0  0  0  0  0  0  0
  154.1989  140.0795  160.9033 H   0  0  0  0  0  0  0  0  0  0  0  0
  151.4871  143.8166  159.0063 H   0  0  0  0  0  0  0  0  0  0  0  0
  1  2  1  0  0  0  0
  1 23  1  0  0  0  0
  2  3  1  0  0  0  0
  2 11  1  0  0  0  0
  2 24  1  0  0  0  0
  3  4  1  0  0  0  0
  3 25  1  0  0  0  0
  3 26  1  0  0  0  0
  4  5  1  0  0  0  0
  5  6  1  0  0  0  0
  5 27  1  0  0  0  0
  5 28  1  0  0  0  0
  6 10  1  0  0  0  0
  6  7  2  0  0  0  0
  7  8  1  0  0  0  0
  7 29  1  0  0  0  0
  8  9  2  0  0  0  0
  8 30  1  0  0  0  0
  9 10  1  0  0  0  0
  9 31  1  0  0  0  0
 11 12  1  0  0  0  0
 11 32  1  0  0  0  0
 11 33  1  0  0  0  0
 12 22  1  0  0  0  0
 12 13  1  0  0  0  0
 13 14  2  0  0  0  0
 14 15  1  0  0  0  0
 15 22  2  0  0  0  0
 15 16  1  0  0  0  0
 16 17  2  0  0  0  0
 16 34  1  0  0  0  0
 17 18  1  0  0  0  0
 17 19  1  0  0  0  0
 19 20  1  0  0  0  0
 19 21  2  0  0  0  0
 21 22  1  0  0  0  0
 21 35  1  0  0  0  0
M  END
> <s_m_source_file>
AV-unprocessed.smi

> <i_m_source_file_index>
3021

> <i_lp_mmshare_version>
43012

> <i_f3d_flags>
0

> <s_epik_input>
W2NIXTFjKENsKWMoQ2wpW2NIXWMoYzEyKW4obm4yKVtDSDJdW0NASF0oW09IXSlbQ0gyXU9bQ0gyXWMzW2NIXVtjSF1bY0hdbzM=

> <s_epik_cmdline>
J2VwaWtfcHl0aG9uJywgJy1waCcsICc3LjAnLCAnLXRuJywgJzgnLCAnLW1hJywgJzIwMCcsICctbWV0YWxfYmluZGluZycsICctaW1hZScsICc8aW5maWxlLm1hZT4nLCAnLW9tYWUnLCAnPG91dGZpbGUubWFlPic=

> <r_lp_tautomer_probability>
1

> <r_epik_Ionization_Penalty>
6.1367e-06

> <r_epik_Ionization_Penalty_Charging>
0

> <r_epik_Ionization_Penalty_Neutral>
6.1367e-06

> <r_epik_State_Penalty>
-0

> <r_epik_Charging_Adjusted_Penalty>
0

> <i_epik_Tot_Q>
0

> <i_epik_Tot_abs_Q>
0

> <r_epik_Metal_State_Penalty>
-0

> <b_epik_Metal_Only>
0

> <s_lp_Force_Field>
OPLS_2005

> <r_lp_Energy>
8.01921

> <b_lp_Chiralities_Consistent>
1

> <s_lp_Variant>
AV-unprocessed.smi:3021-2

> <Gold.Version>
5.8.1

> <Gold.Id.Protein>
6NUR|6NUR_protein|mol2

> <Gold.PLP.Fitness>
48.3770

> <Gold.PLP.PLP>
-42.2519

> <Gold.PLP.part.hbond>
-2.6269

> <Gold.PLP.part.metal>
0.0000

> <Gold.PLP.part.buried>
-4.4987

> <Gold.PLP.part.nonpolar>
-35.0415

> <Gold.PLP.part.repulsive>
0.1156

> <Gold.PLP.ligand.clash>
0.0000

> <Gold.PLP.ligand.torsion>
0.9200

> <Gold.PLP.Chemscore.Hbond>
1.5952

> <Gold.PLP.Chemscore.CHOScore>
1.0000

> <Gold.PLP.Chemscore.Metal>
0.0000

> <Gold.Chemscore.Hbonds>
donor molecule, donor type, donor heavy atom, donor atom, acceptor molecule, acceptor atom, score
      P1  H  7989  7998       L1     1  0.67

> <Gold.PLP.Chemscore.Internal.Correction>
0.1794

> <Gold.Rescore>
     Score         DG    S(hbond)    S(metal)    S(lipo)     H(rot)  DE(clash)    DE(int)     intcor
     11.29     -16.22       0.87        0.00     120.94       2.46       0.23       4.70       ----

> <Gold.Chemscore.Fitness>
11.2867

> <Gold.Chemscore.DG>
-16.2162

> <Gold.Chemscore.ZeroCoef>
-5.4800

> <Gold.Chemscore.Hbond>
0.8670

> <Gold.Chemscore.Metal>
0.0000

> <Gold.Chemscore.Lipo>
120.9405

> <Gold.Chemscore.Internal_Hbond>
0.0000

> <Gold.Chemscore.DEClash>
0.2273

> <Gold.Chemscore.DEInternal>
4.7023

> <Gold.Chemscore.Rot>
2.4647

> <Gold.Chemscore.Internal.Correction>
   9.000000E+99

> <Gold.Chemscore.Hbonds>
donor molecule, donor type, donor heavy atom, donor atom, acceptor molecule, acceptor atom, score
      P1  H  7989  7998       L1     1  0.60

> <Gold.Chemscore.Hbond.Weighted>
-2.8958

> <Gold.Chemscore.Metal.Weighted>
-0.0000

> <Gold.Chemscore.Lipo.Weighted>
-14.1500

> <Gold.Chemscore.Internal_Hbond.Weighted>
0.0000

> <Gold.Chemscore.DEClash.Weighted>
0.2273

> <Gold.Chemscore.DEInternal.Weighted>
4.7023

> <Gold.Chemscore.Rot.Weighted>
6.3097

> <Gold.Chemscore.Internal.Correction.Weighted>
   9.000000E+99

> <Gold.Protein.RotatedTorsions>
[ 6907 6896 6895 6894 ] final -103.20 input  -60.11 | X-H torsion
[ 7974 7965 7964 7962 ] final  105.47 input  175.53 | X-H torsion
[ 8008 7997 7996 7995 ] final   65.49 input   59.86 | X-H torsion
[ 10167 10162 10161 10158 ] final   68.31 input  -65.29 | X-H torsion
[ 10718 10713 10712 10709 ] final  173.09 input   66.30 | X-H torsion
[ 10763 10752 10751 10750 ] final  -87.66 input  -60.55 | X-H torsion
[ 11005 11000 10999 10996 ] final -172.85 input  -57.11 | X-H torsion

> <Gold.Protein.ActiveResidues>
 VAL166  LYS551  ARG553  GLY616  TRP617  ASP618  TYR619  PRO620  LYS621  CYS622 
 ASP623  PHE694  ASN695  SER759  ASP760  ASP761  ALA762  ILE779  LEU786  VAL792 
 PHE793  MET794  SER795  GLU796  ALA797  LYS798  CYS799  TRP800  GLU811  SER814 

> <Gold.Protein.RotatedAtoms>
  150.7230  134.0465  159.3783 H   0  0  0  0  0  0  0  0  0  0  0  0  # atno 6907 bound_to 6896
  151.8441  135.0578  160.0461 H   0  0  0  0  0  0  0  0  0  0  0  0  # atno 6908 bound_to 6896
  152.2840  133.5462  159.5552 H   0  0  0  0  0  0  0  0  0  0  0  0  # atno 6909 bound_to 6896
  145.3193  139.2517  143.3720 H   0  0  0  0  0  0  0  0  0  0  0  0  # atno 7974 bound_to 7965
  155.6625  140.3497  155.4788 H   0  0  0  0  0  0  0  0  0  0  0  0  # atno 8008 bound_to 7997
  155.9756  140.1164  157.0796 H   0  0  0  0  0  0  0  0  0  0  0  0  # atno 8009 bound_to 7997
  154.4178  140.1148  156.5352 H   0  0  0  0  0  0  0  0  0  0  0  0  # atno 8010 bound_to 7997
  140.0800  144.5079  150.7168 H   0  0  0  0  0  0  0  0  0  0  0  0  # atno 10167 bound_to 10162
  156.9694  131.0085  151.2909 H   0  0  0  0  0  0  0  0  0  0  0  0  # atno 10718 bound_to 10713
  154.6361  135.5405  153.7735 H   0  0  0  0  0  0  0  0  0  0  0  0  # atno 10763 bound_to 10752
  153.0309  135.6448  154.1229 H   0  0  0  0  0  0  0  0  0  0  0  0  # atno 10764 bound_to 10752
  154.1157  135.2923  155.3200 H   0  0  0  0  0  0  0  0  0  0  0  0  # atno 10765 bound_to 10752
  140.4924  134.5972  157.4959 H   0  0  0  0  0  0  0  0  0  0  0  0  # atno 11005 bound_to 11000
  146.3088  140.3747  142.8678 LP  0  0  0  0  0  0  0  0  0  0  0  0  # atno 17320 bound_to 7965
  144.8952  140.7574  143.5901 LP  0  0  0  0  0  0  0  0  0  0  0  0  # atno 17321 bound_to 7965
  140.7082  143.2484  151.4661 LP  0  0  0  0  0  0  0  0  0  0  0  0  # atno 17342 bound_to 10162
  139.5785  144.1763  152.1936 LP  0  0  0  0  0  0  0  0  0  0  0  0  # atno 17343 bound_to 10162
  157.5603  130.8241  149.8257 LP  0  0  0  0  0  0  0  0  0  0  0  0  # atno 17370 bound_to 10713
  156.0289  130.3771  150.1744 LP  0  0  0  0  0  0  0  0  0  0  0  0  # atno 17371 bound_to 10713
  139.9761  134.7213  155.9947 LP  0  0  0  0  0  0  0  0  0  0  0  0  # atno 17394 bound_to 11000
  141.1477  133.6553  156.3918 LP  0  0  0  0  0  0  0  0  0  0  0  0  # atno 17395 bound_to 11000

$$$$
