AV-unprocessed.smi:1320|AV-procd|sdf|5460|dock8
  -GOLD-   22720 5 33D 1   1.00000     0.00000
 Structure written by MMmdl.
 36 37  0  0  0  0  0  0  0  0  1 V2000
  151.0467  141.2415  157.4228 O   0  0  0  0  0  0  0  0  0  0  0  0
  150.5558  142.2689  156.9588 C   0  0  0  0  0  0  0  0  0  0  0  0
  149.5279  142.2765  156.0920 N   0  0  0  0  0  0  0  0  0  0  0  0
  148.8770  141.0934  155.5348 C   0  0  0  0  0  0  0  0  0  0  0  0
  147.3952  140.9837  155.9457 C   0  0  0  0  0  0  0  0  0  0  0  0
  146.5055  142.0571  155.3400 C   0  0  0  0  0  0  0  0  0  0  0  0
  146.6984  142.4790  154.0076 C   0  0  0  0  0  0  0  0  0  0  0  0
  145.8720  143.5006  153.5008 C   0  0  0  0  0  0  0  0  0  0  0  0
  144.8898  144.0584  154.3418 C   0  0  0  0  0  0  0  0  0  0  0  0
  144.7768  143.5674  155.6576 C   0  0  0  0  0  0  0  0  0  0  0  0
  145.5632  142.5879  156.1530 N   0  0  0  0  0  0  0  0  0  0  0  0
  151.0208  143.4871  157.2885 N   0  0  0  0  0  0  0  0  0  0  0  0
  152.1200  143.8182  158.1981 C   0  0  0  0  0  0  0  0  0  0  0  0
  152.0006  143.0177  159.5092 C   0  0  0  0  0  0  0  0  0  0  0  0
  152.1979  144.0265  160.6416 C   0  0  0  0  0  0  0  0  0  0  0  0
  151.6703  145.3389  160.0720 C   0  0  0  0  0  0  0  0  0  0  0  0
  152.0942  145.3067  158.6030 C   0  0  0  0  0  0  0  0  0  0  0  0
  149.1923  143.1726  155.7693 H   0  0  0  0  0  0  0  0  0  0  0  0
  148.9602  141.0833  154.4468 H   0  0  0  0  0  0  0  0  0  0  0  0
  149.4172  140.2140  155.8856 H   0  0  0  0  0  0  0  0  0  0  0  0
  147.0094  140.0047  155.6589 H   0  0  0  0  0  0  0  0  0  0  0  0
  147.3143  141.0294  157.0328 H   0  0  0  0  0  0  0  0  0  0  0  0
  147.4676  142.0379  153.3907 H   0  0  0  0  0  0  0  0  0  0  0  0
  145.9914  143.8521  152.4866 H   0  0  0  0  0  0  0  0  0  0  0  0
  144.2396  144.8447  153.9878 H   0  0  0  0  0  0  0  0  0  0  0  0
  144.0361  143.9725  156.3308 H   0  0  0  0  0  0  0  0  0  0  0  0
  150.5373  144.2753  156.8829 H   0  0  0  0  0  0  0  0  0  0  0  0
  153.0768  143.5824  157.7286 H   0  0  0  0  0  0  0  0  0  0  0  0
  151.0077  142.5740  159.6008 H   0  0  0  0  0  0  0  0  0  0  0  0
  152.7220  142.2015  159.5607 H   0  0  0  0  0  0  0  0  0  0  0  0
  151.6902  143.7315  161.5604 H   0  0  0  0  0  0  0  0  0  0  0  0
  153.2610  144.1255  160.8651 H   0  0  0  0  0  0  0  0  0  0  0  0
  150.5817  145.3573  160.1406 H   0  0  0  0  0  0  0  0  0  0  0  0
  152.0533  146.2117  160.6014 H   0  0  0  0  0  0  0  0  0  0  0  0
  153.0993  145.7203  158.5095 H   0  0  0  0  0  0  0  0  0  0  0  0
  151.4395  145.9170  157.9792 H   0  0  0  0  0  0  0  0  0  0  0  0
  1  2  2  0  0  0  0
  2  3  1  0  0  0  0
  2 12  1  0  0  0  0
  3  4  1  0  0  0  0
  3 18  1  0  0  0  0
  4  5  1  0  0  0  0
  4 19  1  0  0  0  0
  4 20  1  0  0  0  0
  5  6  1  0  0  0  0
  5 21  1  0  0  0  0
  5 22  1  0  0  0  0
  6 11  1  0  0  0  0
  6  7  2  0  0  0  0
  7  8  1  0  0  0  0
  7 23  1  0  0  0  0
  8  9  2  0  0  0  0
  8 24  1  0  0  0  0
  9 10  1  0  0  0  0
  9 25  1  0  0  0  0
 10 11  2  0  0  0  0
 10 26  1  0  0  0  0
 12 13  1  0  0  0  0
 12 27  1  0  0  0  0
 13 17  1  0  0  0  0
 13 14  1  0  0  0  0
 13 28  1  0  0  0  0
 14 15  1  0  0  0  0
 14 29  1  0  0  0  0
 14 30  1  0  0  0  0
 15 16  1  0  0  0  0
 15 31  1  0  0  0  0
 15 32  1  0  0  0  0
 16 17  1  0  0  0  0
 16 33  1  0  0  0  0
 16 34  1  0  0  0  0
 17 35  1  0  0  0  0
 17 36  1  0  0  0  0
M  END
> <s_m_source_file>
AV-unprocessed.smi

> <i_m_source_file_index>
1320

> <i_lp_mmshare_version>
43012

> <i_f3d_flags>
0

> <s_epik_input>
W0NIMl0xW0NIMl1bQ0gyXVtDSDJdW0NIXTFbTkhdQyg9TylbTkhdW0NIMl1bQ0gyXWMyW2NIXVtjSF1bY0hdW2NIXW4y

> <s_epik_cmdline>
J2VwaWtfcHl0aG9uJywgJy1waCcsICc3LjAnLCAnLXRuJywgJzgnLCAnLW1hJywgJzIwMCcsICctbWV0YWxfYmluZGluZycsICctaW1hZScsICc8aW5maWxlLm1hZT4nLCAnLW9tYWUnLCAnPG91dGZpbGUubWFlPic=

> <r_epik_Ionization_Penalty>
0.0441051

> <r_epik_Ionization_Penalty_Charging>
0

> <r_epik_Ionization_Penalty_Neutral>
0.0441051

> <r_epik_State_Penalty>
0.0373009

> <r_epik_Charging_Adjusted_Penalty>
0.0373009

> <i_epik_Tot_Q>
0

> <i_epik_Tot_abs_Q>
0

> <r_epik_Metal_State_Penalty>
0.0347078

> <b_epik_Metal_Only>
0

> <s_lp_Force_Field>
OPLS_2005

> <r_lp_Energy>
26.6462

> <b_lp_Chiralities_Consistent>
1

> <s_lp_Variant>
AV-unprocessed.smi:1320-1

> <Gold.Version>
5.8.1

> <Gold.Id.Protein>
6NUR|6NUR_protein|mol2

> <Gold.PLP.Fitness>
45.2124

> <Gold.PLP.PLP>
-40.8954

> <Gold.PLP.part.hbond>
-2.0000

> <Gold.PLP.part.metal>
0.0000

> <Gold.PLP.part.buried>
-7.0423

> <Gold.PLP.part.nonpolar>
-31.8068

> <Gold.PLP.part.repulsive>
0.2456

> <Gold.PLP.ligand.clash>
0.0000

> <Gold.PLP.ligand.torsion>
0.4808

> <Gold.PLP.Chemscore.Hbond>
1.7579

> <Gold.PLP.Chemscore.CHOScore>
0.0000

> <Gold.PLP.Chemscore.Metal>
0.0000

> <Gold.Chemscore.Hbonds>
donor molecule, donor type, donor heavy atom, donor atom, acceptor molecule, acceptor atom, score
      L1  H     3    18       P1  8028  1.00
      L1  H    12    27       P1  8028  0.76

> <Gold.PLP.Chemscore.Internal.Correction>
0.0049

> <Gold.Rescore>
     Score         DG    S(hbond)    S(metal)    S(lipo)     H(rot)  DE(clash)    DE(int)     intcor
     18.45     -19.51       1.88        0.00      99.30       1.51       0.12       0.94       ----

> <Gold.Chemscore.Fitness>
18.4476

> <Gold.Chemscore.DG>
-19.5116

> <Gold.Chemscore.ZeroCoef>
-5.4800

> <Gold.Chemscore.Hbond>
1.8769

> <Gold.Chemscore.Metal>
0.0000

> <Gold.Chemscore.Lipo>
99.2993

> <Gold.Chemscore.Internal_Hbond>
0.0000

> <Gold.Chemscore.DEClash>
0.1246

> <Gold.Chemscore.DEInternal>
0.9394

> <Gold.Chemscore.Rot>
1.5060

> <Gold.Chemscore.Internal.Correction>
   9.000000E+99

> <Gold.Chemscore.Hbonds>
donor molecule, donor type, donor heavy atom, donor atom, acceptor molecule, acceptor atom, score
      L1  H     3    18       P1  8028  0.97
      L1  H    12    27       P1  8028  0.69

> <Gold.Chemscore.Hbond.Weighted>
-6.2689

> <Gold.Chemscore.Metal.Weighted>
-0.0000

> <Gold.Chemscore.Lipo.Weighted>
-11.6180

> <Gold.Chemscore.Internal_Hbond.Weighted>
0.0000

> <Gold.Chemscore.DEClash.Weighted>
0.1246

> <Gold.Chemscore.DEInternal.Weighted>
0.9394

> <Gold.Chemscore.Rot.Weighted>
3.8553

> <Gold.Chemscore.Internal.Correction.Weighted>
   9.000000E+99

> <Gold.Protein.RotatedTorsions>
[ 6907 6896 6895 6894 ] final  -36.86 input  -60.11 | X-H torsion
[ 7974 7965 7964 7962 ] final  -83.09 input  175.53 | X-H torsion
[ 8008 7997 7996 7995 ] final  -30.60 input   59.86 | X-H torsion
[ 10167 10162 10161 10158 ] final  129.25 input  -65.29 | X-H torsion
[ 10718 10713 10712 10709 ] final -153.94 input   66.30 | X-H torsion
[ 10763 10752 10751 10750 ] final   45.21 input  -60.55 | X-H torsion
[ 11005 11000 10999 10996 ] final  118.08 input  -57.11 | X-H torsion

> <Gold.Protein.ActiveResidues>
 VAL166  LYS551  ARG553  GLY616  TRP617  ASP618  TYR619  PRO620  LYS621  CYS622 
 ASP623  PHE694  ASN695  SER759  ASP760  ASP761  ALA762  ILE779  LEU786  VAL792 
 PHE793  MET794  SER795  GLU796  ALA797  LYS798  CYS799  TRP800  GLU811  SER814 

> <Gold.Protein.RotatedAtoms>
  151.0219  134.9475  159.8063 H   0  0  0  0  0  0  0  0  0  0  0  0  # atno 6907 bound_to 6896
  152.5327  134.2892  159.9047 H   0  0  0  0  0  0  0  0  0  0  0  0  # atno 6908 bound_to 6896
  151.2900  133.4128  159.2666 H   0  0  0  0  0  0  0  0  0  0  0  0  # atno 6909 bound_to 6896
  145.5245  140.9528  143.1637 H   0  0  0  0  0  0  0  0  0  0  0  0  # atno 7974 bound_to 7965
  154.4244  140.1787  156.1433 H   0  0  0  0  0  0  0  0  0  0  0  0  # atno 8008 bound_to 7997
  155.9974  140.3363  155.6787 H   0  0  0  0  0  0  0  0  0  0  0  0  # atno 8009 bound_to 7997
  155.6290  140.0668  157.2645 H   0  0  0  0  0  0  0  0  0  0  0  0  # atno 8010 bound_to 7997
  139.5487  144.6795  151.4392 H   0  0  0  0  0  0  0  0  0  0  0  0  # atno 10167 bound_to 10162
  156.4926  130.8354  151.2576 H   0  0  0  0  0  0  0  0  0  0  0  0  # atno 10718 bound_to 10713
  152.9828  135.6046  154.3400 H   0  0  0  0  0  0  0  0  0  0  0  0  # atno 10763 bound_to 10752
  154.3097  135.2771  155.2573 H   0  0  0  0  0  0  0  0  0  0  0  0  # atno 10764 bound_to 10752
  154.4788  135.5922  153.6430 H   0  0  0  0  0  0  0  0  0  0  0  0  # atno 10765 bound_to 10752
  139.9097  134.9617  156.7448 H   0  0  0  0  0  0  0  0  0  0  0  0  # atno 11005 bound_to 11000
  144.7658  139.6849  143.7215 LP  0  0  0  0  0  0  0  0  0  0  0  0  # atno 17320 bound_to 7965
  146.2084  139.5424  142.9697 LP  0  0  0  0  0  0  0  0  0  0  0  0  # atno 17321 bound_to 7965
  140.6743  143.8225  150.7038 LP  0  0  0  0  0  0  0  0  0  0  0  0  # atno 17342 bound_to 10162
  140.1658  143.4236  152.2035 LP  0  0  0  0  0  0  0  0  0  0  0  0  # atno 17343 bound_to 10162
  157.7472  131.0008  150.2941 LP  0  0  0  0  0  0  0  0  0  0  0  0  # atno 17370 bound_to 10713
  156.3411  130.3815  149.7408 LP  0  0  0  0  0  0  0  0  0  0  0  0  # atno 17371 bound_to 10713
  140.6820  133.9466  155.7916 LP  0  0  0  0  0  0  0  0  0  0  0  0  # atno 17394 bound_to 11000
  141.0503  134.0494  157.3792 LP  0  0  0  0  0  0  0  0  0  0  0  0  # atno 17395 bound_to 11000

$$$$
