AV-unprocessed.smi:541|AV-procd|sdf|2872|dock5
  -GOLD-   2262023363D 1   1.00000     0.00000
 Structure written by MMmdl.
 42 44  0  0  0  0  0  0  0  0  2 V2000
  146.9167  142.0302  154.1812 C   0  0  0  0  0  0  0  0  0  0  0  0
  147.9910  140.9967  153.8355 C   0  0  0  0  0  0  0  0  0  0  0  0
  149.2626  141.5263  154.1691 O   0  0  0  0  0  0  0  0  0  0  0  0
  149.5110  141.5140  155.5645 C   0  0  0  0  0  0  0  0  0  0  0  0
  150.9547  141.9729  155.8145 C   0  0  0  0  0  0  0  0  0  0  0  0
  151.6247  141.1451  156.8144 N   0  0  0  0  0  0  0  0  0  0  0  0
  152.1049  141.4823  158.0503 C   0  0  0  0  0  0  0  0  0  0  0  0
  152.0095  142.7578  158.6325 N   0  0  0  0  0  0  0  0  0  0  0  0
  151.6418  144.0570  158.0672 C   0  0  0  0  0  0  0  0  0  0  0  0
  151.2902  144.9964  159.2159 C   0  0  0  0  0  0  0  0  0  0  0  0
  152.2185  144.5085  160.3049 C   0  0  0  0  0  0  0  0  0  0  0  0
  152.2209  143.0026  160.0602 C   0  0  0  0  0  0  0  0  0  0  0  0
  152.6956  140.4706  158.6932 N   0  0  0  0  0  0  0  0  0  0  0  0
  152.5665  139.4055  157.8202 C   0  0  0  0  0  0  0  0  0  0  0  0
  151.9187  139.7803  156.6869 C   0  0  0  0  0  0  0  0  0  0  0  0
  151.6188  138.8507  155.5720 C   0  0  0  0  0  0  0  0  0  0  0  0
  151.0093  139.2276  154.5732 O   0  0  0  0  0  0  0  0  0  0  0  0
  152.0881  137.5850  155.8105 N   0  5  0  0  0  0  0  0  0  0  0  0
  152.7544  137.1677  156.9421 C   0  0  0  0  0  0  0  0  0  0  0  0
  153.1455  136.0074  157.0760 O   0  0  0  0  0  0  0  0  0  0  0  0
  152.9958  138.0572  157.9552 N   0  0  0  0  0  0  0  0  0  0  0  0
  153.6960  137.6411  159.1738 C   0  0  0  0  0  0  0  0  0  0  0  0
  145.9224  141.6544  153.9395 H   0  0  0  0  0  0  0  0  0  0  0  0
  147.0697  142.9542  153.6232 H   0  0  0  0  0  0  0  0  0  0  0  0
  146.9343  142.2727  155.2440 H   0  0  0  0  0  0  0  0  0  0  0  0
  147.8110  140.0738  154.3892 H   0  0  0  0  0  0  0  0  0  0  0  0
  147.9490  140.7586  152.7716 H   0  0  0  0  0  0  0  0  0  0  0  0
  148.8053  142.1700  156.0750 H   0  0  0  0  0  0  0  0  0  0  0  0
  149.3593  140.5096  155.9623 H   0  0  0  0  0  0  0  0  0  0  0  0
  151.5243  141.9447  154.8869 H   0  0  0  0  0  0  0  0  0  0  0  0
  150.9938  143.0175  156.1049 H   0  0  0  0  0  0  0  0  0  0  0  0
  152.4990  144.4563  157.5243 H   0  0  0  0  0  0  0  0  0  0  0  0
  150.8040  143.9790  157.3773 H   0  0  0  0  0  0  0  0  0  0  0  0
  151.4337  146.0480  158.9664 H   0  0  0  0  0  0  0  0  0  0  0  0
  150.2510  144.8527  159.5156 H   0  0  0  0  0  0  0  0  0  0  0  0
  153.2195  144.9152  160.1537 H   0  0  0  0  0  0  0  0  0  0  0  0
  151.8862  144.7778  161.3077 H   0  0  0  0  0  0  0  0  0  0  0  0
  151.4067  142.5311  160.6124 H   0  0  0  0  0  0  0  0  0  0  0  0
  153.1538  142.5520  160.4014 H   0  0  0  0  0  0  0  0  0  0  0  0
  153.1588  136.8285  159.6651 H   0  0  0  0  0  0  0  0  0  0  0  0
  153.7959  138.4487  159.8988 H   0  0  0  0  0  0  0  0  0  0  0  0
  154.7010  137.2909  158.9352 H   0  0  0  0  0  0  0  0  0  0  0  0
  1  2  1  0  0  0  0
  1 23  1  0  0  0  0
  1 24  1  0  0  0  0
  1 25  1  0  0  0  0
  2  3  1  0  0  0  0
  2 26  1  0  0  0  0
  2 27  1  0  0  0  0
  3  4  1  0  0  0  0
  4  5  1  0  0  0  0
  4 28  1  0  0  0  0
  4 29  1  0  0  0  0
  5  6  1  0  0  0  0
  5 30  1  0  0  0  0
  5 31  1  0  0  0  0
  6 15  1  0  0  0  0
  6  7  1  0  0  0  0
  7  8  1  0  0  0  0
  7 13  2  0  0  0  0
  8 12  1  0  0  0  0
  8  9  1  0  0  0  0
  9 10  1  0  0  0  0
  9 32  1  0  0  0  0
  9 33  1  0  0  0  0
 10 11  1  0  0  0  0
 10 34  1  0  0  0  0
 10 35  1  0  0  0  0
 11 12  1  0  0  0  0
 11 36  1  0  0  0  0
 11 37  1  0  0  0  0
 12 38  1  0  0  0  0
 12 39  1  0  0  0  0
 13 14  1  0  0  0  0
 14 21  1  0  0  0  0
 14 15  2  0  0  0  0
 15 16  1  0  0  0  0
 16 17  2  0  0  0  0
 16 18  1  0  0  0  0
 18 19  1  0  0  0  0
 19 20  2  0  0  0  0
 19 21  1  0  0  0  0
 21 22  1  0  0  0  0
 22 40  1  0  0  0  0
 22 41  1  0  0  0  0
 22 42  1  0  0  0  0
M  CHG  1  18  -1
M  END
> <s_m_source_file>
AV-unprocessed.smi

> <i_m_source_file_index>
541

> <i_lp_mmshare_version>
43012

> <i_f3d_flags>
0

> <s_epik_input>
W0NIM11uMWMoPU8pW25IXWMoPU8pYyhjMTIpbihbQ0gyXVtDSDJdT1tDSDJdW0NIM10pYyhuMilOM1tDSDJdW0NIMl1bQ0gyXVtDSDJdMw==

> <s_epik_cmdline>
J2VwaWtfcHl0aG9uJywgJy1waCcsICc3LjAnLCAnLXRuJywgJzgnLCAnLW1hJywgJzIwMCcsICctbWV0YWxfYmluZGluZycsICctaW1hZScsICc8aW5maWxlLm1hZT4nLCAnLW9tYWUnLCAnPG91dGZpbGUubWFlPic=

> <r_lp_tautomer_probability>
1

> <r_epik_Ionization_Penalty>
6.1404

> <r_epik_Ionization_Penalty_Charging>
0.0734613

> <r_epik_Ionization_Penalty_Neutral>
6.06694

> <r_epik_State_Penalty>
6.06401

> <r_epik_Charging_Adjusted_Penalty>
6.13747

> <i_epik_Tot_Q>
-1

> <i_epik_Tot_abs_Q>
1

> <r_epik_Metal_State_Penalty>
2.01234

> <b_epik_Metal_Only>
1

> <s_lp_Force_Field>
OPLS_2005

> <r_lp_Energy>
49.972

> <b_lp_Chiralities_Consistent>
1

> <s_lp_Variant>
AV-unprocessed.smi:541-2

> <Gold.Version>
5.8.1

> <Gold.Id.Protein>
6NUR|6NUR_protein|mol2

> <Gold.PLP.Fitness>
49.2461

> <Gold.PLP.PLP>
-42.4072

> <Gold.PLP.part.hbond>
-3.9651

> <Gold.PLP.part.metal>
0.0000

> <Gold.PLP.part.buried>
-5.4884

> <Gold.PLP.part.nonpolar>
-32.1309

> <Gold.PLP.part.repulsive>
0.3268

> <Gold.PLP.ligand.clash>
0.0000

> <Gold.PLP.ligand.torsion>
0.4860

> <Gold.PLP.Chemscore.Hbond>
2.5928

> <Gold.PLP.Chemscore.CHOScore>
0.0000

> <Gold.PLP.Chemscore.Metal>
0.0000

> <Gold.Chemscore.Hbonds>
donor molecule, donor type, donor heavy atom, donor atom, acceptor molecule, acceptor atom, score
      P1  H  7989  7998       L1    17  0.94
      P1  H  8011  8017       L1     3  0.51
      P1  H 10752 10764       L1    20  1.00

> <Gold.PLP.Chemscore.Internal.Correction>
0.0325

> <Gold.Rescore>
     Score         DG    S(hbond)    S(metal)    S(lipo)     H(rot)  DE(clash)    DE(int)     intcor
     15.70     -17.80       1.98        0.00      84.50       1.64       0.41       1.68       ----

> <Gold.Chemscore.Fitness>
15.7049

> <Gold.Chemscore.DG>
-17.7951

> <Gold.Chemscore.ZeroCoef>
-5.4800

> <Gold.Chemscore.Hbond>
1.9828

> <Gold.Chemscore.Metal>
0.0000

> <Gold.Chemscore.Lipo>
84.4957

> <Gold.Chemscore.Internal_Hbond>
0.0000

> <Gold.Chemscore.DEClash>
0.4106

> <Gold.Chemscore.DEInternal>
1.6795

> <Gold.Chemscore.Rot>
1.6380

> <Gold.Chemscore.Internal.Correction>
   9.000000E+99

> <Gold.Chemscore.Hbonds>
donor molecule, donor type, donor heavy atom, donor atom, acceptor molecule, acceptor atom, score
      P1  H  7989  7998       L1    17  0.89
      P1  H  8011  8017       L1     3  0.15
      P1  H 10752 10764       L1    20  0.60

> <Gold.Chemscore.Hbond.Weighted>
-6.6224

> <Gold.Chemscore.Metal.Weighted>
-0.0000

> <Gold.Chemscore.Lipo.Weighted>
-9.8860

> <Gold.Chemscore.Internal_Hbond.Weighted>
0.0000

> <Gold.Chemscore.DEClash.Weighted>
0.4106

> <Gold.Chemscore.DEInternal.Weighted>
1.6795

> <Gold.Chemscore.Rot.Weighted>
4.1934

> <Gold.Chemscore.Internal.Correction.Weighted>
   9.000000E+99

> <Gold.Protein.RotatedTorsions>
[ 6907 6896 6895 6894 ] final  138.23 input  -60.11 | X-H torsion
[ 7974 7965 7964 7962 ] final  178.51 input  175.53 | X-H torsion
[ 8008 7997 7996 7995 ] final  -26.49 input   59.86 | X-H torsion
[ 10167 10162 10161 10158 ] final -120.17 input  -65.29 | X-H torsion
[ 10718 10713 10712 10709 ] final   27.69 input   66.30 | X-H torsion
[ 10763 10752 10751 10750 ] final    1.15 input  -60.55 | X-H torsion
[ 11005 11000 10999 10996 ] final -149.73 input  -57.11 | X-H torsion

> <Gold.Protein.ActiveResidues>
 VAL166  LYS551  ARG553  GLY616  TRP617  ASP618  TYR619  PRO620  LYS621  CYS622 
 ASP623  PHE694  ASN695  SER759  ASP760  ASP761  ALA762  ILE779  LEU786  VAL792 
 PHE793  MET794  SER795  GLU796  ALA797  LYS798  CYS799  TRP800  GLU811  SER814 

> <Gold.Protein.RotatedAtoms>
  152.2689  133.5364  159.5426 H   0  0  0  0  0  0  0  0  0  0  0  0  # atno 6907 bound_to 6896
  150.7152  134.0725  159.3878 H   0  0  0  0  0  0  0  0  0  0  0  0  # atno 6908 bound_to 6896
  151.8640  135.0514  160.0523 H   0  0  0  0  0  0  0  0  0  0  0  0  # atno 6909 bound_to 6896
  144.7155  140.0408  143.6437 H   0  0  0  0  0  0  0  0  0  0  0  0  # atno 7974 bound_to 7965
  154.4422  140.1898  156.0784 H   0  0  0  0  0  0  0  0  0  0  0  0  # atno 8008 bound_to 7997
  156.0458  140.3314  155.7268 H   0  0  0  0  0  0  0  0  0  0  0  0  # atno 8009 bound_to 7997
  155.5632  140.0605  157.2815 H   0  0  0  0  0  0  0  0  0  0  0  0  # atno 8010 bound_to 7997
  140.0387  143.5175  152.2141 H   0  0  0  0  0  0  0  0  0  0  0  0  # atno 10167 bound_to 10162
  157.2236  130.6990  149.6281 H   0  0  0  0  0  0  0  0  0  0  0  0  # atno 10718 bound_to 10713
  153.3116  135.6963  153.7110 H   0  0  0  0  0  0  0  0  0  0  0  0  # atno 10763 bound_to 10752
  153.5986  135.3466  155.2937 H   0  0  0  0  0  0  0  0  0  0  0  0  # atno 10764 bound_to 10752
  154.8576  135.4335  154.2256 H   0  0  0  0  0  0  0  0  0  0  0  0  # atno 10765 bound_to 10752
  140.7476  134.3443  157.5133 H   0  0  0  0  0  0  0  0  0  0  0  0  # atno 11005 bound_to 11000
  146.0025  139.3103  143.0919 LP  0  0  0  0  0  0  0  0  0  0  0  0  # atno 17320 bound_to 7965
  145.8776  140.9382  143.0618 LP  0  0  0  0  0  0  0  0  0  0  0  0  # atno 17321 bound_to 7965
  139.6028  144.7587  151.3132 LP  0  0  0  0  0  0  0  0  0  0  0  0  # atno 17342 bound_to 10162
  140.7270  143.6975  150.7871 LP  0  0  0  0  0  0  0  0  0  0  0  0  # atno 17343 bound_to 10162
  155.9680  130.4512  150.5726 LP  0  0  0  0  0  0  0  0  0  0  0  0  # atno 17370 bound_to 10713
  157.3551  131.0740  151.1682 LP  0  0  0  0  0  0  0  0  0  0  0  0  # atno 17371 bound_to 10713
  139.8794  134.9121  156.3053 LP  0  0  0  0  0  0  0  0  0  0  0  0  # atno 17394 bound_to 11000
  140.9780  133.7285  156.0630 LP  0  0  0  0  0  0  0  0  0  0  0  0  # atno 17395 bound_to 11000

$$$$
