AV-unprocessed.smi:3345|AV-procd|sdf|12904|dock10
  -GOLD-   2272019313D 1   1.00000     0.00000
 Structure written by MMmdl.
 41 42  0  0  0  0  0  0  0  0  2 V2000
  148.0694  133.7439  155.5434 C   0  0  0  0  0  0  0  0  0  0  0  0
  148.2474  135.0143  154.7010 C   0  0  1  0  0  0  0  0  0  0  0  0
  146.8865  135.5479  154.1965 C   0  0  0  0  0  0  0  0  0  0  0  0
  146.5239  135.0379  152.8500 N   0  3  0  0  0  0  0  0  0  0  0  0
  146.4549  133.5582  152.7758 C   0  0  0  0  0  0  0  0  0  0  0  0
  146.1584  133.1137  151.3342 C   0  0  0  0  0  0  0  0  0  0  0  0
  144.9422  133.7072  150.8953 O   0  0  0  0  0  0  0  0  0  0  0  0
  145.0136  135.1278  150.8885 C   0  0  0  0  0  0  0  0  0  0  0  0
  145.2815  135.6409  152.3139 C   0  0  0  0  0  0  0  0  0  0  0  0
  148.9529  136.0172  155.4996 N   0  0  0  0  0  0  0  0  0  0  0  0
  150.2741  136.0513  155.7405 C   0  0  0  0  0  0  0  0  0  0  0  0
  151.0664  135.2388  155.2626 O   0  0  0  0  0  0  0  0  0  0  0  0
  150.7700  137.1800  156.6563 C   0  0  2  0  0  0  0  0  0  0  0  0
  150.0826  137.1603  158.0367 C   0  0  0  0  0  0  0  0  0  0  0  0
  150.6299  138.4660  155.9847 N   0  0  0  0  0  0  0  0  0  0  0  0
  151.5638  139.3430  155.6091 C   0  0  0  0  0  0  0  0  0  0  0  0
  151.0844  140.3994  154.9678 N   0  0  0  0  0  0  0  0  0  0  0  0
  149.7552  140.0850  154.9716 C   0  0  0  0  0  0  0  0  0  0  0  0
  149.4301  138.9324  155.5567 N   0  0  0  0  0  0  0  0  0  0  0  0
  147.5795  132.9579  154.9680 H   0  0  0  0  0  0  0  0  0  0  0  0
  147.4627  133.9340  156.4295 H   0  0  0  0  0  0  0  0  0  0  0  0
  149.0326  133.3548  155.8760 H   0  0  0  0  0  0  0  0  0  0  0  0
  148.8659  134.7392  153.8454 H   0  0  0  0  0  0  0  0  0  0  0  0
  146.0906  135.3082  154.9034 H   0  0  0  0  0  0  0  0  0  0  0  0
  146.9425  136.6371  154.1634 H   0  0  0  0  0  0  0  0  0  0  0  0
  147.3949  133.1160  153.1045 H   0  0  0  0  0  0  0  0  0  0  0  0
  145.6770  133.1912  153.4470 H   0  0  0  0  0  0  0  0  0  0  0  0
  146.9761  133.3892  150.6660 H   0  0  0  0  0  0  0  0  0  0  0  0
  146.0597  132.0292  151.2873 H   0  0  0  0  0  0  0  0  0  0  0  0
  145.7939  135.4606  150.2021 H   0  0  0  0  0  0  0  0  0  0  0  0
  144.0701  135.5276  150.5166 H   0  0  0  0  0  0  0  0  0  0  0  0
  144.4423  135.3953  152.9668 H   0  0  0  0  0  0  0  0  0  0  0  0
  145.3720  136.7276  152.2995 H   0  0  0  0  0  0  0  0  0  0  0  0
  148.3811  136.7272  155.9342 H   0  0  0  0  0  0  0  0  0  0  0  0
  151.8368  137.0243  156.8268 H   0  0  0  0  0  0  0  0  0  0  0  0
  150.2429  136.2069  158.5412 H   0  0  0  0  0  0  0  0  0  0  0  0
  149.0057  137.3168  157.9635 H   0  0  0  0  0  0  0  0  0  0  0  0
  150.4855  137.9420  158.6813 H   0  0  0  0  0  0  0  0  0  0  0  0
  152.6169  139.2040  155.8047 H   0  0  0  0  0  0  0  0  0  0  0  0
  149.0058  140.7205  154.5232 H   0  0  0  0  0  0  0  0  0  0  0  0
  147.2669  135.3266  152.2292 H   0  0  0  0  0  0  0  0  0  0  0  0
  1  2  1  0  0  0  0
  1 20  1  0  0  0  0
  1 21  1  0  0  0  0
  1 22  1  0  0  0  0
  2  3  1  0  0  0  0
  2 10  1  0  0  0  0
  2 23  1  0  0  0  0
  3  4  1  0  0  0  0
  3 24  1  0  0  0  0
  3 25  1  0  0  0  0
  4  9  1  0  0  0  0
  4  5  1  0  0  0  0
  4 41  1  0  0  0  0
  5  6  1  0  0  0  0
  5 26  1  0  0  0  0
  5 27  1  0  0  0  0
  6  7  1  0  0  0  0
  6 28  1  0  0  0  0
  6 29  1  0  0  0  0
  7  8  1  0  0  0  0
  8  9  1  0  0  0  0
  8 30  1  0  0  0  0
  8 31  1  0  0  0  0
  9 32  1  0  0  0  0
  9 33  1  0  0  0  0
 10 11  1  0  0  0  0
 10 34  1  0  0  0  0
 11 12  2  0  0  0  0
 11 13  1  0  0  0  0
 13 14  1  0  0  0  0
 13 15  1  0  0  0  0
 13 35  1  0  0  0  0
 14 36  1  0  0  0  0
 14 37  1  0  0  0  0
 14 38  1  0  0  0  0
 15 19  1  0  0  0  0
 15 16  1  0  0  0  0
 16 17  2  0  0  0  0
 16 39  1  0  0  0  0
 17 18  1  0  0  0  0
 18 19  2  0  0  0  0
 18 40  1  0  0  0  0
M  CHG  1   4   1
M  END
> <s_m_source_file>
AV-unprocessed.smi

> <i_m_source_file_index>
3345

> <i_lp_mmshare_version>
43012

> <i_f3d_flags>
0

> <s_epik_input>
W0NIMl0xW0NIMl1PW0NIMl1bQ0gyXU4xW0NIMl1bQ0BASF0oW0NIM10pW05IXUMoPU8pW0NASF0oW0NIM10pbjJbY0hdbltjSF1uMg==

> <s_epik_cmdline>
J2VwaWtfcHl0aG9uJywgJy1waCcsICc3LjAnLCAnLXRuJywgJzgnLCAnLW1hJywgJzIwMCcsICctbWV0YWxfYmluZGluZycsICctaW1hZScsICc8aW5maWxlLm1hZT4nLCAnLW9tYWUnLCAnPG91dGZpbGUubWFlPic=

> <r_lp_tautomer_probability>
1

> <r_epik_Ionization_Penalty>
0.71326

> <r_epik_Ionization_Penalty_Charging>
0.713252

> <r_epik_Ionization_Penalty_Neutral>
8.27671e-06

> <r_epik_State_Penalty>
0.737017

> <r_epik_Charging_Adjusted_Penalty>
1.45027

> <i_epik_Tot_Q>
1

> <i_epik_Tot_abs_Q>
1

> <r_epik_Metal_State_Penalty>
0.73702

> <b_epik_Metal_Only>
0

> <s_lp_Force_Field>
OPLS_2005

> <r_lp_Energy>
28.084

> <b_lp_Chiralities_Consistent>
1

> <s_lp_Variant>
AV-unprocessed.smi:3345-6

> <Gold.Version>
5.8.1

> <Gold.Id.Protein>
6NUR|6NUR_protein|mol2

> <Gold.PLP.Fitness>
31.4848

> <Gold.PLP.PLP>
-21.0427

> <Gold.PLP.part.hbond>
-3.0000

> <Gold.PLP.part.metal>
0.0000

> <Gold.PLP.part.buried>
-2.3316

> <Gold.PLP.part.nonpolar>
-15.3903

> <Gold.PLP.part.repulsive>
0.3332

> <Gold.PLP.ligand.clash>
0.0000

> <Gold.PLP.ligand.torsion>
0.8465

> <Gold.PLP.Chemscore.Hbond>
3.9913

> <Gold.PLP.Chemscore.CHOScore>
0.0000

> <Gold.PLP.Chemscore.Metal>
0.0000

> <Gold.Chemscore.Hbonds>
donor molecule, donor type, donor heavy atom, donor atom, acceptor molecule, acceptor atom, score
      L1  H     4    41       P1  7948  2.00
      P1  H  7989  7998       L1    17  1.00
      P1  H 10752 10763       L1    12  1.00

> <Gold.PLP.Chemscore.Internal.Correction>
0.1615

> <Gold.Rescore>
     Score         DG    S(hbond)    S(metal)    S(lipo)     H(rot)  DE(clash)    DE(int)     intcor
     10.51     -12.63       2.87        0.00      36.42       2.61       0.07       2.04       ----

> <Gold.Chemscore.Fitness>
10.5127

> <Gold.Chemscore.DG>
-12.6297

> <Gold.Chemscore.ZeroCoef>
-5.4800

> <Gold.Chemscore.Hbond>
2.8682

> <Gold.Chemscore.Metal>
0.0000

> <Gold.Chemscore.Lipo>
36.4199

> <Gold.Chemscore.Internal_Hbond>
0.0000

> <Gold.Chemscore.DEClash>
0.0727

> <Gold.Chemscore.DEInternal>
2.0443

> <Gold.Chemscore.Rot>
2.6138

> <Gold.Chemscore.Internal.Correction>
   9.000000E+99

> <Gold.Chemscore.Hbonds>
donor molecule, donor type, donor heavy atom, donor atom, acceptor molecule, acceptor atom, score
      L1  H     4    41       P1  7948  0.97
      P1  H  7989  7998       L1    17  0.85
      P1  H 10752 10763       L1    12  0.92

> <Gold.Chemscore.Hbond.Weighted>
-9.5798

> <Gold.Chemscore.Metal.Weighted>
-0.0000

> <Gold.Chemscore.Lipo.Weighted>
-4.2611

> <Gold.Chemscore.Internal_Hbond.Weighted>
0.0000

> <Gold.Chemscore.DEClash.Weighted>
0.0727

> <Gold.Chemscore.DEInternal.Weighted>
2.0443

> <Gold.Chemscore.Rot.Weighted>
6.6912

> <Gold.Chemscore.Internal.Correction.Weighted>
   9.000000E+99

> <Gold.Protein.RotatedTorsions>
[ 6907 6896 6895 6894 ] final   57.95 input  -60.11 | X-H torsion
[ 7974 7965 7964 7962 ] final  -53.73 input  175.53 | X-H torsion
[ 8008 7997 7996 7995 ] final -167.52 input   59.86 | X-H torsion
[ 10167 10162 10161 10158 ] final  -39.08 input  -65.29 | X-H torsion
[ 10718 10713 10712 10709 ] final   23.66 input   66.30 | X-H torsion
[ 10763 10752 10751 10750 ] final   69.49 input  -60.55 | X-H torsion
[ 11005 11000 10999 10996 ] final  -85.71 input  -57.11 | X-H torsion

> <Gold.Protein.ActiveResidues>
 VAL166  LYS551  ARG553  GLY616  TRP617  ASP618  TYR619  PRO620  LYS621  CYS622 
 ASP623  PHE694  ASN695  SER759  ASP760  ASP761  ALA762  ILE779  LEU786  VAL792 
 PHE793  MET794  SER795  GLU796  ALA797  LYS798  CYS799  TRP800  GLU811  SER814 

> <Gold.Protein.RotatedAtoms>
  152.3779  134.6635  160.0152 H   0  0  0  0  0  0  0  0  0  0  0  0  # atno 6907 bound_to 6896
  151.6907  133.3305  159.3250 H   0  0  0  0  0  0  0  0  0  0  0  0  # atno 6908 bound_to 6896
  150.7724  134.6637  159.6398 H   0  0  0  0  0  0  0  0  0  0  0  0  # atno 6909 bound_to 6896
  145.8936  140.8051  142.9779 H   0  0  0  0  0  0  0  0  0  0  0  0  # atno 7974 bound_to 7965
  155.8788  140.1005  157.1500 H   0  0  0  0  0  0  0  0  0  0  0  0  # atno 8008 bound_to 7997
  154.4003  140.1333  156.4233 H   0  0  0  0  0  0  0  0  0  0  0  0  # atno 8009 bound_to 7997
  155.7667  140.3462  155.5228 H   0  0  0  0  0  0  0  0  0  0  0  0  # atno 8010 bound_to 7997
  140.7074  143.3237  151.2732 H   0  0  0  0  0  0  0  0  0  0  0  0  # atno 10167 bound_to 10162
  157.1691  130.6751  149.6071 H   0  0  0  0  0  0  0  0  0  0  0  0  # atno 10718 bound_to 10713
  153.0290  135.5209  154.7296 H   0  0  0  0  0  0  0  0  0  0  0  0  # atno 10763 bound_to 10752
  154.6327  135.2902  155.0199 H   0  0  0  0  0  0  0  0  0  0  0  0  # atno 10764 bound_to 10752
  154.1145  135.6617  153.4944 H   0  0  0  0  0  0  0  0  0  0  0  0  # atno 10765 bound_to 10752
  141.1638  133.7414  156.9055 H   0  0  0  0  0  0  0  0  0  0  0  0  # atno 11005 bound_to 11000
  144.6731  140.1567  143.7425 LP  0  0  0  0  0  0  0  0  0  0  0  0  # atno 17320 bound_to 7965
  145.8878  139.2359  143.1567 LP  0  0  0  0  0  0  0  0  0  0  0  0  # atno 17321 bound_to 7965
  139.6698  144.0040  152.2746 LP  0  0  0  0  0  0  0  0  0  0  0  0  # atno 17342 bound_to 10162
  139.9635  144.6542  150.8057 LP  0  0  0  0  0  0  0  0  0  0  0  0  # atno 17343 bound_to 10162
  155.9741  130.4685  150.6363 LP  0  0  0  0  0  0  0  0  0  0  0  0  # atno 17370 bound_to 10713
  157.4060  131.0817  151.1265 LP  0  0  0  0  0  0  0  0  0  0  0  0  # atno 17371 bound_to 10713
  140.1553  134.9203  157.2645 LP  0  0  0  0  0  0  0  0  0  0  0  0  # atno 17394 bound_to 11000
  140.2675  134.3499  155.7385 LP  0  0  0  0  0  0  0  0  0  0  0  0  # atno 17395 bound_to 11000

$$$$
