AV-unprocessed.smi:846|AV-procd|sdf|3936|dock7
  -GOLD-   22720 1403D 1   1.00000     0.00000
 Structure written by MMmdl.
 37 38  0  0  0  0  0  0  0  0  1 V2000
  145.9347  132.0767  150.2745 C   0  0  0  0  0  0  0  0  0  0  0  0
  145.5183  132.7508  151.5844 C   0  0  0  0  0  0  0  0  0  0  0  0
  146.6954  133.1776  152.2599 O   0  0  0  0  0  0  0  0  0  0  0  0
  147.4985  132.2321  152.8681 C   0  0  0  0  0  0  0  0  0  0  0  0
  147.1868  130.9204  152.7197 N   0  0  0  0  0  0  0  0  0  0  0  0
  147.9770  130.0040  153.3171 C   0  0  0  0  0  0  0  0  0  0  0  0
  149.1036  130.3428  154.0900 C   0  0  0  0  0  0  0  0  0  0  0  0
  149.4277  131.7035  154.2452 C   0  0  0  0  0  0  0  0  0  0  0  0
  148.6151  132.6741  153.6131 C   0  0  0  0  0  0  0  0  0  0  0  0
  148.8292  134.0738  153.7112 N   0  0  0  0  0  0  0  0  0  0  0  0
  149.3364  134.7851  154.7351 C   0  0  0  0  0  0  0  0  0  0  0  0
  149.5971  134.3287  155.8459 O   0  0  0  0  0  0  0  0  0  0  0  0
  149.5556  136.0799  154.4400 N   0  0  0  0  0  0  0  0  0  0  0  0
  150.0953  137.1236  155.3155 C   0  0  1  0  0  0  0  0  0  0  0  0
  151.3618  136.6380  156.0445 C   0  0  0  0  0  0  0  0  0  0  0  0
  152.0704  137.8496  156.6658 C   0  0  0  0  0  0  0  0  0  0  0  0
  151.6697  139.2838  155.5952 S   0  0  0  0  0  0  0  0  0  0  0  0
  150.9587  140.2914  156.3968 O   0  0  0  0  0  0  0  0  0  0  0  0
  152.8456  139.6475  154.7904 O   0  0  0  0  0  0  0  0  0  0  0  0
  150.4684  138.3969  154.5374 C   0  0  0  0  0  0  0  0  0  0  0  0
  145.0627  131.7310  149.7191 H   0  0  0  0  0  0  0  0  0  0  0  0
  146.5752  131.2146  150.4637 H   0  0  0  0  0  0  0  0  0  0  0  0
  146.4861  132.7680  149.6364 H   0  0  0  0  0  0  0  0  0  0  0  0
  144.8711  133.6030  151.3711 H   0  0  0  0  0  0  0  0  0  0  0  0
  144.9590  132.0443  152.1994 H   0  0  0  0  0  0  0  0  0  0  0  0
  147.6994  128.9694  153.1794 H   0  0  0  0  0  0  0  0  0  0  0  0
  149.7029  129.5756  154.5580 H   0  0  0  0  0  0  0  0  0  0  0  0
  150.2771  131.9749  154.8527 H   0  0  0  0  0  0  0  0  0  0  0  0
  148.7096  134.5824  152.8474 H   0  0  0  0  0  0  0  0  0  0  0  0
  149.3224  136.3716  153.5017 H   0  0  0  0  0  0  0  0  0  0  0  0
  149.3591  137.3803  156.0793 H   0  0  0  0  0  0  0  0  0  0  0  0
  151.1328  135.8813  156.7956 H   0  0  0  0  0  0  0  0  0  0  0  0
  152.0356  136.1744  155.3224 H   0  0  0  0  0  0  0  0  0  0  0  0
  151.6820  138.0568  157.6633 H   0  0  0  0  0  0  0  0  0  0  0  0
  153.1506  137.7199  156.7332 H   0  0  0  0  0  0  0  0  0  0  0  0
  150.9670  138.1528  153.5987 H   0  0  0  0  0  0  0  0  0  0  0  0
  149.6163  139.0419  154.3219 H   0  0  0  0  0  0  0  0  0  0  0  0
  1  2  1  0  0  0  0
  1 21  1  0  0  0  0
  1 22  1  0  0  0  0
  1 23  1  0  0  0  0
  2  3  1  0  0  0  0
  2 24  1  0  0  0  0
  2 25  1  0  0  0  0
  3  4  1  0  0  0  0
  4  9  1  0  0  0  0
  4  5  2  0  0  0  0
  5  6  1  0  0  0  0
  6  7  2  0  0  0  0
  6 26  1  0  0  0  0
  7  8  1  0  0  0  0
  7 27  1  0  0  0  0
  8  9  2  0  0  0  0
  8 28  1  0  0  0  0
  9 10  1  0  0  0  0
 10 11  1  0  0  0  0
 10 29  1  0  0  0  0
 11 12  2  0  0  0  0
 11 13  1  0  0  0  0
 13 14  1  0  0  0  0
 13 30  1  0  0  0  0
 14 20  1  0  0  0  0
 14 15  1  0  0  0  0
 14 31  1  0  0  0  0
 15 16  1  0  0  0  0
 15 32  1  0  0  0  0
 15 33  1  0  0  0  0
 16 17  1  0  0  0  0
 16 34  1  0  0  0  0
 16 35  1  0  0  0  0
 17 18  2  0  0  0  0
 17 19  2  0  0  0  0
 17 20  1  0  0  0  0
 20 36  1  0  0  0  0
 20 37  1  0  0  0  0
M  END
> <s_m_source_file>
AV-unprocessed.smi

> <i_m_source_file_index>
846

> <i_lp_mmshare_version>
43012

> <i_f3d_flags>
0

> <s_epik_input>
W0NIM11bQ0gyXU9jMW5bY0hdW2NIXVtjSF1jMVtOSF1DKD1PKVtOSF1bQ0BASF0oW0NIMl0yKVtDSDJdW0NIMl1TMig9Tyk9Tw==

> <s_epik_cmdline>
J2VwaWtfcHl0aG9uJywgJy1waCcsICc3LjAnLCAnLXRuJywgJzgnLCAnLW1hJywgJzIwMCcsICctbWV0YWxfYmluZGluZycsICctaW1hZScsICc8aW5maWxlLm1hZT4nLCAnLW9tYWUnLCAnPG91dGZpbGUubWFlPic=

> <r_lp_tautomer_probability>
1

> <r_epik_Ionization_Penalty>
9.45557e-05

> <r_epik_Ionization_Penalty_Charging>
0

> <r_epik_Ionization_Penalty_Neutral>
9.45557e-05

> <r_epik_State_Penalty>
-0

> <r_epik_Charging_Adjusted_Penalty>
0

> <i_epik_Tot_Q>
0

> <i_epik_Tot_abs_Q>
0

> <r_epik_Metal_State_Penalty>
-0

> <b_epik_Metal_Only>
0

> <s_lp_Force_Field>
OPLS_2005

> <r_lp_Energy>
17.3952

> <b_lp_Chiralities_Consistent>
1

> <s_lp_Variant>
AV-unprocessed.smi:846-2

> <Gold.Version>
5.8.1

> <Gold.Id.Protein>
6NUR|6NUR_protein|mol2

> <Gold.PLP.Fitness>
39.5634

> <Gold.PLP.PLP>
-31.6969

> <Gold.PLP.part.hbond>
-4.0372

> <Gold.PLP.part.metal>
0.0000

> <Gold.PLP.part.buried>
-3.8539

> <Gold.PLP.part.nonpolar>
-24.5513

> <Gold.PLP.part.repulsive>
0.7216

> <Gold.PLP.ligand.clash>
0.0000

> <Gold.PLP.ligand.torsion>
0.4179

> <Gold.PLP.Chemscore.Hbond>
2.9002

> <Gold.PLP.Chemscore.CHOScore>
0.0000

> <Gold.PLP.Chemscore.Metal>
0.0000

> <Gold.Chemscore.Hbonds>
donor molecule, donor type, donor heavy atom, donor atom, acceptor molecule, acceptor atom, score
      L1  H    10    29       P1  7948  0.73
      L1  H    13    30       P1  7948  1.00
      P1  H  7989  7998       L1    19  0.24
      P1  H  7997  8010       L1    19  0.91

> <Gold.PLP.Chemscore.Internal.Correction>
0.0020

> <Gold.Rescore>
     Score         DG    S(hbond)    S(metal)    S(lipo)     H(rot)  DE(clash)    DE(int)     intcor
     14.20     -16.33       2.52        0.00      53.76       1.50       0.00       2.13       ----

> <Gold.Chemscore.Fitness>
14.2027

> <Gold.Chemscore.DG>
-16.3345

> <Gold.Chemscore.ZeroCoef>
-5.4800

> <Gold.Chemscore.Hbond>
2.5189

> <Gold.Chemscore.Metal>
0.0000

> <Gold.Chemscore.Lipo>
53.7583

> <Gold.Chemscore.Internal_Hbond>
0.0000

> <Gold.Chemscore.DEClash>
0.0000

> <Gold.Chemscore.DEInternal>
2.1318

> <Gold.Chemscore.Rot>
1.5033

> <Gold.Chemscore.Internal.Correction>
   9.000000E+99

> <Gold.Chemscore.Hbonds>
donor molecule, donor type, donor heavy atom, donor atom, acceptor molecule, acceptor atom, score
      L1  H    10    29       P1  7948  0.09
      L1  H    13    30       P1  7948  0.84
      P1  H  7989  7998       L1    19  0.02
      P1  H  7997  8010       L1    19  0.87

> <Gold.Chemscore.Hbond.Weighted>
-8.4132

> <Gold.Chemscore.Metal.Weighted>
-0.0000

> <Gold.Chemscore.Lipo.Weighted>
-6.2897

> <Gold.Chemscore.Internal_Hbond.Weighted>
0.0000

> <Gold.Chemscore.DEClash.Weighted>
0.0000

> <Gold.Chemscore.DEInternal.Weighted>
2.1318

> <Gold.Chemscore.Rot.Weighted>
3.8484

> <Gold.Chemscore.Internal.Correction.Weighted>
   9.000000E+99

> <Gold.Protein.RotatedTorsions>
[ 6907 6896 6895 6894 ] final   57.88 input  -60.11 | X-H torsion
[ 7974 7965 7964 7962 ] final -150.05 input  175.53 | X-H torsion
[ 8008 7997 7996 7995 ] final  121.70 input   59.86 | X-H torsion
[ 10167 10162 10161 10158 ] final   67.47 input  -65.29 | X-H torsion
[ 10718 10713 10712 10709 ] final -156.05 input   66.30 | X-H torsion
[ 10763 10752 10751 10750 ] final  -29.32 input  -60.55 | X-H torsion
[ 11005 11000 10999 10996 ] final   12.66 input  -57.11 | X-H torsion

> <Gold.Protein.ActiveResidues>
 VAL166  LYS551  ARG553  GLY616  TRP617  ASP618  TYR619  PRO620  LYS621  CYS622 
 ASP623  PHE694  ASN695  SER759  ASP760  ASP761  ALA762  ILE779  LEU786  VAL792 
 PHE793  MET794  SER795  GLU796  ALA797  LYS798  CYS799  TRP800  GLU811  SER814 

> <Gold.Protein.RotatedAtoms>
  152.3773  134.6645  160.0155 H   0  0  0  0  0  0  0  0  0  0  0  0  # atno 6907 bound_to 6896
  151.6919  133.3305  159.3253 H   0  0  0  0  0  0  0  0  0  0  0  0  # atno 6908 bound_to 6896
  150.7719  134.6627  159.6393 H   0  0  0  0  0  0  0  0  0  0  0  0  # atno 6909 bound_to 6896
  144.7930  140.4983  143.5759 H   0  0  0  0  0  0  0  0  0  0  0  0  # atno 7974 bound_to 7965
  156.2697  140.2802  156.1350 H   0  0  0  0  0  0  0  0  0  0  0  0  # atno 8008 bound_to 7997
  155.1014  140.0389  157.2715 H   0  0  0  0  0  0  0  0  0  0  0  0  # atno 8009 bound_to 7997
  154.6812  140.2609  155.6912 H   0  0  0  0  0  0  0  0  0  0  0  0  # atno 8010 bound_to 7997
  140.0892  144.5003  150.7110 H   0  0  0  0  0  0  0  0  0  0  0  0  # atno 10167 bound_to 10162
  156.5212  130.8479  151.2683 H   0  0  0  0  0  0  0  0  0  0  0  0  # atno 10718 bound_to 10713
  153.7627  135.6918  153.4922 H   0  0  0  0  0  0  0  0  0  0  0  0  # atno 10763 bound_to 10752
  153.1928  135.4465  155.0169 H   0  0  0  0  0  0  0  0  0  0  0  0  # atno 10764 bound_to 10752
  154.8147  135.3393  154.7141 H   0  0  0  0  0  0  0  0  0  0  0  0  # atno 10765 bound_to 10752
  140.4895  134.0854  155.7768 H   0  0  0  0  0  0  0  0  0  0  0  0  # atno 11005 bound_to 11000
  145.5745  139.1485  143.3270 LP  0  0  0  0  0  0  0  0  0  0  0  0  # atno 17320 bound_to 7965
  146.2189  140.5877  142.9026 LP  0  0  0  0  0  0  0  0  0  0  0  0  # atno 17321 bound_to 7965
  140.7037  143.2453  151.4788 LP  0  0  0  0  0  0  0  0  0  0  0  0  # atno 17342 bound_to 10162
  139.5734  144.1874  152.1869 LP  0  0  0  0  0  0  0  0  0  0  0  0  # atno 17343 bound_to 10162
  157.7436  130.9916  150.2609 LP  0  0  0  0  0  0  0  0  0  0  0  0  # atno 17370 bound_to 10713
  156.3147  130.3777  149.7629 LP  0  0  0  0  0  0  0  0  0  0  0  0  # atno 17371 bound_to 10713
  141.1491  133.9001  157.2142 LP  0  0  0  0  0  0  0  0  0  0  0  0  # atno 17394 bound_to 11000
  139.9778  135.0108  156.9674 LP  0  0  0  0  0  0  0  0  0  0  0  0  # atno 17395 bound_to 11000

$$$$
