AV-unprocessed.smi:33|AV-procd|sdf|201|dock9
  -GOLD-   2262015473D 1   1.00000     0.00000
 Structure written by MMmdl.
 67 72  0  0  0  0  0  0  0  0  1 V2000
  152.7586  132.1614  158.0398 O   0  0  0  0  0  0  0  0  0  0  0  0
  152.7493  131.4536  157.0305 C   0  0  0  0  0  0  0  0  0  0  0  0
  151.6432  130.8503  156.5536 O   0  0  0  0  0  0  0  0  0  0  0  0
  150.3706  131.4435  156.7532 C   0  0  0  0  0  0  0  0  0  0  0  0
  150.0637  132.3848  155.5823 C   0  0  2  0  0  0  0  0  0  0  0  0
  150.7074  133.6370  155.7556 O   0  0  0  0  0  0  0  0  0  0  0  0
  150.0755  134.5756  154.9432 C   0  0  2  0  0  0  0  0  0  0  0  0
  150.0938  135.8886  155.6535 N   0  0  0  0  0  0  0  0  0  0  0  0
  149.4131  136.2329  156.8002 C   0  0  0  0  0  0  0  0  0  0  0  0
  149.6053  137.4545  157.2194 N   0  0  0  0  0  0  0  0  0  0  0  0
  150.4815  137.9949  156.2869 C   0  0  0  0  0  0  0  0  0  0  0  0
  151.0969  139.2664  156.1293 C   0  0  0  0  0  0  0  0  0  0  0  0
  150.8880  140.2969  156.9823 N   0  0  0  0  0  0  0  0  0  0  0  0
  149.5319  140.8636  157.0285 C   0  0  0  0  0  0  0  0  0  0  0  0
  149.1505  141.4478  158.0446 O   0  0  0  0  0  0  0  0  0  0  0  0
  148.5951  140.6940  155.8660 C   0  0  0  0  0  0  0  0  0  0  0  0
  147.3487  140.0562  156.0504 C   0  0  0  0  0  0  0  0  0  0  0  0
  146.4592  139.9092  154.9685 C   0  0  0  0  0  0  0  0  0  0  0  0
  146.8020  140.4151  153.7001 C   0  0  0  0  0  0  0  0  0  0  0  0
  148.0310  141.0769  153.5158 C   0  0  0  0  0  0  0  0  0  0  0  0
  148.9212  141.2240  154.5971 C   0  0  0  0  0  0  0  0  0  0  0  0
  152.0357  140.7618  157.7754 C   0  0  0  0  0  0  0  0  0  0  0  0
  152.9566  139.9821  158.0269 O   0  0  0  0  0  0  0  0  0  0  0  0
  152.0632  142.1589  158.3283 C   0  0  0  0  0  0  0  0  0  0  0  0
  152.7771  142.4361  159.5148 C   0  0  0  0  0  0  0  0  0  0  0  0
  152.8135  143.7456  160.0319 C   0  0  0  0  0  0  0  0  0  0  0  0
  152.1539  144.7895  159.3554 C   0  0  0  0  0  0  0  0  0  0  0  0
  151.4647  144.5254  158.1566 C   0  0  0  0  0  0  0  0  0  0  0  0
  151.4262  143.2161  157.6398 C   0  0  0  0  0  0  0  0  0  0  0  0
  151.9270  139.4456  155.0689 N   0  0  0  0  0  0  0  0  0  0  0  0
  152.1395  138.4405  154.2147 C   0  0  0  0  0  0  0  0  0  0  0  0
  151.6330  137.2058  154.2363 N   0  0  0  0  0  0  0  0  0  0  0  0
  150.7988  137.0211  155.3007 C   0  0  0  0  0  0  0  0  0  0  0  0
  148.6321  134.0967  154.7061 C   0  0  1  0  0  0  0  0  0  0  0  0
  148.3650  133.8902  153.3336 O   0  0  0  0  0  0  0  0  0  0  0  0
  148.5879  132.7668  155.4489 C   0  0  2  0  0  0  0  0  0  0  0  0
  148.0322  132.9472  156.6482 F   0  0  0  0  0  0  0  0  0  0  0  0
  153.9626  131.1761  156.2086 C   0  0  0  0  0  0  0  0  0  0  0  0
  153.8687  130.2863  155.1129 C   0  0  0  0  0  0  0  0  0  0  0  0
  154.9981  130.0015  154.3209 C   0  0  0  0  0  0  0  0  0  0  0  0
  156.2357  130.6026  154.6152 C   0  0  0  0  0  0  0  0  0  0  0  0
  156.3426  131.4890  155.7027 C   0  0  0  0  0  0  0  0  0  0  0  0
  155.2142  131.7755  156.4956 C   0  0  0  0  0  0  0  0  0  0  0  0
  149.6159  130.6576  156.8040 H   0  0  0  0  0  0  0  0  0  0  0  0
  150.3468  131.9872  157.6990 H   0  0  0  0  0  0  0  0  0  0  0  0
  150.4036  131.9438  154.6433 H   0  0  0  0  0  0  0  0  0  0  0  0
  150.6431  134.7386  154.0255 H   0  0  0  0  0  0  0  0  0  0  0  0
  148.7659  135.5432  157.3223 H   0  0  0  0  0  0  0  0  0  0  0  0
  147.0746  139.6648  157.0196 H   0  0  0  0  0  0  0  0  0  0  0  0
  145.5128  139.4094  155.1124 H   0  0  0  0  0  0  0  0  0  0  0  0
  146.1195  140.3021  152.8708 H   0  0  0  0  0  0  0  0  0  0  0  0
  148.2900  141.4738  152.5453 H   0  0  0  0  0  0  0  0  0  0  0  0
  149.8592  141.7389  154.4454 H   0  0  0  0  0  0  0  0  0  0  0  0
  153.2865  141.6430  160.0430 H   0  0  0  0  0  0  0  0  0  0  0  0
  153.3481  143.9490  160.9481 H   0  0  0  0  0  0  0  0  0  0  0  0
  152.1820  145.7935  159.7523 H   0  0  0  0  0  0  0  0  0  0  0  0
  150.9656  145.3272  157.6327 H   0  0  0  0  0  0  0  0  0  0  0  0
  150.8973  143.0259  156.7169 H   0  0  0  0  0  0  0  0  0  0  0  0
  152.8103  138.6563  153.3963 H   0  0  0  0  0  0  0  0  0  0  0  0
  147.9067  134.8073  155.1062 H   0  0  0  0  0  0  0  0  0  0  0  0
  148.3713  134.7279  152.8965 H   0  0  0  0  0  0  0  0  0  0  0  0
  147.9962  132.0014  154.9453 H   0  0  0  0  0  0  0  0  0  0  0  0
  152.9293  129.8115  154.8682 H   0  0  0  0  0  0  0  0  0  0  0  0
  154.9142  129.3199  153.4871 H   0  0  0  0  0  0  0  0  0  0  0  0
  157.1015  130.3842  154.0077 H   0  0  0  0  0  0  0  0  0  0  0  0
  157.2922  131.9506  155.9305 H   0  0  0  0  0  0  0  0  0  0  0  0
  155.3317  132.4588  157.3240 H   0  0  0  0  0  0  0  0  0  0  0  0
  1  2  2  0  0  0  0
  2  3  1  0  0  0  0
  2 38  1  0  0  0  0
  3  4  1  0  0  0  0
  4  5  1  0  0  0  0
  4 44  1  0  0  0  0
  4 45  1  0  0  0  0
  5 36  1  0  0  0  0
  5  6  1  0  0  0  0
  5 46  1  0  0  0  0
  6  7  1  0  0  0  0
  7  8  1  0  0  0  0
  7 34  1  0  0  0  0
  7 47  1  0  0  0  0
  8 33  1  0  0  0  0
  8  9  1  0  0  0  0
  9 10  2  0  0  0  0
  9 48  1  0  0  0  0
 10 11  1  0  0  0  0
 11 33  2  0  0  0  0
 11 12  1  0  0  0  0
 12 13  1  0  0  0  0
 12 30  2  0  0  0  0
 13 14  1  0  0  0  0
 13 22  1  0  0  0  0
 14 15  2  0  0  0  0
 14 16  1  0  0  0  0
 16 21  1  0  0  0  0
 16 17  2  0  0  0  0
 17 18  1  0  0  0  0
 17 49  1  0  0  0  0
 18 19  2  0  0  0  0
 18 50  1  0  0  0  0
 19 20  1  0  0  0  0
 19 51  1  0  0  0  0
 20 21  2  0  0  0  0
 20 52  1  0  0  0  0
 21 53  1  0  0  0  0
 22 23  2  0  0  0  0
 22 24  1  0  0  0  0
 24 29  1  0  0  0  0
 24 25  2  0  0  0  0
 25 26  1  0  0  0  0
 25 54  1  0  0  0  0
 26 27  2  0  0  0  0
 26 55  1  0  0  0  0
 27 28  1  0  0  0  0
 27 56  1  0  0  0  0
 28 29  2  0  0  0  0
 28 57  1  0  0  0  0
 29 58  1  0  0  0  0
 30 31  1  0  0  0  0
 31 32  2  0  0  0  0
 31 59  1  0  0  0  0
 32 33  1  0  0  0  0
 34 35  1  0  0  0  0
 34 36  1  0  0  0  0
 34 60  1  0  0  0  0
 35 61  1  0  0  0  0
 36 37  1  0  0  0  0
 36 62  1  0  0  0  0
 38 43  1  0  0  0  0
 38 39  2  0  0  0  0
 39 40  1  0  0  0  0
 39 63  1  0  0  0  0
 40 41  2  0  0  0  0
 40 64  1  0  0  0  0
 41 42  1  0  0  0  0
 41 65  1  0  0  0  0
 42 43  2  0  0  0  0
 42 66  1  0  0  0  0
 43 67  1  0  0  0  0
M  END
> <s_m_source_file>
AV-unprocessed.smi

> <i_m_source_file_index>
33

> <i_lp_mmshare_version>
43012

> <i_f3d_flags>
0

> <s_epik_input>
W2NIXTFbY0hdW2NIXVtjSF1bY0hdYzFDKD1PKU9bQ0gyXVtDQEBIXTJPW0NASF0oW0NAQEhdKFtPSF0pW0NAQEhdMkYpbihbY0hdbjMpYyhjMzQpbltjSF1uYzROKEMoPU8pYzVbY0hdW2NIXVtjSF1bY0hdW2NIXTUpQyg9TyljNltjSF1bY0hdW2NIXVtjSF1bY0hdNg==

> <s_epik_cmdline>
J2VwaWtfcHl0aG9uJywgJy1waCcsICc3LjAnLCAnLXRuJywgJzgnLCAnLW1hJywgJzIwMCcsICctbWV0YWxfYmluZGluZycsICctaW1hZScsICc8aW5maWxlLm1hZT4nLCAnLW9tYWUnLCAnPG91dGZpbGUubWFlPic=

> <r_lp_tautomer_probability>
1

> <r_epik_Ionization_Penalty>
0.00067664

> <r_epik_Ionization_Penalty_Charging>
0

> <r_epik_Ionization_Penalty_Neutral>
0.00067664

> <r_epik_State_Penalty>
0.000428095

> <r_epik_Charging_Adjusted_Penalty>
0.000428095

> <i_epik_Tot_Q>
0

> <i_epik_Tot_abs_Q>
0

> <r_epik_Metal_State_Penalty>
-0

> <b_epik_Metal_Only>
0

> <s_epik_Chemistry_Notes>
This compound has an ester and may undergo hydrolysis at high or low pH. This compound contains an acetal/aminal-like group ( X-CH(R)-Y where X, Y are N, S, or O) that may be acid/base labile, releasing an aldehyde.

> <s_lp_Force_Field>
OPLS_2005

> <r_lp_Energy>
66.4626

> <b_lp_Chiralities_Consistent>
1

> <s_lp_Variant>
AV-unprocessed.smi:33-3

> <Gold.Version>
5.8.1

> <Gold.Id.Protein>
6NUR|6NUR_protein|mol2

> <Gold.PLP.Fitness>
75.0396

> <Gold.PLP.PLP>
-65.1406

> <Gold.PLP.part.hbond>
-4.9900

> <Gold.PLP.part.metal>
0.0000

> <Gold.PLP.part.buried>
-9.1439

> <Gold.PLP.part.nonpolar>
-52.7967

> <Gold.PLP.part.repulsive>
0.8886

> <Gold.PLP.ligand.clash>
0.0000

> <Gold.PLP.ligand.torsion>
4.0900

> <Gold.PLP.Chemscore.Hbond>
4.4845

> <Gold.PLP.Chemscore.CHOScore>
0.0000

> <Gold.PLP.Chemscore.Metal>
0.0000

> <Gold.Chemscore.Hbonds>
donor molecule, donor type, donor heavy atom, donor atom, acceptor molecule, acceptor atom, score
      L1  H    35    61       P1  7948  1.00
      P1  H  6896  6907       L1     1  1.00
      P1  H  7989  7998       L1    30  0.48
      P1  H  7997  8009       L1    23  1.00
      P1  H 10752 10765       L1    32  1.00

> <Gold.PLP.Chemscore.Internal.Correction>
4.6253

> <Gold.Rescore>
     Score         DG    S(hbond)    S(metal)    S(lipo)     H(rot)  DE(clash)    DE(int)     intcor
     22.15     -28.49       3.44        0.00     153.76       2.52       0.29       6.05       ----

> <Gold.Chemscore.Fitness>
22.1494

> <Gold.Chemscore.DG>
-28.4916

> <Gold.Chemscore.ZeroCoef>
-5.4800

> <Gold.Chemscore.Hbond>
3.4387

> <Gold.Chemscore.Metal>
0.0000

> <Gold.Chemscore.Lipo>
153.7571

> <Gold.Chemscore.Internal_Hbond>
0.0000

> <Gold.Chemscore.DEClash>
0.2935

> <Gold.Chemscore.DEInternal>
6.0487

> <Gold.Chemscore.Rot>
2.5247

> <Gold.Chemscore.Internal.Correction>
   9.000000E+99

> <Gold.Chemscore.Hbonds>
donor molecule, donor type, donor heavy atom, donor atom, acceptor molecule, acceptor atom, score
      L1  H    35    61       P1  7948  0.50
      P1  H  6896  6907       L1     1  1.00
      P1  H  7989  7998       L1    30  0.04
      P1  H  7997  8009       L1    23  0.94
      P1  H 10752 10765       L1    32  0.53

> <Gold.Chemscore.Hbond.Weighted>
-11.4853

> <Gold.Chemscore.Metal.Weighted>
-0.0000

> <Gold.Chemscore.Lipo.Weighted>
-17.9896

> <Gold.Chemscore.Internal_Hbond.Weighted>
0.0000

> <Gold.Chemscore.DEClash.Weighted>
0.2935

> <Gold.Chemscore.DEInternal.Weighted>
6.0487

> <Gold.Chemscore.Rot.Weighted>
6.4633

> <Gold.Chemscore.Internal.Correction.Weighted>
   9.000000E+99

> <Gold.Protein.RotatedTorsions>
[ 6907 6896 6895 6894 ] final  158.65 input  -60.11 | X-H torsion
[ 7974 7965 7964 7962 ] final    9.21 input  175.53 | X-H torsion
[ 8008 7997 7996 7995 ] final  160.63 input   59.86 | X-H torsion
[ 10167 10162 10161 10158 ] final  -22.65 input  -65.29 | X-H torsion
[ 10718 10713 10712 10709 ] final   -2.11 input   66.30 | X-H torsion
[ 10763 10752 10751 10750 ] final  159.13 input  -60.55 | X-H torsion
[ 11005 11000 10999 10996 ] final    7.61 input  -57.11 | X-H torsion

> <Gold.Protein.ActiveResidues>
 VAL166  LYS551  ARG553  GLY616  TRP617  ASP618  TYR619  PRO620  LYS621  CYS622 
 ASP623  PHE694  ASN695  SER759  ASP760  ASP761  ALA762  ILE779  LEU786  VAL792 
 PHE793  MET794  SER795  GLU796  ALA797  LYS798  CYS799  TRP800  GLU811  SER814 

> <Gold.Protein.RotatedAtoms>
  151.9972  133.3812  159.4167 H   0  0  0  0  0  0  0  0  0  0  0  0  # atno 6907 bound_to 6896
  150.6914  134.3873  159.5070 H   0  0  0  0  0  0  0  0  0  0  0  0  # atno 6908 bound_to 6896
  152.1615  134.8908  160.0592 H   0  0  0  0  0  0  0  0  0  0  0  0  # atno 6909 bound_to 6896
  146.2406  139.9818  142.8435 H   0  0  0  0  0  0  0  0  0  0  0  0  # atno 7974 bound_to 7965
  156.2159  140.1799  156.7590 H   0  0  0  0  0  0  0  0  0  0  0  0  # atno 8008 bound_to 7997
  154.5791  140.0669  156.9107 H   0  0  0  0  0  0  0  0  0  0  0  0  # atno 8009 bound_to 7997
  155.2535  140.3330  155.4282 H   0  0  0  0  0  0  0  0  0  0  0  0  # atno 8010 bound_to 7997
  140.7286  143.4515  151.0509 H   0  0  0  0  0  0  0  0  0  0  0  0  # atno 10167 bound_to 10162
  156.7957  130.5376  149.5729 H   0  0  0  0  0  0  0  0  0  0  0  0  # atno 10718 bound_to 10713
  154.2269  135.2780  155.2904 H   0  0  0  0  0  0  0  0  0  0  0  0  # atno 10763 bound_to 10752
  154.5656  135.5634  153.7051 H   0  0  0  0  0  0  0  0  0  0  0  0  # atno 10764 bound_to 10752
  153.0029  135.6308  154.2410 H   0  0  0  0  0  0  0  0  0  0  0  0  # atno 10765 bound_to 10752
  140.5463  134.0326  155.7921 H   0  0  0  0  0  0  0  0  0  0  0  0  # atno 11005 bound_to 11000
  145.1585  140.9660  143.4391 LP  0  0  0  0  0  0  0  0  0  0  0  0  # atno 17320 bound_to 7965
  145.0139  139.3485  143.6106 LP  0  0  0  0  0  0  0  0  0  0  0  0  # atno 17321 bound_to 7965
  139.8192  143.7844  152.3176 LP  0  0  0  0  0  0  0  0  0  0  0  0  # atno 17342 bound_to 10162
  139.7920  144.7406  150.9941 LP  0  0  0  0  0  0  0  0  0  0  0  0  # atno 17343 bound_to 10162
  156.1132  130.6055  151.0080 LP  0  0  0  0  0  0  0  0  0  0  0  0  # atno 17370 bound_to 10713
  157.6579  131.0886  150.7906 LP  0  0  0  0  0  0  0  0  0  0  0  0  # atno 17371 bound_to 10713
  141.1198  133.9480  157.2752 LP  0  0  0  0  0  0  0  0  0  0  0  0  # atno 17394 bound_to 11000
  139.9478  135.0181  156.8904 LP  0  0  0  0  0  0  0  0  0  0  0  0  # atno 17395 bound_to 11000

$$$$
