AV-unprocessed.smi:2697|AV-procd|sdf|10415|dock2
  -GOLD-   2272014453D 1   1.00000     0.00000
 Structure written by MMmdl.
 32 33  0  0  0  0  0  0  0  0  2 V2000
  150.9447  143.1359  158.4383 C   0  0  0  0  0  0  0  0  0  0  0  0
  151.0108  142.0680  157.4639 N   0  0  0  0  0  0  0  0  0  0  0  0
  151.9243  141.0386  157.3815 C   0  0  0  0  0  0  0  0  0  0  0  0
  151.5508  140.3004  156.2966 C   0  0  0  0  0  0  0  0  0  0  0  0
  152.2007  139.0338  155.8253 C   0  0  0  0  0  0  0  0  0  0  0  0
  151.6104  137.9019  156.2181 N   0  0  0  0  0  0  0  0  0  0  0  0
  153.2296  139.0476  155.1533 O   0  0  0  0  0  0  0  0  0  0  0  0
  150.3906  140.9340  155.7603 C   0  0  0  0  0  0  0  0  0  0  0  0
  149.5316  140.5619  154.5728 C   0  0  2  0  0  0  0  0  0  0  0  0
  148.0781  141.0509  154.7291 C   0  0  0  0  0  0  0  0  0  0  0  0
  147.2429  140.6449  153.5048 C   0  0  0  0  0  0  0  0  0  0  0  0
  147.3370  139.1306  153.2514 C   0  0  0  0  0  0  0  0  0  0  0  0
  148.7478  138.7087  153.1093 N   0  3  0  0  0  0  0  0  0  0  0  0
  149.5752  139.0472  154.2882 C   0  0  0  0  0  0  0  0  0  0  0  0
  150.0769  142.0027  156.4855 N   0  0  0  0  0  0  0  0  0  0  0  0
  151.8501  143.1448  159.0459 H   0  0  0  0  0  0  0  0  0  0  0  0
  150.0826  142.9865  159.0887 H   0  0  0  0  0  0  0  0  0  0  0  0
  150.8498  144.0970  157.9316 H   0  0  0  0  0  0  0  0  0  0  0  0
  152.7319  140.9199  158.0892 H   0  0  0  0  0  0  0  0  0  0  0  0
  151.9909  137.0098  155.9379 H   0  0  0  0  0  0  0  0  0  0  0  0
  150.7820  137.9427  156.7943 H   0  0  0  0  0  0  0  0  0  0  0  0
  149.9230  141.0618  153.6881 H   0  0  0  0  0  0  0  0  0  0  0  0
  147.6308  140.6238  155.6278 H   0  0  0  0  0  0  0  0  0  0  0  0
  148.0551  142.1341  154.8531 H   0  0  0  0  0  0  0  0  0  0  0  0
  146.2019  140.9351  153.6509 H   0  0  0  0  0  0  0  0  0  0  0  0
  147.5943  141.1865  152.6255 H   0  0  0  0  0  0  0  0  0  0  0  0
  146.8781  138.5781  154.0723 H   0  0  0  0  0  0  0  0  0  0  0  0
  146.7938  138.8646  152.3444 H   0  0  0  0  0  0  0  0  0  0  0  0
  148.7798  137.7098  152.9628 H   0  0  0  0  0  0  0  0  0  0  0  0
  150.6003  138.7259  154.1016 H   0  0  0  0  0  0  0  0  0  0  0  0
  149.2145  138.4815  155.1485 H   0  0  0  0  0  0  0  0  0  0  0  0
  149.1405  139.1695  152.3006 H   0  0  0  0  0  0  0  0  0  0  0  0
  1  2  1  0  0  0  0
  1 16  1  0  0  0  0
  1 17  1  0  0  0  0
  1 18  1  0  0  0  0
  2 15  1  0  0  0  0
  2  3  1  0  0  0  0
  3  4  2  0  0  0  0
  3 19  1  0  0  0  0
  4  5  1  0  0  0  0
  4  8  1  0  0  0  0
  5  6  1  0  0  0  0
  5  7  2  0  0  0  0
  6 20  1  0  0  0  0
  6 21  1  0  0  0  0
  8  9  1  0  0  0  0
  8 15  2  0  0  0  0
  9 14  1  0  0  0  0
  9 10  1  0  0  0  0
  9 22  1  0  0  0  0
 10 11  1  0  0  0  0
 10 23  1  0  0  0  0
 10 24  1  0  0  0  0
 11 12  1  0  0  0  0
 11 25  1  0  0  0  0
 11 26  1  0  0  0  0
 12 13  1  0  0  0  0
 12 27  1  0  0  0  0
 12 28  1  0  0  0  0
 13 14  1  0  0  0  0
 13 29  1  0  0  0  0
 13 32  1  0  0  0  0
 14 30  1  0  0  0  0
 14 31  1  0  0  0  0
M  CHG  1  13   1
M  END
> <s_m_source_file>
AV-unprocessed.smi

> <i_m_source_file_index>
2697

> <i_lp_mmshare_version>
43012

> <i_f3d_flags>
0

> <s_epik_input>
W0NIM11uMVtjSF1jKEMoPU8pW05IMl0pYyhuMSlbQ0BASF0yW0NIMl1bQ0gyXVtDSDJdW05IXVtDSDJdMg==

> <s_epik_cmdline>
J2VwaWtfcHl0aG9uJywgJy1waCcsICc3LjAnLCAnLXRuJywgJzgnLCAnLW1hJywgJzIwMCcsICctbWV0YWxfYmluZGluZycsICctaW1hZScsICc8aW5maWxlLm1hZT4nLCAnLW9tYWUnLCAnPG91dGZpbGUubWFlPic=

> <r_lp_tautomer_probability>
1

> <r_epik_Ionization_Penalty>
0.000158942

> <r_epik_Ionization_Penalty_Charging>
0.000157527

> <r_epik_Ionization_Penalty_Neutral>
1.41498e-06

> <r_epik_State_Penalty>
-0

> <r_epik_Charging_Adjusted_Penalty>
0.000157527

> <i_epik_Tot_Q>
1

> <i_epik_Tot_abs_Q>
1

> <r_epik_Metal_State_Penalty>
-0

> <b_epik_Metal_Only>
0

> <s_lp_Force_Field>
OPLS_2005

> <r_lp_Energy>
9.94433

> <b_lp_Chiralities_Consistent>
1

> <s_lp_Variant>
AV-unprocessed.smi:2697-1

> <Gold.Version>
5.8.1

> <Gold.Id.Protein>
6NUR|6NUR_protein|mol2

> <Gold.PLP.Fitness>
36.8007

> <Gold.PLP.PLP>
-29.3132

> <Gold.PLP.part.hbond>
-2.9893

> <Gold.PLP.part.metal>
0.0000

> <Gold.PLP.part.buried>
-4.3861

> <Gold.PLP.part.nonpolar>
-23.4221

> <Gold.PLP.part.repulsive>
0.5852

> <Gold.PLP.ligand.clash>
0.0000

> <Gold.PLP.ligand.torsion>
2.1881

> <Gold.PLP.Chemscore.Hbond>
3.9433

> <Gold.PLP.Chemscore.CHOScore>
0.0000

> <Gold.PLP.Chemscore.Metal>
0.0000

> <Gold.Chemscore.Hbonds>
donor molecule, donor type, donor heavy atom, donor atom, acceptor molecule, acceptor atom, score
      L1  H    13    29       P1  7948  2.00
      L1  H    13    32       P1  7957  0.91
      P1  H  7997  8008       L1     7  1.00

> <Gold.PLP.Chemscore.Internal.Correction>
0.0341

> <Gold.Rescore>
     Score         DG    S(hbond)    S(metal)    S(lipo)     H(rot)  DE(clash)    DE(int)     intcor
     17.05     -19.24       2.79        0.00      59.72       1.00       0.04       2.15       ----

> <Gold.Chemscore.Fitness>
17.0549

> <Gold.Chemscore.DG>
-19.2363

> <Gold.Chemscore.ZeroCoef>
-5.4800

> <Gold.Chemscore.Hbond>
2.7931

> <Gold.Chemscore.Metal>
0.0000

> <Gold.Chemscore.Lipo>
59.7216

> <Gold.Chemscore.Internal_Hbond>
0.0000

> <Gold.Chemscore.DEClash>
0.0354

> <Gold.Chemscore.DEInternal>
2.1461

> <Gold.Chemscore.Rot>
1.0000

> <Gold.Chemscore.Internal.Correction>
   9.000000E+99

> <Gold.Chemscore.Hbonds>
donor molecule, donor type, donor heavy atom, donor atom, acceptor molecule, acceptor atom, score
      L1  H    13    29       P1  7948  0.94
      L1  H    13    32       P1  7957  0.88
      P1  H  7997  8008       L1     7  0.55

> <Gold.Chemscore.Hbond.Weighted>
-9.3289

> <Gold.Chemscore.Metal.Weighted>
-0.0000

> <Gold.Chemscore.Lipo.Weighted>
-6.9874

> <Gold.Chemscore.Internal_Hbond.Weighted>
0.0000

> <Gold.Chemscore.DEClash.Weighted>
0.0354

> <Gold.Chemscore.DEInternal.Weighted>
2.1461

> <Gold.Chemscore.Rot.Weighted>
2.5600

> <Gold.Chemscore.Internal.Correction.Weighted>
   9.000000E+99

> <Gold.Protein.RotatedTorsions>
[ 6907 6896 6895 6894 ] final  -57.99 input  -60.11 | X-H torsion
[ 7974 7965 7964 7962 ] final  148.46 input  175.53 | X-H torsion
[ 8008 7997 7996 7995 ] final  -26.10 input   59.86 | X-H torsion
[ 10167 10162 10161 10158 ] final -165.34 input  -65.29 | X-H torsion
[ 10718 10713 10712 10709 ] final  135.44 input   66.30 | X-H torsion
[ 10763 10752 10751 10750 ] final  111.70 input  -60.55 | X-H torsion
[ 11005 11000 10999 10996 ] final -134.81 input  -57.11 | X-H torsion

> <Gold.Protein.ActiveResidues>
 VAL166  LYS551  ARG553  GLY616  TRP617  ASP618  TYR619  PRO620  LYS621  CYS622 
 ASP623  PHE694  ASN695  SER759  ASP760  ASP761  ALA762  ILE779  LEU786  VAL792 
 PHE793  MET794  SER795  GLU796  ALA797  LYS798  CYS799  TRP800  GLU811  SER814 

> <Gold.Protein.RotatedAtoms>
  150.8042  134.7157  159.6628 H   0  0  0  0  0  0  0  0  0  0  0  0  # atno 6907 bound_to 6896
  152.4161  134.6036  160.0016 H   0  0  0  0  0  0  0  0  0  0  0  0  # atno 6908 bound_to 6896
  151.6264  133.3298  159.3135 H   0  0  0  0  0  0  0  0  0  0  0  0  # atno 6909 bound_to 6896
  144.8512  139.6157  143.5973 H   0  0  0  0  0  0  0  0  0  0  0  0  # atno 7974 bound_to 7965
  154.4442  140.1908  156.0723 H   0  0  0  0  0  0  0  0  0  0  0  0  # atno 8008 bound_to 7997
  156.0501  140.3309  155.7315 H   0  0  0  0  0  0  0  0  0  0  0  0  # atno 8009 bound_to 7997
  155.5569  140.0600  157.2828 H   0  0  0  0  0  0  0  0  0  0  0  0  # atno 8010 bound_to 7997
  139.6189  144.0665  152.1914 H   0  0  0  0  0  0  0  0  0  0  0  0  # atno 10167 bound_to 10162
  157.4570  131.1070  150.9965 H   0  0  0  0  0  0  0  0  0  0  0  0  # atno 10718 bound_to 10713
  153.4671  135.3709  155.2371 H   0  0  0  0  0  0  0  0  0  0  0  0  # atno 10763 bound_to 10752
  154.8757  135.3922  154.3855 H   0  0  0  0  0  0  0  0  0  0  0  0  # atno 10764 bound_to 10752
  153.4438  135.7084  153.6216 H   0  0  0  0  0  0  0  0  0  0  0  0  # atno 10765 bound_to 10752
  140.8956  134.1756  157.4497 H   0  0  0  0  0  0  0  0  0  0  0  0  # atno 11005 bound_to 11000
  146.2786  139.6817  142.9245 LP  0  0  0  0  0  0  0  0  0  0  0  0  # atno 17320 bound_to 7965
  145.4497  141.0427  143.2811 LP  0  0  0  0  0  0  0  0  0  0  0  0  # atno 17321 bound_to 7965
  140.0302  144.6087  150.7494 LP  0  0  0  0  0  0  0  0  0  0  0  0  # atno 17342 bound_to 10162
  140.7369  143.2758  151.3745 LP  0  0  0  0  0  0  0  0  0  0  0  0  # atno 17343 bound_to 10162
  157.0775  130.5889  149.5414 LP  0  0  0  0  0  0  0  0  0  0  0  0  # atno 17370 bound_to 10713
  156.0012  130.5091  150.7668 LP  0  0  0  0  0  0  0  0  0  0  0  0  # atno 17371 bound_to 10713
  139.8735  134.9876  156.5378 LP  0  0  0  0  0  0  0  0  0  0  0  0  # atno 17394 bound_to 11000
  140.8294  133.8291  155.8969 LP  0  0  0  0  0  0  0  0  0  0  0  0  # atno 17395 bound_to 11000

$$$$
