AV-unprocessed.smi:623|AV-procd|sdf|3098|dock7
  -GOLD-   22720 0 13D 1   1.00000     0.00000
 Structure written by MMmdl.
 44 46  0  0  0  0  0  0  0  0  2 V2000
  144.7023  132.1446  151.9691 C   0  0  0  0  0  0  0  0  0  0  0  0
  145.2076  133.5428  151.5137 C   0  0  0  0  0  0  0  0  0  0  0  0
  145.9774  133.2930  150.1868 C   0  0  0  0  0  0  0  0  0  0  0  0
  144.1002  134.6109  151.4098 C   0  0  1  0  0  0  0  0  0  0  0  0
  143.5947  134.7562  152.8620 C   0  0  0  0  0  0  0  0  0  0  0  0
  144.8825  134.5579  153.6851 C   0  0  0  0  0  0  0  0  0  0  0  0
  145.9671  134.3697  152.5871 C   0  0  1  0  0  0  0  0  0  0  0  0
  147.2657  133.7445  153.1240 C   0  0  0  0  0  0  0  0  0  0  0  0
  146.1877  135.7398  151.8754 C   0  0  2  0  0  0  0  0  0  0  0  0
  146.4306  136.8477  152.7984 N   0  0  0  0  0  0  0  0  0  0  0  0
  146.7467  138.0998  152.4375 C   0  0  0  0  0  0  0  0  0  0  0  0
  146.8518  138.4552  151.2628 O   0  0  0  0  0  0  0  0  0  0  0  0
  146.9417  139.0968  153.5884 C   0  0  0  0  0  0  0  0  0  0  0  0
  148.3282  139.1604  154.0779 N   0  0  0  0  0  0  0  0  0  0  0  0
  148.8722  137.9955  154.6467 C   0  0  0  0  0  0  0  0  0  0  0  0
  150.1303  137.9592  155.1256 C   0  0  0  0  0  0  0  0  0  0  0  0
  150.9353  139.1714  155.0427 C   0  0  0  0  0  0  0  0  0  0  0  0
  152.0879  139.1552  155.4704 O   0  0  0  0  0  0  0  0  0  0  0  0
  150.3610  140.2780  154.4864 N   0  5  0  0  0  0  0  0  0  0  0  0
  149.0785  140.3013  154.0069 C   0  0  0  0  0  0  0  0  0  0  0  0
  148.5779  141.3122  153.5128 O   0  0  0  0  0  0  0  0  0  0  0  0
  144.8728  135.9057  151.0742 C   0  0  0  0  0  0  0  0  0  0  0  0
  144.0644  131.7006  151.2042 H   0  0  0  0  0  0  0  0  0  0  0  0
  144.1230  132.1384  152.8897 H   0  0  0  0  0  0  0  0  0  0  0  0
  145.5381  131.4617  152.1231 H   0  0  0  0  0  0  0  0  0  0  0  0
  146.3980  134.1809  149.7207 H   0  0  0  0  0  0  0  0  0  0  0  0
  145.3208  132.8397  149.4435 H   0  0  0  0  0  0  0  0  0  0  0  0
  146.8068  132.6029  150.3442 H   0  0  0  0  0  0  0  0  0  0  0  0
  143.3068  134.3853  150.6965 H   0  0  0  0  0  0  0  0  0  0  0  0
  143.1359  135.7286  153.0448 H   0  0  0  0  0  0  0  0  0  0  0  0
  142.8485  133.9999  153.1060 H   0  0  0  0  0  0  0  0  0  0  0  0
  145.0728  135.3932  154.3582 H   0  0  0  0  0  0  0  0  0  0  0  0
  144.8029  133.6774  154.3227 H   0  0  0  0  0  0  0  0  0  0  0  0
  147.7239  134.3848  153.8780 H   0  0  0  0  0  0  0  0  0  0  0  0
  147.9957  133.5996  152.3276 H   0  0  0  0  0  0  0  0  0  0  0  0
  147.0793  132.7747  153.5854 H   0  0  0  0  0  0  0  0  0  0  0  0
  147.0402  135.6796  151.1972 H   0  0  0  0  0  0  0  0  0  0  0  0
  146.3663  136.6416  153.7846 H   0  0  0  0  0  0  0  0  0  0  0  0
  146.6177  140.0799  153.2440 H   0  0  0  0  0  0  0  0  0  0  0  0
  146.2643  138.8437  154.4062 H   0  0  0  0  0  0  0  0  0  0  0  0
  148.2074  137.1447  154.6757 H   0  0  0  0  0  0  0  0  0  0  0  0
  150.5319  137.0568  155.5625 H   0  0  0  0  0  0  0  0  0  0  0  0
  145.0741  135.9861  150.0059 H   0  0  0  0  0  0  0  0  0  0  0  0
  144.3091  136.7973  151.3529 H   0  0  0  0  0  0  0  0  0  0  0  0
  1  2  1  0  0  0  0
  1 23  1  0  0  0  0
  1 24  1  0  0  0  0
  1 25  1  0  0  0  0
  2  7  1  0  0  0  0
  2  3  1  0  0  0  0
  2  4  1  0  0  0  0
  3 26  1  0  0  0  0
  3 27  1  0  0  0  0
  3 28  1  0  0  0  0
  4 22  1  0  0  0  0
  4  5  1  0  0  0  0
  4 29  1  0  0  0  0
  5  6  1  0  0  0  0
  5 30  1  0  0  0  0
  5 31  1  0  0  0  0
  6  7  1  0  0  0  0
  6 32  1  0  0  0  0
  6 33  1  0  0  0  0
  7  8  1  0  0  0  0
  7  9  1  0  0  0  0
  8 34  1  0  0  0  0
  8 35  1  0  0  0  0
  8 36  1  0  0  0  0
  9 10  1  0  0  0  0
  9 22  1  0  0  0  0
  9 37  1  0  0  0  0
 10 11  1  0  0  0  0
 10 38  1  0  0  0  0
 11 12  2  0  0  0  0
 11 13  1  0  0  0  0
 13 14  1  0  0  0  0
 13 39  1  0  0  0  0
 13 40  1  0  0  0  0
 14 20  1  0  0  0  0
 14 15  1  0  0  0  0
 15 16  2  0  0  0  0
 15 41  1  0  0  0  0
 16 17  1  0  0  0  0
 16 42  1  0  0  0  0
 17 18  2  0  0  0  0
 17 19  1  0  0  0  0
 19 20  1  0  0  0  0
 20 21  2  0  0  0  0
 22 43  1  0  0  0  0
 22 44  1  0  0  0  0
M  CHG  1  19  -1
M  END
> <s_m_source_file>
AV-unprocessed.smi

> <i_m_source_file_index>
623

> <i_lp_mmshare_version>
43012

> <i_f3d_flags>
0

> <s_epik_input>
W0NIM11bQ0BdMTJDKFtDSDNdKShbQ0gzXSlbQ0BIXShbQ0gyXVtDSDJdMSlbQ0gyXVtDQEBIXTJbTkhdQyg9TylbQ0gyXW4zW2NIXVtjSF1jKD1PKVtuSF1jMz1P

> <s_epik_cmdline>
J2VwaWtfcHl0aG9uJywgJy1waCcsICc3LjAnLCAnLXRuJywgJzgnLCAnLW1hJywgJzIwMCcsICctbWV0YWxfYmluZGluZycsICctaW1hZScsICc8aW5maWxlLm1hZT4nLCAnLW9tYWUnLCAnPG91dGZpbGUubWFlPic=

> <r_lp_tautomer_probability>
0.999537

> <r_epik_Ionization_Penalty>
3.12624

> <r_epik_Ionization_Penalty_Charging>
3.01273e-08

> <r_epik_Ionization_Penalty_Neutral>
3.12624

> <r_epik_State_Penalty>
3.12534

> <r_epik_Charging_Adjusted_Penalty>
3.12534

> <i_epik_Tot_Q>
-1

> <i_epik_Tot_abs_Q>
1

> <r_epik_Metal_State_Penalty>
0.46406

> <b_epik_Metal_Only>
1

> <s_lp_Force_Field>
OPLS_2005

> <r_lp_Energy>
65.8638

> <b_lp_Chiralities_Consistent>
1

> <s_lp_Variant>
AV-unprocessed.smi:623-8

> <Gold.Version>
5.8.1

> <Gold.Id.Protein>
6NUR|6NUR_protein|mol2

> <Gold.PLP.Fitness>
35.9745

> <Gold.PLP.PLP>
-28.4153

> <Gold.PLP.part.hbond>
-4.0000

> <Gold.PLP.part.metal>
0.0000

> <Gold.PLP.part.buried>
2.7500

> <Gold.PLP.part.nonpolar>
-28.5883

> <Gold.PLP.part.repulsive>
2.1709

> <Gold.PLP.ligand.clash>
0.0000

> <Gold.PLP.ligand.torsion>
0.4398

> <Gold.PLP.Chemscore.Hbond>
2.8089

> <Gold.PLP.Chemscore.CHOScore>
0.0000

> <Gold.PLP.Chemscore.Metal>
0.0000

> <Gold.Chemscore.Hbonds>
donor molecule, donor type, donor heavy atom, donor atom, acceptor molecule, acceptor atom, score
      P1  H  7954  7966       L1    12  1.00
      P1  H  7989  7998       L1    19  1.00
      P1  H  8011  8017       L1    21  0.83

> <Gold.PLP.Chemscore.Internal.Correction>
0.0123

> <Gold.Rescore>
     Score         DG    S(hbond)    S(metal)    S(lipo)     H(rot)  DE(clash)    DE(int)     intcor
     11.00     -18.28       2.79        0.00      65.60       1.63       6.75       0.53       ----

> <Gold.Chemscore.Fitness>
10.9999

> <Gold.Chemscore.DG>
-18.2838

> <Gold.Chemscore.ZeroCoef>
-5.4800

> <Gold.Chemscore.Hbond>
2.7864

> <Gold.Chemscore.Metal>
0.0000

> <Gold.Chemscore.Lipo>
65.6013

> <Gold.Chemscore.Internal_Hbond>
0.0000

> <Gold.Chemscore.DEClash>
6.7538

> <Gold.Chemscore.DEInternal>
0.5301

> <Gold.Chemscore.Rot>
1.6322

> <Gold.Chemscore.Internal.Correction>
   9.000000E+99

> <Gold.Chemscore.Hbonds>
donor molecule, donor type, donor heavy atom, donor atom, acceptor molecule, acceptor atom, score
      P1  H  7954  7966       L1    12  0.96
      P1  H  7989  7998       L1    19  0.32
      P1  H  8011  8017       L1    21  0.73

> <Gold.Chemscore.Hbond.Weighted>
-9.3067

> <Gold.Chemscore.Metal.Weighted>
-0.0000

> <Gold.Chemscore.Lipo.Weighted>
-7.6753

> <Gold.Chemscore.Internal_Hbond.Weighted>
0.0000

> <Gold.Chemscore.DEClash.Weighted>
6.7538

> <Gold.Chemscore.DEInternal.Weighted>
0.5301

> <Gold.Chemscore.Rot.Weighted>
4.1783

> <Gold.Chemscore.Internal.Correction.Weighted>
   9.000000E+99

> <Gold.Protein.RotatedTorsions>
[ 6907 6896 6895 6894 ] final  -93.28 input  -60.11 | X-H torsion
[ 7974 7965 7964 7962 ] final  -74.31 input  175.53 | X-H torsion
[ 8008 7997 7996 7995 ] final   39.23 input   59.86 | X-H torsion
[ 10167 10162 10161 10158 ] final  -59.75 input  -65.29 | X-H torsion
[ 10718 10713 10712 10709 ] final   62.06 input   66.30 | X-H torsion
[ 10763 10752 10751 10750 ] final  103.24 input  -60.55 | X-H torsion
[ 11005 11000 10999 10996 ] final   29.97 input  -57.11 | X-H torsion

> <Gold.Protein.ActiveResidues>
 VAL166  LYS551  ARG553  GLY616  TRP617  ASP618  TYR619  PRO620  LYS621  CYS622 
 ASP623  PHE694  ASN695  SER759  ASP760  ASP761  ALA762  ILE779  LEU786  VAL792 
 PHE793  MET794  SER795  GLU796  ALA797  LYS798  CYS799  TRP800  GLU811  SER814 

> <Gold.Protein.RotatedAtoms>
  150.6920  134.1991  159.4314 H   0  0  0  0  0  0  0  0  0  0  0  0  # atno 6907 bound_to 6896
  151.9958  134.9952  160.0572 H   0  0  0  0  0  0  0  0  0  0  0  0  # atno 6908 bound_to 6896
  152.1625  133.4556  159.4905 H   0  0  0  0  0  0  0  0  0  0  0  0  # atno 6909 bound_to 6896
  145.6407  140.9311  143.1037 H   0  0  0  0  0  0  0  0  0  0  0  0  # atno 7974 bound_to 7965
  155.2332  140.3340  155.4301 H   0  0  0  0  0  0  0  0  0  0  0  0  # atno 8008 bound_to 7997
  156.2286  140.1840  156.7346 H   0  0  0  0  0  0  0  0  0  0  0  0  # atno 8009 bound_to 7997
  154.5940  140.0633  156.9263 H   0  0  0  0  0  0  0  0  0  0  0  0  # atno 8010 bound_to 7997
  140.6115  143.2389  151.5697 H   0  0  0  0  0  0  0  0  0  0  0  0  # atno 10167 bound_to 10162
  157.5873  130.9029  149.9540 H   0  0  0  0  0  0  0  0  0  0  0  0  # atno 10718 bound_to 10713
  153.3500  135.3983  155.1639 H   0  0  0  0  0  0  0  0  0  0  0  0  # atno 10763 bound_to 10752
  154.8660  135.3654  154.5234 H   0  0  0  0  0  0  0  0  0  0  0  0  # atno 10764 bound_to 10752
  153.5685  135.7079  153.5575 H   0  0  0  0  0  0  0  0  0  0  0  0  # atno 10765 bound_to 10752
  140.2993  134.2775  155.7757 H   0  0  0  0  0  0  0  0  0  0  0  0  # atno 11005 bound_to 11000
  144.7158  139.8201  143.7399 LP  0  0  0  0  0  0  0  0  0  0  0  0  # atno 17320 bound_to 7965
  146.1283  139.4313  143.0185 LP  0  0  0  0  0  0  0  0  0  0  0  0  # atno 17321 bound_to 7965
  139.5365  144.2766  152.1262 LP  0  0  0  0  0  0  0  0  0  0  0  0  # atno 17342 bound_to 10162
  140.1967  144.4699  150.6452 LP  0  0  0  0  0  0  0  0  0  0  0  0  # atno 17343 bound_to 10162
  156.0924  130.3662  150.0370 LP  0  0  0  0  0  0  0  0  0  0  0  0  # atno 17370 bound_to 10713
  156.8499  130.9455  151.3626 LP  0  0  0  0  0  0  0  0  0  0  0  0  # atno 17371 bound_to 10713
  141.2131  133.7635  156.9742 LP  0  0  0  0  0  0  0  0  0  0  0  0  # atno 17394 bound_to 11000
  140.1124  134.9468  157.2085 LP  0  0  0  0  0  0  0  0  0  0  0  0  # atno 17395 bound_to 11000

$$$$
