AV-unprocessed.smi:412|AV-procd|sdf|2510|dock2
  -GOLD-   2262022463D 1   1.00000     0.00000
 Structure written by MMmdl.
 36 38  0  0  0  0  0  0  0  0  1 V2000
  153.8364  140.0119  160.2285 C   0  0  0  0  0  0  0  0  0  0  0  0
  152.9675  140.9514  159.5299 N   0  0  0  0  0  0  0  0  0  0  0  0
  152.4295  140.8035  158.2962 C   0  0  0  0  0  0  0  0  0  0  0  0
  152.5843  139.8373  157.5498 O   0  0  0  0  0  0  0  0  0  0  0  0
  151.6895  141.9054  158.0278 N   0  0  0  0  0  0  0  0  0  0  0  0
  150.9219  142.1643  156.8116 C   0  0  0  0  0  0  0  0  0  0  0  0
  150.2783  140.8796  156.2531 C   0  0  2  0  0  0  0  0  0  0  0  0
  151.1686  140.2915  155.3252 O   0  0  0  0  0  0  0  0  0  0  0  0
  148.9314  141.1828  155.6144 C   0  0  0  0  0  0  0  0  0  0  0  0
  147.8680  141.6626  156.4089 C   0  0  0  0  0  0  0  0  0  0  0  0
  146.6206  141.9561  155.8239 C   0  0  0  0  0  0  0  0  0  0  0  0
  146.4304  141.7741  154.4406 C   0  0  0  0  0  0  0  0  0  0  0  0
  147.4890  141.3011  153.6417 C   0  0  0  0  0  0  0  0  0  0  0  0
  148.7363  141.0077  154.2262 C   0  0  0  0  0  0  0  0  0  0  0  0
  151.7499  142.7779  159.1241 C   0  0  0  0  0  0  0  0  0  0  0  0
  151.1543  144.0324  159.3436 C   0  0  0  0  0  0  0  0  0  0  0  0
  151.4184  144.6649  160.5812 C   0  0  0  0  0  0  0  0  0  0  0  0
  152.2514  144.0475  161.5506 C   0  0  0  0  0  0  0  0  0  0  0  0
  152.8368  142.7835  161.3039 C   0  0  0  0  0  0  0  0  0  0  0  0
  152.5564  142.1775  160.0673 C   0  0  0  0  0  0  0  0  0  0  0  0
  153.9877  139.0928  159.6611 H   0  0  0  0  0  0  0  0  0  0  0  0
  153.4036  139.7435  161.1924 H   0  0  0  0  0  0  0  0  0  0  0  0
  154.8129  140.4638  160.4054 H   0  0  0  0  0  0  0  0  0  0  0  0
  150.1394  142.8772  157.0755 H   0  0  0  0  0  0  0  0  0  0  0  0
  151.5297  142.6619  156.0538 H   0  0  0  0  0  0  0  0  0  0  0  0
  150.1209  140.1616  157.0595 H   0  0  0  0  0  0  0  0  0  0  0  0
  151.3262  139.3972  155.5867 H   0  0  0  0  0  0  0  0  0  0  0  0
  148.0055  141.8099  157.4701 H   0  0  0  0  0  0  0  0  0  0  0  0
  145.8100  142.3227  156.4363 H   0  0  0  0  0  0  0  0  0  0  0  0
  145.4738  141.9993  153.9922 H   0  0  0  0  0  0  0  0  0  0  0  0
  147.3452  141.1649  152.5799 H   0  0  0  0  0  0  0  0  0  0  0  0
  149.5445  140.6508  153.6043 H   0  0  0  0  0  0  0  0  0  0  0  0
  150.5204  144.4961  158.6021 H   0  0  0  0  0  0  0  0  0  0  0  0
  150.9801  145.6294  160.7910 H   0  0  0  0  0  0  0  0  0  0  0  0
  152.4401  144.5482  162.4888 H   0  0  0  0  0  0  0  0  0  0  0  0
  153.4706  142.3060  162.0365 H   0  0  0  0  0  0  0  0  0  0  0  0
  1  2  1  0  0  0  0
  1 21  1  0  0  0  0
  1 22  1  0  0  0  0
  1 23  1  0  0  0  0
  2 20  1  0  0  0  0
  2  3  1  0  0  0  0
  3  4  2  0  0  0  0
  3  5  1  0  0  0  0
  5  6  1  0  0  0  0
  5 15  1  0  0  0  0
  6  7  1  0  0  0  0
  6 24  1  0  0  0  0
  6 25  1  0  0  0  0
  7  8  1  0  0  0  0
  7  9  1  0  0  0  0
  7 26  1  0  0  0  0
  8 27  1  0  0  0  0
  9 14  1  0  0  0  0
  9 10  2  0  0  0  0
 10 11  1  0  0  0  0
 10 28  1  0  0  0  0
 11 12  2  0  0  0  0
 11 29  1  0  0  0  0
 12 13  1  0  0  0  0
 12 30  1  0  0  0  0
 13 14  2  0  0  0  0
 13 31  1  0  0  0  0
 14 32  1  0  0  0  0
 15 20  2  0  0  0  0
 15 16  1  0  0  0  0
 16 17  2  0  0  0  0
 16 33  1  0  0  0  0
 17 18  1  0  0  0  0
 17 34  1  0  0  0  0
 18 19  2  0  0  0  0
 18 35  1  0  0  0  0
 19 20  1  0  0  0  0
 19 36  1  0  0  0  0
M  END
> <s_m_source_file>
AV-unprocessed.smi

> <i_m_source_file_index>
412

> <i_lp_mmshare_version>
43012

> <i_f3d_flags>
0

> <s_epik_input>
W2NIXTFbY0hdW2NIXVtjSF1jKGMxMiluKFtDSDNdKWMoPU8pbjJbQ0gyXVtDQEhdKFtPSF0pYzNbY0hdW2NIXVtjSF1bY0hdW2NIXTM=

> <s_epik_cmdline>
J2VwaWtfcHl0aG9uJywgJy1waCcsICc3LjAnLCAnLXRuJywgJzgnLCAnLW1hJywgJzIwMCcsICctbWV0YWxfYmluZGluZycsICctaW1hZScsICc8aW5maWxlLm1hZT4nLCAnLW9tYWUnLCAnPG91dGZpbGUubWFlPic=

> <r_lp_tautomer_probability>
1

> <r_epik_Ionization_Penalty>
1.34619e-06

> <r_epik_Ionization_Penalty_Charging>
2.57375e-09

> <r_epik_Ionization_Penalty_Neutral>
1.34362e-06

> <r_epik_State_Penalty>
-0

> <r_epik_Charging_Adjusted_Penalty>
2.57375e-09

> <i_epik_Tot_Q>
0

> <i_epik_Tot_abs_Q>
0

> <r_epik_Metal_State_Penalty>
-0

> <b_epik_Metal_Only>
0

> <s_lp_Force_Field>
OPLS_2005

> <r_lp_Energy>
43.7895

> <b_lp_Chiralities_Consistent>
1

> <s_lp_Variant>
AV-unprocessed.smi:412-1

> <Gold.Version>
5.8.1

> <Gold.Id.Protein>
6NUR|6NUR_protein|mol2

> <Gold.PLP.Fitness>
53.0282

> <Gold.PLP.PLP>
-48.6645

> <Gold.PLP.part.hbond>
-2.0000

> <Gold.PLP.part.metal>
0.0000

> <Gold.PLP.part.buried>
-5.8883

> <Gold.PLP.part.nonpolar>
-40.8240

> <Gold.PLP.part.repulsive>
0.0000

> <Gold.PLP.ligand.clash>
0.0000

> <Gold.PLP.ligand.torsion>
0.8227

> <Gold.PLP.Chemscore.Hbond>
2.0000

> <Gold.PLP.Chemscore.CHOScore>
0.0000

> <Gold.PLP.Chemscore.Metal>
0.0000

> <Gold.Chemscore.Hbonds>
donor molecule, donor type, donor heavy atom, donor atom, acceptor molecule, acceptor atom, score
      P1  H  7989  7998       L1     8  1.00
      P1  H  7997  8009       L1     4  1.00

> <Gold.PLP.Chemscore.Internal.Correction>
0.0092

> <Gold.Rescore>
     Score         DG    S(hbond)    S(metal)    S(lipo)     H(rot)  DE(clash)    DE(int)     intcor
     19.56     -21.53       1.86        0.00     122.42       1.76       0.11       1.85       ----

> <Gold.Chemscore.Fitness>
19.5650

> <Gold.Chemscore.DG>
-21.5312

> <Gold.Chemscore.ZeroCoef>
-5.4800

> <Gold.Chemscore.Hbond>
1.8631

> <Gold.Chemscore.Metal>
0.0000

> <Gold.Chemscore.Lipo>
122.4165

> <Gold.Chemscore.Internal_Hbond>
0.0000

> <Gold.Chemscore.DEClash>
0.1129

> <Gold.Chemscore.DEInternal>
1.8534

> <Gold.Chemscore.Rot>
1.7555

> <Gold.Chemscore.Internal.Correction>
   9.000000E+99

> <Gold.Chemscore.Hbonds>
donor molecule, donor type, donor heavy atom, donor atom, acceptor molecule, acceptor atom, score
      P1  H  7989  7998       L1     8  0.92
      P1  H  7997  8009       L1     4  0.48

> <Gold.Chemscore.Hbond.Weighted>
-6.2227

> <Gold.Chemscore.Metal.Weighted>
-0.0000

> <Gold.Chemscore.Lipo.Weighted>
-14.3227

> <Gold.Chemscore.Internal_Hbond.Weighted>
0.0000

> <Gold.Chemscore.DEClash.Weighted>
0.1129

> <Gold.Chemscore.DEInternal.Weighted>
1.8534

> <Gold.Chemscore.Rot.Weighted>
4.4942

> <Gold.Chemscore.Internal.Correction.Weighted>
   9.000000E+99

> <Gold.Protein.RotatedTorsions>
[ 6907 6896 6895 6894 ] final -144.62 input  -60.11 | X-H torsion
[ 7974 7965 7964 7962 ] final  -87.69 input  175.53 | X-H torsion
[ 8008 7997 7996 7995 ] final  173.09 input   59.86 | X-H torsion
[ 10167 10162 10161 10158 ] final   78.59 input  -65.29 | X-H torsion
[ 10718 10713 10712 10709 ] final  -31.97 input   66.30 | X-H torsion
[ 10763 10752 10751 10750 ] final   86.99 input  -60.55 | X-H torsion
[ 11005 11000 10999 10996 ] final  -69.25 input  -57.11 | X-H torsion

> <Gold.Protein.ActiveResidues>
 VAL166  LYS551  ARG553  GLY616  TRP617  ASP618  TYR619  PRO620  LYS621  CYS622 
 ASP623  PHE694  ASN695  SER759  ASP760  ASP761  ALA762  ILE779  LEU786  VAL792 
 PHE793  MET794  SER795  GLU796  ALA797  LYS798  CYS799  TRP800  GLU811  SER814 

> <Gold.Protein.RotatedAtoms>
  151.1165  133.5135  159.2603 H   0  0  0  0  0  0  0  0  0  0  0  0  # atno 6907 bound_to 6896
  151.1908  135.0401  159.8842 H   0  0  0  0  0  0  0  0  0  0  0  0  # atno 6908 bound_to 6896
  152.5453  134.1006  159.8369 H   0  0  0  0  0  0  0  0  0  0  0  0  # atno 6909 bound_to 6896
  145.4631  140.9561  143.1958 H   0  0  0  0  0  0  0  0  0  0  0  0  # atno 7974 bound_to 7965
  156.1110  140.1469  156.9338 H   0  0  0  0  0  0  0  0  0  0  0  0  # atno 8008 bound_to 7997
  154.4767  140.0892  156.7322 H   0  0  0  0  0  0  0  0  0  0  0  0  # atno 8009 bound_to 7997
  155.4596  140.3438  155.4313 H   0  0  0  0  0  0  0  0  0  0  0  0  # atno 8010 bound_to 7997
  139.9693  144.5906  150.8000 H   0  0  0  0  0  0  0  0  0  0  0  0  # atno 10167 bound_to 10162
  156.3807  130.4355  149.7471 H   0  0  0  0  0  0  0  0  0  0  0  0  # atno 10718 bound_to 10713
  153.1624  135.4560  154.9790 H   0  0  0  0  0  0  0  0  0  0  0  0  # atno 10763 bound_to 10752
  154.7907  135.3219  154.7786 H   0  0  0  0  0  0  0  0  0  0  0  0  # atno 10764 bound_to 10752
  153.8274  135.6941  153.4873 H   0  0  0  0  0  0  0  0  0  0  0  0  # atno 10765 bound_to 10752
  141.1550  133.6760  156.6571 H   0  0  0  0  0  0  0  0  0  0  0  0  # atno 11005 bound_to 11000
  144.7990  139.6177  143.7080 LP  0  0  0  0  0  0  0  0  0  0  0  0  # atno 17320 bound_to 7965
  146.2439  139.6058  142.9472 LP  0  0  0  0  0  0  0  0  0  0  0  0  # atno 17321 bound_to 7965
  140.7527  143.2995  151.3116 LP  0  0  0  0  0  0  0  0  0  0  0  0  # atno 17342 bound_to 10162
  139.6493  144.0391  152.2614 LP  0  0  0  0  0  0  0  0  0  0  0  0  # atno 17343 bound_to 10162
  156.4562  130.7930  151.2951 LP  0  0  0  0  0  0  0  0  0  0  0  0  # atno 17370 bound_to 10713
  157.7492  131.0080  150.3211 LP  0  0  0  0  0  0  0  0  0  0  0  0  # atno 17371 bound_to 10713
  140.3276  134.7956  157.4301 LP  0  0  0  0  0  0  0  0  0  0  0  0  # atno 17394 bound_to 11000
  140.1044  134.5429  155.8323 LP  0  0  0  0  0  0  0  0  0  0  0  0  # atno 17395 bound_to 11000

$$$$
