AV-unprocessed.smi:2750|AV-procd|sdf|10591|dock3
  -GOLD-   2272015 43D 1   1.00000     0.00000
 Structure written by MMmdl.
 24 25  0  0  0  0  0  0  0  0  3 V2000
  148.0424  136.7452  162.4204 O   0  0  0  0  0  0  0  0  0  0  0  0
  147.3907  136.5057  161.3802 C   0  0  0  0  0  0  0  0  0  0  0  0
  146.3659  137.1161  161.0051 O   0  5  0  0  0  0  0  0  0  0  0  0
  147.8896  135.3673  160.4907 C   0  0  0  0  0  0  0  0  0  0  0  0
  148.4872  135.8612  159.2637 N   0  0  0  0  0  0  0  0  0  0  0  0
  148.5738  137.1628  158.8148 C   0  0  0  0  0  0  0  0  0  0  0  0
  149.2286  137.0452  157.6222 C   0  0  0  0  0  0  0  0  0  0  0  0
  149.6178  138.1186  156.6502 C   0  0  0  0  0  0  0  0  0  0  0  0
  150.9170  137.7917  155.8864 C   0  0  2  0  0  0  0  0  0  0  0  0
  151.9789  137.4011  156.7891 N   0  0  0  0  0  0  0  0  0  0  0  0
  153.0400  138.1955  156.6638 C   0  0  0  0  0  0  0  0  0  0  0  0
  154.0593  138.0236  157.3284 O   0  0  0  0  0  0  0  0  0  0  0  0
  152.7972  139.1514  155.7460 N   0  5  0  0  0  0  0  0  0  0  0  0
  151.5586  139.0115  155.2267 C   0  0  0  0  0  0  0  0  0  0  0  0
  150.9729  139.6793  154.3757 O   0  0  0  0  0  0  0  0  0  0  0  0
  149.5052  135.6969  157.3953 N   0  0  0  0  0  0  0  0  0  0  0  0
  149.0579  134.9966  158.3903 N   0  0  0  0  0  0  0  0  0  0  0  0
  148.6178  134.7638  161.0349 H   0  0  0  0  0  0  0  0  0  0  0  0
  147.0602  134.7074  160.2330 H   0  0  0  0  0  0  0  0  0  0  0  0
  148.1851  138.0110  159.3586 H   0  0  0  0  0  0  0  0  0  0  0  0
  148.8074  138.2560  155.9332 H   0  0  0  0  0  0  0  0  0  0  0  0
  149.7168  139.0751  157.1660 H   0  0  0  0  0  0  0  0  0  0  0  0
  150.7527  137.0157  155.1373 H   0  0  0  0  0  0  0  0  0  0  0  0
  151.9119  136.6164  157.4206 H   0  0  0  0  0  0  0  0  0  0  0  0
  1  2  2  0  0  0  0
  2  3  1  0  0  0  0
  2  4  1  0  0  0  0
  4  5  1  0  0  0  0
  4 18  1  0  0  0  0
  4 19  1  0  0  0  0
  5 17  1  0  0  0  0
  5  6  1  0  0  0  0
  6  7  2  0  0  0  0
  6 20  1  0  0  0  0
  7  8  1  0  0  0  0
  7 16  1  0  0  0  0
  8  9  1  0  0  0  0
  8 21  1  0  0  0  0
  8 22  1  0  0  0  0
  9 14  1  0  0  0  0
  9 10  1  0  0  0  0
  9 23  1  0  0  0  0
 10 11  1  0  0  0  0
 10 24  1  0  0  0  0
 11 12  2  0  0  0  0
 11 13  1  0  0  0  0
 13 14  1  0  0  0  0
 14 15  2  0  0  0  0
 16 17  2  0  0  0  0
M  CHG  1   3  -1
M  CHG  1  13  -1
M  END
> <s_m_source_file>
AV-unprocessed.smi

> <i_m_source_file_index>
2750

> <i_lp_mmshare_version>
43012

> <i_f3d_flags>
0

> <s_epik_input>
Tz1DKFtPSF0pW0NIMl1uMVtjSF1jKG5uMSlbQ0gyXVtDQEBIXTJbTkhdQyg9TylbTkhdQzI9Tw==

> <s_epik_cmdline>
J2VwaWtfcHl0aG9uJywgJy1waCcsICc3LjAnLCAnLXRuJywgJzgnLCAnLW1hJywgJzIwMCcsICctbWV0YWxfYmluZGluZycsICctaW1hZScsICc8aW5maWxlLm1hZT4nLCAnLW9tYWUnLCAnPG91dGZpbGUubWFlPic=

> <r_lp_tautomer_probability>
1

> <r_epik_Ionization_Penalty>
2.03209

> <r_epik_Ionization_Penalty_Charging>
2.03208

> <r_epik_Ionization_Penalty_Neutral>
1.30912e-05

> <r_epik_State_Penalty>
2.16313

> <r_epik_Charging_Adjusted_Penalty>
4.19521

> <i_epik_Tot_Q>
-2

> <i_epik_Tot_abs_Q>
2

> <r_epik_Metal_State_Penalty>
0.529162

> <b_epik_Metal_Only>
0

> <s_lp_Force_Field>
OPLS_2005

> <r_lp_Energy>
4.69522

> <b_lp_Chiralities_Consistent>
1

> <s_lp_Variant>
AV-unprocessed.smi:2750-3

> <Gold.Version>
5.8.1

> <Gold.Id.Protein>
6NUR|6NUR_protein|mol2

> <Gold.PLP.Fitness>
43.4210

> <Gold.PLP.PLP>
-20.8540

> <Gold.PLP.part.hbond>
-6.0000

> <Gold.PLP.part.metal>
0.0000

> <Gold.PLP.part.buried>
-2.8434

> <Gold.PLP.part.nonpolar>
-11.2400

> <Gold.PLP.part.repulsive>
0.2240

> <Gold.PLP.ligand.clash>
0.0000

> <Gold.PLP.ligand.torsion>
0.6180

> <Gold.PLP.Chemscore.Hbond>
7.9263

> <Gold.PLP.Chemscore.CHOScore>
0.0000

> <Gold.PLP.Chemscore.Metal>
0.0000

> <Gold.Chemscore.Hbonds>
donor molecule, donor type, donor heavy atom, donor atom, acceptor molecule, acceptor atom, score
      P1  H  6896  6909       L1    17  0.95
      P1  H  6931  6943       L1     1  2.00
      P1  H  6934  6947       L1     3  1.73
      P1  H  7989  7998       L1    15  1.00
      P1  H  7997  8009       L1    12  0.18
      P1  H  7997  8010       L1    13  1.48

> <Gold.PLP.Chemscore.Internal.Correction>
0.0243

> <Gold.Rescore>
     Score         DG    S(hbond)    S(metal)    S(lipo)     H(rot)  DE(clash)    DE(int)     intcor
      7.47      -9.35       2.72        0.00      16.69       2.80       0.36       1.52       ----

> <Gold.Chemscore.Fitness>
7.4717

> <Gold.Chemscore.DG>
-9.3516

> <Gold.Chemscore.ZeroCoef>
-5.4800

> <Gold.Chemscore.Hbond>
2.7187

> <Gold.Chemscore.Metal>
0.0000

> <Gold.Chemscore.Lipo>
16.6865

> <Gold.Chemscore.Internal_Hbond>
0.0000

> <Gold.Chemscore.DEClash>
0.3585

> <Gold.Chemscore.DEInternal>
1.5214

> <Gold.Chemscore.Rot>
2.7973

> <Gold.Chemscore.Internal.Correction>
   9.000000E+99

> <Gold.Chemscore.Hbonds>
donor molecule, donor type, donor heavy atom, donor atom, acceptor molecule, acceptor atom, score
      P1  H  6896  6909       L1    17  0.12
      P1  H  6931  6943       L1     1  0.39
      P1  H  6934  6947       L1     3  0.19
      P1  H  7989  7998       L1    15  0.99
      P1  H  7997  8009       L1    12  0.10
      P1  H  7997  8010       L1    13  0.24

> <Gold.Chemscore.Hbond.Weighted>
-9.0804

> <Gold.Chemscore.Metal.Weighted>
-0.0000

> <Gold.Chemscore.Lipo.Weighted>
-1.9523

> <Gold.Chemscore.Internal_Hbond.Weighted>
0.0000

> <Gold.Chemscore.DEClash.Weighted>
0.3585

> <Gold.Chemscore.DEInternal.Weighted>
1.5214

> <Gold.Chemscore.Rot.Weighted>
7.1611

> <Gold.Chemscore.Internal.Correction.Weighted>
   9.000000E+99

> <Gold.Protein.RotatedTorsions>
[ 6907 6896 6895 6894 ] final   41.87 input  -60.11 | X-H torsion
[ 7974 7965 7964 7962 ] final -111.42 input  175.53 | X-H torsion
[ 8008 7997 7996 7995 ] final  115.87 input   59.86 | X-H torsion
[ 10167 10162 10161 10158 ] final  -86.45 input  -65.29 | X-H torsion
[ 10718 10713 10712 10709 ] final  110.10 input   66.30 | X-H torsion
[ 10763 10752 10751 10750 ] final  100.66 input  -60.55 | X-H torsion
[ 11005 11000 10999 10996 ] final -146.24 input  -57.11 | X-H torsion

> <Gold.Protein.ActiveResidues>
 VAL166  LYS551  ARG553  GLY616  TRP617  ASP618  TYR619  PRO620  LYS621  CYS622 
 ASP623  PHE694  ASN695  SER759  ASP760  ASP761  ALA762  ILE779  LEU786  VAL792 
 PHE793  MET794  SER795  GLU796  ALA797  LYS798  CYS799  TRP800  GLU811  SER814 

> <Gold.Protein.RotatedAtoms>
  152.2007  134.8590  160.0507 H   0  0  0  0  0  0  0  0  0  0  0  0  # atno 6907 bound_to 6896
  151.9444  133.3642  159.3985 H   0  0  0  0  0  0  0  0  0  0  0  0  # atno 6908 bound_to 6896
  150.6954  134.4329  159.5301 H   0  0  0  0  0  0  0  0  0  0  0  0  # atno 6909 bound_to 6896
  145.1563  140.8855  143.3617 H   0  0  0  0  0  0  0  0  0  0  0  0  # atno 7974 bound_to 7965
  156.2406  140.2929  156.0435 H   0  0  0  0  0  0  0  0  0  0  0  0  # atno 8008 bound_to 7997
  155.1961  140.0408  157.2926 H   0  0  0  0  0  0  0  0  0  0  0  0  # atno 8009 bound_to 7997
  154.6162  140.2464  155.7614 H   0  0  0  0  0  0  0  0  0  0  0  0  # atno 8010 bound_to 7997
  140.3940  143.2692  151.9228 H   0  0  0  0  0  0  0  0  0  0  0  0  # atno 10167 bound_to 10162
  157.6510  131.0926  150.6551 H   0  0  0  0  0  0  0  0  0  0  0  0  # atno 10718 bound_to 10713
  153.3168  135.4071  155.1383 H   0  0  0  0  0  0  0  0  0  0  0  0  # atno 10763 bound_to 10752
  154.8590  135.3578  154.5650 H   0  0  0  0  0  0  0  0  0  0  0  0  # atno 10764 bound_to 10752
  153.6081  135.7069  153.5416 H   0  0  0  0  0  0  0  0  0  0  0  0  # atno 10765 bound_to 10752
  140.7840  134.3046  157.5036 H   0  0  0  0  0  0  0  0  0  0  0  0  # atno 11005 bound_to 11000
  145.0378  139.3286  143.5992 LP  0  0  0  0  0  0  0  0  0  0  0  0  # atno 17320 bound_to 7965
  146.3488  139.9740  142.8703 LP  0  0  0  0  0  0  0  0  0  0  0  0  # atno 17321 bound_to 7965
  139.4787  144.5699  151.8104 LP  0  0  0  0  0  0  0  0  0  0  0  0  # atno 17342 bound_to 10162
  140.4810  144.1450  150.5932 LP  0  0  0  0  0  0  0  0  0  0  0  0  # atno 17343 bound_to 10162
  156.6863  130.4582  149.5613 LP  0  0  0  0  0  0  0  0  0  0  0  0  # atno 17370 bound_to 10713
  156.1893  130.6550  151.1043 LP  0  0  0  0  0  0  0  0  0  0  0  0  # atno 17371 bound_to 10713
  139.8739  134.9335  156.3582 LP  0  0  0  0  0  0  0  0  0  0  0  0  # atno 17394 bound_to 11000
  140.9455  133.7486  156.0202 LP  0  0  0  0  0  0  0  0  0  0  0  0  # atno 17395 bound_to 11000

$$$$
