AV-unprocessed.smi:116|AV-procd|sdf|1128|dock5
  -GOLD-   2262018253D 1   1.00000     0.00000
 Structure written by MMmdl.
 38 41  0  0  0  0  0  0  0  0  1 V2000
  151.1265  139.8358  154.7609 O   0  0  0  0  0  0  0  0  0  0  0  0
  150.5330  139.3071  155.7023 C   0  0  0  0  0  0  0  0  0  0  0  0
  149.1986  138.7300  155.5822 C   0  0  0  0  0  0  0  0  0  0  0  0
  148.5539  138.7869  154.4045 F   0  0  0  0  0  0  0  0  0  0  0  0
  148.5958  138.1400  156.6365 C   0  0  0  0  0  0  0  0  0  0  0  0
  149.1873  138.0369  157.8840 N   0  0  0  0  0  0  0  0  0  0  0  0
  148.4761  137.3644  159.0371 C   0  0  1  0  0  0  0  0  0  0  0  0
  147.0108  137.0994  158.6736 C   0  0  0  0  0  0  0  0  0  0  0  0
  147.0654  135.6703  158.1791 C   0  0  0  0  0  0  0  0  0  0  0  0
  148.1407  135.0760  159.0811 C   0  0  0  0  0  0  0  0  0  0  0  0
  149.0802  136.1276  159.2870 O   0  0  0  0  0  0  0  0  0  0  0  0
  150.4696  138.5876  158.0993 C   0  0  0  0  0  0  0  0  0  0  0  0
  151.0049  138.5244  159.2083 O   0  0  0  0  0  0  0  0  0  0  0  0
  151.1036  139.2083  156.9960 N   0  0  0  0  0  0  0  0  0  0  0  0
  152.4445  139.7372  157.1928 C   0  0  0  0  0  0  0  0  0  0  0  0
  152.4485  140.7905  158.2592 C   0  0  0  0  0  0  0  0  0  0  0  0
  151.8883  141.9928  158.0724 N   0  0  0  0  0  0  0  0  0  0  0  0
  152.0239  142.7698  159.2190 C   0  0  0  0  0  0  0  0  0  0  0  0
  151.5546  144.0902  159.4115 C   0  0  0  0  0  0  0  0  0  0  0  0
  151.7595  144.7658  160.6312 C   0  0  0  0  0  0  0  0  0  0  0  0
  152.4414  144.1315  161.6869 C   0  0  0  0  0  0  0  0  0  0  0  0
  152.9198  142.8187  161.5231 C   0  0  0  0  0  0  0  0  0  0  0  0
  152.7118  142.1491  160.3030 C   0  0  0  0  0  0  0  0  0  0  0  0
  153.2016  140.5235  159.8381 S   0  0  0  0  0  0  0  0  0  0  0  0
  147.6056  137.7368  156.4856 H   0  0  0  0  0  0  0  0  0  0  0  0
  148.6078  138.0160  159.9022 H   0  0  0  0  0  0  0  0  0  0  0  0
  146.4102  137.1666  159.5814 H   0  0  0  0  0  0  0  0  0  0  0  0
  146.6270  137.8107  157.9413 H   0  0  0  0  0  0  0  0  0  0  0  0
  146.1092  135.1525  158.2569 H   0  0  0  0  0  0  0  0  0  0  0  0
  147.3861  135.6421  157.1371 H   0  0  0  0  0  0  0  0  0  0  0  0
  147.7140  134.7945  160.0449 H   0  0  0  0  0  0  0  0  0  0  0  0
  148.6143  134.1946  158.6482 H   0  0  0  0  0  0  0  0  0  0  0  0
  153.1149  138.9164  157.4509 H   0  0  0  0  0  0  0  0  0  0  0  0
  152.8047  140.1334  156.2419 H   0  0  0  0  0  0  0  0  0  0  0  0
  151.0298  144.5886  158.6100 H   0  0  0  0  0  0  0  0  0  0  0  0
  151.3921  145.7737  160.7562 H   0  0  0  0  0  0  0  0  0  0  0  0
  152.5972  144.6519  162.6205 H   0  0  0  0  0  0  0  0  0  0  0  0
  153.4438  142.3266  162.3290 H   0  0  0  0  0  0  0  0  0  0  0  0
  1  2  2  0  0  0  0
  2 14  1  0  0  0  0
  2  3  1  0  0  0  0
  3  4  1  0  0  0  0
  3  5  2  0  0  0  0
  5  6  1  0  0  0  0
  5 25  1  0  0  0  0
  6  7  1  0  0  0  0
  6 12  1  0  0  0  0
  7 11  1  0  0  0  0
  7  8  1  0  0  0  0
  7 26  1  0  0  0  0
  8  9  1  0  0  0  0
  8 27  1  0  0  0  0
  8 28  1  0  0  0  0
  9 10  1  0  0  0  0
  9 29  1  0  0  0  0
  9 30  1  0  0  0  0
 10 11  1  0  0  0  0
 10 31  1  0  0  0  0
 10 32  1  0  0  0  0
 12 13  2  0  0  0  0
 12 14  1  0  0  0  0
 14 15  1  0  0  0  0
 15 16  1  0  0  0  0
 15 33  1  0  0  0  0
 15 34  1  0  0  0  0
 16 24  1  0  0  0  0
 16 17  2  0  0  0  0
 17 18  1  0  0  0  0
 18 23  2  0  0  0  0
 18 19  1  0  0  0  0
 19 20  2  0  0  0  0
 19 35  1  0  0  0  0
 20 21  1  0  0  0  0
 20 36  1  0  0  0  0
 21 22  2  0  0  0  0
 21 37  1  0  0  0  0
 22 23  1  0  0  0  0
 22 38  1  0  0  0  0
 23 24  1  0  0  0  0
M  END
> <s_m_source_file>
AV-unprocessed.smi

> <i_m_source_file_index>
116

> <i_lp_mmshare_version>
43012

> <i_f3d_flags>
0

> <s_epik_input>
TzFbQ0gyXVtDSDJdW0NIMl1bQ0BIXTFuKFtjSF1jKEYpYzI9TyljKD1PKW4yW0NIMl1jKG4zKXNjKGMzNClbY0hdW2NIXVtjSF1bY0hdNA==

> <s_epik_cmdline>
J2VwaWtfcHl0aG9uJywgJy1waCcsICc3LjAnLCAnLXRuJywgJzgnLCAnLW1hJywgJzIwMCcsICctbWV0YWxfYmluZGluZycsICctaW1hZScsICc8aW5maWxlLm1hZT4nLCAnLW9tYWUnLCAnPG91dGZpbGUubWFlPic=

> <r_lp_tautomer_probability>
1

> <r_epik_Ionization_Penalty>
4.2492e-05

> <r_epik_Ionization_Penalty_Charging>
2.84664e-09

> <r_epik_Ionization_Penalty_Neutral>
4.24891e-05

> <r_epik_State_Penalty>
-0

> <r_epik_Charging_Adjusted_Penalty>
2.84664e-09

> <i_epik_Tot_Q>
0

> <i_epik_Tot_abs_Q>
0

> <r_epik_Metal_State_Penalty>
-0

> <b_epik_Metal_Only>
0

> <s_epik_Chemistry_Notes>
This compound contains an acetal/aminal-like group ( X-CH(R)-Y where X, Y are N, S, or O) that may be acid/base labile, releasing an aldehyde.

> <s_lp_Force_Field>
OPLS_2005

> <r_lp_Energy>
30.7685

> <b_lp_Chiralities_Consistent>
1

> <s_lp_Variant>
AV-unprocessed.smi:116-2

> <Gold.Version>
5.8.1

> <Gold.Id.Protein>
6NUR|6NUR_protein|mol2

> <Gold.PLP.Fitness>
43.7826

> <Gold.PLP.PLP>
-38.4960

> <Gold.PLP.part.hbond>
-2.0915

> <Gold.PLP.part.metal>
0.0000

> <Gold.PLP.part.buried>
-5.2973

> <Gold.PLP.part.nonpolar>
-30.6059

> <Gold.PLP.part.repulsive>
0.0665

> <Gold.PLP.ligand.clash>
0.0000

> <Gold.PLP.ligand.torsion>
0.3640

> <Gold.PLP.Chemscore.Hbond>
2.0000

> <Gold.PLP.Chemscore.CHOScore>
0.0000

> <Gold.PLP.Chemscore.Metal>
0.0000

> <Gold.Chemscore.Hbonds>
donor molecule, donor type, donor heavy atom, donor atom, acceptor molecule, acceptor atom, score
      P1  H  6896  6909       L1    11  0.50
      P1  H  7989  7998       L1     1  1.00

> <Gold.PLP.Chemscore.Internal.Correction>
0.0145

> <Gold.Rescore>
     Score         DG    S(hbond)    S(metal)    S(lipo)     H(rot)  DE(clash)    DE(int)     intcor
     17.00     -18.85       1.87        0.00      94.10       1.52       0.02       1.82       ----

> <Gold.Chemscore.Fitness>
17.0049

> <Gold.Chemscore.DG>
-18.8468

> <Gold.Chemscore.ZeroCoef>
-5.4800

> <Gold.Chemscore.Hbond>
1.8685

> <Gold.Chemscore.Metal>
0.0000

> <Gold.Chemscore.Lipo>
94.1044

> <Gold.Chemscore.Internal_Hbond>
0.0000

> <Gold.Chemscore.DEClash>
0.0234

> <Gold.Chemscore.DEInternal>
1.8185

> <Gold.Chemscore.Rot>
1.5172

> <Gold.Chemscore.Internal.Correction>
   9.000000E+99

> <Gold.Chemscore.Hbonds>
donor molecule, donor type, donor heavy atom, donor atom, acceptor molecule, acceptor atom, score
      P1  H  6896  6909       L1    11  0.09
      P1  H  7989  7998       L1     1  1.00

> <Gold.Chemscore.Hbond.Weighted>
-6.2407

> <Gold.Chemscore.Metal.Weighted>
-0.0000

> <Gold.Chemscore.Lipo.Weighted>
-11.0102

> <Gold.Chemscore.Internal_Hbond.Weighted>
0.0000

> <Gold.Chemscore.DEClash.Weighted>
0.0234

> <Gold.Chemscore.DEInternal.Weighted>
1.8185

> <Gold.Chemscore.Rot.Weighted>
3.8841

> <Gold.Chemscore.Internal.Correction.Weighted>
   9.000000E+99

> <Gold.Protein.RotatedTorsions>
[ 6907 6896 6895 6894 ] final   70.98 input  -60.11 | X-H torsion
[ 7974 7965 7964 7962 ] final   -9.08 input  175.53 | X-H torsion
[ 8008 7997 7996 7995 ] final -116.79 input   59.86 | X-H torsion
[ 10167 10162 10161 10158 ] final   10.54 input  -65.29 | X-H torsion
[ 10718 10713 10712 10709 ] final  105.20 input   66.30 | X-H torsion
[ 10763 10752 10751 10750 ] final  127.66 input  -60.55 | X-H torsion
[ 11005 11000 10999 10996 ] final -167.97 input  -57.11 | X-H torsion

> <Gold.Protein.ActiveResidues>
 VAL166  LYS551  ARG553  GLY616  TRP617  ASP618  TYR619  PRO620  LYS621  CYS622 
 ASP623  PHE694  ASN695  SER759  ASP760  ASP761  ALA762  ILE779  LEU786  VAL792 
 PHE793  MET794  SER795  GLU796  ALA797  LYS798  CYS799  TRP800  GLU811  SER814 

> <Gold.Protein.RotatedAtoms>
  152.4783  134.4787  159.9658 H   0  0  0  0  0  0  0  0  0  0  0  0  # atno 6907 bound_to 6896
  151.4799  133.3543  159.2844 H   0  0  0  0  0  0  0  0  0  0  0  0  # atno 6908 bound_to 6896
  150.8836  134.8257  159.7304 H   0  0  0  0  0  0  0  0  0  0  0  0  # atno 6909 bound_to 6896
  146.2262  140.2564  142.8349 H   0  0  0  0  0  0  0  0  0  0  0  0  # atno 7974 bound_to 7965
  155.0734  140.0393  157.2616 H   0  0  0  0  0  0  0  0  0  0  0  0  # atno 8008 bound_to 7997
  154.6964  140.2664  155.6737 H   0  0  0  0  0  0  0  0  0  0  0  0  # atno 8009 bound_to 7997
  156.2746  140.2749  156.1560 H   0  0  0  0  0  0  0  0  0  0  0  0  # atno 8010 bound_to 7997
  140.6188  143.8250  150.7150 H   0  0  0  0  0  0  0  0  0  0  0  0  # atno 10167 bound_to 10162
  157.6714  131.0822  150.5820 H   0  0  0  0  0  0  0  0  0  0  0  0  # atno 10718 bound_to 10713
  153.7130  135.3265  155.3250 H   0  0  0  0  0  0  0  0  0  0  0  0  # atno 10763 bound_to 10752
  154.8379  135.4481  154.1295 H   0  0  0  0  0  0  0  0  0  0  0  0  # atno 10764 bound_to 10752
  153.2394  135.6969  153.7879 H   0  0  0  0  0  0  0  0  0  0  0  0  # atno 10765 bound_to 10752
  140.5472  134.5464  157.5114 H   0  0  0  0  0  0  0  0  0  0  0  0  # atno 11005 bound_to 11000
  144.9373  140.8040  143.5652 LP  0  0  0  0  0  0  0  0  0  0  0  0  # atno 17320 bound_to 7965
  145.2512  139.2031  143.4941 LP  0  0  0  0  0  0  0  0  0  0  0  0  # atno 17321 bound_to 7965
  140.1835  143.4095  152.1915 LP  0  0  0  0  0  0  0  0  0  0  0  0  # atno 17342 bound_to 10162
  139.5421  144.7266  151.4701 LP  0  0  0  0  0  0  0  0  0  0  0  0  # atno 17343 bound_to 10162
  156.6121  130.4383  149.5855 LP  0  0  0  0  0  0  0  0  0  0  0  0  # atno 17370 bound_to 10713
  156.2422  130.6858  151.1567 LP  0  0  0  0  0  0  0  0  0  0  0  0  # atno 17371 bound_to 10713
  139.9473  134.7679  156.0531 LP  0  0  0  0  0  0  0  0  0  0  0  0  # atno 17394 bound_to 11000
  141.1193  133.6618  156.3173 LP  0  0  0  0  0  0  0  0  0  0  0  0  # atno 17395 bound_to 11000

$$$$
