AV-unprocessed.smi:2279|AV-procd|sdf|9183|dock3
  -GOLD-   2272012403D 1   1.00000     0.00000
 Structure written by MMmdl.
 58 60  0  0  0  0  0  0  0  0  3 V2000
  153.0820  140.0296  159.6369 C   0  0  0  0  0  0  0  0  0  0  0  0
  152.4291  141.1312  158.8289 C   0  0  0  0  0  0  0  0  0  0  0  0
  152.6770  142.4865  159.1194 C   0  0  0  0  0  0  0  0  0  0  0  0
  152.0383  143.4631  158.3303 C   0  0  0  0  0  0  0  0  0  0  0  0
  152.2593  144.9388  158.5866 C   0  0  0  0  0  0  0  0  0  0  0  0
  151.2039  143.1583  157.3135 N   0  0  0  0  0  0  0  0  0  0  0  0
  150.9577  141.8563  157.0247 C   0  0  0  0  0  0  0  0  0  0  0  0
  150.0976  141.4311  155.9777 N   0  0  0  0  0  0  0  0  0  0  0  0
  149.2247  140.4081  155.9838 C   0  0  0  0  0  0  0  0  0  0  0  0
  149.0244  139.6491  156.9324 O   0  0  0  0  0  0  0  0  0  0  0  0
  148.5851  140.3113  154.8086 N   0  0  0  0  0  0  0  0  0  0  0  0
  147.5719  139.3153  154.4698 C   0  0  2  0  0  0  0  0  0  0  0  0
  148.0783  137.9096  154.8062 C   0  0  0  0  0  0  0  0  0  0  0  0
  147.0633  136.8350  154.3829 C   0  0  0  0  0  0  0  0  0  0  0  0
  146.7225  136.9107  152.9297 N   0  3  1  0  0  0  0  0  0  0  0  0
  145.7935  135.8183  152.4755 C   0  0  2  0  0  0  0  0  0  0  0  0
  146.3766  134.4008  152.7191 C   0  0  0  0  0  0  0  0  0  0  0  0
  145.4657  133.2812  152.1867 C   0  0  0  0  0  0  0  0  0  0  0  0
  145.1849  133.4588  150.7444 N   0  3  1  0  0  0  0  0  0  0  0  0
  144.4130  132.3321  150.1762 C   0  0  0  0  0  0  0  0  0  0  0  0
  144.5499  134.7694  150.4803 C   0  0  0  0  0  0  0  0  0  0  0  0
  145.4372  135.9272  150.9688 C   0  0  0  0  0  0  0  0  0  0  0  0
  146.2455  138.2820  152.5748 C   0  0  0  0  0  0  0  0  0  0  0  0
  147.2496  139.3760  152.9739 C   0  0  0  0  0  0  0  0  0  0  0  0
  151.5578  140.8148  157.7673 C   0  0  0  0  0  0  0  0  0  0  0  0
  153.7246  140.4365  160.4182 H   0  0  0  0  0  0  0  0  0  0  0  0
  153.6906  139.3972  158.9899 H   0  0  0  0  0  0  0  0  0  0  0  0
  152.3221  139.4075  160.1100 H   0  0  0  0  0  0  0  0  0  0  0  0
  153.3385  142.7703  159.9250 H   0  0  0  0  0  0  0  0  0  0  0  0
  152.9432  145.0974  159.4209 H   0  0  0  0  0  0  0  0  0  0  0  0
  151.3142  145.4281  158.8238 H   0  0  0  0  0  0  0  0  0  0  0  0
  152.6827  145.4179  157.7036 H   0  0  0  0  0  0  0  0  0  0  0  0
  150.1546  141.9691  155.1259 H   0  0  0  0  0  0  0  0  0  0  0  0
  148.8190  140.9817  154.0908 H   0  0  0  0  0  0  0  0  0  0  0  0
  146.6521  139.4951  155.0297 H   0  0  0  0  0  0  0  0  0  0  0  0
  149.0313  137.7257  154.3074 H   0  0  0  0  0  0  0  0  0  0  0  0
  148.2703  137.8303  155.8772 H   0  0  0  0  0  0  0  0  0  0  0  0
  147.5145  135.8774  154.6320 H   0  0  0  0  0  0  0  0  0  0  0  0
  146.1518  136.9250  154.9761 H   0  0  0  0  0  0  0  0  0  0  0  0
  144.8705  135.9100  153.0509 H   0  0  0  0  0  0  0  0  0  0  0  0
  147.3609  134.3207  152.2551 H   0  0  0  0  0  0  0  0  0  0  0  0
  146.5125  134.2059  153.7816 H   0  0  0  0  0  0  0  0  0  0  0  0
  145.9466  132.3154  152.3474 H   0  0  0  0  0  0  0  0  0  0  0  0
  144.5270  133.2635  152.7434 H   0  0  0  0  0  0  0  0  0  0  0  0
  143.4281  132.2573  150.6395 H   0  0  0  0  0  0  0  0  0  0  0  0
  144.9369  131.3885  150.3321 H   0  0  0  0  0  0  0  0  0  0  0  0
  144.2766  132.4613  149.1020 H   0  0  0  0  0  0  0  0  0  0  0  0
  144.3700  134.8772  149.4098 H   0  0  0  0  0  0  0  0  0  0  0  0
  143.5754  134.8097  150.9704 H   0  0  0  0  0  0  0  0  0  0  0  0
  144.8892  136.8437  150.7569 H   0  0  0  0  0  0  0  0  0  0  0  0
  146.3512  135.9613  150.3739 H   0  0  0  0  0  0  0  0  0  0  0  0
  146.0987  138.3824  151.5020 H   0  0  0  0  0  0  0  0  0  0  0  0
  145.2805  138.4665  153.0499 H   0  0  0  0  0  0  0  0  0  0  0  0
  146.8428  140.3562  152.7210 H   0  0  0  0  0  0  0  0  0  0  0  0
  148.1636  139.2611  152.3889 H   0  0  0  0  0  0  0  0  0  0  0  0
  151.3542  139.7808  157.5281 H   0  0  0  0  0  0  0  0  0  0  0  0
  147.5898  136.7763  152.4297 H   0  0  0  0  0  0  0  0  0  0  0  0
  146.0763  133.4620  150.2688 H   0  0  0  0  0  0  0  0  0  0  0  0
  1  2  1  0  0  0  0
  1 26  1  0  0  0  0
  1 27  1  0  0  0  0
  1 28  1  0  0  0  0
  2 25  1  0  0  0  0
  2  3  2  0  0  0  0
  3  4  1  0  0  0  0
  3 29  1  0  0  0  0
  4  5  1  0  0  0  0
  4  6  2  0  0  0  0
  5 30  1  0  0  0  0
  5 31  1  0  0  0  0
  5 32  1  0  0  0  0
  6  7  1  0  0  0  0
  7  8  1  0  0  0  0
  7 25  2  0  0  0  0
  8  9  1  0  0  0  0
  8 33  1  0  0  0  0
  9 10  2  0  0  0  0
  9 11  1  0  0  0  0
 11 12  1  0  0  0  0
 11 34  1  0  0  0  0
 12 24  1  0  0  0  0
 12 13  1  0  0  0  0
 12 35  1  0  0  0  0
 13 14  1  0  0  0  0
 13 36  1  0  0  0  0
 13 37  1  0  0  0  0
 14 15  1  0  0  0  0
 14 38  1  0  0  0  0
 14 39  1  0  0  0  0
 15 16  1  0  0  0  0
 15 23  1  0  0  0  0
 15 57  1  0  0  0  0
 16 22  1  0  0  0  0
 16 17  1  0  0  0  0
 16 40  1  0  0  0  0
 17 18  1  0  0  0  0
 17 41  1  0  0  0  0
 17 42  1  0  0  0  0
 18 19  1  0  0  0  0
 18 43  1  0  0  0  0
 18 44  1  0  0  0  0
 19 20  1  0  0  0  0
 19 21  1  0  0  0  0
 19 58  1  0  0  0  0
 20 45  1  0  0  0  0
 20 46  1  0  0  0  0
 20 47  1  0  0  0  0
 21 22  1  0  0  0  0
 21 48  1  0  0  0  0
 21 49  1  0  0  0  0
 22 50  1  0  0  0  0
 22 51  1  0  0  0  0
 23 24  1  0  0  0  0
 23 52  1  0  0  0  0
 23 53  1  0  0  0  0
 24 54  1  0  0  0  0
 24 55  1  0  0  0  0
 25 56  1  0  0  0  0
M  CHG  1  15   1
M  CHG  1  19   1
M  END
> <s_m_source_file>
AV-unprocessed.smi

> <i_m_source_file_index>
2279

> <i_lp_mmshare_version>
43012

> <i_f3d_flags>
0

> <s_epik_input>
W0NIM11jMVtjSF1jKFtDSDNdKW5jKFtjSF0xKVtOSF1DKD1PKVtOSF1bQ0hdMltDSDJdW0NIMl1OKFtDSDJdW0NIMl0yKVtDSF0zW0NIMl1bQ0gyXU4oW0NIM10pW0NIMl1bQ0gyXTM=

> <s_epik_cmdline>
J2VwaWtfcHl0aG9uJywgJy1waCcsICc3LjAnLCAnLXRuJywgJzgnLCAnLW1hJywgJzIwMCcsICctbWV0YWxfYmluZGluZycsICctaW1hZScsICc8aW5maWxlLm1hZT4nLCAnLW9tYWUnLCAnPG91dGZpbGUubWFlPic=

> <r_epik_Ionization_Penalty>
0.180973

> <r_epik_Ionization_Penalty_Charging>
0.180787

> <r_epik_Ionization_Penalty_Neutral>
0.000186186

> <r_epik_State_Penalty>
0.153592

> <r_epik_Charging_Adjusted_Penalty>
0.334379

> <i_epik_Tot_Q>
2

> <i_epik_Tot_abs_Q>
2

> <r_epik_Metal_State_Penalty>
0.153604

> <b_epik_Metal_Only>
0

> <s_lp_Force_Field>
OPLS_2005

> <r_lp_Energy>
41.0771

> <b_lp_Chiralities_Consistent>
1

> <s_lp_Variant>
AV-unprocessed.smi:2279-1

> <Gold.Version>
5.8.1

> <Gold.Id.Protein>
6NUR|6NUR_protein|mol2

> <Gold.PLP.Fitness>
47.0555

> <Gold.PLP.PLP>
-41.8583

> <Gold.PLP.part.hbond>
-1.0000

> <Gold.PLP.part.metal>
0.0000

> <Gold.PLP.part.buried>
-5.0179

> <Gold.PLP.part.nonpolar>
-36.8573

> <Gold.PLP.part.repulsive>
0.3673

> <Gold.PLP.ligand.clash>
0.0000

> <Gold.PLP.ligand.torsion>
0.4180

> <Gold.PLP.Chemscore.Hbond>
2.0000

> <Gold.PLP.Chemscore.CHOScore>
0.0000

> <Gold.PLP.Chemscore.Metal>
0.0000

> <Gold.Chemscore.Hbonds>
donor molecule, donor type, donor heavy atom, donor atom, acceptor molecule, acceptor atom, score
      L1  H    15    57       P1  7948  2.00

> <Gold.PLP.Chemscore.Internal.Correction>
0.0332

> <Gold.Rescore>
     Score         DG    S(hbond)    S(metal)    S(lipo)     H(rot)  DE(clash)    DE(int)     intcor
     16.17     -19.17       0.98        0.00     115.43       1.21       0.18       2.82       ----

> <Gold.Chemscore.Fitness>
16.1748

> <Gold.Chemscore.DG>
-19.1724

> <Gold.Chemscore.ZeroCoef>
-5.4800

> <Gold.Chemscore.Hbond>
0.9832

> <Gold.Chemscore.Metal>
0.0000

> <Gold.Chemscore.Lipo>
115.4258

> <Gold.Chemscore.Internal_Hbond>
0.0000

> <Gold.Chemscore.DEClash>
0.1799

> <Gold.Chemscore.DEInternal>
2.8178

> <Gold.Chemscore.Rot>
1.2095

> <Gold.Chemscore.Internal.Correction>
   9.000000E+99

> <Gold.Chemscore.Hbonds>
donor molecule, donor type, donor heavy atom, donor atom, acceptor molecule, acceptor atom, score
      L1  H    15    57       P1  7948  0.97

> <Gold.Chemscore.Hbond.Weighted>
-3.2839

> <Gold.Chemscore.Metal.Weighted>
-0.0000

> <Gold.Chemscore.Lipo.Weighted>
-13.5048

> <Gold.Chemscore.Internal_Hbond.Weighted>
0.0000

> <Gold.Chemscore.DEClash.Weighted>
0.1799

> <Gold.Chemscore.DEInternal.Weighted>
2.8178

> <Gold.Chemscore.Rot.Weighted>
3.0963

> <Gold.Chemscore.Internal.Correction.Weighted>
   9.000000E+99

> <Gold.Protein.RotatedTorsions>
[ 6907 6896 6895 6894 ] final   44.70 input  -60.11 | X-H torsion
[ 7974 7965 7964 7962 ] final -146.90 input  175.53 | X-H torsion
[ 8008 7997 7996 7995 ] final -178.33 input   59.86 | X-H torsion
[ 10167 10162 10161 10158 ] final   31.05 input  -65.29 | X-H torsion
[ 10718 10713 10712 10709 ] final -165.45 input   66.30 | X-H torsion
[ 10763 10752 10751 10750 ] final -164.33 input  -60.55 | X-H torsion
[ 11005 11000 10999 10996 ] final  -60.79 input  -57.11 | X-H torsion

> <Gold.Protein.ActiveResidues>
 VAL166  LYS551  ARG553  GLY616  TRP617  ASP618  TYR619  PRO620  LYS621  CYS622 
 ASP623  PHE694  ASN695  SER759  ASP760  ASP761  ALA762  ILE779  LEU786  VAL792 
 PHE793  MET794  SER795  GLU796  ALA797  LYS798  CYS799  TRP800  GLU811  SER814 

> <Gold.Protein.RotatedAtoms>
  152.2357  134.8278  160.0467 H   0  0  0  0  0  0  0  0  0  0  0  0  # atno 6907 bound_to 6896
  151.9011  133.3533  159.3839 H   0  0  0  0  0  0  0  0  0  0  0  0  # atno 6908 bound_to 6896
  150.7038  134.4753  159.5489 H   0  0  0  0  0  0  0  0  0  0  0  0  # atno 6909 bound_to 6896
  144.8129  140.5397  143.5630 H   0  0  0  0  0  0  0  0  0  0  0  0  # atno 7974 bound_to 7965
  156.0175  140.1254  157.0391 H   0  0  0  0  0  0  0  0  0  0  0  0  # atno 8008 bound_to 7997
  154.4299  140.1075  156.5986 H   0  0  0  0  0  0  0  0  0  0  0  0  # atno 8009 bound_to 7997
  155.5992  140.3470  155.4591 H   0  0  0  0  0  0  0  0  0  0  0  0  # atno 8010 bound_to 7997
  140.4623  144.0888  150.6216 H   0  0  0  0  0  0  0  0  0  0  0  0  # atno 10167 bound_to 10162
  156.6536  130.9017  151.3017 H   0  0  0  0  0  0  0  0  0  0  0  0  # atno 10718 bound_to 10713
  154.7039  135.2993  154.9300 H   0  0  0  0  0  0  0  0  0  0  0  0  # atno 10763 bound_to 10752
  154.0223  135.6681  153.4777 H   0  0  0  0  0  0  0  0  0  0  0  0  # atno 10764 bound_to 10752
  153.0702  135.5065  154.8198 H   0  0  0  0  0  0  0  0  0  0  0  0  # atno 10765 bound_to 10752
  141.1300  133.6625  156.5277 H   0  0  0  0  0  0  0  0  0  0  0  0  # atno 11005 bound_to 11000
  145.5282  139.1475  143.3514 LP  0  0  0  0  0  0  0  0  0  0  0  0  # atno 17320 bound_to 7965
  146.2429  140.5423  142.8926 LP  0  0  0  0  0  0  0  0  0  0  0  0  # atno 17321 bound_to 7965
  140.4078  143.2671  151.9869 LP  0  0  0  0  0  0  0  0  0  0  0  0  # atno 17342 bound_to 10162
  139.4808  144.5941  151.7720 LP  0  0  0  0  0  0  0  0  0  0  0  0  # atno 17343 bound_to 10162
  157.7133  130.9466  150.1164 LP  0  0  0  0  0  0  0  0  0  0  0  0  # atno 17370 bound_to 10713
  156.2065  130.3663  149.8723 LP  0  0  0  0  0  0  0  0  0  0  0  0  # atno 17371 bound_to 10713
  140.4241  134.7161  157.4906 LP  0  0  0  0  0  0  0  0  0  0  0  0  # atno 17394 bound_to 11000
  140.0339  134.6365  155.9069 LP  0  0  0  0  0  0  0  0  0  0  0  0  # atno 17395 bound_to 11000

$$$$
