AV-unprocessed.smi:2976|AV-procd|sdf|11365|dock6
  -GOLD-   2272016283D 1   1.00000     0.00000
 Structure written by MMmdl.
 40 41  0  0  0  0  0  0  0  0  1 V2000
  151.4490  145.4923  159.5531 C   0  0  0  0  0  0  0  0  0  0  0  0
  151.9177  144.0825  159.1557 C   0  0  2  0  0  0  0  0  0  0  0  0
  150.7294  143.1477  158.8526 C   0  0  0  0  0  0  0  0  0  0  0  0
  151.2074  141.7745  158.3550 C   0  0  0  0  0  0  0  0  0  0  0  0
  152.1967  141.1299  159.3379 C   0  0  0  0  0  0  0  0  0  0  0  0
  153.3823  142.0683  159.6357 C   0  0  2  0  0  0  0  0  0  0  0  0
  154.3185  141.4090  160.5439 N   0  0  0  0  0  0  0  0  0  0  0  0
  154.9449  140.2464  160.3061 C   0  0  0  0  0  0  0  0  0  0  0  0
  154.7942  139.6004  159.2678 O   0  0  0  0  0  0  0  0  0  0  0  0
  155.8935  139.7616  161.4130 C   0  0  0  0  0  0  0  0  0  0  0  0
  155.4881  138.4853  162.0204 N   0  0  0  0  0  0  0  0  0  0  0  0
  155.2204  138.5678  163.3756 N   0  0  0  0  0  0  0  0  0  0  0  0
  154.8799  137.5059  164.0209 C   0  0  0  0  0  0  0  0  0  0  0  0
  154.7608  136.2172  163.3757 C   0  0  0  0  0  0  0  0  0  0  0  0
  154.3013  134.8271  164.2943 Cl  0  0  0  0  0  0  0  0  0  0  0  0
  155.0186  136.1484  162.0454 C   0  0  0  0  0  0  0  0  0  0  0  0
  154.8976  134.6414  161.2038 Cl  0  0  0  0  0  0  0  0  0  0  0  0
  155.4086  137.3388  161.2768 C   0  0  0  0  0  0  0  0  0  0  0  0
  155.6487  137.3180  160.0690 O   0  0  0  0  0  0  0  0  0  0  0  0
  152.9012  143.4452  160.1730 C   0  0  2  0  0  0  0  0  0  0  0  0
  152.3421  143.3766  161.6134 C   0  0  0  0  0  0  0  0  0  0  0  0
  150.7916  145.4716  160.4221 H   0  0  0  0  0  0  0  0  0  0  0  0
  150.8948  145.9596  158.7387 H   0  0  0  0  0  0  0  0  0  0  0  0
  152.2960  146.1383  159.7853 H   0  0  0  0  0  0  0  0  0  0  0  0
  152.4701  144.2033  158.2223 H   0  0  0  0  0  0  0  0  0  0  0  0
  150.1113  143.0225  159.7421 H   0  0  0  0  0  0  0  0  0  0  0  0
  150.0854  143.5993  158.0973 H   0  0  0  0  0  0  0  0  0  0  0  0
  150.3520  141.1159  158.2022 H   0  0  0  0  0  0  0  0  0  0  0  0
  151.6861  141.8881  157.3815 H   0  0  0  0  0  0  0  0  0  0  0  0
  151.6785  140.8703  160.2615 H   0  0  0  0  0  0  0  0  0  0  0  0
  152.5614  140.1910  158.9191 H   0  0  0  0  0  0  0  0  0  0  0  0
  153.9037  142.2359  158.6908 H   0  0  0  0  0  0  0  0  0  0  0  0
  154.5032  141.8744  161.4207 H   0  0  0  0  0  0  0  0  0  0  0  0
  156.8941  139.6708  160.9863 H   0  0  0  0  0  0  0  0  0  0  0  0
  155.9736  140.5349  162.1793 H   0  0  0  0  0  0  0  0  0  0  0  0
  154.6633  137.5225  165.0891 H   0  0  0  0  0  0  0  0  0  0  0  0
  153.7744  144.0978  160.2173 H   0  0  0  0  0  0  0  0  0  0  0  0
  151.4431  142.7647  161.6762 H   0  0  0  0  0  0  0  0  0  0  0  0
  152.0931  144.3671  161.9925 H   0  0  0  0  0  0  0  0  0  0  0  0
  153.0716  142.9588  162.3070 H   0  0  0  0  0  0  0  0  0  0  0  0
  1  2  1  0  0  0  0
  1 22  1  0  0  0  0
  1 23  1  0  0  0  0
  1 24  1  0  0  0  0
  2 20  1  0  0  0  0
  2  3  1  0  0  0  0
  2 25  1  0  0  0  0
  3  4  1  0  0  0  0
  3 26  1  0  0  0  0
  3 27  1  0  0  0  0
  4  5  1  0  0  0  0
  4 28  1  0  0  0  0
  4 29  1  0  0  0  0
  5  6  1  0  0  0  0
  5 30  1  0  0  0  0
  5 31  1  0  0  0  0
  6  7  1  0  0  0  0
  6 20  1  0  0  0  0
  6 32  1  0  0  0  0
  7  8  1  0  0  0  0
  7 33  1  0  0  0  0
  8  9  2  0  0  0  0
  8 10  1  0  0  0  0
 10 11  1  0  0  0  0
 10 34  1  0  0  0  0
 10 35  1  0  0  0  0
 11 18  1  0  0  0  0
 11 12  1  0  0  0  0
 12 13  2  0  0  0  0
 13 14  1  0  0  0  0
 13 36  1  0  0  0  0
 14 15  1  0  0  0  0
 14 16  2  0  0  0  0
 16 17  1  0  0  0  0
 16 18  1  0  0  0  0
 18 19  2  0  0  0  0
 20 21  1  0  0  0  0
 20 37  1  0  0  0  0
 21 38  1  0  0  0  0
 21 39  1  0  0  0  0
 21 40  1  0  0  0  0
M  END
> <s_m_source_file>
AV-unprocessed.smi

> <i_m_source_file_index>
2976

> <i_lp_mmshare_version>
43012

> <i_f3d_flags>
0

> <s_epik_input>
W0NIM11bQ0BASF0xW0NIMl1bQ0gyXVtDSDJdW0NASF0oW0NASF0xW0NIM10pW05IXUMoPU8pW0NIMl1uMm5bY0hdYyhDbCljKENsKWMyPU8=

> <s_epik_cmdline>
J2VwaWtfcHl0aG9uJywgJy1waCcsICc3LjAnLCAnLXRuJywgJzgnLCAnLW1hJywgJzIwMCcsICctbWV0YWxfYmluZGluZycsICctaW1hZScsICc8aW5maWxlLm1hZT4nLCAnLW9tYWUnLCAnPG91dGZpbGUubWFlPic=

> <r_lp_tautomer_probability>
1

> <r_epik_Ionization_Penalty>
1.90777e-08

> <r_epik_Ionization_Penalty_Charging>
3.07942e-11

> <r_epik_Ionization_Penalty_Neutral>
1.90469e-08

> <r_epik_State_Penalty>
-0

> <r_epik_Charging_Adjusted_Penalty>
3.07942e-11

> <i_epik_Tot_Q>
0

> <i_epik_Tot_abs_Q>
0

> <r_epik_Metal_State_Penalty>
-0

> <b_epik_Metal_Only>
0

> <s_lp_Force_Field>
OPLS_2005

> <r_lp_Energy>
28.3124

> <b_lp_Chiralities_Consistent>
1

> <s_lp_Variant>
AV-unprocessed.smi:2976-7

> <Gold.Version>
5.8.1

> <Gold.Id.Protein>
6NUR|6NUR_protein|mol2

> <Gold.PLP.Fitness>
46.2116

> <Gold.PLP.PLP>
-43.2389

> <Gold.PLP.part.hbond>
-1.0000

> <Gold.PLP.part.metal>
0.0000

> <Gold.PLP.part.buried>
-5.3607

> <Gold.PLP.part.nonpolar>
-36.2477

> <Gold.PLP.part.repulsive>
0.0366

> <Gold.PLP.ligand.clash>
0.0000

> <Gold.PLP.ligand.torsion>
0.0204

> <Gold.PLP.Chemscore.Hbond>
1.0000

> <Gold.PLP.Chemscore.CHOScore>
0.0000

> <Gold.PLP.Chemscore.Metal>
0.0000

> <Gold.Chemscore.Hbonds>
donor molecule, donor type, donor heavy atom, donor atom, acceptor molecule, acceptor atom, score
      P1  H  7997  8008       L1     9  1.00

> <Gold.PLP.Chemscore.Internal.Correction>
0.0135

> <Gold.Rescore>
     Score         DG    S(hbond)    S(metal)    S(lipo)     H(rot)  DE(clash)    DE(int)     intcor
     17.65     -19.18       1.00        0.00     121.18       1.49       0.02       1.51       ----

> <Gold.Chemscore.Fitness>
17.6490

> <Gold.Chemscore.DG>
-19.1789

> <Gold.Chemscore.ZeroCoef>
-5.4800

> <Gold.Chemscore.Hbond>
0.9960

> <Gold.Chemscore.Metal>
0.0000

> <Gold.Chemscore.Lipo>
121.1784

> <Gold.Chemscore.Internal_Hbond>
0.0000

> <Gold.Chemscore.DEClash>
0.0202

> <Gold.Chemscore.DEInternal>
1.5097

> <Gold.Chemscore.Rot>
1.4866

> <Gold.Chemscore.Internal.Correction>
   9.000000E+99

> <Gold.Chemscore.Hbonds>
donor molecule, donor type, donor heavy atom, donor atom, acceptor molecule, acceptor atom, score
      P1  H  7997  8008       L1     9  0.97

> <Gold.Chemscore.Hbond.Weighted>
-3.3267

> <Gold.Chemscore.Metal.Weighted>
-0.0000

> <Gold.Chemscore.Lipo.Weighted>
-14.1779

> <Gold.Chemscore.Internal_Hbond.Weighted>
0.0000

> <Gold.Chemscore.DEClash.Weighted>
0.0202

> <Gold.Chemscore.DEInternal.Weighted>
1.5097

> <Gold.Chemscore.Rot.Weighted>
3.8057

> <Gold.Chemscore.Internal.Correction.Weighted>
   9.000000E+99

> <Gold.Protein.RotatedTorsions>
[ 6907 6896 6895 6894 ] final  -27.52 input  -60.11 | X-H torsion
[ 7974 7965 7964 7962 ] final  136.42 input  175.53 | X-H torsion
[ 8008 7997 7996 7995 ] final -120.62 input   59.86 | X-H torsion
[ 10167 10162 10161 10158 ] final  -82.68 input  -65.29 | X-H torsion
[ 10718 10713 10712 10709 ] final   15.51 input   66.30 | X-H torsion
[ 10763 10752 10751 10750 ] final  115.87 input  -60.55 | X-H torsion
[ 11005 11000 10999 10996 ] final   25.13 input  -57.11 | X-H torsion

> <Gold.Protein.ActiveResidues>
 VAL166  LYS551  ARG553  GLY616  TRP617  ASP618  TYR619  PRO620  LYS621  CYS622 
 ASP623  PHE694  ASN695  SER759  ASP760  ASP761  ALA762  ILE779  LEU786  VAL792 
 PHE793  MET794  SER795  GLU796  ALA797  LYS798  CYS799  TRP800  GLU811  SER814 

> <Gold.Protein.RotatedAtoms>
  151.1457  135.0202  159.8645 H   0  0  0  0  0  0  0  0  0  0  0  0  # atno 6907 bound_to 6896
  152.5453  134.1447  159.8503 H   0  0  0  0  0  0  0  0  0  0  0  0  # atno 6908 bound_to 6896
  151.1527  133.4851  159.2628 H   0  0  0  0  0  0  0  0  0  0  0  0  # atno 6909 bound_to 6896
  144.9567  139.4757  143.5499 H   0  0  0  0  0  0  0  0  0  0  0  0  # atno 7974 bound_to 7965
  155.1348  140.0401  157.2784 H   0  0  0  0  0  0  0  0  0  0  0  0  # atno 8008 bound_to 7997
  154.6516  140.2570  155.7181 H   0  0  0  0  0  0  0  0  0  0  0  0  # atno 8009 bound_to 7997
  156.2580  140.2835  156.0952 H   0  0  0  0  0  0  0  0  0  0  0  0  # atno 8010 bound_to 7997
  140.4297  143.2553  151.8776 H   0  0  0  0  0  0  0  0  0  0  0  0  # atno 10167 bound_to 10162
  157.0545  130.6283  149.5774 H   0  0  0  0  0  0  0  0  0  0  0  0  # atno 10718 bound_to 10713
  153.5287  135.3583  155.2665 H   0  0  0  0  0  0  0  0  0  0  0  0  # atno 10763 bound_to 10752
  154.8729  135.4063  154.3176 H   0  0  0  0  0  0  0  0  0  0  0  0  # atno 10764 bound_to 10752
  153.3861  135.7070  153.6597 H   0  0  0  0  0  0  0  0  0  0  0  0  # atno 10765 bound_to 10752
  140.3512  134.2227  155.7680 H   0  0  0  0  0  0  0  0  0  0  0  0  # atno 11005 bound_to 11000
  146.3339  139.8689  142.8843 LP  0  0  0  0  0  0  0  0  0  0  0  0  # atno 17320 bound_to 7965
  145.2762  141.0124  143.3743 LP  0  0  0  0  0  0  0  0  0  0  0  0  # atno 17321 bound_to 7965
  139.4784  144.5348  151.8614 LP  0  0  0  0  0  0  0  0  0  0  0  0  # atno 17342 bound_to 10162
  140.4441  144.1946  150.5893 LP  0  0  0  0  0  0  0  0  0  0  0  0  # atno 17343 bound_to 10162
  155.9997  130.5074  150.7617 LP  0  0  0  0  0  0  0  0  0  0  0  0  # atno 17370 bound_to 10713
  157.5003  131.0918  151.0322 LP  0  0  0  0  0  0  0  0  0  0  0  0  # atno 17371 bound_to 10713
  141.2011  133.7970  157.0454 LP  0  0  0  0  0  0  0  0  0  0  0  0  # atno 17394 bound_to 11000
  140.0702  134.9706  157.1454 LP  0  0  0  0  0  0  0  0  0  0  0  0  # atno 17395 bound_to 11000

$$$$
