AV-unprocessed.smi:2849|AV-procd|sdf|10958|dock2
  -GOLD-   2272015413D 1   1.00000     0.00000
 Structure written by MMmdl.
 55 58  0  0  0  0  0  0  0  0  2 V2000
  145.9824  133.1054  155.1994 C   0  0  0  0  0  0  0  0  0  0  0  0
  147.2364  132.3326  155.3658 N   0  3  2  0  0  0  0  0  0  0  0  0
  148.0492  132.7098  156.5478 C   0  0  1  0  0  0  0  0  0  0  0  0
  149.0564  131.5740  156.8452 C   0  0  0  0  0  0  0  0  0  0  0  0
  149.9195  131.1716  155.6318 C   0  0  0  0  0  0  0  0  0  0  0  0
  149.1036  131.1057  154.3243 C   0  0  0  0  0  0  0  0  0  0  0  0
  148.0937  132.2654  154.1574 C   0  0  2  0  0  0  0  0  0  0  0  0
  148.7322  133.6414  153.8427 C   0  0  0  0  0  0  0  0  0  0  0  0
  149.4503  134.3085  155.0414 C   0  0  1  0  0  0  0  0  0  0  0  0
  149.6201  135.7386  154.7933 N   0  0  0  0  0  0  0  0  0  0  0  0
  150.0494  136.6354  155.6936 C   0  0  0  0  0  0  0  0  0  0  0  0
  150.3709  136.3359  156.8427 O   0  0  0  0  0  0  0  0  0  0  0  0
  150.0737  137.8720  155.1668 N   0  0  0  0  0  0  0  0  0  0  0  0
  150.4097  139.1122  155.7778 C   0  0  0  0  0  0  0  0  0  0  0  0
  150.3910  140.3717  155.1324 C   0  0  0  0  0  0  0  0  0  0  0  0
  150.7537  141.5195  155.8632 C   0  0  0  0  0  0  0  0  0  0  0  0
  151.1211  141.3860  157.2228 C   0  0  0  0  0  0  0  0  0  0  0  0
  151.4995  142.5079  157.9863 N   0  0  0  0  0  0  0  0  0  0  0  0
  151.6924  143.8182  157.3850 C   0  0  0  0  0  0  0  0  0  0  0  0
  152.2009  144.6950  158.5281 C   0  0  0  0  0  0  0  0  0  0  0  0
  153.0030  143.7153  159.3848 C   0  0  0  0  0  0  0  0  0  0  0  0
  152.2644  142.3818  159.2192 C   0  0  0  0  0  0  0  0  0  0  0  0
  151.1382  140.1807  157.8390 N   0  0  0  0  0  0  0  0  0  0  0  0
  150.7903  139.0842  157.1345 C   0  0  0  0  0  0  0  0  0  0  0  0
  148.6839  134.1121  156.3695 C   0  0  0  0  0  0  0  0  0  0  0  0
  146.1683  134.1626  155.0121 H   0  0  0  0  0  0  0  0  0  0  0  0
  145.3664  133.0251  156.0956 H   0  0  0  0  0  0  0  0  0  0  0  0
  145.4015  132.7121  154.3647 H   0  0  0  0  0  0  0  0  0  0  0  0
  147.3808  132.7629  157.4085 H   0  0  0  0  0  0  0  0  0  0  0  0
  149.6962  131.8413  157.6871 H   0  0  0  0  0  0  0  0  0  0  0  0
  148.4938  130.6965  157.1670 H   0  0  0  0  0  0  0  0  0  0  0  0
  150.7594  131.8517  155.5208 H   0  0  0  0  0  0  0  0  0  0  0  0
  150.3803  130.2015  155.8204 H   0  0  0  0  0  0  0  0  0  0  0  0
  149.7753  131.0584  153.4665 H   0  0  0  0  0  0  0  0  0  0  0  0
  148.5477  130.1674  154.3181 H   0  0  0  0  0  0  0  0  0  0  0  0
  147.4578  132.0011  153.3112 H   0  0  0  0  0  0  0  0  0  0  0  0
  149.4221  133.5460  153.0032 H   0  0  0  0  0  0  0  0  0  0  0  0
  147.9433  134.3072  153.4899 H   0  0  0  0  0  0  0  0  0  0  0  0
  150.4434  133.8798  155.1521 H   0  0  0  0  0  0  0  0  0  0  0  0
  149.3792  136.0729  153.8716 H   0  0  0  0  0  0  0  0  0  0  0  0
  149.7760  137.9422  154.2048 H   0  0  0  0  0  0  0  0  0  0  0  0
  150.1099  140.4925  154.0989 H   0  0  0  0  0  0  0  0  0  0  0  0
  150.7513  142.4802  155.3703 H   0  0  0  0  0  0  0  0  0  0  0  0
  152.4377  143.7477  156.5917 H   0  0  0  0  0  0  0  0  0  0  0  0
  150.7675  144.2080  156.9584 H   0  0  0  0  0  0  0  0  0  0  0  0
  152.7904  145.5447  158.1828 H   0  0  0  0  0  0  0  0  0  0  0  0
  151.3567  145.0797  159.1018 H   0  0  0  0  0  0  0  0  0  0  0  0
  154.0131  143.6250  158.9827 H   0  0  0  0  0  0  0  0  0  0  0  0
  153.0843  144.0282  160.4260 H   0  0  0  0  0  0  0  0  0  0  0  0
  151.5738  142.2166  160.0468 H   0  0  0  0  0  0  0  0  0  0  0  0
  152.9674  141.5487  159.1860 H   0  0  0  0  0  0  0  0  0  0  0  0
  150.8214  138.1495  157.6754 H   0  0  0  0  0  0  0  0  0  0  0  0
  147.8855  134.8531  156.4302 H   0  0  0  0  0  0  0  0  0  0  0  0
  149.3423  134.3325  157.2106 H   0  0  0  0  0  0  0  0  0  0  0  0
  146.9320  131.3846  155.5359 H   0  0  0  0  0  0  0  0  0  0  0  0
  1  2  1  0  0  0  0
  1 26  1  0  0  0  0
  1 27  1  0  0  0  0
  1 28  1  0  0  0  0
  2  7  1  0  0  0  0
  2  3  1  0  0  0  0
  2 55  1  0  0  0  0
  3 25  1  0  0  0  0
  3  4  1  0  0  0  0
  3 29  1  0  0  0  0
  4  5  1  0  0  0  0
  4 30  1  0  0  0  0
  4 31  1  0  0  0  0
  5  6  1  0  0  0  0
  5 32  1  0  0  0  0
  5 33  1  0  0  0  0
  6  7  1  0  0  0  0
  6 34  1  0  0  0  0
  6 35  1  0  0  0  0
  7  8  1  0  0  0  0
  7 36  1  0  0  0  0
  8  9  1  0  0  0  0
  8 37  1  0  0  0  0
  8 38  1  0  0  0  0
  9 10  1  0  0  0  0
  9 25  1  0  0  0  0
  9 39  1  0  0  0  0
 10 11  1  0  0  0  0
 10 40  1  0  0  0  0
 11 12  2  0  0  0  0
 11 13  1  0  0  0  0
 13 14  1  0  0  0  0
 13 41  1  0  0  0  0
 14 24  1  0  0  0  0
 14 15  2  0  0  0  0
 15 16  1  0  0  0  0
 15 42  1  0  0  0  0
 16 17  2  0  0  0  0
 16 43  1  0  0  0  0
 17 18  1  0  0  0  0
 17 23  1  0  0  0  0
 18 22  1  0  0  0  0
 18 19  1  0  0  0  0
 19 20  1  0  0  0  0
 19 44  1  0  0  0  0
 19 45  1  0  0  0  0
 20 21  1  0  0  0  0
 20 46  1  0  0  0  0
 20 47  1  0  0  0  0
 21 22  1  0  0  0  0
 21 48  1  0  0  0  0
 21 49  1  0  0  0  0
 22 50  1  0  0  0  0
 22 51  1  0  0  0  0
 23 24  2  0  0  0  0
 24 52  1  0  0  0  0
 25 53  1  0  0  0  0
 25 54  1  0  0  0  0
M  CHG  1   2   1
M  END
> <s_m_source_file>
AV-unprocessed.smi

> <i_m_source_file_index>
2849

> <i_lp_mmshare_version>
43012

> <i_f3d_flags>
0

> <s_epik_input>
W0NIMl0xW0NIMl1bQ0gyXVtDQEhdKE4oW0NIM10pW0NIXTEyKVtDSDJdW0NASF0oW0NIMl0yKVtOSF1DKD1PKVtOSF1jM1tjSF1bY0hdYyhuW2NIXTMpTjRbQ0gyXVtDSDJdW0NIMl1bQ0gyXTQ=

> <s_epik_cmdline>
J2VwaWtfcHl0aG9uJywgJy1waCcsICc3LjAnLCAnLXRuJywgJzgnLCAnLW1hJywgJzIwMCcsICctbWV0YWxfYmluZGluZycsICctaW1hZScsICc8aW5maWxlLm1hZT4nLCAnLW9tYWUnLCAnPG91dGZpbGUubWFlPic=

> <r_lp_tautomer_probability>
1

> <r_epik_Ionization_Penalty>
0.07954

> <r_epik_Ionization_Penalty_Charging>
0.00089841

> <r_epik_Ionization_Penalty_Neutral>
0.0786416

> <r_epik_State_Penalty>
0.0689917

> <r_epik_Charging_Adjusted_Penalty>
0.0698901

> <i_epik_Tot_Q>
1

> <i_epik_Tot_abs_Q>
1

> <r_epik_Metal_State_Penalty>
0.060891

> <b_epik_Metal_Only>
0

> <s_lp_Force_Field>
OPLS_2005

> <r_lp_Energy>
60.9972

> <b_lp_Chiralities_Consistent>
1

> <s_lp_Variant>
AV-unprocessed.smi:2849-2

> <Gold.Version>
5.8.1

> <Gold.Id.Protein>
6NUR|6NUR_protein|mol2

> <Gold.PLP.Fitness>
45.8004

> <Gold.PLP.PLP>
-43.0583

> <Gold.PLP.part.hbond>
-1.0000

> <Gold.PLP.part.metal>
0.0000

> <Gold.PLP.part.buried>
-3.8370

> <Gold.PLP.part.nonpolar>
-36.4698

> <Gold.PLP.part.repulsive>
0.0938

> <Gold.PLP.ligand.clash>
0.0000

> <Gold.PLP.ligand.torsion>
0.2032

> <Gold.PLP.Chemscore.Hbond>
0.9913

> <Gold.PLP.Chemscore.CHOScore>
0.0000

> <Gold.PLP.Chemscore.Metal>
0.0000

> <Gold.Chemscore.Hbonds>
donor molecule, donor type, donor heavy atom, donor atom, acceptor molecule, acceptor atom, score
      L1  H    10    40       P1  7948  0.99

> <Gold.PLP.Chemscore.Internal.Correction>
0.1747

> <Gold.Rescore>
     Score         DG    S(hbond)    S(metal)    S(lipo)     H(rot)  DE(clash)    DE(int)     intcor
     16.28     -19.30       0.88        0.00     114.91       1.00       0.16       2.86       ----

> <Gold.Chemscore.Fitness>
16.2826

> <Gold.Chemscore.DG>
-19.2983

> <Gold.Chemscore.ZeroCoef>
-5.4800

> <Gold.Chemscore.Hbond>
0.8783

> <Gold.Chemscore.Metal>
0.0000

> <Gold.Chemscore.Lipo>
114.9111

> <Gold.Chemscore.Internal_Hbond>
0.0000

> <Gold.Chemscore.DEClash>
0.1590

> <Gold.Chemscore.DEInternal>
2.8567

> <Gold.Chemscore.Rot>
1.0000

> <Gold.Chemscore.Internal.Correction>
   9.000000E+99

> <Gold.Chemscore.Hbonds>
donor molecule, donor type, donor heavy atom, donor atom, acceptor molecule, acceptor atom, score
      L1  H    10    40       P1  7948  0.69

> <Gold.Chemscore.Hbond.Weighted>
-2.9337

> <Gold.Chemscore.Metal.Weighted>
-0.0000

> <Gold.Chemscore.Lipo.Weighted>
-13.4446

> <Gold.Chemscore.Internal_Hbond.Weighted>
0.0000

> <Gold.Chemscore.DEClash.Weighted>
0.1590

> <Gold.Chemscore.DEInternal.Weighted>
2.8567

> <Gold.Chemscore.Rot.Weighted>
2.5600

> <Gold.Chemscore.Internal.Correction.Weighted>
   9.000000E+99

> <Gold.Protein.RotatedTorsions>
[ 6907 6896 6895 6894 ] final  -99.04 input  -60.11 | X-H torsion
[ 7974 7965 7964 7962 ] final   24.46 input  175.53 | X-H torsion
[ 8008 7997 7996 7995 ] final   12.40 input   59.86 | X-H torsion
[ 10167 10162 10161 10158 ] final  -56.17 input  -65.29 | X-H torsion
[ 10718 10713 10712 10709 ] final    4.00 input   66.30 | X-H torsion
[ 10763 10752 10751 10750 ] final  -94.11 input  -60.55 | X-H torsion
[ 11005 11000 10999 10996 ] final  176.37 input  -57.11 | X-H torsion

> <Gold.Protein.ActiveResidues>
 VAL166  LYS551  ARG553  GLY616  TRP617  ASP618  TYR619  PRO620  LYS621  CYS622 
 ASP623  PHE694  ASN695  SER759  ASP760  ASP761  ALA762  ILE779  LEU786  VAL792 
 PHE793  MET794  SER795  GLU796  ALA797  LYS798  CYS799  TRP800  GLU811  SER814 

> <Gold.Protein.RotatedAtoms>
  150.7066  134.1102  159.3997 H   0  0  0  0  0  0  0  0  0  0  0  0  # atno 6907 bound_to 6896
  151.9088  135.0345  160.0522 H   0  0  0  0  0  0  0  0  0  0  0  0  # atno 6908 bound_to 6896
  152.2353  133.5055  159.5275 H   0  0  0  0  0  0  0  0  0  0  0  0  # atno 6909 bound_to 6896
  146.1936  139.7602  142.8813 H   0  0  0  0  0  0  0  0  0  0  0  0  # atno 7974 bound_to 7965
  154.8201  140.2882  155.5792 H   0  0  0  0  0  0  0  0  0  0  0  0  # atno 8008 bound_to 7997
  156.2997  140.2551  156.3037 H   0  0  0  0  0  0  0  0  0  0  0  0  # atno 8009 bound_to 7997
  154.9348  140.0382  157.2056 H   0  0  0  0  0  0  0  0  0  0  0  0  # atno 8010 bound_to 7997
  140.6333  143.2469  151.5185 H   0  0  0  0  0  0  0  0  0  0  0  0  # atno 10167 bound_to 10162
  156.8861  130.5671  149.5651 H   0  0  0  0  0  0  0  0  0  0  0  0  # atno 10718 bound_to 10713
  154.7024  135.5169  153.8546 H   0  0  0  0  0  0  0  0  0  0  0  0  # atno 10763 bound_to 10752
  153.0714  135.6602  154.0248 H   0  0  0  0  0  0  0  0  0  0  0  0  # atno 10764 bound_to 10752
  154.0105  135.3002  155.3372 H   0  0  0  0  0  0  0  0  0  0  0  0  # atno 10765 bound_to 10752
  140.3724  134.7018  157.4400 H   0  0  0  0  0  0  0  0  0  0  0  0  # atno 11005 bound_to 11000
  145.3713  141.0343  143.3229 LP  0  0  0  0  0  0  0  0  0  0  0  0  # atno 17320 bound_to 7965
  144.8536  139.5284  143.6845 LP  0  0  0  0  0  0  0  0  0  0  0  0  # atno 17321 bound_to 7965
  139.5545  144.2311  152.1588 LP  0  0  0  0  0  0  0  0  0  0  0  0  # atno 17342 bound_to 10162
  140.1560  144.5070  150.6659 LP  0  0  0  0  0  0  0  0  0  0  0  0  # atno 17343 bound_to 10162
  156.0652  130.5697  150.9274 LP  0  0  0  0  0  0  0  0  0  0  0  0  # atno 17370 bound_to 10713
  157.6111  131.0936  150.8793 LP  0  0  0  0  0  0  0  0  0  0  0  0  # atno 17371 bound_to 10713
  140.0542  134.6088  155.8825 LP  0  0  0  0  0  0  0  0  0  0  0  0  # atno 17394 bound_to 11000
  141.1950  133.6585  156.5623 LP  0  0  0  0  0  0  0  0  0  0  0  0  # atno 17395 bound_to 11000

$$$$
