AV-unprocessed.smi:225|AV-procd|sdf|1724|dock3
  -GOLD-   2262020203D 1   1.00000     0.00000
 Structure written by MMmdl.
 56 59  0  0  0  0  0  0  0  0  1 V2000
  153.5312  138.7596  155.1414 O   0  0  0  0  0  0  0  0  0  0  0  0
  152.3847  138.6584  155.9571 C   0  0  0  0  0  0  0  0  0  0  0  0
  151.5258  139.9237  155.7933 C   0  0  0  0  0  0  0  0  0  0  0  0
  150.7928  140.2754  157.0129 N   0  0  0  0  0  0  0  0  0  0  0  0
  151.5787  140.5370  158.2196 C   0  0  0  0  0  0  0  0  0  0  0  0
  152.0464  142.0028  158.3403 C   0  0  0  0  0  0  0  0  0  0  0  0
  152.1169  142.4285  159.8206 C   0  0  0  0  0  0  0  0  0  0  0  0
  152.5861  143.8848  159.9723 C   0  0  0  0  0  0  0  0  0  0  0  0
  151.6864  144.8447  159.1794 C   0  0  0  0  0  0  0  0  0  0  0  0
  151.6041  144.4309  157.7024 C   0  0  0  0  0  0  0  0  0  0  0  0
  151.1365  142.9736  157.5578 C   0  0  0  0  0  0  0  0  0  0  0  0
  149.6375  139.6080  157.2682 C   0  0  0  0  0  0  0  0  0  0  0  0
  148.4801  139.9908  156.6651 N   0  0  0  0  0  0  0  0  0  0  0  0
  147.3442  139.3287  156.9030 C   0  0  0  0  0  0  0  0  0  0  0  0
  147.1443  138.2712  157.6915 N   0  0  0  0  0  0  0  0  0  0  0  0
  148.3024  137.8776  158.2946 C   0  0  0  0  0  0  0  0  0  0  0  0
  149.5799  138.4868  158.1426 C   0  0  0  0  0  0  0  0  0  0  0  0
  150.5165  137.8226  158.9242 N   0  0  0  0  0  0  0  0  0  0  0  0
  149.8341  136.8715  159.5004 C   0  0  0  0  0  0  0  0  0  0  0  0
  148.4984  136.8228  159.1698 N   0  0  0  0  0  0  0  0  0  0  0  0
  147.5115  135.8711  159.6586 C   0  0  0  0  0  0  0  0  0  0  0  0
  146.9099  136.2478  161.0348 C   0  0  2  0  0  0  0  0  0  0  0  0
  146.4545  137.5874  160.9855 O   0  0  0  0  0  0  0  0  0  0  0  0
  147.9236  136.1079  162.1731 C   0  0  0  0  0  0  0  0  0  0  0  0
  147.4317  134.8895  162.9451 C   0  0  0  0  0  0  0  0  0  0  0  0
  146.0248  134.9947  162.8250 O   0  0  0  0  0  0  0  0  0  0  0  0
  145.7472  135.3352  161.4747 C   0  0  0  0  0  0  0  0  0  0  0  0
  153.7781  137.8913  154.8618 H   0  0  0  0  0  0  0  0  0  0  0  0
  151.8193  137.7730  155.6651 H   0  0  0  0  0  0  0  0  0  0  0  0
  152.7021  138.5173  156.9902 H   0  0  0  0  0  0  0  0  0  0  0  0
  152.1466  140.7642  155.4803 H   0  0  0  0  0  0  0  0  0  0  0  0
  150.8186  139.7627  154.9807 H   0  0  0  0  0  0  0  0  0  0  0  0
  151.0263  140.2621  159.1195 H   0  0  0  0  0  0  0  0  0  0  0  0
  152.4498  139.8811  158.1954 H   0  0  0  0  0  0  0  0  0  0  0  0
  153.0546  142.0854  157.9345 H   0  0  0  0  0  0  0  0  0  0  0  0
  151.1365  142.3125  160.2846 H   0  0  0  0  0  0  0  0  0  0  0  0
  152.7949  141.7705  160.3653 H   0  0  0  0  0  0  0  0  0  0  0  0
  152.5917  144.1659  161.0258 H   0  0  0  0  0  0  0  0  0  0  0  0
  153.6153  143.9754  159.6225 H   0  0  0  0  0  0  0  0  0  0  0  0
  150.6857  144.8508  159.6137 H   0  0  0  0  0  0  0  0  0  0  0  0
  152.0656  145.8637  159.2609 H   0  0  0  0  0  0  0  0  0  0  0  0
  150.9234  145.0940  157.1679 H   0  0  0  0  0  0  0  0  0  0  0  0
  152.5822  144.5485  157.2343 H   0  0  0  0  0  0  0  0  0  0  0  0
  151.1179  142.7055  156.5010 H   0  0  0  0  0  0  0  0  0  0  0  0
  150.1106  142.8870  157.9174 H   0  0  0  0  0  0  0  0  0  0  0  0
  146.4712  139.6971  156.3848 H   0  0  0  0  0  0  0  0  0  0  0  0
  150.2924  136.1734  160.1857 H   0  0  0  0  0  0  0  0  0  0  0  0
  146.7188  135.7932  158.9134 H   0  0  0  0  0  0  0  0  0  0  0  0
  147.9800  134.8872  159.7077 H   0  0  0  0  0  0  0  0  0  0  0  0
  145.5299  137.5821  160.7904 H   0  0  0  0  0  0  0  0  0  0  0  0
  148.9519  135.9915  161.8291 H   0  0  0  0  0  0  0  0  0  0  0  0
  147.8968  136.9778  162.8313 H   0  0  0  0  0  0  0  0  0  0  0  0
  147.7745  133.9641  162.4794 H   0  0  0  0  0  0  0  0  0  0  0  0
  147.7507  134.8927  163.9875 H   0  0  0  0  0  0  0  0  0  0  0  0
  144.7645  135.7977  161.3734 H   0  0  0  0  0  0  0  0  0  0  0  0
  145.7350  134.4079  160.9014 H   0  0  0  0  0  0  0  0  0  0  0  0
  1  2  1  0  0  0  0
  1 28  1  0  0  0  0
  2  3  1  0  0  0  0
  2 29  1  0  0  0  0
  2 30  1  0  0  0  0
  3  4  1  0  0  0  0
  3 31  1  0  0  0  0
  3 32  1  0  0  0  0
  4  5  1  0  0  0  0
  4 12  1  0  0  0  0
  5  6  1  0  0  0  0
  5 33  1  0  0  0  0
  5 34  1  0  0  0  0
  6 11  1  0  0  0  0
  6  7  1  0  0  0  0
  6 35  1  0  0  0  0
  7  8  1  0  0  0  0
  7 36  1  0  0  0  0
  7 37  1  0  0  0  0
  8  9  1  0  0  0  0
  8 38  1  0  0  0  0
  8 39  1  0  0  0  0
  9 10  1  0  0  0  0
  9 40  1  0  0  0  0
  9 41  1  0  0  0  0
 10 11  1  0  0  0  0
 10 42  1  0  0  0  0
 10 43  1  0  0  0  0
 11 44  1  0  0  0  0
 11 45  1  0  0  0  0
 12 17  1  0  0  0  0
 12 13  2  0  0  0  0
 13 14  1  0  0  0  0
 14 15  2  0  0  0  0
 14 46  1  0  0  0  0
 15 16  1  0  0  0  0
 16 20  1  0  0  0  0
 16 17  2  0  0  0  0
 17 18  1  0  0  0  0
 18 19  2  0  0  0  0
 19 20  1  0  0  0  0
 19 47  1  0  0  0  0
 20 21  1  0  0  0  0
 21 22  1  0  0  0  0
 21 48  1  0  0  0  0
 21 49  1  0  0  0  0
 22 27  1  0  0  0  0
 22 23  1  0  0  0  0
 22 24  1  0  0  0  0
 23 50  1  0  0  0  0
 24 25  1  0  0  0  0
 24 51  1  0  0  0  0
 24 52  1  0  0  0  0
 25 26  1  0  0  0  0
 25 53  1  0  0  0  0
 25 54  1  0  0  0  0
 26 27  1  0  0  0  0
 27 55  1  0  0  0  0
 27 56  1  0  0  0  0
M  END
> <s_m_source_file>
AV-unprocessed.smi

> <i_m_source_file_index>
225

> <i_lp_mmshare_version>
43012

> <i_f3d_flags>
0

> <s_epik_input>
W0NIMl0xW0NIMl1bQ0gyXVtDSDJdW0NIMl1bQ0hdMVtDSDJdTihbQ0gyXVtDSDJdW09IXSljKG5bY0hdbjIpYyhjMjMpbltjSF1uM1tDSDJdW0NAQF00KFtPSF0pW0NIMl1bQ0gyXU9bQ0gyXTQ=

> <s_epik_cmdline>
J2VwaWtfcHl0aG9uJywgJy1waCcsICc3LjAnLCAnLXRuJywgJzgnLCAnLW1hJywgJzIwMCcsICctbWV0YWxfYmluZGluZycsICctaW1hZScsICc8aW5maWxlLm1hZT4nLCAnLW9tYWUnLCAnPG91dGZpbGUubWFlPic=

> <r_lp_tautomer_probability>
1

> <r_epik_Ionization_Penalty>
0.00405109

> <r_epik_Ionization_Penalty_Charging>
0

> <r_epik_Ionization_Penalty_Neutral>
0.00405109

> <r_epik_State_Penalty>
0.00270467

> <r_epik_Charging_Adjusted_Penalty>
0.00270467

> <i_epik_Tot_Q>
0

> <i_epik_Tot_abs_Q>
0

> <r_epik_Metal_State_Penalty>
-0

> <b_epik_Metal_Only>
0

> <s_lp_Force_Field>
OPLS_2005

> <r_lp_Energy>
36.6988

> <b_lp_Chiralities_Consistent>
1

> <s_lp_Variant>
AV-unprocessed.smi:225-2

> <Gold.Version>
5.8.1

> <Gold.Id.Protein>
6NUR|6NUR_protein|mol2

> <Gold.PLP.Fitness>
51.8982

> <Gold.PLP.PLP>
-49.1945

> <Gold.PLP.part.hbond>
-1.9928

> <Gold.PLP.part.metal>
0.0000

> <Gold.PLP.part.buried>
-7.7812

> <Gold.PLP.part.nonpolar>
-39.8571

> <Gold.PLP.part.repulsive>
0.0113

> <Gold.PLP.ligand.clash>
0.0000

> <Gold.PLP.ligand.torsion>
2.1712

> <Gold.PLP.Chemscore.Hbond>
2.0000

> <Gold.PLP.Chemscore.CHOScore>
0.0000

> <Gold.PLP.Chemscore.Metal>
0.0000

> <Gold.Chemscore.Hbonds>
donor molecule, donor type, donor heavy atom, donor atom, acceptor molecule, acceptor atom, score
      P1  H  6934  6947       L1    23  1.00
      P1  H  7997  8010       L1     1  0.94

> <Gold.PLP.Chemscore.Internal.Correction>
1.0461

> <Gold.Rescore>
     Score         DG    S(hbond)    S(metal)    S(lipo)     H(rot)  DE(clash)    DE(int)     intcor
     14.01     -16.81       1.88        0.00     125.57       3.76       0.06       2.74       ----

> <Gold.Chemscore.Fitness>
14.0052

> <Gold.Chemscore.DG>
-16.8072

> <Gold.Chemscore.ZeroCoef>
-5.4800

> <Gold.Chemscore.Hbond>
1.8781

> <Gold.Chemscore.Metal>
0.0000

> <Gold.Chemscore.Lipo>
125.5666

> <Gold.Chemscore.Internal_Hbond>
0.0000

> <Gold.Chemscore.DEClash>
0.0624

> <Gold.Chemscore.DEInternal>
2.7396

> <Gold.Chemscore.Rot>
3.7644

> <Gold.Chemscore.Internal.Correction>
   9.000000E+99

> <Gold.Chemscore.Hbonds>
donor molecule, donor type, donor heavy atom, donor atom, acceptor molecule, acceptor atom, score
      P1  H  6934  6947       L1    23  0.89
      P1  H  7997  8010       L1     1  0.46

> <Gold.Chemscore.Hbond.Weighted>
-6.2728

> <Gold.Chemscore.Metal.Weighted>
-0.0000

> <Gold.Chemscore.Lipo.Weighted>
-14.6913

> <Gold.Chemscore.Internal_Hbond.Weighted>
0.0000

> <Gold.Chemscore.DEClash.Weighted>
0.0624

> <Gold.Chemscore.DEInternal.Weighted>
2.7396

> <Gold.Chemscore.Rot.Weighted>
9.6369

> <Gold.Chemscore.Internal.Correction.Weighted>
   9.000000E+99

> <Gold.Protein.RotatedTorsions>
[ 6907 6896 6895 6894 ] final  -56.68 input  -60.11 | X-H torsion
[ 7974 7965 7964 7962 ] final  133.33 input  175.53 | X-H torsion
[ 8008 7997 7996 7995 ] final  108.12 input   59.86 | X-H torsion
[ 10167 10162 10161 10158 ] final   93.94 input  -65.29 | X-H torsion
[ 10718 10713 10712 10709 ] final  -13.31 input   66.30 | X-H torsion
[ 10763 10752 10751 10750 ] final  -77.62 input  -60.55 | X-H torsion
[ 11005 11000 10999 10996 ] final -162.85 input  -57.11 | X-H torsion

> <Gold.Protein.ActiveResidues>
 VAL166  LYS551  ARG553  GLY616  TRP617  ASP618  TYR619  PRO620  LYS621  CYS622 
 ASP623  PHE694  ASN695  SER759  ASP760  ASP761  ALA762  ILE779  LEU786  VAL792 
 PHE793  MET794  SER795  GLU796  ALA797  LYS798  CYS799  TRP800  GLU811  SER814 

> <Gold.Protein.RotatedAtoms>
  150.8148  134.7323  159.6719 H   0  0  0  0  0  0  0  0  0  0  0  0  # atno 6907 bound_to 6896
  152.4267  134.5852  159.9968 H   0  0  0  0  0  0  0  0  0  0  0  0  # atno 6908 bound_to 6896
  151.6052  133.3315  159.3091 H   0  0  0  0  0  0  0  0  0  0  0  0  # atno 6909 bound_to 6896
  144.9877  139.4439  143.5355 H   0  0  0  0  0  0  0  0  0  0  0  0  # atno 7974 bound_to 7965
  156.1878  140.3082  155.9272 H   0  0  0  0  0  0  0  0  0  0  0  0  # atno 8008 bound_to 7997
  155.3242  140.0457  157.3057 H   0  0  0  0  0  0  0  0  0  0  0  0  # atno 8009 bound_to 7997
  154.5416  140.2263  155.8641 H   0  0  0  0  0  0  0  0  0  0  0  0  # atno 8010 bound_to 7997
  139.8131  144.6764  150.9614 H   0  0  0  0  0  0  0  0  0  0  0  0  # atno 10167 bound_to 10162
  156.6321  130.4904  149.6125 H   0  0  0  0  0  0  0  0  0  0  0  0  # atno 10718 bound_to 10713
  154.5153  135.5758  153.6637 H   0  0  0  0  0  0  0  0  0  0  0  0  # atno 10763 bound_to 10752
  152.9905  135.6168  154.2825 H   0  0  0  0  0  0  0  0  0  0  0  0  # atno 10764 bound_to 10752
  154.2743  135.2852  155.2704 H   0  0  0  0  0  0  0  0  0  0  0  0  # atno 10765 bound_to 10752
  140.6047  134.4911  157.5209 H   0  0  0  0  0  0  0  0  0  0  0  0  # atno 11005 bound_to 11000
  146.3424  139.9189  142.8769 LP  0  0  0  0  0  0  0  0  0  0  0  0  # atno 17320 bound_to 7965
  145.2330  140.9980  143.3979 LP  0  0  0  0  0  0  0  0  0  0  0  0  # atno 17321 bound_to 7965
  140.7817  143.4165  151.0909 LP  0  0  0  0  0  0  0  0  0  0  0  0  # atno 17342 bound_to 10162
  139.7830  143.8328  152.3140 LP  0  0  0  0  0  0  0  0  0  0  0  0  # atno 17343 bound_to 10162
  156.2227  130.6746  151.1384 LP  0  0  0  0  0  0  0  0  0  0  0  0  # atno 17370 bound_to 10713
  157.7197  131.0689  150.6187 LP  0  0  0  0  0  0  0  0  0  0  0  0  # atno 17371 bound_to 10713
  139.9217  134.8135  156.1190 LP  0  0  0  0  0  0  0  0  0  0  0  0  # atno 17394 bound_to 11000
  141.0849  133.6738  156.2414 LP  0  0  0  0  0  0  0  0  0  0  0  0  # atno 17395 bound_to 11000

$$$$
