AV-unprocessed.smi:932|AV-procd|sdf|4199|dock4
  -GOLD-   22720 2103D 1   1.00000     0.00000
 Structure written by MMmdl.
 44 45  0  0  0  0  0  0  0  0  2 V2000
  151.0599  140.8040  155.4574 O   0  0  0  0  0  0  0  0  0  0  0  0
  150.1350  141.5928  155.6431 C   0  0  0  0  0  0  0  0  0  0  0  0
  148.9601  141.5195  154.9941 N   0  0  0  0  0  0  0  0  0  0  0  0
  148.6152  140.5307  153.9772 C   0  0  0  0  0  0  0  0  0  0  0  0
  147.9843  139.2658  154.5897 C   0  0  0  0  0  0  0  0  0  0  0  0
  146.9093  138.7059  153.7651 N   0  0  0  0  0  0  0  0  0  0  0  0
  145.9073  137.8596  154.1664 C   0  0  0  0  0  0  0  0  0  0  0  0
  145.1355  137.6164  153.0598 C   0  0  0  0  0  0  0  0  0  0  0  0
  145.7017  138.3188  152.0298 N   0  3  0  0  0  0  0  0  0  0  0  0
  146.7825  138.9776  152.4599 C   0  0  0  0  0  0  0  0  0  0  0  0
  150.2330  142.6046  156.5241 N   0  0  0  0  0  0  0  0  0  0  0  0
  151.3623  142.9657  157.3869 C   0  0  0  0  0  0  0  0  0  0  0  0
  151.5402  141.8279  158.4202 C   0  0  0  0  0  0  0  0  0  0  0  0
  152.8287  141.8993  159.2646 C   0  0  0  0  0  0  0  0  0  0  0  0
  152.6528  142.4199  160.7043 C   0  0  0  0  0  0  0  0  0  0  0  0
  151.7384  143.6432  160.8967 C   0  0  0  0  0  0  0  0  0  0  0  0
  152.2142  144.9619  160.2617 C   0  0  0  0  0  0  0  0  0  0  0  0
  152.3085  145.0005  158.7242 C   0  0  0  0  0  0  0  0  0  0  0  0
  151.1149  144.3805  157.9698 C   0  0  0  0  0  0  0  0  0  0  0  0
  148.2531  142.2037  155.2217 H   0  0  0  0  0  0  0  0  0  0  0  0
  147.9631  140.9615  153.2155 H   0  0  0  0  0  0  0  0  0  0  0  0
  149.5372  140.2569  153.4639 H   0  0  0  0  0  0  0  0  0  0  0  0
  148.7410  138.4902  154.7144 H   0  0  0  0  0  0  0  0  0  0  0  0
  147.5805  139.4762  155.5810 H   0  0  0  0  0  0  0  0  0  0  0  0
  145.8162  137.5094  155.1843 H   0  0  0  0  0  0  0  0  0  0  0  0
  144.2488  137.0126  152.9318 H   0  0  0  0  0  0  0  0  0  0  0  0
  147.4207  139.6125  151.8715 H   0  0  0  0  0  0  0  0  0  0  0  0
  149.4089  143.1784  156.6326 H   0  0  0  0  0  0  0  0  0  0  0  0
  152.2723  142.9915  156.7853 H   0  0  0  0  0  0  0  0  0  0  0  0
  150.6592  141.7325  159.0552 H   0  0  0  0  0  0  0  0  0  0  0  0
  151.5824  140.8904  157.8628 H   0  0  0  0  0  0  0  0  0  0  0  0
  153.2403  140.8921  159.3413 H   0  0  0  0  0  0  0  0  0  0  0  0
  153.6014  142.4591  158.7410 H   0  0  0  0  0  0  0  0  0  0  0  0
  152.2396  141.6081  161.3044 H   0  0  0  0  0  0  0  0  0  0  0  0
  153.6347  142.6270  161.1311 H   0  0  0  0  0  0  0  0  0  0  0  0
  150.7231  143.4129  160.5776 H   0  0  0  0  0  0  0  0  0  0  0  0
  151.6507  143.8150  161.9701 H   0  0  0  0  0  0  0  0  0  0  0  0
  151.5195  145.7427  160.5741 H   0  0  0  0  0  0  0  0  0  0  0  0
  153.1791  145.2430  160.6855 H   0  0  0  0  0  0  0  0  0  0  0  0
  152.3813  146.0508  158.4391 H   0  0  0  0  0  0  0  0  0  0  0  0
  153.2470  144.5690  158.3812 H   0  0  0  0  0  0  0  0  0  0  0  0
  150.8934  145.0474  157.1355 H   0  0  0  0  0  0  0  0  0  0  0  0
  150.2129  144.3981  158.5821 H   0  0  0  0  0  0  0  0  0  0  0  0
  145.3530  138.3407  151.0796 H   0  0  0  0  0  0  0  0  0  0  0  0
  1  2  2  0  0  0  0
  2  3  1  0  0  0  0
  2 11  1  0  0  0  0
  3  4  1  0  0  0  0
  3 20  1  0  0  0  0
  4  5  1  0  0  0  0
  4 21  1  0  0  0  0
  4 22  1  0  0  0  0
  5  6  1  0  0  0  0
  5 23  1  0  0  0  0
  5 24  1  0  0  0  0
  6 10  1  0  0  0  0
  6  7  1  0  0  0  0
  7  8  2  0  0  0  0
  7 25  1  0  0  0  0
  8  9  1  0  0  0  0
  8 26  1  0  0  0  0
  9 10  2  0  0  0  0
  9 44  1  0  0  0  0
 10 27  1  0  0  0  0
 11 12  1  0  0  0  0
 11 28  1  0  0  0  0
 12 19  1  0  0  0  0
 12 13  1  0  0  0  0
 12 29  1  0  0  0  0
 13 14  1  0  0  0  0
 13 30  1  0  0  0  0
 13 31  1  0  0  0  0
 14 15  1  0  0  0  0
 14 32  1  0  0  0  0
 14 33  1  0  0  0  0
 15 16  1  0  0  0  0
 15 34  1  0  0  0  0
 15 35  1  0  0  0  0
 16 17  1  0  0  0  0
 16 36  1  0  0  0  0
 16 37  1  0  0  0  0
 17 18  1  0  0  0  0
 17 38  1  0  0  0  0
 17 39  1  0  0  0  0
 18 19  1  0  0  0  0
 18 40  1  0  0  0  0
 18 41  1  0  0  0  0
 19 42  1  0  0  0  0
 19 43  1  0  0  0  0
M  CHG  1   9   1
M  END
> <s_m_source_file>
AV-unprocessed.smi

> <i_m_source_file_index>
932

> <i_lp_mmshare_version>
43012

> <i_f3d_flags>
0

> <s_epik_input>
W2NIXTFuW2NIXVtjSF1uMVtDSDJdW0NIMl1bTkhdQyg9TylbTkhdW0NIXTJbQ0gyXVtDSDJdW0NIMl1bQ0gyXVtDSDJdW0NIMl1bQ0gyXTI=

> <s_epik_cmdline>
J2VwaWtfcHl0aG9uJywgJy1waCcsICc3LjAnLCAnLXRuJywgJzgnLCAnLW1hJywgJzIwMCcsICctbWV0YWxfYmluZGluZycsICctaW1hZScsICc8aW5maWxlLm1hZT4nLCAnLW9tYWUnLCAnPG91dGZpbGUubWFlPic=

> <r_lp_tautomer_probability>
1

> <r_epik_Ionization_Penalty>
0.254654

> <r_epik_Ionization_Penalty_Charging>
0

> <r_epik_Ionization_Penalty_Neutral>
0.254654

> <r_epik_State_Penalty>
0.246077

> <r_epik_Charging_Adjusted_Penalty>
0.246077

> <i_epik_Tot_Q>
1

> <i_epik_Tot_abs_Q>
1

> <r_epik_Metal_State_Penalty>
0.536041

> <b_epik_Metal_Only>
0

> <s_lp_Force_Field>
OPLS_2005

> <r_lp_Energy>
30.2565

> <b_lp_Chiralities_Consistent>
1

> <s_lp_Variant>
AV-unprocessed.smi:932-1

> <Gold.Version>
5.8.1

> <Gold.Id.Protein>
6NUR|6NUR_protein|mol2

> <Gold.PLP.Fitness>
50.5717

> <Gold.PLP.PLP>
-42.1900

> <Gold.PLP.part.hbond>
-4.2528

> <Gold.PLP.part.metal>
0.0000

> <Gold.PLP.part.buried>
-3.3706

> <Gold.PLP.part.nonpolar>
-34.8037

> <Gold.PLP.part.repulsive>
0.3155

> <Gold.PLP.ligand.clash>
0.0000

> <Gold.PLP.ligand.torsion>
0.8302

> <Gold.PLP.Chemscore.Hbond>
2.3360

> <Gold.PLP.Chemscore.CHOScore>
1.0000

> <Gold.PLP.Chemscore.Metal>
0.0000

> <Gold.Chemscore.Hbonds>
donor molecule, donor type, donor heavy atom, donor atom, acceptor molecule, acceptor atom, score
      L1  H     9    44       P1 10171  1.00
      L1  H    11    28       P1  8028  0.59
      P1  H  7989  7998       L1     1  0.78
      L1  C    10    27       P1  7957  1.00

> <Gold.PLP.Chemscore.Internal.Correction>
0.0340

> <Gold.Rescore>
     Score         DG    S(hbond)    S(metal)    S(lipo)     H(rot)  DE(clash)    DE(int)     intcor
     18.78     -20.05       2.14        0.00     105.01       1.90       0.45       0.82       ----

> <Gold.Chemscore.Fitness>
18.7759

> <Gold.Chemscore.DG>
-20.0472

> <Gold.Chemscore.ZeroCoef>
-5.4800

> <Gold.Chemscore.Hbond>
2.1378

> <Gold.Chemscore.Metal>
0.0000

> <Gold.Chemscore.Lipo>
105.0118

> <Gold.Chemscore.Internal_Hbond>
0.0000

> <Gold.Chemscore.DEClash>
0.4528

> <Gold.Chemscore.DEInternal>
0.8185

> <Gold.Chemscore.Rot>
1.8982

> <Gold.Chemscore.Internal.Correction>
   9.000000E+99

> <Gold.Chemscore.Hbonds>
donor molecule, donor type, donor heavy atom, donor atom, acceptor molecule, acceptor atom, score
      L1  H     9    44       P1 10171  0.94
      L1  H    11    28       P1  8028  0.60
      P1  H  7989  7998       L1     1  0.50

> <Gold.Chemscore.Hbond.Weighted>
-7.1402

> <Gold.Chemscore.Metal.Weighted>
-0.0000

> <Gold.Chemscore.Lipo.Weighted>
-12.2864

> <Gold.Chemscore.Internal_Hbond.Weighted>
0.0000

> <Gold.Chemscore.DEClash.Weighted>
0.4528

> <Gold.Chemscore.DEInternal.Weighted>
0.8185

> <Gold.Chemscore.Rot.Weighted>
4.8594

> <Gold.Chemscore.Internal.Correction.Weighted>
   9.000000E+99

> <Gold.Protein.RotatedTorsions>
[ 6907 6896 6895 6894 ] final  179.38 input  -60.11 | X-H torsion
[ 7974 7965 7964 7962 ] final -136.56 input  175.53 | X-H torsion
[ 8008 7997 7996 7995 ] final -143.77 input   59.86 | X-H torsion
[ 10167 10162 10161 10158 ] final  -86.10 input  -65.29 | X-H torsion
[ 10718 10713 10712 10709 ] final  105.58 input   66.30 | X-H torsion
[ 10763 10752 10751 10750 ] final  -42.32 input  -60.55 | X-H torsion
[ 11005 11000 10999 10996 ] final -132.35 input  -57.11 | X-H torsion

> <Gold.Protein.ActiveResidues>
 VAL166  LYS551  ARG553  GLY616  TRP617  ASP618  TYR619  PRO620  LYS621  CYS622 
 ASP623  PHE694  ASN695  SER759  ASP760  ASP761  ALA762  ILE779  LEU786  VAL792 
 PHE793  MET794  SER795  GLU796  ALA797  LYS798  CYS799  TRP800  GLU811  SER814 

> <Gold.Protein.RotatedAtoms>
  151.6726  133.3313  159.3199 H   0  0  0  0  0  0  0  0  0  0  0  0  # atno 6907 bound_to 6896
  150.7860  134.6849  159.6474 H   0  0  0  0  0  0  0  0  0  0  0  0  # atno 6908 bound_to 6896
  152.3930  134.6414  160.0152 H   0  0  0  0  0  0  0  0  0  0  0  0  # atno 6909 bound_to 6896
  144.8917  140.6651  143.5141 H   0  0  0  0  0  0  0  0  0  0  0  0  # atno 7974 bound_to 7965
  155.5160  140.0587  157.2915 H   0  0  0  0  0  0  0  0  0  0  0  0  # atno 8008 bound_to 7997
  154.4535  140.1961  156.0396 H   0  0  0  0  0  0  0  0  0  0  0  0  # atno 8009 bound_to 7997
  156.0752  140.3254  155.7628 H   0  0  0  0  0  0  0  0  0  0  0  0  # atno 8010 bound_to 7997
  140.3974  143.2678  151.9187 H   0  0  0  0  0  0  0  0  0  0  0  0  # atno 10167 bound_to 10162
  157.6700  131.0831  150.5878 H   0  0  0  0  0  0  0  0  0  0  0  0  # atno 10718 bound_to 10713
  153.9771  135.6721  153.4749 H   0  0  0  0  0  0  0  0  0  0  0  0  # atno 10763 bound_to 10752
  153.0765  135.4946  154.8412 H   0  0  0  0  0  0  0  0  0  0  0  0  # atno 10764 bound_to 10752
  154.7185  135.3112  154.9046 H   0  0  0  0  0  0  0  0  0  0  0  0  # atno 10765 bound_to 10752
  140.9178  134.1484  157.4339 H   0  0  0  0  0  0  0  0  0  0  0  0  # atno 11005 bound_to 11000
  145.3772  139.1645  143.4300 LP  0  0  0  0  0  0  0  0  0  0  0  0  # atno 17320 bound_to 7965
  146.3057  140.3849  142.8688 LP  0  0  0  0  0  0  0  0  0  0  0  0  # atno 17321 bound_to 7965
  139.4786  144.5668  151.8153 LP  0  0  0  0  0  0  0  0  0  0  0  0  # atno 17342 bound_to 10162
  140.4776  144.1496  150.5927 LP  0  0  0  0  0  0  0  0  0  0  0  0  # atno 17343 bound_to 10162
  156.6179  130.4397  149.5833 LP  0  0  0  0  0  0  0  0  0  0  0  0  # atno 17370 bound_to 10713
  156.2379  130.6833  151.1527 LP  0  0  0  0  0  0  0  0  0  0  0  0  # atno 17371 bound_to 10713
  139.8769  134.9960  156.5772 LP  0  0  0  0  0  0  0  0  0  0  0  0  # atno 17394 bound_to 11000
  140.8027  133.8492  155.8741 LP  0  0  0  0  0  0  0  0  0  0  0  0  # atno 17395 bound_to 11000

$$$$
