AV-unprocessed.smi:793|AV-procd|sdf|3752|dock5
  -GOLD-   22720 1183D 1   1.00000     0.00000
 Structure written by MMmdl.
 39 40  0  0  0  0  0  0  0  0  1 V2000
  151.7518  138.5563  158.2043 C   0  0  0  0  0  0  0  0  0  0  0  0
  152.6279  139.4735  157.3421 C   0  0  0  0  0  0  0  0  0  0  0  0
  151.9776  140.8449  157.0798 C   0  0  2  0  0  0  0  0  0  0  0  0
  151.5951  141.3948  158.3401 O   0  0  0  0  0  0  0  0  0  0  0  0
  152.0754  142.7042  158.6337 C   0  0  0  0  0  0  0  0  0  0  0  0
  152.0726  143.0229  160.1325 C   0  0  0  0  0  0  0  0  0  0  0  0
  151.9183  144.5473  160.2271 C   0  0  0  0  0  0  0  0  0  0  0  0
  151.4443  145.0231  158.8452 C   0  0  0  0  0  0  0  0  0  0  0  0
  151.1320  143.7536  158.0506 C   0  0  0  0  0  0  0  0  0  0  0  0
  150.7460  140.7151  156.1683 C   0  0  0  0  0  0  0  0  0  0  0  0
  150.8642  140.1864  155.0633 O   0  0  0  0  0  0  0  0  0  0  0  0
  149.5940  141.1861  156.6848 N   0  0  0  0  0  0  0  0  0  0  0  0
  148.3118  141.2247  156.1141 C   0  0  0  0  0  0  0  0  0  0  0  0
  147.1455  140.9835  156.7662 C   0  0  0  0  0  0  0  0  0  0  0  0
  145.8984  141.0224  156.1591 N   0  0  0  0  0  0  0  0  0  0  0  0
  145.8199  141.3155  154.8073 C   0  0  0  0  0  0  0  0  0  0  0  0
  146.9004  141.5705  154.0436 C   0  0  0  0  0  0  0  0  0  0  0  0
  148.2464  141.5407  154.6594 C   0  0  0  0  0  0  0  0  0  0  0  0
  149.2548  141.7684  153.9911 O   0  0  0  0  0  0  0  0  0  0  0  0
  152.2440  137.5986  158.3740 H   0  0  0  0  0  0  0  0  0  0  0  0
  150.7946  138.3564  157.7223 H   0  0  0  0  0  0  0  0  0  0  0  0
  151.5507  139.0044  159.1777 H   0  0  0  0  0  0  0  0  0  0  0  0
  153.5868  139.6097  157.8445 H   0  0  0  0  0  0  0  0  0  0  0  0
  152.8459  138.9760  156.3961 H   0  0  0  0  0  0  0  0  0  0  0  0
  152.7182  141.4863  156.5991 H   0  0  0  0  0  0  0  0  0  0  0  0
  153.0705  142.8731  158.2200 H   0  0  0  0  0  0  0  0  0  0  0  0
  151.2144  142.5441  160.6066 H   0  0  0  0  0  0  0  0  0  0  0  0
  152.9701  142.6652  160.6380 H   0  0  0  0  0  0  0  0  0  0  0  0
  151.2042  144.8141  161.0067 H   0  0  0  0  0  0  0  0  0  0  0  0
  152.8687  145.0183  160.4809 H   0  0  0  0  0  0  0  0  0  0  0  0
  150.5826  145.6883  158.9079 H   0  0  0  0  0  0  0  0  0  0  0  0
  152.2477  145.5736  158.3539 H   0  0  0  0  0  0  0  0  0  0  0  0
  151.2621  143.8855  156.9762 H   0  0  0  0  0  0  0  0  0  0  0  0
  150.0964  143.4588  158.2273 H   0  0  0  0  0  0  0  0  0  0  0  0
  149.6435  141.5470  157.6269 H   0  0  0  0  0  0  0  0  0  0  0  0
  147.0795  140.7286  157.8117 H   0  0  0  0  0  0  0  0  0  0  0  0
  144.8141  141.3225  154.4139 H   0  0  0  0  0  0  0  0  0  0  0  0
  146.8073  141.7961  152.9915 H   0  0  0  0  0  0  0  0  0  0  0  0
  145.0622  140.8322  156.6934 H   0  0  0  0  0  0  0  0  0  0  0  0
  1  2  1  0  0  0  0
  1 20  1  0  0  0  0
  1 21  1  0  0  0  0
  1 22  1  0  0  0  0
  2  3  1  0  0  0  0
  2 23  1  0  0  0  0
  2 24  1  0  0  0  0
  3  4  1  0  0  0  0
  3 10  1  0  0  0  0
  3 25  1  0  0  0  0
  4  5  1  0  0  0  0
  5  9  1  0  0  0  0
  5  6  1  0  0  0  0
  5 26  1  0  0  0  0
  6  7  1  0  0  0  0
  6 27  1  0  0  0  0
  6 28  1  0  0  0  0
  7  8  1  0  0  0  0
  7 29  1  0  0  0  0
  7 30  1  0  0  0  0
  8  9  1  0  0  0  0
  8 31  1  0  0  0  0
  8 32  1  0  0  0  0
  9 33  1  0  0  0  0
  9 34  1  0  0  0  0
 10 11  2  0  0  0  0
 10 12  1  0  0  0  0
 12 35  1  0  0  0  0
 12 13  1  0  0  0  0
 13 18  1  0  0  0  0
 13 14  2  0  0  0  0
 14 36  1  0  0  0  0
 14 15  1  0  0  0  0
 15 39  1  0  0  0  0
 15 16  1  0  0  0  0
 16 37  1  0  0  0  0
 16 17  2  0  0  0  0
 17 18  1  0  0  0  0
 17 38  1  0  0  0  0
 18 19  2  0  0  0  0
M  END
> <s_m_source_file>
AV-unprocessed.smi

> <i_m_source_file_index>
793

> <i_lp_mmshare_version>
43012

> <i_f3d_flags>
0

> <s_epik_input>
W0NIMl0xW0NIMl1bQ0gyXVtDSDJdW0NIXTFPW0NAQEhdKFtDSDJdW0NIM10pQyg9TylbTkhdYzJbY0hdbltjSF1bY0hdYzJbT0hd

> <s_epik_cmdline>
J2VwaWtfcHl0aG9uJywgJy1waCcsICc3LjAnLCAnLXRuJywgJzgnLCAnLW1hJywgJzIwMCcsICctbWV0YWxfYmluZGluZycsICctaW1hZScsICc8aW5maWxlLm1hZT4nLCAnLW9tYWUnLCAnPG91dGZpbGUubWFlPic=

> <r_lp_tautomer_probability>
1

> <r_epik_Ionization_Penalty>
0.000234492

> <r_epik_Ionization_Penalty_Charging>
0.000234447

> <r_epik_Ionization_Penalty_Neutral>
4.48517e-08

> <r_epik_State_Penalty>
-0

> <r_epik_Charging_Adjusted_Penalty>
0.000234447

> <i_epik_Tot_Q>
0

> <i_epik_Tot_abs_Q>
0

> <r_epik_Metal_State_Penalty>
0.110344

> <b_epik_Metal_Only>
0

> <s_lp_Force_Field>
OPLS_2005

> <r_lp_Energy>
24.985

> <b_lp_Chiralities_Consistent>
1

> <s_lp_Variant>
AV-unprocessed.smi:793-1

> <Gold.Version>
5.8.1

> <Gold.Id.Protein>
6NUR|6NUR_protein|mol2

> <Gold.PLP.Fitness>
41.2481

> <Gold.PLP.PLP>
-36.1141

> <Gold.PLP.part.hbond>
-3.0000

> <Gold.PLP.part.metal>
0.0000

> <Gold.PLP.part.buried>
-3.3805

> <Gold.PLP.part.nonpolar>
-29.6181

> <Gold.PLP.part.repulsive>
0.2859

> <Gold.PLP.ligand.clash>
0.0629

> <Gold.PLP.ligand.torsion>
1.3225

> <Gold.PLP.Chemscore.Hbond>
1.5920

> <Gold.PLP.Chemscore.CHOScore>
1.0000

> <Gold.PLP.Chemscore.Metal>
0.0000

> <Gold.Chemscore.Hbonds>
donor molecule, donor type, donor heavy atom, donor atom, acceptor molecule, acceptor atom, score
      P1  H  7989  7998       L1    11  1.00
      P1  H  8011  8017       L1    19  0.54
      L1  C    16    37       P1 10175  1.00

> <Gold.PLP.Chemscore.Internal.Correction>
0.0659

> <Gold.Rescore>
     Score         DG    S(hbond)    S(metal)    S(lipo)     H(rot)  DE(clash)    DE(int)     intcor
     11.46     -17.11       1.66        0.00      87.23       1.61       0.14       5.51       ----

> <Gold.Chemscore.Fitness>
11.4621

> <Gold.Chemscore.DG>
-17.1079

> <Gold.Chemscore.ZeroCoef>
-5.4800

> <Gold.Chemscore.Hbond>
1.6566

> <Gold.Chemscore.Metal>
0.0000

> <Gold.Chemscore.Lipo>
87.2334

> <Gold.Chemscore.Internal_Hbond>
0.0000

> <Gold.Chemscore.DEClash>
0.1382

> <Gold.Chemscore.DEInternal>
5.5075

> <Gold.Chemscore.Rot>
1.6061

> <Gold.Chemscore.Internal.Correction>
   9.000000E+99

> <Gold.Chemscore.Hbonds>
donor molecule, donor type, donor heavy atom, donor atom, acceptor molecule, acceptor atom, score
      P1  H  7989  7998       L1    11  0.99
      P1  H  8011  8017       L1    19  0.54

> <Gold.Chemscore.Hbond.Weighted>
-5.5332

> <Gold.Chemscore.Metal.Weighted>
-0.0000

> <Gold.Chemscore.Lipo.Weighted>
-10.2063

> <Gold.Chemscore.Internal_Hbond.Weighted>
0.0000

> <Gold.Chemscore.DEClash.Weighted>
0.1382

> <Gold.Chemscore.DEInternal.Weighted>
5.5075

> <Gold.Chemscore.Rot.Weighted>
4.1116

> <Gold.Chemscore.Internal.Correction.Weighted>
   9.000000E+99

> <Gold.Protein.RotatedTorsions>
[ 6907 6896 6895 6894 ] final -141.02 input  -60.11 | X-H torsion
[ 7974 7965 7964 7962 ] final   76.71 input  175.53 | X-H torsion
[ 8008 7997 7996 7995 ] final   87.78 input   59.86 | X-H torsion
[ 10167 10162 10161 10158 ] final -131.68 input  -65.29 | X-H torsion
[ 10718 10713 10712 10709 ] final  -10.59 input   66.30 | X-H torsion
[ 10763 10752 10751 10750 ] final -163.35 input  -60.55 | X-H torsion
[ 11005 11000 10999 10996 ] final -144.89 input  -57.11 | X-H torsion

> <Gold.Protein.ActiveResidues>
 VAL166  LYS551  ARG553  GLY616  TRP617  ASP618  TYR619  PRO620  LYS621  CYS622 
 ASP623  PHE694  ASN695  SER759  ASP760  ASP761  ALA762  ILE779  LEU786  VAL792 
 PHE793  MET794  SER795  GLU796  ALA797  LYS798  CYS799  TRP800  GLU811  SER814 

> <Gold.Protein.RotatedAtoms>
  151.0683  133.5487  159.2628 H   0  0  0  0  0  0  0  0  0  0  0  0  # atno 6907 bound_to 6896
  151.2436  135.0597  159.9044 H   0  0  0  0  0  0  0  0  0  0  0  0  # atno 6908 bound_to 6896
  152.5408  134.0455  159.8140 H   0  0  0  0  0  0  0  0  0  0  0  0  # atno 6909 bound_to 6896
  145.6993  139.2577  143.1714 H   0  0  0  0  0  0  0  0  0  0  0  0  # atno 7974 bound_to 7965
  155.9796  140.3378  155.6650 H   0  0  0  0  0  0  0  0  0  0  0  0  # atno 8008 bound_to 7997
  155.6567  140.0711  157.2586 H   0  0  0  0  0  0  0  0  0  0  0  0  # atno 8009 bound_to 7997
  154.4188  140.1716  156.1720 H   0  0  0  0  0  0  0  0  0  0  0  0  # atno 8010 bound_to 7997
  139.9164  143.6433  152.2564 H   0  0  0  0  0  0  0  0  0  0  0  0  # atno 10167 bound_to 10162
  156.6713  130.5010  149.5999 H   0  0  0  0  0  0  0  0  0  0  0  0  # atno 10718 bound_to 10713
  154.7130  135.3010  154.9167 H   0  0  0  0  0  0  0  0  0  0  0  0  # atno 10763 bound_to 10752
  154.0063  135.6700  153.4766 H   0  0  0  0  0  0  0  0  0  0  0  0  # atno 10764 bound_to 10752
  153.0770  135.5029  154.8340 H   0  0  0  0  0  0  0  0  0  0  0  0  # atno 10765 bound_to 10752
  140.7979  134.2892  157.4989 H   0  0  0  0  0  0  0  0  0  0  0  0  # atno 11005 bound_to 11000
  146.0812  140.7762  142.9640 LP  0  0  0  0  0  0  0  0  0  0  0  0  # atno 17320 bound_to 7965
  144.6973  140.3492  143.7185 LP  0  0  0  0  0  0  0  0  0  0  0  0  # atno 17321 bound_to 7965
  139.6898  144.7648  151.1458 LP  0  0  0  0  0  0  0  0  0  0  0  0  # atno 17342 bound_to 10162
  140.7673  143.5605  150.9104 LP  0  0  0  0  0  0  0  0  0  0  0  0  # atno 17343 bound_to 10162
  156.1936  130.6575  151.1089 LP  0  0  0  0  0  0  0  0  0  0  0  0  # atno 17370 bound_to 10713
  157.7076  131.0749  150.6613 LP  0  0  0  0  0  0  0  0  0  0  0  0  # atno 17371 bound_to 10713
  139.8724  134.9412  156.3791 LP  0  0  0  0  0  0  0  0  0  0  0  0  # atno 17394 bound_to 11000
  140.9324  133.7570  156.0042 LP  0  0  0  0  0  0  0  0  0  0  0  0  # atno 17395 bound_to 11000

$$$$
