AV-unprocessed.smi:1567|AV-procd|sdf|6309|dock4
  -GOLD-   22720 6513D 1   1.00000     0.00000
 Structure written by MMmdl.
 43 45  0  0  0  0  0  0  0  0  2 V2000
  152.0978  135.2390  156.6379 O   0  0  0  0  0  0  0  0  0  0  0  0
  151.4025  136.4618  156.7507 C   0  0  0  0  0  0  0  0  0  0  0  0
  152.1503  137.5551  155.9764 C   0  0  0  0  0  0  0  0  0  0  0  0
  151.6696  137.6751  154.5204 C   0  0  0  0  0  0  0  0  0  0  0  0
  150.5316  138.6351  154.3464 C   0  0  0  0  0  0  0  0  0  0  0  0
  149.4401  138.4758  153.5421 N   0  3  0  0  0  0  0  0  0  0  0  0
  148.6018  139.5859  153.6521 C   0  0  0  0  0  0  0  0  0  0  0  0
  147.3900  139.8794  153.0343 C   0  0  0  0  0  0  0  0  0  0  0  0
  146.7909  141.1114  153.3700 C   0  0  0  0  0  0  0  0  0  0  0  0
  147.3945  141.9959  154.2877 C   0  0  0  0  0  0  0  0  0  0  0  0
  148.6224  141.6865  154.9089 C   0  0  0  0  0  0  0  0  0  0  0  0
  149.2081  140.4670  154.5698 C   0  0  0  0  0  0  0  0  0  0  0  0
  150.3912  139.8390  154.9734 N   0  0  0  0  0  0  0  0  0  0  0  0
  151.2602  140.5147  155.9490 C   0  0  0  0  0  0  0  0  0  0  0  0
  150.5004  140.9894  157.2038 C   0  0  1  0  0  0  0  0  0  0  0  0
  149.8775  139.8840  157.8314 O   0  0  0  0  0  0  0  0  0  0  0  0
  151.4198  141.7609  158.1410 C   0  0  0  0  0  0  0  0  0  0  0  0
  151.2657  143.1548  158.3174 C   0  0  0  0  0  0  0  0  0  0  0  0
  152.1133  143.8596  159.1940 C   0  0  0  0  0  0  0  0  0  0  0  0
  151.9601  145.1950  159.3559 F   0  0  0  0  0  0  0  0  0  0  0  0
  153.1179  143.1757  159.9042 C   0  0  0  0  0  0  0  0  0  0  0  0
  153.2716  141.7861  159.7402 C   0  0  0  0  0  0  0  0  0  0  0  0
  152.4251  141.0792  158.8640 C   0  0  0  0  0  0  0  0  0  0  0  0
  152.5795  139.7401  158.7260 F   0  0  0  0  0  0  0  0  0  0  0  0
  151.5032  134.5334  156.8432 H   0  0  0  0  0  0  0  0  0  0  0  0
  150.3923  136.3345  156.3605 H   0  0  0  0  0  0  0  0  0  0  0  0
  151.3164  136.7254  157.8054 H   0  0  0  0  0  0  0  0  0  0  0  0
  152.0147  138.5103  156.4860 H   0  0  0  0  0  0  0  0  0  0  0  0
  153.2199  137.3398  155.9921 H   0  0  0  0  0  0  0  0  0  0  0  0
  152.4942  137.9970  153.8836 H   0  0  0  0  0  0  0  0  0  0  0  0
  151.3548  136.6970  154.1557 H   0  0  0  0  0  0  0  0  0  0  0  0
  146.9258  139.2033  152.3314 H   0  0  0  0  0  0  0  0  0  0  0  0
  145.8496  141.3837  152.9149 H   0  0  0  0  0  0  0  0  0  0  0  0
  146.9055  142.9308  154.5207 H   0  0  0  0  0  0  0  0  0  0  0  0
  149.0760  142.3699  155.6116 H   0  0  0  0  0  0  0  0  0  0  0  0
  152.0557  139.8225  156.2271 H   0  0  0  0  0  0  0  0  0  0  0  0
  151.7466  141.3526  155.4480 H   0  0  0  0  0  0  0  0  0  0  0  0
  149.6916  141.6546  156.9005 H   0  0  0  0  0  0  0  0  0  0  0  0
  148.9406  139.9959  157.7749 H   0  0  0  0  0  0  0  0  0  0  0  0
  150.4942  143.6914  157.7846 H   0  0  0  0  0  0  0  0  0  0  0  0
  153.7676  143.7157  160.5771 H   0  0  0  0  0  0  0  0  0  0  0  0
  154.0385  141.2606  160.2899 H   0  0  0  0  0  0  0  0  0  0  0  0
  149.2844  137.6629  152.9599 H   0  0  0  0  0  0  0  0  0  0  0  0
  1  2  1  0  0  0  0
  1 25  1  0  0  0  0
  2  3  1  0  0  0  0
  2 26  1  0  0  0  0
  2 27  1  0  0  0  0
  3  4  1  0  0  0  0
  3 28  1  0  0  0  0
  3 29  1  0  0  0  0
  4  5  1  0  0  0  0
  4 30  1  0  0  0  0
  4 31  1  0  0  0  0
  5 13  1  0  0  0  0
  5  6  2  0  0  0  0
  6  7  1  0  0  0  0
  6 43  1  0  0  0  0
  7 12  2  0  0  0  0
  7  8  1  0  0  0  0
  8  9  2  0  0  0  0
  8 32  1  0  0  0  0
  9 10  1  0  0  0  0
  9 33  1  0  0  0  0
 10 11  2  0  0  0  0
 10 34  1  0  0  0  0
 11 12  1  0  0  0  0
 11 35  1  0  0  0  0
 12 13  1  0  0  0  0
 13 14  1  0  0  0  0
 14 15  1  0  0  0  0
 14 36  1  0  0  0  0
 14 37  1  0  0  0  0
 15 16  1  0  0  0  0
 15 17  1  0  0  0  0
 15 38  1  0  0  0  0
 16 39  1  0  0  0  0
 17 23  1  0  0  0  0
 17 18  2  0  0  0  0
 18 19  1  0  0  0  0
 18 40  1  0  0  0  0
 19 20  1  0  0  0  0
 19 21  2  0  0  0  0
 21 22  1  0  0  0  0
 21 41  1  0  0  0  0
 22 23  2  0  0  0  0
 22 42  1  0  0  0  0
 23 24  1  0  0  0  0
M  CHG  1   6   1
M  END
> <s_m_source_file>
AV-unprocessed.smi

> <i_m_source_file_index>
1567

> <i_lp_mmshare_version>
43012

> <i_f3d_flags>
0

> <s_epik_input>
W09IXVtDSDJdW0NIMl1bQ0gyXWMobjEpbihjKGMxMilbY0hdW2NIXVtjSF1bY0hdMilbQ0gyXVtDQEhdKFtPSF0pYzNbY0hdYyhGKVtjSF1bY0hdYzNG

> <s_epik_cmdline>
J2VwaWtfcHl0aG9uJywgJy1waCcsICc3LjAnLCAnLXRuJywgJzgnLCAnLW1hJywgJzIwMCcsICctbWV0YWxfYmluZGluZycsICctaW1hZScsICc8aW5maWxlLm1hZT4nLCAnLW9tYWUnLCAnPG91dGZpbGUubWFlPic=

> <r_epik_Ionization_Penalty>
0.786443

> <r_epik_Ionization_Penalty_Charging>
0.786439

> <r_epik_Ionization_Penalty_Neutral>
3.69699e-06

> <r_epik_State_Penalty>
0.816472

> <r_epik_Charging_Adjusted_Penalty>
1.60291

> <i_epik_Tot_Q>
1

> <i_epik_Tot_abs_Q>
1

> <r_epik_Metal_State_Penalty>
4.73733

> <b_epik_Metal_Only>
0

> <s_lp_Force_Field>
OPLS_2005

> <r_lp_Energy>
17.6008

> <b_lp_Chiralities_Consistent>
1

> <s_lp_Variant>
AV-unprocessed.smi:1567-4

> <Gold.Version>
5.8.1

> <Gold.Id.Protein>
6NUR|6NUR_protein|mol2

> <Gold.PLP.Fitness>
62.2213

> <Gold.PLP.PLP>
-54.9148

> <Gold.PLP.part.hbond>
-3.0000

> <Gold.PLP.part.metal>
0.0000

> <Gold.PLP.part.buried>
0.7148

> <Gold.PLP.part.nonpolar>
-53.6293

> <Gold.PLP.part.repulsive>
0.0735

> <Gold.PLP.ligand.clash>
0.0000

> <Gold.PLP.ligand.torsion>
0.8971

> <Gold.PLP.Chemscore.Hbond>
3.0000

> <Gold.PLP.Chemscore.CHOScore>
0.0000

> <Gold.PLP.Chemscore.Metal>
0.0000

> <Gold.Chemscore.Hbonds>
donor molecule, donor type, donor heavy atom, donor atom, acceptor molecule, acceptor atom, score
      L1  H     6    43       P1  7948  2.00
      P1  H 10752 10763       L1     1  1.00

> <Gold.PLP.Chemscore.Internal.Correction>
0.1008

> <Gold.Rescore>
     Score         DG    S(hbond)    S(metal)    S(lipo)     H(rot)  DE(clash)    DE(int)     intcor
     15.32     -17.98       1.74        0.00     129.80       3.31       0.65       2.02       ----

> <Gold.Chemscore.Fitness>
15.3182

> <Gold.Chemscore.DG>
-17.9834

> <Gold.Chemscore.ZeroCoef>
-5.4800

> <Gold.Chemscore.Hbond>
1.7356

> <Gold.Chemscore.Metal>
0.0000

> <Gold.Chemscore.Lipo>
129.8034

> <Gold.Chemscore.Internal_Hbond>
0.0000

> <Gold.Chemscore.DEClash>
0.6480

> <Gold.Chemscore.DEInternal>
2.0173

> <Gold.Chemscore.Rot>
3.3127

> <Gold.Chemscore.Internal.Correction>
   9.000000E+99

> <Gold.Chemscore.Hbonds>
donor molecule, donor type, donor heavy atom, donor atom, acceptor molecule, acceptor atom, score
      L1  H     6    43       P1  7948  0.97
      P1  H 10752 10763       L1     1  0.38

> <Gold.Chemscore.Hbond.Weighted>
-5.7969

> <Gold.Chemscore.Metal.Weighted>
-0.0000

> <Gold.Chemscore.Lipo.Weighted>
-15.1870

> <Gold.Chemscore.Internal_Hbond.Weighted>
0.0000

> <Gold.Chemscore.DEClash.Weighted>
0.6480

> <Gold.Chemscore.DEInternal.Weighted>
2.0173

> <Gold.Chemscore.Rot.Weighted>
8.4805

> <Gold.Chemscore.Internal.Correction.Weighted>
   9.000000E+99

> <Gold.Protein.RotatedTorsions>
[ 6907 6896 6895 6894 ] final  -96.36 input  -60.11 | X-H torsion
[ 7974 7965 7964 7962 ] final  -36.19 input  175.53 | X-H torsion
[ 8008 7997 7996 7995 ] final  -83.02 input   59.86 | X-H torsion
[ 10167 10162 10161 10158 ] final  120.35 input  -65.29 | X-H torsion
[ 10718 10713 10712 10709 ] final  157.72 input   66.30 | X-H torsion
[ 10763 10752 10751 10750 ] final   85.91 input  -60.55 | X-H torsion
[ 11005 11000 10999 10996 ] final   61.75 input  -57.11 | X-H torsion

> <Gold.Protein.ActiveResidues>
 VAL166  LYS551  ARG553  GLY616  TRP617  ASP618  TYR619  PRO620  LYS621  CYS622 
 ASP623  PHE694  ASN695  SER759  ASP760  ASP761  ALA762  ILE779  LEU786  VAL792 
 PHE793  MET794  SER795  GLU796  ALA797  LYS798  CYS799  TRP800  GLU811  SER814 

> <Gold.Protein.RotatedAtoms>
  150.6987  134.1514  159.4141 H   0  0  0  0  0  0  0  0  0  0  0  0  # atno 6907 bound_to 6896
  151.9497  135.0172  160.0550 H   0  0  0  0  0  0  0  0  0  0  0  0  # atno 6908 bound_to 6896
  152.2022  133.4814  159.5101 H   0  0  0  0  0  0  0  0  0  0  0  0  # atno 6909 bound_to 6896
  146.0683  140.6249  142.8965 H   0  0  0  0  0  0  0  0  0  0  0  0  # atno 7974 bound_to 7965
  154.6146  140.0625  156.9538 H   0  0  0  0  0  0  0  0  0  0  0  0  # atno 8008 bound_to 7997
  155.1916  140.3307  155.4339 H   0  0  0  0  0  0  0  0  0  0  0  0  # atno 8009 bound_to 7997
  156.2397  140.1880  156.7006 H   0  0  0  0  0  0  0  0  0  0  0  0  # atno 8010 bound_to 7997
  139.5987  144.7050  151.3113 H   0  0  0  0  0  0  0  0  0  0  0  0  # atno 10167 bound_to 10162
  157.1877  131.0647  151.2097 H   0  0  0  0  0  0  0  0  0  0  0  0  # atno 10718 bound_to 10713
  153.1519  135.4600  154.9649 H   0  0  0  0  0  0  0  0  0  0  0  0  # atno 10763 bound_to 10752
  154.7832  135.3195  154.7947 H   0  0  0  0  0  0  0  0  0  0  0  0  # atno 10764 bound_to 10752
  153.8451  135.6926  153.4853 H   0  0  0  0  0  0  0  0  0  0  0  0  # atno 10765 bound_to 10752
  140.0139  134.6254  155.9739 H   0  0  0  0  0  0  0  0  0  0  0  0  # atno 11005 bound_to 11000
  144.7216  140.4390  143.7004 LP  0  0  0  0  0  0  0  0  0  0  0  0  # atno 17320 bound_to 7965
  145.6438  139.1554  143.2900 LP  0  0  0  0  0  0  0  0  0  0  0  0  # atno 17321 bound_to 7965
  140.7233  143.7075  150.7795 LP  0  0  0  0  0  0  0  0  0  0  0  0  # atno 17342 bound_to 10162
  140.0647  143.5120  152.2610 LP  0  0  0  0  0  0  0  0  0  0  0  0  # atno 17343 bound_to 10162
  157.3891  130.7272  149.6684 LP  0  0  0  0  0  0  0  0  0  0  0  0  # atno 17370 bound_to 10713
  155.9716  130.4151  150.4166 LP  0  0  0  0  0  0  0  0  0  0  0  0  # atno 17371 bound_to 10713
  141.1730  133.6538  156.4721 LP  0  0  0  0  0  0  0  0  0  0  0  0  # atno 17394 bound_to 11000
  140.4505  134.6933  157.5037 LP  0  0  0  0  0  0  0  0  0  0  0  0  # atno 17395 bound_to 11000

$$$$
