AV-unprocessed.smi:1392|AV-procd|sdf|5659|dock2
  -GOLD-   22720 5283D 1   1.00000     0.00000
 Structure written by MMmdl.
 40 41  0  0  0  0  0  0  0  0  2 V2000
  152.3203  142.4567  158.4289 C   0  0  0  0  0  0  0  0  0  0  0  0
  151.5845  142.9245  157.2616 N   0  0  0  0  0  0  0  0  0  0  0  0
  151.5561  144.3450  156.9317 C   0  0  0  0  0  0  0  0  0  0  0  0
  150.9807  141.9897  156.3931 C   0  0  0  0  0  0  0  0  0  0  0  0
  151.5249  140.7076  156.1351 C   0  0  0  0  0  0  0  0  0  0  0  0
  150.8644  139.8293  155.2518 C   0  0  0  0  0  0  0  0  0  0  0  0
  149.6712  140.2363  154.6198 C   0  0  0  0  0  0  0  0  0  0  0  0
  149.0321  139.3191  153.7431 N   0  0  0  0  0  0  0  0  0  0  0  0
  147.7662  139.3511  153.2920 C   0  0  0  0  0  0  0  0  0  0  0  0
  146.9350  140.2143  153.5733 O   0  0  0  0  0  0  0  0  0  0  0  0
  147.5164  138.3250  152.4661 N   0  0  0  0  0  0  0  0  0  0  0  0
  146.2510  138.0949  151.7762 C   0  0  0  0  0  0  0  0  0  0  0  0
  145.6724  136.6964  152.0645 C   0  0  2  0  0  0  0  0  0  0  0  0
  145.6521  135.7560  150.8758 C   0  0  0  0  0  0  0  0  0  0  0  0
  144.6368  134.7113  151.3266 C   0  0  0  0  0  0  0  0  0  0  0  0
  143.6951  135.4119  152.1339 O   0  0  0  0  0  0  0  0  0  0  0  0
  144.1956  136.7059  152.4592 C   0  0  0  0  0  0  0  0  0  0  0  0
  149.1587  141.5202  154.9208 C   0  0  0  0  0  0  0  0  0  0  0  0
  149.8219  142.3277  155.7763 N   0  3  0  0  0  0  0  0  0  0  0  0
  151.6488  141.9601  159.1302 H   0  0  0  0  0  0  0  0  0  0  0  0
  152.7988  143.2839  158.9537 H   0  0  0  0  0  0  0  0  0  0  0  0
  153.1010  141.7544  158.1353 H   0  0  0  0  0  0  0  0  0  0  0  0
  150.5292  144.6898  156.8058 H   0  0  0  0  0  0  0  0  0  0  0  0
  152.1023  144.5340  156.0071 H   0  0  0  0  0  0  0  0  0  0  0  0
  152.0125  144.9441  157.7200 H   0  0  0  0  0  0  0  0  0  0  0  0
  152.4410  140.3795  156.6029 H   0  0  0  0  0  0  0  0  0  0  0  0
  151.2807  138.8514  155.0574 H   0  0  0  0  0  0  0  0  0  0  0  0
  149.6235  138.5968  153.3591 H   0  0  0  0  0  0  0  0  0  0  0  0
  148.2571  137.6624  152.2884 H   0  0  0  0  0  0  0  0  0  0  0  0
  145.5315  138.8656  152.0582 H   0  0  0  0  0  0  0  0  0  0  0  0
  146.4250  138.2153  150.7064 H   0  0  0  0  0  0  0  0  0  0  0  0
  146.2372  136.2241  152.8703 H   0  0  0  0  0  0  0  0  0  0  0  0
  145.2893  136.2722  149.9857 H   0  0  0  0  0  0  0  0  0  0  0  0
  146.6285  135.3263  150.6495 H   0  0  0  0  0  0  0  0  0  0  0  0
  144.1516  134.2101  150.4889 H   0  0  0  0  0  0  0  0  0  0  0  0
  145.1219  133.9518  151.9410 H   0  0  0  0  0  0  0  0  0  0  0  0
  144.0492  136.9354  153.5150 H   0  0  0  0  0  0  0  0  0  0  0  0
  143.6424  137.4423  151.8744 H   0  0  0  0  0  0  0  0  0  0  0  0
  148.2427  141.9320  154.5241 H   0  0  0  0  0  0  0  0  0  0  0  0
  149.4255  143.2478  155.9683 H   0  0  0  0  0  0  0  0  0  0  0  0
  1  2  1  0  0  0  0
  1 20  1  0  0  0  0
  1 21  1  0  0  0  0
  1 22  1  0  0  0  0
  2  3  1  0  0  0  0
  2  4  1  0  0  0  0
  3 23  1  0  0  0  0
  3 24  1  0  0  0  0
  3 25  1  0  0  0  0
  4 19  1  0  0  0  0
  4  5  2  0  0  0  0
  5  6  1  0  0  0  0
  5 26  1  0  0  0  0
  6  7  2  0  0  0  0
  6 27  1  0  0  0  0
  7  8  1  0  0  0  0
  7 18  1  0  0  0  0
  8  9  1  0  0  0  0
  8 28  1  0  0  0  0
  9 10  2  0  0  0  0
  9 11  1  0  0  0  0
 11 12  1  0  0  0  0
 11 29  1  0  0  0  0
 12 13  1  0  0  0  0
 12 30  1  0  0  0  0
 12 31  1  0  0  0  0
 13 17  1  0  0  0  0
 13 14  1  0  0  0  0
 13 32  1  0  0  0  0
 14 15  1  0  0  0  0
 14 33  1  0  0  0  0
 14 34  1  0  0  0  0
 15 16  1  0  0  0  0
 15 35  1  0  0  0  0
 15 36  1  0  0  0  0
 16 17  1  0  0  0  0
 17 37  1  0  0  0  0
 17 38  1  0  0  0  0
 18 19  2  0  0  0  0
 18 39  1  0  0  0  0
 19 40  1  0  0  0  0
M  CHG  1  19   1
M  END
> <s_m_source_file>
AV-unprocessed.smi

> <i_m_source_file_index>
1392

> <i_lp_mmshare_version>
43012

> <i_f3d_flags>
0

> <s_epik_input>
W0NIM11OKFtDSDNdKWMxW2NIXVtjSF1jKFtjSF1uMSlbTkhdQyg9TylbTkhdW0NIMl1bQ0BASF0yW0NIMl1bQ0gyXU9bQ0gyXTI=

> <s_epik_cmdline>
J2VwaWtfcHl0aG9uJywgJy1waCcsICc3LjAnLCAnLXRuJywgJzgnLCAnLW1hJywgJzIwMCcsICctbWV0YWxfYmluZGluZycsICctaW1hZScsICc8aW5maWxlLm1hZT4nLCAnLW9tYWUnLCAnPG91dGZpbGUubWFlPic=

> <r_lp_tautomer_probability>
0.999994

> <r_epik_Ionization_Penalty>
0.261114

> <r_epik_Ionization_Penalty_Charging>
0.261094

> <r_epik_Ionization_Penalty_Neutral>
2.01539e-05

> <r_epik_State_Penalty>
0.252829

> <r_epik_Charging_Adjusted_Penalty>
0.513923

> <i_epik_Tot_Q>
1

> <i_epik_Tot_abs_Q>
1

> <r_epik_Metal_State_Penalty>
0.54073

> <b_epik_Metal_Only>
0

> <s_lp_Force_Field>
OPLS_2005

> <r_lp_Energy>
27.7026

> <b_lp_Chiralities_Consistent>
1

> <s_lp_Variant>
AV-unprocessed.smi:1392-1

> <Gold.Version>
5.8.1

> <Gold.Id.Protein>
6NUR|6NUR_protein|mol2

> <Gold.PLP.Fitness>
44.3624

> <Gold.PLP.PLP>
-37.8934

> <Gold.PLP.part.hbond>
-4.0000

> <Gold.PLP.part.metal>
0.0000

> <Gold.PLP.part.buried>
-0.9952

> <Gold.PLP.part.nonpolar>
-34.8796

> <Gold.PLP.part.repulsive>
0.6093

> <Gold.PLP.ligand.clash>
0.0000

> <Gold.PLP.ligand.torsion>
1.2748

> <Gold.PLP.Chemscore.Hbond>
3.0000

> <Gold.PLP.Chemscore.CHOScore>
0.0000

> <Gold.PLP.Chemscore.Metal>
0.0000

> <Gold.Chemscore.Hbonds>
donor molecule, donor type, donor heavy atom, donor atom, acceptor molecule, acceptor atom, score
      L1  H    11    29       P1  7948  1.00
      L1  H    19    40       P1  8028  2.00

> <Gold.PLP.Chemscore.Internal.Correction>
0.0187

> <Gold.Rescore>
     Score         DG    S(hbond)    S(metal)    S(lipo)     H(rot)  DE(clash)    DE(int)     intcor
     15.67     -18.04       1.99        0.00      77.55       1.23       0.12       2.26       ----

> <Gold.Chemscore.Fitness>
15.6656

> <Gold.Chemscore.DG>
-18.0441

> <Gold.Chemscore.ZeroCoef>
-5.4800

> <Gold.Chemscore.Hbond>
1.9855

> <Gold.Chemscore.Metal>
0.0000

> <Gold.Chemscore.Lipo>
77.5478

> <Gold.Chemscore.Internal_Hbond>
0.0000

> <Gold.Chemscore.DEClash>
0.1166

> <Gold.Chemscore.DEInternal>
2.2620

> <Gold.Chemscore.Rot>
1.2268

> <Gold.Chemscore.Internal.Correction>
   9.000000E+99

> <Gold.Chemscore.Hbonds>
donor molecule, donor type, donor heavy atom, donor atom, acceptor molecule, acceptor atom, score
      L1  H    11    29       P1  7948  0.99
      L1  H    19    40       P1  8028  0.98

> <Gold.Chemscore.Hbond.Weighted>
-6.6316

> <Gold.Chemscore.Metal.Weighted>
-0.0000

> <Gold.Chemscore.Lipo.Weighted>
-9.0731

> <Gold.Chemscore.Internal_Hbond.Weighted>
0.0000

> <Gold.Chemscore.DEClash.Weighted>
0.1166

> <Gold.Chemscore.DEInternal.Weighted>
2.2620

> <Gold.Chemscore.Rot.Weighted>
3.1406

> <Gold.Chemscore.Internal.Correction.Weighted>
   9.000000E+99

> <Gold.Protein.RotatedTorsions>
[ 6907 6896 6895 6894 ] final  116.48 input  -60.11 | X-H torsion
[ 7974 7965 7964 7962 ] final -117.06 input  175.53 | X-H torsion
[ 8008 7997 7996 7995 ] final  121.07 input   59.86 | X-H torsion
[ 10167 10162 10161 10158 ] final  -25.36 input  -65.29 | X-H torsion
[ 10718 10713 10712 10709 ] final  161.46 input   66.30 | X-H torsion
[ 10763 10752 10751 10750 ] final  -92.34 input  -60.55 | X-H torsion
[ 11005 11000 10999 10996 ] final  136.38 input  -57.11 | X-H torsion

> <Gold.Protein.ActiveResidues>
 VAL166  LYS551  ARG553  GLY616  TRP617  ASP618  TYR619  PRO620  LYS621  CYS622 
 ASP623  PHE694  ASN695  SER759  ASP760  ASP761  ALA762  ILE779  LEU786  VAL792 
 PHE793  MET794  SER795  GLU796  ALA797  LYS798  CYS799  TRP800  GLU811  SER814 

> <Gold.Protein.RotatedAtoms>
  152.4675  133.7956  159.6924 H   0  0  0  0  0  0  0  0  0  0  0  0  # atno 6907 bound_to 6896
  150.8647  133.7582  159.2987 H   0  0  0  0  0  0  0  0  0  0  0  0  # atno 6908 bound_to 6896
  151.5136  135.1069  159.9912 H   0  0  0  0  0  0  0  0  0  0  0  0  # atno 6909 bound_to 6896
  145.0896  140.8481  143.3990 H   0  0  0  0  0  0  0  0  0  0  0  0  # atno 7974 bound_to 7965
  156.2670  140.2816  156.1250 H   0  0  0  0  0  0  0  0  0  0  0  0  # atno 8008 bound_to 7997
  155.1115  140.0391  157.2743 H   0  0  0  0  0  0  0  0  0  0  0  0  # atno 8009 bound_to 7997
  154.6739  140.2594  155.6984 H   0  0  0  0  0  0  0  0  0  0  0  0  # atno 8010 bound_to 7997
  140.7286  143.4271  151.0859 H   0  0  0  0  0  0  0  0  0  0  0  0  # atno 10167 bound_to 10162
  157.1362  131.0529  151.2348 H   0  0  0  0  0  0  0  0  0  0  0  0  # atno 10718 bound_to 10713
  154.6851  135.5235  153.8315 H   0  0  0  0  0  0  0  0  0  0  0  0  # atno 10763 bound_to 10752
  153.0592  135.6562  154.0514 H   0  0  0  0  0  0  0  0  0  0  0  0  # atno 10764 bound_to 10752
  154.0396  135.2978  155.3336 H   0  0  0  0  0  0  0  0  0  0  0  0  # atno 10765 bound_to 10752
  140.0042  134.9466  157.0139 H   0  0  0  0  0  0  0  0  0  0  0  0  # atno 11005 bound_to 11000
  145.1082  139.2775  143.5651 LP  0  0  0  0  0  0  0  0  0  0  0  0  # atno 17320 bound_to 7965
  146.3531  140.0669  142.8625 LP  0  0  0  0  0  0  0  0  0  0  0  0  # atno 17321 bound_to 7965
  139.7924  143.8200  152.3153 LP  0  0  0  0  0  0  0  0  0  0  0  0  # atno 17342 bound_to 10162
  139.8188  144.7304  150.9600 LP  0  0  0  0  0  0  0  0  0  0  0  0  # atno 17343 bound_to 10162
  157.4348  130.7511  149.7020 LP  0  0  0  0  0  0  0  0  0  0  0  0  # atno 17370 bound_to 10713
  155.9798  130.4036  150.3567 LP  0  0  0  0  0  0  0  0  0  0  0  0  # atno 17371 bound_to 10713
  140.4672  134.1424  155.7198 LP  0  0  0  0  0  0  0  0  0  0  0  0  # atno 17394 bound_to 11000
  141.1664  133.8694  157.1700 LP  0  0  0  0  0  0  0  0  0  0  0  0  # atno 17395 bound_to 11000

$$$$
