AV-unprocessed.smi:625|AV-procd|sdf|3104|dock4
  -GOLD-   22720 0 23D 1   1.00000     0.00000
 Structure written by MMmdl.
 49 51  0  0  0  0  0  0  0  0  1 V2000
  153.2696  141.8351  160.3386 C   0  0  0  0  0  0  0  0  0  0  0  0
  152.4961  141.5236  159.1461 N   0  0  0  0  0  0  0  0  0  0  0  0
  152.7532  140.4966  158.3176 C   0  0  0  0  0  0  0  0  0  0  0  0
  153.6894  139.7225  158.5218 O   0  0  0  0  0  0  0  0  0  0  0  0
  151.8358  140.3954  157.1788 C   0  0  0  0  0  0  0  0  0  0  0  0
  150.7978  141.3952  157.0163 C   0  0  0  0  0  0  0  0  0  0  0  0
  149.9231  141.3224  155.9941 C   0  0  0  0  0  0  0  0  0  0  0  0
  149.9804  140.2408  155.0075 C   0  0  0  0  0  0  0  0  0  0  0  0
  149.1708  140.1550  154.0842 O   0  0  0  0  0  0  0  0  0  0  0  0
  150.9842  139.3281  155.1843 N   0  0  0  0  0  0  0  0  0  0  0  0
  151.1379  138.1869  154.2625 C   0  0  0  0  0  0  0  0  0  0  0  0
  151.1316  136.8066  154.9423 C   0  0  0  0  0  0  0  0  0  0  0  0
  151.8516  136.6178  155.9218 O   0  0  0  0  0  0  0  0  0  0  0  0
  150.3348  135.8547  154.4277 N   0  0  0  0  0  0  0  0  0  0  0  0
  150.2299  134.4739  154.8904 C   0  0  1  0  0  0  0  0  0  0  0  0
  149.6816  134.4672  156.3288 C   0  0  0  0  0  0  0  0  0  0  0  0
  149.3403  133.6793  153.9024 C   0  0  1  0  0  0  0  0  0  0  0  0
  149.3855  132.1446  154.1193 C   0  0  0  0  0  0  0  0  0  0  0  0
  147.9017  131.7606  154.2512 C   0  0  2  0  0  0  0  0  0  0  0  0
  147.2011  131.9282  152.8908 C   0  0  0  0  0  0  0  0  0  0  0  0
  147.1211  133.4585  152.7390 C   0  0  0  0  0  0  0  0  0  0  0  0
  147.8211  133.9648  154.0151 C   0  0  1  0  0  0  0  0  0  0  0  0
  147.3518  132.9393  155.0424 C   0  0  0  0  0  0  0  0  0  0  0  0
  151.8916  139.4064  156.2596 C   0  0  0  0  0  0  0  0  0  0  0  0
  152.8431  142.7025  160.8422 H   0  0  0  0  0  0  0  0  0  0  0  0
  154.3038  142.0651  160.0804 H   0  0  0  0  0  0  0  0  0  0  0  0
  153.2623  140.9976  161.0370 H   0  0  0  0  0  0  0  0  0  0  0  0
  151.7154  142.1272  158.9324 H   0  0  0  0  0  0  0  0  0  0  0  0
  150.7133  142.2143  157.7161 H   0  0  0  0  0  0  0  0  0  0  0  0
  149.1594  142.0802  155.8980 H   0  0  0  0  0  0  0  0  0  0  0  0
  150.3525  138.2031  153.5048 H   0  0  0  0  0  0  0  0  0  0  0  0
  152.0680  138.2808  153.7003 H   0  0  0  0  0  0  0  0  0  0  0  0
  149.7757  136.1001  153.6236 H   0  0  0  0  0  0  0  0  0  0  0  0
  151.2257  134.0274  154.8970 H   0  0  0  0  0  0  0  0  0  0  0  0
  149.6525  133.4621  156.7471 H   0  0  0  0  0  0  0  0  0  0  0  0
  148.6711  134.8751  156.3704 H   0  0  0  0  0  0  0  0  0  0  0  0
  150.3076  135.0669  156.9905 H   0  0  0  0  0  0  0  0  0  0  0  0
  149.6782  133.9095  152.8904 H   0  0  0  0  0  0  0  0  0  0  0  0
  149.8795  131.6235  153.2984 H   0  0  0  0  0  0  0  0  0  0  0  0
  149.9132  131.8825  155.0376 H   0  0  0  0  0  0  0  0  0  0  0  0
  147.7425  130.7836  154.7085 H   0  0  0  0  0  0  0  0  0  0  0  0
  147.7572  131.4565  152.0797 H   0  0  0  0  0  0  0  0  0  0  0  0
  146.2013  131.4926  152.9107 H   0  0  0  0  0  0  0  0  0  0  0  0
  147.6021  133.8141  151.8270 H   0  0  0  0  0  0  0  0  0  0  0  0
  146.0807  133.7856  152.7141 H   0  0  0  0  0  0  0  0  0  0  0  0
  147.5653  134.9965  154.2530 H   0  0  0  0  0  0  0  0  0  0  0  0
  146.2673  132.9110  155.1623 H   0  0  0  0  0  0  0  0  0  0  0  0
  147.8156  133.0577  156.0228 H   0  0  0  0  0  0  0  0  0  0  0  0
  152.6122  138.6013  156.2782 H   0  0  0  0  0  0  0  0  0  0  0  0
  1  2  1  0  0  0  0
  1 25  1  0  0  0  0
  1 26  1  0  0  0  0
  1 27  1  0  0  0  0
  2  3  1  0  0  0  0
  2 28  1  0  0  0  0
  3  4  2  0  0  0  0
  3  5  1  0  0  0  0
  5 24  2  0  0  0  0
  5  6  1  0  0  0  0
  6  7  2  0  0  0  0
  6 29  1  0  0  0  0
  7  8  1  0  0  0  0
  7 30  1  0  0  0  0
  8  9  2  0  0  0  0
  8 10  1  0  0  0  0
 10 11  1  0  0  0  0
 10 24  1  0  0  0  0
 11 12  1  0  0  0  0
 11 31  1  0  0  0  0
 11 32  1  0  0  0  0
 12 13  2  0  0  0  0
 12 14  1  0  0  0  0
 14 15  1  0  0  0  0
 14 33  1  0  0  0  0
 15 16  1  0  0  0  0
 15 17  1  0  0  0  0
 15 34  1  0  0  0  0
 16 35  1  0  0  0  0
 16 36  1  0  0  0  0
 16 37  1  0  0  0  0
 17 22  1  0  0  0  0
 17 18  1  0  0  0  0
 17 38  1  0  0  0  0
 18 19  1  0  0  0  0
 18 39  1  0  0  0  0
 18 40  1  0  0  0  0
 19 23  1  0  0  0  0
 19 20  1  0  0  0  0
 19 41  1  0  0  0  0
 20 21  1  0  0  0  0
 20 42  1  0  0  0  0
 20 43  1  0  0  0  0
 21 22  1  0  0  0  0
 21 44  1  0  0  0  0
 21 45  1  0  0  0  0
 22 23  1  0  0  0  0
 22 46  1  0  0  0  0
 23 47  1  0  0  0  0
 23 48  1  0  0  0  0
 24 49  1  0  0  0  0
M  END
> <s_m_source_file>
AV-unprocessed.smi

> <i_m_source_file_index>
625

> <i_lp_mmshare_version>
43012

> <i_f3d_flags>
0

> <s_epik_input>
W0NIM11bTkhdQyg9TyljMVtjSF1bY0hdYyg9TyluKFtjSF0xKVtDSDJdQyg9TylbTkhdW0NASF0oW0NIM10pW0NASF0oW0NIMl1bQ0BIXTIzKVtDQEhdKFtDSDJdMylbQ0gyXVtDSDJdMg==

> <s_epik_cmdline>
J2VwaWtfcHl0aG9uJywgJy1waCcsICc3LjAnLCAnLXRuJywgJzgnLCAnLW1hJywgJzIwMCcsICctbWV0YWxfYmluZGluZycsICctaW1hZScsICc8aW5maWxlLm1hZT4nLCAnLW9tYWUnLCAnPG91dGZpbGUubWFlPic=

> <r_lp_tautomer_probability>
1

> <r_epik_Ionization_Penalty>
3.7129e-07

> <r_epik_Ionization_Penalty_Charging>
5.04114e-08

> <r_epik_Ionization_Penalty_Neutral>
3.20879e-07

> <r_epik_State_Penalty>
-0

> <r_epik_Charging_Adjusted_Penalty>
5.04114e-08

> <i_epik_Tot_Q>
0

> <i_epik_Tot_abs_Q>
0

> <r_epik_Metal_State_Penalty>
-0

> <b_epik_Metal_Only>
0

> <s_lp_Force_Field>
OPLS_2005

> <r_lp_Energy>
63.0032

> <b_lp_Chiralities_Consistent>
1

> <s_lp_Variant>
AV-unprocessed.smi:625-4

> <Gold.Version>
5.8.1

> <Gold.Id.Protein>
6NUR|6NUR_protein|mol2

> <Gold.PLP.Fitness>
48.7467

> <Gold.PLP.PLP>
-41.3588

> <Gold.PLP.part.hbond>
-3.9265

> <Gold.PLP.part.metal>
0.0000

> <Gold.PLP.part.buried>
-3.7968

> <Gold.PLP.part.nonpolar>
-35.5116

> <Gold.PLP.part.repulsive>
1.3913

> <Gold.PLP.ligand.clash>
0.8304

> <Gold.PLP.ligand.torsion>
0.3471

> <Gold.PLP.Chemscore.Hbond>
2.9420

> <Gold.PLP.Chemscore.CHOScore>
0.0000

> <Gold.PLP.Chemscore.Metal>
0.0000

> <Gold.Chemscore.Hbonds>
donor molecule, donor type, donor heavy atom, donor atom, acceptor molecule, acceptor atom, score
      L1  H    14    33       P1  7948  0.95
      P1  H  7997  8010       L1     4  1.00
      P1  H 10752 10764       L1    13  0.98

> <Gold.PLP.Chemscore.Internal.Correction>
0.0866

> <Gold.Rescore>
     Score         DG    S(hbond)    S(metal)    S(lipo)     H(rot)  DE(clash)    DE(int)     intcor
     14.01     -16.35       1.56        0.00      84.96       1.67       0.09       2.25       ----

> <Gold.Chemscore.Fitness>
14.0127

> <Gold.Chemscore.DG>
-16.3481

> <Gold.Chemscore.ZeroCoef>
-5.4800

> <Gold.Chemscore.Hbond>
1.5585

> <Gold.Chemscore.Metal>
0.0000

> <Gold.Chemscore.Lipo>
84.9572

> <Gold.Chemscore.Internal_Hbond>
0.0000

> <Gold.Chemscore.DEClash>
0.0881

> <Gold.Chemscore.DEInternal>
2.2473

> <Gold.Chemscore.Rot>
1.6709

> <Gold.Chemscore.Internal.Correction>
   9.000000E+99

> <Gold.Chemscore.Hbonds>
donor molecule, donor type, donor heavy atom, donor atom, acceptor molecule, acceptor atom, score
      L1  H    14    33       P1  7948  0.21
      P1  H  7997  8010       L1     4  0.50
      P1  H 10752 10764       L1    13  0.27

> <Gold.Chemscore.Hbond.Weighted>
-5.2055

> <Gold.Chemscore.Metal.Weighted>
-0.0000

> <Gold.Chemscore.Lipo.Weighted>
-9.9400

> <Gold.Chemscore.Internal_Hbond.Weighted>
0.0000

> <Gold.Chemscore.DEClash.Weighted>
0.0881

> <Gold.Chemscore.DEInternal.Weighted>
2.2473

> <Gold.Chemscore.Rot.Weighted>
4.2774

> <Gold.Chemscore.Internal.Correction.Weighted>
   9.000000E+99

> <Gold.Protein.RotatedTorsions>
[ 6907 6896 6895 6894 ] final   -6.13 input  -60.11 | X-H torsion
[ 7974 7965 7964 7962 ] final  129.27 input  175.53 | X-H torsion
[ 8008 7997 7996 7995 ] final   17.45 input   59.86 | X-H torsion
[ 10167 10162 10161 10158 ] final  -86.71 input  -65.29 | X-H torsion
[ 10718 10713 10712 10709 ] final   35.21 input   66.30 | X-H torsion
[ 10763 10752 10751 10750 ] final  -19.69 input  -60.55 | X-H torsion
[ 11005 11000 10999 10996 ] final  -17.38 input  -57.11 | X-H torsion

> <Gold.Protein.ActiveResidues>
 VAL166  LYS551  ARG553  GLY616  TRP617  ASP618  TYR619  PRO620  LYS621  CYS622 
 ASP623  PHE694  ASN695  SER759  ASP760  ASP761  ALA762  ILE779  LEU786  VAL792 
 PHE793  MET794  SER795  GLU796  ALA797  LYS798  CYS799  TRP800  GLU811  SER814 

> <Gold.Protein.RotatedAtoms>
  151.4705  135.1045  159.9749 H   0  0  0  0  0  0  0  0  0  0  0  0  # atno 6907 bound_to 6896
  152.4818  133.8270  159.7093 H   0  0  0  0  0  0  0  0  0  0  0  0  # atno 6908 bound_to 6896
  150.8896  133.7200  159.2935 H   0  0  0  0  0  0  0  0  0  0  0  0  # atno 6909 bound_to 6896
  145.0305  139.4051  143.5152 H   0  0  0  0  0  0  0  0  0  0  0  0  # atno 7974 bound_to 7965
  154.8917  140.2988  155.5367 H   0  0  0  0  0  0  0  0  0  0  0  0  # atno 8008 bound_to 7997
  156.3021  140.2423  156.3867 H   0  0  0  0  0  0  0  0  0  0  0  0  # atno 8009 bound_to 7997
  154.8612  140.0405  157.1655 H   0  0  0  0  0  0  0  0  0  0  0  0  # atno 8010 bound_to 7997
  140.3915  143.2703  151.9259 H   0  0  0  0  0  0  0  0  0  0  0  0  # atno 10167 bound_to 10162
  157.3198  130.7442  149.6778 H   0  0  0  0  0  0  0  0  0  0  0  0  # atno 10718 bound_to 10713
  153.6087  135.6997  153.5355 H   0  0  0  0  0  0  0  0  0  0  0  0  # atno 10763 bound_to 10752
  153.3035  135.4122  155.1273 H   0  0  0  0  0  0  0  0  0  0  0  0  # atno 10764 bound_to 10752
  154.8568  135.3654  154.5624 H   0  0  0  0  0  0  0  0  0  0  0  0  # atno 10765 bound_to 10752
  140.8162  133.8103  155.9613 H   0  0  0  0  0  0  0  0  0  0  0  0  # atno 11005 bound_to 11000
  146.3498  139.9852  142.8691 LP  0  0  0  0  0  0  0  0  0  0  0  0  # atno 17320 bound_to 7965
  145.1777  140.9752  143.4284 LP  0  0  0  0  0  0  0  0  0  0  0  0  # atno 17321 bound_to 7965
  139.4789  144.5723  151.8068 LP  0  0  0  0  0  0  0  0  0  0  0  0  # atno 17342 bound_to 10162
  140.4835  144.1415  150.5937 LP  0  0  0  0  0  0  0  0  0  0  0  0  # atno 17343 bound_to 10162
  155.9685  130.4226  150.4525 LP  0  0  0  0  0  0  0  0  0  0  0  0  # atno 17370 bound_to 10713
  157.2539  131.0552  151.2362 LP  0  0  0  0  0  0  0  0  0  0  0  0  # atno 17371 bound_to 10713
  140.9146  134.2218  157.4964 LP  0  0  0  0  0  0  0  0  0  0  0  0  # atno 17394 bound_to 11000
  139.8711  134.9765  156.4925 LP  0  0  0  0  0  0  0  0  0  0  0  0  # atno 17395 bound_to 11000

$$$$
