AV-unprocessed.smi:82|AV-procd|sdf|799|dock4
  -GOLD-   2262017183D 1   1.00000     0.00000
 Structure written by MMmdl.
 58 61  0  0  0  0  0  0  0  0  1 V2000
  151.8718  144.1170  157.8376 C   0  0  0  0  0  0  0  0  0  0  0  0
  150.6644  143.3962  158.0123 O   0  0  0  0  0  0  0  0  0  0  0  0
  150.5719  142.2728  157.1524 C   0  0  0  0  0  0  0  0  0  0  0  0
  149.2323  141.5645  157.4136 C   0  0  0  0  0  0  0  0  0  0  0  0
  149.0940  140.2304  156.8140 N   0  0  0  0  0  0  0  0  0  0  0  0
  148.2240  139.3802  157.6368 C   0  0  0  0  0  0  0  0  0  0  0  0
  148.0698  137.9609  157.0728 C   0  0  0  0  0  0  0  0  0  0  0  0
  147.5584  138.0269  155.7077 N   0  0  0  0  0  0  0  0  0  0  0  0
  147.1101  136.8803  155.1358 C   0  0  0  0  0  0  0  0  0  0  0  0
  147.1821  135.7057  155.8180 N   0  0  0  0  0  0  0  0  0  0  0  0
  146.7549  134.5708  155.2569 C   0  0  0  0  0  0  0  0  0  0  0  0
  146.2222  134.3871  154.0476 N   0  0  0  0  0  0  0  0  0  0  0  0
  146.1332  135.5629  153.3624 C   0  0  0  0  0  0  0  0  0  0  0  0
  146.5544  136.8418  153.8255 C   0  0  0  0  0  0  0  0  0  0  0  0
  146.3085  137.8010  152.8500 N   0  0  0  0  0  0  0  0  0  0  0  0
  145.7880  137.1261  151.8620 C   0  0  0  0  0  0  0  0  0  0  0  0
  145.6188  135.7802  152.0958 N   0  0  0  0  0  0  0  0  0  0  0  0
  145.1070  134.8088  151.1744 C   0  0  0  0  0  0  0  0  0  0  0  0
  144.2903  133.6103  151.6615 C   0  0  0  0  0  0  0  0  0  0  0  0
  144.8644  132.7587  150.5062 C   0  0  0  0  0  0  0  0  0  0  0  0
  145.2762  131.3194  150.8613 C   0  0  0  0  0  0  0  0  0  0  0  0
  146.4719  131.2827  151.6128 O   0  0  0  0  0  0  0  0  0  0  0  0
  144.0576  132.7485  149.1904 C   0  0  0  0  0  0  0  0  0  0  0  0
  142.8235  132.0740  149.3239 O   0  0  0  0  0  0  0  0  0  0  0  0
  146.0270  133.7767  150.5175 C   0  0  0  0  0  0  0  0  0  0  0  0
  148.3799  138.8684  154.8429 C   0  0  0  0  0  0  0  0  0  0  0  0
  148.5486  140.2843  155.4408 C   0  0  2  0  0  0  0  0  0  0  0  0
  149.3936  141.1128  154.4523 C   0  0  0  0  0  0  0  0  0  0  0  0
  151.8883  144.9735  158.5113 H   0  0  0  0  0  0  0  0  0  0  0  0
  151.9643  144.4902  156.8170 H   0  0  0  0  0  0  0  0  0  0  0  0
  152.7390  143.4947  158.0629 H   0  0  0  0  0  0  0  0  0  0  0  0
  150.6281  142.5962  156.1117 H   0  0  0  0  0  0  0  0  0  0  0  0
  151.4135  141.6062  157.3425 H   0  0  0  0  0  0  0  0  0  0  0  0
  149.0496  141.5113  158.4878 H   0  0  0  0  0  0  0  0  0  0  0  0
  148.4668  142.2242  157.0092 H   0  0  0  0  0  0  0  0  0  0  0  0
  148.6257  139.2895  158.6449 H   0  0  0  0  0  0  0  0  0  0  0  0
  147.2394  139.8407  157.7346 H   0  0  0  0  0  0  0  0  0  0  0  0
  149.0313  137.4457  157.0825 H   0  0  0  0  0  0  0  0  0  0  0  0
  147.3859  137.3903  157.7028 H   0  0  0  0  0  0  0  0  0  0  0  0
  146.8527  133.6831  155.8643 H   0  0  0  0  0  0  0  0  0  0  0  0
  145.5035  137.5980  150.9327 H   0  0  0  0  0  0  0  0  0  0  0  0
  144.5537  135.3714  150.4203 H   0  0  0  0  0  0  0  0  0  0  0  0
  144.6108  133.2563  152.6434 H   0  0  0  0  0  0  0  0  0  0  0  0
  143.2105  133.7597  151.6362 H   0  0  0  0  0  0  0  0  0  0  0  0
  144.4911  130.8077  151.4185 H   0  0  0  0  0  0  0  0  0  0  0  0
  145.4430  130.7309  149.9585 H   0  0  0  0  0  0  0  0  0  0  0  0
  147.1842  131.0563  151.0350 H   0  0  0  0  0  0  0  0  0  0  0  0
  143.8395  133.7626  148.8552 H   0  0  0  0  0  0  0  0  0  0  0  0
  144.6255  132.2816  148.3849 H   0  0  0  0  0  0  0  0  0  0  0  0
  142.1483  132.7124  149.4950 H   0  0  0  0  0  0  0  0  0  0  0  0
  146.3962  134.0646  149.5325 H   0  0  0  0  0  0  0  0  0  0  0  0
  146.8518  133.4842  151.1701 H   0  0  0  0  0  0  0  0  0  0  0  0
  149.3554  138.3956  154.7173 H   0  0  0  0  0  0  0  0  0  0  0  0
  147.9421  138.9453  153.8483 H   0  0  0  0  0  0  0  0  0  0  0  0
  147.5578  140.7402  155.4807 H   0  0  0  0  0  0  0  0  0  0  0  0
  149.0189  141.0075  153.4338 H   0  0  0  0  0  0  0  0  0  0  0  0
  150.4355  140.7909  154.4541 H   0  0  0  0  0  0  0  0  0  0  0  0
  149.3664  142.1786  154.6770 H   0  0  0  0  0  0  0  0  0  0  0  0
  1  2  1  0  0  0  0
  1 29  1  0  0  0  0
  1 30  1  0  0  0  0
  1 31  1  0  0  0  0
  2  3  1  0  0  0  0
  3  4  1  0  0  0  0
  3 32  1  0  0  0  0
  3 33  1  0  0  0  0
  4  5  1  0  0  0  0
  4 34  1  0  0  0  0
  4 35  1  0  0  0  0
  5 27  1  0  0  0  0
  5  6  1  0  0  0  0
  6  7  1  0  0  0  0
  6 36  1  0  0  0  0
  6 37  1  0  0  0  0
  7  8  1  0  0  0  0
  7 38  1  0  0  0  0
  7 39  1  0  0  0  0
  8  9  1  0  0  0  0
  8 26  1  0  0  0  0
  9 14  1  0  0  0  0
  9 10  2  0  0  0  0
 10 11  1  0  0  0  0
 11 12  2  0  0  0  0
 11 40  1  0  0  0  0
 12 13  1  0  0  0  0
 13 17  1  0  0  0  0
 13 14  2  0  0  0  0
 14 15  1  0  0  0  0
 15 16  2  0  0  0  0
 16 17  1  0  0  0  0
 16 41  1  0  0  0  0
 17 18  1  0  0  0  0
 18 25  1  0  0  0  0
 18 19  1  0  0  0  0
 18 42  1  0  0  0  0
 19 20  1  0  0  0  0
 19 43  1  0  0  0  0
 19 44  1  0  0  0  0
 20 21  1  0  0  0  0
 20 23  1  0  0  0  0
 20 25  1  0  0  0  0
 21 22  1  0  0  0  0
 21 45  1  0  0  0  0
 21 46  1  0  0  0  0
 22 47  1  0  0  0  0
 23 24  1  0  0  0  0
 23 48  1  0  0  0  0
 23 49  1  0  0  0  0
 24 50  1  0  0  0  0
 25 51  1  0  0  0  0
 25 52  1  0  0  0  0
 26 27  1  0  0  0  0
 26 53  1  0  0  0  0
 26 54  1  0  0  0  0
 27 28  1  0  0  0  0
 27 55  1  0  0  0  0
 28 56  1  0  0  0  0
 28 57  1  0  0  0  0
 28 58  1  0  0  0  0
M  END
> <s_m_source_file>
AV-unprocessed.smi

> <i_m_source_file_index>
82

> <i_lp_mmshare_version>
43012

> <i_f3d_flags>
0

> <s_epik_input>
W0NIM11PW0NIMl1bQ0gyXU4xW0NIMl1bQ0gyXU4oW0NIMl1bQ0BIXTFbQ0gzXSljKG5bY0hdbjIpYyhjMjMpbltjSF1uM1tDSF0oW0NIMl00KVtDSDJdQzQoW0NIMl1bT0hdKVtDSDJdW09IXQ==

> <s_epik_cmdline>
J2VwaWtfcHl0aG9uJywgJy1waCcsICc3LjAnLCAnLXRuJywgJzgnLCAnLW1hJywgJzIwMCcsICctbWV0YWxfYmluZGluZycsICctaW1hZScsICc8aW5maWxlLm1hZT4nLCAnLW9tYWUnLCAnPG91dGZpbGUubWFlPic=

> <r_lp_tautomer_probability>
1

> <r_epik_Ionization_Penalty>
0.549054

> <r_epik_Ionization_Penalty_Charging>
0

> <r_epik_Ionization_Penalty_Neutral>
0.549054

> <r_epik_State_Penalty>
0.552556

> <r_epik_Charging_Adjusted_Penalty>
0.552556

> <i_epik_Tot_Q>
0

> <i_epik_Tot_abs_Q>
0

> <r_epik_Metal_State_Penalty>
0.545162

> <b_epik_Metal_Only>
0

> <s_lp_Force_Field>
OPLS_2005

> <r_lp_Energy>
68.3354

> <b_lp_Chiralities_Consistent>
1

> <s_lp_Variant>
AV-unprocessed.smi:82-6

> <Gold.Version>
5.8.1

> <Gold.Id.Protein>
6NUR|6NUR_protein|mol2

> <Gold.PLP.Fitness>
47.9931

> <Gold.PLP.PLP>
-38.3433

> <Gold.PLP.part.hbond>
-3.9700

> <Gold.PLP.part.metal>
0.0000

> <Gold.PLP.part.buried>
-2.8640

> <Gold.PLP.part.nonpolar>
-31.6016

> <Gold.PLP.part.repulsive>
0.5665

> <Gold.PLP.ligand.clash>
0.0000

> <Gold.PLP.ligand.torsion>
1.5921

> <Gold.PLP.Chemscore.Hbond>
2.9425

> <Gold.PLP.Chemscore.CHOScore>
1.0000

> <Gold.PLP.Chemscore.Metal>
0.0000

> <Gold.Chemscore.Hbonds>
donor molecule, donor type, donor heavy atom, donor atom, acceptor molecule, acceptor atom, score
      L1  H    22    47       P1 10747  1.00
      L1  H    24    50       P1 10186  0.96
      P1  H 10785 10796       L1    24  0.94
      L1  C    16    41       P1 10171  1.00

> <Gold.PLP.Chemscore.Internal.Correction>
1.0065

> <Gold.Rescore>
     Score         DG    S(hbond)    S(metal)    S(lipo)     H(rot)  DE(clash)    DE(int)     intcor
     12.35     -14.69       2.54        0.00      90.24       3.84       0.83       1.51       ----

> <Gold.Chemscore.Fitness>
12.3499

> <Gold.Chemscore.DG>
-14.6869

> <Gold.Chemscore.ZeroCoef>
-5.4800

> <Gold.Chemscore.Hbond>
2.5412

> <Gold.Chemscore.Metal>
0.0000

> <Gold.Chemscore.Lipo>
90.2425

> <Gold.Chemscore.Internal_Hbond>
0.0000

> <Gold.Chemscore.DEClash>
0.8319

> <Gold.Chemscore.DEInternal>
1.5052

> <Gold.Chemscore.Rot>
3.8434

> <Gold.Chemscore.Internal.Correction>
   9.000000E+99

> <Gold.Chemscore.Hbonds>
donor molecule, donor type, donor heavy atom, donor atom, acceptor molecule, acceptor atom, score
      L1  H    22    47       P1 10747  0.99
      L1  H    24    50       P1 10186  0.91
      P1  H 10785 10796       L1    24  0.50

> <Gold.Chemscore.Hbond.Weighted>
-8.4876

> <Gold.Chemscore.Metal.Weighted>
-0.0000

> <Gold.Chemscore.Lipo.Weighted>
-10.5584

> <Gold.Chemscore.Internal_Hbond.Weighted>
0.0000

> <Gold.Chemscore.DEClash.Weighted>
0.8319

> <Gold.Chemscore.DEInternal.Weighted>
1.5052

> <Gold.Chemscore.Rot.Weighted>
9.8391

> <Gold.Chemscore.Internal.Correction.Weighted>
   9.000000E+99

> <Gold.Protein.RotatedTorsions>
[ 6907 6896 6895 6894 ] final  -31.74 input  -60.11 | X-H torsion
[ 7974 7965 7964 7962 ] final  120.28 input  175.53 | X-H torsion
[ 8008 7997 7996 7995 ] final -100.22 input   59.86 | X-H torsion
[ 10167 10162 10161 10158 ] final -157.39 input  -65.29 | X-H torsion
[ 10718 10713 10712 10709 ] final  152.38 input   66.30 | X-H torsion
[ 10763 10752 10751 10750 ] final  115.27 input  -60.55 | X-H torsion
[ 11005 11000 10999 10996 ] final   27.37 input  -57.11 | X-H torsion

> <Gold.Protein.ActiveResidues>
 VAL166  LYS551  ARG553  GLY616  TRP617  ASP618  TYR619  PRO620  LYS621  CYS622 
 ASP623  PHE694  ASN695  SER759  ASP760  ASP761  ALA762  ILE779  LEU786  VAL792 
 PHE793  MET794  SER795  GLU796  ALA797  LYS798  CYS799  TRP800  GLU811  SER814 

> <Gold.Protein.RotatedAtoms>
  151.0880  134.9899  159.8388 H   0  0  0  0  0  0  0  0  0  0  0  0  # atno 6907 bound_to 6896
  152.5426  134.2100  159.8756 H   0  0  0  0  0  0  0  0  0  0  0  0  # atno 6908 bound_to 6896
  151.2134  133.4499  159.2632 H   0  0  0  0  0  0  0  0  0  0  0  0  # atno 6909 bound_to 6896
  145.1330  139.3315  143.4655 H   0  0  0  0  0  0  0  0  0  0  0  0  # atno 7974 bound_to 7965
  154.8256  140.0442  157.1441 H   0  0  0  0  0  0  0  0  0  0  0  0  # atno 8008 bound_to 7997
  154.9210  140.3027  155.5196 H   0  0  0  0  0  0  0  0  0  0  0  0  # atno 8009 bound_to 7997
  156.2983  140.2340  156.4260 H   0  0  0  0  0  0  0  0  0  0  0  0  # atno 8010 bound_to 7997
  139.6775  143.9639  152.2318 H   0  0  0  0  0  0  0  0  0  0  0  0  # atno 10167 bound_to 10162
  157.2586  131.0793  151.1681 H   0  0  0  0  0  0  0  0  0  0  0  0  # atno 10718 bound_to 10713
  153.5197  135.3600  155.2626 H   0  0  0  0  0  0  0  0  0  0  0  0  # atno 10763 bound_to 10752
  154.8736  135.4042  154.3274 H   0  0  0  0  0  0  0  0  0  0  0  0  # atno 10764 bound_to 10752
  153.3942  135.7073  153.6540 H   0  0  0  0  0  0  0  0  0  0  0  0  # atno 10765 bound_to 10752
  140.3270  134.2480  155.7708 H   0  0  0  0  0  0  0  0  0  0  0  0  # atno 11005 bound_to 11000
  146.3512  140.1337  142.8596 LP  0  0  0  0  0  0  0  0  0  0  0  0  # atno 17320 bound_to 7965
  145.0615  140.9091  143.4936 LP  0  0  0  0  0  0  0  0  0  0  0  0  # atno 17321 bound_to 7965
  139.9420  144.6676  150.8257 LP  0  0  0  0  0  0  0  0  0  0  0  0  # atno 17342 bound_to 10162
  140.7640  143.3238  151.2561 LP  0  0  0  0  0  0  0  0  0  0  0  0  # atno 17343 bound_to 10162
  157.3200  130.6932  149.6264 LP  0  0  0  0  0  0  0  0  0  0  0  0  # atno 17370 bound_to 10713
  155.9664  130.4338  150.5022 LP  0  0  0  0  0  0  0  0  0  0  0  0  # atno 17371 bound_to 10713
  141.2073  133.7810  157.0128 LP  0  0  0  0  0  0  0  0  0  0  0  0  # atno 17394 bound_to 11000
  140.0893  134.9602  157.1750 LP  0  0  0  0  0  0  0  0  0  0  0  0  # atno 17395 bound_to 11000

$$$$
