AV-unprocessed.smi:766|AV-procd|sdf|3656|dock8
  -GOLD-   22720 1 63D 1   1.00000     0.00000
 Structure written by MMmdl.
 46 48  0  0  0  0  0  0  0  0  1 V2000
  153.8279  142.0992  159.8298 C   0  0  0  0  0  0  0  0  0  0  0  0
  152.6507  141.8830  158.8956 C   0  0  0  0  0  0  0  0  0  0  0  0
  152.2736  140.5632  158.5595 C   0  0  0  0  0  0  0  0  0  0  0  0
  151.1878  140.3191  157.6905 C   0  0  0  0  0  0  0  0  0  0  0  0
  150.6561  139.1271  157.2295 N   0  0  0  0  0  0  0  0  0  0  0  0
  149.6678  139.5596  156.4522 C   0  0  0  0  0  0  0  0  0  0  0  0
  149.4927  140.8921  156.3586 N   0  0  0  0  0  0  0  0  0  0  0  0
  148.4900  141.5925  155.5758 C   0  0  0  0  0  0  0  0  0  0  0  0
  148.3726  141.0541  154.1333 C   0  0  1  0  0  0  0  0  0  0  0  0
  149.6455  140.6720  153.6549 O   0  0  0  0  0  0  0  0  0  0  0  0
  147.3772  139.8937  153.9305 C   0  0  0  0  0  0  0  0  0  0  0  0
  147.8084  138.9774  152.8785 N   0  0  0  0  0  0  0  0  0  0  0  0
  146.7306  138.5623  151.9862 C   0  0  0  0  0  0  0  0  0  0  0  0
  145.6891  137.7064  152.7250 C   0  0  0  0  0  0  0  0  0  0  0  0
  145.6740  136.3313  152.2569 N   0  0  0  0  0  0  0  0  0  0  0  0
  145.4272  135.8608  150.9842 C   0  0  0  0  0  0  0  0  0  0  0  0
  145.5252  134.4993  151.0280 C   0  0  0  0  0  0  0  0  0  0  0  0
  145.8360  134.2265  152.3895 C   0  0  0  0  0  0  0  0  0  0  0  0
  145.9194  135.3243  153.1234 N   0  0  0  0  0  0  0  0  0  0  0  0
  150.4828  141.4410  157.1643 C   0  0  0  0  0  0  0  0  0  0  0  0
  150.8459  142.7586  157.4937 C   0  0  0  0  0  0  0  0  0  0  0  0
  151.9343  142.9845  158.3620 C   0  0  0  0  0  0  0  0  0  0  0  0
  152.3209  144.4114  158.7085 C   0  0  0  0  0  0  0  0  0  0  0  0
  154.2832  141.1529  160.1234 H   0  0  0  0  0  0  0  0  0  0  0  0
  153.5054  142.6115  160.7364 H   0  0  0  0  0  0  0  0  0  0  0  0
  154.5959  142.7022  159.3448 H   0  0  0  0  0  0  0  0  0  0  0  0
  152.8185  139.7235  158.9653 H   0  0  0  0  0  0  0  0  0  0  0  0
  149.0297  138.8690  155.9219 H   0  0  0  0  0  0  0  0  0  0  0  0
  147.5318  141.5060  156.0898 H   0  0  0  0  0  0  0  0  0  0  0  0
  148.7401  142.6544  155.5682 H   0  0  0  0  0  0  0  0  0  0  0  0
  148.0460  141.8749  153.4938 H   0  0  0  0  0  0  0  0  0  0  0  0
  149.5495  140.3531  152.7704 H   0  0  0  0  0  0  0  0  0  0  0  0
  147.2806  139.3445  154.8681 H   0  0  0  0  0  0  0  0  0  0  0  0
  146.3857  140.2892  153.7065 H   0  0  0  0  0  0  0  0  0  0  0  0
  148.5598  139.3999  152.3424 H   0  0  0  0  0  0  0  0  0  0  0  0
  146.2452  139.4356  151.5490 H   0  0  0  0  0  0  0  0  0  0  0  0
  147.1434  137.9894  151.1553 H   0  0  0  0  0  0  0  0  0  0  0  0
  145.9055  137.6991  153.7941 H   0  0  0  0  0  0  0  0  0  0  0  0
  144.6908  138.1311  152.6112 H   0  0  0  0  0  0  0  0  0  0  0  0
  145.2105  136.5265  150.1618 H   0  0  0  0  0  0  0  0  0  0  0  0
  145.3973  133.8040  150.2116 H   0  0  0  0  0  0  0  0  0  0  0  0
  146.0023  133.2701  152.8629 H   0  0  0  0  0  0  0  0  0  0  0  0
  150.2918  143.5872  157.0783 H   0  0  0  0  0  0  0  0  0  0  0  0
  151.6543  145.1306  158.2317 H   0  0  0  0  0  0  0  0  0  0  0  0
  153.3367  144.6233  158.3740 H   0  0  0  0  0  0  0  0  0  0  0  0
  152.2698  144.5712  159.7857 H   0  0  0  0  0  0  0  0  0  0  0  0
  1  2  1  0  0  0  0
  1 24  1  0  0  0  0
  1 25  1  0  0  0  0
  1 26  1  0  0  0  0
  2 22  1  0  0  0  0
  2  3  2  0  0  0  0
  3  4  1  0  0  0  0
  3 27  1  0  0  0  0
  4 20  2  0  0  0  0
  4  5  1  0  0  0  0
  5  6  2  0  0  0  0
  6  7  1  0  0  0  0
  6 28  1  0  0  0  0
  7  8  1  0  0  0  0
  7 20  1  0  0  0  0
  8  9  1  0  0  0  0
  8 29  1  0  0  0  0
  8 30  1  0  0  0  0
  9 10  1  0  0  0  0
  9 11  1  0  0  0  0
  9 31  1  0  0  0  0
 10 32  1  0  0  0  0
 11 12  1  0  0  0  0
 11 33  1  0  0  0  0
 11 34  1  0  0  0  0
 12 13  1  0  0  0  0
 12 35  1  0  0  0  0
 13 14  1  0  0  0  0
 13 36  1  0  0  0  0
 13 37  1  0  0  0  0
 14 15  1  0  0  0  0
 14 38  1  0  0  0  0
 14 39  1  0  0  0  0
 15 19  1  0  0  0  0
 15 16  1  0  0  0  0
 16 17  2  0  0  0  0
 16 40  1  0  0  0  0
 17 18  1  0  0  0  0
 17 41  1  0  0  0  0
 18 19  2  0  0  0  0
 18 42  1  0  0  0  0
 20 21  1  0  0  0  0
 21 22  2  0  0  0  0
 21 43  1  0  0  0  0
 22 23  1  0  0  0  0
 23 44  1  0  0  0  0
 23 45  1  0  0  0  0
 23 46  1  0  0  0  0
M  END
> <s_m_source_file>
AV-unprocessed.smi

> <i_m_source_file_index>
766

> <i_lp_mmshare_version>
43012

> <i_f3d_flags>
0

> <s_epik_input>
W0NIM11jKFtjSF0xKWMoW0NIM10pW2NIXWMoYzEyKW4oW2NIXW4yKVtDSDJdW0NASF0oW09IXSlbQ0gyXVtOSF1bQ0gyXVtDSDJdbjNbY0hdW2NIXVtjSF1uMw==

> <s_epik_cmdline>
J2VwaWtfcHl0aG9uJywgJy1waCcsICc3LjAnLCAnLXRuJywgJzgnLCAnLW1hJywgJzIwMCcsICctbWV0YWxfYmluZGluZycsICctaW1hZScsICc8aW5maWxlLm1hZT4nLCAnLW9tYWUnLCAnPG91dGZpbGUubWFlPic=

> <r_lp_tautomer_probability>
1

> <r_epik_Ionization_Penalty>
1.68727

> <r_epik_Ionization_Penalty_Charging>
0

> <r_epik_Ionization_Penalty_Neutral>
1.68727

> <r_epik_State_Penalty>
1.78741

> <r_epik_Charging_Adjusted_Penalty>
1.78741

> <i_epik_Tot_Q>
0

> <i_epik_Tot_abs_Q>
0

> <r_epik_Metal_State_Penalty>
1.73664

> <b_epik_Metal_Only>
0

> <s_lp_Force_Field>
OPLS_2005

> <r_lp_Energy>
18.4914

> <b_lp_Chiralities_Consistent>
1

> <s_lp_Variant>
AV-unprocessed.smi:766-6

> <Gold.Version>
5.8.1

> <Gold.Id.Protein>
6NUR|6NUR_protein|mol2

> <Gold.PLP.Fitness>
55.1022

> <Gold.PLP.PLP>
-48.3799

> <Gold.PLP.part.hbond>
-4.4510

> <Gold.PLP.part.metal>
0.0000

> <Gold.PLP.part.buried>
-1.8863

> <Gold.PLP.part.nonpolar>
-42.2136

> <Gold.PLP.part.repulsive>
0.0948

> <Gold.PLP.ligand.clash>
0.0000

> <Gold.PLP.ligand.torsion>
1.6073

> <Gold.PLP.Chemscore.Hbond>
2.2392

> <Gold.PLP.Chemscore.CHOScore>
1.0000

> <Gold.PLP.Chemscore.Metal>
0.0000

> <Gold.Chemscore.Hbonds>
donor molecule, donor type, donor heavy atom, donor atom, acceptor molecule, acceptor atom, score
      L1  H    10    32       P1  7957  1.00
      L1  H    12    35       P1  7957  1.00
      P1  H  7989  7998       L1    10  0.28
      L1  C    16    40       P1 10171  1.00

> <Gold.PLP.Chemscore.Internal.Correction>
0.2193

> <Gold.Rescore>
     Score         DG    S(hbond)    S(metal)    S(lipo)     H(rot)  DE(clash)    DE(int)     intcor
     17.77     -19.29       1.99        0.00     123.29       2.83       0.06       1.46       ----

> <Gold.Chemscore.Fitness>
17.7737

> <Gold.Chemscore.DG>
-19.2908

> <Gold.Chemscore.ZeroCoef>
-5.4800

> <Gold.Chemscore.Hbond>
1.9889

> <Gold.Chemscore.Metal>
0.0000

> <Gold.Chemscore.Lipo>
123.2918

> <Gold.Chemscore.Internal_Hbond>
0.0000

> <Gold.Chemscore.DEClash>
0.0594

> <Gold.Chemscore.DEInternal>
1.4577

> <Gold.Chemscore.Rot>
2.8348

> <Gold.Chemscore.Internal.Correction>
   9.000000E+99

> <Gold.Chemscore.Hbonds>
donor molecule, donor type, donor heavy atom, donor atom, acceptor molecule, acceptor atom, score
      L1  H    10    32       P1  7957  1.00
      L1  H    12    35       P1  7957  1.00
      P1  H  7989  7998       L1    10  0.02

> <Gold.Chemscore.Hbond.Weighted>
-6.6428

> <Gold.Chemscore.Metal.Weighted>
-0.0000

> <Gold.Chemscore.Lipo.Weighted>
-14.4251

> <Gold.Chemscore.Internal_Hbond.Weighted>
0.0000

> <Gold.Chemscore.DEClash.Weighted>
0.0594

> <Gold.Chemscore.DEInternal.Weighted>
1.4577

> <Gold.Chemscore.Rot.Weighted>
7.2572

> <Gold.Chemscore.Internal.Correction.Weighted>
   9.000000E+99

> <Gold.Protein.RotatedTorsions>
[ 6907 6896 6895 6894 ] final -159.15 input  -60.11 | X-H torsion
[ 7974 7965 7964 7962 ] final -126.58 input  175.53 | X-H torsion
[ 8008 7997 7996 7995 ] final -150.50 input   59.86 | X-H torsion
[ 10167 10162 10161 10158 ] final   -6.76 input  -65.29 | X-H torsion
[ 10718 10713 10712 10709 ] final   39.00 input   66.30 | X-H torsion
[ 10763 10752 10751 10750 ] final  -46.42 input  -60.55 | X-H torsion
[ 11005 11000 10999 10996 ] final -107.80 input  -57.11 | X-H torsion

> <Gold.Protein.ActiveResidues>
 VAL166  LYS551  ARG553  GLY616  TRP617  ASP618  TYR619  PRO620  LYS621  CYS622 
 ASP623  PHE694  ASN695  SER759  ASP760  ASP761  ALA762  ILE779  LEU786  VAL792 
 PHE793  MET794  SER795  GLU796  ALA797  LYS798  CYS799  TRP800  GLU811  SER814 

> <Gold.Protein.RotatedAtoms>
  151.3291  133.4008  159.2660 H   0  0  0  0  0  0  0  0  0  0  0  0  # atno 6907 bound_to 6896
  150.9970  134.9292  159.7943 H   0  0  0  0  0  0  0  0  0  0  0  0  # atno 6908 bound_to 6896
  152.5264  134.3256  159.9216 H   0  0  0  0  0  0  0  0  0  0  0  0  # atno 6909 bound_to 6896
  144.9858  140.7684  143.4584 H   0  0  0  0  0  0  0  0  0  0  0  0  # atno 7974 bound_to 7965
  155.6245  140.0685  157.2668 H   0  0  0  0  0  0  0  0  0  0  0  0  # atno 8008 bound_to 7997
  154.4221  140.1778  156.1456 H   0  0  0  0  0  0  0  0  0  0  0  0  # atno 8009 bound_to 7997
  155.9982  140.3338  155.6823 H   0  0  0  0  0  0  0  0  0  0  0  0  # atno 8010 bound_to 7997
  140.7007  143.6158  150.8660 H   0  0  0  0  0  0  0  0  0  0  0  0  # atno 10167 bound_to 10162
  157.3655  130.7673  149.7079 H   0  0  0  0  0  0  0  0  0  0  0  0  # atno 10718 bound_to 10713
  154.0446  135.6639  153.4793 H   0  0  0  0  0  0  0  0  0  0  0  0  # atno 10763 bound_to 10752
  153.0488  135.5098  154.7809 H   0  0  0  0  0  0  0  0  0  0  0  0  # atno 10764 bound_to 10752
  154.6796  135.3043  154.9597 H   0  0  0  0  0  0  0  0  0  0  0  0  # atno 10765 bound_to 10752
  141.0935  133.9012  157.2019 H   0  0  0  0  0  0  0  0  0  0  0  0  # atno 11005 bound_to 11000
  145.2356  139.2095  143.5020 LP  0  0  0  0  0  0  0  0  0  0  0  0  # atno 17320 bound_to 7965
  146.3419  140.2241  142.8592 LP  0  0  0  0  0  0  0  0  0  0  0  0  # atno 17321 bound_to 7965
  139.9880  143.5878  152.2920 LP  0  0  0  0  0  0  0  0  0  0  0  0  # atno 17342 bound_to 10162
  139.6523  144.7661  151.2123 LP  0  0  0  0  0  0  0  0  0  0  0  0  # atno 17343 bound_to 10162
  155.9745  130.4102  150.3917 LP  0  0  0  0  0  0  0  0  0  0  0  0  # atno 17370 bound_to 10713
  157.2000  131.0436  151.2655 LP  0  0  0  0  0  0  0  0  0  0  0  0  # atno 17371 bound_to 10713
  139.9766  135.0112  156.9647 LP  0  0  0  0  0  0  0  0  0  0  0  0  # atno 17394 bound_to 11000
  140.5195  134.0921  155.7289 LP  0  0  0  0  0  0  0  0  0  0  0  0  # atno 17395 bound_to 11000

$$$$
