AV-unprocessed.smi:1898|AV-procd|sdf|7703|dock8
  -GOLD-   22720 9443D 1   1.00000     0.00000
 Structure written by MMmdl.
 46 47  0  0  0  0  0  0  0  0  3 V2000
  152.7705  143.5433  159.5033 C   0  0  0  0  0  0  0  0  0  0  0  0
  153.5163  142.3084  159.2916 N   0  5  0  0  0  0  0  0  0  0  0  0
  152.9948  141.2138  158.6760 C   0  0  0  0  0  0  0  0  0  0  0  0
  153.3731  140.0375  158.6660 O   0  0  0  0  0  0  0  0  0  0  0  0
  151.7162  141.5673  157.9078 C   0  0  0  0  0  0  0  0  0  0  0  0
  151.2232  140.3778  157.1704 N   0  3  2  0  0  0  0  0  0  0  0  0
  152.1453  139.9625  156.0836 C   0  0  0  0  0  0  0  0  0  0  0  0
  151.6885  138.6407  155.4441 C   0  0  0  0  0  0  0  0  0  0  0  0
  150.2482  138.7441  154.9170 C   0  0  1  0  0  0  0  0  0  0  0  0
  149.8130  137.4463  154.4090 N   0  0  0  0  0  0  0  0  0  0  0  0
  149.6473  136.3415  155.1501 C   0  0  0  0  0  0  0  0  0  0  0  0
  149.8262  136.3106  156.3670 O   0  0  0  0  0  0  0  0  0  0  0  0
  149.2587  135.3047  154.3882 N   0  0  0  0  0  0  0  0  0  0  0  0
  148.9914  133.9570  154.7618 C   0  0  0  0  0  0  0  0  0  0  0  0
  149.6236  133.2880  155.8388 C   0  0  0  0  0  0  0  0  0  0  0  0
  149.2876  131.9473  156.1027 C   0  0  0  0  0  0  0  0  0  0  0  0
  148.3362  131.3195  155.2788 C   0  0  0  0  0  0  0  0  0  0  0  0
  147.7332  131.9388  154.2438 N   0  0  0  0  0  0  0  0  0  0  0  0
  148.0558  133.2313  153.9867 C   0  0  0  0  0  0  0  0  0  0  0  0
  147.4414  133.8612  152.9209 O   0  0  0  0  0  0  0  0  0  0  0  0
  146.4630  133.1420  152.1780 C   0  0  0  0  0  0  0  0  0  0  0  0
  149.3180  139.2243  156.0461 C   0  0  0  0  0  0  0  0  0  0  0  0
  149.8294  140.5312  156.6736 C   0  0  0  0  0  0  0  0  0  0  0  0
  153.3582  144.2846  160.0439 H   0  0  0  0  0  0  0  0  0  0  0  0
  151.8607  143.3869  160.0836 H   0  0  0  0  0  0  0  0  0  0  0  0
  152.4701  144.0120  158.5656 H   0  0  0  0  0  0  0  0  0  0  0  0
  150.9315  141.9752  158.5491 H   0  0  0  0  0  0  0  0  0  0  0  0
  151.9805  142.3593  157.2057 H   0  0  0  0  0  0  0  0  0  0  0  0
  152.1988  140.7500  155.3301 H   0  0  0  0  0  0  0  0  0  0  0  0
  153.1523  139.8351  156.4827 H   0  0  0  0  0  0  0  0  0  0  0  0
  152.3656  138.3716  154.6325 H   0  0  0  0  0  0  0  0  0  0  0  0
  151.7576  137.8406  156.1830 H   0  0  0  0  0  0  0  0  0  0  0  0
  150.2323  139.4744  154.1053 H   0  0  0  0  0  0  0  0  0  0  0  0
  149.6367  137.3814  153.4170 H   0  0  0  0  0  0  0  0  0  0  0  0
  149.1005  135.5112  153.4128 H   0  0  0  0  0  0  0  0  0  0  0  0
  150.3651  133.7623  156.4612 H   0  0  0  0  0  0  0  0  0  0  0  0
  149.7526  131.4116  156.9170 H   0  0  0  0  0  0  0  0  0  0  0  0
  148.0550  130.2911  155.4520 H   0  0  0  0  0  0  0  0  0  0  0  0
  146.0821  133.7751  151.3769 H   0  0  0  0  0  0  0  0  0  0  0  0
  145.6163  132.8557  152.8036 H   0  0  0  0  0  0  0  0  0  0  0  0
  146.8881  132.2484  151.7186 H   0  0  0  0  0  0  0  0  0  0  0  0
  148.3072  139.3735  155.6644 H   0  0  0  0  0  0  0  0  0  0  0  0
  149.2462  138.4578  156.8193 H   0  0  0  0  0  0  0  0  0  0  0  0
  149.1647  140.8134  157.4904 H   0  0  0  0  0  0  0  0  0  0  0  0
  149.7892  141.3401  155.9425 H   0  0  0  0  0  0  0  0  0  0  0  0
  151.2157  139.6239  157.8426 H   0  0  0  0  0  0  0  0  0  0  0  0
  1  2  1  0  0  0  0
  1 24  1  0  0  0  0
  1 25  1  0  0  0  0
  1 26  1  0  0  0  0
  2  3  1  0  0  0  0
  3  4  2  0  0  0  0
  3  5  1  0  0  0  0
  5  6  1  0  0  0  0
  5 27  1  0  0  0  0
  5 28  1  0  0  0  0
  6 23  1  0  0  0  0
  6  7  1  0  0  0  0
  6 46  1  0  0  0  0
  7  8  1  0  0  0  0
  7 29  1  0  0  0  0
  7 30  1  0  0  0  0
  8  9  1  0  0  0  0
  8 31  1  0  0  0  0
  8 32  1  0  0  0  0
  9 10  1  0  0  0  0
  9 22  1  0  0  0  0
  9 33  1  0  0  0  0
 10 11  1  0  0  0  0
 10 34  1  0  0  0  0
 11 12  2  0  0  0  0
 11 13  1  0  0  0  0
 13 14  1  0  0  0  0
 13 35  1  0  0  0  0
 14 19  1  0  0  0  0
 14 15  2  0  0  0  0
 15 16  1  0  0  0  0
 15 36  1  0  0  0  0
 16 17  2  0  0  0  0
 16 37  1  0  0  0  0
 17 18  1  0  0  0  0
 17 38  1  0  0  0  0
 18 19  2  0  0  0  0
 19 20  1  0  0  0  0
 20 21  1  0  0  0  0
 21 39  1  0  0  0  0
 21 40  1  0  0  0  0
 21 41  1  0  0  0  0
 22 23  1  0  0  0  0
 22 42  1  0  0  0  0
 22 43  1  0  0  0  0
 23 44  1  0  0  0  0
 23 45  1  0  0  0  0
M  CHG  1   2  -1
M  CHG  1   6   1
M  END
> <s_m_source_file>
AV-unprocessed.smi

> <i_m_source_file_index>
1898

> <i_lp_mmshare_version>
43012

> <i_f3d_flags>
0

> <s_epik_input>
W0NIM11bTkhdQyg9TylbQ0gyXU4xW0NIMl1bQ0gyXVtDSF0oW0NIMl1bQ0gyXTEpW05IXUMoPU8pW05IXWMyW2NIXVtjSF1bY0hdbmMyT1tDSDNd

> <s_epik_cmdline>
J2VwaWtfcHl0aG9uJywgJy1waCcsICc3LjAnLCAnLXRuJywgJzgnLCAnLW1hJywgJzIwMCcsICctbWV0YWxfYmluZGluZycsICctaW1hZScsICc8aW5maWxlLm1hZT4nLCAnLW9tYWUnLCAnPG91dGZpbGUubWFlPic=

> <r_lp_tautomer_probability>
1

> <r_epik_Ionization_Penalty>
6.13954

> <r_epik_Ionization_Penalty_Charging>
6.13946

> <r_epik_Ionization_Penalty_Neutral>
7.84403e-05

> <r_epik_State_Penalty>
6.9595

> <r_epik_Charging_Adjusted_Penalty>
13.099

> <i_epik_Tot_Q>
0

> <i_epik_Tot_abs_Q>
2

> <r_epik_Metal_State_Penalty>
2.89145

> <b_epik_Metal_Only>
1

> <s_lp_Force_Field>
OPLS_2005

> <r_lp_Energy>
12.3689

> <b_lp_Chiralities_Consistent>
1

> <s_lp_Variant>
AV-unprocessed.smi:1898-4

> <Gold.Version>
5.8.1

> <Gold.Id.Protein>
6NUR|6NUR_protein|mol2

> <Gold.PLP.Fitness>
42.7630

> <Gold.PLP.PLP>
-34.6474

> <Gold.PLP.part.hbond>
-3.2970

> <Gold.PLP.part.metal>
0.0000

> <Gold.PLP.part.buried>
-5.2186

> <Gold.PLP.part.nonpolar>
-27.3305

> <Gold.PLP.part.repulsive>
1.3766

> <Gold.PLP.ligand.clash>
0.0055

> <Gold.PLP.ligand.torsion>
0.3430

> <Gold.PLP.Chemscore.Hbond>
2.9120

> <Gold.PLP.Chemscore.CHOScore>
0.0000

> <Gold.PLP.Chemscore.Metal>
0.0000

> <Gold.Chemscore.Hbonds>
donor molecule, donor type, donor heavy atom, donor atom, acceptor molecule, acceptor atom, score
      L1  H    10    34       P1  7948  0.96
      L1  H    13    35       P1  7948  1.00
      P1  H  7997  8009       L1     4  0.99

> <Gold.PLP.Chemscore.Internal.Correction>
0.0711

> <Gold.Rescore>
     Score         DG    S(hbond)    S(metal)    S(lipo)     H(rot)  DE(clash)    DE(int)     intcor
     12.03     -15.32       2.11        0.00      65.89       1.93       0.21       3.07       ----

> <Gold.Chemscore.Fitness>
12.0270

> <Gold.Chemscore.DG>
-15.3151

> <Gold.Chemscore.ZeroCoef>
-5.4800

> <Gold.Chemscore.Hbond>
2.1145

> <Gold.Chemscore.Metal>
0.0000

> <Gold.Chemscore.Lipo>
65.8904

> <Gold.Chemscore.Internal_Hbond>
0.0000

> <Gold.Chemscore.DEClash>
0.2133

> <Gold.Chemscore.DEInternal>
3.0748

> <Gold.Chemscore.Rot>
1.9283

> <Gold.Chemscore.Internal.Correction>
   9.000000E+99

> <Gold.Chemscore.Hbonds>
donor molecule, donor type, donor heavy atom, donor atom, acceptor molecule, acceptor atom, score
      L1  H    10    34       P1  7948  0.68
      L1  H    13    35       P1  7948  0.55
      P1  H  7997  8009       L1     4  0.22

> <Gold.Chemscore.Hbond.Weighted>
-7.0625

> <Gold.Chemscore.Metal.Weighted>
-0.0000

> <Gold.Chemscore.Lipo.Weighted>
-7.7092

> <Gold.Chemscore.Internal_Hbond.Weighted>
0.0000

> <Gold.Chemscore.DEClash.Weighted>
0.2133

> <Gold.Chemscore.DEInternal.Weighted>
3.0748

> <Gold.Chemscore.Rot.Weighted>
4.9365

> <Gold.Chemscore.Internal.Correction.Weighted>
   9.000000E+99

> <Gold.Protein.RotatedTorsions>
[ 6907 6896 6895 6894 ] final -144.97 input  -60.11 | X-H torsion
[ 7974 7965 7964 7962 ] final  -53.34 input  175.53 | X-H torsion
[ 8008 7997 7996 7995 ] final  154.73 input   59.86 | X-H torsion
[ 10167 10162 10161 10158 ] final  -58.02 input  -65.29 | X-H torsion
[ 10718 10713 10712 10709 ] final  120.08 input   66.30 | X-H torsion
[ 10763 10752 10751 10750 ] final   89.06 input  -60.55 | X-H torsion
[ 11005 11000 10999 10996 ] final  -74.53 input  -57.11 | X-H torsion

> <Gold.Protein.ActiveResidues>
 VAL166  LYS551  ARG553  GLY616  TRP617  ASP618  TYR619  PRO620  LYS621  CYS622 
 ASP623  PHE694  ASN695  SER759  ASP760  ASP761  ALA762  ILE779  LEU786  VAL792 
 PHE793  MET794  SER795  GLU796  ALA797  LYS798  CYS799  TRP800  GLU811  SER814 

> <Gold.Protein.RotatedAtoms>
  151.1213  133.5102  159.2601 H   0  0  0  0  0  0  0  0  0  0  0  0  # atno 6907 bound_to 6896
  151.1858  135.0381  159.8822 H   0  0  0  0  0  0  0  0  0  0  0  0  # atno 6908 bound_to 6896
  152.5456  134.1059  159.8391 H   0  0  0  0  0  0  0  0  0  0  0  0  # atno 6909 bound_to 6896
  145.8979  140.8018  142.9758 H   0  0  0  0  0  0  0  0  0  0  0  0  # atno 7974 bound_to 7965
  156.2516  140.1958  156.6692 H   0  0  0  0  0  0  0  0  0  0  0  0  # atno 8008 bound_to 7997
  154.6405  140.0584  156.9866 H   0  0  0  0  0  0  0  0  0  0  0  0  # atno 8009 bound_to 7997
  155.1570  140.3256  155.4422 H   0  0  0  0  0  0  0  0  0  0  0  0  # atno 8010 bound_to 7997
  140.6223  143.2424  151.5450 H   0  0  0  0  0  0  0  0  0  0  0  0  # atno 10167 bound_to 10162
  157.5916  131.1063  150.7986 H   0  0  0  0  0  0  0  0  0  0  0  0  # atno 10718 bound_to 10713
  153.1832  135.4484  155.0054 H   0  0  0  0  0  0  0  0  0  0  0  0  # atno 10763 bound_to 10752
  154.8043  135.3268  154.7473 H   0  0  0  0  0  0  0  0  0  0  0  0  # atno 10764 bound_to 10752
  153.7935  135.6968  153.4922 H   0  0  0  0  0  0  0  0  0  0  0  0  # atno 10765 bound_to 10752
  141.1636  133.6915  156.7379 H   0  0  0  0  0  0  0  0  0  0  0  0  # atno 11005 bound_to 11000
  144.6734  140.1631  143.7421 LP  0  0  0  0  0  0  0  0  0  0  0  0  # atno 17320 bound_to 7965
  145.8828  139.2332  143.1595 LP  0  0  0  0  0  0  0  0  0  0  0  0  # atno 17321 bound_to 7965
  139.5449  144.2548  152.1423 LP  0  0  0  0  0  0  0  0  0  0  0  0  # atno 17342 bound_to 10162
  140.1771  144.4880  150.6548 LP  0  0  0  0  0  0  0  0  0  0  0  0  # atno 17343 bound_to 10162
  156.8406  130.5047  149.5321 LP  0  0  0  0  0  0  0  0  0  0  0  0  # atno 17370 bound_to 10713
  156.0972  130.5941  150.9833 LP  0  0  0  0  0  0  0  0  0  0  0  0  # atno 17371 bound_to 10713
  140.2696  134.8402  157.3835 LP  0  0  0  0  0  0  0  0  0  0  0  0  # atno 17394 bound_to 11000
  140.1534  134.4821  155.7945 LP  0  0  0  0  0  0  0  0  0  0  0  0  # atno 17395 bound_to 11000

$$$$
