AV-unprocessed.smi:124|AV-procd|sdf|1148|dock2
  -GOLD-   2262018283D 1   1.00000     0.00000
 Structure written by MMmdl.
 52 56  0  0  0  0  0  0  0  0  1 V2000
  147.0081  132.6107  156.2292 O   0  0  0  0  0  0  0  0  0  0  0  0
  146.4095  133.2196  155.3409 C   0  0  0  0  0  0  0  0  0  0  0  0
  145.4509  134.3628  155.7215 C   0  0  0  0  0  0  0  0  0  0  0  0
  145.2776  134.4918  157.1638 N   0  0  0  0  0  0  0  0  0  0  0  0
  143.9622  134.3695  157.6779 C   0  0  0  0  0  0  0  0  0  0  0  0
  142.9923  134.1549  156.9482 O   0  0  0  0  0  0  0  0  0  0  0  0
  143.8616  134.5090  159.1265 C   0  0  0  0  0  0  0  0  0  0  0  0
  142.6575  134.4362  159.7189 F   0  0  0  0  0  0  0  0  0  0  0  0
  144.9596  134.7142  159.8855 C   0  0  0  0  0  0  0  0  0  0  0  0
  146.2375  134.8008  159.3584 N   0  0  0  0  0  0  0  0  0  0  0  0
  147.4424  135.0191  160.2466 C   0  0  1  0  0  0  0  0  0  0  0  0
  147.2971  136.3317  161.0247 C   0  0  0  0  0  0  0  0  0  0  0  0
  146.6925  135.8555  162.3278 C   0  0  0  0  0  0  0  0  0  0  0  0
  147.3650  134.4986  162.5011 C   0  0  0  0  0  0  0  0  0  0  0  0
  147.5168  133.9809  161.1816 O   0  0  0  0  0  0  0  0  0  0  0  0
  146.4284  134.6999  157.9629 C   0  0  0  0  0  0  0  0  0  0  0  0
  147.5566  134.7869  157.4725 O   0  0  0  0  0  0  0  0  0  0  0  0
  146.5199  132.9257  153.9118 C   0  0  0  0  0  0  0  0  0  0  0  0
  147.5509  132.1969  153.3525 C   0  0  0  0  0  0  0  0  0  0  0  0
  148.6881  131.4954  153.9428 C   0  0  0  0  0  0  0  0  0  0  0  0
  148.9115  130.1302  153.6577 C   0  0  0  0  0  0  0  0  0  0  0  0
  150.0023  129.4475  154.2305 C   0  0  0  0  0  0  0  0  0  0  0  0
  150.8791  130.1239  155.0993 C   0  0  0  0  0  0  0  0  0  0  0  0
  150.6617  131.4825  155.3958 C   0  0  0  0  0  0  0  0  0  0  0  0
  149.5698  132.1624  154.8222 C   0  0  0  0  0  0  0  0  0  0  0  0
  147.3768  132.1478  151.9807 N   0  0  0  0  0  0  0  0  0  0  0  0
  146.2436  132.8321  151.6026 C   0  0  0  0  0  0  0  0  0  0  0  0
  145.6609  133.0570  150.3419 C   0  0  0  0  0  0  0  0  0  0  0  0
  144.4842  133.8200  150.2494 C   0  0  0  0  0  0  0  0  0  0  0  0
  143.9064  134.3523  151.4164 C   0  0  0  0  0  0  0  0  0  0  0  0
  144.4985  134.1201  152.6742 C   0  0  0  0  0  0  0  0  0  0  0  0
  145.6802  133.3463  152.8088 C   0  0  0  0  0  0  0  0  0  0  0  0
  148.0092  131.6577  151.3643 H   0  0  0  0  0  0  0  0  0  0  0  0
  145.8115  135.3144  155.3311 H   0  0  0  0  0  0  0  0  0  0  0  0
  144.4598  134.2209  155.2872 H   0  0  0  0  0  0  0  0  0  0  0  0
  144.8185  134.8153  160.9512 H   0  0  0  0  0  0  0  0  0  0  0  0
  148.3148  134.9854  159.5923 H   0  0  0  0  0  0  0  0  0  0  0  0
  148.2913  136.7477  161.1929 H   0  0  0  0  0  0  0  0  0  0  0  0
  146.6909  137.0672  160.4944 H   0  0  0  0  0  0  0  0  0  0  0  0
  146.8797  136.5336  163.1607 H   0  0  0  0  0  0  0  0  0  0  0  0
  145.6139  135.7337  162.2209 H   0  0  0  0  0  0  0  0  0  0  0  0
  148.3542  134.6192  162.9447 H   0  0  0  0  0  0  0  0  0  0  0  0
  146.7894  133.8217  163.1326 H   0  0  0  0  0  0  0  0  0  0  0  0
  148.2465  129.6019  152.9902 H   0  0  0  0  0  0  0  0  0  0  0  0
  150.1662  128.4046  154.0023 H   0  0  0  0  0  0  0  0  0  0  0  0
  151.7160  129.6011  155.5386 H   0  0  0  0  0  0  0  0  0  0  0  0
  151.3315  132.0039  156.0637 H   0  0  0  0  0  0  0  0  0  0  0  0
  149.4107  133.2045  155.0593 H   0  0  0  0  0  0  0  0  0  0  0  0
  146.1155  132.6491  149.4511 H   0  0  0  0  0  0  0  0  0  0  0  0
  144.0282  134.0000  149.2869 H   0  0  0  0  0  0  0  0  0  0  0  0
  143.0046  134.9428  151.3483 H   0  0  0  0  0  0  0  0  0  0  0  0
  144.0303  134.5480  153.5463 H   0  0  0  0  0  0  0  0  0  0  0  0
  1  2  2  0  0  0  0
  2  3  1  0  0  0  0
  2 18  1  0  0  0  0
  3  4  1  0  0  0  0
  3 34  1  0  0  0  0
  3 35  1  0  0  0  0
  4 16  1  0  0  0  0
  4  5  1  0  0  0  0
  5  6  2  0  0  0  0
  5  7  1  0  0  0  0
  7  8  1  0  0  0  0
  7  9  2  0  0  0  0
  9 10  1  0  0  0  0
  9 36  1  0  0  0  0
 10 11  1  0  0  0  0
 10 16  1  0  0  0  0
 11 15  1  0  0  0  0
 11 12  1  0  0  0  0
 11 37  1  0  0  0  0
 12 13  1  0  0  0  0
 12 38  1  0  0  0  0
 12 39  1  0  0  0  0
 13 14  1  0  0  0  0
 13 40  1  0  0  0  0
 13 41  1  0  0  0  0
 14 15  1  0  0  0  0
 14 42  1  0  0  0  0
 14 43  1  0  0  0  0
 16 17  2  0  0  0  0
 18 32  1  0  0  0  0
 18 19  2  0  0  0  0
 19 20  1  0  0  0  0
 19 26  1  0  0  0  0
 20 25  1  0  0  0  0
 20 21  2  0  0  0  0
 21 22  1  0  0  0  0
 21 44  1  0  0  0  0
 22 23  2  0  0  0  0
 22 45  1  0  0  0  0
 23 24  1  0  0  0  0
 23 46  1  0  0  0  0
 24 25  2  0  0  0  0
 24 47  1  0  0  0  0
 25 48  1  0  0  0  0
 26 33  1  0  0  0  0
 26 27  1  0  0  0  0
 27 32  1  0  0  0  0
 27 28  2  0  0  0  0
 28 29  1  0  0  0  0
 28 49  1  0  0  0  0
 29 30  2  0  0  0  0
 29 50  1  0  0  0  0
 30 31  1  0  0  0  0
 30 51  1  0  0  0  0
 31 32  2  0  0  0  0
 31 52  1  0  0  0  0
M  END
> <s_m_source_file>
AV-unprocessed.smi

> <i_m_source_file_index>
124

> <i_lp_mmshare_version>
43012

> <i_f3d_flags>
0

> <s_epik_input>
W2NIXTFbY0hdW2NIXVtjSF1bY0hdYzEtYyhbbkhdMiljKGMoYzIzKVtjSF1bY0hdW2NIXVtjSF0zKUMoPU8pW0NIMl1uNGMoPU8pYyhGKVtjSF1uKGM0PU8pW0NAQEhdNVtDSDJdW0NIMl1bQ0gyXU81

> <s_epik_cmdline>
J2VwaWtfcHl0aG9uJywgJy1waCcsICc3LjAnLCAnLXRuJywgJzgnLCAnLW1hJywgJzIwMCcsICctbWV0YWxfYmluZGluZycsICctaW1hZScsICc8aW5maWxlLm1hZT4nLCAnLW9tYWUnLCAnPG91dGZpbGUubWFlPic=

> <r_lp_tautomer_probability>
1

> <r_epik_Ionization_Penalty>
1.43207e-08

> <r_epik_Ionization_Penalty_Charging>
5.01743e-09

> <r_epik_Ionization_Penalty_Neutral>
9.30329e-09

> <r_epik_State_Penalty>
-0

> <r_epik_Charging_Adjusted_Penalty>
5.01743e-09

> <i_epik_Tot_Q>
0

> <i_epik_Tot_abs_Q>
0

> <r_epik_Metal_State_Penalty>
-0

> <b_epik_Metal_Only>
0

> <s_epik_Chemistry_Notes>
This compound contains an acetal/aminal-like group ( X-CH(R)-Y where X, Y are N, S, or O) that may be acid/base labile, releasing an aldehyde.

> <s_lp_Force_Field>
OPLS_2005

> <r_lp_Energy>
48.1056

> <b_lp_Chiralities_Consistent>
1

> <s_lp_Variant>
AV-unprocessed.smi:124-2

> <Gold.Version>
5.8.1

> <Gold.Id.Protein>
6NUR|6NUR_protein|mol2

> <Gold.PLP.Fitness>
49.0272

> <Gold.PLP.PLP>
-43.9843

> <Gold.PLP.part.hbond>
-2.0000

> <Gold.PLP.part.metal>
0.0000

> <Gold.PLP.part.buried>
-7.5962

> <Gold.PLP.part.nonpolar>
-35.4328

> <Gold.PLP.part.repulsive>
0.3953

> <Gold.PLP.ligand.clash>
0.0000

> <Gold.PLP.ligand.torsion>
1.1265

> <Gold.PLP.Chemscore.Hbond>
1.9600

> <Gold.PLP.Chemscore.CHOScore>
0.0000

> <Gold.PLP.Chemscore.Metal>
0.0000

> <Gold.Chemscore.Hbonds>
donor molecule, donor type, donor heavy atom, donor atom, acceptor molecule, acceptor atom, score
      L1  H    26    33       P1 10747  1.00
      P1  H 11000 11005       L1     6  0.82

> <Gold.PLP.Chemscore.Internal.Correction>
1.4159

> <Gold.Rescore>
     Score         DG    S(hbond)    S(metal)    S(lipo)     H(rot)  DE(clash)    DE(int)     intcor
     14.53     -20.08       1.96        0.00     102.83       1.55       0.22       5.32       ----

> <Gold.Chemscore.Fitness>
14.5331

> <Gold.Chemscore.DG>
-20.0795

> <Gold.Chemscore.ZeroCoef>
-5.4800

> <Gold.Chemscore.Hbond>
1.9597

> <Gold.Chemscore.Metal>
0.0000

> <Gold.Chemscore.Lipo>
102.8329

> <Gold.Chemscore.Internal_Hbond>
0.0000

> <Gold.Chemscore.DEClash>
0.2217

> <Gold.Chemscore.DEInternal>
5.3246

> <Gold.Chemscore.Rot>
1.5537

> <Gold.Chemscore.Internal.Correction>
   9.000000E+99

> <Gold.Chemscore.Hbonds>
donor molecule, donor type, donor heavy atom, donor atom, acceptor molecule, acceptor atom, score
      L1  H    26    33       P1 10747  1.00
      P1  H 11000 11005       L1     6  0.81

> <Gold.Chemscore.Hbond.Weighted>
-6.5454

> <Gold.Chemscore.Metal.Weighted>
-0.0000

> <Gold.Chemscore.Lipo.Weighted>
-12.0315

> <Gold.Chemscore.Internal_Hbond.Weighted>
0.0000

> <Gold.Chemscore.DEClash.Weighted>
0.2217

> <Gold.Chemscore.DEInternal.Weighted>
5.3246

> <Gold.Chemscore.Rot.Weighted>
3.9774

> <Gold.Chemscore.Internal.Correction.Weighted>
   9.000000E+99

> <Gold.Protein.RotatedTorsions>
[ 6907 6896 6895 6894 ] final  155.32 input  -60.11 | X-H torsion
[ 7974 7965 7964 7962 ] final -104.42 input  175.53 | X-H torsion
[ 8008 7997 7996 7995 ] final -170.67 input   59.86 | X-H torsion
[ 10167 10162 10161 10158 ] final  -16.49 input  -65.29 | X-H torsion
[ 10718 10713 10712 10709 ] final   11.42 input   66.30 | X-H torsion
[ 10763 10752 10751 10750 ] final   72.47 input  -60.55 | X-H torsion
[ 11005 11000 10999 10996 ] final  -98.10 input  -57.11 | X-H torsion

> <Gold.Protein.ActiveResidues>
 VAL166  LYS551  ARG553  GLY616  TRP617  ASP618  TYR619  PRO620  LYS621  CYS622 
 ASP623  PHE694  ASN695  SER759  ASP760  ASP761  ALA762  ILE779  LEU786  VAL792 
 PHE793  MET794  SER795  GLU796  ALA797  LYS798  CYS799  TRP800  GLU811  SER814 

> <Gold.Protein.RotatedAtoms>
  152.0458  133.3997  159.4355 H   0  0  0  0  0  0  0  0  0  0  0  0  # atno 6907 bound_to 6896
  150.6873  134.3363  159.4858 H   0  0  0  0  0  0  0  0  0  0  0  0  # atno 6908 bound_to 6896
  152.1167  134.9235  160.0615 H   0  0  0  0  0  0  0  0  0  0  0  0  # atno 6909 bound_to 6896
  145.2434  140.9213  143.3137 H   0  0  0  0  0  0  0  0  0  0  0  0  # atno 7974 bound_to 7965
  155.9214  140.1075  157.1204 H   0  0  0  0  0  0  0  0  0  0  0  0  # atno 8008 bound_to 7997
  154.4055  140.1255  156.4749 H   0  0  0  0  0  0  0  0  0  0  0  0  # atno 8009 bound_to 7997
  155.7192  140.3470  155.5010 H   0  0  0  0  0  0  0  0  0  0  0  0  # atno 8010 bound_to 7997
  140.7234  143.5111  150.9749 H   0  0  0  0  0  0  0  0  0  0  0  0  # atno 10167 bound_to 10162
  156.9954  130.6058  149.5690 H   0  0  0  0  0  0  0  0  0  0  0  0  # atno 10718 bound_to 10713
  153.0461  135.5098  154.7749 H   0  0  0  0  0  0  0  0  0  0  0  0  # atno 10763 bound_to 10752
  154.6648  135.2944  154.9822 H   0  0  0  0  0  0  0  0  0  0  0  0  # atno 10764 bound_to 10752
  154.0661  135.6684  153.4870 H   0  0  0  0  0  0  0  0  0  0  0  0  # atno 10765 bound_to 10752
  141.1356  133.8220  157.0794 H   0  0  0  0  0  0  0  0  0  0  0  0  # atno 11005 bound_to 11000
  144.9569  139.4022  143.6375 LP  0  0  0  0  0  0  0  0  0  0  0  0  # atno 17320 bound_to 7965
  146.3322  139.8603  142.8857 LP  0  0  0  0  0  0  0  0  0  0  0  0  # atno 17321 bound_to 7965
  139.8824  143.7055  152.3155 LP  0  0  0  0  0  0  0  0  0  0  0  0  # atno 17342 bound_to 10162
  139.7342  144.7575  151.0754 LP  0  0  0  0  0  0  0  0  0  0  0  0  # atno 17343 bound_to 10162
  156.0191  130.5286  150.8223 LP  0  0  0  0  0  0  0  0  0  0  0  0  # atno 17370 bound_to 10713
  157.5429  131.0941  150.9803 LP  0  0  0  0  0  0  0  0  0  0  0  0  # atno 17371 bound_to 10713
  140.0461  134.9830  157.1051 LP  0  0  0  0  0  0  0  0  0  0  0  0  # atno 17394 bound_to 11000
  140.4061  134.2031  155.7163 LP  0  0  0  0  0  0  0  0  0  0  0  0  # atno 17395 bound_to 11000

$$$$
