AV-unprocessed.smi:798|AV-procd|sdf|3772|dock3
  -GOLD-   22720 1203D 1   1.00000     0.00000
 Structure written by MMmdl.
 34 36  0  0  0  0  0  0  0  0  1 V2000
  146.4599  137.8123  154.8798 O   0  0  0  0  0  0  0  0  0  0  0  0
  147.2587  137.3104  154.0886 C   0  0  0  0  0  0  0  0  0  0  0  0
  148.4349  137.8503  153.7237 N   0  0  0  0  0  0  0  0  0  0  0  0
  149.0038  139.0849  154.1339 C   0  0  0  0  0  0  0  0  0  0  0  0
  150.2594  139.2115  154.5912 N   0  0  0  0  0  0  0  0  0  0  0  0
  150.5605  140.5257  154.9249 N   0  0  0  0  0  0  0  0  0  0  0  0
  149.5216  141.3373  154.7075 C   0  0  0  0  0  0  0  0  0  0  0  0
  148.0731  140.5753  154.0744 S   0  0  0  0  0  0  0  0  0  0  0  0
  147.0609  136.1344  153.4764 N   0  0  0  0  0  0  0  0  0  0  0  0
  145.8883  135.2700  153.6298 C   0  0  1  0  0  0  0  0  0  0  0  0
  144.7176  135.6930  152.7069 C   0  0  1  0  0  0  0  0  0  0  0  0
  145.1915  135.8933  151.2512 C   0  0  0  0  0  0  0  0  0  0  0  0
  145.5015  134.4547  150.7997 C   0  0  0  0  0  0  0  0  0  0  0  0
  145.1261  133.6141  152.0386 C   0  0  2  0  0  0  0  0  0  0  0  0
  143.9302  134.3933  152.5736 C   0  0  0  0  0  0  0  0  0  0  0  0
  146.1371  133.7972  153.1973 C   0  0  1  0  0  0  0  0  0  0  0  0
  147.5965  133.3839  152.9007 C   0  0  0  0  0  0  0  0  0  0  0  0
  147.6639  132.0082  152.5906 O   0  0  0  0  0  0  0  0  0  0  0  0
  148.9890  137.3157  153.0714 H   0  0  0  0  0  0  0  0  0  0  0  0
  149.6091  142.3921  154.9217 H   0  0  0  0  0  0  0  0  0  0  0  0
  147.7767  135.8066  152.8449 H   0  0  0  0  0  0  0  0  0  0  0  0
  145.5392  135.2754  154.6641 H   0  0  0  0  0  0  0  0  0  0  0  0
  144.1436  136.5355  153.0938 H   0  0  0  0  0  0  0  0  0  0  0  0
  144.3868  136.3122  150.6454 H   0  0  0  0  0  0  0  0  0  0  0  0
  146.0471  136.5609  151.1511 H   0  0  0  0  0  0  0  0  0  0  0  0
  144.8731  134.1841  149.9502 H   0  0  0  0  0  0  0  0  0  0  0  0
  146.5366  134.3247  150.4880 H   0  0  0  0  0  0  0  0  0  0  0  0
  144.9158  132.5695  151.8073 H   0  0  0  0  0  0  0  0  0  0  0  0
  143.5536  134.0149  153.5257 H   0  0  0  0  0  0  0  0  0  0  0  0
  143.1018  134.4576  151.8654 H   0  0  0  0  0  0  0  0  0  0  0  0
  145.8003  133.1630  154.0198 H   0  0  0  0  0  0  0  0  0  0  0  0
  148.0311  133.9572  152.0828 H   0  0  0  0  0  0  0  0  0  0  0  0
  148.2192  133.5639  153.7773 H   0  0  0  0  0  0  0  0  0  0  0  0
  148.0863  131.9094  151.7510 H   0  0  0  0  0  0  0  0  0  0  0  0
  1  2  2  0  0  0  0
  2  3  1  0  0  0  0
  2  9  1  0  0  0  0
  3  4  1  0  0  0  0
  3 19  1  0  0  0  0
  4  8  1  0  0  0  0
  4  5  2  0  0  0  0
  5  6  1  0  0  0  0
  6  7  2  0  0  0  0
  7  8  1  0  0  0  0
  7 20  1  0  0  0  0
  9 10  1  0  0  0  0
  9 21  1  0  0  0  0
 10 16  1  0  0  0  0
 10 11  1  0  0  0  0
 10 22  1  0  0  0  0
 11 15  1  0  0  0  0
 11 12  1  0  0  0  0
 11 23  1  0  0  0  0
 12 13  1  0  0  0  0
 12 24  1  0  0  0  0
 12 25  1  0  0  0  0
 13 14  1  0  0  0  0
 13 26  1  0  0  0  0
 13 27  1  0  0  0  0
 14 15  1  0  0  0  0
 14 16  1  0  0  0  0
 14 28  1  0  0  0  0
 15 29  1  0  0  0  0
 15 30  1  0  0  0  0
 16 17  1  0  0  0  0
 16 31  1  0  0  0  0
 17 18  1  0  0  0  0
 17 32  1  0  0  0  0
 17 33  1  0  0  0  0
 18 34  1  0  0  0  0
M  END
> <s_m_source_file>
AV-unprocessed.smi

> <i_m_source_file_index>
798

> <i_lp_mmshare_version>
43012

> <i_f3d_flags>
0

> <s_epik_input>
W0NIMl0xW0NIMl1bQ0BASF0oW0NIMl0yKVtDQEBIXShbQ0gyXVtPSF0pW0NAQEhdKFtDQEhdMTIpW05IXUMoPU8pW05IXWMzbm5bY0hdczM=

> <s_epik_cmdline>
J2VwaWtfcHl0aG9uJywgJy1waCcsICc3LjAnLCAnLXRuJywgJzgnLCAnLW1hJywgJzIwMCcsICctbWV0YWxfYmluZGluZycsICctaW1hZScsICc8aW5maWxlLm1hZT4nLCAnLW9tYWUnLCAnPG91dGZpbGUubWFlPic=

> <r_lp_tautomer_probability>
1

> <r_epik_Ionization_Penalty>
0.000329046

> <r_epik_Ionization_Penalty_Charging>
0

> <r_epik_Ionization_Penalty_Neutral>
0.000329046

> <r_epik_State_Penalty>
-0

> <r_epik_Charging_Adjusted_Penalty>
0

> <i_epik_Tot_Q>
0

> <i_epik_Tot_abs_Q>
0

> <r_epik_Metal_State_Penalty>
0.173433

> <b_epik_Metal_Only>
0

> <s_lp_Force_Field>
OPLS_2005

> <r_lp_Energy>
50.8233

> <b_lp_Chiralities_Consistent>
1

> <s_lp_Variant>
AV-unprocessed.smi:798-4

> <Gold.Version>
5.8.1

> <Gold.Id.Protein>
6NUR|6NUR_protein|mol2

> <Gold.PLP.Fitness>
38.1912

> <Gold.PLP.PLP>
-25.4624

> <Gold.PLP.part.hbond>
-3.8982

> <Gold.PLP.part.metal>
0.0000

> <Gold.PLP.part.buried>
-2.3412

> <Gold.PLP.part.nonpolar>
-19.1083

> <Gold.PLP.part.repulsive>
0.2800

> <Gold.PLP.ligand.clash>
0.0000

> <Gold.PLP.ligand.torsion>
0.7480

> <Gold.PLP.Chemscore.Hbond>
3.7380

> <Gold.PLP.Chemscore.CHOScore>
1.0000

> <Gold.PLP.Chemscore.Metal>
0.0000

> <Gold.Chemscore.Hbonds>
donor molecule, donor type, donor heavy atom, donor atom, acceptor molecule, acceptor atom, score
      L1  H     3    19       P1  7948  0.94
      L1  H     9    21       P1  7948  0.93
      L1  H    18    34       P1 10747  1.00
      P1  H  7989  7998       L1     6  0.85
      L1  C     7    20       P1  8028  0.98

> <Gold.PLP.Chemscore.Internal.Correction>
0.0108

> <Gold.Rescore>
     Score         DG    S(hbond)    S(metal)    S(lipo)     H(rot)  DE(clash)    DE(int)     intcor
     14.81     -15.52       2.81        0.00      48.07       1.94       0.05       0.66       ----

> <Gold.Chemscore.Fitness>
14.8093

> <Gold.Chemscore.DG>
-15.5167

> <Gold.Chemscore.ZeroCoef>
-5.4800

> <Gold.Chemscore.Hbond>
2.8114

> <Gold.Chemscore.Metal>
0.0000

> <Gold.Chemscore.Lipo>
48.0653

> <Gold.Chemscore.Internal_Hbond>
0.0000

> <Gold.Chemscore.DEClash>
0.0506

> <Gold.Chemscore.DEInternal>
0.6568

> <Gold.Chemscore.Rot>
1.9442

> <Gold.Chemscore.Internal.Correction>
   9.000000E+99

> <Gold.Chemscore.Hbonds>
donor molecule, donor type, donor heavy atom, donor atom, acceptor molecule, acceptor atom, score
      L1  H     3    19       P1  7948  0.90
      L1  H     9    21       P1  7948  0.89
      L1  H    18    34       P1 10747  0.93
      P1  H  7989  7998       L1     6  0.05

> <Gold.Chemscore.Hbond.Weighted>
-9.3901

> <Gold.Chemscore.Metal.Weighted>
-0.0000

> <Gold.Chemscore.Lipo.Weighted>
-5.6236

> <Gold.Chemscore.Internal_Hbond.Weighted>
0.0000

> <Gold.Chemscore.DEClash.Weighted>
0.0506

> <Gold.Chemscore.DEInternal.Weighted>
0.6568

> <Gold.Chemscore.Rot.Weighted>
4.9771

> <Gold.Chemscore.Internal.Correction.Weighted>
   9.000000E+99

> <Gold.Protein.RotatedTorsions>
[ 6907 6896 6895 6894 ] final -119.01 input  -60.11 | X-H torsion
[ 7974 7965 7964 7962 ] final  -61.02 input  175.53 | X-H torsion
[ 8008 7997 7996 7995 ] final  -80.76 input   59.86 | X-H torsion
[ 10167 10162 10161 10158 ] final   74.75 input  -65.29 | X-H torsion
[ 10718 10713 10712 10709 ] final   -2.47 input   66.30 | X-H torsion
[ 10763 10752 10751 10750 ] final  -40.43 input  -60.55 | X-H torsion
[ 11005 11000 10999 10996 ] final -159.31 input  -57.11 | X-H torsion

> <Gold.Protein.ActiveResidues>
 VAL166  LYS551  ARG553  GLY616  TRP617  ASP618  TYR619  PRO620  LYS621  CYS622 
 ASP623  PHE694  ASN695  SER759  ASP760  ASP761  ALA762  ILE779  LEU786  VAL792 
 PHE793  MET794  SER795  GLU796  ALA797  LYS798  CYS799  TRP800  GLU811  SER814 

> <Gold.Protein.RotatedAtoms>
  150.8268  133.8158  159.3114 H   0  0  0  0  0  0  0  0  0  0  0  0  # atno 6907 bound_to 6896
  151.5900  135.1052  160.0046 H   0  0  0  0  0  0  0  0  0  0  0  0  # atno 6908 bound_to 6896
  152.4352  133.7307  159.6642 H   0  0  0  0  0  0  0  0  0  0  0  0  # atno 6909 bound_to 6896
  145.8085  140.8613  143.0194 H   0  0  0  0  0  0  0  0  0  0  0  0  # atno 7974 bound_to 7965
  154.5916  140.0658  156.9246 H   0  0  0  0  0  0  0  0  0  0  0  0  # atno 8008 bound_to 7997
  155.2286  140.3336  155.4288 H   0  0  0  0  0  0  0  0  0  0  0  0  # atno 8009 bound_to 7997
  156.2259  140.1819  156.7348 H   0  0  0  0  0  0  0  0  0  0  0  0  # atno 8010 bound_to 7997
  140.0103  144.5619  150.7664 H   0  0  0  0  0  0  0  0  0  0  0  0  # atno 10167 bound_to 10162
  156.7903  130.5359  149.5737 H   0  0  0  0  0  0  0  0  0  0  0  0  # atno 10718 bound_to 10713
  153.9458  135.6756  153.4744 H   0  0  0  0  0  0  0  0  0  0  0  0  # atno 10763 bound_to 10752
  153.0909  135.4875  154.8684 H   0  0  0  0  0  0  0  0  0  0  0  0  # atno 10764 bound_to 10752
  154.7352  135.3147  154.8782 H   0  0  0  0  0  0  0  0  0  0  0  0  # atno 10765 bound_to 10752
  140.6440  134.4521  157.5234 H   0  0  0  0  0  0  0  0  0  0  0  0  # atno 11005 bound_to 11000
  144.6760  140.0362  143.7482 LP  0  0  0  0  0  0  0  0  0  0  0  0  # atno 17320 bound_to 7965
  145.9802  139.2935  143.1046 LP  0  0  0  0  0  0  0  0  0  0  0  0  # atno 17321 bound_to 7965
  140.7384  143.2778  151.3690 LP  0  0  0  0  0  0  0  0  0  0  0  0  # atno 17342 bound_to 10162
  139.6210  144.0908  152.2391 LP  0  0  0  0  0  0  0  0  0  0  0  0  # atno 17343 bound_to 10162
  156.1163  130.6077  151.0126 LP  0  0  0  0  0  0  0  0  0  0  0  0  # atno 17370 bound_to 10713
  157.6604  131.0882  150.7852 LP  0  0  0  0  0  0  0  0  0  0  0  0  # atno 17371 bound_to 10713
  139.9070  134.8428  156.1670 LP  0  0  0  0  0  0  0  0  0  0  0  0  # atno 17394 bound_to 11000
  141.0586  133.6853  156.1908 LP  0  0  0  0  0  0  0  0  0  0  0  0  # atno 17395 bound_to 11000

$$$$
