AV-unprocessed.smi:1936|AV-procd|sdf|7832|dock9
  -GOLD-   22720 9583D 1   1.00000     0.00000
 Structure written by MMmdl.
 39 40  0  0  0  0  0  0  0  0  2 V2000
  149.8529  134.6460  156.2985 C   0  0  0  0  0  0  0  0  0  0  0  0
  149.2974  134.9420  154.8991 C   0  0  1  0  0  0  0  0  0  0  0  0
  147.7748  134.6838  154.8253 C   0  0  0  0  0  0  0  0  0  0  0  0
  147.2460  134.7538  153.4390 N   0  3  0  0  0  0  0  0  0  0  0  0
  147.0813  133.4262  152.8005 C   0  0  0  0  0  0  0  0  0  0  0  0
  146.6239  133.5948  151.3428 C   0  0  0  0  0  0  0  0  0  0  0  0
  145.4095  134.3353  151.3095 O   0  0  0  0  0  0  0  0  0  0  0  0
  145.5663  135.6410  151.8516 C   0  0  0  0  0  0  0  0  0  0  0  0
  145.9988  135.5440  153.3247 C   0  0  0  0  0  0  0  0  0  0  0  0
  149.5979  136.3278  154.5416 N   0  0  0  0  0  0  0  0  0  0  0  0
  150.7752  136.9498  154.7156 C   0  0  0  0  0  0  0  0  0  0  0  0
  151.7342  136.4470  155.3004 O   0  0  0  0  0  0  0  0  0  0  0  0
  150.9102  138.3281  154.0719 C   0  0  0  0  0  0  0  0  0  0  0  0
  150.8963  139.3639  155.0903 N   0  0  0  0  0  0  0  0  0  0  0  0
  151.1233  139.2360  156.4447 C   0  0  0  0  0  0  0  0  0  0  0  0
  151.0163  140.4813  156.9944 C   0  0  0  0  0  0  0  0  0  0  0  0
  150.7178  141.3180  155.8831 C   0  0  0  0  0  0  0  0  0  0  0  0
  150.6529  140.6479  154.7440 N   0  0  0  0  0  0  0  0  0  0  0  0
  149.6654  133.6101  156.5826 H   0  0  0  0  0  0  0  0  0  0  0  0
  149.3949  135.2860  157.0536 H   0  0  0  0  0  0  0  0  0  0  0  0
  150.9310  134.8066  156.3355 H   0  0  0  0  0  0  0  0  0  0  0  0
  149.8053  134.2687  154.2073 H   0  0  0  0  0  0  0  0  0  0  0  0
  147.5192  133.7226  155.2738 H   0  0  0  0  0  0  0  0  0  0  0  0
  147.2759  135.4426  155.4304 H   0  0  0  0  0  0  0  0  0  0  0  0
  148.0198  132.8732  152.8259 H   0  0  0  0  0  0  0  0  0  0  0  0
  146.3490  132.8386  153.3563 H   0  0  0  0  0  0  0  0  0  0  0  0
  147.3899  134.0981  150.7501 H   0  0  0  0  0  0  0  0  0  0  0  0
  146.4563  132.6192  150.8861 H   0  0  0  0  0  0  0  0  0  0  0  0
  146.2979  136.2008  151.2675 H   0  0  0  0  0  0  0  0  0  0  0  0
  144.6191  136.1745  151.7714 H   0  0  0  0  0  0  0  0  0  0  0  0
  145.2118  135.0780  153.9199 H   0  0  0  0  0  0  0  0  0  0  0  0
  146.1565  136.5467  153.7239 H   0  0  0  0  0  0  0  0  0  0  0  0
  148.8731  136.8336  154.0522 H   0  0  0  0  0  0  0  0  0  0  0  0
  151.8344  138.3989  153.4958 H   0  0  0  0  0  0  0  0  0  0  0  0
  150.0838  138.4972  153.3801 H   0  0  0  0  0  0  0  0  0  0  0  0
  151.3402  138.2802  156.8988 H   0  0  0  0  0  0  0  0  0  0  0  0
  151.1322  140.7537  158.0330 H   0  0  0  0  0  0  0  0  0  0  0  0
  150.5531  142.3852  155.8696 H   0  0  0  0  0  0  0  0  0  0  0  0
  147.9401  135.2530  152.9006 H   0  0  0  0  0  0  0  0  0  0  0  0
  1  2  1  0  0  0  0
  1 19  1  0  0  0  0
  1 20  1  0  0  0  0
  1 21  1  0  0  0  0
  2  3  1  0  0  0  0
  2 10  1  0  0  0  0
  2 22  1  0  0  0  0
  3  4  1  0  0  0  0
  3 23  1  0  0  0  0
  3 24  1  0  0  0  0
  4  9  1  0  0  0  0
  4  5  1  0  0  0  0
  4 39  1  0  0  0  0
  5  6  1  0  0  0  0
  5 25  1  0  0  0  0
  5 26  1  0  0  0  0
  6  7  1  0  0  0  0
  6 27  1  0  0  0  0
  6 28  1  0  0  0  0
  7  8  1  0  0  0  0
  8  9  1  0  0  0  0
  8 29  1  0  0  0  0
  8 30  1  0  0  0  0
  9 31  1  0  0  0  0
  9 32  1  0  0  0  0
 10 11  1  0  0  0  0
 10 33  1  0  0  0  0
 11 12  2  0  0  0  0
 11 13  1  0  0  0  0
 13 14  1  0  0  0  0
 13 34  1  0  0  0  0
 13 35  1  0  0  0  0
 14 18  1  0  0  0  0
 14 15  1  0  0  0  0
 15 16  2  0  0  0  0
 15 36  1  0  0  0  0
 16 17  1  0  0  0  0
 16 37  1  0  0  0  0
 17 18  2  0  0  0  0
 17 38  1  0  0  0  0
M  CHG  1   4   1
M  END
> <s_m_source_file>
AV-unprocessed.smi

> <i_m_source_file_index>
1936

> <i_lp_mmshare_version>
43012

> <i_f3d_flags>
0

> <s_epik_input>
W0NIMl0xW0NIMl1PW0NIMl1bQ0gyXU4xW0NIMl1bQ0BASF0oW0NIM10pW05IXUMoPU8pW0NIMl1uMltjSF1bY0hdW2NIXW4y

> <s_epik_cmdline>
J2VwaWtfcHl0aG9uJywgJy1waCcsICc3LjAnLCAnLXRuJywgJzgnLCAnLW1hJywgJzIwMCcsICctbWV0YWxfYmluZGluZycsICctaW1hZScsICc8aW5maWxlLm1hZT4nLCAnLW9tYWUnLCAnPG91dGZpbGUubWFlPic=

> <r_lp_tautomer_probability>
1

> <r_epik_Ionization_Penalty>
0.748405

> <r_epik_Ionization_Penalty_Charging>
0.748396

> <r_epik_Ionization_Penalty_Neutral>
9.02181e-06

> <r_epik_State_Penalty>
0.775162

> <r_epik_Charging_Adjusted_Penalty>
1.52356

> <i_epik_Tot_Q>
1

> <i_epik_Tot_abs_Q>
1

> <r_epik_Metal_State_Penalty>
0.775167

> <b_epik_Metal_Only>
0

> <s_lp_Force_Field>
OPLS_2005

> <r_lp_Energy>
20.1582

> <b_lp_Chiralities_Consistent>
1

> <s_lp_Variant>
AV-unprocessed.smi:1936-4

> <Gold.Version>
5.8.1

> <Gold.Id.Protein>
6NUR|6NUR_protein|mol2

> <Gold.PLP.Fitness>
40.3009

> <Gold.PLP.PLP>
-28.2463

> <Gold.PLP.part.hbond>
-4.0000

> <Gold.PLP.part.metal>
0.0000

> <Gold.PLP.part.buried>
-4.6049

> <Gold.PLP.part.nonpolar>
-21.4363

> <Gold.PLP.part.repulsive>
0.3644

> <Gold.PLP.ligand.clash>
0.0000

> <Gold.PLP.ligand.torsion>
1.1863

> <Gold.PLP.Chemscore.Hbond>
4.0333

> <Gold.PLP.Chemscore.CHOScore>
0.7579

> <Gold.PLP.Chemscore.Metal>
0.0000

> <Gold.Chemscore.Hbonds>
donor molecule, donor type, donor heavy atom, donor atom, acceptor molecule, acceptor atom, score
      L1  H     4    39       P1  7948  2.00
      L1  H    10    33       P1  7948  0.06
      P1  H  7989  7998       L1    18  0.94
      P1  H 10752 10763       L1    12  1.00
      L1  C    17    38       P1  8028  0.14

> <Gold.PLP.Chemscore.Internal.Correction>
0.0539

> <Gold.Rescore>
     Score         DG    S(hbond)    S(metal)    S(lipo)     H(rot)  DE(clash)    DE(int)     intcor
     14.97     -17.16       3.01        0.00      56.23       1.93       0.02       2.18       ----

> <Gold.Chemscore.Fitness>
14.9704

> <Gold.Chemscore.DG>
-17.1634

> <Gold.Chemscore.ZeroCoef>
-5.4800

> <Gold.Chemscore.Hbond>
3.0106

> <Gold.Chemscore.Metal>
0.0000

> <Gold.Chemscore.Lipo>
56.2323

> <Gold.Chemscore.Internal_Hbond>
0.0000

> <Gold.Chemscore.DEClash>
0.0178

> <Gold.Chemscore.DEInternal>
2.1752

> <Gold.Chemscore.Rot>
1.9340

> <Gold.Chemscore.Internal.Correction>
   9.000000E+99

> <Gold.Chemscore.Hbonds>
donor molecule, donor type, donor heavy atom, donor atom, acceptor molecule, acceptor atom, score
      L1  H     4    39       P1  7948  1.00
      L1  H    10    33       P1  7948  0.07
      P1  H  7989  7998       L1    18  0.40
      P1  H 10752 10763       L1    12  0.99

> <Gold.Chemscore.Hbond.Weighted>
-10.0553

> <Gold.Chemscore.Metal.Weighted>
-0.0000

> <Gold.Chemscore.Lipo.Weighted>
-6.5792

> <Gold.Chemscore.Internal_Hbond.Weighted>
0.0000

> <Gold.Chemscore.DEClash.Weighted>
0.0178

> <Gold.Chemscore.DEInternal.Weighted>
2.1752

> <Gold.Chemscore.Rot.Weighted>
4.9510

> <Gold.Chemscore.Internal.Correction.Weighted>
   9.000000E+99

> <Gold.Protein.RotatedTorsions>
[ 6907 6896 6895 6894 ] final    3.61 input  -60.11 | X-H torsion
[ 7974 7965 7964 7962 ] final  134.97 input  175.53 | X-H torsion
[ 8008 7997 7996 7995 ] final  162.91 input   59.86 | X-H torsion
[ 10167 10162 10161 10158 ] final  -35.76 input  -65.29 | X-H torsion
[ 10718 10713 10712 10709 ] final  -10.72 input   66.30 | X-H torsion
[ 10763 10752 10751 10750 ] final   79.67 input  -60.55 | X-H torsion
[ 11005 11000 10999 10996 ] final   20.89 input  -57.11 | X-H torsion

> <Gold.Protein.ActiveResidues>
 VAL166  LYS551  ARG553  GLY616  TRP617  ASP618  TYR619  PRO620  LYS621  CYS622 
 ASP623  PHE694  ASN695  SER759  ASP760  ASP761  ALA762  ILE779  LEU786  VAL792 
 PHE793  MET794  SER795  GLU796  ALA797  LYS798  CYS799  TRP800  GLU811  SER814 

> <Gold.Protein.RotatedAtoms>
  151.6279  135.1026  160.0115 H   0  0  0  0  0  0  0  0  0  0  0  0  # atno 6907 bound_to 6896
  152.4122  133.6978  159.6416 H   0  0  0  0  0  0  0  0  0  0  0  0  # atno 6908 bound_to 6896
  150.8012  133.8520  159.3249 H   0  0  0  0  0  0  0  0  0  0  0  0  # atno 6909 bound_to 6896
  144.9710  139.4606  143.5433 H   0  0  0  0  0  0  0  0  0  0  0  0  # atno 7974 bound_to 7965
  156.1996  140.1737  156.7927 H   0  0  0  0  0  0  0  0  0  0  0  0  # atno 8008 bound_to 7997
  154.5574  140.0706  156.8796 H   0  0  0  0  0  0  0  0  0  0  0  0  # atno 8009 bound_to 7997
  155.2912  140.3355  155.4255 H   0  0  0  0  0  0  0  0  0  0  0  0  # atno 8010 bound_to 7997
  140.7158  143.3455  151.2265 H   0  0  0  0  0  0  0  0  0  0  0  0  # atno 10167 bound_to 10162
  156.6694  130.5005  149.6005 H   0  0  0  0  0  0  0  0  0  0  0  0  # atno 10718 bound_to 10713
  153.0971  135.4831  154.8799 H   0  0  0  0  0  0  0  0  0  0  0  0  # atno 10763 bound_to 10752
  154.7337  135.3066  154.8850 H   0  0  0  0  0  0  0  0  0  0  0  0  # atno 10764 bound_to 10752
  153.9478  135.6827  153.4797 H   0  0  0  0  0  0  0  0  0  0  0  0  # atno 10765 bound_to 10752
  140.3977  134.1752  155.7663 H   0  0  0  0  0  0  0  0  0  0  0  0  # atno 11005 bound_to 11000
  146.3382  139.8921  142.8807 LP  0  0  0  0  0  0  0  0  0  0  0  0  # atno 17320 bound_to 7965
  145.2559  141.0060  143.3854 LP  0  0  0  0  0  0  0  0  0  0  0  0  # atno 17321 bound_to 7965
  139.6974  143.9591  152.2889 LP  0  0  0  0  0  0  0  0  0  0  0  0  # atno 17342 bound_to 10162
  139.9272  144.6763  150.8400 LP  0  0  0  0  0  0  0  0  0  0  0  0  # atno 17343 bound_to 10162
  156.1950  130.6584  151.1104 LP  0  0  0  0  0  0  0  0  0  0  0  0  # atno 17370 bound_to 10713
  157.7082  131.0746  150.6592 LP  0  0  0  0  0  0  0  0  0  0  0  0  # atno 17371 bound_to 10713
  141.1868  133.8294  157.1055 LP  0  0  0  0  0  0  0  0  0  0  0  0  # atno 17394 bound_to 11000
  140.0360  134.9878  157.0871 LP  0  0  0  0  0  0  0  0  0  0  0  0  # atno 17395 bound_to 11000

$$$$
