AV-unprocessed.smi:160|AV-procd|sdf|1344|dock3
  -GOLD-   2262019 43D 1   1.00000     0.00000
 Structure written by MMmdl.
 29 30  0  0  0  0  0  0  0  0  1 V2000
  145.9478  143.0663  158.1889 N   0  0  0  0  0  0  0  0  0  0  0  0
  147.0597  142.7607  158.8660 C   0  0  0  0  0  0  0  0  0  0  0  0
  147.1547  142.9178  160.0821 O   0  0  0  0  0  0  0  0  0  0  0  0
  148.1989  142.2069  158.0558 C   0  0  0  0  0  0  0  0  0  0  0  0
  149.3945  141.8938  158.6381 N   0  0  0  0  0  0  0  0  0  0  0  0
  150.0417  141.4596  157.5642 C   0  0  0  0  0  0  0  0  0  0  0  0
  149.3249  141.5050  156.4364 N   0  0  0  0  0  0  0  0  0  0  0  0
  149.7040  141.1028  155.0419 C   0  0  1  0  0  0  0  0  0  0  0  0
  150.9550  140.4826  155.0892 O   0  0  0  0  0  0  0  0  0  0  0  0
  150.7964  139.0714  154.9804 C   0  0  2  0  0  0  0  0  0  0  0  0
  152.1107  138.4344  154.5047 C   0  0  0  0  0  0  0  0  0  0  0  0
  151.8661  137.1338  154.0132 O   0  0  0  0  0  0  0  0  0  0  0  0
  149.6591  138.9767  153.9627 C   0  0  1  0  0  0  0  0  0  0  0  0
  149.0474  137.7004  153.9350 O   0  0  0  0  0  0  0  0  0  0  0  0
  148.7169  140.0991  154.3972 C   0  0  1  0  0  0  0  0  0  0  0  0
  147.6902  139.6472  155.2678 O   0  0  0  0  0  0  0  0  0  0  0  0
  148.0979  141.9970  156.7425 N   0  0  0  0  0  0  0  0  0  0  0  0
  149.7784  142.0456  154.4986 H   0  0  0  0  0  0  0  0  0  0  0  0
  150.4758  138.6488  155.9347 H   0  0  0  0  0  0  0  0  0  0  0  0
  150.0450  139.2034  152.9677 H   0  0  0  0  0  0  0  0  0  0  0  0
  148.2460  140.5655  153.5313 H   0  0  0  0  0  0  0  0  0  0  0  0
  145.1477  143.4418  158.6762 H   0  0  0  0  0  0  0  0  0  0  0  0
  145.9171  142.9179  157.1903 H   0  0  0  0  0  0  0  0  0  0  0  0
  151.0607  141.1031  157.5999 H   0  0  0  0  0  0  0  0  0  0  0  0
  152.5370  139.0174  153.6879 H   0  0  0  0  0  0  0  0  0  0  0  0
  152.8517  138.4060  155.3042 H   0  0  0  0  0  0  0  0  0  0  0  0
  151.3169  137.2000  153.2470 H   0  0  0  0  0  0  0  0  0  0  0  0
  149.2195  137.3037  153.0948 H   0  0  0  0  0  0  0  0  0  0  0  0
  147.1836  138.9865  154.8209 H   0  0  0  0  0  0  0  0  0  0  0  0
  1  2  1  0  0  0  0
  1 22  1  0  0  0  0
  1 23  1  0  0  0  0
  2  3  2  0  0  0  0
  2  4  1  0  0  0  0
  4 17  2  0  0  0  0
  4  5  1  0  0  0  0
  5  6  2  0  0  0  0
  6  7  1  0  0  0  0
  6 24  1  0  0  0  0
  7  8  1  0  0  0  0
  7 17  1  0  0  0  0
  8 18  1  0  0  0  0
  8 15  1  0  0  0  0
  8  9  1  0  0  0  0
  9 10  1  0  0  0  0
 10 19  1  0  0  0  0
 10 11  1  0  0  0  0
 10 13  1  0  0  0  0
 11 12  1  0  0  0  0
 11 25  1  0  0  0  0
 11 26  1  0  0  0  0
 12 27  1  0  0  0  0
 13 20  1  0  0  0  0
 13 14  1  0  0  0  0
 13 15  1  0  0  0  0
 14 28  1  0  0  0  0
 15 21  1  0  0  0  0
 15 16  1  0  0  0  0
 16 29  1  0  0  0  0
M  END
> <s_m_source_file>
AV-unprocessed.smi

> <i_m_source_file_index>
160

> <i_lp_mmshare_version>
43012

> <i_f3d_flags>
0

> <s_epik_input>
W05IMl1DKD1PKWMxbltjSF1uKG4xKVtDQEBIXTJPW0NASF0oW0NIMl1bT0hdKVtDQEBIXShbT0hdKVtDQEhdMltPSF0=

> <s_epik_cmdline>
J2VwaWtfcHl0aG9uJywgJy1waCcsICc3LjAnLCAnLXRuJywgJzgnLCAnLW1hJywgJzIwMCcsICctbWV0YWxfYmluZGluZycsICctaW1hZScsICc8aW5maWxlLm1hZT4nLCAnLW9tYWUnLCAnPG91dGZpbGUubWFlPic=

> <r_lp_tautomer_probability>
1

> <r_epik_Ionization_Penalty>
1.06932e-05

> <r_epik_Ionization_Penalty_Charging>
0

> <r_epik_Ionization_Penalty_Neutral>
1.06932e-05

> <r_epik_State_Penalty>
-0

> <r_epik_Charging_Adjusted_Penalty>
0

> <i_epik_Tot_Q>
0

> <i_epik_Tot_abs_Q>
0

> <r_epik_Metal_State_Penalty>
0.0142097

> <b_epik_Metal_Only>
0

> <s_epik_Chemistry_Notes>
This compound contains an acetal/aminal-like group ( X-CH(R)-Y where X, Y are N, S, or O) that may be acid/base labile, releasing an aldehyde.

> <s_lp_Force_Field>
OPLS_2005

> <r_lp_Energy>
46.1789

> <b_lp_Chiralities_Consistent>
1

> <s_lp_Variant>
AV-unprocessed.smi:160-2

> <Gold.Version>
5.8.1

> <Gold.Id.Protein>
6NUR|6NUR_protein|mol2

> <Gold.PLP.Fitness>
40.3458

> <Gold.PLP.PLP>
-25.8228

> <Gold.PLP.part.hbond>
-6.4987

> <Gold.PLP.part.metal>
0.0000

> <Gold.PLP.part.buried>
-2.7107

> <Gold.PLP.part.nonpolar>
-17.4418

> <Gold.PLP.part.repulsive>
1.0240

> <Gold.PLP.ligand.clash>
0.0000

> <Gold.PLP.ligand.torsion>
0.1954

> <Gold.PLP.Chemscore.Hbond>
4.9658

> <Gold.PLP.Chemscore.CHOScore>
0.0000

> <Gold.PLP.Chemscore.Metal>
0.0000

> <Gold.Chemscore.Hbonds>
donor molecule, donor type, donor heavy atom, donor atom, acceptor molecule, acceptor atom, score
      L1  H    12    27       P1  7949  0.47
      L1  H    14    28       P1  7948  1.00
      P1  H  6933  6944       L1     3  0.90
      P1  H  6934  6946       L1     3  0.52
      P1  H  7989  7998       L1     9  1.00
      P1  H 10752 10764       L1    12  1.00

> <Gold.PLP.Chemscore.Internal.Correction>
0.0165

> <Gold.Rescore>
     Score         DG    S(hbond)    S(metal)    S(lipo)     H(rot)  DE(clash)    DE(int)     intcor
      9.93     -11.43       3.97        0.00      26.38       4.06       0.00       1.49       ----

> <Gold.Chemscore.Fitness>
9.9332

> <Gold.Chemscore.DG>
-11.4271

> <Gold.Chemscore.ZeroCoef>
-5.4800

> <Gold.Chemscore.Hbond>
3.9683

> <Gold.Chemscore.Metal>
0.0000

> <Gold.Chemscore.Lipo>
26.3814

> <Gold.Chemscore.Internal_Hbond>
0.0000

> <Gold.Chemscore.DEClash>
0.0000

> <Gold.Chemscore.DEInternal>
1.4939

> <Gold.Chemscore.Rot>
4.0600

> <Gold.Chemscore.Internal.Correction>
   9.000000E+99

> <Gold.Chemscore.Hbonds>
donor molecule, donor type, donor heavy atom, donor atom, acceptor molecule, acceptor atom, score
      L1  H    12    27       P1  7949  0.33
      L1  H    14    28       P1  7948  0.97
      P1  H  6933  6944       L1     3  0.86
      P1  H  6934  6946       L1     3  0.12
      P1  H  7989  7998       L1     9  0.11
      P1  H 10752 10764       L1    12  0.94

> <Gold.Chemscore.Hbond.Weighted>
-13.2541

> <Gold.Chemscore.Metal.Weighted>
-0.0000

> <Gold.Chemscore.Lipo.Weighted>
-3.0866

> <Gold.Chemscore.Internal_Hbond.Weighted>
0.0000

> <Gold.Chemscore.DEClash.Weighted>
0.0000

> <Gold.Chemscore.DEInternal.Weighted>
1.4939

> <Gold.Chemscore.Rot.Weighted>
10.3936

> <Gold.Chemscore.Internal.Correction.Weighted>
   9.000000E+99

> <Gold.Protein.RotatedTorsions>
[ 6907 6896 6895 6894 ] final    4.12 input  -60.11 | X-H torsion
[ 7974 7965 7964 7962 ] final   75.39 input  175.53 | X-H torsion
[ 8008 7997 7996 7995 ] final   28.49 input   59.86 | X-H torsion
[ 10167 10162 10161 10158 ] final  161.22 input  -65.29 | X-H torsion
[ 10718 10713 10712 10709 ] final  -94.19 input   66.30 | X-H torsion
[ 10763 10752 10751 10750 ] final  -84.67 input  -60.55 | X-H torsion
[ 11005 11000 10999 10996 ] final  -87.29 input  -57.11 | X-H torsion

> <Gold.Protein.ActiveResidues>
 VAL166  LYS551  ARG553  GLY616  TRP617  ASP618  TYR619  PRO620  LYS621  CYS622 
 ASP623  PHE694  ASN695  SER759  ASP760  ASP761  ALA762  ILE779  LEU786  VAL792 
 PHE793  MET794  SER795  GLU796  ALA797  LYS798  CYS799  TRP800  GLU811  SER814 

> <Gold.Protein.RotatedAtoms>
  151.6361  135.1018  160.0131 H   0  0  0  0  0  0  0  0  0  0  0  0  # atno 6907 bound_to 6896
  152.4079  133.6914  159.6381 H   0  0  0  0  0  0  0  0  0  0  0  0  # atno 6908 bound_to 6896
  150.7972  133.8592  159.3268 H   0  0  0  0  0  0  0  0  0  0  0  0  # atno 6909 bound_to 6896
  145.7162  139.2632  143.1622 H   0  0  0  0  0  0  0  0  0  0  0  0  # atno 7974 bound_to 7965
  155.0594  140.3188  155.4665 H   0  0  0  0  0  0  0  0  0  0  0  0  # atno 8008 bound_to 7997
  156.2816  140.2131  156.5666 H   0  0  0  0  0  0  0  0  0  0  0  0  # atno 8009 bound_to 7997
  154.7144  140.0495  157.0568 H   0  0  0  0  0  0  0  0  0  0  0  0  # atno 8010 bound_to 7997
  139.4847  144.4558  151.8770 H   0  0  0  0  0  0  0  0  0  0  0  0  # atno 10167 bound_to 10162
  156.0023  130.5058  150.5890 H   0  0  0  0  0  0  0  0  0  0  0  0  # atno 10718 bound_to 10713
  154.6021  135.5512  153.7385 H   0  0  0  0  0  0  0  0  0  0  0  0  # atno 10763 bound_to 10752
  153.0159  135.6369  154.1699 H   0  0  0  0  0  0  0  0  0  0  0  0  # atno 10764 bound_to 10752
  154.1638  135.2896  155.3081 H   0  0  0  0  0  0  0  0  0  0  0  0  # atno 10765 bound_to 10752
  141.1619  133.7503  156.9285 H   0  0  0  0  0  0  0  0  0  0  0  0  # atno 11005 bound_to 11000
  146.0668  140.7912  142.9708 LP  0  0  0  0  0  0  0  0  0  0  0  0  # atno 17320 bound_to 7965
  144.6929  140.3280  143.7221 LP  0  0  0  0  0  0  0  0  0  0  0  0  # atno 17321 bound_to 7965
  140.4017  144.2484  150.5893 LP  0  0  0  0  0  0  0  0  0  0  0  0  # atno 17342 bound_to 10162
  140.5050  143.2306  151.8621 LP  0  0  0  0  0  0  0  0  0  0  0  0  # atno 17343 bound_to 10162
  157.3758  131.0773  151.1519 LP  0  0  0  0  0  0  0  0  0  0  0  0  # atno 17370 bound_to 10713
  157.2258  130.6502  149.5829 LP  0  0  0  0  0  0  0  0  0  0  0  0  # atno 17371 bound_to 10713
  140.1403  134.9298  157.2457 LP  0  0  0  0  0  0  0  0  0  0  0  0  # atno 17394 bound_to 11000
  140.2845  134.3311  155.7333 LP  0  0  0  0  0  0  0  0  0  0  0  0  # atno 17395 bound_to 11000

$$$$
