AV-unprocessed.smi:338|AV-procd|sdf|2375|dock10
  -GOLD-   2262022293D 1   1.00000     0.00000
 Structure written by MMmdl.
 41 43  0  0  0  0  0  0  0  0  1 V2000
  151.2982  143.6143  157.5352 C   0  0  0  0  0  0  0  0  0  0  0  0
  151.4111  144.3730  158.8566 C   0  0  0  0  0  0  0  0  0  0  0  0
  150.9061  145.4923  158.9388 O   0  0  0  0  0  0  0  0  0  0  0  0
  152.1319  143.7097  159.9813 C   0  0  0  0  0  0  0  0  0  0  0  0
  152.2836  144.3396  161.2386 C   0  0  0  0  0  0  0  0  0  0  0  0
  152.9671  143.6881  162.2813 C   0  0  0  0  0  0  0  0  0  0  0  0
  153.5057  142.4048  162.0794 C   0  0  0  0  0  0  0  0  0  0  0  0
  153.3700  141.7561  160.8366 C   0  0  0  0  0  0  0  0  0  0  0  0
  153.9288  140.5008  160.7255 O   0  0  0  0  0  0  0  0  0  0  0  0
  153.3305  139.5712  159.8316 C   0  0  0  0  0  0  0  0  0  0  0  0
  154.2567  138.3555  159.6825 C   0  0  1  0  0  0  0  0  0  0  0  0
  155.1040  138.5697  158.5708 O   0  0  0  0  0  0  0  0  0  0  0  0
  155.1055  138.1037  160.9442 C   0  0  0  0  0  0  0  0  0  0  0  0
  155.1238  136.7048  161.3327 N   0  0  0  0  0  0  0  0  0  0  0  0
  155.3388  135.6415  160.5342 C   0  0  0  0  0  0  0  0  0  0  0  0
  155.3130  134.4387  161.1011 N   0  0  0  0  0  0  0  0  0  0  0  0
  155.0556  134.7584  162.4232 C   0  0  0  0  0  0  0  0  0  0  0  0
  154.9064  133.9267  163.5561 C   0  0  0  0  0  0  0  0  0  0  0  0
  154.6436  134.4865  164.8237 C   0  0  0  0  0  0  0  0  0  0  0  0
  154.5259  135.8831  164.9785 C   0  0  0  0  0  0  0  0  0  0  0  0
  154.6713  136.7323  163.8646 C   0  0  0  0  0  0  0  0  0  0  0  0
  154.9330  136.1696  162.6015 C   0  0  0  0  0  0  0  0  0  0  0  0
  152.6784  142.4185  159.7907 C   0  0  0  0  0  0  0  0  0  0  0  0
  152.2880  143.3969  157.1327 H   0  0  0  0  0  0  0  0  0  0  0  0
  150.7545  144.2079  156.7996 H   0  0  0  0  0  0  0  0  0  0  0  0
  150.7626  142.6757  157.6784 H   0  0  0  0  0  0  0  0  0  0  0  0
  151.8824  145.3240  161.4276 H   0  0  0  0  0  0  0  0  0  0  0  0
  153.0782  144.1744  163.2394 H   0  0  0  0  0  0  0  0  0  0  0  0
  154.0291  141.9135  162.8865 H   0  0  0  0  0  0  0  0  0  0  0  0
  152.3679  139.2510  160.2345 H   0  0  0  0  0  0  0  0  0  0  0  0
  153.1548  140.0291  158.8565 H   0  0  0  0  0  0  0  0  0  0  0  0
  153.6511  137.4744  159.4661 H   0  0  0  0  0  0  0  0  0  0  0  0
  156.0001  138.5573  158.8711 H   0  0  0  0  0  0  0  0  0  0  0  0
  156.1325  138.4361  160.7851 H   0  0  0  0  0  0  0  0  0  0  0  0
  154.7182  138.6823  161.7836 H   0  0  0  0  0  0  0  0  0  0  0  0
  155.5218  135.7571  159.4757 H   0  0  0  0  0  0  0  0  0  0  0  0
  154.9953  132.8557  163.4494 H   0  0  0  0  0  0  0  0  0  0  0  0
  154.5322  133.8405  165.6822 H   0  0  0  0  0  0  0  0  0  0  0  0
  154.3250  136.3024  165.9535 H   0  0  0  0  0  0  0  0  0  0  0  0
  154.5825  137.8025  163.9791 H   0  0  0  0  0  0  0  0  0  0  0  0
  152.5586  141.9425  158.8292 H   0  0  0  0  0  0  0  0  0  0  0  0
  1  2  1  0  0  0  0
  1 24  1  0  0  0  0
  1 25  1  0  0  0  0
  1 26  1  0  0  0  0
  2  3  2  0  0  0  0
  2  4  1  0  0  0  0
  4 23  1  0  0  0  0
  4  5  2  0  0  0  0
  5  6  1  0  0  0  0
  5 27  1  0  0  0  0
  6  7  2  0  0  0  0
  6 28  1  0  0  0  0
  7  8  1  0  0  0  0
  7 29  1  0  0  0  0
  8  9  1  0  0  0  0
  8 23  2  0  0  0  0
  9 10  1  0  0  0  0
 10 11  1  0  0  0  0
 10 30  1  0  0  0  0
 10 31  1  0  0  0  0
 11 12  1  0  0  0  0
 11 13  1  0  0  0  0
 11 32  1  0  0  0  0
 12 33  1  0  0  0  0
 13 14  1  0  0  0  0
 13 34  1  0  0  0  0
 13 35  1  0  0  0  0
 14 22  1  0  0  0  0
 14 15  1  0  0  0  0
 15 16  2  0  0  0  0
 15 36  1  0  0  0  0
 16 17  1  0  0  0  0
 17 22  2  0  0  0  0
 17 18  1  0  0  0  0
 18 19  2  0  0  0  0
 18 37  1  0  0  0  0
 19 20  1  0  0  0  0
 19 38  1  0  0  0  0
 20 21  2  0  0  0  0
 20 39  1  0  0  0  0
 21 22  1  0  0  0  0
 21 40  1  0  0  0  0
 23 41  1  0  0  0  0
M  END
> <s_m_source_file>
AV-unprocessed.smi

> <i_m_source_file_index>
338

> <i_lp_mmshare_version>
43012

> <i_f3d_flags>
0

> <s_epik_input>
W0NIM11DKD1PKWMxW2NIXVtjSF1bY0hdYyhbY0hdMSlPW0NIMl1bQ0BIXShbT0hdKVtDSDJdbihbY0hdbjIpYyhjMjMpW2NIXVtjSF1bY0hdW2NIXTM=

> <s_epik_cmdline>
J2VwaWtfcHl0aG9uJywgJy1waCcsICc3LjAnLCAnLXRuJywgJzgnLCAnLW1hJywgJzIwMCcsICctbWV0YWxfYmluZGluZycsICctaW1hZScsICc8aW5maWxlLm1hZT4nLCAnLW9tYWUnLCAnPG91dGZpbGUubWFlPic=

> <r_lp_tautomer_probability>
0.99995

> <r_epik_Ionization_Penalty>
0.0640132

> <r_epik_Ionization_Penalty_Charging>
0

> <r_epik_Ionization_Penalty_Neutral>
0.0640132

> <r_epik_State_Penalty>
0.0557325

> <r_epik_Charging_Adjusted_Penalty>
0.0557325

> <i_epik_Tot_Q>
0

> <i_epik_Tot_abs_Q>
0

> <r_epik_Metal_State_Penalty>
5.8435e-05

> <b_epik_Metal_Only>
0

> <s_lp_Force_Field>
OPLS_2005

> <r_lp_Energy>
20.9332

> <b_lp_Chiralities_Consistent>
1

> <s_lp_Variant>
AV-unprocessed.smi:338-2

> <Gold.Version>
5.8.1

> <Gold.Id.Protein>
6NUR|6NUR_protein|mol2

> <Gold.PLP.Fitness>
52.4378

> <Gold.PLP.PLP>
-52.4946

> <Gold.PLP.part.hbond>
-2.0000

> <Gold.PLP.part.metal>
0.0000

> <Gold.PLP.part.buried>
-3.4720

> <Gold.PLP.part.nonpolar>
-46.5999

> <Gold.PLP.part.repulsive>
0.1659

> <Gold.PLP.ligand.clash>
0.0000

> <Gold.PLP.ligand.torsion>
1.6020

> <Gold.PLP.Chemscore.Hbond>
1.0000

> <Gold.PLP.Chemscore.CHOScore>
0.0000

> <Gold.PLP.Chemscore.Metal>
0.0000

> <Gold.Chemscore.Hbonds>
donor molecule, donor type, donor heavy atom, donor atom, acceptor molecule, acceptor atom, score
      P1  H  7997  8008       L1    12  1.00

> <Gold.PLP.Chemscore.Internal.Correction>
0.1472

> <Gold.Rescore>
     Score         DG    S(hbond)    S(metal)    S(lipo)     H(rot)  DE(clash)    DE(int)     intcor
     17.58     -19.10       0.97        0.00     141.33       2.40       0.12       1.40       ----

> <Gold.Chemscore.Fitness>
17.5801

> <Gold.Chemscore.DG>
-19.0958

> <Gold.Chemscore.ZeroCoef>
-5.4800

> <Gold.Chemscore.Hbond>
0.9659

> <Gold.Chemscore.Metal>
0.0000

> <Gold.Chemscore.Lipo>
141.3252

> <Gold.Chemscore.Internal_Hbond>
0.0000

> <Gold.Chemscore.DEClash>
0.1178

> <Gold.Chemscore.DEInternal>
1.3980

> <Gold.Chemscore.Rot>
2.4005

> <Gold.Chemscore.Internal.Correction>
   9.000000E+99

> <Gold.Chemscore.Hbonds>
donor molecule, donor type, donor heavy atom, donor atom, acceptor molecule, acceptor atom, score
      P1  H  7997  8008       L1    12  0.44

> <Gold.Chemscore.Hbond.Weighted>
-3.2261

> <Gold.Chemscore.Metal.Weighted>
-0.0000

> <Gold.Chemscore.Lipo.Weighted>
-16.5351

> <Gold.Chemscore.Internal_Hbond.Weighted>
0.0000

> <Gold.Chemscore.DEClash.Weighted>
0.1178

> <Gold.Chemscore.DEInternal.Weighted>
1.3980

> <Gold.Chemscore.Rot.Weighted>
6.1453

> <Gold.Chemscore.Internal.Correction.Weighted>
   9.000000E+99

> <Gold.Protein.RotatedTorsions>
[ 6907 6896 6895 6894 ] final -112.15 input  -60.11 | X-H torsion
[ 7974 7965 7964 7962 ] final   28.27 input  175.53 | X-H torsion
[ 8008 7997 7996 7995 ] final -116.23 input   59.86 | X-H torsion
[ 10167 10162 10161 10158 ] final  121.89 input  -65.29 | X-H torsion
[ 10718 10713 10712 10709 ] final -150.77 input   66.30 | X-H torsion
[ 10763 10752 10751 10750 ] final   88.43 input  -60.55 | X-H torsion
[ 11005 11000 10999 10996 ] final  -70.01 input  -57.11 | X-H torsion

> <Gold.Protein.ActiveResidues>
 VAL166  LYS551  ARG553  GLY616  TRP617  ASP618  TYR619  PRO620  LYS621  CYS622 
 ASP623  PHE694  ASN695  SER759  ASP760  ASP761  ALA762  ILE779  LEU786  VAL792 
 PHE793  MET794  SER795  GLU796  ALA797  LYS798  CYS799  TRP800  GLU811  SER814 

> <Gold.Protein.RotatedAtoms>
  150.7739  133.9131  159.3375 H   0  0  0  0  0  0  0  0  0  0  0  0  # atno 6907 bound_to 6896
  151.7011  135.0928  160.0260 H   0  0  0  0  0  0  0  0  0  0  0  0  # atno 6908 bound_to 6896
  152.3767  133.6453  159.6165 H   0  0  0  0  0  0  0  0  0  0  0  0  # atno 6909 bound_to 6896
  146.1738  139.7079  142.8949 H   0  0  0  0  0  0  0  0  0  0  0  0  # atno 7974 bound_to 7965
  155.0646  140.0393  157.2588 H   0  0  0  0  0  0  0  0  0  0  0  0  # atno 8008 bound_to 7997
  154.7032  140.2677  155.6675 H   0  0  0  0  0  0  0  0  0  0  0  0  # atno 8009 bound_to 7997
  156.2767  140.2736  156.1649 H   0  0  0  0  0  0  0  0  0  0  0  0  # atno 8010 bound_to 7997
  139.5892  144.7018  151.3333 H   0  0  0  0  0  0  0  0  0  0  0  0  # atno 10167 bound_to 10162
  156.4504  130.8165  151.2396 H   0  0  0  0  0  0  0  0  0  0  0  0  # atno 10718 bound_to 10713
  153.1768  135.4507  154.9975 H   0  0  0  0  0  0  0  0  0  0  0  0  # atno 10763 bound_to 10752
  154.8003  135.3253  154.7568 H   0  0  0  0  0  0  0  0  0  0  0  0  # atno 10764 bound_to 10752
  153.8038  135.6960  153.4906 H   0  0  0  0  0  0  0  0  0  0  0  0  # atno 10765 bound_to 10752
  141.1565  133.6779  156.6687 H   0  0  0  0  0  0  0  0  0  0  0  0  # atno 11005 bound_to 11000
  145.4267  141.0411  143.2933 LP  0  0  0  0  0  0  0  0  0  0  0  0  # atno 17320 bound_to 7965
  144.8204  139.5802  143.6989 LP  0  0  0  0  0  0  0  0  0  0  0  0  # atno 17321 bound_to 7965
  140.7158  143.7270  150.7652 LP  0  0  0  0  0  0  0  0  0  0  0  0  # atno 17342 bound_to 10162
  140.0822  143.4958  152.2524 LP  0  0  0  0  0  0  0  0  0  0  0  0  # atno 17343 bound_to 10162
  157.7503  131.0139  150.3445 LP  0  0  0  0  0  0  0  0  0  0  0  0  # atno 17370 bound_to 10713
  156.3822  130.3882  149.7093 LP  0  0  0  0  0  0  0  0  0  0  0  0  # atno 17371 bound_to 10713
  140.3192  134.8022  157.4238 LP  0  0  0  0  0  0  0  0  0  0  0  0  # atno 17394 bound_to 11000
  140.1112  134.5343  155.8265 LP  0  0  0  0  0  0  0  0  0  0  0  0  # atno 17395 bound_to 11000

$$$$
