AV-unprocessed.smi:3200|AV-procd|sdf|12235|dock10
  -GOLD-   2272018 73D 1   1.00000     0.00000
 Structure written by MMmdl.
 38 39  0  0  0  0  0  0  0  0  2 V2000
  149.9545  136.6437  155.6859 C   0  0  0  0  0  0  0  0  0  0  0  0
  150.3597  138.0603  155.4588 C   0  0  0  0  0  0  0  0  0  0  0  0
  151.3551  138.3733  154.6378 N   0  0  0  0  0  0  0  0  0  0  0  0
  151.4036  139.7730  154.7060 O   0  0  0  0  0  0  0  0  0  0  0  0
  150.4354  140.1330  155.5822 C   0  0  0  0  0  0  0  0  0  0  0  0
  150.1991  141.5834  155.8398 C   0  0  0  0  0  0  0  0  0  0  0  0
  150.3817  141.9522  157.3176 C   0  0  0  0  0  0  0  0  0  0  0  0
  150.5897  143.4057  157.4787 N   0  3  0  0  0  0  0  0  0  0  0  0
  150.8168  143.8519  158.8721 C   0  0  2  0  0  0  0  0  0  0  0  0
  150.8166  145.3783  159.0357 C   0  0  0  0  0  0  0  0  0  0  0  0
  151.6692  145.6559  160.2807 C   0  0  0  0  0  0  0  0  0  0  0  0
  152.3080  144.3160  160.6761 C   0  0  0  0  0  0  0  0  0  0  0  0
  152.1692  143.3885  159.4551 C   0  0  0  0  0  0  0  0  0  0  0  0
  152.1336  141.9087  159.8804 C   0  0  0  0  0  0  0  0  0  0  0  0
  153.3526  143.6189  158.4863 C   0  0  0  0  0  0  0  0  0  0  0  0
  149.7390  139.1083  156.0671 N   0  0  0  0  0  0  0  0  0  0  0  0
  150.5536  135.9629  155.0800 H   0  0  0  0  0  0  0  0  0  0  0  0
  148.9055  136.5056  155.4233 H   0  0  0  0  0  0  0  0  0  0  0  0
  150.0868  136.3785  156.7348 H   0  0  0  0  0  0  0  0  0  0  0  0
  150.8855  142.1618  155.2198 H   0  0  0  0  0  0  0  0  0  0  0  0
  149.1901  141.8345  155.5100 H   0  0  0  0  0  0  0  0  0  0  0  0
  149.5038  141.6438  157.8864 H   0  0  0  0  0  0  0  0  0  0  0  0
  151.2388  141.4176  157.7297 H   0  0  0  0  0  0  0  0  0  0  0  0
  151.4016  143.6646  156.9364 H   0  0  0  0  0  0  0  0  0  0  0  0
  150.0176  143.4446  159.4948 H   0  0  0  0  0  0  0  0  0  0  0  0
  151.2739  145.8569  158.1686 H   0  0  0  0  0  0  0  0  0  0  0  0
  149.8071  145.7790  159.1340 H   0  0  0  0  0  0  0  0  0  0  0  0
  152.4357  146.3972  160.0526 H   0  0  0  0  0  0  0  0  0  0  0  0
  151.0664  146.0530  161.0981 H   0  0  0  0  0  0  0  0  0  0  0  0
  153.3414  144.4326  161.0057 H   0  0  0  0  0  0  0  0  0  0  0  0
  151.7536  143.9040  161.5207 H   0  0  0  0  0  0  0  0  0  0  0  0
  153.0646  141.6172  160.3678 H   0  0  0  0  0  0  0  0  0  0  0  0
  151.9926  141.2526  159.0207 H   0  0  0  0  0  0  0  0  0  0  0  0
  151.3216  141.7098  160.5806 H   0  0  0  0  0  0  0  0  0  0  0  0
  154.3017  143.3787  158.9666 H   0  0  0  0  0  0  0  0  0  0  0  0
  153.4142  144.6543  158.1508 H   0  0  0  0  0  0  0  0  0  0  0  0
  153.2766  142.9893  157.5995 H   0  0  0  0  0  0  0  0  0  0  0  0
  149.7876  143.8963  157.1095 H   0  0  0  0  0  0  0  0  0  0  0  0
  1  2  1  0  0  0  0
  1 17  1  0  0  0  0
  1 18  1  0  0  0  0
  1 19  1  0  0  0  0
  2 16  1  0  0  0  0
  2  3  2  0  0  0  0
  3  4  1  0  0  0  0
  4  5  1  0  0  0  0
  5  6  1  0  0  0  0
  5 16  2  0  0  0  0
  6  7  1  0  0  0  0
  6 20  1  0  0  0  0
  6 21  1  0  0  0  0
  7  8  1  0  0  0  0
  7 22  1  0  0  0  0
  7 23  1  0  0  0  0
  8  9  1  0  0  0  0
  8 24  1  0  0  0  0
  8 38  1  0  0  0  0
  9 13  1  0  0  0  0
  9 10  1  0  0  0  0
  9 25  1  0  0  0  0
 10 11  1  0  0  0  0
 10 26  1  0  0  0  0
 10 27  1  0  0  0  0
 11 12  1  0  0  0  0
 11 28  1  0  0  0  0
 11 29  1  0  0  0  0
 12 13  1  0  0  0  0
 12 30  1  0  0  0  0
 12 31  1  0  0  0  0
 13 14  1  0  0  0  0
 13 15  1  0  0  0  0
 14 32  1  0  0  0  0
 14 33  1  0  0  0  0
 14 34  1  0  0  0  0
 15 35  1  0  0  0  0
 15 36  1  0  0  0  0
 15 37  1  0  0  0  0
M  CHG  1   8   1
M  END
> <s_m_source_file>
AV-unprocessed.smi

> <i_m_source_file_index>
3200

> <i_lp_mmshare_version>
43012

> <i_f3d_flags>
0

> <s_epik_input>
W0NIM11jMW5vYyhuMSlbQ0gyXVtDSDJdW05IXVtDQEBIXShDMihbQ0gzXSlbQ0gzXSlbQ0gyXVtDSDJdW0NIMl0y

> <s_epik_cmdline>
J2VwaWtfcHl0aG9uJywgJy1waCcsICc3LjAnLCAnLXRuJywgJzgnLCAnLW1hJywgJzIwMCcsICctbWV0YWxfYmluZGluZycsICctaW1hZScsICc8aW5maWxlLm1hZT4nLCAnLW9tYWUnLCAnPG91dGZpbGUubWFlPic=

> <r_lp_tautomer_probability>
1

> <r_epik_Ionization_Penalty>
0.000953161

> <r_epik_Ionization_Penalty_Charging>
0.000953161

> <r_epik_Ionization_Penalty_Neutral>
4.23223e-13

> <r_epik_State_Penalty>
0.000619331

> <r_epik_Charging_Adjusted_Penalty>
0.00157249

> <i_epik_Tot_Q>
1

> <i_epik_Tot_abs_Q>
1

> <r_epik_Metal_State_Penalty>
-0

> <b_epik_Metal_Only>
0

> <s_lp_Force_Field>
OPLS_2005

> <r_lp_Energy>
25.4915

> <b_lp_Chiralities_Consistent>
1

> <s_lp_Variant>
AV-unprocessed.smi:3200-1

> <Gold.Version>
5.8.1

> <Gold.Id.Protein>
6NUR|6NUR_protein|mol2

> <Gold.PLP.Fitness>
42.9820

> <Gold.PLP.PLP>
-34.4353

> <Gold.PLP.part.hbond>
-1.9516

> <Gold.PLP.part.metal>
0.0000

> <Gold.PLP.part.buried>
-4.8271

> <Gold.PLP.part.nonpolar>
-26.9723

> <Gold.PLP.part.repulsive>
0.1594

> <Gold.PLP.ligand.clash>
0.0000

> <Gold.PLP.ligand.torsion>
0.1293

> <Gold.PLP.Chemscore.Hbond>
2.9280

> <Gold.PLP.Chemscore.CHOScore>
0.0000

> <Gold.PLP.Chemscore.Metal>
0.0000

> <Gold.Chemscore.Hbonds>
donor molecule, donor type, donor heavy atom, donor atom, acceptor molecule, acceptor atom, score
      L1  H     8    38       P1  8028  2.00
      P1  H  7989  7998       L1     4  1.00

> <Gold.PLP.Chemscore.Internal.Correction>
0.0213

> <Gold.Rescore>
     Score         DG    S(hbond)    S(metal)    S(lipo)     H(rot)  DE(clash)    DE(int)     intcor
     18.22     -18.43       1.91        0.00      95.27       1.79       0.01       0.20       ----

> <Gold.Chemscore.Fitness>
18.2226

> <Gold.Chemscore.DG>
-18.4317

> <Gold.Chemscore.ZeroCoef>
-5.4800

> <Gold.Chemscore.Hbond>
1.9105

> <Gold.Chemscore.Metal>
0.0000

> <Gold.Chemscore.Lipo>
95.2659

> <Gold.Chemscore.Internal_Hbond>
0.0000

> <Gold.Chemscore.DEClash>
0.0121

> <Gold.Chemscore.DEInternal>
0.1970

> <Gold.Chemscore.Rot>
1.7872

> <Gold.Chemscore.Internal.Correction>
   9.000000E+99

> <Gold.Chemscore.Hbonds>
donor molecule, donor type, donor heavy atom, donor atom, acceptor molecule, acceptor atom, score
      L1  H     8    38       P1  8028  0.81
      P1  H  7989  7998       L1     4  0.88

> <Gold.Chemscore.Hbond.Weighted>
-6.3809

> <Gold.Chemscore.Metal.Weighted>
-0.0000

> <Gold.Chemscore.Lipo.Weighted>
-11.1461

> <Gold.Chemscore.Internal_Hbond.Weighted>
0.0000

> <Gold.Chemscore.DEClash.Weighted>
0.0121

> <Gold.Chemscore.DEInternal.Weighted>
0.1970

> <Gold.Chemscore.Rot.Weighted>
4.5753

> <Gold.Chemscore.Internal.Correction.Weighted>
   9.000000E+99

> <Gold.Protein.RotatedTorsions>
[ 6907 6896 6895 6894 ] final -170.66 input  -60.11 | X-H torsion
[ 7974 7965 7964 7962 ] final  158.57 input  175.53 | X-H torsion
[ 8008 7997 7996 7995 ] final  -79.96 input   59.86 | X-H torsion
[ 10167 10162 10161 10158 ] final -162.92 input  -65.29 | X-H torsion
[ 10718 10713 10712 10709 ] final  -27.90 input   66.30 | X-H torsion
[ 10763 10752 10751 10750 ] final    4.80 input  -60.55 | X-H torsion
[ 11005 11000 10999 10996 ] final  175.40 input  -57.11 | X-H torsion

> <Gold.Protein.ActiveResidues>
 VAL166  LYS551  ARG553  GLY616  TRP617  ASP618  TYR619  PRO620  LYS621  CYS622 
 ASP623  PHE694  ASN695  SER759  ASP760  ASP761  ALA762  ILE779  LEU786  VAL792 
 PHE793  MET794  SER795  GLU796  ALA797  LYS798  CYS799  TRP800  GLU811  SER814 

> <Gold.Protein.RotatedAtoms>
  151.5112  133.3484  159.2885 H   0  0  0  0  0  0  0  0  0  0  0  0  # atno 6907 bound_to 6896
  150.8711  134.8087  159.7166 H   0  0  0  0  0  0  0  0  0  0  0  0  # atno 6908 bound_to 6896
  152.4699  134.4996  159.9772 H   0  0  0  0  0  0  0  0  0  0  0  0  # atno 6909 bound_to 6896
  144.7838  139.7496  143.6249 H   0  0  0  0  0  0  0  0  0  0  0  0  # atno 7974 bound_to 7965
  154.5836  140.0670  156.9139 H   0  0  0  0  0  0  0  0  0  0  0  0  # atno 8008 bound_to 7997
  155.2419  140.3345  155.4273 H   0  0  0  0  0  0  0  0  0  0  0  0  # atno 8009 bound_to 7997
  156.2207  140.1797  156.7469 H   0  0  0  0  0  0  0  0  0  0  0  0  # atno 8010 bound_to 7997
  139.6358  144.0353  152.2053 H   0  0  0  0  0  0  0  0  0  0  0  0  # atno 10167 bound_to 10162
  156.4321  130.4447  149.7110 H   0  0  0  0  0  0  0  0  0  0  0  0  # atno 10718 bound_to 10713
  153.2669  135.6928  153.7520 H   0  0  0  0  0  0  0  0  0  0  0  0  # atno 10763 bound_to 10752
  153.6558  135.3369  155.3114 H   0  0  0  0  0  0  0  0  0  0  0  0  # atno 10764 bound_to 10752
  154.8450  135.4465  154.1679 H   0  0  0  0  0  0  0  0  0  0  0  0  # atno 10765 bound_to 10752
  140.3618  134.7106  157.4336 H   0  0  0  0  0  0  0  0  0  0  0  0  # atno 11005 bound_to 11000
  146.2060  139.5385  142.9712 LP  0  0  0  0  0  0  0  0  0  0  0  0  # atno 17320 bound_to 7965
  145.5976  141.0360  143.2036 LP  0  0  0  0  0  0  0  0  0  0  0  0  # atno 17321 bound_to 7965
  140.0030  144.6279  150.7713 LP  0  0  0  0  0  0  0  0  0  0  0  0  # atno 17342 bound_to 10162
  140.7464  143.2890  151.3382 LP  0  0  0  0  0  0  0  0  0  0  0  0  # atno 17343 bound_to 10162
  156.4009  130.7674  151.2681 LP  0  0  0  0  0  0  0  0  0  0  0  0  # atno 17370 bound_to 10713
  157.7508  131.0240  150.3858 LP  0  0  0  0  0  0  0  0  0  0  0  0  # atno 17371 bound_to 10713
  140.0620  134.5982  155.8738 LP  0  0  0  0  0  0  0  0  0  0  0  0  # atno 17394 bound_to 11000
  141.1981  133.6600  156.5778 LP  0  0  0  0  0  0  0  0  0  0  0  0  # atno 17395 bound_to 11000

$$$$
