AV-unprocessed.smi:219|AV-procd|sdf|1678|dock2
  -GOLD-   2262020103D 1   1.00000     0.00000
 Structure written by MMmdl.
 50 53  0  0  0  0  0  0  0  0  1 V2000
  150.9946  138.6630  156.9580 N   0  0  0  0  0  0  0  0  0  0  0  0
  151.9424  139.5397  157.3002 C   0  0  0  0  0  0  0  0  0  0  0  0
  152.8013  139.9173  156.5064 O   0  0  0  0  0  0  0  0  0  0  0  0
  151.9180  140.0668  158.7421 C   0  0  0  0  0  0  0  0  0  0  0  0
  151.6525  141.5950  158.8921 C   0  0  2  0  0  0  0  0  0  0  0  0
  151.0758  142.1361  157.5634 C   0  0  0  0  0  0  0  0  0  0  0  0
  150.7976  143.6443  157.6247 C   0  0  0  0  0  0  0  0  0  0  0  0
  152.0688  144.3937  158.0371 C   0  0  0  0  0  0  0  0  0  0  0  0
  152.6045  143.8383  159.3630 C   0  0  0  0  0  0  0  0  0  0  0  0
  152.8323  142.3940  159.2811 N   0  0  0  0  0  0  0  0  0  0  0  0
  153.5438  141.9389  160.3372 C   0  0  0  0  0  0  0  0  0  0  0  0
  153.3986  142.5193  161.5578 N   0  0  0  0  0  0  0  0  0  0  0  0
  154.0655  142.0339  162.6093 C   0  0  0  0  0  0  0  0  0  0  0  0
  154.9034  140.9957  162.6601 N   0  0  0  0  0  0  0  0  0  0  0  0
  155.0521  140.4172  161.4337 C   0  0  0  0  0  0  0  0  0  0  0  0
  154.4238  140.8309  160.2270 C   0  0  0  0  0  0  0  0  0  0  0  0
  154.8127  140.0093  159.1772 N   0  0  0  0  0  0  0  0  0  0  0  0
  155.6224  139.1507  159.7340 C   0  0  0  0  0  0  0  0  0  0  0  0
  155.8078  139.3102  161.0895 N   0  0  0  0  0  0  0  0  0  0  0  0
  156.6256  138.4828  161.9618 C   0  0  0  0  0  0  0  0  0  0  0  0
  155.8689  137.9870  163.2166 C   0  0  1  0  0  0  0  0  0  0  0  0
  155.7047  139.0678  164.1188 O   0  0  0  0  0  0  0  0  0  0  0  0
  154.4931  137.3941  162.9211 C   0  0  0  0  0  0  0  0  0  0  0  0
  154.3525  136.3107  163.9812 C   0  0  0  0  0  0  0  0  0  0  0  0
  155.6607  135.7694  164.0395 O   0  0  0  0  0  0  0  0  0  0  0  0
  156.5938  136.8414  163.9516 C   0  0  0  0  0  0  0  0  0  0  0  0
  150.9663  138.2999  156.0161 H   0  0  0  0  0  0  0  0  0  0  0  0
  150.3038  138.3754  157.6359 H   0  0  0  0  0  0  0  0  0  0  0  0
  151.2085  139.5004  159.3472 H   0  0  0  0  0  0  0  0  0  0  0  0
  152.9024  139.8315  159.1478 H   0  0  0  0  0  0  0  0  0  0  0  0
  150.8929  141.7472  159.6607 H   0  0  0  0  0  0  0  0  0  0  0  0
  151.7761  141.9328  156.7517 H   0  0  0  0  0  0  0  0  0  0  0  0
  150.1532  141.6112  157.3128 H   0  0  0  0  0  0  0  0  0  0  0  0
  150.4457  144.0027  156.6570 H   0  0  0  0  0  0  0  0  0  0  0  0
  150.0009  143.8440  158.3424 H   0  0  0  0  0  0  0  0  0  0  0  0
  152.8282  144.2906  157.2608 H   0  0  0  0  0  0  0  0  0  0  0  0
  151.8625  145.4600  158.1333 H   0  0  0  0  0  0  0  0  0  0  0  0
  153.5342  144.3470  159.6231 H   0  0  0  0  0  0  0  0  0  0  0  0
  151.8908  144.0507  160.1604 H   0  0  0  0  0  0  0  0  0  0  0  0
  153.8971  142.5452  163.5455 H   0  0  0  0  0  0  0  0  0  0  0  0
  156.0996  138.3637  159.1684 H   0  0  0  0  0  0  0  0  0  0  0  0
  156.9869  137.6331  161.3810 H   0  0  0  0  0  0  0  0  0  0  0  0
  157.5092  139.0530  162.2523 H   0  0  0  0  0  0  0  0  0  0  0  0
  155.9842  139.8621  163.6898 H   0  0  0  0  0  0  0  0  0  0  0  0
  153.6828  138.1244  162.9403 H   0  0  0  0  0  0  0  0  0  0  0  0
  154.4896  136.9202  161.9388 H   0  0  0  0  0  0  0  0  0  0  0  0
  154.0844  136.7373  164.9489 H   0  0  0  0  0  0  0  0  0  0  0  0
  153.6133  135.5538  163.7176 H   0  0  0  0  0  0  0  0  0  0  0  0
  157.4820  136.4998  163.4191 H   0  0  0  0  0  0  0  0  0  0  0  0
  156.9076  137.1319  164.9558 H   0  0  0  0  0  0  0  0  0  0  0  0
  1  2  1  0  0  0  0
  1 27  1  0  0  0  0
  1 28  1  0  0  0  0
  2  3  2  0  0  0  0
  2  4  1  0  0  0  0
  4  5  1  0  0  0  0
  4 29  1  0  0  0  0
  4 30  1  0  0  0  0
  5 10  1  0  0  0  0
  5  6  1  0  0  0  0
  5 31  1  0  0  0  0
  6  7  1  0  0  0  0
  6 32  1  0  0  0  0
  6 33  1  0  0  0  0
  7  8  1  0  0  0  0
  7 34  1  0  0  0  0
  7 35  1  0  0  0  0
  8  9  1  0  0  0  0
  8 36  1  0  0  0  0
  8 37  1  0  0  0  0
  9 10  1  0  0  0  0
  9 38  1  0  0  0  0
  9 39  1  0  0  0  0
 10 11  1  0  0  0  0
 11 16  1  0  0  0  0
 11 12  2  0  0  0  0
 12 13  1  0  0  0  0
 13 14  2  0  0  0  0
 13 40  1  0  0  0  0
 14 15  1  0  0  0  0
 15 19  1  0  0  0  0
 15 16  2  0  0  0  0
 16 17  1  0  0  0  0
 17 18  2  0  0  0  0
 18 19  1  0  0  0  0
 18 41  1  0  0  0  0
 19 20  1  0  0  0  0
 20 21  1  0  0  0  0
 20 42  1  0  0  0  0
 20 43  1  0  0  0  0
 21 26  1  0  0  0  0
 21 22  1  0  0  0  0
 21 23  1  0  0  0  0
 22 44  1  0  0  0  0
 23 24  1  0  0  0  0
 23 45  1  0  0  0  0
 23 46  1  0  0  0  0
 24 25  1  0  0  0  0
 24 47  1  0  0  0  0
 24 48  1  0  0  0  0
 25 26  1  0  0  0  0
 26 49  1  0  0  0  0
 26 50  1  0  0  0  0
M  END
> <s_m_source_file>
AV-unprocessed.smi

> <i_m_source_file_index>
219

> <i_lp_mmshare_version>
43012

> <i_f3d_flags>
0

> <s_epik_input>
W05IMl1DKD1PKVtDSDJdW0NAQEhdMVtDSDJdW0NIMl1bQ0gyXVtDSDJdTjFjKG5bY0hdbjIpYyhjMjMpbltjSF1uM1tDSDJdW0NAQF00KFtPSF0pW0NIMl1bQ0gyXU9bQ0gyXTQ=

> <s_epik_cmdline>
J2VwaWtfcHl0aG9uJywgJy1waCcsICc3LjAnLCAnLXRuJywgJzgnLCAnLW1hJywgJzIwMCcsICctbWV0YWxfYmluZGluZycsICctaW1hZScsICc8aW5maWxlLm1hZT4nLCAnLW9tYWUnLCAnPG91dGZpbGUubWFlPic=

> <r_lp_tautomer_probability>
1

> <r_epik_Ionization_Penalty>
0.00228532

> <r_epik_Ionization_Penalty_Charging>
0

> <r_epik_Ionization_Penalty_Neutral>
0.00228532

> <r_epik_State_Penalty>
0.00140978

> <r_epik_Charging_Adjusted_Penalty>
0.00140978

> <i_epik_Tot_Q>
0

> <i_epik_Tot_abs_Q>
0

> <r_epik_Metal_State_Penalty>
-0

> <b_epik_Metal_Only>
0

> <s_lp_Force_Field>
OPLS_2005

> <r_lp_Energy>
33.2766

> <b_lp_Chiralities_Consistent>
1

> <s_lp_Variant>
AV-unprocessed.smi:219-1

> <Gold.Version>
5.8.1

> <Gold.Id.Protein>
6NUR|6NUR_protein|mol2

> <Gold.PLP.Fitness>
47.0916

> <Gold.PLP.PLP>
-44.8867

> <Gold.PLP.part.hbond>
-3.0000

> <Gold.PLP.part.metal>
0.0000

> <Gold.PLP.part.buried>
-1.7850

> <Gold.PLP.part.nonpolar>
-39.2372

> <Gold.PLP.part.repulsive>
0.1010

> <Gold.PLP.ligand.clash>
0.0053

> <Gold.PLP.ligand.torsion>
1.4661

> <Gold.PLP.Chemscore.Hbond>
1.5770

> <Gold.PLP.Chemscore.CHOScore>
0.0000

> <Gold.PLP.Chemscore.Metal>
0.0000

> <Gold.Chemscore.Hbonds>
donor molecule, donor type, donor heavy atom, donor atom, acceptor molecule, acceptor atom, score
      P1  H  7997  8008       L1     3  0.77
      P1  H  7997  8010       L1    17  0.82

> <Gold.PLP.Chemscore.Internal.Correction>
0.4114

> <Gold.Rescore>
     Score         DG    S(hbond)    S(metal)    S(lipo)     H(rot)  DE(clash)    DE(int)     intcor
     11.76     -13.61       1.47        0.00     101.18       3.37       0.20       1.64       ----

> <Gold.Chemscore.Fitness>
11.7605

> <Gold.Chemscore.DG>
-13.6061

> <Gold.Chemscore.ZeroCoef>
-5.4800

> <Gold.Chemscore.Hbond>
1.4712

> <Gold.Chemscore.Metal>
0.0000

> <Gold.Chemscore.Lipo>
101.1845

> <Gold.Chemscore.Internal_Hbond>
0.0000

> <Gold.Chemscore.DEClash>
0.2024

> <Gold.Chemscore.DEInternal>
1.6433

> <Gold.Chemscore.Rot>
3.3697

> <Gold.Chemscore.Internal.Correction>
   9.000000E+99

> <Gold.Chemscore.Hbonds>
donor molecule, donor type, donor heavy atom, donor atom, acceptor molecule, acceptor atom, score
      P1  H  7997  8008       L1     3  0.76
      P1  H  7997  8010       L1    17  0.28

> <Gold.Chemscore.Hbond.Weighted>
-4.9139

> <Gold.Chemscore.Metal.Weighted>
-0.0000

> <Gold.Chemscore.Lipo.Weighted>
-11.8386

> <Gold.Chemscore.Internal_Hbond.Weighted>
0.0000

> <Gold.Chemscore.DEClash.Weighted>
0.2024

> <Gold.Chemscore.DEInternal.Weighted>
1.6433

> <Gold.Chemscore.Rot.Weighted>
8.6264

> <Gold.Chemscore.Internal.Correction.Weighted>
   9.000000E+99

> <Gold.Protein.RotatedTorsions>
[ 6907 6896 6895 6894 ] final -125.71 input  -60.11 | X-H torsion
[ 7974 7965 7964 7962 ] final  -82.71 input  175.53 | X-H torsion
[ 8008 7997 7996 7995 ] final  -21.80 input   59.86 | X-H torsion
[ 10167 10162 10161 10158 ] final  -10.64 input  -65.29 | X-H torsion
[ 10718 10713 10712 10709 ] final   55.76 input   66.30 | X-H torsion
[ 10763 10752 10751 10750 ] final -176.77 input  -60.55 | X-H torsion
[ 11005 11000 10999 10996 ] final   58.91 input  -57.11 | X-H torsion

> <Gold.Protein.ActiveResidues>
 VAL166  LYS551  ARG553  GLY616  TRP617  ASP618  TYR619  PRO620  LYS621  CYS622 
 ASP623  PHE694  ASN695  SER759  ASP760  ASP761  ALA762  ILE779  LEU786  VAL792 
 PHE793  MET794  SER795  GLU796  ALA797  LYS798  CYS799  TRP800  GLU811  SER814 

> <Gold.Protein.RotatedAtoms>
  150.8895  133.7262  159.2908 H   0  0  0  0  0  0  0  0  0  0  0  0  # atno 6907 bound_to 6896
  151.4817  135.1051  159.9789 H   0  0  0  0  0  0  0  0  0  0  0  0  # atno 6908 bound_to 6896
  152.4811  133.8210  159.7109 H   0  0  0  0  0  0  0  0  0  0  0  0  # atno 6909 bound_to 6896
  145.5296  140.9522  143.1610 H   0  0  0  0  0  0  0  0  0  0  0  0  # atno 7974 bound_to 7965
  154.4683  140.2025  156.0061 H   0  0  0  0  0  0  0  0  0  0  0  0  # atno 8008 bound_to 7997
  156.0966  140.3250  155.7856 H   0  0  0  0  0  0  0  0  0  0  0  0  # atno 8009 bound_to 7997
  155.4868  140.0543  157.2950 H   0  0  0  0  0  0  0  0  0  0  0  0  # atno 8010 bound_to 7997
  140.7119  143.5726  150.9076 H   0  0  0  0  0  0  0  0  0  0  0  0  # atno 10167 bound_to 10162
  157.5373  130.8672  149.8771 H   0  0  0  0  0  0  0  0  0  0  0  0  # atno 10718 bound_to 10713
  154.5683  135.2826  155.0852 H   0  0  0  0  0  0  0  0  0  0  0  0  # atno 10763 bound_to 10752
  154.2234  135.6387  153.5156 H   0  0  0  0  0  0  0  0  0  0  0  0  # atno 10764 bound_to 10752
  153.0050  135.5520  154.6299 H   0  0  0  0  0  0  0  0  0  0  0  0  # atno 10765 bound_to 10752
  140.0343  134.5967  155.9465 H   0  0  0  0  0  0  0  0  0  0  0  0  # atno 11005 bound_to 11000
  144.7633  139.6906  143.7225 LP  0  0  0  0  0  0  0  0  0  0  0  0  # atno 17320 bound_to 7965
  146.2052  139.5372  142.9717 LP  0  0  0  0  0  0  0  0  0  0  0  0  # atno 17321 bound_to 7965
  139.9452  143.6335  152.3043 LP  0  0  0  0  0  0  0  0  0  0  0  0  # atno 17342 bound_to 10162
  139.6834  144.7653  151.1567 LP  0  0  0  0  0  0  0  0  0  0  0  0  # atno 17343 bound_to 10162
  156.0469  130.3726  150.1297 LP  0  0  0  0  0  0  0  0  0  0  0  0  # atno 17370 bound_to 10713
  156.9478  130.9765  151.3504 LP  0  0  0  0  0  0  0  0  0  0  0  0  # atno 17371 bound_to 10713
  141.1848  133.6553  156.5173 LP  0  0  0  0  0  0  0  0  0  0  0  0  # atno 17394 bound_to 11000
  140.4174  134.7218  157.4871 LP  0  0  0  0  0  0  0  0  0  0  0  0  # atno 17395 bound_to 11000

$$$$
