AV-unprocessed.smi:213|AV-procd|sdf|1634|dock8
  -GOLD-   2262019593D 1   1.00000     0.00000
 Structure written by MMmdl.
 59 62  0  0  0  0  0  0  0  0  2 V2000
  149.0096  132.6661  154.1737 C   0  0  0  0  0  0  0  0  0  0  0  0
  149.0667  134.1807  154.4472 C   0  0  1  0  0  0  0  0  0  0  0  0
  147.6672  134.8374  154.3953 C   0  0  0  0  0  0  0  0  0  0  0  0
  147.1819  135.0366  153.0068 N   0  3  0  0  0  0  0  0  0  0  0  0
  146.9337  133.7568  152.3018 C   0  0  0  0  0  0  0  0  0  0  0  0
  146.4827  134.0182  150.8545 C   0  0  0  0  0  0  0  0  0  0  0  0
  145.3205  134.8376  150.8577 O   0  0  0  0  0  0  0  0  0  0  0  0
  145.5651  136.1054  151.4537 C   0  0  0  0  0  0  0  0  0  0  0  0
  145.9886  135.9151  152.9200 C   0  0  0  0  0  0  0  0  0  0  0  0
  149.7439  134.4594  155.7211 N   0  0  0  0  0  0  0  0  0  0  0  0
  150.0166  133.3699  156.6562 C   0  0  0  0  0  0  0  0  0  0  0  0
  149.7280  135.7217  156.2367 C   0  0  0  0  0  0  0  0  0  0  0  0
  148.8246  136.0358  157.2051 N   0  0  0  0  0  0  0  0  0  0  0  0
  148.7907  137.2605  157.7370 C   0  0  0  0  0  0  0  0  0  0  0  0
  149.5563  138.3136  157.4522 N   0  0  0  0  0  0  0  0  0  0  0  0
  150.4630  138.0146  156.4789 C   0  0  0  0  0  0  0  0  0  0  0  0
  150.6162  136.7596  155.8222 C   0  0  0  0  0  0  0  0  0  0  0  0
  151.6368  136.8497  154.8808 N   0  0  0  0  0  0  0  0  0  0  0  0
  152.0738  138.0738  154.9917 C   0  0  0  0  0  0  0  0  0  0  0  0
  151.4301  138.8413  155.9343 N   0  0  0  0  0  0  0  0  0  0  0  0
  151.7138  140.2261  156.2733 C   0  0  0  0  0  0  0  0  0  0  0  0
  150.5457  140.9559  156.9747 C   0  0  2  0  0  0  0  0  0  0  0  0
  149.5913  141.4045  156.0315 O   0  0  0  0  0  0  0  0  0  0  0  0
  150.9583  142.1096  157.9179 C   0  0  2  0  0  0  0  0  0  0  0  0
  151.5550  143.3447  157.2420 C   0  0  0  0  0  0  0  0  0  0  0  0
  152.2515  144.0088  158.4090 C   0  0  0  0  0  0  0  0  0  0  0  0
  152.7906  142.8095  159.1866 C   0  0  0  0  0  0  0  0  0  0  0  0
  151.9187  141.7210  158.8959 O   0  0  0  0  0  0  0  0  0  0  0  0
  148.6211  132.4607  153.1762 H   0  0  0  0  0  0  0  0  0  0  0  0
  148.3710  132.1441  154.8863 H   0  0  0  0  0  0  0  0  0  0  0  0
  150.0041  132.2224  154.2307 H   0  0  0  0  0  0  0  0  0  0  0  0
  149.6833  134.5924  153.6494 H   0  0  0  0  0  0  0  0  0  0  0  0
  146.9629  134.2042  154.9365 H   0  0  0  0  0  0  0  0  0  0  0  0
  147.6653  135.7976  154.9133 H   0  0  0  0  0  0  0  0  0  0  0  0
  147.8421  133.1533  152.2968 H   0  0  0  0  0  0  0  0  0  0  0  0
  146.1714  133.1866  152.8351 H   0  0  0  0  0  0  0  0  0  0  0  0
  147.2774  134.4949  150.2782 H   0  0  0  0  0  0  0  0  0  0  0  0
  146.2500  133.0765  150.3574 H   0  0  0  0  0  0  0  0  0  0  0  0
  146.3311  136.6435  150.8928 H   0  0  0  0  0  0  0  0  0  0  0  0
  144.6540  136.7013  151.4001 H   0  0  0  0  0  0  0  0  0  0  0  0
  145.1674  135.4748  153.4881 H   0  0  0  0  0  0  0  0  0  0  0  0
  146.1958  136.8881  153.3640 H   0  0  0  0  0  0  0  0  0  0  0  0
  149.6535  133.6047  157.6578 H   0  0  0  0  0  0  0  0  0  0  0  0
  151.0890  133.1826  156.7122 H   0  0  0  0  0  0  0  0  0  0  0  0
  149.5342  132.4431  156.3485 H   0  0  0  0  0  0  0  0  0  0  0  0
  148.0443  137.4192  158.5012 H   0  0  0  0  0  0  0  0  0  0  0  0
  152.8868  138.4514  154.3889 H   0  0  0  0  0  0  0  0  0  0  0  0
  152.6019  140.2463  156.9060 H   0  0  0  0  0  0  0  0  0  0  0  0
  151.9821  140.7571  155.3595 H   0  0  0  0  0  0  0  0  0  0  0  0
  150.0299  140.2136  157.5846 H   0  0  0  0  0  0  0  0  0  0  0  0
  150.0226  141.5188  155.1988 H   0  0  0  0  0  0  0  0  0  0  0  0
  150.0737  142.4290  158.4716 H   0  0  0  0  0  0  0  0  0  0  0  0
  152.2883  143.0684  156.4838 H   0  0  0  0  0  0  0  0  0  0  0  0
  150.8021  143.9804  156.7758 H   0  0  0  0  0  0  0  0  0  0  0  0
  153.0324  144.7059  158.1048 H   0  0  0  0  0  0  0  0  0  0  0  0
  151.5256  144.5525  159.0151 H   0  0  0  0  0  0  0  0  0  0  0  0
  153.7922  142.5491  158.8431 H   0  0  0  0  0  0  0  0  0  0  0  0
  152.8391  143.0005  160.2586 H   0  0  0  0  0  0  0  0  0  0  0  0
  147.9278  135.4956  152.5037 H   0  0  0  0  0  0  0  0  0  0  0  0
  1  2  1  0  0  0  0
  1 29  1  0  0  0  0
  1 30  1  0  0  0  0
  1 31  1  0  0  0  0
  2  3  1  0  0  0  0
  2 10  1  0  0  0  0
  2 32  1  0  0  0  0
  3  4  1  0  0  0  0
  3 33  1  0  0  0  0
  3 34  1  0  0  0  0
  4  9  1  0  0  0  0
  4  5  1  0  0  0  0
  4 59  1  0  0  0  0
  5  6  1  0  0  0  0
  5 35  1  0  0  0  0
  5 36  1  0  0  0  0
  6  7  1  0  0  0  0
  6 37  1  0  0  0  0
  6 38  1  0  0  0  0
  7  8  1  0  0  0  0
  8  9  1  0  0  0  0
  8 39  1  0  0  0  0
  8 40  1  0  0  0  0
  9 41  1  0  0  0  0
  9 42  1  0  0  0  0
 10 11  1  0  0  0  0
 10 12  1  0  0  0  0
 11 43  1  0  0  0  0
 11 44  1  0  0  0  0
 11 45  1  0  0  0  0
 12 17  1  0  0  0  0
 12 13  2  0  0  0  0
 13 14  1  0  0  0  0
 14 15  2  0  0  0  0
 14 46  1  0  0  0  0
 15 16  1  0  0  0  0
 16 20  1  0  0  0  0
 16 17  2  0  0  0  0
 17 18  1  0  0  0  0
 18 19  2  0  0  0  0
 19 20  1  0  0  0  0
 19 47  1  0  0  0  0
 20 21  1  0  0  0  0
 21 22  1  0  0  0  0
 21 48  1  0  0  0  0
 21 49  1  0  0  0  0
 22 23  1  0  0  0  0
 22 24  1  0  0  0  0
 22 50  1  0  0  0  0
 23 51  1  0  0  0  0
 24 28  1  0  0  0  0
 24 25  1  0  0  0  0
 24 52  1  0  0  0  0
 25 26  1  0  0  0  0
 25 53  1  0  0  0  0
 25 54  1  0  0  0  0
 26 27  1  0  0  0  0
 26 55  1  0  0  0  0
 26 56  1  0  0  0  0
 27 28  1  0  0  0  0
 27 57  1  0  0  0  0
 27 58  1  0  0  0  0
M  CHG  1   4   1
M  END
> <s_m_source_file>
AV-unprocessed.smi

> <i_m_source_file_index>
213

> <i_lp_mmshare_version>
43012

> <i_f3d_flags>
0

> <s_epik_input>
W0NIMl0xW0NIMl1PW0NIMl1bQ0gyXU4xW0NIMl1bQ0BASF0oW0NIM10pTihbQ0gzXSljKG5bY0hdbjIpYyhjMjMpbltjSF1uM1tDSDJdW0NASF0oW09IXSlbQ0BASF00W0NIMl1bQ0gyXVtDSDJdTzQ=

> <s_epik_cmdline>
J2VwaWtfcHl0aG9uJywgJy1waCcsICc3LjAnLCAnLXRuJywgJzgnLCAnLW1hJywgJzIwMCcsICctbWV0YWxfYmluZGluZycsICctaW1hZScsICc8aW5maWxlLm1hZT4nLCAnLW9tYWUnLCAnPG91dGZpbGUubWFlPic=

> <r_lp_tautomer_probability>
1

> <r_epik_Ionization_Penalty>
0.399679

> <r_epik_Ionization_Penalty_Charging>
0.399433

> <r_epik_Ionization_Penalty_Neutral>
0.000246213

> <r_epik_State_Penalty>
0.286032

> <r_epik_Charging_Adjusted_Penalty>
0.685465

> <i_epik_Tot_Q>
1

> <i_epik_Tot_abs_Q>
1

> <r_epik_Metal_State_Penalty>
0.286072

> <b_epik_Metal_Only>
0

> <s_lp_Force_Field>
OPLS_2005

> <r_lp_Energy>
46.153

> <b_lp_Chiralities_Consistent>
1

> <s_lp_Variant>
AV-unprocessed.smi:213-2

> <Gold.Version>
5.8.1

> <Gold.Id.Protein>
6NUR|6NUR_protein|mol2

> <Gold.PLP.Fitness>
51.2432

> <Gold.PLP.PLP>
-46.0470

> <Gold.PLP.part.hbond>
-2.0000

> <Gold.PLP.part.metal>
0.0000

> <Gold.PLP.part.buried>
-6.4966

> <Gold.PLP.part.nonpolar>
-37.7422

> <Gold.PLP.part.repulsive>
0.3127

> <Gold.PLP.ligand.clash>
0.0000

> <Gold.PLP.ligand.torsion>
2.3496

> <Gold.PLP.Chemscore.Hbond>
3.0000

> <Gold.PLP.Chemscore.CHOScore>
0.0000

> <Gold.PLP.Chemscore.Metal>
0.0000

> <Gold.Chemscore.Hbonds>
donor molecule, donor type, donor heavy atom, donor atom, acceptor molecule, acceptor atom, score
      L1  H     4    59       P1  7948  1.33
      P1  H 10752 10765       L1    18  1.00

> <Gold.PLP.Chemscore.Internal.Correction>
0.8955

> <Gold.Rescore>
     Score         DG    S(hbond)    S(metal)    S(lipo)     H(rot)  DE(clash)    DE(int)     intcor
     12.20     -15.95       1.94        0.00      95.92       2.83       0.08       3.67       ----

> <Gold.Chemscore.Fitness>
12.1961

> <Gold.Chemscore.DG>
-15.9482

> <Gold.Chemscore.ZeroCoef>
-5.4800

> <Gold.Chemscore.Hbond>
1.9396

> <Gold.Chemscore.Metal>
0.0000

> <Gold.Chemscore.Lipo>
95.9216

> <Gold.Chemscore.Internal_Hbond>
0.0000

> <Gold.Chemscore.DEClash>
0.0811

> <Gold.Chemscore.DEInternal>
3.6710

> <Gold.Chemscore.Rot>
2.8254

> <Gold.Chemscore.Internal.Correction>
   9.000000E+99

> <Gold.Chemscore.Hbonds>
donor molecule, donor type, donor heavy atom, donor atom, acceptor molecule, acceptor atom, score
      L1  H     4    59       P1  7948  0.67
      P1  H 10752 10765       L1    18  0.85

> <Gold.Chemscore.Hbond.Weighted>
-6.4783

> <Gold.Chemscore.Metal.Weighted>
-0.0000

> <Gold.Chemscore.Lipo.Weighted>
-11.2228

> <Gold.Chemscore.Internal_Hbond.Weighted>
0.0000

> <Gold.Chemscore.DEClash.Weighted>
0.0811

> <Gold.Chemscore.DEInternal.Weighted>
3.6710

> <Gold.Chemscore.Rot.Weighted>
7.2330

> <Gold.Chemscore.Internal.Correction.Weighted>
   9.000000E+99

> <Gold.Protein.RotatedTorsions>
[ 6907 6896 6895 6894 ] final  -89.50 input  -60.11 | X-H torsion
[ 7974 7965 7964 7962 ] final  -20.60 input  175.53 | X-H torsion
[ 8008 7997 7996 7995 ] final   20.60 input   59.86 | X-H torsion
[ 10167 10162 10161 10158 ] final   32.19 input  -65.29 | X-H torsion
[ 10718 10713 10712 10709 ] final  -55.93 input   66.30 | X-H torsion
[ 10763 10752 10751 10750 ] final  166.55 input  -60.55 | X-H torsion
[ 11005 11000 10999 10996 ] final  104.91 input  -57.11 | X-H torsion

> <Gold.Protein.ActiveResidues>
 VAL166  LYS551  ARG553  GLY616  TRP617  ASP618  TYR619  PRO620  LYS621  CYS622 
 ASP623  PHE694  ASN695  SER759  ASP760  ASP761  ALA762  ILE779  LEU786  VAL792 
 PHE793  MET794  SER795  GLU796  ALA797  LYS798  CYS799  TRP800  GLU811  SER814 

> <Gold.Protein.RotatedAtoms>
  150.6874  134.2577  159.4536 H   0  0  0  0  0  0  0  0  0  0  0  0  # atno 6907 bound_to 6896
  152.0509  134.9651  160.0584 H   0  0  0  0  0  0  0  0  0  0  0  0  # atno 6908 bound_to 6896
  152.1116  133.4269  159.4670 H   0  0  0  0  0  0  0  0  0  0  0  0  # atno 6909 bound_to 6896
  146.1779  140.4225  142.8506 H   0  0  0  0  0  0  0  0  0  0  0  0  # atno 7974 bound_to 7965
  154.9381  140.3049  155.5134 H   0  0  0  0  0  0  0  0  0  0  0  0  # atno 8008 bound_to 7997
  156.2998  140.2341  156.4384 H   0  0  0  0  0  0  0  0  0  0  0  0  # atno 8009 bound_to 7997
  154.8172  140.0425  157.1374 H   0  0  0  0  0  0  0  0  0  0  0  0  # atno 8010 bound_to 7997
  140.4521  144.1033  150.6194 H   0  0  0  0  0  0  0  0  0  0  0  0  # atno 10167 bound_to 10162
  156.1329  130.4158  150.0237 H   0  0  0  0  0  0  0  0  0  0  0  0  # atno 10718 bound_to 10713
  154.3407  135.2754  155.2424 H   0  0  0  0  0  0  0  0  0  0  0  0  # atno 10763 bound_to 10752
  154.4695  135.5886  153.6315 H   0  0  0  0  0  0  0  0  0  0  0  0  # atno 10764 bound_to 10752
  152.9858  135.6085  154.3608 H   0  0  0  0  0  0  0  0  0  0  0  0  # atno 10765 bound_to 10752
  139.8796  134.9317  156.5434 H   0  0  0  0  0  0  0  0  0  0  0  0  # atno 11005 bound_to 11000
  144.8266  140.6639  143.6318 LP  0  0  0  0  0  0  0  0  0  0  0  0  # atno 17320 bound_to 7965
  145.4159  139.1572  143.4100 LP  0  0  0  0  0  0  0  0  0  0  0  0  # atno 17321 bound_to 7965
  140.4195  143.2618  151.9733 LP  0  0  0  0  0  0  0  0  0  0  0  0  # atno 17342 bound_to 10162
  139.4797  144.5843  151.7879 LP  0  0  0  0  0  0  0  0  0  0  0  0  # atno 17343 bound_to 10162
  156.8144  130.9336  151.3643 LP  0  0  0  0  0  0  0  0  0  0  0  0  # atno 17370 bound_to 10713
  157.6505  130.8880  149.9623 LP  0  0  0  0  0  0  0  0  0  0  0  0  # atno 17371 bound_to 10713
  140.8293  133.8291  155.8969 LP  0  0  0  0  0  0  0  0  0  0  0  0  # atno 17394 bound_to 11000
  140.9344  134.1981  157.4842 LP  0  0  0  0  0  0  0  0  0  0  0  0  # atno 17395 bound_to 11000

$$$$
