AV-unprocessed.smi:1986|AV-procd|sdf|8052|dock4
  -GOLD-   2272010253D 1   1.00000     0.00000
 Structure written by MMmdl.
 48 49  0  0  0  0  0  0  0  0  2 V2000
  149.7498  140.2354  155.1767 C   0  0  0  0  0  0  0  0  0  0  0  0
  149.1415  138.8438  154.9278 C   0  0  0  0  0  0  0  0  0  0  0  0
  150.0543  137.6278  155.2735 C   0  0  1  0  0  0  0  0  0  0  0  0
  151.4185  137.7987  154.5552 C   0  0  0  0  0  0  0  0  0  0  0  0
  150.3261  137.6025  156.8134 C   0  0  0  0  0  0  0  0  0  0  0  0
  149.1124  137.5091  157.6229 N   0  0  0  0  0  0  0  0  0  0  0  0
  148.9799  136.8310  158.7716 C   0  0  0  0  0  0  0  0  0  0  0  0
  149.9120  136.2649  159.3417 O   0  0  0  0  0  0  0  0  0  0  0  0
  147.5647  136.7728  159.3575 C   0  0  0  0  0  0  0  0  0  0  0  0
  147.4593  135.7769  160.4328 N   0  0  0  0  0  0  0  0  0  0  0  0
  147.7318  134.4777  160.0333 N   0  0  0  0  0  0  0  0  0  0  0  0
  147.6639  133.5130  160.8874 C   0  0  0  0  0  0  0  0  0  0  0  0
  147.9398  132.2412  160.4494 O   0  0  0  0  0  0  0  0  0  0  0  0
  147.3081  133.7590  162.2677 C   0  0  0  0  0  0  0  0  0  0  0  0
  147.0487  135.0288  162.6492 C   0  0  0  0  0  0  0  0  0  0  0  0
  147.1179  136.1464  161.7067 C   0  0  0  0  0  0  0  0  0  0  0  0
  146.8861  137.3135  162.0257 O   0  0  0  0  0  0  0  0  0  0  0  0
  149.4174  136.3306  154.8335 N   0  3  0  0  0  0  0  0  0  0  0  0
  150.1729  135.0922  155.1730 C   0  0  0  0  0  0  0  0  0  0  0  0
  149.5457  133.8777  154.4712 C   0  0  0  0  0  0  0  0  0  0  0  0
  148.1923  133.7461  154.8820 O   0  0  0  0  0  0  0  0  0  0  0  0
  147.4169  134.8786  154.5140 C   0  0  0  0  0  0  0  0  0  0  0  0
  147.9797  136.1450  155.1836 C   0  0  0  0  0  0  0  0  0  0  0  0
  148.7293  132.3186  159.9359 H   0  0  0  0  0  0  0  0  0  0  0  0
  149.0348  141.0135  154.9085 H   0  0  0  0  0  0  0  0  0  0  0  0
  150.6442  140.4032  154.5775 H   0  0  0  0  0  0  0  0  0  0  0  0
  150.0094  140.3854  156.2243 H   0  0  0  0  0  0  0  0  0  0  0  0
  148.2166  138.7906  155.5014 H   0  0  0  0  0  0  0  0  0  0  0  0
  148.8432  138.8003  153.8807 H   0  0  0  0  0  0  0  0  0  0  0  0
  152.0297  138.5713  155.0222 H   0  0  0  0  0  0  0  0  0  0  0  0
  151.2986  138.0919  153.5119 H   0  0  0  0  0  0  0  0  0  0  0  0
  152.0023  136.8780  154.5730 H   0  0  0  0  0  0  0  0  0  0  0  0
  151.0108  136.7960  157.0809 H   0  0  0  0  0  0  0  0  0  0  0  0
  150.8382  138.5151  157.1189 H   0  0  0  0  0  0  0  0  0  0  0  0
  148.2885  137.9606  157.2524 H   0  0  0  0  0  0  0  0  0  0  0  0
  147.3077  137.7677  159.7255 H   0  0  0  0  0  0  0  0  0  0  0  0
  146.8354  136.5503  158.5758 H   0  0  0  0  0  0  0  0  0  0  0  0
  147.2547  132.9395  162.9694 H   0  0  0  0  0  0  0  0  0  0  0  0
  146.7818  135.2259  163.6772 H   0  0  0  0  0  0  0  0  0  0  0  0
  151.2164  135.1619  154.8712 H   0  0  0  0  0  0  0  0  0  0  0  0
  150.1623  134.9255  156.2502 H   0  0  0  0  0  0  0  0  0  0  0  0
  149.6074  133.9764  153.3859 H   0  0  0  0  0  0  0  0  0  0  0  0
  150.0843  132.9689  154.7399 H   0  0  0  0  0  0  0  0  0  0  0  0
  147.3994  134.9836  153.4286 H   0  0  0  0  0  0  0  0  0  0  0  0
  146.3865  134.7153  154.8306 H   0  0  0  0  0  0  0  0  0  0  0  0
  147.8619  136.0653  156.2643 H   0  0  0  0  0  0  0  0  0  0  0  0
  147.3716  136.9853  154.8541 H   0  0  0  0  0  0  0  0  0  0  0  0
  149.4305  136.3790  153.8241 H   0  0  0  0  0  0  0  0  0  0  0  0
  1  2  1  0  0  0  0
  1 25  1  0  0  0  0
  1 26  1  0  0  0  0
  1 27  1  0  0  0  0
  2  3  1  0  0  0  0
  2 28  1  0  0  0  0
  2 29  1  0  0  0  0
  3  4  1  0  0  0  0
  3  5  1  0  0  0  0
  3 18  1  0  0  0  0
  4 30  1  0  0  0  0
  4 31  1  0  0  0  0
  4 32  1  0  0  0  0
  5  6  1  0  0  0  0
  5 33  1  0  0  0  0
  5 34  1  0  0  0  0
  6  7  1  0  0  0  0
  6 35  1  0  0  0  0
  7  8  2  0  0  0  0
  7  9  1  0  0  0  0
  9 36  1  0  0  0  0
  9 37  1  0  0  0  0
  9 10  1  0  0  0  0
 10 11  1  0  0  0  0
 10 16  1  0  0  0  0
 11 12  2  0  0  0  0
 12 13  1  0  0  0  0
 12 14  1  0  0  0  0
 13 24  1  0  0  0  0
 14 38  1  0  0  0  0
 14 15  2  0  0  0  0
 15 39  1  0  0  0  0
 15 16  1  0  0  0  0
 16 17  2  0  0  0  0
 18 23  1  0  0  0  0
 18 19  1  0  0  0  0
 18 48  1  0  0  0  0
 19 20  1  0  0  0  0
 19 40  1  0  0  0  0
 19 41  1  0  0  0  0
 20 21  1  0  0  0  0
 20 42  1  0  0  0  0
 20 43  1  0  0  0  0
 21 22  1  0  0  0  0
 22 23  1  0  0  0  0
 22 44  1  0  0  0  0
 22 45  1  0  0  0  0
 23 46  1  0  0  0  0
 23 47  1  0  0  0  0
M  CHG  1  18   1
M  END
> <s_m_source_file>
AV-unprocessed.smi

> <i_m_source_file_index>
1986

> <i_lp_mmshare_version>
43012

> <i_f3d_flags>
0

> <s_epik_input>
W0NIMl0xW0NIMl1PW0NIMl1bQ0gyXU4xW0NAQF0oW0NIM10pKFtDSDJdW0NIM10pW0NIMl1bTkhdQyg9TylbQ0gyXW4yW25IXWMoPU8pW2NIXVtjSF1jMj1P

> <s_epik_cmdline>
J2VwaWtfcHl0aG9uJywgJy1waCcsICc3LjAnLCAnLXRuJywgJzgnLCAnLW1hJywgJzIwMCcsICctbWV0YWxfYmluZGluZycsICctaW1hZScsICc8aW5maWxlLm1hZT4nLCAnLW9tYWUnLCAnPG91dGZpbGUubWFlPic=

> <r_lp_tautomer_probability>
0.9996

> <r_epik_Ionization_Penalty>
2.73198

> <r_epik_Ionization_Penalty_Charging>
0.519658

> <r_epik_Ionization_Penalty_Neutral>
2.21233

> <r_epik_State_Penalty>
2.2852

> <r_epik_Charging_Adjusted_Penalty>
2.80486

> <i_epik_Tot_Q>
1

> <i_epik_Tot_abs_Q>
1

> <r_epik_Metal_State_Penalty>
2.2852

> <b_epik_Metal_Only>
0

> <s_lp_Force_Field>
OPLS_2005

> <r_lp_Energy>
43.5621

> <b_lp_Chiralities_Consistent>
1

> <s_lp_Variant>
AV-unprocessed.smi:1986-7

> <Gold.Version>
5.8.1

> <Gold.Id.Protein>
6NUR|6NUR_protein|mol2

> <Gold.PLP.Fitness>
50.1875

> <Gold.PLP.PLP>
-37.5246

> <Gold.PLP.part.hbond>
-4.0000

> <Gold.PLP.part.metal>
0.0000

> <Gold.PLP.part.buried>
-4.2882

> <Gold.PLP.part.nonpolar>
-28.9459

> <Gold.PLP.part.repulsive>
0.1192

> <Gold.PLP.ligand.clash>
0.0000

> <Gold.PLP.ligand.torsion>
0.4930

> <Gold.PLP.Chemscore.Hbond>
4.4400

> <Gold.PLP.Chemscore.CHOScore>
0.0000

> <Gold.PLP.Chemscore.Metal>
0.0000

> <Gold.Chemscore.Hbonds>
donor molecule, donor type, donor heavy atom, donor atom, acceptor molecule, acceptor atom, score
      L1  H    18    48       P1  7948  2.00
      P1  H  6896  6908       L1     8  1.00
      P1  H  6931  6943       L1    17  0.18
      P1  H  6934  6947       L1    17  0.78

> <Gold.PLP.Chemscore.Internal.Correction>
0.3290

> <Gold.Rescore>
     Score         DG    S(hbond)    S(metal)    S(lipo)     H(rot)  DE(clash)    DE(int)     intcor
     14.82     -16.07       3.45        0.00      60.85       3.15       0.05       1.19       ----

> <Gold.Chemscore.Fitness>
14.8183

> <Gold.Chemscore.DG>
-16.0657

> <Gold.Chemscore.ZeroCoef>
-5.4800

> <Gold.Chemscore.Hbond>
3.4509

> <Gold.Chemscore.Metal>
0.0000

> <Gold.Chemscore.Lipo>
60.8523

> <Gold.Chemscore.Internal_Hbond>
0.0000

> <Gold.Chemscore.DEClash>
0.0525

> <Gold.Chemscore.DEInternal>
1.1949

> <Gold.Chemscore.Rot>
3.1485

> <Gold.Chemscore.Internal.Correction>
   9.000000E+99

> <Gold.Chemscore.Hbonds>
donor molecule, donor type, donor heavy atom, donor atom, acceptor molecule, acceptor atom, score
      L1  H    18    48       P1  7948  0.79
      P1  H  6896  6908       L1     8  1.00
      P1  H  6931  6943       L1    17  0.06
      P1  H  6934  6947       L1    17  0.73

> <Gold.Chemscore.Hbond.Weighted>
-11.5261

> <Gold.Chemscore.Metal.Weighted>
-0.0000

> <Gold.Chemscore.Lipo.Weighted>
-7.1197

> <Gold.Chemscore.Internal_Hbond.Weighted>
0.0000

> <Gold.Chemscore.DEClash.Weighted>
0.0525

> <Gold.Chemscore.DEInternal.Weighted>
1.1949

> <Gold.Chemscore.Rot.Weighted>
8.0601

> <Gold.Chemscore.Internal.Correction.Weighted>
   9.000000E+99

> <Gold.Protein.RotatedTorsions>
[ 6907 6896 6895 6894 ] final -161.97 input  -60.11 | X-H torsion
[ 7974 7965 7964 7962 ] final   84.10 input  175.53 | X-H torsion
[ 8008 7997 7996 7995 ] final   37.68 input   59.86 | X-H torsion
[ 10167 10162 10161 10158 ] final   59.91 input  -65.29 | X-H torsion
[ 10718 10713 10712 10709 ] final   71.59 input   66.30 | X-H torsion
[ 10763 10752 10751 10750 ] final  -24.35 input  -60.55 | X-H torsion
[ 11005 11000 10999 10996 ] final   65.14 input  -57.11 | X-H torsion

> <Gold.Protein.ActiveResidues>
 VAL166  LYS551  ARG553  GLY616  TRP617  ASP618  TYR619  PRO620  LYS621  CYS622 
 ASP623  PHE694  ASN695  SER759  ASP760  ASP761  ALA762  ILE779  LEU786  VAL792 
 PHE793  MET794  SER795  GLU796  ALA797  LYS798  CYS799  TRP800  GLU811  SER814 

> <Gold.Protein.RotatedAtoms>
  151.3729  133.3848  159.2701 H   0  0  0  0  0  0  0  0  0  0  0  0  # atno 6907 bound_to 6896
  150.9637  134.9022  159.7756 H   0  0  0  0  0  0  0  0  0  0  0  0  # atno 6908 bound_to 6896
  152.5159  134.3689  159.9363 H   0  0  0  0  0  0  0  0  0  0  0  0  # atno 6909 bound_to 6896
  145.6032  139.2356  143.2234 H   0  0  0  0  0  0  0  0  0  0  0  0  # atno 7974 bound_to 7965
  155.2077  140.3321  155.4333 H   0  0  0  0  0  0  0  0  0  0  0  0  # atno 8008 bound_to 7997
  156.2382  140.1882  156.7109 H   0  0  0  0  0  0  0  0  0  0  0  0  # atno 8009 bound_to 7997
  154.6099  140.0610  156.9465 H   0  0  0  0  0  0  0  0  0  0  0  0  # atno 8010 bound_to 7997
  140.1713  144.4274  150.6660 H   0  0  0  0  0  0  0  0  0  0  0  0  # atno 10167 bound_to 10162
  157.6459  130.9536  150.0810 H   0  0  0  0  0  0  0  0  0  0  0  0  # atno 10718 bound_to 10713
  153.6824  135.6966  153.5114 H   0  0  0  0  0  0  0  0  0  0  0  0  # atno 10763 bound_to 10752
  153.2475  135.4286  155.0762 H   0  0  0  0  0  0  0  0  0  0  0  0  # atno 10764 bound_to 10752
  154.8396  135.3523  154.6367 H   0  0  0  0  0  0  0  0  0  0  0  0  # atno 10765 bound_to 10752
  139.9913  134.6587  156.0086 H   0  0  0  0  0  0  0  0  0  0  0  0  # atno 11005 bound_to 11000
  146.1560  140.6857  142.9300 LP  0  0  0  0  0  0  0  0  0  0  0  0  # atno 17320 bound_to 7965
  144.7301  140.4645  143.6944 LP  0  0  0  0  0  0  0  0  0  0  0  0  # atno 17321 bound_to 7965
  140.6580  143.2243  151.5923 LP  0  0  0  0  0  0  0  0  0  0  0  0  # atno 17342 bound_to 10162
  139.5336  144.2844  152.1203 LP  0  0  0  0  0  0  0  0  0  0  0  0  # atno 17343 bound_to 10162
  156.1786  130.3649  149.9066 LP  0  0  0  0  0  0  0  0  0  0  0  0  # atno 17370 bound_to 10713
  156.7023  130.8938  151.3601 LP  0  0  0  0  0  0  0  0  0  0  0  0  # atno 17371 bound_to 10713
  141.1568  133.6542  156.4188 LP  0  0  0  0  0  0  0  0  0  0  0  0  # atno 17394 bound_to 11000
  140.4903  134.6582  157.5208 LP  0  0  0  0  0  0  0  0  0  0  0  0  # atno 17395 bound_to 11000

$$$$
