AV-unprocessed.smi:2136|AV-procd|sdf|8703|dock7
  -GOLD-   2272011463D 1   1.00000     0.00000
 Structure written by MMmdl.
 42 43  0  0  0  0  0  0  0  0  1 V2000
  153.8128  139.2937  159.7415 C   0  0  0  0  0  0  0  0  0  0  0  0
  152.4937  139.3261  158.4587 S   0  0  0  0  0  0  0  0  0  0  0  0
  153.1104  139.0089  157.1622 O   0  0  0  0  0  0  0  0  0  0  0  0
  151.3729  138.5010  158.9352 O   0  0  0  0  0  0  0  0  0  0  0  0
  151.9734  141.0017  158.4737 N   0  0  0  0  0  0  0  0  0  0  0  0
  152.5908  141.8200  159.5467 C   0  0  0  0  0  0  0  0  0  0  0  0
  151.9278  143.1912  159.7221 C   0  0  0  0  0  0  0  0  0  0  0  0
  151.9367  143.9614  158.4077 C   0  0  0  0  0  0  0  0  0  0  0  0
  151.1720  143.1414  157.3739 C   0  0  0  0  0  0  0  0  0  0  0  0
  151.7666  141.7249  157.1760 C   0  0  2  0  0  0  0  0  0  0  0  0
  150.9149  141.0097  156.1167 C   0  0  0  0  0  0  0  0  0  0  0  0
  151.4517  140.2512  155.3095 O   0  0  0  0  0  0  0  0  0  0  0  0
  149.5951  141.2591  156.1286 N   0  0  0  0  0  0  0  0  0  0  0  0
  148.6236  140.6674  155.2184 C   0  0  0  0  0  0  0  0  0  0  0  0
  148.1366  141.6829  154.1723 C   0  0  0  0  0  0  0  0  0  0  0  0
  146.8591  142.3747  154.6036 C   0  0  0  0  0  0  0  0  0  0  0  0
  146.3209  142.1694  155.8906 C   0  0  0  0  0  0  0  0  0  0  0  0
  145.1284  142.8319  156.2399 C   0  0  0  0  0  0  0  0  0  0  0  0
  144.5238  143.6731  155.2842 C   0  0  0  0  0  0  0  0  0  0  0  0
  145.0302  143.8765  154.0490 N   0  0  0  0  0  0  0  0  0  0  0  0
  146.1742  143.2378  153.7221 C   0  0  0  0  0  0  0  0  0  0  0  0
  154.1830  138.2747  159.8502 H   0  0  0  0  0  0  0  0  0  0  0  0
  153.4103  139.6332  160.6949 H   0  0  0  0  0  0  0  0  0  0  0  0
  154.6351  139.9417  159.4392 H   0  0  0  0  0  0  0  0  0  0  0  0
  152.5325  141.2887  160.4964 H   0  0  0  0  0  0  0  0  0  0  0  0
  153.6505  141.9499  159.3246 H   0  0  0  0  0  0  0  0  0  0  0  0
  150.9039  143.0657  160.0768 H   0  0  0  0  0  0  0  0  0  0  0  0
  152.4539  143.7603  160.4891 H   0  0  0  0  0  0  0  0  0  0  0  0
  151.4692  144.9380  158.5371 H   0  0  0  0  0  0  0  0  0  0  0  0
  152.9601  144.1375  158.0740 H   0  0  0  0  0  0  0  0  0  0  0  0
  150.1286  143.0709  157.6868 H   0  0  0  0  0  0  0  0  0  0  0  0
  151.1669  143.6806  156.4253 H   0  0  0  0  0  0  0  0  0  0  0  0
  152.7571  141.8566  156.7379 H   0  0  0  0  0  0  0  0  0  0  0  0
  149.2388  141.8881  156.8335 H   0  0  0  0  0  0  0  0  0  0  0  0
  149.0564  139.7908  154.7330 H   0  0  0  0  0  0  0  0  0  0  0  0
  147.7806  140.3098  155.8104 H   0  0  0  0  0  0  0  0  0  0  0  0
  148.9074  142.4333  153.9908 H   0  0  0  0  0  0  0  0  0  0  0  0
  147.9580  141.1884  153.2164 H   0  0  0  0  0  0  0  0  0  0  0  0
  146.8104  141.5156  156.5976 H   0  0  0  0  0  0  0  0  0  0  0  0
  144.6870  142.6984  157.2165 H   0  0  0  0  0  0  0  0  0  0  0  0
  143.6086  144.1963  155.5182 H   0  0  0  0  0  0  0  0  0  0  0  0
  146.5531  143.4190  152.7270 H   0  0  0  0  0  0  0  0  0  0  0  0
  1  2  1  0  0  0  0
  1 22  1  0  0  0  0
  1 23  1  0  0  0  0
  1 24  1  0  0  0  0
  2  3  2  0  0  0  0
  2  4  2  0  0  0  0
  2  5  1  0  0  0  0
  5 10  1  0  0  0  0
  5  6  1  0  0  0  0
  6  7  1  0  0  0  0
  6 25  1  0  0  0  0
  6 26  1  0  0  0  0
  7  8  1  0  0  0  0
  7 27  1  0  0  0  0
  7 28  1  0  0  0  0
  8  9  1  0  0  0  0
  8 29  1  0  0  0  0
  8 30  1  0  0  0  0
  9 10  1  0  0  0  0
  9 31  1  0  0  0  0
  9 32  1  0  0  0  0
 10 11  1  0  0  0  0
 10 33  1  0  0  0  0
 11 12  2  0  0  0  0
 11 13  1  0  0  0  0
 13 14  1  0  0  0  0
 13 34  1  0  0  0  0
 14 15  1  0  0  0  0
 14 35  1  0  0  0  0
 14 36  1  0  0  0  0
 15 16  1  0  0  0  0
 15 37  1  0  0  0  0
 15 38  1  0  0  0  0
 16 21  1  0  0  0  0
 16 17  2  0  0  0  0
 17 18  1  0  0  0  0
 17 39  1  0  0  0  0
 18 19  2  0  0  0  0
 18 40  1  0  0  0  0
 19 20  1  0  0  0  0
 19 41  1  0  0  0  0
 20 21  2  0  0  0  0
 21 42  1  0  0  0  0
M  END
> <s_m_source_file>
AV-unprocessed.smi

> <i_m_source_file_index>
2136

> <i_lp_mmshare_version>
43012

> <i_f3d_flags>
0

> <s_epik_input>
W0NIM11TKD1PKSg9TylOMVtDSDJdW0NIMl1bQ0gyXVtDSDJdW0NASF0xQyg9TylbTkhdW0NIMl1bQ0gyXWMyW2NIXVtjSF1bY0hdbltjSF0y

> <s_epik_cmdline>
J2VwaWtfcHl0aG9uJywgJy1waCcsICc3LjAnLCAnLXRuJywgJzgnLCAnLW1hJywgJzIwMCcsICctbWV0YWxfYmluZGluZycsICctaW1hZScsICc8aW5maWxlLm1hZT4nLCAnLW9tYWUnLCAnPG91dGZpbGUubWFlPic=

> <r_epik_Ionization_Penalty>
0.0126915

> <r_epik_Ionization_Penalty_Charging>
0

> <r_epik_Ionization_Penalty_Neutral>
0.0126915

> <r_epik_State_Penalty>
0.0098379

> <r_epik_Charging_Adjusted_Penalty>
0.0098379

> <i_epik_Tot_Q>
0

> <i_epik_Tot_abs_Q>
0

> <r_epik_Metal_State_Penalty>
0.00962913

> <b_epik_Metal_Only>
0

> <s_lp_Force_Field>
OPLS_2005

> <r_lp_Energy>
2.71494

> <b_lp_Chiralities_Consistent>
1

> <s_lp_Variant>
AV-unprocessed.smi:2136-2

> <Gold.Version>
5.8.1

> <Gold.Id.Protein>
6NUR|6NUR_protein|mol2

> <Gold.PLP.Fitness>
42.3190

> <Gold.PLP.PLP>
-38.4786

> <Gold.PLP.part.hbond>
-2.0000

> <Gold.PLP.part.metal>
0.0000

> <Gold.PLP.part.buried>
-6.8048

> <Gold.PLP.part.nonpolar>
-30.3644

> <Gold.PLP.part.repulsive>
0.2892

> <Gold.PLP.ligand.clash>
0.0000

> <Gold.PLP.ligand.torsion>
1.4189

> <Gold.PLP.Chemscore.Hbond>
1.9760

> <Gold.PLP.Chemscore.CHOScore>
0.0000

> <Gold.PLP.Chemscore.Metal>
0.0000

> <Gold.Chemscore.Hbonds>
donor molecule, donor type, donor heavy atom, donor atom, acceptor molecule, acceptor atom, score
      P1  H  7989  7998       L1    12  0.98
      P1  H  7997  8009       L1     3  1.00

> <Gold.PLP.Chemscore.Internal.Correction>
0.7502

> <Gold.Rescore>
     Score         DG    S(hbond)    S(metal)    S(lipo)     H(rot)  DE(clash)    DE(int)     intcor
     15.69     -17.47       1.93        0.00      87.67       1.84       0.07       1.71       ----

> <Gold.Chemscore.Fitness>
15.6915

> <Gold.Chemscore.DG>
-17.4730

> <Gold.Chemscore.ZeroCoef>
-5.4800

> <Gold.Chemscore.Hbond>
1.9313

> <Gold.Chemscore.Metal>
0.0000

> <Gold.Chemscore.Lipo>
87.6729

> <Gold.Chemscore.Internal_Hbond>
0.0000

> <Gold.Chemscore.DEClash>
0.0682

> <Gold.Chemscore.DEInternal>
1.7134

> <Gold.Chemscore.Rot>
1.8419

> <Gold.Chemscore.Internal.Correction>
   9.000000E+99

> <Gold.Chemscore.Hbonds>
donor molecule, donor type, donor heavy atom, donor atom, acceptor molecule, acceptor atom, score
      P1  H  7989  7998       L1    12  0.88
      P1  H  7997  8009       L1     3  0.69

> <Gold.Chemscore.Hbond.Weighted>
-6.4506

> <Gold.Chemscore.Metal.Weighted>
-0.0000

> <Gold.Chemscore.Lipo.Weighted>
-10.2577

> <Gold.Chemscore.Internal_Hbond.Weighted>
0.0000

> <Gold.Chemscore.DEClash.Weighted>
0.0682

> <Gold.Chemscore.DEInternal.Weighted>
1.7134

> <Gold.Chemscore.Rot.Weighted>
4.7153

> <Gold.Chemscore.Internal.Correction.Weighted>
   9.000000E+99

> <Gold.Protein.RotatedTorsions>
[ 6907 6896 6895 6894 ] final   67.14 input  -60.11 | X-H torsion
[ 7974 7965 7964 7962 ] final  -13.80 input  175.53 | X-H torsion
[ 8008 7997 7996 7995 ] final  158.64 input   59.86 | X-H torsion
[ 10167 10162 10161 10158 ] final   83.65 input  -65.29 | X-H torsion
[ 10718 10713 10712 10709 ] final  -10.50 input   66.30 | X-H torsion
[ 10763 10752 10751 10750 ] final  -53.15 input  -60.55 | X-H torsion
[ 11005 11000 10999 10996 ] final   57.56 input  -57.11 | X-H torsion

> <Gold.Protein.ActiveResidues>
 VAL166  LYS551  ARG553  GLY616  TRP617  ASP618  TYR619  PRO620  LYS621  CYS622 
 ASP623  PHE694  ASN695  SER759  ASP760  ASP761  ALA762  ILE779  LEU786  VAL792 
 PHE793  MET794  SER795  GLU796  ALA797  LYS798  CYS799  TRP800  GLU811  SER814 

> <Gold.Protein.RotatedAtoms>
  152.4531  134.5351  159.9822 H   0  0  0  0  0  0  0  0  0  0  0  0  # atno 6907 bound_to 6896
  151.5418  133.3425  159.2945 H   0  0  0  0  0  0  0  0  0  0  0  0  # atno 6908 bound_to 6896
  150.8466  134.7808  159.7038 H   0  0  0  0  0  0  0  0  0  0  0  0  # atno 6909 bound_to 6896
  146.2100  140.3257  142.8394 H   0  0  0  0  0  0  0  0  0  0  0  0  # atno 7974 bound_to 7965
  156.2290  140.1853  156.7291 H   0  0  0  0  0  0  0  0  0  0  0  0  # atno 8008 bound_to 7997
  154.5989  140.0639  156.9369 H   0  0  0  0  0  0  0  0  0  0  0  0  # atno 8009 bound_to 7997
  155.2208  140.3307  155.4318 H   0  0  0  0  0  0  0  0  0  0  0  0  # atno 8010 bound_to 7997
  139.9162  144.6241  150.8487 H   0  0  0  0  0  0  0  0  0  0  0  0  # atno 10167 bound_to 10162
  156.6725  130.5013  149.5996 H   0  0  0  0  0  0  0  0  0  0  0  0  # atno 10718 bound_to 10713
  154.1542  135.6485  153.4970 H   0  0  0  0  0  0  0  0  0  0  0  0  # atno 10763 bound_to 10752
  153.0129  135.5345  154.6777 H   0  0  0  0  0  0  0  0  0  0  0  0  # atno 10764 bound_to 10752
  154.6073  135.2950  155.0442 H   0  0  0  0  0  0  0  0  0  0  0  0  # atno 10765 bound_to 10752
  140.0443  134.5828  155.9342 H   0  0  0  0  0  0  0  0  0  0  0  0  # atno 11005 bound_to 11000
  144.8888  140.7497  143.5939 LP  0  0  0  0  0  0  0  0  0  0  0  0  # atno 17320 bound_to 7965
  145.3178  139.1798  143.4604 LP  0  0  0  0  0  0  0  0  0  0  0  0  # atno 17321 bound_to 7965
  140.7673  143.3330  151.2370 LP  0  0  0  0  0  0  0  0  0  0  0  0  # atno 17342 bound_to 10162
  139.6900  143.9708  152.2854 LP  0  0  0  0  0  0  0  0  0  0  0  0  # atno 17343 bound_to 10162
  156.1928  130.6570  151.1080 LP  0  0  0  0  0  0  0  0  0  0  0  0  # atno 17370 bound_to 10713
  157.7072  131.0751  150.6626 LP  0  0  0  0  0  0  0  0  0  0  0  0  # atno 17371 bound_to 10713
  141.1899  133.6567  156.5387 LP  0  0  0  0  0  0  0  0  0  0  0  0  # atno 17394 bound_to 11000
  140.4019  134.7349  157.4785 LP  0  0  0  0  0  0  0  0  0  0  0  0  # atno 17395 bound_to 11000

$$$$
