AV-unprocessed.smi:304|AV-procd|sdf|2279|dock6
  -GOLD-   2262022173D 1   1.00000     0.00000
 Structure written by MMmdl.
 37 39  0  0  0  0  0  0  0  0  2 V2000
  153.3139  138.9404  154.8623 O   0  0  0  0  0  0  0  0  0  0  0  0
  152.0653  139.4534  155.2836 C   0  0  1  0  0  0  0  0  0  0  0  0
  150.9801  138.4094  154.9795 C   0  0  0  0  0  0  0  0  0  0  0  0
  149.7104  139.0251  155.1127 O   0  0  0  0  0  0  0  0  0  0  0  0
  149.2684  139.6447  153.9162 C   0  0  0  0  0  0  0  0  0  0  0  0
  148.2469  140.6688  154.2925 C   0  0  0  0  0  0  0  0  0  0  0  0
  147.4488  141.3920  153.4430 C   0  0  0  0  0  0  0  0  0  0  0  0
  146.5857  142.3032  154.1197 C   0  0  0  0  0  0  0  0  0  0  0  0
  146.7421  142.2728  155.4798 C   0  0  0  0  0  0  0  0  0  0  0  0
  147.9580  141.1199  155.9574 S   0  0  0  0  0  0  0  0  0  0  0  0
  152.1451  139.7834  156.7872 C   0  0  0  0  0  0  0  0  0  0  0  0
  151.6443  141.1282  157.1012 N   0  0  0  0  0  0  0  0  0  0  0  0
  150.8856  141.9757  156.3542 C   0  0  0  0  0  0  0  0  0  0  0  0
  150.6790  143.1011  157.0933 N   0  3  0  0  0  0  0  0  0  0  0  0
  151.3148  142.9702  158.3303 C   0  0  0  0  0  0  0  0  0  0  0  0
  151.3919  143.8394  159.4137 C   0  0  0  0  0  0  0  0  0  0  0  0
  152.1263  143.3953  160.5334 C   0  0  0  0  0  0  0  0  0  0  0  0
  152.2350  144.2030  161.6146 F   0  0  0  0  0  0  0  0  0  0  0  0
  152.7480  142.1284  160.5482 C   0  0  0  0  0  0  0  0  0  0  0  0
  153.4417  141.7403  161.6442 F   0  0  0  0  0  0  0  0  0  0  0  0
  152.6623  141.2555  159.4435 C   0  0  0  0  0  0  0  0  0  0  0  0
  151.9367  141.7043  158.3413 C   0  0  0  0  0  0  0  0  0  0  0  0
  153.1809  138.4526  154.0633 H   0  0  0  0  0  0  0  0  0  0  0  0
  151.8552  140.3678  154.7273 H   0  0  0  0  0  0  0  0  0  0  0  0
  151.1127  137.9755  153.9867 H   0  0  0  0  0  0  0  0  0  0  0  0
  151.0421  137.5934  155.7014 H   0  0  0  0  0  0  0  0  0  0  0  0
  150.1036  140.1216  153.4014 H   0  0  0  0  0  0  0  0  0  0  0  0
  148.8338  138.9057  153.2413 H   0  0  0  0  0  0  0  0  0  0  0  0
  147.4521  141.2971  152.3673 H   0  0  0  0  0  0  0  0  0  0  0  0
  145.8919  142.9409  153.5922 H   0  0  0  0  0  0  0  0  0  0  0  0
  146.2223  142.8550  156.2261 H   0  0  0  0  0  0  0  0  0  0  0  0
  151.5822  139.0599  157.3784 H   0  0  0  0  0  0  0  0  0  0  0  0
  153.1783  139.7289  157.1333 H   0  0  0  0  0  0  0  0  0  0  0  0
  150.5108  141.7863  155.3585 H   0  0  0  0  0  0  0  0  0  0  0  0
  150.9165  144.8092  159.4070 H   0  0  0  0  0  0  0  0  0  0  0  0
  153.1396  140.2873  159.4649 H   0  0  0  0  0  0  0  0  0  0  0  0
  150.1408  143.8967  156.7743 H   0  0  0  0  0  0  0  0  0  0  0  0
  1  2  1  0  0  0  0
  1 23  1  0  0  0  0
  2  3  1  0  0  0  0
  2 11  1  0  0  0  0
  2 24  1  0  0  0  0
  3  4  1  0  0  0  0
  3 25  1  0  0  0  0
  3 26  1  0  0  0  0
  4  5  1  0  0  0  0
  5  6  1  0  0  0  0
  5 27  1  0  0  0  0
  5 28  1  0  0  0  0
  6 10  1  0  0  0  0
  6  7  2  0  0  0  0
  7  8  1  0  0  0  0
  7 29  1  0  0  0  0
  8  9  2  0  0  0  0
  8 30  1  0  0  0  0
  9 10  1  0  0  0  0
  9 31  1  0  0  0  0
 11 12  1  0  0  0  0
 11 32  1  0  0  0  0
 11 33  1  0  0  0  0
 12 22  1  0  0  0  0
 12 13  1  0  0  0  0
 13 14  2  0  0  0  0
 13 34  1  0  0  0  0
 14 15  1  0  0  0  0
 14 37  1  0  0  0  0
 15 22  2  0  0  0  0
 15 16  1  0  0  0  0
 16 17  2  0  0  0  0
 16 35  1  0  0  0  0
 17 18  1  0  0  0  0
 17 19  1  0  0  0  0
 19 20  1  0  0  0  0
 19 21  2  0  0  0  0
 21 22  1  0  0  0  0
 21 36  1  0  0  0  0
M  CHG  1  14   1
M  END
> <s_m_source_file>
AV-unprocessed.smi

> <i_m_source_file_index>
304

> <i_lp_mmshare_version>
43012

> <i_f3d_flags>
0

> <s_epik_input>
W2NIXTFjKEYpYyhGKVtjSF1jKGMxMiluKFtjSF1uMilbQ0gyXVtDQEhdKFtPSF0pW0NIMl1PW0NIMl1jM1tjSF1bY0hdW2NIXXMz

> <s_epik_cmdline>
J2VwaWtfcHl0aG9uJywgJy1waCcsICc3LjAnLCAnLXRuJywgJzgnLCAnLW1hJywgJzIwMCcsICctbWV0YWxfYmluZGluZycsICctaW1hZScsICc8aW5maWxlLm1hZT4nLCAnLW9tYWUnLCAnPG91dGZpbGUubWFlPic=

> <r_epik_Ionization_Penalty>
2.17745

> <r_epik_Ionization_Penalty_Charging>
2.17744

> <r_epik_Ionization_Penalty_Neutral>
1.26231e-06

> <r_epik_State_Penalty>
2.31922

> <r_epik_Charging_Adjusted_Penalty>
4.49666

> <i_epik_Tot_Q>
1

> <i_epik_Tot_abs_Q>
1

> <r_epik_Metal_State_Penalty>
6.40003

> <b_epik_Metal_Only>
0

> <s_lp_Force_Field>
OPLS_2005

> <r_lp_Energy>
12.5781

> <b_lp_Chiralities_Consistent>
1

> <s_lp_Variant>
AV-unprocessed.smi:304-4

> <Gold.Version>
5.8.1

> <Gold.Id.Protein>
6NUR|6NUR_protein|mol2

> <Gold.PLP.Fitness>
56.7757

> <Gold.PLP.PLP>
-50.2802

> <Gold.PLP.part.hbond>
-2.0000

> <Gold.PLP.part.metal>
0.0000

> <Gold.PLP.part.buried>
-3.7827

> <Gold.PLP.part.nonpolar>
-43.8907

> <Gold.PLP.part.repulsive>
0.0936

> <Gold.PLP.ligand.clash>
0.0000

> <Gold.PLP.ligand.torsion>
1.3183

> <Gold.PLP.Chemscore.Hbond>
3.0000

> <Gold.PLP.Chemscore.CHOScore>
0.0000

> <Gold.PLP.Chemscore.Metal>
0.0000

> <Gold.Chemscore.Hbonds>
donor molecule, donor type, donor heavy atom, donor atom, acceptor molecule, acceptor atom, score
      L1  H    14    37       P1  8028  2.00
      P1  H  7997  8009       L1     1  1.00

> <Gold.PLP.Chemscore.Internal.Correction>
0.1322

> <Gold.Rescore>
     Score         DG    S(hbond)    S(metal)    S(lipo)     H(rot)  DE(clash)    DE(int)     intcor
     15.75     -17.80       1.69        0.00     116.78       2.73       0.71       1.35       ----

> <Gold.Chemscore.Fitness>
15.7479

> <Gold.Chemscore.DG>
-17.8030

> <Gold.Chemscore.ZeroCoef>
-5.4800

> <Gold.Chemscore.Hbond>
1.6878

> <Gold.Chemscore.Metal>
0.0000

> <Gold.Chemscore.Lipo>
116.7838

> <Gold.Chemscore.Internal_Hbond>
0.0000

> <Gold.Chemscore.DEClash>
0.7096

> <Gold.Chemscore.DEInternal>
1.3454

> <Gold.Chemscore.Rot>
2.7258

> <Gold.Chemscore.Internal.Correction>
   9.000000E+99

> <Gold.Chemscore.Hbonds>
donor molecule, donor type, donor heavy atom, donor atom, acceptor molecule, acceptor atom, score
      L1  H    14    37       P1  8028  0.97
      P1  H  7997  8009       L1     1  0.37

> <Gold.Chemscore.Hbond.Weighted>
-5.6374

> <Gold.Chemscore.Metal.Weighted>
-0.0000

> <Gold.Chemscore.Lipo.Weighted>
-13.6637

> <Gold.Chemscore.Internal_Hbond.Weighted>
0.0000

> <Gold.Chemscore.DEClash.Weighted>
0.7096

> <Gold.Chemscore.DEInternal.Weighted>
1.3454

> <Gold.Chemscore.Rot.Weighted>
6.9781

> <Gold.Chemscore.Internal.Correction.Weighted>
   9.000000E+99

> <Gold.Protein.RotatedTorsions>
[ 6907 6896 6895 6894 ] final -134.93 input  -60.11 | X-H torsion
[ 7974 7965 7964 7962 ] final -141.56 input  175.53 | X-H torsion
[ 8008 7997 7996 7995 ] final -120.21 input   59.86 | X-H torsion
[ 10167 10162 10161 10158 ] final   71.24 input  -65.29 | X-H torsion
[ 10718 10713 10712 10709 ] final   51.68 input   66.30 | X-H torsion
[ 10763 10752 10751 10750 ] final  179.96 input  -60.55 | X-H torsion
[ 11005 11000 10999 10996 ] final  105.69 input  -57.11 | X-H torsion

> <Gold.Protein.ActiveResidues>
 VAL166  LYS551  ARG553  GLY616  TRP617  ASP618  TYR619  PRO620  LYS621  CYS622 
 ASP623  PHE694  ASN695  SER759  ASP760  ASP761  ALA762  ILE779  LEU786  VAL792 
 PHE793  MET794  SER795  GLU796  ALA797  LYS798  CYS799  TRP800  GLU811  SER814 

> <Gold.Protein.RotatedAtoms>
  150.9918  133.6142  159.2707 H   0  0  0  0  0  0  0  0  0  0  0  0  # atno 6907 bound_to 6896
  151.3360  135.0852  159.9365 H   0  0  0  0  0  0  0  0  0  0  0  0  # atno 6908 bound_to 6896
  152.5248  133.9538  159.7739 H   0  0  0  0  0  0  0  0  0  0  0  0  # atno 6909 bound_to 6896
  144.8510  140.6064  143.5390 H   0  0  0  0  0  0  0  0  0  0  0  0  # atno 7974 bound_to 7965
  155.1282  140.0399  157.2768 H   0  0  0  0  0  0  0  0  0  0  0  0  # atno 8008 bound_to 7997
  154.6562  140.2580  155.7133 H   0  0  0  0  0  0  0  0  0  0  0  0  # atno 8009 bound_to 7997
  156.2599  140.2826  156.1016 H   0  0  0  0  0  0  0  0  0  0  0  0  # atno 8010 bound_to 7997
  140.0482  144.5333  150.7383 H   0  0  0  0  0  0  0  0  0  0  0  0  # atno 10167 bound_to 10162
  157.5004  130.8434  149.8309 H   0  0  0  0  0  0  0  0  0  0  0  0  # atno 10718 bound_to 10713
  154.5273  135.2797  155.1211 H   0  0  0  0  0  0  0  0  0  0  0  0  # atno 10763 bound_to 10752
  154.2744  135.6297  153.5326 H   0  0  0  0  0  0  0  0  0  0  0  0  # atno 10764 bound_to 10752
  152.9949  135.5636  154.5778 H   0  0  0  0  0  0  0  0  0  0  0  0  # atno 10765 bound_to 10752
  139.8805  134.9344  156.5552 H   0  0  0  0  0  0  0  0  0  0  0  0  # atno 11005 bound_to 11000
  145.4501  139.1524  143.3923 LP  0  0  0  0  0  0  0  0  0  0  0  0  # atno 17320 bound_to 7965
  146.2784  140.4626  142.8786 LP  0  0  0  0  0  0  0  0  0  0  0  0  # atno 17321 bound_to 7965
  140.7229  143.2606  151.4219 LP  0  0  0  0  0  0  0  0  0  0  0  0  # atno 17342 bound_to 10162
  139.5970  144.1377  152.2155 LP  0  0  0  0  0  0  0  0  0  0  0  0  # atno 17343 bound_to 10162
  156.0225  130.3790  150.1918 LP  0  0  0  0  0  0  0  0  0  0  0  0  # atno 17370 bound_to 10713
  157.0108  130.9950  151.3366 LP  0  0  0  0  0  0  0  0  0  0  0  0  # atno 17371 bound_to 10713
  140.8210  133.8353  155.8896 LP  0  0  0  0  0  0  0  0  0  0  0  0  # atno 17394 bound_to 11000
  140.9418  134.1891  157.4792 LP  0  0  0  0  0  0  0  0  0  0  0  0  # atno 17395 bound_to 11000

$$$$
