AV-unprocessed.smi:3255|AV-procd|sdf|12457|dock3
  -GOLD-   2272018353D 1   1.00000     0.00000
 Structure written by MMmdl.
 39 40  0  0  0  0  0  0  0  0  2 V2000
  151.2075  145.4356  158.9636 C   0  0  0  0  0  0  0  0  0  0  0  0
  151.7014  144.0550  158.5043 C   0  0  2  0  0  0  0  0  0  0  0  0
  150.8231  143.5809  157.4377 N   0  0  0  0  0  0  0  0  0  0  0  0
  150.7130  142.3082  157.0333 C   0  0  0  0  0  0  0  0  0  0  0  0
  151.3774  141.3767  157.4884 O   0  0  0  0  0  0  0  0  0  0  0  0
  149.7638  142.1641  156.0978 N   0  0  0  0  0  0  0  0  0  0  0  0
  149.3405  140.8906  155.5221 C   0  0  0  0  0  0  0  0  0  0  0  0
  148.6590  141.0722  154.1515 C   0  0  0  0  0  0  0  0  0  0  0  0
  147.2910  141.5909  154.2555 N   0  0  0  0  0  0  0  0  0  0  0  0
  146.8709  142.8804  154.0499 C   0  0  0  0  0  0  0  0  0  0  0  0
  145.5190  142.8917  154.2769 C   0  0  0  0  0  0  0  0  0  0  0  0
  145.1706  141.6097  154.6072 N   0  3  0  0  0  0  0  0  0  0  0  0
  146.2487  140.8193  154.5897 C   0  0  0  0  0  0  0  0  0  0  0  0
  151.7288  143.0304  159.6595 C   0  0  2  0  0  0  0  0  0  0  0  0
  152.1042  143.6150  161.0232 C   0  0  0  0  0  0  0  0  0  0  0  0
  152.7060  142.4374  161.7757 C   0  0  0  0  0  0  0  0  0  0  0  0
  152.9209  141.3743  160.6969 C   0  0  0  0  0  0  0  0  0  0  0  0
  152.7509  142.0627  159.4673 O   0  0  0  0  0  0  0  0  0  0  0  0
  151.8673  145.8641  159.7182 H   0  0  0  0  0  0  0  0  0  0  0  0
  150.2061  145.3776  159.3915 H   0  0  0  0  0  0  0  0  0  0  0  0
  151.1727  146.1371  158.1291 H   0  0  0  0  0  0  0  0  0  0  0  0
  152.7133  144.1781  158.1139 H   0  0  0  0  0  0  0  0  0  0  0  0
  150.2300  144.2711  157.0010 H   0  0  0  0  0  0  0  0  0  0  0  0
  149.2767  142.9908  155.7836 H   0  0  0  0  0  0  0  0  0  0  0  0
  150.2319  140.2752  155.4001 H   0  0  0  0  0  0  0  0  0  0  0  0
  148.6903  140.3465  156.2093 H   0  0  0  0  0  0  0  0  0  0  0  0
  149.2346  141.7513  153.5208 H   0  0  0  0  0  0  0  0  0  0  0  0
  148.6107  140.1176  153.6259 H   0  0  0  0  0  0  0  0  0  0  0  0
  147.5486  143.6755  153.7753 H   0  0  0  0  0  0  0  0  0  0  0  0
  144.7987  143.6956  154.2333 H   0  0  0  0  0  0  0  0  0  0  0  0
  146.2737  139.7676  154.8136 H   0  0  0  0  0  0  0  0  0  0  0  0
  150.7692  142.5141  159.7307 H   0  0  0  0  0  0  0  0  0  0  0  0
  152.8583  144.3944  160.9066 H   0  0  0  0  0  0  0  0  0  0  0  0
  151.2492  144.0517  161.5402 H   0  0  0  0  0  0  0  0  0  0  0  0
  153.6464  142.7236  162.2483 H   0  0  0  0  0  0  0  0  0  0  0  0
  152.0367  142.0698  162.5542 H   0  0  0  0  0  0  0  0  0  0  0  0
  153.9048  140.9089  160.7562 H   0  0  0  0  0  0  0  0  0  0  0  0
  152.1672  140.5893  160.7743 H   0  0  0  0  0  0  0  0  0  0  0  0
  144.2338  141.3023  154.8370 H   0  0  0  0  0  0  0  0  0  0  0  0
  1  2  1  0  0  0  0
  1 19  1  0  0  0  0
  1 20  1  0  0  0  0
  1 21  1  0  0  0  0
  2  3  1  0  0  0  0
  2 14  1  0  0  0  0
  2 22  1  0  0  0  0
  3  4  1  0  0  0  0
  3 23  1  0  0  0  0
  4  5  2  0  0  0  0
  4  6  1  0  0  0  0
  6  7  1  0  0  0  0
  6 24  1  0  0  0  0
  7  8  1  0  0  0  0
  7 25  1  0  0  0  0
  7 26  1  0  0  0  0
  8  9  1  0  0  0  0
  8 27  1  0  0  0  0
  8 28  1  0  0  0  0
  9 13  1  0  0  0  0
  9 10  1  0  0  0  0
 10 11  2  0  0  0  0
 10 29  1  0  0  0  0
 11 12  1  0  0  0  0
 11 30  1  0  0  0  0
 12 13  2  0  0  0  0
 12 39  1  0  0  0  0
 13 31  1  0  0  0  0
 14 18  1  0  0  0  0
 14 15  1  0  0  0  0
 14 32  1  0  0  0  0
 15 16  1  0  0  0  0
 15 33  1  0  0  0  0
 15 34  1  0  0  0  0
 16 17  1  0  0  0  0
 16 35  1  0  0  0  0
 16 36  1  0  0  0  0
 17 18  1  0  0  0  0
 17 37  1  0  0  0  0
 17 38  1  0  0  0  0
M  CHG  1  12   1
M  END
> <s_m_source_file>
AV-unprocessed.smi

> <i_m_source_file_index>
3255

> <i_lp_mmshare_version>
43012

> <i_f3d_flags>
0

> <s_epik_input>
TzFbQ0gyXVtDSDJdW0NIMl1bQ0BIXTFbQ0BIXShbQ0gzXSlbTkhdQyg9TylbTkhdW0NIMl1bQ0gyXW4yW2NIXVtjSF1uW2NIXTI=

> <s_epik_cmdline>
J2VwaWtfcHl0aG9uJywgJy1waCcsICc3LjAnLCAnLXRuJywgJzgnLCAnLW1hJywgJzIwMCcsICctbWV0YWxfYmluZGluZycsICctaW1hZScsICc8aW5maWxlLm1hZT4nLCAnLW9tYWUnLCAnPG91dGZpbGUubWFlPic=

> <r_lp_tautomer_probability>
1

> <r_epik_Ionization_Penalty>
0.256241

> <r_epik_Ionization_Penalty_Charging>
0

> <r_epik_Ionization_Penalty_Neutral>
0.256241

> <r_epik_State_Penalty>
0.247735

> <r_epik_Charging_Adjusted_Penalty>
0.247735

> <i_epik_Tot_Q>
1

> <i_epik_Tot_abs_Q>
1

> <r_epik_Metal_State_Penalty>
0.537184

> <b_epik_Metal_Only>
0

> <s_lp_Force_Field>
OPLS_2005

> <r_lp_Energy>
16.926

> <b_lp_Chiralities_Consistent>
1

> <s_lp_Variant>
AV-unprocessed.smi:3255-1

> <Gold.Version>
5.8.1

> <Gold.Id.Protein>
6NUR|6NUR_protein|mol2

> <Gold.PLP.Fitness>
50.6465

> <Gold.PLP.PLP>
-45.0239

> <Gold.PLP.part.hbond>
-3.0000

> <Gold.PLP.part.metal>
0.0000

> <Gold.PLP.part.buried>
-4.5380

> <Gold.PLP.part.nonpolar>
-37.9735

> <Gold.PLP.part.repulsive>
0.1303

> <Gold.PLP.ligand.clash>
0.0000

> <Gold.PLP.ligand.torsion>
1.3848

> <Gold.PLP.Chemscore.Hbond>
2.0000

> <Gold.PLP.Chemscore.CHOScore>
0.7737

> <Gold.PLP.Chemscore.Metal>
0.0000

> <Gold.Chemscore.Hbonds>
donor molecule, donor type, donor heavy atom, donor atom, acceptor molecule, acceptor atom, score
      L1  H     3    23       P1  8028  1.00
      L1  H     6    24       P1  8028  1.00
      L1  C    10    29       P1  8028  0.75

> <Gold.PLP.Chemscore.Internal.Correction>
0.0711

> <Gold.Rescore>
     Score         DG    S(hbond)    S(metal)    S(lipo)     H(rot)  DE(clash)    DE(int)     intcor
     13.80     -17.44       1.95        0.00      96.04       2.26       0.05       3.59       ----

> <Gold.Chemscore.Fitness>
13.7978

> <Gold.Chemscore.DG>
-17.4429

> <Gold.Chemscore.ZeroCoef>
-5.4800

> <Gold.Chemscore.Hbond>
1.9527

> <Gold.Chemscore.Metal>
0.0000

> <Gold.Chemscore.Lipo>
96.0397

> <Gold.Chemscore.Internal_Hbond>
0.0000

> <Gold.Chemscore.DEClash>
0.0512

> <Gold.Chemscore.DEInternal>
3.5939

> <Gold.Chemscore.Rot>
2.2640

> <Gold.Chemscore.Internal.Correction>
   9.000000E+99

> <Gold.Chemscore.Hbonds>
donor molecule, donor type, donor heavy atom, donor atom, acceptor molecule, acceptor atom, score
      L1  H     3    23       P1  8028  0.84
      L1  H     6    24       P1  8028  0.99

> <Gold.Chemscore.Hbond.Weighted>
-6.5220

> <Gold.Chemscore.Metal.Weighted>
-0.0000

> <Gold.Chemscore.Lipo.Weighted>
-11.2366

> <Gold.Chemscore.Internal_Hbond.Weighted>
0.0000

> <Gold.Chemscore.DEClash.Weighted>
0.0512

> <Gold.Chemscore.DEInternal.Weighted>
3.5939

> <Gold.Chemscore.Rot.Weighted>
5.7958

> <Gold.Chemscore.Internal.Correction.Weighted>
   9.000000E+99

> <Gold.Protein.RotatedTorsions>
[ 6907 6896 6895 6894 ] final  168.70 input  -60.11 | X-H torsion
[ 7974 7965 7964 7962 ] final  165.53 input  175.53 | X-H torsion
[ 8008 7997 7996 7995 ] final   23.02 input   59.86 | X-H torsion
[ 10167 10162 10161 10158 ] final -143.82 input  -65.29 | X-H torsion
[ 10718 10713 10712 10709 ] final -159.58 input   66.30 | X-H torsion
[ 10763 10752 10751 10750 ] final -157.89 input  -60.55 | X-H torsion
[ 11005 11000 10999 10996 ] final  153.40 input  -57.11 | X-H torsion

> <Gold.Protein.ActiveResidues>
 VAL166  LYS551  ARG553  GLY616  TRP617  ASP618  TYR619  PRO620  LYS621  CYS622 
 ASP623  PHE694  ASN695  SER759  ASP760  ASP761  ALA762  ILE779  LEU786  VAL792 
 PHE793  MET794  SER795  GLU796  ALA797  LYS798  CYS799  TRP800  GLU811  SER814 

> <Gold.Protein.RotatedAtoms>
  151.8434  133.3427  159.3650 H   0  0  0  0  0  0  0  0  0  0  0  0  # atno 6907 bound_to 6896
  150.7228  134.5369  159.5737 H   0  0  0  0  0  0  0  0  0  0  0  0  # atno 6908 bound_to 6896
  152.2847  134.7790  160.0441 H   0  0  0  0  0  0  0  0  0  0  0  0  # atno 6909 bound_to 6896
  144.7499  139.8484  143.6370 H   0  0  0  0  0  0  0  0  0  0  0  0  # atno 7974 bound_to 7965
  154.9746  140.3094  155.4973 H   0  0  0  0  0  0  0  0  0  0  0  0  # atno 8008 bound_to 7997
  156.2961  140.2277  156.4780 H   0  0  0  0  0  0  0  0  0  0  0  0  # atno 8009 bound_to 7997
  154.7845  140.0444  157.1141 H   0  0  0  0  0  0  0  0  0  0  0  0  # atno 8010 bound_to 7997
  139.7958  143.7903  152.2654 H   0  0  0  0  0  0  0  0  0  0  0  0  # atno 10167 bound_to 10162
  156.5701  130.8685  151.2835 H   0  0  0  0  0  0  0  0  0  0  0  0  # atno 10718 bound_to 10713
  154.7600  135.3115  154.8396 H   0  0  0  0  0  0  0  0  0  0  0  0  # atno 10763 bound_to 10752
  153.9159  135.6801  153.4753 H   0  0  0  0  0  0  0  0  0  0  0  0  # atno 10764 bound_to 10752
  153.1200  135.4827  154.9111 H   0  0  0  0  0  0  0  0  0  0  0  0  # atno 10765 bound_to 10752
  140.1394  134.8749  157.2311 H   0  0  0  0  0  0  0  0  0  0  0  0  # atno 11005 bound_to 11000
  146.1433  139.4496  143.0095 LP  0  0  0  0  0  0  0  0  0  0  0  0  # atno 17320 bound_to 7965
  145.6984  141.0143  143.1517 LP  0  0  0  0  0  0  0  0  0  0  0  0  # atno 17321 bound_to 7965
  139.8008  144.7375  150.9828 LP  0  0  0  0  0  0  0  0  0  0  0  0  # atno 17342 bound_to 10162
  140.7820  143.4347  151.0641 LP  0  0  0  0  0  0  0  0  0  0  0  0  # atno 17343 bound_to 10162
  157.7350  130.9755  150.2058 LP  0  0  0  0  0  0  0  0  0  0  0  0  # atno 17370 bound_to 10713
  156.2722  130.3723  149.8020 LP  0  0  0  0  0  0  0  0  0  0  0  0  # atno 17371 bound_to 10713
  140.2741  134.3426  155.7364 LP  0  0  0  0  0  0  0  0  0  0  0  0  # atno 17394 bound_to 11000
  141.2183  133.7440  156.9267 LP  0  0  0  0  0  0  0  0  0  0  0  0  # atno 17395 bound_to 11000

$$$$
