AV-unprocessed.smi:2198|AV-procd|sdf|8911|dock7
  -GOLD-   2272012123D 1   1.00000     0.00000
 Structure written by MMmdl.
 43 44  0  0  0  0  0  0  0  0  1 V2000
  150.8901  142.5866  157.0798 C   0  0  0  0  0  0  0  0  0  0  0  0
  150.7874  141.2443  156.3870 C   0  0  0  0  0  0  0  0  0  0  0  0
  149.8740  140.9466  155.5223 N   0  0  0  0  0  0  0  0  0  0  0  0
  149.8832  139.6690  154.9452 C   0  0  0  0  0  0  0  0  0  0  0  0
  148.7803  139.3960  153.9369 C   0  0  0  0  0  0  0  0  0  0  0  0
  150.8285  138.7410  155.2758 C   0  0  0  0  0  0  0  0  0  0  0  0
  150.8675  137.3431  154.6600 C   0  0  0  0  0  0  0  0  0  0  0  0
  150.0878  136.2608  155.4107 C   0  0  0  0  0  0  0  0  0  0  0  0
  150.3416  136.0134  156.5898 O   0  0  0  0  0  0  0  0  0  0  0  0
  149.1398  135.6211  154.7095 N   0  0  0  0  0  0  0  0  0  0  0  0
  148.2855  134.5481  155.2156 C   0  0  2  0  0  0  0  0  0  0  0  0
  148.6829  133.2047  154.5747 C   0  0  0  0  0  0  0  0  0  0  0  0
  148.2957  133.1341  153.0875 C   0  0  0  0  0  0  0  0  0  0  0  0
  146.8003  133.4242  152.8856 C   0  0  0  0  0  0  0  0  0  0  0  0
  146.4014  134.7861  153.4852 C   0  0  1  0  0  0  0  0  0  0  0  0
  144.9063  135.0700  153.2830 C   0  0  0  0  0  0  0  0  0  0  0  0
  146.7905  134.8540  154.9768 C   0  0  0  0  0  0  0  0  0  0  0  0
  151.8660  139.0912  156.2651 C   0  0  0  0  0  0  0  0  0  0  0  0
  152.7644  138.3354  156.6321 O   0  0  0  0  0  0  0  0  0  0  0  0
  151.7791  140.3426  156.7692 N   0  0  0  0  0  0  0  0  0  0  0  0
  152.4676  140.6307  157.4490 H   0  0  0  0  0  0  0  0  0  0  0  0
  151.0437  143.3772  156.3454 H   0  0  0  0  0  0  0  0  0  0  0  0
  151.7200  142.6124  157.7873 H   0  0  0  0  0  0  0  0  0  0  0  0
  149.9706  142.7988  157.6255 H   0  0  0  0  0  0  0  0  0  0  0  0
  148.1295  138.5957  154.2890 H   0  0  0  0  0  0  0  0  0  0  0  0
  149.2011  139.1039  152.9747 H   0  0  0  0  0  0  0  0  0  0  0  0
  148.1635  140.2810  153.7753 H   0  0  0  0  0  0  0  0  0  0  0  0
  150.5074  137.3667  153.6310 H   0  0  0  0  0  0  0  0  0  0  0  0
  151.9098  137.0327  154.5810 H   0  0  0  0  0  0  0  0  0  0  0  0
  149.0006  135.8943  153.7476 H   0  0  0  0  0  0  0  0  0  0  0  0
  148.4543  134.4628  156.2906 H   0  0  0  0  0  0  0  0  0  0  0  0
  149.7533  133.0315  154.6919 H   0  0  0  0  0  0  0  0  0  0  0  0
  148.1849  132.3943  155.1086 H   0  0  0  0  0  0  0  0  0  0  0  0
  148.8877  133.8499  152.5159 H   0  0  0  0  0  0  0  0  0  0  0  0
  148.5385  132.1489  152.6883 H   0  0  0  0  0  0  0  0  0  0  0  0
  146.5653  133.4015  151.8210 H   0  0  0  0  0  0  0  0  0  0  0  0
  146.2115  132.6307  153.3482 H   0  0  0  0  0  0  0  0  0  0  0  0
  146.9533  135.5628  152.9539 H   0  0  0  0  0  0  0  0  0  0  0  0
  144.2892  134.3270  153.7889 H   0  0  0  0  0  0  0  0  0  0  0  0
  144.6435  135.0560  152.2249 H   0  0  0  0  0  0  0  0  0  0  0  0
  144.6365  136.0506  153.6760 H   0  0  0  0  0  0  0  0  0  0  0  0
  146.1914  134.1333  155.5350 H   0  0  0  0  0  0  0  0  0  0  0  0
  146.5368  135.8327  155.3862 H   0  0  0  0  0  0  0  0  0  0  0  0
  1  2  1  0  0  0  0
  1 22  1  0  0  0  0
  1 23  1  0  0  0  0
  1 24  1  0  0  0  0
  2 20  1  0  0  0  0
  2  3  2  0  0  0  0
  3  4  1  0  0  0  0
  4  5  1  0  0  0  0
  4  6  2  0  0  0  0
  5 25  1  0  0  0  0
  5 26  1  0  0  0  0
  5 27  1  0  0  0  0
  6  7  1  0  0  0  0
  6 18  1  0  0  0  0
  7  8  1  0  0  0  0
  7 28  1  0  0  0  0
  7 29  1  0  0  0  0
  8  9  2  0  0  0  0
  8 10  1  0  0  0  0
 10 11  1  0  0  0  0
 10 30  1  0  0  0  0
 11 17  1  0  0  0  0
 11 12  1  0  0  0  0
 11 31  1  0  0  0  0
 12 13  1  0  0  0  0
 12 32  1  0  0  0  0
 12 33  1  0  0  0  0
 13 14  1  0  0  0  0
 13 34  1  0  0  0  0
 13 35  1  0  0  0  0
 14 15  1  0  0  0  0
 14 36  1  0  0  0  0
 14 37  1  0  0  0  0
 15 16  1  0  0  0  0
 15 17  1  0  0  0  0
 15 38  1  0  0  0  0
 16 39  1  0  0  0  0
 16 40  1  0  0  0  0
 16 41  1  0  0  0  0
 17 42  1  0  0  0  0
 17 43  1  0  0  0  0
 18 19  2  0  0  0  0
 18 20  1  0  0  0  0
 20 21  1  0  0  0  0
M  END
> <s_m_source_file>
AV-unprocessed.smi

> <i_m_source_file_index>
2198

> <i_lp_mmshare_version>
43012

> <i_f3d_flags>
0

> <s_epik_input>
W0NIM11jMW5jKFtDSDNdKWMoYyg9TylbbkhdMSlbQ0gyXUMoPU8pW05IXVtDQEBIXTJbQ0gyXVtDSDJdW0NIMl1bQ0BASF0oW0NIM10pW0NIMl0y

> <s_epik_cmdline>
J2VwaWtfcHl0aG9uJywgJy1waCcsICc3LjAnLCAnLXRuJywgJzgnLCAnLW1hJywgJzIwMCcsICctbWV0YWxfYmluZGluZycsICctaW1hZScsICc8aW5maWxlLm1hZT4nLCAnLW9tYWUnLCAnPG91dGZpbGUubWFlPic=

> <r_lp_tautomer_probability>
0.839158

> <r_epik_Ionization_Penalty>
0.000372587

> <r_epik_Ionization_Penalty_Charging>
0.000337977

> <r_epik_Ionization_Penalty_Neutral>
3.46101e-05

> <r_epik_State_Penalty>
0.09125

> <r_epik_Charging_Adjusted_Penalty>
0.091588

> <i_epik_Tot_Q>
0

> <i_epik_Tot_abs_Q>
0

> <r_epik_Metal_State_Penalty>
0.25197

> <b_epik_Metal_Only>
0

> <s_lp_Force_Field>
OPLS_2005

> <r_lp_Energy>
10.2455

> <b_lp_Chiralities_Consistent>
1

> <s_lp_Variant>
AV-unprocessed.smi:2198-1

> <Gold.Version>
5.8.1

> <Gold.Id.Protein>
6NUR|6NUR_protein|mol2

> <Gold.PLP.Fitness>
37.6292

> <Gold.PLP.PLP>
-32.5665

> <Gold.PLP.part.hbond>
-2.0000

> <Gold.PLP.part.metal>
0.0000

> <Gold.PLP.part.buried>
-2.4718

> <Gold.PLP.part.nonpolar>
-28.5539

> <Gold.PLP.part.repulsive>
0.2920

> <Gold.PLP.ligand.clash>
0.0000

> <Gold.PLP.ligand.torsion>
0.4610

> <Gold.PLP.Chemscore.Hbond>
1.9920

> <Gold.PLP.Chemscore.CHOScore>
0.0000

> <Gold.PLP.Chemscore.Metal>
0.0000

> <Gold.Chemscore.Hbonds>
donor molecule, donor type, donor heavy atom, donor atom, acceptor molecule, acceptor atom, score
      L1  H    10    30       P1  7948  1.00
      P1  H  7997  8008       L1    19  0.09

> <Gold.PLP.Chemscore.Internal.Correction>
0.0087

> <Gold.Rescore>
     Score         DG    S(hbond)    S(metal)    S(lipo)     H(rot)  DE(clash)    DE(int)     intcor
     14.23     -15.01       1.67        0.00      66.03       1.48       0.34       0.44       ----

> <Gold.Chemscore.Fitness>
14.2252

> <Gold.Chemscore.DG>
-15.0104

> <Gold.Chemscore.ZeroCoef>
-5.4800

> <Gold.Chemscore.Hbond>
1.6747

> <Gold.Chemscore.Metal>
0.0000

> <Gold.Chemscore.Lipo>
66.0328

> <Gold.Chemscore.Internal_Hbond>
0.0000

> <Gold.Chemscore.DEClash>
0.3432

> <Gold.Chemscore.DEInternal>
0.4420

> <Gold.Chemscore.Rot>
1.4801

> <Gold.Chemscore.Internal.Correction>
   9.000000E+99

> <Gold.Chemscore.Hbonds>
donor molecule, donor type, donor heavy atom, donor atom, acceptor molecule, acceptor atom, score
      L1  H    10    30       P1  7948  0.94
      P1  H  7997  8008       L1    19  0.01

> <Gold.Chemscore.Hbond.Weighted>
-5.5937

> <Gold.Chemscore.Metal.Weighted>
-0.0000

> <Gold.Chemscore.Lipo.Weighted>
-7.7258

> <Gold.Chemscore.Internal_Hbond.Weighted>
0.0000

> <Gold.Chemscore.DEClash.Weighted>
0.3432

> <Gold.Chemscore.DEInternal.Weighted>
0.4420

> <Gold.Chemscore.Rot.Weighted>
3.7891

> <Gold.Chemscore.Internal.Correction.Weighted>
   9.000000E+99

> <Gold.Protein.RotatedTorsions>
[ 6907 6896 6895 6894 ] final   66.67 input  -60.11 | X-H torsion
[ 7974 7965 7964 7962 ] final   50.51 input  175.53 | X-H torsion
[ 8008 7997 7996 7995 ] final  -50.58 input   59.86 | X-H torsion
[ 10167 10162 10161 10158 ] final  -97.17 input  -65.29 | X-H torsion
[ 10718 10713 10712 10709 ] final  -86.72 input   66.30 | X-H torsion
[ 10763 10752 10751 10750 ] final   -5.88 input  -60.55 | X-H torsion
[ 11005 11000 10999 10996 ] final  -77.83 input  -57.11 | X-H torsion

> <Gold.Protein.ActiveResidues>
 VAL166  LYS551  ARG553  GLY616  TRP617  ASP618  TYR619  PRO620  LYS621  CYS622 
 ASP623  PHE694  ASN695  SER759  ASP760  ASP761  ALA762  ILE779  LEU786  VAL792 
 PHE793  MET794  SER795  GLU796  ALA797  LYS798  CYS799  TRP800  GLU811  SER814 

> <Gold.Protein.RotatedAtoms>
  152.4498  134.5418  159.9841 H   0  0  0  0  0  0  0  0  0  0  0  0  # atno 6907 bound_to 6896
  151.5494  133.3414  159.2958 H   0  0  0  0  0  0  0  0  0  0  0  0  # atno 6908 bound_to 6896
  150.8423  134.7752  159.7006 H   0  0  0  0  0  0  0  0  0  0  0  0  # atno 6909 bound_to 6896
  146.0004  139.4433  143.0018 H   0  0  0  0  0  0  0  0  0  0  0  0  # atno 7974 bound_to 7965
  154.4065  140.1269  156.4689 H   0  0  0  0  0  0  0  0  0  0  0  0  # atno 8008 bound_to 7997
  155.7199  140.3493  155.4991 H   0  0  0  0  0  0  0  0  0  0  0  0  # atno 8009 bound_to 7997
  155.9224  140.1055  157.1186 H   0  0  0  0  0  0  0  0  0  0  0  0  # atno 8010 bound_to 7997
  140.2862  143.3250  152.0392 H   0  0  0  0  0  0  0  0  0  0  0  0  # atno 10167 bound_to 10162
  155.9988  130.4775  150.4758 H   0  0  0  0  0  0  0  0  0  0  0  0  # atno 10718 bound_to 10713
  153.4046  135.7006  153.6402 H   0  0  0  0  0  0  0  0  0  0  0  0  # atno 10763 bound_to 10752
  153.4921  135.3670  155.2497 H   0  0  0  0  0  0  0  0  0  0  0  0  # atno 10764 bound_to 10752
  154.8713  135.4091  154.3387 H   0  0  0  0  0  0  0  0  0  0  0  0  # atno 10765 bound_to 10752
  141.1662  133.7038  156.7880 H   0  0  0  0  0  0  0  0  0  0  0  0  # atno 11005 bound_to 11000
  145.7496  140.9977  143.1258 LP  0  0  0  0  0  0  0  0  0  0  0  0  # atno 17320 bound_to 7965
  144.6917  139.9198  143.7467 LP  0  0  0  0  0  0  0  0  0  0  0  0  # atno 17321 bound_to 7965
  139.4950  144.6557  151.6577 LP  0  0  0  0  0  0  0  0  0  0  0  0  # atno 17342 bound_to 10162
  140.5771  144.0010  150.6247 LP  0  0  0  0  0  0  0  0  0  0  0  0  # atno 17343 bound_to 10162
  157.2768  131.0598  151.2224 LP  0  0  0  0  0  0  0  0  0  0  0  0  # atno 17370 bound_to 10713
  157.3284  130.6973  149.6310 LP  0  0  0  0  0  0  0  0  0  0  0  0  # atno 17371 bound_to 10713
  140.2346  134.8660  157.3512 LP  0  0  0  0  0  0  0  0  0  0  0  0  # atno 17394 bound_to 11000
  140.1857  134.4435  155.7745 LP  0  0  0  0  0  0  0  0  0  0  0  0  # atno 17395 bound_to 11000

$$$$
