AV-unprocessed.smi:1952|AV-procd|sdf|7888|dock5
  -GOLD-   2272010 43D 1   1.00000     0.00000
 Structure written by MMmdl.
 38 39  0  0  0  0  0  0  0  0  2 V2000
  157.4190  145.2195  167.8733 C   0  0  0  0  0  0  0  0  0  0  0  0
  156.8197  144.5621  166.6771 C   0  0  0  0  0  0  0  0  0  0  0  0
  155.5338  144.2528  166.3356 C   0  0  0  0  0  0  0  0  0  0  0  0
  155.6742  143.6455  165.0577 C   0  0  0  0  0  0  0  0  0  0  0  0
  154.6783  143.1544  164.3043 N   0  5  0  0  0  0  0  0  0  0  0  0
  154.9301  142.1947  163.3840 C   0  0  0  0  0  0  0  0  0  0  0  0
  155.7942  141.3180  163.4608 O   0  0  0  0  0  0  0  0  0  0  0  0
  154.1311  142.2561  162.3085 N   0  0  0  0  0  0  0  0  0  0  0  0
  154.1764  141.3712  161.1453 C   0  0  1  0  0  0  0  0  0  0  0  0
  154.1455  139.9045  161.6016 C   0  0  0  0  0  0  0  0  0  0  0  0
  153.0016  141.6874  160.1967 C   0  0  0  0  0  0  0  0  0  0  0  0
  152.9798  143.0421  159.6409 N   0  0  0  0  0  0  0  0  0  0  0  0
  152.3396  143.1080  158.3293 C   0  0  0  0  0  0  0  0  0  0  0  0
  152.3118  144.5440  157.7771 C   0  0  0  0  0  0  0  0  0  0  0  0
  151.6600  145.4033  158.7069 O   0  0  0  0  0  0  0  0  0  0  0  0
  152.2875  145.4025  159.9848 C   0  0  0  0  0  0  0  0  0  0  0  0
  152.3108  143.9702  160.5453 C   0  0  0  0  0  0  0  0  0  0  0  0
  156.9357  143.5762  164.6667 N   0  0  0  0  0  0  0  0  0  0  0  0
  157.6764  144.1686  165.6963 O   0  0  0  0  0  0  0  0  0  0  0  0
  157.1507  144.6824  168.7828 H   0  0  0  0  0  0  0  0  0  0  0  0
  157.0622  146.2451  167.9678 H   0  0  0  0  0  0  0  0  0  0  0  0
  158.5068  145.2454  167.8049 H   0  0  0  0  0  0  0  0  0  0  0  0
  154.6349  144.4353  166.9050 H   0  0  0  0  0  0  0  0  0  0  0  0
  153.4422  142.9937  162.2886 H   0  0  0  0  0  0  0  0  0  0  0  0
  155.1105  141.5251  160.6040 H   0  0  0  0  0  0  0  0  0  0  0  0
  154.1873  139.2280  160.7479 H   0  0  0  0  0  0  0  0  0  0  0  0
  153.2358  139.6814  162.1597 H   0  0  0  0  0  0  0  0  0  0  0  0
  154.9959  139.6744  162.2445 H   0  0  0  0  0  0  0  0  0  0  0  0
  152.9926  140.9610  159.3826 H   0  0  0  0  0  0  0  0  0  0  0  0
  152.0753  141.5238  160.7494 H   0  0  0  0  0  0  0  0  0  0  0  0
  152.8688  142.4759  157.6171 H   0  0  0  0  0  0  0  0  0  0  0  0
  151.3204  142.7245  158.3945 H   0  0  0  0  0  0  0  0  0  0  0  0
  153.3247  144.9030  157.5886 H   0  0  0  0  0  0  0  0  0  0  0  0
  151.7789  144.5750  156.8269 H   0  0  0  0  0  0  0  0  0  0  0  0
  153.2997  145.8018  159.9023 H   0  0  0  0  0  0  0  0  0  0  0  0
  151.7357  146.0631  160.6535 H   0  0  0  0  0  0  0  0  0  0  0  0
  151.2875  143.6372  160.7260 H   0  0  0  0  0  0  0  0  0  0  0  0
  152.8135  143.9714  161.5131 H   0  0  0  0  0  0  0  0  0  0  0  0
  1  2  1  0  0  0  0
  1 20  1  0  0  0  0
  1 21  1  0  0  0  0
  1 22  1  0  0  0  0
  2 19  1  0  0  0  0
  2  3  2  0  0  0  0
  3  4  1  0  0  0  0
  3 23  1  0  0  0  0
  4  5  1  0  0  0  0
  4 18  2  0  0  0  0
  5  6  1  0  0  0  0
  6  7  2  0  0  0  0
  6  8  1  0  0  0  0
  8  9  1  0  0  0  0
  8 24  1  0  0  0  0
  9 10  1  0  0  0  0
  9 11  1  0  0  0  0
  9 25  1  0  0  0  0
 10 26  1  0  0  0  0
 10 27  1  0  0  0  0
 10 28  1  0  0  0  0
 11 12  1  0  0  0  0
 11 29  1  0  0  0  0
 11 30  1  0  0  0  0
 12 17  1  0  0  0  0
 12 13  1  0  0  0  0
 13 14  1  0  0  0  0
 13 31  1  0  0  0  0
 13 32  1  0  0  0  0
 14 15  1  0  0  0  0
 14 33  1  0  0  0  0
 14 34  1  0  0  0  0
 15 16  1  0  0  0  0
 16 17  1  0  0  0  0
 16 35  1  0  0  0  0
 16 36  1  0  0  0  0
 17 37  1  0  0  0  0
 17 38  1  0  0  0  0
 18 19  1  0  0  0  0
M  CHG  1   5  -1
M  END
> <s_m_source_file>
AV-unprocessed.smi

> <i_m_source_file_index>
1952

> <i_lp_mmshare_version>
43012

> <i_f3d_flags>
0

> <s_epik_input>
W0NIM11jMVtjSF1jKG5vMSlbTkhdQyg9TylbTkhdW0NASF0oW0NIM10pW0NIMl1OMltDSDJdW0NIMl1PW0NIMl1bQ0gyXTI=

> <s_epik_cmdline>
J2VwaWtfcHl0aG9uJywgJy1waCcsICc3LjAnLCAnLXRuJywgJzgnLCAnLW1hJywgJzIwMCcsICctbWV0YWxfYmluZGluZycsICctaW1hZScsICc8aW5maWxlLm1hZT4nLCAnLW9tYWUnLCAnPG91dGZpbGUubWFlPic=

> <r_epik_Ionization_Penalty>
6.81701

> <r_epik_Ionization_Penalty_Charging>
6.50532

> <r_epik_Ionization_Penalty_Neutral>
0.311686

> <r_epik_State_Penalty>
6.70952

> <r_epik_Charging_Adjusted_Penalty>
13.2148

> <i_epik_Tot_Q>
-1

> <i_epik_Tot_abs_Q>
1

> <r_epik_Metal_State_Penalty>
2.64135

> <b_epik_Metal_Only>
1

> <s_lp_Force_Field>
OPLS_2005

> <r_lp_Energy>
19.0911

> <b_lp_Chiralities_Consistent>
1

> <s_lp_Variant>
AV-unprocessed.smi:1952-6

> <Gold.Version>
5.8.1

> <Gold.Id.Protein>
6NUR|6NUR_protein|mol2

> <Gold.PLP.Fitness>
42.3089

> <Gold.PLP.PLP>
-43.6452

> <Gold.PLP.part.hbond>
-4.7420

> <Gold.PLP.part.metal>
0.0000

> <Gold.PLP.part.buried>
-2.8574

> <Gold.PLP.part.nonpolar>
-34.9138

> <Gold.PLP.part.repulsive>
0.2011

> <Gold.PLP.ligand.clash>
0.0000

> <Gold.PLP.ligand.torsion>
0.7082

> <Gold.PLP.Chemscore.Hbond>
0.0000

> <Gold.PLP.Chemscore.CHOScore>
0.0000

> <Gold.PLP.Chemscore.Metal>
0.0000

> <Gold.PLP.Chemscore.Internal.Correction>
0.0800

> <Gold.Rescore>
     Score         DG    S(hbond)    S(metal)    S(lipo)     H(rot)  DE(clash)    DE(int)     intcor
      8.28     -12.41       0.00        0.00      92.77       1.53       0.48       3.65       ----

> <Gold.Chemscore.Fitness>
8.2776

> <Gold.Chemscore.DG>
-12.4128

> <Gold.Chemscore.ZeroCoef>
-5.4800

> <Gold.Chemscore.Hbond>
0.0000

> <Gold.Chemscore.Metal>
0.0000

> <Gold.Chemscore.Lipo>
92.7689

> <Gold.Chemscore.Internal_Hbond>
0.0000

> <Gold.Chemscore.DEClash>
0.4808

> <Gold.Chemscore.DEInternal>
3.6544

> <Gold.Chemscore.Rot>
1.5317

> <Gold.Chemscore.Internal.Correction>
   9.000000E+99

> <Gold.Chemscore.Hbond.Weighted>
-0.0000

> <Gold.Chemscore.Metal.Weighted>
-0.0000

> <Gold.Chemscore.Lipo.Weighted>
-10.8540

> <Gold.Chemscore.Internal_Hbond.Weighted>
0.0000

> <Gold.Chemscore.DEClash.Weighted>
0.4808

> <Gold.Chemscore.DEInternal.Weighted>
3.6544

> <Gold.Chemscore.Rot.Weighted>
3.9211

> <Gold.Chemscore.Internal.Correction.Weighted>
   9.000000E+99

> <Gold.Protein.RotatedTorsions>
[ 6907 6896 6895 6894 ] final  -93.21 input  -60.11 | X-H torsion
[ 7974 7965 7964 7962 ] final   31.52 input  175.53 | X-H torsion
[ 8008 7997 7996 7995 ] final -131.38 input   59.86 | X-H torsion
[ 10167 10162 10161 10158 ] final  145.89 input  -65.29 | X-H torsion
[ 10718 10713 10712 10709 ] final -141.16 input   66.30 | X-H torsion
[ 10763 10752 10751 10750 ] final  -41.59 input  -60.55 | X-H torsion
[ 11005 11000 10999 10996 ] final  129.97 input  -57.11 | X-H torsion

> <Gold.Protein.ActiveResidues>
 VAL166  LYS551  ARG553  GLY616  TRP617  ASP618  TYR619  PRO620  LYS621  CYS622 
 ASP623  PHE694  ASN695  SER759  ASP760  ASP761  ALA762  ILE779  LEU786  VAL792 
 PHE793  MET794  SER795  GLU796  ALA797  LYS798  CYS799  TRP800  GLU811  SER814 

> <Gold.Protein.RotatedAtoms>
  150.6919  134.2002  159.4318 H   0  0  0  0  0  0  0  0  0  0  0  0  # atno 6907 bound_to 6896
  151.9969  134.9947  160.0573 H   0  0  0  0  0  0  0  0  0  0  0  0  # atno 6908 bound_to 6896
  152.1615  133.4550  159.4900 H   0  0  0  0  0  0  0  0  0  0  0  0  # atno 6909 bound_to 6896
  146.1545  139.6645  142.9076 H   0  0  0  0  0  0  0  0  0  0  0  0  # atno 7974 bound_to 7965
  155.3114  140.0457  157.3035 H   0  0  0  0  0  0  0  0  0  0  0  0  # atno 8008 bound_to 7997
  154.5431  140.2294  155.8574 H   0  0  0  0  0  0  0  0  0  0  0  0  # atno 8009 bound_to 7997
  156.1899  140.3053  155.9318 H   0  0  0  0  0  0  0  0  0  0  0  0  # atno 8010 bound_to 7997
  139.4917  144.5869  151.6760 H   0  0  0  0  0  0  0  0  0  0  0  0  # atno 10167 bound_to 10162
  156.3307  130.7584  151.1702 H   0  0  0  0  0  0  0  0  0  0  0  0  # atno 10718 bound_to 10713
  153.9650  135.6735  153.4746 H   0  0  0  0  0  0  0  0  0  0  0  0  # atno 10763 bound_to 10752
  153.0820  135.4918  154.8518 H   0  0  0  0  0  0  0  0  0  0  0  0  # atno 10764 bound_to 10752
  154.7251  135.3125  154.8944 H   0  0  0  0  0  0  0  0  0  0  0  0  # atno 10765 bound_to 10752
  139.9645  134.9594  156.9225 H   0  0  0  0  0  0  0  0  0  0  0  0  # atno 11005 bound_to 11000
  145.4743  141.0437  143.2681 LP  0  0  0  0  0  0  0  0  0  0  0  0  # atno 17320 bound_to 7965
  144.7945  139.6261  143.7099 LP  0  0  0  0  0  0  0  0  0  0  0  0  # atno 17321 bound_to 7965
  140.5487  144.0460  150.6118 LP  0  0  0  0  0  0  0  0  0  0  0  0  # atno 17342 bound_to 10162
  140.3507  143.2965  152.0490 LP  0  0  0  0  0  0  0  0  0  0  0  0  # atno 17343 bound_to 10162
  157.7430  131.0482  150.4983 LP  0  0  0  0  0  0  0  0  0  0  0  0  # atno 17370 bound_to 10713
  156.5148  130.4148  149.6282 LP  0  0  0  0  0  0  0  0  0  0  0  0  # atno 17371 bound_to 10713
  140.5427  134.0705  155.7346 LP  0  0  0  0  0  0  0  0  0  0  0  0  # atno 17394 bound_to 11000
  141.1324  133.9279  157.2507 LP  0  0  0  0  0  0  0  0  0  0  0  0  # atno 17395 bound_to 11000

$$$$
