AV-unprocessed.smi:2510|AV-procd|sdf|9870|dock1
  -GOLD-   2272013503D 1   1.00000     0.00000
 Structure written by MMmdl.
 48 49  0  0  0  0  0  0  0  0  1 V2000
  149.5181  142.5444  158.1422 C   0  0  0  0  0  0  0  0  0  0  0  0
  149.8637  141.0532  158.2903 C   0  0  0  0  0  0  0  0  0  0  0  0
  151.2280  140.6312  157.6851 C   0  0  0  0  0  0  0  0  0  0  0  0
  152.3285  141.5479  158.2764 C   0  0  0  0  0  0  0  0  0  0  0  0
  152.5755  141.4012  159.7879 C   0  0  0  0  0  0  0  0  0  0  0  0
  151.5874  139.1166  157.7349 C   0  0  1  0  0  0  0  0  0  0  0  0
  150.4143  138.2437  157.7769 N   0  0  0  0  0  0  0  0  0  0  0  0
  150.1438  137.3430  158.7328 C   0  0  0  0  0  0  0  0  0  0  0  0
  150.8280  137.2017  159.7459 O   0  0  0  0  0  0  0  0  0  0  0  0
  148.9195  136.4547  158.4990 C   0  0  0  0  0  0  0  0  0  0  0  0
  148.2472  136.1448  159.8116 C   0  0  0  0  0  0  0  0  0  0  0  0
  147.8762  134.8679  160.3277 C   0  0  0  0  0  0  0  0  0  0  0  0
  147.2630  135.1481  161.5159 C   0  0  0  0  0  0  0  0  0  0  0  0
  146.6321  134.2610  162.5343 C   0  0  0  0  0  0  0  0  0  0  0  0
  147.3050  136.5159  161.6570 N   0  0  0  0  0  0  0  0  0  0  0  0
  147.9070  137.1357  160.6255 N   0  0  0  0  0  0  0  0  0  0  0  0
  152.1674  139.2311  156.3122 C   0  0  1  0  0  0  0  0  0  0  0  0
  152.0805  138.0849  155.3050 C   0  0  0  0  0  0  0  0  0  0  0  0
  151.2978  140.4862  156.1357 C   0  0  1  0  0  0  0  0  0  0  0  0
  150.0567  140.1501  155.5246 O   0  0  0  0  0  0  0  0  0  0  0  0
  149.2276  141.2752  155.2907 C   0  0  0  0  0  0  0  0  0  0  0  0
  146.9305  137.0324  162.4402 H   0  0  0  0  0  0  0  0  0  0  0  0
  148.6115  142.7822  158.6986 H   0  0  0  0  0  0  0  0  0  0  0  0
  149.3367  142.8194  157.1038 H   0  0  0  0  0  0  0  0  0  0  0  0
  150.3146  143.1818  158.5263 H   0  0  0  0  0  0  0  0  0  0  0  0
  149.8382  140.8241  159.3555 H   0  0  0  0  0  0  0  0  0  0  0  0
  149.0514  140.4586  157.8752 H   0  0  0  0  0  0  0  0  0  0  0  0
  153.2704  141.4116  157.7463 H   0  0  0  0  0  0  0  0  0  0  0  0
  152.0741  142.5923  158.0968 H   0  0  0  0  0  0  0  0  0  0  0  0
  153.2715  142.1658  160.1331 H   0  0  0  0  0  0  0  0  0  0  0  0
  153.0149  140.4366  160.0388 H   0  0  0  0  0  0  0  0  0  0  0  0
  151.6565  141.5142  160.3622 H   0  0  0  0  0  0  0  0  0  0  0  0
  152.3394  138.8788  158.4894 H   0  0  0  0  0  0  0  0  0  0  0  0
  149.7944  138.2826  156.9803 H   0  0  0  0  0  0  0  0  0  0  0  0
  148.2237  136.9606  157.8289 H   0  0  0  0  0  0  0  0  0  0  0  0
  149.2342  135.5416  157.9919 H   0  0  0  0  0  0  0  0  0  0  0  0
  148.0229  133.8956  159.8809 H   0  0  0  0  0  0  0  0  0  0  0  0
  146.7598  133.2113  162.2688 H   0  0  0  0  0  0  0  0  0  0  0  0
  145.5631  134.4606  162.6118 H   0  0  0  0  0  0  0  0  0  0  0  0
  147.0792  134.4169  163.5162 H   0  0  0  0  0  0  0  0  0  0  0  0
  153.2089  139.5439  156.3993 H   0  0  0  0  0  0  0  0  0  0  0  0
  151.0512  137.7807  155.1164 H   0  0  0  0  0  0  0  0  0  0  0  0
  152.6210  137.2078  155.6608 H   0  0  0  0  0  0  0  0  0  0  0  0
  152.5132  138.3723  154.3470 H   0  0  0  0  0  0  0  0  0  0  0  0
  151.8335  141.2800  155.6132 H   0  0  0  0  0  0  0  0  0  0  0  0
  148.2814  140.9466  154.8612 H   0  0  0  0  0  0  0  0  0  0  0  0
  149.6952  141.9645  154.5867 H   0  0  0  0  0  0  0  0  0  0  0  0
  149.0102  141.8145  156.2125 H   0  0  0  0  0  0  0  0  0  0  0  0
  1  2  1  0  0  0  0
  1 23  1  0  0  0  0
  1 24  1  0  0  0  0
  1 25  1  0  0  0  0
  2  3  1  0  0  0  0
  2 26  1  0  0  0  0
  2 27  1  0  0  0  0
  3 19  1  0  0  0  0
  3  4  1  0  0  0  0
  3  6  1  0  0  0  0
  4  5  1  0  0  0  0
  4 28  1  0  0  0  0
  4 29  1  0  0  0  0
  5 30  1  0  0  0  0
  5 31  1  0  0  0  0
  5 32  1  0  0  0  0
  6  7  1  0  0  0  0
  6 17  1  0  0  0  0
  6 33  1  0  0  0  0
  7  8  1  0  0  0  0
  7 34  1  0  0  0  0
  8  9  2  0  0  0  0
  8 10  1  0  0  0  0
 10 11  1  0  0  0  0
 10 35  1  0  0  0  0
 10 36  1  0  0  0  0
 11 16  2  0  0  0  0
 11 12  1  0  0  0  0
 12 13  2  0  0  0  0
 12 37  1  0  0  0  0
 13 14  1  0  0  0  0
 13 15  1  0  0  0  0
 14 38  1  0  0  0  0
 14 39  1  0  0  0  0
 14 40  1  0  0  0  0
 15 22  1  0  0  0  0
 15 16  1  0  0  0  0
 17 18  1  0  0  0  0
 17 19  1  0  0  0  0
 17 41  1  0  0  0  0
 18 42  1  0  0  0  0
 18 43  1  0  0  0  0
 18 44  1  0  0  0  0
 19 20  1  0  0  0  0
 19 45  1  0  0  0  0
 20 21  1  0  0  0  0
 21 46  1  0  0  0  0
 21 47  1  0  0  0  0
 21 48  1  0  0  0  0
M  END
> <s_m_source_file>
AV-unprocessed.smi

> <i_m_source_file_index>
2510

> <i_lp_mmshare_version>
43012

> <i_f3d_flags>
0

> <s_epik_input>
W0NIM11PW0NAQEhdMVtDQEhdKFtDSDNdKVtDQEBIXShDMShbQ0gyXVtDSDNdKVtDSDJdW0NIM10pW05IXUMoPU8pW0NIMl1jMltjSF1jKFtDSDNdKVtuSF1uMg==

> <s_epik_cmdline>
J2VwaWtfcHl0aG9uJywgJy1waCcsICc3LjAnLCAnLXRuJywgJzgnLCAnLW1hJywgJzIwMCcsICctbWV0YWxfYmluZGluZycsICctaW1hZScsICc8aW5maWxlLm1hZT4nLCAnLW9tYWUnLCAnPG91dGZpbGUubWFlPic=

> <r_lp_tautomer_probability>
0.5

> <r_epik_Ionization_Penalty>
9.73156e-05

> <r_epik_Ionization_Penalty_Charging>
0

> <r_epik_Ionization_Penalty_Neutral>
9.73156e-05

> <r_epik_State_Penalty>
0.41068

> <r_epik_Charging_Adjusted_Penalty>
0.41068

> <i_epik_Tot_Q>
0

> <i_epik_Tot_abs_Q>
0

> <r_epik_Metal_State_Penalty>
0.410699

> <b_epik_Metal_Only>
0

> <s_lp_Force_Field>
OPLS_2005

> <r_lp_Energy>
26.8932

> <b_lp_Chiralities_Consistent>
1

> <s_lp_Variant>
AV-unprocessed.smi:2510-1

> <Gold.Version>
5.8.1

> <Gold.Id.Protein>
6NUR|6NUR_protein|mol2

> <Gold.PLP.Fitness>
41.2998

> <Gold.PLP.PLP>
-36.0037

> <Gold.PLP.part.hbond>
-2.8893

> <Gold.PLP.part.metal>
0.0000

> <Gold.PLP.part.buried>
-6.8474

> <Gold.PLP.part.nonpolar>
-27.5946

> <Gold.PLP.part.repulsive>
0.2610

> <Gold.PLP.ligand.clash>
0.0000

> <Gold.PLP.ligand.torsion>
0.8422

> <Gold.PLP.Chemscore.Hbond>
2.0881

> <Gold.PLP.Chemscore.CHOScore>
0.0000

> <Gold.PLP.Chemscore.Metal>
0.0000

> <Gold.Chemscore.Hbonds>
donor molecule, donor type, donor heavy atom, donor atom, acceptor molecule, acceptor atom, score
      P1  H  6896  6908       L1     9  0.78
      P1  H  6931  6943       L1    16  0.49
      P1  H  6934  6947       L1    16  0.76

> <Gold.PLP.Chemscore.Internal.Correction>
0.7162

> <Gold.Rescore>
     Score         DG    S(hbond)    S(metal)    S(lipo)     H(rot)  DE(clash)    DE(int)     intcor
     16.17     -16.99       1.84        0.00      85.38       1.81       0.01       0.82       ----

> <Gold.Chemscore.Fitness>
16.1694

> <Gold.Chemscore.DG>
-16.9933

> <Gold.Chemscore.ZeroCoef>
-5.4800

> <Gold.Chemscore.Hbond>
1.8437

> <Gold.Chemscore.Metal>
0.0000

> <Gold.Chemscore.Lipo>
85.3810

> <Gold.Chemscore.Internal_Hbond>
0.0000

> <Gold.Chemscore.DEClash>
0.0089

> <Gold.Chemscore.DEInternal>
0.8150

> <Gold.Chemscore.Rot>
1.8102

> <Gold.Chemscore.Internal.Correction>
   9.000000E+99

> <Gold.Chemscore.Hbonds>
donor molecule, donor type, donor heavy atom, donor atom, acceptor molecule, acceptor atom, score
      P1  H  6896  6908       L1     9  0.47
      P1  H  6931  6943       L1    16  0.03
      P1  H  6934  6947       L1    16  0.16

> <Gold.Chemscore.Hbond.Weighted>
-6.1578

> <Gold.Chemscore.Metal.Weighted>
-0.0000

> <Gold.Chemscore.Lipo.Weighted>
-9.9896

> <Gold.Chemscore.Internal_Hbond.Weighted>
0.0000

> <Gold.Chemscore.DEClash.Weighted>
0.0089

> <Gold.Chemscore.DEInternal.Weighted>
0.8150

> <Gold.Chemscore.Rot.Weighted>
4.6341

> <Gold.Chemscore.Internal.Correction.Weighted>
   9.000000E+99

> <Gold.Protein.RotatedTorsions>
[ 6907 6896 6895 6894 ] final -138.57 input  -60.11 | X-H torsion
[ 7974 7965 7964 7962 ] final  -19.96 input  175.53 | X-H torsion
[ 8008 7997 7996 7995 ] final   11.62 input   59.86 | X-H torsion
[ 10167 10162 10161 10158 ] final -143.54 input  -65.29 | X-H torsion
[ 10718 10713 10712 10709 ] final   78.31 input   66.30 | X-H torsion
[ 10763 10752 10751 10750 ] final  -97.31 input  -60.55 | X-H torsion
[ 11005 11000 10999 10996 ] final   -3.52 input  -57.11 | X-H torsion

> <Gold.Protein.ActiveResidues>
 VAL166  LYS551  ARG553  GLY616  TRP617  ASP618  TYR619  PRO620  LYS621  CYS622 
 ASP623  PHE694  ASN695  SER759  ASP760  ASP761  ALA762  ILE779  LEU786  VAL792 
 PHE793  MET794  SER795  GLU796  ALA797  LYS798  CYS799  TRP800  GLU811  SER814 

> <Gold.Protein.RotatedAtoms>
  151.0367  133.5742  159.2654 H   0  0  0  0  0  0  0  0  0  0  0  0  # atno 6907 bound_to 6896
  151.2803  135.0711  159.9177 H   0  0  0  0  0  0  0  0  0  0  0  0  # atno 6908 bound_to 6896
  152.5356  134.0083  159.7980 H   0  0  0  0  0  0  0  0  0  0  0  0  # atno 6909 bound_to 6896
  146.1814  140.4135  142.8493 H   0  0  0  0  0  0  0  0  0  0  0  0  # atno 7974 bound_to 7965
  154.8094  140.2865  155.5864 H   0  0  0  0  0  0  0  0  0  0  0  0  # atno 8008 bound_to 7997
  156.2986  140.2571  156.2909 H   0  0  0  0  0  0  0  0  0  0  0  0  # atno 8009 bound_to 7997
  154.9465  140.0380  157.2112 H   0  0  0  0  0  0  0  0  0  0  0  0  # atno 8010 bound_to 7997
  139.7984  143.7868  152.2656 H   0  0  0  0  0  0  0  0  0  0  0  0  # atno 10167 bound_to 10162
  157.6740  130.9862  150.1768 H   0  0  0  0  0  0  0  0  0  0  0  0  # atno 10718 bound_to 10713
  154.7316  135.5051  153.8974 H   0  0  0  0  0  0  0  0  0  0  0  0  # atno 10763 bound_to 10752
  153.0955  135.6671  153.9779 H   0  0  0  0  0  0  0  0  0  0  0  0  # atno 10764 bound_to 10752
  153.9579  135.3051  155.3414 H   0  0  0  0  0  0  0  0  0  0  0  0  # atno 10765 bound_to 10752
  140.6703  133.9242  155.8490 H   0  0  0  0  0  0  0  0  0  0  0  0  # atno 11005 bound_to 11000
  144.8321  140.6723  143.6284 LP  0  0  0  0  0  0  0  0  0  0  0  0  # atno 17320 bound_to 7965
  145.4066  139.1587  143.4148 LP  0  0  0  0  0  0  0  0  0  0  0  0  # atno 17321 bound_to 7965
  139.7980  144.7385  150.9863 LP  0  0  0  0  0  0  0  0  0  0  0  0  # atno 17342 bound_to 10162
  140.7820  143.4373  151.0603 LP  0  0  0  0  0  0  0  0  0  0  0  0  # atno 17343 bound_to 10162
  156.2510  130.3700  149.8233 LP  0  0  0  0  0  0  0  0  0  0  0  0  # atno 17370 bound_to 10713
  156.6006  130.8545  151.3431 LP  0  0  0  0  0  0  0  0  0  0  0  0  # atno 17371 bound_to 10713
  141.0397  134.0638  157.3916 LP  0  0  0  0  0  0  0  0  0  0  0  0  # atno 17394 bound_to 11000
  139.8984  135.0154  156.7146 LP  0  0  0  0  0  0  0  0  0  0  0  0  # atno 17395 bound_to 11000

$$$$
