AV-unprocessed.smi:1892|AV-procd|sdf|7670|dock5
  -GOLD-   22720 9403D 1   1.00000     0.00000
 Structure written by MMmdl.
 43 44  0  0  0  0  0  0  0  0  2 V2000
  151.4686  137.4996  158.3582 C   0  0  0  0  0  0  0  0  0  0  0  0
  151.9001  138.0211  156.9858 C   0  0  0  0  0  0  0  0  0  0  0  0
  152.8853  138.7568  156.9301 O   0  0  0  0  0  0  0  0  0  0  0  0
  151.1917  137.6642  155.8878 N   0  0  0  0  0  0  0  0  0  0  0  0
  151.4953  138.1694  154.5464 C   0  0  0  0  0  0  0  0  0  0  0  0
  150.3447  139.0799  154.0800 C   0  0  0  0  0  0  0  0  0  0  0  0
  149.0326  138.3796  154.1356 N   0  3  0  0  0  0  0  0  0  0  0  0
  147.9195  139.2515  153.6829 C   0  0  0  0  0  0  0  0  0  0  0  0
  146.6058  138.4756  153.4644 C   0  0  0  0  0  0  0  0  0  0  0  0
  146.8299  137.2445  152.7151 N   0  0  0  0  0  0  0  0  0  0  0  0
  145.8835  136.3368  152.4347 C   0  0  0  0  0  0  0  0  0  0  0  0
  144.7121  136.4513  152.7965 O   0  0  0  0  0  0  0  0  0  0  0  0
  146.3846  135.3093  151.7265 N   0  0  0  0  0  0  0  0  0  0  0  0
  145.6999  134.1650  151.2370 C   0  0  0  0  0  0  0  0  0  0  0  0
  146.5321  133.1349  150.7437 C   0  0  0  0  0  0  0  0  0  0  0  0
  145.9498  131.9585  150.2335 C   0  0  0  0  0  0  0  0  0  0  0  0
  144.5484  131.8424  150.2295 C   0  0  0  0  0  0  0  0  0  0  0  0
  143.7930  132.9144  150.7392 C   0  0  0  0  0  0  0  0  0  0  0  0
  144.3488  134.0426  151.2290 N   0  0  0  0  0  0  0  0  0  0  0  0
  148.7826  137.7321  155.4540 C   0  0  0  0  0  0  0  0  0  0  0  0
  149.9706  136.8535  155.8873 C   0  0  0  0  0  0  0  0  0  0  0  0
  150.4526  137.8186  158.5924 H   0  0  0  0  0  0  0  0  0  0  0  0
  152.1254  137.8848  159.1390 H   0  0  0  0  0  0  0  0  0  0  0  0
  151.5166  136.4109  158.3912 H   0  0  0  0  0  0  0  0  0  0  0  0
  152.4380  138.7163  154.5017 H   0  0  0  0  0  0  0  0  0  0  0  0
  151.6088  137.3264  153.8630 H   0  0  0  0  0  0  0  0  0  0  0  0
  150.3036  139.9722  154.7069 H   0  0  0  0  0  0  0  0  0  0  0  0
  150.5384  139.4166  153.0608 H   0  0  0  0  0  0  0  0  0  0  0  0
  147.7739  140.0645  154.3958 H   0  0  0  0  0  0  0  0  0  0  0  0
  148.2059  139.7177  152.7389 H   0  0  0  0  0  0  0  0  0  0  0  0
  146.1305  138.2488  154.4204 H   0  0  0  0  0  0  0  0  0  0  0  0
  145.8924  139.0706  152.8956 H   0  0  0  0  0  0  0  0  0  0  0  0
  147.7675  137.0761  152.3798 H   0  0  0  0  0  0  0  0  0  0  0  0
  147.3692  135.3500  151.5093 H   0  0  0  0  0  0  0  0  0  0  0  0
  147.6073  133.2404  150.7537 H   0  0  0  0  0  0  0  0  0  0  0  0
  146.5685  131.1600  149.8513 H   0  0  0  0  0  0  0  0  0  0  0  0
  144.0648  130.9564  149.8458 H   0  0  0  0  0  0  0  0  0  0  0  0
  142.7143  132.8657  150.7534 H   0  0  0  0  0  0  0  0  0  0  0  0
  148.6001  138.5012  156.2064 H   0  0  0  0  0  0  0  0  0  0  0  0
  147.8868  137.1141  155.4083 H   0  0  0  0  0  0  0  0  0  0  0  0
  150.0960  136.0268  155.1867 H   0  0  0  0  0  0  0  0  0  0  0  0
  149.7525  136.3886  156.8477 H   0  0  0  0  0  0  0  0  0  0  0  0
  149.0986  137.6315  153.4601 H   0  0  0  0  0  0  0  0  0  0  0  0
  1  2  1  0  0  0  0
  1 22  1  0  0  0  0
  1 23  1  0  0  0  0
  1 24  1  0  0  0  0
  2  3  2  0  0  0  0
  2  4  1  0  0  0  0
  4 21  1  0  0  0  0
  4  5  1  0  0  0  0
  5  6  1  0  0  0  0
  5 25  1  0  0  0  0
  5 26  1  0  0  0  0
  6  7  1  0  0  0  0
  6 27  1  0  0  0  0
  6 28  1  0  0  0  0
  7  8  1  0  0  0  0
  7 20  1  0  0  0  0
  7 43  1  0  0  0  0
  8  9  1  0  0  0  0
  8 29  1  0  0  0  0
  8 30  1  0  0  0  0
  9 10  1  0  0  0  0
  9 31  1  0  0  0  0
  9 32  1  0  0  0  0
 10 11  1  0  0  0  0
 10 33  1  0  0  0  0
 11 12  2  0  0  0  0
 11 13  1  0  0  0  0
 13 14  1  0  0  0  0
 13 34  1  0  0  0  0
 14 19  1  0  0  0  0
 14 15  2  0  0  0  0
 15 16  1  0  0  0  0
 15 35  1  0  0  0  0
 16 17  2  0  0  0  0
 16 36  1  0  0  0  0
 17 18  1  0  0  0  0
 17 37  1  0  0  0  0
 18 19  2  0  0  0  0
 18 38  1  0  0  0  0
 20 21  1  0  0  0  0
 20 39  1  0  0  0  0
 20 40  1  0  0  0  0
 21 41  1  0  0  0  0
 21 42  1  0  0  0  0
M  CHG  1   7   1
M  END
> <s_m_source_file>
AV-unprocessed.smi

> <i_m_source_file_index>
1892

> <i_lp_mmshare_version>
43012

> <i_f3d_flags>
0

> <s_epik_input>
W0NIM11DKD1PKU4xW0NIMl1bQ0gyXU4oW0NIMl1bQ0gyXTEpW0NIMl1bQ0gyXVtOSF1DKD1PKVtOSF1jMltjSF1bY0hdW2NIXVtjSF1uMg==

> <s_epik_cmdline>
J2VwaWtfcHl0aG9uJywgJy1waCcsICc3LjAnLCAnLXRuJywgJzgnLCAnLW1hJywgJzIwMCcsICctbWV0YWxfYmluZGluZycsICctaW1hZScsICc8aW5maWxlLm1hZT4nLCAnLW9tYWUnLCAnPG91dGZpbGUubWFlPic=

> <r_epik_Ionization_Penalty>
0.630068

> <r_epik_Ionization_Penalty_Charging>
0.630034

> <r_epik_Ionization_Penalty_Neutral>
3.4348e-05

> <r_epik_State_Penalty>
0.646805

> <r_epik_Charging_Adjusted_Penalty>
1.27684

> <i_epik_Tot_Q>
1

> <i_epik_Tot_abs_Q>
1

> <r_epik_Metal_State_Penalty>
0.646808

> <b_epik_Metal_Only>
0

> <s_lp_Force_Field>
OPLS_2005

> <r_lp_Energy>
41.8075

> <b_lp_Chiralities_Consistent>
1

> <s_lp_Variant>
AV-unprocessed.smi:1892-2

> <Gold.Version>
5.8.1

> <Gold.Id.Protein>
6NUR|6NUR_protein|mol2

> <Gold.PLP.Fitness>
50.1679

> <Gold.PLP.PLP>
-32.8280

> <Gold.PLP.part.hbond>
-3.8199

> <Gold.PLP.part.metal>
0.0000

> <Gold.PLP.part.buried>
-3.1089

> <Gold.PLP.part.nonpolar>
-24.9419

> <Gold.PLP.part.repulsive>
0.4189

> <Gold.PLP.ligand.clash>
0.0000

> <Gold.PLP.ligand.torsion>
0.1215

> <Gold.PLP.Chemscore.Hbond>
4.8960

> <Gold.PLP.Chemscore.CHOScore>
0.9514

> <Gold.PLP.Chemscore.Metal>
0.0000

> <Gold.Chemscore.Hbonds>
donor molecule, donor type, donor heavy atom, donor atom, acceptor molecule, acceptor atom, score
      L1  H     7    43       P1  7948  1.62
      L1  H    10    33       P1  7948  1.00
      L1  H    13    34       P1  7948  0.93
      P1  H  7997  8010       L1     3  0.96
      L1  C    18    38       P1 10186  0.81

> <Gold.PLP.Chemscore.Internal.Correction>
0.0405

> <Gold.Rescore>
     Score         DG    S(hbond)    S(metal)    S(lipo)     H(rot)  DE(clash)    DE(int)     intcor
     20.97     -22.47       3.75        0.00      73.91       1.64       0.12       1.38       ----

> <Gold.Chemscore.Fitness>
20.9714

> <Gold.Chemscore.DG>
-22.4728

> <Gold.Chemscore.ZeroCoef>
-5.4800

> <Gold.Chemscore.Hbond>
3.7548

> <Gold.Chemscore.Metal>
0.0000

> <Gold.Chemscore.Lipo>
73.9055

> <Gold.Chemscore.Internal_Hbond>
0.0000

> <Gold.Chemscore.DEClash>
0.1209

> <Gold.Chemscore.DEInternal>
1.3806

> <Gold.Chemscore.Rot>
1.6388

> <Gold.Chemscore.Internal.Correction>
   9.000000E+99

> <Gold.Chemscore.Hbonds>
donor molecule, donor type, donor heavy atom, donor atom, acceptor molecule, acceptor atom, score
      L1  H     7    43       P1  7948  0.80
      L1  H    10    33       P1  7948  0.92
      L1  H    13    34       P1  7948  0.82
      P1  H  7997  8010       L1     3  0.90

> <Gold.Chemscore.Hbond.Weighted>
-12.5411

> <Gold.Chemscore.Metal.Weighted>
-0.0000

> <Gold.Chemscore.Lipo.Weighted>
-8.6469

> <Gold.Chemscore.Internal_Hbond.Weighted>
0.0000

> <Gold.Chemscore.DEClash.Weighted>
0.1209

> <Gold.Chemscore.DEInternal.Weighted>
1.3806

> <Gold.Chemscore.Rot.Weighted>
4.1952

> <Gold.Chemscore.Internal.Correction.Weighted>
   9.000000E+99

> <Gold.Protein.RotatedTorsions>
[ 6907 6896 6895 6894 ] final   47.34 input  -60.11 | X-H torsion
[ 7974 7965 7964 7962 ] final -113.67 input  175.53 | X-H torsion
[ 8008 7997 7996 7995 ] final   73.44 input   59.86 | X-H torsion
[ 10167 10162 10161 10158 ] final -147.52 input  -65.29 | X-H torsion
[ 10718 10713 10712 10709 ] final -104.10 input   66.30 | X-H torsion
[ 10763 10752 10751 10750 ] final  148.27 input  -60.55 | X-H torsion
[ 11005 11000 10999 10996 ] final -158.19 input  -57.11 | X-H torsion

> <Gold.Protein.ActiveResidues>
 VAL166  LYS551  ARG553  GLY616  TRP617  ASP618  TYR619  PRO620  LYS621  CYS622 
 ASP623  PHE694  ASN695  SER759  ASP760  ASP761  ALA762  ILE779  LEU786  VAL792 
 PHE793  MET794  SER795  GLU796  ALA797  LYS798  CYS799  TRP800  GLU811  SER814 

> <Gold.Protein.RotatedAtoms>
  152.2669  134.7975  160.0420 H   0  0  0  0  0  0  0  0  0  0  0  0  # atno 6907 bound_to 6896
  151.8601  133.3450  159.3709 H   0  0  0  0  0  0  0  0  0  0  0  0  # atno 6908 bound_to 6896
  150.7137  134.5142  159.5666 H   0  0  0  0  0  0  0  0  0  0  0  0  # atno 6909 bound_to 6896
  145.1292  140.8715  143.3768 H   0  0  0  0  0  0  0  0  0  0  0  0  # atno 7974 bound_to 7965
  155.7838  140.3481  155.5311 H   0  0  0  0  0  0  0  0  0  0  0  0  # atno 8008 bound_to 7997
  155.8702  140.0985  157.1575 H   0  0  0  0  0  0  0  0  0  0  0  0  # atno 8009 bound_to 7997
  154.4017  140.1342  156.4056 H   0  0  0  0  0  0  0  0  0  0  0  0  # atno 8010 bound_to 7997
  139.7614  143.8371  152.2608 H   0  0  0  0  0  0  0  0  0  0  0  0  # atno 10167 bound_to 10162
  156.0291  130.5499  150.7348 H   0  0  0  0  0  0  0  0  0  0  0  0  # atno 10718 bound_to 10713
  154.0520  135.2881  155.3339 H   0  0  0  0  0  0  0  0  0  0  0  0  # atno 10763 bound_to 10752
  154.6863  135.5244  153.8334 H   0  0  0  0  0  0  0  0  0  0  0  0  # atno 10764 bound_to 10752
  153.0557  135.6594  154.0715 H   0  0  0  0  0  0  0  0  0  0  0  0  # atno 10765 bound_to 10752
  140.6564  134.4396  157.5235 H   0  0  0  0  0  0  0  0  0  0  0  0  # atno 11005 bound_to 11000
  145.0654  139.3073  143.5859 LP  0  0  0  0  0  0  0  0  0  0  0  0  # atno 17320 bound_to 7965
  146.3515  140.0110  142.8667 LP  0  0  0  0  0  0  0  0  0  0  0  0  # atno 17321 bound_to 7965
  139.8378  144.7224  150.9369 LP  0  0  0  0  0  0  0  0  0  0  0  0  # atno 17342 bound_to 10162
  140.7807  143.4011  151.1148 LP  0  0  0  0  0  0  0  0  0  0  0  0  # atno 17343 bound_to 10162
  157.4932  131.0912  151.0403 LP  0  0  0  0  0  0  0  0  0  0  0  0  # atno 17370 bound_to 10713
  157.0804  130.5900  149.5419 LP  0  0  0  0  0  0  0  0  0  0  0  0  # atno 17371 bound_to 10713
  139.9028  134.8517  156.1826 LP  0  0  0  0  0  0  0  0  0  0  0  0  # atno 17394 bound_to 11000
  141.0498  133.6894  156.1751 LP  0  0  0  0  0  0  0  0  0  0  0  0  # atno 17395 bound_to 11000

$$$$
