AV-unprocessed.smi:3273|AV-procd|sdf|12520|dock7
  -GOLD-   2272018433D 1   1.00000     0.00000
 Structure written by MMmdl.
 41 42  0  0  0  0  0  0  0  0  1 V2000
  148.5353  140.9105  154.2807 C   0  0  0  0  0  0  0  0  0  0  0  0
  148.5762  140.3717  155.7228 C   0  0  0  0  0  0  0  0  0  0  0  0
  147.7461  141.2996  156.6330 C   0  0  0  0  0  0  0  0  0  0  0  0
  150.0262  140.1676  156.2465 C   0  0  2  0  0  0  0  0  0  0  0  0
  150.9200  141.4084  156.0186 C   0  0  0  0  0  0  0  0  0  0  0  0
  150.4940  142.5364  156.8406 N   0  0  0  0  0  0  0  0  0  0  0  0
  150.5996  142.5937  158.1754 C   0  0  0  0  0  0  0  0  0  0  0  0
  151.0828  141.6860  158.8532 O   0  0  0  0  0  0  0  0  0  0  0  0
  150.0705  143.8693  158.8373 C   0  0  0  0  0  0  0  0  0  0  0  0
  151.1678  144.7363  159.4322 C   0  0  0  0  0  0  0  0  0  0  0  0
  152.4575  144.9822  158.6823 C   0  0  0  0  0  0  0  0  0  0  0  0
  152.4610  144.1231  159.9222 C   0  0  0  0  0  0  0  0  0  0  0  0
  150.6735  138.9253  155.6899 C   0  0  0  0  0  0  0  0  0  0  0  0
  150.8710  138.5502  154.3893 C   0  0  0  0  0  0  0  0  0  0  0  0
  151.5427  137.3011  154.4836 C   0  0  0  0  0  0  0  0  0  0  0  0
  151.7510  136.9318  155.7349 N   0  0  0  0  0  0  0  0  0  0  0  0
  151.2216  137.9267  156.4782 N   0  0  0  0  0  0  0  0  0  0  0  0
  151.2889  137.8358  157.9243 C   0  0  0  0  0  0  0  0  0  0  0  0
  149.0803  141.8507  154.1925 H   0  0  0  0  0  0  0  0  0  0  0  0
  147.5093  141.0930  153.9603 H   0  0  0  0  0  0  0  0  0  0  0  0
  148.9624  140.2053  153.5687 H   0  0  0  0  0  0  0  0  0  0  0  0
  148.0782  139.4011  155.7254 H   0  0  0  0  0  0  0  0  0  0  0  0
  148.2178  142.2776  156.7335 H   0  0  0  0  0  0  0  0  0  0  0  0
  147.6171  140.8875  157.6338 H   0  0  0  0  0  0  0  0  0  0  0  0
  146.7460  141.4556  156.2278 H   0  0  0  0  0  0  0  0  0  0  0  0
  149.9411  140.0493  157.3269 H   0  0  0  0  0  0  0  0  0  0  0  0
  151.9556  141.1589  156.2572 H   0  0  0  0  0  0  0  0  0  0  0  0
  150.8983  141.7253  154.9763 H   0  0  0  0  0  0  0  0  0  0  0  0
  150.0811  143.3233  156.3611 H   0  0  0  0  0  0  0  0  0  0  0  0
  149.5159  144.4515  158.0998 H   0  0  0  0  0  0  0  0  0  0  0  0
  149.3657  143.5988  159.6240 H   0  0  0  0  0  0  0  0  0  0  0  0
  150.7925  145.5737  160.0182 H   0  0  0  0  0  0  0  0  0  0  0  0
  152.5952  144.4816  157.7260 H   0  0  0  0  0  0  0  0  0  0  0  0
  152.8999  145.9735  158.7565 H   0  0  0  0  0  0  0  0  0  0  0  0
  152.9022  144.5408  160.8248 H   0  0  0  0  0  0  0  0  0  0  0  0
  152.5974  143.0515  159.7893 H   0  0  0  0  0  0  0  0  0  0  0  0
  150.5785  139.0914  153.5017 H   0  0  0  0  0  0  0  0  0  0  0  0
  151.8850  136.6586  153.6859 H   0  0  0  0  0  0  0  0  0  0  0  0
  151.8343  138.6926  158.3204 H   0  0  0  0  0  0  0  0  0  0  0  0
  151.7996  136.9219  158.2307 H   0  0  0  0  0  0  0  0  0  0  0  0
  150.2803  137.8298  158.3380 H   0  0  0  0  0  0  0  0  0  0  0  0
  1  2  1  0  0  0  0
  1 19  1  0  0  0  0
  1 20  1  0  0  0  0
  1 21  1  0  0  0  0
  2  3  1  0  0  0  0
  2  4  1  0  0  0  0
  2 22  1  0  0  0  0
  3 23  1  0  0  0  0
  3 24  1  0  0  0  0
  3 25  1  0  0  0  0
  4  5  1  0  0  0  0
  4 13  1  0  0  0  0
  4 26  1  0  0  0  0
  5  6  1  0  0  0  0
  5 27  1  0  0  0  0
  5 28  1  0  0  0  0
  6  7  1  0  0  0  0
  6 29  1  0  0  0  0
  7  8  2  0  0  0  0
  7  9  1  0  0  0  0
  9 10  1  0  0  0  0
  9 30  1  0  0  0  0
  9 31  1  0  0  0  0
 10 12  1  0  0  0  0
 10 11  1  0  0  0  0
 10 32  1  0  0  0  0
 11 12  1  0  0  0  0
 11 33  1  0  0  0  0
 11 34  1  0  0  0  0
 12 35  1  0  0  0  0
 12 36  1  0  0  0  0
 13 17  1  0  0  0  0
 13 14  2  0  0  0  0
 14 15  1  0  0  0  0
 14 37  1  0  0  0  0
 15 16  2  0  0  0  0
 15 38  1  0  0  0  0
 16 17  1  0  0  0  0
 17 18  1  0  0  0  0
 18 39  1  0  0  0  0
 18 40  1  0  0  0  0
 18 41  1  0  0  0  0
M  END
> <s_m_source_file>
AV-unprocessed.smi

> <i_m_source_file_index>
3273

> <i_lp_mmshare_version>
43012

> <i_f3d_flags>
0

> <s_epik_input>
W0NIM11uMW5bY0hdW2NIXWMxW0NASF0oW0NIXShbQ0gzXSlbQ0gzXSlbQ0gyXVtOSF1DKD1PKVtDSDJdW0NIXTJbQ0gyXVtDSDJdMg==

> <s_epik_cmdline>
J2VwaWtfcHl0aG9uJywgJy1waCcsICc3LjAnLCAnLXRuJywgJzgnLCAnLW1hJywgJzIwMCcsICctbWV0YWxfYmluZGluZycsICctaW1hZScsICc8aW5maWxlLm1hZT4nLCAnLW9tYWUnLCAnPG91dGZpbGUubWFlPic=

> <r_lp_tautomer_probability>
1

> <r_epik_Ionization_Penalty>
0.00116261

> <r_epik_Ionization_Penalty_Charging>
0

> <r_epik_Ionization_Penalty_Neutral>
0.00116261

> <r_epik_State_Penalty>
-0

> <r_epik_Charging_Adjusted_Penalty>
0

> <i_epik_Tot_Q>
0

> <i_epik_Tot_abs_Q>
0

> <r_epik_Metal_State_Penalty>
-0

> <b_epik_Metal_Only>
0

> <s_lp_Force_Field>
OPLS_2005

> <r_lp_Energy>
13.9008

> <b_lp_Chiralities_Consistent>
1

> <s_lp_Variant>
AV-unprocessed.smi:3273-1

> <Gold.Version>
5.8.1

> <Gold.Id.Protein>
6NUR|6NUR_protein|mol2

> <Gold.PLP.Fitness>
41.7510

> <Gold.PLP.PLP>
-33.7483

> <Gold.PLP.part.hbond>
-2.0000

> <Gold.PLP.part.metal>
0.0000

> <Gold.PLP.part.buried>
-4.8962

> <Gold.PLP.part.nonpolar>
-27.0296

> <Gold.PLP.part.repulsive>
0.1172

> <Gold.PLP.ligand.clash>
0.0000

> <Gold.PLP.ligand.torsion>
0.8465

> <Gold.PLP.Chemscore.Hbond>
1.9913

> <Gold.PLP.Chemscore.CHOScore>
1.0000

> <Gold.PLP.Chemscore.Metal>
0.0000

> <Gold.Chemscore.Hbonds>
donor molecule, donor type, donor heavy atom, donor atom, acceptor molecule, acceptor atom, score
      L1  H     6    29       P1  8028  1.00
      P1  H 10752 10765       L1    16  0.09
      L1  C    15    38       P1  7949  1.00

> <Gold.PLP.Chemscore.Internal.Correction>
0.7220

> <Gold.Rescore>
     Score         DG    S(hbond)    S(metal)    S(lipo)     H(rot)  DE(clash)    DE(int)     intcor
     15.05     -16.40       1.00        0.00     100.62       1.64       0.34       1.01       ----

> <Gold.Chemscore.Fitness>
15.0547

> <Gold.Chemscore.DG>
-16.4008

> <Gold.Chemscore.ZeroCoef>
-5.4800

> <Gold.Chemscore.Hbond>
1.0044

> <Gold.Chemscore.Metal>
0.0000

> <Gold.Chemscore.Lipo>
100.6177

> <Gold.Chemscore.Internal_Hbond>
0.0000

> <Gold.Chemscore.DEClash>
0.3401

> <Gold.Chemscore.DEInternal>
1.0060

> <Gold.Chemscore.Rot>
1.6430

> <Gold.Chemscore.Internal.Correction>
   9.000000E+99

> <Gold.Chemscore.Hbonds>
donor molecule, donor type, donor heavy atom, donor atom, acceptor molecule, acceptor atom, score
      L1  H     6    29       P1  8028  0.98

> <Gold.Chemscore.Hbond.Weighted>
-3.3547

> <Gold.Chemscore.Metal.Weighted>
-0.0000

> <Gold.Chemscore.Lipo.Weighted>
-11.7723

> <Gold.Chemscore.Internal_Hbond.Weighted>
0.0000

> <Gold.Chemscore.DEClash.Weighted>
0.3401

> <Gold.Chemscore.DEInternal.Weighted>
1.0060

> <Gold.Chemscore.Rot.Weighted>
4.2062

> <Gold.Chemscore.Internal.Correction.Weighted>
   9.000000E+99

> <Gold.Protein.RotatedTorsions>
[ 6907 6896 6895 6894 ] final  134.07 input  -60.11 | X-H torsion
[ 7974 7965 7964 7962 ] final  102.34 input  175.53 | X-H torsion
[ 8008 7997 7996 7995 ] final   38.36 input   59.86 | X-H torsion
[ 10167 10162 10161 10158 ] final  107.05 input  -65.29 | X-H torsion
[ 10718 10713 10712 10709 ] final  -35.89 input   66.30 | X-H torsion
[ 10763 10752 10751 10750 ] final -167.86 input  -60.55 | X-H torsion
[ 11005 11000 10999 10996 ] final -141.17 input  -57.11 | X-H torsion

> <Gold.Protein.ActiveResidues>
 VAL166  LYS551  ARG553  GLY616  TRP617  ASP618  TYR619  PRO620  LYS621  CYS622 
 ASP623  PHE694  ASN695  SER759  ASP760  ASP761  ALA762  ILE779  LEU786  VAL792 
 PHE793  MET794  SER795  GLU796  ALA797  LYS798  CYS799  TRP800  GLU811  SER814 

> <Gold.Protein.RotatedAtoms>
  152.3153  133.5795  159.5707 H   0  0  0  0  0  0  0  0  0  0  0  0  # atno 6907 bound_to 6896
  150.7343  134.0092  159.3673 H   0  0  0  0  0  0  0  0  0  0  0  0  # atno 6908 bound_to 6896
  151.7981  135.0717  160.0447 H   0  0  0  0  0  0  0  0  0  0  0  0  # atno 6909 bound_to 6896
  145.3603  139.2419  143.3510 H   0  0  0  0  0  0  0  0  0  0  0  0  # atno 7974 bound_to 7965
  155.2189  140.3329  155.4318 H   0  0  0  0  0  0  0  0  0  0  0  0  # atno 8008 bound_to 7997
  156.2341  140.1864  156.7214 H   0  0  0  0  0  0  0  0  0  0  0  0  # atno 8009 bound_to 7997
  154.6028  140.0620  156.9377 H   0  0  0  0  0  0  0  0  0  0  0  0  # atno 8010 bound_to 7997
  139.6959  144.7101  151.1269 H   0  0  0  0  0  0  0  0  0  0  0  0  # atno 10167 bound_to 10162
  156.3333  130.4282  149.7852 H   0  0  0  0  0  0  0  0  0  0  0  0  # atno 10718 bound_to 10713
  154.6688  135.2936  154.9769 H   0  0  0  0  0  0  0  0  0  0  0  0  # atno 10763 bound_to 10752
  154.0804  135.6605  153.4841 H   0  0  0  0  0  0  0  0  0  0  0  0  # atno 10764 bound_to 10752
  153.0474  135.5196  154.7674 H   0  0  0  0  0  0  0  0  0  0  0  0  # atno 10765 bound_to 10752
  140.8350  134.2471  157.4838 H   0  0  0  0  0  0  0  0  0  0  0  0  # atno 11005 bound_to 11000
  146.2930  140.4236  142.8732 LP  0  0  0  0  0  0  0  0  0  0  0  0  # atno 17320 bound_to 7965
  144.8651  140.7194  143.6082 LP  0  0  0  0  0  0  0  0  0  0  0  0  # atno 17321 bound_to 7965
  140.7696  143.5493  150.9223 LP  0  0  0  0  0  0  0  0  0  0  0  0  # atno 17342 bound_to 10162
  139.9172  143.6649  152.3104 LP  0  0  0  0  0  0  0  0  0  0  0  0  # atno 17343 bound_to 10162
  156.5116  130.8175  151.3171 LP  0  0  0  0  0  0  0  0  0  0  0  0  # atno 17370 bound_to 10713
  157.7434  130.9912  150.2592 LP  0  0  0  0  0  0  0  0  0  0  0  0  # atno 17371 bound_to 10713
  139.8704  134.9606  156.4369 LP  0  0  0  0  0  0  0  0  0  0  0  0  # atno 17394 bound_to 11000
  140.8957  133.7816  155.9622 LP  0  0  0  0  0  0  0  0  0  0  0  0  # atno 17395 bound_to 11000

$$$$
