AV-unprocessed.smi:3293|AV-procd|sdf|12630|dock8
  -GOLD-   2272018563D 1   1.00000     0.00000
 Structure written by MMmdl.
 44 45  0  0  0  0  0  0  0  0  2 V2000
  151.8370  144.4322  157.4605 C   0  0  0  0  0  0  0  0  0  0  0  0
  152.0669  143.2517  158.3898 C   0  0  0  0  0  0  0  0  0  0  0  0
  152.8465  143.4005  159.4780 C   0  0  0  0  0  0  0  0  0  0  0  0
  153.2057  142.2824  160.4290 C   0  0  0  0  0  0  0  0  0  0  0  0
  153.0179  140.9161  159.7660 C   0  0  0  0  0  0  0  0  0  0  0  0
  151.6378  140.8011  159.0981 C   0  0  2  0  0  0  0  0  0  0  0  0
  151.4622  139.3793  158.5299 C   0  0  0  0  0  0  0  0  0  0  0  0
  151.4042  141.9075  158.0231 C   0  0  1  0  0  0  0  0  0  0  0  0
  149.8879  142.0466  157.7234 C   0  0  0  0  0  0  0  0  0  0  0  0
  149.5889  142.1051  156.2776 N   0  3  0  0  0  0  0  0  0  0  0  0
  148.4860  141.2213  155.8543 C   0  0  0  0  0  0  0  0  0  0  0  0
  147.9140  141.6629  154.5010 C   0  0  0  0  0  0  0  0  0  0  0  0
  146.7229  142.5625  154.6753 C   0  0  0  0  0  0  0  0  0  0  0  0
  145.9634  142.7879  155.8589 C   0  0  0  0  0  0  0  0  0  0  0  0
  144.9676  143.6392  155.6767 N   0  0  0  0  0  0  0  0  0  0  0  0
  145.0570  143.9888  154.3771 N   0  0  0  0  0  0  0  0  0  0  0  0
  144.1048  144.9279  153.8239 C   0  0  0  0  0  0  0  0  0  0  0  0
  146.1069  143.3552  153.7476 C   0  0  0  0  0  0  0  0  0  0  0  0
  152.0506  144.1539  156.4282 H   0  0  0  0  0  0  0  0  0  0  0  0
  152.4870  145.2698  157.7163 H   0  0  0  0  0  0  0  0  0  0  0  0
  150.8091  144.7878  157.5288 H   0  0  0  0  0  0  0  0  0  0  0  0
  153.2721  144.3666  159.7084 H   0  0  0  0  0  0  0  0  0  0  0  0
  154.2431  142.3996  160.7438 H   0  0  0  0  0  0  0  0  0  0  0  0
  152.5868  142.3701  161.3226 H   0  0  0  0  0  0  0  0  0  0  0  0
  153.7985  140.7634  159.0192 H   0  0  0  0  0  0  0  0  0  0  0  0
  153.1484  140.1319  160.5128 H   0  0  0  0  0  0  0  0  0  0  0  0
  150.8956  140.9351  159.8869 H   0  0  0  0  0  0  0  0  0  0  0  0
  152.1713  139.1854  157.7245 H   0  0  0  0  0  0  0  0  0  0  0  0
  150.4614  139.2065  158.1377 H   0  0  0  0  0  0  0  0  0  0  0  0
  151.6314  138.6283  159.3022 H   0  0  0  0  0  0  0  0  0  0  0  0
  151.9038  141.5789  157.1103 H   0  0  0  0  0  0  0  0  0  0  0  0
  149.3301  141.2033  158.1272 H   0  0  0  0  0  0  0  0  0  0  0  0
  149.4941  142.9369  158.2163 H   0  0  0  0  0  0  0  0  0  0  0  0
  149.3455  143.0568  156.0415 H   0  0  0  0  0  0  0  0  0  0  0  0
  148.8533  140.1962  155.7877 H   0  0  0  0  0  0  0  0  0  0  0  0
  147.7032  141.2364  156.6139 H   0  0  0  0  0  0  0  0  0  0  0  0
  148.6919  142.1693  153.9282 H   0  0  0  0  0  0  0  0  0  0  0  0
  147.6429  140.7815  153.9186 H   0  0  0  0  0  0  0  0  0  0  0  0
  146.1045  142.3582  156.8399 H   0  0  0  0  0  0  0  0  0  0  0  0
  144.2972  145.0741  152.7608 H   0  0  0  0  0  0  0  0  0  0  0  0
  144.1931  145.8870  154.3352 H   0  0  0  0  0  0  0  0  0  0  0  0
  143.0917  144.5458  153.9510 H   0  0  0  0  0  0  0  0  0  0  0  0
  146.3262  143.5185  152.7025 H   0  0  0  0  0  0  0  0  0  0  0  0
  150.4217  141.8486  155.7667 H   0  0  0  0  0  0  0  0  0  0  0  0
  1  2  1  0  0  0  0
  1 19  1  0  0  0  0
  1 20  1  0  0  0  0
  1 21  1  0  0  0  0
  2  8  1  0  0  0  0
  2  3  2  0  0  0  0
  3  4  1  0  0  0  0
  3 22  1  0  0  0  0
  4  5  1  0  0  0  0
  4 23  1  0  0  0  0
  4 24  1  0  0  0  0
  5  6  1  0  0  0  0
  5 25  1  0  0  0  0
  5 26  1  0  0  0  0
  6  7  1  0  0  0  0
  6  8  1  0  0  0  0
  6 27  1  0  0  0  0
  7 28  1  0  0  0  0
  7 29  1  0  0  0  0
  7 30  1  0  0  0  0
  8  9  1  0  0  0  0
  8 31  1  0  0  0  0
  9 10  1  0  0  0  0
  9 32  1  0  0  0  0
  9 33  1  0  0  0  0
 10 11  1  0  0  0  0
 10 34  1  0  0  0  0
 10 44  1  0  0  0  0
 11 12  1  0  0  0  0
 11 35  1  0  0  0  0
 11 36  1  0  0  0  0
 12 13  1  0  0  0  0
 12 37  1  0  0  0  0
 12 38  1  0  0  0  0
 13 18  2  0  0  0  0
 13 14  1  0  0  0  0
 14 15  2  0  0  0  0
 14 39  1  0  0  0  0
 15 16  1  0  0  0  0
 16 17  1  0  0  0  0
 16 18  1  0  0  0  0
 17 40  1  0  0  0  0
 17 41  1  0  0  0  0
 17 42  1  0  0  0  0
 18 43  1  0  0  0  0
M  CHG  1  10   1
M  END
> <s_m_source_file>
AV-unprocessed.smi

> <i_m_source_file_index>
3293

> <i_lp_mmshare_version>
43012

> <i_f3d_flags>
0

> <s_epik_input>
W0NIM11DMT1bQ0hdW0NIMl1bQ0gyXVtDQEBIXShbQ0gzXSlbQ0BIXTFbQ0gyXVtOSF1bQ0gyXVtDSDJdYzJbY0hdbm4oW0NIM10pW2NIXTI=

> <s_epik_cmdline>
J2VwaWtfcHl0aG9uJywgJy1waCcsICc3LjAnLCAnLXRuJywgJzgnLCAnLW1hJywgJzIwMCcsICctbWV0YWxfYmluZGluZycsICctaW1hZScsICc8aW5maWxlLm1hZT4nLCAnLW9tYWUnLCAnPG91dGZpbGUubWFlPic=

> <r_lp_tautomer_probability>
1

> <r_epik_Ionization_Penalty>
0.000598621

> <r_epik_Ionization_Penalty_Charging>
0.000582095

> <r_epik_Ionization_Penalty_Neutral>
1.65262e-05

> <r_epik_State_Penalty>
-0

> <r_epik_Charging_Adjusted_Penalty>
0.000582095

> <i_epik_Tot_Q>
1

> <i_epik_Tot_abs_Q>
1

> <r_epik_Metal_State_Penalty>
-0

> <b_epik_Metal_Only>
0

> <s_lp_Force_Field>
OPLS_2005

> <r_lp_Energy>
11.6167

> <b_lp_Chiralities_Consistent>
1

> <s_lp_Variant>
AV-unprocessed.smi:3293-2

> <Gold.Version>
5.8.1

> <Gold.Id.Protein>
6NUR|6NUR_protein|mol2

> <Gold.PLP.Fitness>
46.2974

> <Gold.PLP.PLP>
-43.0595

> <Gold.PLP.part.hbond>
-1.0000

> <Gold.PLP.part.metal>
0.0000

> <Gold.PLP.part.buried>
-5.3202

> <Gold.PLP.part.nonpolar>
-37.0684

> <Gold.PLP.part.repulsive>
0.2306

> <Gold.PLP.ligand.clash>
0.0000

> <Gold.PLP.ligand.torsion>
1.4247

> <Gold.PLP.Chemscore.Hbond>
2.0000

> <Gold.PLP.Chemscore.CHOScore>
0.0000

> <Gold.PLP.Chemscore.Metal>
0.0000

> <Gold.Chemscore.Hbonds>
donor molecule, donor type, donor heavy atom, donor atom, acceptor molecule, acceptor atom, score
      L1  H    10    34       P1  8028  2.00

> <Gold.PLP.Chemscore.Internal.Correction>
0.0873

> <Gold.Rescore>
     Score         DG    S(hbond)    S(metal)    S(lipo)     H(rot)  DE(clash)    DE(int)     intcor
     17.53     -19.08       1.00        0.00     120.21       1.48       0.22       1.33       ----

> <Gold.Chemscore.Fitness>
17.5333

> <Gold.Chemscore.DG>
-19.0832

> <Gold.Chemscore.ZeroCoef>
-5.4800

> <Gold.Chemscore.Hbond>
1.0000

> <Gold.Chemscore.Metal>
0.0000

> <Gold.Chemscore.Lipo>
120.2051

> <Gold.Chemscore.Internal_Hbond>
0.0000

> <Gold.Chemscore.DEClash>
0.2212

> <Gold.Chemscore.DEInternal>
1.3287

> <Gold.Chemscore.Rot>
1.4847

> <Gold.Chemscore.Internal.Correction>
   9.000000E+99

> <Gold.Chemscore.Hbonds>
donor molecule, donor type, donor heavy atom, donor atom, acceptor molecule, acceptor atom, score
      L1  H    10    34       P1  8028  1.00

> <Gold.Chemscore.Hbond.Weighted>
-3.3400

> <Gold.Chemscore.Metal.Weighted>
-0.0000

> <Gold.Chemscore.Lipo.Weighted>
-14.0640

> <Gold.Chemscore.Internal_Hbond.Weighted>
0.0000

> <Gold.Chemscore.DEClash.Weighted>
0.2212

> <Gold.Chemscore.DEInternal.Weighted>
1.3287

> <Gold.Chemscore.Rot.Weighted>
3.8008

> <Gold.Chemscore.Internal.Correction.Weighted>
   9.000000E+99

> <Gold.Protein.RotatedTorsions>
[ 6907 6896 6895 6894 ] final   68.99 input  -60.11 | X-H torsion
[ 7974 7965 7964 7962 ] final   45.17 input  175.53 | X-H torsion
[ 8008 7997 7996 7995 ] final  116.19 input   59.86 | X-H torsion
[ 10167 10162 10161 10158 ] final  -69.96 input  -65.29 | X-H torsion
[ 10718 10713 10712 10709 ] final   19.14 input   66.30 | X-H torsion
[ 10763 10752 10751 10750 ] final  149.66 input  -60.55 | X-H torsion
[ 11005 11000 10999 10996 ] final -149.13 input  -57.11 | X-H torsion

> <Gold.Protein.ActiveResidues>
 VAL166  LYS551  ARG553  GLY616  TRP617  ASP618  TYR619  PRO620  LYS621  CYS622 
 ASP623  PHE694  ASN695  SER759  ASP760  ASP761  ALA762  ILE779  LEU786  VAL792 
 PHE793  MET794  SER795  GLU796  ALA797  LYS798  CYS799  TRP800  GLU811  SER814 

> <Gold.Protein.RotatedAtoms>
  152.4657  134.5082  159.9745 H   0  0  0  0  0  0  0  0  0  0  0  0  # atno 6907 bound_to 6896
  151.5120  133.3477  159.2894 H   0  0  0  0  0  0  0  0  0  0  0  0  # atno 6908 bound_to 6896
  150.8640  134.8027  159.7166 H   0  0  0  0  0  0  0  0  0  0  0  0  # atno 6909 bound_to 6896
  146.0503  139.4993  142.9722 H   0  0  0  0  0  0  0  0  0  0  0  0  # atno 7974 bound_to 7965
  156.2425  140.2923  156.0484 H   0  0  0  0  0  0  0  0  0  0  0  0  # atno 8008 bound_to 7997
  155.1908  140.0407  157.2917 H   0  0  0  0  0  0  0  0  0  0  0  0  # atno 8009 bound_to 7997
  154.6196  140.2472  155.7573 H   0  0  0  0  0  0  0  0  0  0  0  0  # atno 8010 bound_to 7997
  140.5390  143.2316  151.7124 H   0  0  0  0  0  0  0  0  0  0  0  0  # atno 10167 bound_to 10162
  157.1063  130.6489  149.5885 H   0  0  0  0  0  0  0  0  0  0  0  0  # atno 10718 bound_to 10713
  154.0748  135.2864  155.3301 H   0  0  0  0  0  0  0  0  0  0  0  0  # atno 10763 bound_to 10752
  154.6723  135.5295  153.8157 H   0  0  0  0  0  0  0  0  0  0  0  0  # atno 10764 bound_to 10752
  153.0471  135.6560  154.0927 H   0  0  0  0  0  0  0  0  0  0  0  0  # atno 10765 bound_to 10752
  140.7540  134.3374  157.5119 H   0  0  0  0  0  0  0  0  0  0  0  0  # atno 11005 bound_to 11000
  145.6735  141.0210  143.1645 LP  0  0  0  0  0  0  0  0  0  0  0  0  # atno 17320 bound_to 7965
  144.7119  139.8338  143.7411 LP  0  0  0  0  0  0  0  0  0  0  0  0  # atno 17321 bound_to 7965
  139.4981  144.3998  152.0193 LP  0  0  0  0  0  0  0  0  0  0  0  0  # atno 17342 bound_to 10162
  140.3105  144.3543  150.6035 LP  0  0  0  0  0  0  0  0  0  0  0  0  # atno 17343 bound_to 10162
  155.9861  130.4894  150.7064 LP  0  0  0  0  0  0  0  0  0  0  0  0  # atno 17370 bound_to 10713
  157.4598  131.0882  151.0758 LP  0  0  0  0  0  0  0  0  0  0  0  0  # atno 17371 bound_to 10713
  139.8782  134.9160  156.3144 LP  0  0  0  0  0  0  0  0  0  0  0  0  # atno 17394 bound_to 11000
  140.9725  133.7318  156.0555 LP  0  0  0  0  0  0  0  0  0  0  0  0  # atno 17395 bound_to 11000

$$$$
