AV-unprocessed.smi:1832|AV-procd|sdf|7464|dock9
  -GOLD-   22720 9153D 1   1.00000     0.00000
 Structure written by MMmdl.
 35 35  0  0  0  0  0  0  0  0  1 V2000
  153.1972  142.7076  162.7623 C   0  0  0  0  0  0  0  0  0  0  0  0
  153.2813  142.3716  161.2697 C   0  0  0  0  0  0  0  0  0  0  0  0
  152.0249  142.8076  160.4987 C   0  0  0  0  0  0  0  0  0  0  0  0
  152.2089  142.6889  159.0570 N   0  0  0  0  0  0  0  0  0  0  0  0
  151.2504  142.3505  158.1814 C   0  0  0  0  0  0  0  0  0  0  0  0
  150.0950  142.0846  158.5162 O   0  0  0  0  0  0  0  0  0  0  0  0
  151.6793  142.2869  156.7083 C   0  0  0  0  0  0  0  0  0  0  0  0
  150.9216  141.2979  155.9226 N   0  0  0  0  0  0  0  0  0  0  0  0
  149.7089  141.7298  155.3493 C   0  0  0  0  0  0  0  0  0  0  0  0
  148.9334  140.9127  154.6026 C   0  0  0  0  0  0  0  0  0  0  0  0
  147.6731  141.3340  153.9836 C   0  0  0  0  0  0  0  0  0  0  0  0
  146.9360  140.5871  153.3386 O   0  0  0  0  0  0  0  0  0  0  0  0
  147.3701  142.6299  154.1731 N   0  0  0  0  0  0  0  0  0  0  0  0
  146.1791  143.2836  153.6525 C   0  0  0  0  0  0  0  0  0  0  0  0
  149.3958  139.5516  154.4102 C   0  0  0  0  0  0  0  0  0  0  0  0
  150.5572  139.1343  154.9509 C   0  0  0  0  0  0  0  0  0  0  0  0
  151.3977  140.0271  155.7533 C   0  0  0  0  0  0  0  0  0  0  0  0
  152.4643  139.6552  156.2436 O   0  0  0  0  0  0  0  0  0  0  0  0
  154.0999  142.3894  163.2840 H   0  0  0  0  0  0  0  0  0  0  0  0
  152.3487  142.2077  163.2303 H   0  0  0  0  0  0  0  0  0  0  0  0
  153.0833  143.7807  162.9187 H   0  0  0  0  0  0  0  0  0  0  0  0
  154.1604  142.8548  160.8420 H   0  0  0  0  0  0  0  0  0  0  0  0
  153.4331  141.2977  161.1554 H   0  0  0  0  0  0  0  0  0  0  0  0
  151.1585  142.2245  160.8158 H   0  0  0  0  0  0  0  0  0  0  0  0
  151.7954  143.8496  160.7233 H   0  0  0  0  0  0  0  0  0  0  0  0
  153.1320  142.8856  158.6979 H   0  0  0  0  0  0  0  0  0  0  0  0
  151.5831  143.2783  156.2614 H   0  0  0  0  0  0  0  0  0  0  0  0
  152.7466  142.0643  156.6744 H   0  0  0  0  0  0  0  0  0  0  0  0
  149.4755  142.7643  155.5563 H   0  0  0  0  0  0  0  0  0  0  0  0
  148.0107  143.1970  154.7091 H   0  0  0  0  0  0  0  0  0  0  0  0
  146.1785  144.3355  153.9380 H   0  0  0  0  0  0  0  0  0  0  0  0
  145.2759  142.8209  154.0521 H   0  0  0  0  0  0  0  0  0  0  0  0
  146.1489  143.2259  152.5637 H   0  0  0  0  0  0  0  0  0  0  0  0
  148.8129  138.8533  153.8268 H   0  0  0  0  0  0  0  0  0  0  0  0
  150.8783  138.1157  154.7900 H   0  0  0  0  0  0  0  0  0  0  0  0
  1  2  1  0  0  0  0
  1 19  1  0  0  0  0
  1 20  1  0  0  0  0
  1 21  1  0  0  0  0
  2  3  1  0  0  0  0
  2 22  1  0  0  0  0
  2 23  1  0  0  0  0
  3  4  1  0  0  0  0
  3 24  1  0  0  0  0
  3 25  1  0  0  0  0
  4  5  1  0  0  0  0
  4 26  1  0  0  0  0
  5  6  2  0  0  0  0
  5  7  1  0  0  0  0
  7  8  1  0  0  0  0
  7 27  1  0  0  0  0
  7 28  1  0  0  0  0
  8 17  1  0  0  0  0
  8  9  1  0  0  0  0
  9 10  2  0  0  0  0
  9 29  1  0  0  0  0
 10 11  1  0  0  0  0
 10 15  1  0  0  0  0
 11 12  2  0  0  0  0
 11 13  1  0  0  0  0
 13 14  1  0  0  0  0
 13 30  1  0  0  0  0
 14 31  1  0  0  0  0
 14 32  1  0  0  0  0
 14 33  1  0  0  0  0
 15 16  2  0  0  0  0
 15 34  1  0  0  0  0
 16 17  1  0  0  0  0
 16 35  1  0  0  0  0
 17 18  2  0  0  0  0
M  END
> <s_m_source_file>
AV-unprocessed.smi

> <i_m_source_file_index>
1832

> <i_lp_mmshare_version>
43012

> <i_f3d_flags>
0

> <s_epik_input>
W0NIM11bQ0gyXVtDSDJdW05IXUMoPU8pW0NIMl1uMVtjSF1jKEMoPU8pW05IXVtDSDNdKVtjSF1bY0hdYzE9Tw==

> <s_epik_cmdline>
J2VwaWtfcHl0aG9uJywgJy1waCcsICc3LjAnLCAnLXRuJywgJzgnLCAnLW1hJywgJzIwMCcsICctbWV0YWxfYmluZGluZycsICctaW1hZScsICc8aW5maWxlLm1hZT4nLCAnLW9tYWUnLCAnPG91dGZpbGUubWFlPic=

> <r_lp_tautomer_probability>
1

> <r_epik_Ionization_Penalty>
3.67838e-07

> <r_epik_Ionization_Penalty_Charging>
4.72549e-08

> <r_epik_Ionization_Penalty_Neutral>
3.20583e-07

> <r_epik_State_Penalty>
-0

> <r_epik_Charging_Adjusted_Penalty>
4.72549e-08

> <i_epik_Tot_Q>
0

> <i_epik_Tot_abs_Q>
0

> <r_epik_Metal_State_Penalty>
-0

> <b_epik_Metal_Only>
0

> <s_lp_Force_Field>
OPLS_2005

> <r_lp_Energy>
14.7098

> <b_lp_Chiralities_Consistent>
1

> <s_lp_Variant>
AV-unprocessed.smi:1832-1

> <Gold.Version>
5.8.1

> <Gold.Id.Protein>
6NUR|6NUR_protein|mol2

> <Gold.PLP.Fitness>
47.0393

> <Gold.PLP.PLP>
-39.8922

> <Gold.PLP.part.hbond>
-2.0000

> <Gold.PLP.part.metal>
0.0000

> <Gold.PLP.part.buried>
-5.7131

> <Gold.PLP.part.nonpolar>
-31.5355

> <Gold.PLP.part.repulsive>
0.4537

> <Gold.PLP.ligand.clash>
0.0000

> <Gold.PLP.ligand.torsion>
0.9425

> <Gold.PLP.Chemscore.Hbond>
2.0000

> <Gold.PLP.Chemscore.CHOScore>
1.0000

> <Gold.PLP.Chemscore.Metal>
0.0000

> <Gold.Chemscore.Hbonds>
donor molecule, donor type, donor heavy atom, donor atom, acceptor molecule, acceptor atom, score
      L1  H    13    30       P1  8028  1.00
      P1  H  7997  8008       L1    18  1.00
      L1  C     9    29       P1  8028  1.00

> <Gold.PLP.Chemscore.Internal.Correction>
0.0320

> <Gold.Rescore>
     Score         DG    S(hbond)    S(metal)    S(lipo)     H(rot)  DE(clash)    DE(int)     intcor
     14.20     -16.76       1.92        0.00      80.59       1.78       1.71       0.85       ----

> <Gold.Chemscore.Fitness>
14.1988

> <Gold.Chemscore.DG>
-16.7561

> <Gold.Chemscore.ZeroCoef>
-5.4800

> <Gold.Chemscore.Hbond>
1.9162

> <Gold.Chemscore.Metal>
0.0000

> <Gold.Chemscore.Lipo>
80.5899

> <Gold.Chemscore.Internal_Hbond>
0.0000

> <Gold.Chemscore.DEClash>
1.7078

> <Gold.Chemscore.DEInternal>
0.8495

> <Gold.Chemscore.Rot>
1.7785

> <Gold.Chemscore.Internal.Correction>
   9.000000E+99

> <Gold.Chemscore.Hbonds>
donor molecule, donor type, donor heavy atom, donor atom, acceptor molecule, acceptor atom, score
      L1  H    13    30       P1  8028  0.89
      P1  H  7997  8008       L1    18  0.97

> <Gold.Chemscore.Hbond.Weighted>
-6.4001

> <Gold.Chemscore.Metal.Weighted>
-0.0000

> <Gold.Chemscore.Lipo.Weighted>
-9.4290

> <Gold.Chemscore.Internal_Hbond.Weighted>
0.0000

> <Gold.Chemscore.DEClash.Weighted>
1.7078

> <Gold.Chemscore.DEInternal.Weighted>
0.8495

> <Gold.Chemscore.Rot.Weighted>
4.5530

> <Gold.Chemscore.Internal.Correction.Weighted>
   9.000000E+99

> <Gold.Protein.RotatedTorsions>
[ 6907 6896 6895 6894 ] final -163.19 input  -60.11 | X-H torsion
[ 7974 7965 7964 7962 ] final    7.79 input  175.53 | X-H torsion
[ 8008 7997 7996 7995 ] final  -27.83 input   59.86 | X-H torsion
[ 10167 10162 10161 10158 ] final   87.08 input  -65.29 | X-H torsion
[ 10718 10713 10712 10709 ] final  -50.72 input   66.30 | X-H torsion
[ 10763 10752 10751 10750 ] final -100.59 input  -60.55 | X-H torsion
[ 11005 11000 10999 10996 ] final  149.29 input  -57.11 | X-H torsion

> <Gold.Protein.ActiveResidues>
 VAL166  LYS551  ARG553  GLY616  TRP617  ASP618  TYR619  PRO620  LYS621  CYS622 
 ASP623  PHE694  ASN695  SER759  ASP760  ASP761  ALA762  ILE779  LEU786  VAL792 
 PHE793  MET794  SER795  GLU796  ALA797  LYS798  CYS799  TRP800  GLU811  SER814 

> <Gold.Protein.RotatedAtoms>
  151.3921  133.3785  159.2721 H   0  0  0  0  0  0  0  0  0  0  0  0  # atno 6907 bound_to 6896
  150.9497  134.8899  159.7675 H   0  0  0  0  0  0  0  0  0  0  0  0  # atno 6908 bound_to 6896
  152.5106  134.3876  159.9425 H   0  0  0  0  0  0  0  0  0  0  0  0  # atno 6909 bound_to 6896
  146.2423  140.0031  142.8414 H   0  0  0  0  0  0  0  0  0  0  0  0  # atno 7974 bound_to 7965
  154.4359  140.1862  156.0993 H   0  0  0  0  0  0  0  0  0  0  0  0  # atno 8008 bound_to 7997
  156.0304  140.3331  155.7108 H   0  0  0  0  0  0  0  0  0  0  0  0  # atno 8009 bound_to 7997
  155.5847  140.0625  157.2765 H   0  0  0  0  0  0  0  0  0  0  0  0  # atno 8010 bound_to 7997
  139.8810  144.6440  150.8843 H   0  0  0  0  0  0  0  0  0  0  0  0  # atno 10167 bound_to 10162
  156.1775  130.4150  149.9555 H   0  0  0  0  0  0  0  0  0  0  0  0  # atno 10718 bound_to 10713
  154.7591  135.4929  153.9430 H   0  0  0  0  0  0  0  0  0  0  0  0  # atno 10763 bound_to 10752
  153.1230  135.6736  153.9311 H   0  0  0  0  0  0  0  0  0  0  0  0  # atno 10764 bound_to 10752
  153.9038  135.3107  155.3427 H   0  0  0  0  0  0  0  0  0  0  0  0  # atno 10765 bound_to 10752
  140.1032  134.8970  157.1827 H   0  0  0  0  0  0  0  0  0  0  0  0  # atno 11005 bound_to 11000
  145.1397  140.9564  143.4496 LP  0  0  0  0  0  0  0  0  0  0  0  0  # atno 17320 bound_to 7965
  145.0308  139.3343  143.6026 LP  0  0  0  0  0  0  0  0  0  0  0  0  # atno 17321 bound_to 7965
  140.7744  143.3586  151.1873 LP  0  0  0  0  0  0  0  0  0  0  0  0  # atno 17342 bound_to 10162
  139.7196  143.9245  152.2980 LP  0  0  0  0  0  0  0  0  0  0  0  0  # atno 17343 bound_to 10162
  156.7336  130.9053  151.3627 LP  0  0  0  0  0  0  0  0  0  0  0  0  # atno 17370 bound_to 10713
  157.6846  130.9172  150.0352 LP  0  0  0  0  0  0  0  0  0  0  0  0  # atno 17371 bound_to 10713
  140.3191  134.2936  155.7250 LP  0  0  0  0  0  0  0  0  0  0  0  0  # atno 17394 bound_to 11000
  141.2111  133.7699  156.9886 LP  0  0  0  0  0  0  0  0  0  0  0  0  # atno 17395 bound_to 11000

$$$$
