AV-unprocessed.smi:2525|AV-procd|sdf|9933|dock4
  -GOLD-   2272013573D 1   1.00000     0.00000
 Structure written by MMmdl.
 44 45  0  0  0  0  0  0  0  0  1 V2000
  147.8256  141.7145  153.7879 C   0  0  0  0  0  0  0  0  0  0  0  0
  148.0759  140.2622  154.2286 C   0  0  0  0  0  0  0  0  0  0  0  0
  148.9443  140.0978  155.4998 C   0  0  0  0  0  0  0  0  0  0  0  0
  148.3075  140.9310  156.6431 C   0  0  0  0  0  0  0  0  0  0  0  0
  147.0167  140.3429  157.2362 C   0  0  0  0  0  0  0  0  0  0  0  0
  149.3320  138.6200  155.8012 C   0  0  2  0  0  0  0  0  0  0  0  0
  149.5763  138.3450  157.2159 N   0  0  0  0  0  0  0  0  0  0  0  0
  149.3516  137.1730  157.8277 C   0  0  0  0  0  0  0  0  0  0  0  0
  148.8809  136.1899  157.2564 O   0  0  0  0  0  0  0  0  0  0  0  0
  149.6976  137.1013  159.3171 C   0  0  0  0  0  0  0  0  0  0  0  0
  148.5789  136.6100  160.1050 N   0  0  0  0  0  0  0  0  0  0  0  0
  148.0174  135.3494  160.1087 C   0  0  0  0  0  0  0  0  0  0  0  0
  147.0254  135.4462  161.0421 C   0  0  0  0  0  0  0  0  0  0  0  0
  147.0237  136.7403  161.5601 N   0  0  0  0  0  0  0  0  0  0  0  0
  147.9590  137.4310  160.9876 N   0  0  0  0  0  0  0  0  0  0  0  0
  150.6478  138.8235  155.0314 C   0  0  2  0  0  0  0  0  0  0  0  0
  151.9313  138.1121  155.4584 C   0  0  0  0  0  0  0  0  0  0  0  0
  150.4593  140.3361  155.2512 C   0  0  2  0  0  0  0  0  0  0  0  0
  151.1242  140.8036  156.4200 O   0  0  0  0  0  0  0  0  0  0  0  0
  151.0816  142.2133  156.5602 C   0  0  0  0  0  0  0  0  0  0  0  0
  147.1046  141.7461  152.9710 H   0  0  0  0  0  0  0  0  0  0  0  0
  148.7357  142.1928  153.4274 H   0  0  0  0  0  0  0  0  0  0  0  0
  147.4255  142.3200  154.6009 H   0  0  0  0  0  0  0  0  0  0  0  0
  147.0993  139.8054  154.3895 H   0  0  0  0  0  0  0  0  0  0  0  0
  148.4968  139.7011  153.3949 H   0  0  0  0  0  0  0  0  0  0  0  0
  149.0269  141.1093  157.4415 H   0  0  0  0  0  0  0  0  0  0  0  0
  148.0530  141.9290  156.2871 H   0  0  0  0  0  0  0  0  0  0  0  0
  146.5618  141.0477  157.9324 H   0  0  0  0  0  0  0  0  0  0  0  0
  147.2041  139.4235  157.7900 H   0  0  0  0  0  0  0  0  0  0  0  0
  146.2827  140.1286  156.4591 H   0  0  0  0  0  0  0  0  0  0  0  0
  148.6898  137.8828  155.3172 H   0  0  0  0  0  0  0  0  0  0  0  0
  149.9538  139.1033  157.7661 H   0  0  0  0  0  0  0  0  0  0  0  0
  150.5615  136.4500  159.4606 H   0  0  0  0  0  0  0  0  0  0  0  0
  149.9750  138.0905  159.6846 H   0  0  0  0  0  0  0  0  0  0  0  0
  148.3592  134.5376  159.4837 H   0  0  0  0  0  0  0  0  0  0  0  0
  146.3218  134.7004  161.3818 H   0  0  0  0  0  0  0  0  0  0  0  0
  150.4565  138.6071  153.9792 H   0  0  0  0  0  0  0  0  0  0  0  0
  152.2213  138.3637  156.4790 H   0  0  0  0  0  0  0  0  0  0  0  0
  152.7630  138.3785  154.8066 H   0  0  0  0  0  0  0  0  0  0  0  0
  151.8131  137.0296  155.4117 H   0  0  0  0  0  0  0  0  0  0  0  0
  150.6535  140.9477  154.3679 H   0  0  0  0  0  0  0  0  0  0  0  0
  151.6354  142.5082  157.4513 H   0  0  0  0  0  0  0  0  0  0  0  0
  150.0544  142.5630  156.6726 H   0  0  0  0  0  0  0  0  0  0  0  0
  151.5286  142.7175  155.7035 H   0  0  0  0  0  0  0  0  0  0  0  0
  1  2  1  0  0  0  0
  1 21  1  0  0  0  0
  1 22  1  0  0  0  0
  1 23  1  0  0  0  0
  2  3  1  0  0  0  0
  2 24  1  0  0  0  0
  2 25  1  0  0  0  0
  3 18  1  0  0  0  0
  3  4  1  0  0  0  0
  3  6  1  0  0  0  0
  4  5  1  0  0  0  0
  4 26  1  0  0  0  0
  4 27  1  0  0  0  0
  5 28  1  0  0  0  0
  5 29  1  0  0  0  0
  5 30  1  0  0  0  0
  6  7  1  0  0  0  0
  6 16  1  0  0  0  0
  6 31  1  0  0  0  0
  7  8  1  0  0  0  0
  7 32  1  0  0  0  0
  8  9  2  0  0  0  0
  8 10  1  0  0  0  0
 10 11  1  0  0  0  0
 10 33  1  0  0  0  0
 10 34  1  0  0  0  0
 11 15  1  0  0  0  0
 11 12  1  0  0  0  0
 12 13  2  0  0  0  0
 12 35  1  0  0  0  0
 13 14  1  0  0  0  0
 13 36  1  0  0  0  0
 14 15  2  0  0  0  0
 16 17  1  0  0  0  0
 16 18  1  0  0  0  0
 16 37  1  0  0  0  0
 17 38  1  0  0  0  0
 17 39  1  0  0  0  0
 17 40  1  0  0  0  0
 18 19  1  0  0  0  0
 18 41  1  0  0  0  0
 19 20  1  0  0  0  0
 20 42  1  0  0  0  0
 20 43  1  0  0  0  0
 20 44  1  0  0  0  0
M  END
> <s_m_source_file>
AV-unprocessed.smi

> <i_m_source_file_index>
2525

> <i_lp_mmshare_version>
43012

> <i_f3d_flags>
0

> <s_epik_input>
W0NIM11PW0NAQEhdMVtDQEhdKFtDSDNdKVtDQEBIXShDMShbQ0gyXVtDSDNdKVtDSDJdW0NIM10pW05IXUMoPU8pW0NIMl1uMltjSF1bY0hdbm4y

> <s_epik_cmdline>
J2VwaWtfcHl0aG9uJywgJy1waCcsICc3LjAnLCAnLXRuJywgJzgnLCAnLW1hJywgJzIwMCcsICctbWV0YWxfYmluZGluZycsICctaW1hZScsICc8aW5maWxlLm1hZT4nLCAnLW9tYWUnLCAnPG91dGZpbGUubWFlPic=

> <r_lp_tautomer_probability>
1

> <r_epik_Ionization_Penalty>
1.18045e-06

> <r_epik_Ionization_Penalty_Charging>
0

> <r_epik_Ionization_Penalty_Neutral>
1.18045e-06

> <r_epik_State_Penalty>
-0

> <r_epik_Charging_Adjusted_Penalty>
0

> <i_epik_Tot_Q>
0

> <i_epik_Tot_abs_Q>
0

> <r_epik_Metal_State_Penalty>
-0

> <b_epik_Metal_Only>
0

> <s_lp_Force_Field>
OPLS_2005

> <r_lp_Energy>
29.0326

> <b_lp_Chiralities_Consistent>
1

> <s_lp_Variant>
AV-unprocessed.smi:2525-8

> <Gold.Version>
5.8.1

> <Gold.Id.Protein>
6NUR|6NUR_protein|mol2

> <Gold.PLP.Fitness>
31.2282

> <Gold.PLP.PLP>
-26.9673

> <Gold.PLP.part.hbond>
-2.0000

> <Gold.PLP.part.metal>
0.0000

> <Gold.PLP.part.buried>
-4.5962

> <Gold.PLP.part.nonpolar>
-20.7322

> <Gold.PLP.part.repulsive>
0.0368

> <Gold.PLP.ligand.clash>
0.0000

> <Gold.PLP.ligand.torsion>
0.7458

> <Gold.PLP.Chemscore.Hbond>
1.6960

> <Gold.PLP.Chemscore.CHOScore>
0.0000

> <Gold.PLP.Chemscore.Metal>
0.0000

> <Gold.Chemscore.Hbonds>
donor molecule, donor type, donor heavy atom, donor atom, acceptor molecule, acceptor atom, score
      P1  H  6931  6943       L1    15  0.82
      P1  H  6934  6947       L1    15  0.70

> <Gold.PLP.Chemscore.Internal.Correction>
0.6644

> <Gold.Rescore>
     Score         DG    S(hbond)    S(metal)    S(lipo)     H(rot)  DE(clash)    DE(int)     intcor
     11.28     -12.15       1.24        0.00      64.88       1.98       0.00       0.86       ----

> <Gold.Chemscore.Fitness>
11.2844

> <Gold.Chemscore.DG>
-12.1491

> <Gold.Chemscore.ZeroCoef>
-5.4800

> <Gold.Chemscore.Hbond>
1.2430

> <Gold.Chemscore.Metal>
0.0000

> <Gold.Chemscore.Lipo>
64.8768

> <Gold.Chemscore.Internal_Hbond>
0.0000

> <Gold.Chemscore.DEClash>
0.0021

> <Gold.Chemscore.DEInternal>
0.8625

> <Gold.Chemscore.Rot>
1.9817

> <Gold.Chemscore.Internal.Correction>
   9.000000E+99

> <Gold.Chemscore.Hbonds>
donor molecule, donor type, donor heavy atom, donor atom, acceptor molecule, acceptor atom, score
      P1  H  6931  6943       L1    15  0.63
      P1  H  6934  6947       L1    15  0.21

> <Gold.Chemscore.Hbond.Weighted>
-4.1516

> <Gold.Chemscore.Metal.Weighted>
-0.0000

> <Gold.Chemscore.Lipo.Weighted>
-7.5906

> <Gold.Chemscore.Internal_Hbond.Weighted>
0.0000

> <Gold.Chemscore.DEClash.Weighted>
0.0021

> <Gold.Chemscore.DEInternal.Weighted>
0.8625

> <Gold.Chemscore.Rot.Weighted>
5.0731

> <Gold.Chemscore.Internal.Correction.Weighted>
   9.000000E+99

> <Gold.Protein.RotatedTorsions>
[ 6907 6896 6895 6894 ] final  130.00 input  -60.11 | X-H torsion
[ 7974 7965 7964 7962 ] final  165.44 input  175.53 | X-H torsion
[ 8008 7997 7996 7995 ] final -125.03 input   59.86 | X-H torsion
[ 10167 10162 10161 10158 ] final   11.11 input  -65.29 | X-H torsion
[ 10718 10713 10712 10709 ] final  101.98 input   66.30 | X-H torsion
[ 10763 10752 10751 10750 ] final   76.31 input  -60.55 | X-H torsion
[ 11005 11000 10999 10996 ] final   34.45 input  -57.11 | X-H torsion

> <Gold.Protein.ActiveResidues>
 VAL166  LYS551  ARG553  GLY616  TRP617  ASP618  TYR619  PRO620  LYS621  CYS622 
 ASP623  PHE694  ASN695  SER759  ASP760  ASP761  ALA762  ILE779  LEU786  VAL792 
 PHE793  MET794  SER795  GLU796  ALA797  LYS798  CYS799  TRP800  GLU811  SER814 

> <Gold.Protein.RotatedAtoms>
  152.3569  133.6248  159.5985 H   0  0  0  0  0  0  0  0  0  0  0  0  # atno 6907 bound_to 6896
  150.7575  133.9485  159.3487 H   0  0  0  0  0  0  0  0  0  0  0  0  # atno 6908 bound_to 6896
  151.7329  135.0872  160.0354 H   0  0  0  0  0  0  0  0  0  0  0  0  # atno 6909 bound_to 6896
  144.7503  139.8470  143.6368 H   0  0  0  0  0  0  0  0  0  0  0  0  # atno 7974 bound_to 7965
  155.2067  140.0417  157.2926 H   0  0  0  0  0  0  0  0  0  0  0  0  # atno 8008 bound_to 7997
  154.6039  140.2459  155.7728 H   0  0  0  0  0  0  0  0  0  0  0  0  # atno 8009 bound_to 7997
  156.2338  140.2929  156.0267 H   0  0  0  0  0  0  0  0  0  0  0  0  # atno 8010 bound_to 7997
  140.6152  143.8322  150.7111 H   0  0  0  0  0  0  0  0  0  0  0  0  # atno 10167 bound_to 10162
  157.6815  131.0741  150.5335 H   0  0  0  0  0  0  0  0  0  0  0  0  # atno 10718 bound_to 10713
  153.0716  135.4956  154.8317 H   0  0  0  0  0  0  0  0  0  0  0  0  # atno 10763 bound_to 10752
  154.7031  135.3005  154.9314 H   0  0  0  0  0  0  0  0  0  0  0  0  # atno 10764 bound_to 10752
  154.0031  135.6764  153.4813 H   0  0  0  0  0  0  0  0  0  0  0  0  # atno 10765 bound_to 10752
  140.2527  134.3284  155.7884 H   0  0  0  0  0  0  0  0  0  0  0  0  # atno 11005 bound_to 11000
  146.1443  139.4508  143.0089 LP  0  0  0  0  0  0  0  0  0  0  0  0  # atno 17320 bound_to 7965
  145.6970  141.0147  143.1525 LP  0  0  0  0  0  0  0  0  0  0  0  0  # atno 17321 bound_to 7965
  140.1900  143.4044  152.1870 LP  0  0  0  0  0  0  0  0  0  0  0  0  # atno 17342 bound_to 10162
  139.5393  144.7241  151.4787 LP  0  0  0  0  0  0  0  0  0  0  0  0  # atno 17343 bound_to 10162
  156.5644  130.4264  149.6048 LP  0  0  0  0  0  0  0  0  0  0  0  0  # atno 17370 bound_to 10713
  156.2794  130.7062  151.1882 LP  0  0  0  0  0  0  0  0  0  0  0  0  # atno 17371 bound_to 10713
  141.2199  133.7363  156.9063 LP  0  0  0  0  0  0  0  0  0  0  0  0  # atno 17394 bound_to 11000
  140.1542  134.9210  157.2632 LP  0  0  0  0  0  0  0  0  0  0  0  0  # atno 17395 bound_to 11000

$$$$
