AV-unprocessed.smi:2673|AV-procd|sdf|10357|dock7
  -GOLD-   2272014383D 1   1.00000     0.00000
 Structure written by MMmdl.
 32 33  0  0  0  0  0  0  0  0  1 V2000
  145.0974  137.9320  153.8770 O   0  0  0  0  0  0  0  0  0  0  0  0
  146.1081  137.6886  153.2143 C   0  0  0  0  0  0  0  0  0  0  0  0
  147.1584  138.5381  152.9035 N   0  0  0  0  0  0  0  0  0  0  0  0
  147.3408  139.6350  153.5717 C   0  0  0  0  0  0  0  0  0  0  0  0
  148.3828  140.4985  153.2658 N   0  0  0  0  0  0  0  0  0  0  0  0
  148.5455  141.6102  153.9711 N   0  0  0  0  0  0  0  0  0  0  0  0
  147.6528  141.7101  154.8829 C   0  0  0  0  0  0  0  0  0  0  0  0
  146.4716  140.3980  154.9758 S   0  0  0  0  0  0  0  0  0  0  0  0
  146.3393  136.4794  152.6754 N   0  0  0  0  0  0  0  0  0  0  0  0
  145.5360  135.2451  152.7337 C   0  0  0  0  0  0  0  0  0  0  0  0
  144.2453  135.4124  151.8804 C   0  0  0  0  0  0  0  0  0  0  0  0
  143.4897  134.3161  151.9556 F   0  0  0  0  0  0  0  0  0  0  0  0
  143.5259  136.4441  152.3257 F   0  0  0  0  0  0  0  0  0  0  0  0
  144.5241  135.6215  150.5940 F   0  0  0  0  0  0  0  0  0  0  0  0
  146.3434  133.9931  152.2825 C   0  0  0  0  0  0  0  0  0  0  0  0
  147.5717  133.7171  153.1689 C   0  0  0  0  0  0  0  0  0  0  0  0
  147.1628  133.5490  154.6390 C   0  0  0  0  0  0  0  0  0  0  0  0
  146.3605  134.7614  155.1335 C   0  0  0  0  0  0  0  0  0  0  0  0
  145.1480  135.0427  154.2236 C   0  0  0  0  0  0  0  0  0  0  0  0
  147.5570  142.5244  155.6009 H   0  0  0  0  0  0  0  0  0  0  0  0
  147.2006  136.3938  152.1559 H   0  0  0  0  0  0  0  0  0  0  0  0
  145.6931  133.1184  152.3184 H   0  0  0  0  0  0  0  0  0  0  0  0
  146.6525  134.0716  151.2412 H   0  0  0  0  0  0  0  0  0  0  0  0
  148.0820  132.8176  152.8234 H   0  0  0  0  0  0  0  0  0  0  0  0
  148.2916  134.5309  153.0760 H   0  0  0  0  0  0  0  0  0  0  0  0
  146.5615  132.6456  154.7486 H   0  0  0  0  0  0  0  0  0  0  0  0
  148.0482  133.4080  155.2595 H   0  0  0  0  0  0  0  0  0  0  0  0
  146.0219  134.5856  156.1549 H   0  0  0  0  0  0  0  0  0  0  0  0
  147.0092  135.6371  155.1750 H   0  0  0  0  0  0  0  0  0  0  0  0
  144.6123  135.9165  154.5969 H   0  0  0  0  0  0  0  0  0  0  0  0
  144.4531  134.2071  154.3137 H   0  0  0  0  0  0  0  0  0  0  0  0
  149.0303  140.3002  152.5166 H   0  0  0  0  0  0  0  0  0  0  0  0
  1  2  2  0  0  0  0
  2  3  1  0  0  0  0
  2  9  1  0  0  0  0
  3  4  2  0  0  0  0
  4  8  1  0  0  0  0
  4  5  1  0  0  0  0
  5  6  1  0  0  0  0
  5 32  1  0  0  0  0
  6  7  2  0  0  0  0
  7  8  1  0  0  0  0
  7 20  1  0  0  0  0
  9 10  1  0  0  0  0
  9 21  1  0  0  0  0
 10 19  1  0  0  0  0
 10 11  1  0  0  0  0
 10 15  1  0  0  0  0
 11 12  1  0  0  0  0
 11 13  1  0  0  0  0
 11 14  1  0  0  0  0
 15 16  1  0  0  0  0
 15 22  1  0  0  0  0
 15 23  1  0  0  0  0
 16 17  1  0  0  0  0
 16 24  1  0  0  0  0
 16 25  1  0  0  0  0
 17 18  1  0  0  0  0
 17 26  1  0  0  0  0
 17 27  1  0  0  0  0
 18 19  1  0  0  0  0
 18 28  1  0  0  0  0
 18 29  1  0  0  0  0
 19 30  1  0  0  0  0
 19 31  1  0  0  0  0
M  END
> <s_m_source_file>
AV-unprocessed.smi

> <i_m_source_file_index>
2673

> <i_lp_mmshare_version>
43012

> <i_f3d_flags>
0

> <s_epik_input>
czFbY0hdbm5jMVtOSF1DKD1PKVtOSF1DMihDKEYpKEYpRilbQ0gyXVtDSDJdW0NIMl1bQ0gyXVtDSDJdMg==

> <s_epik_cmdline>
J2VwaWtfcHl0aG9uJywgJy1waCcsICc3LjAnLCAnLXRuJywgJzgnLCAnLW1hJywgJzIwMCcsICctbWV0YWxfYmluZGluZycsICctaW1hZScsICc8aW5maWxlLm1hZT4nLCAnLW9tYWUnLCAnPG91dGZpbGUubWFlPic=

> <r_epik_Ionization_Penalty>
1.69703

> <r_epik_Ionization_Penalty_Charging>
1.69675

> <r_epik_Ionization_Penalty_Neutral>
0.00027895

> <r_epik_State_Penalty>
1.84993

> <r_epik_Charging_Adjusted_Penalty>
3.54668

> <i_epik_Tot_Q>
0

> <i_epik_Tot_abs_Q>
0

> <r_epik_Metal_State_Penalty>
1.90085

> <b_epik_Metal_Only>
0

> <s_lp_Force_Field>
OPLS_2005

> <r_lp_Energy>
22.7267

> <b_lp_Chiralities_Consistent>
1

> <s_lp_Variant>
AV-unprocessed.smi:2673-3

> <Gold.Version>
5.8.1

> <Gold.Id.Protein>
6NUR|6NUR_protein|mol2

> <Gold.PLP.Fitness>
32.7750

> <Gold.PLP.PLP>
-24.0692

> <Gold.PLP.part.hbond>
-2.7417

> <Gold.PLP.part.metal>
0.0000

> <Gold.PLP.part.buried>
-5.9461

> <Gold.PLP.part.nonpolar>
-17.4707

> <Gold.PLP.part.repulsive>
1.0408

> <Gold.PLP.ligand.clash>
0.0000

> <Gold.PLP.ligand.torsion>
0.2903

> <Gold.PLP.Chemscore.Hbond>
2.1203

> <Gold.PLP.Chemscore.CHOScore>
0.9649

> <Gold.PLP.Chemscore.Metal>
0.0000

> <Gold.Chemscore.Hbonds>
donor molecule, donor type, donor heavy atom, donor atom, acceptor molecule, acceptor atom, score
      L1  H     5    32       P1  7957  0.91
      L1  H     9    21       P1  7948  1.00
      P1  H  8011  8017       L1     6  0.15
      L1  C     7    20       P1  8028  0.93

> <Gold.PLP.Chemscore.Internal.Correction>
0.0310

> <Gold.Rescore>
     Score         DG    S(hbond)    S(metal)    S(lipo)     H(rot)  DE(clash)    DE(int)     intcor
      8.64     -12.74       2.00        0.00      26.83       1.00       0.12       3.98       ----

> <Gold.Chemscore.Fitness>
8.6375

> <Gold.Chemscore.DG>
-12.7358

> <Gold.Chemscore.ZeroCoef>
-5.4800

> <Gold.Chemscore.Hbond>
1.9989

> <Gold.Chemscore.Metal>
0.0000

> <Gold.Chemscore.Lipo>
26.8336

> <Gold.Chemscore.Internal_Hbond>
0.0000

> <Gold.Chemscore.DEClash>
0.1171

> <Gold.Chemscore.DEInternal>
3.9812

> <Gold.Chemscore.Rot>
1.0000

> <Gold.Chemscore.Internal.Correction>
   9.000000E+99

> <Gold.Chemscore.Hbonds>
donor molecule, donor type, donor heavy atom, donor atom, acceptor molecule, acceptor atom, score
      L1  H     5    32       P1  7957  0.87
      L1  H     9    21       P1  7948  1.00
      P1  H  8011  8017       L1     6  0.01

> <Gold.Chemscore.Hbond.Weighted>
-6.6763

> <Gold.Chemscore.Metal.Weighted>
-0.0000

> <Gold.Chemscore.Lipo.Weighted>
-3.1395

> <Gold.Chemscore.Internal_Hbond.Weighted>
0.0000

> <Gold.Chemscore.DEClash.Weighted>
0.1171

> <Gold.Chemscore.DEInternal.Weighted>
3.9812

> <Gold.Chemscore.Rot.Weighted>
2.5600

> <Gold.Chemscore.Internal.Correction.Weighted>
   9.000000E+99

> <Gold.Protein.RotatedTorsions>
[ 6907 6896 6895 6894 ] final -178.51 input  -60.11 | X-H torsion
[ 7974 7965 7964 7962 ] final  148.67 input  175.53 | X-H torsion
[ 8008 7997 7996 7995 ] final    6.19 input   59.86 | X-H torsion
[ 10167 10162 10161 10158 ] final -167.41 input  -65.29 | X-H torsion
[ 10718 10713 10712 10709 ] final   81.56 input   66.30 | X-H torsion
[ 10763 10752 10751 10750 ] final   56.91 input  -60.55 | X-H torsion
[ 11005 11000 10999 10996 ] final   95.49 input  -57.11 | X-H torsion

> <Gold.Protein.ActiveResidues>
 VAL166  LYS551  ARG553  GLY616  TRP617  ASP618  TYR619  PRO620  LYS621  CYS622 
 ASP623  PHE694  ASN695  SER759  ASP760  ASP761  ALA762  ILE779  LEU786  VAL792 
 PHE793  MET794  SER795  GLU796  ALA797  LYS798  CYS799  TRP800  GLU811  SER814 

> <Gold.Protein.RotatedAtoms>
  151.6384  133.3327  159.3124 H   0  0  0  0  0  0  0  0  0  0  0  0  # atno 6907 bound_to 6896
  150.8020  134.7125  159.6621 H   0  0  0  0  0  0  0  0  0  0  0  0  # atno 6908 bound_to 6896
  152.4113  134.6123  160.0080 H   0  0  0  0  0  0  0  0  0  0  0  0  # atno 6909 bound_to 6896
  144.8496  139.6183  143.5980 H   0  0  0  0  0  0  0  0  0  0  0  0  # atno 7974 bound_to 7965
  154.7379  140.2743  155.6399 H   0  0  0  0  0  0  0  0  0  0  0  0  # atno 8008 bound_to 7997
  156.2866  140.2703  156.2023 H   0  0  0  0  0  0  0  0  0  0  0  0  # atno 8009 bound_to 7997
  155.0297  140.0371  157.2459 H   0  0  0  0  0  0  0  0  0  0  0  0  # atno 8010 bound_to 7997
  139.6051  144.0929  152.1784 H   0  0  0  0  0  0  0  0  0  0  0  0  # atno 10167 bound_to 10162
  157.6836  131.0009  150.2245 H   0  0  0  0  0  0  0  0  0  0  0  0  # atno 10718 bound_to 10713
  152.9840  135.5660  154.5305 H   0  0  0  0  0  0  0  0  0  0  0  0  # atno 10763 bound_to 10752
  154.4777  135.2787  155.1596 H   0  0  0  0  0  0  0  0  0  0  0  0  # atno 10764 bound_to 10752
  154.3118  135.6287  153.5522 H   0  0  0  0  0  0  0  0  0  0  0  0  # atno 10765 bound_to 10752
  139.8788  134.8902  156.4019 H   0  0  0  0  0  0  0  0  0  0  0  0  # atno 11005 bound_to 11000
  146.2773  139.6787  142.9253 LP  0  0  0  0  0  0  0  0  0  0  0  0  # atno 17320 bound_to 7965
  145.4527  141.0429  143.2796 LP  0  0  0  0  0  0  0  0  0  0  0  0  # atno 17321 bound_to 7965
  140.0535  144.5914  150.7318 LP  0  0  0  0  0  0  0  0  0  0  0  0  # atno 17342 bound_to 10162
  140.7279  143.2656  151.4057 LP  0  0  0  0  0  0  0  0  0  0  0  0  # atno 17343 bound_to 10162
  156.2890  130.3743  149.7860 LP  0  0  0  0  0  0  0  0  0  0  0  0  # atno 17370 bound_to 10713
  156.5525  130.8348  151.3304 LP  0  0  0  0  0  0  0  0  0  0  0  0  # atno 17371 bound_to 10713
  140.9261  133.7611  155.9966 LP  0  0  0  0  0  0  0  0  0  0  0  0  # atno 17394 bound_to 11000
  140.8384  134.3095  157.5323 LP  0  0  0  0  0  0  0  0  0  0  0  0  # atno 17395 bound_to 11000

$$$$
