AV-unprocessed.smi:3292|AV-procd|sdf|12627|dock7
  -GOLD-   2272018563D 1   1.00000     0.00000
 Structure written by MMmdl.
 38 39  0  0  0  0  0  0  0  0  1 V2000
  146.2462  133.4892  154.6882 C   0  0  0  0  0  0  0  0  0  0  0  0
  145.9637  133.9831  153.2631 C   0  0  2  0  0  0  0  0  0  0  0  0
  146.4107  132.9445  152.2108 C   0  0  0  0  0  0  0  0  0  0  0  0
  145.3683  132.6341  151.2487 N   0  0  0  0  0  0  0  0  0  0  0  0
  144.0104  132.8988  151.3687 C   0  0  0  0  0  0  0  0  0  0  0  0
  143.4187  132.4485  150.2101 C   0  0  0  0  0  0  0  0  0  0  0  0
  144.3859  131.8982  149.3720 N   0  0  0  0  0  0  0  0  0  0  0  0
  145.5134  132.0389  150.0564 C   0  0  0  0  0  0  0  0  0  0  0  0
  146.6482  135.2590  153.0566 N   0  0  0  0  0  0  0  0  0  0  0  0
  146.3597  136.4065  153.6878 C   0  0  0  0  0  0  0  0  0  0  0  0
  145.5262  136.5117  154.5878 O   0  0  0  0  0  0  0  0  0  0  0  0
  147.0523  137.4366  153.1850 N   0  0  0  0  0  0  0  0  0  0  0  0
  146.8477  138.8334  153.5524 C   0  0  0  0  0  0  0  0  0  0  0  0
  148.1567  139.6459  153.4757 C   0  0  1  0  0  0  0  0  0  0  0  0
  148.0375  141.0687  154.0118 C   0  0  0  0  0  0  0  0  0  0  0  0
  149.3253  141.2842  154.8136 C   0  0  0  0  0  0  0  0  0  0  0  0
  150.1607  140.1863  154.4787 O   0  0  0  0  0  0  0  0  0  0  0  0
  149.3145  139.0662  154.2888 C   0  0  0  0  0  0  0  0  0  0  0  0
  145.7273  132.5512  154.8874 H   0  0  0  0  0  0  0  0  0  0  0  0
  145.9092  134.2145  155.4294 H   0  0  0  0  0  0  0  0  0  0  0  0
  147.3119  133.3195  154.8470 H   0  0  0  0  0  0  0  0  0  0  0  0
  144.8847  134.1253  153.1789 H   0  0  0  0  0  0  0  0  0  0  0  0
  147.2922  133.2981  151.6736 H   0  0  0  0  0  0  0  0  0  0  0  0
  146.6981  132.0138  152.7016 H   0  0  0  0  0  0  0  0  0  0  0  0
  143.5918  133.3818  152.2393 H   0  0  0  0  0  0  0  0  0  0  0  0
  142.3797  132.4784  149.9175 H   0  0  0  0  0  0  0  0  0  0  0  0
  146.4701  131.7129  149.6754 H   0  0  0  0  0  0  0  0  0  0  0  0
  147.3530  135.2819  152.3341 H   0  0  0  0  0  0  0  0  0  0  0  0
  147.7196  137.2509  152.4505 H   0  0  0  0  0  0  0  0  0  0  0  0
  146.0860  139.2786  152.9102 H   0  0  0  0  0  0  0  0  0  0  0  0
  146.4501  138.8594  154.5673 H   0  0  0  0  0  0  0  0  0  0  0  0
  148.4823  139.7113  152.4361 H   0  0  0  0  0  0  0  0  0  0  0  0
  147.9544  141.7816  153.1908 H   0  0  0  0  0  0  0  0  0  0  0  0
  147.1651  141.1990  154.6533 H   0  0  0  0  0  0  0  0  0  0  0  0
  149.8094  142.2335  154.5834 H   0  0  0  0  0  0  0  0  0  0  0  0
  149.1174  141.2601  155.8844 H   0  0  0  0  0  0  0  0  0  0  0  0
  148.9757  138.6944  155.2576 H   0  0  0  0  0  0  0  0  0  0  0  0
  149.8309  138.2582  153.7703 H   0  0  0  0  0  0  0  0  0  0  0  0
  1  2  1  0  0  0  0
  1 19  1  0  0  0  0
  1 20  1  0  0  0  0
  1 21  1  0  0  0  0
  2  3  1  0  0  0  0
  2  9  1  0  0  0  0
  2 22  1  0  0  0  0
  3  4  1  0  0  0  0
  3 23  1  0  0  0  0
  3 24  1  0  0  0  0
  4  8  1  0  0  0  0
  4  5  1  0  0  0  0
  5  6  2  0  0  0  0
  5 25  1  0  0  0  0
  6  7  1  0  0  0  0
  6 26  1  0  0  0  0
  7  8  2  0  0  0  0
  8 27  1  0  0  0  0
  9 10  1  0  0  0  0
  9 28  1  0  0  0  0
 10 11  2  0  0  0  0
 10 12  1  0  0  0  0
 12 13  1  0  0  0  0
 12 29  1  0  0  0  0
 13 14  1  0  0  0  0
 13 30  1  0  0  0  0
 13 31  1  0  0  0  0
 14 18  1  0  0  0  0
 14 15  1  0  0  0  0
 14 32  1  0  0  0  0
 15 16  1  0  0  0  0
 15 33  1  0  0  0  0
 15 34  1  0  0  0  0
 16 17  1  0  0  0  0
 16 35  1  0  0  0  0
 16 36  1  0  0  0  0
 17 18  1  0  0  0  0
 18 37  1  0  0  0  0
 18 38  1  0  0  0  0
M  END
> <s_m_source_file>
AV-unprocessed.smi

> <i_m_source_file_index>
3292

> <i_lp_mmshare_version>
43012

> <i_f3d_flags>
0

> <s_epik_input>
W2NIXTFuW2NIXVtjSF1uMVtDSDJdW0NAQEhdKFtDSDNdKVtOSF1DKD1PKVtOSF1bQ0gyXVtDQEBIXTJbQ0gyXVtDSDJdT1tDSDJdMg==

> <s_epik_cmdline>
J2VwaWtfcHl0aG9uJywgJy1waCcsICc3LjAnLCAnLXRuJywgJzgnLCAnLW1hJywgJzIwMCcsICctbWV0YWxfYmluZGluZycsICctaW1hZScsICc8aW5maWxlLm1hZT4nLCAnLW9tYWUnLCAnPG91dGZpbGUubWFlPic=

> <r_lp_tautomer_probability>
1

> <r_epik_Ionization_Penalty>
0.621291

> <r_epik_Ionization_Penalty_Charging>
0.621234

> <r_epik_Ionization_Penalty_Neutral>
5.72199e-05

> <r_epik_State_Penalty>
0.637278

> <r_epik_Charging_Adjusted_Penalty>
1.25851

> <i_epik_Tot_Q>
0

> <i_epik_Tot_abs_Q>
0

> <r_epik_Metal_State_Penalty>
0.306757

> <b_epik_Metal_Only>
0

> <s_lp_Force_Field>
OPLS_2005

> <r_lp_Energy>
18.0695

> <b_lp_Chiralities_Consistent>
1

> <s_lp_Variant>
AV-unprocessed.smi:3292-7

> <Gold.Version>
5.8.1

> <Gold.Id.Protein>
6NUR|6NUR_protein|mol2

> <Gold.PLP.Fitness>
44.4868

> <Gold.PLP.PLP>
-29.6631

> <Gold.PLP.part.hbond>
-4.0000

> <Gold.PLP.part.metal>
0.0000

> <Gold.PLP.part.buried>
-1.7060

> <Gold.PLP.part.nonpolar>
-25.5729

> <Gold.PLP.part.repulsive>
0.3319

> <Gold.PLP.ligand.clash>
0.0000

> <Gold.PLP.ligand.torsion>
1.1928

> <Gold.PLP.Chemscore.Hbond>
3.0688

> <Gold.PLP.Chemscore.CHOScore>
2.6521

> <Gold.PLP.Chemscore.Metal>
0.0000

> <Gold.Chemscore.Hbonds>
donor molecule, donor type, donor heavy atom, donor atom, acceptor molecule, acceptor atom, score
      L1  H     9    28       P1  7948  0.83
      L1  H    12    29       P1  7948  0.96
      P1  H  7989  7998       L1    17  1.00
      P1  H 10785 10796       L1     7  0.26
      L1  C     6    26       P1 10186  0.97
      L1  C     6    26       P1 10952  0.64
      L1  C     8    27       P1 10747  0.58

> <Gold.PLP.Chemscore.Internal.Correction>
0.0466

> <Gold.Rescore>
     Score         DG    S(hbond)    S(metal)    S(lipo)     H(rot)  DE(clash)    DE(int)     intcor
     15.69     -17.45       3.24        0.00      57.12       2.16       0.59       1.17       ----

> <Gold.Chemscore.Fitness>
15.6889

> <Gold.Chemscore.DG>
-17.4467

> <Gold.Chemscore.ZeroCoef>
-5.4800

> <Gold.Chemscore.Hbond>
3.2359

> <Gold.Chemscore.Metal>
0.0000

> <Gold.Chemscore.Lipo>
57.1160

> <Gold.Chemscore.Internal_Hbond>
0.0000

> <Gold.Chemscore.DEClash>
0.5918

> <Gold.Chemscore.DEInternal>
1.1660

> <Gold.Chemscore.Rot>
2.1577

> <Gold.Chemscore.Internal.Correction>
   9.000000E+99

> <Gold.Chemscore.Hbonds>
donor molecule, donor type, donor heavy atom, donor atom, acceptor molecule, acceptor atom, score
      L1  H     9    28       P1  7948  0.83
      L1  H    12    29       P1  7948  0.92
      P1  H  7989  7998       L1    17  0.58
      P1  H 10785 10796       L1     7  0.04

> <Gold.Chemscore.Hbond.Weighted>
-10.8079

> <Gold.Chemscore.Metal.Weighted>
-0.0000

> <Gold.Chemscore.Lipo.Weighted>
-6.6826

> <Gold.Chemscore.Internal_Hbond.Weighted>
0.0000

> <Gold.Chemscore.DEClash.Weighted>
0.5918

> <Gold.Chemscore.DEInternal.Weighted>
1.1660

> <Gold.Chemscore.Rot.Weighted>
5.5237

> <Gold.Chemscore.Internal.Correction.Weighted>
   9.000000E+99

> <Gold.Protein.RotatedTorsions>
[ 6907 6896 6895 6894 ] final    9.13 input  -60.11 | X-H torsion
[ 7974 7965 7964 7962 ] final  165.67 input  175.53 | X-H torsion
[ 8008 7997 7996 7995 ] final -127.43 input   59.86 | X-H torsion
[ 10167 10162 10161 10158 ] final   68.08 input  -65.29 | X-H torsion
[ 10718 10713 10712 10709 ] final  -41.04 input   66.30 | X-H torsion
[ 10763 10752 10751 10750 ] final   88.69 input  -60.55 | X-H torsion
[ 11005 11000 10999 10996 ] final  141.38 input  -57.11 | X-H torsion

> <Gold.Protein.ActiveResidues>
 VAL166  LYS551  ARG553  GLY616  TRP617  ASP618  TYR619  PRO620  LYS621  CYS622 
 ASP623  PHE694  ASN695  SER759  ASP760  ASP761  ALA762  ILE779  LEU786  VAL792 
 PHE793  MET794  SER795  GLU796  ALA797  LYS798  CYS799  TRP800  GLU811  SER814 

> <Gold.Protein.RotatedAtoms>
  151.7171  135.0901  160.0277 H   0  0  0  0  0  0  0  0  0  0  0  0  # atno 6907 bound_to 6896
  152.3625  133.6310  159.6034 H   0  0  0  0  0  0  0  0  0  0  0  0  # atno 6908 bound_to 6896
  150.7614  133.9317  159.3470 H   0  0  0  0  0  0  0  0  0  0  0  0  # atno 6909 bound_to 6896
  144.7493  139.8504  143.6371 H   0  0  0  0  0  0  0  0  0  0  0  0  # atno 7974 bound_to 7965
  155.2460  140.0430  157.2981 H   0  0  0  0  0  0  0  0  0  0  0  0  # atno 8008 bound_to 7997
  154.5798  140.2397  155.8039 H   0  0  0  0  0  0  0  0  0  0  0  0  # atno 8009 bound_to 7997
  156.2185  140.2977  155.9903 H   0  0  0  0  0  0  0  0  0  0  0  0  # atno 8010 bound_to 7997
  140.0826  144.5058  150.7152 H   0  0  0  0  0  0  0  0  0  0  0  0  # atno 10167 bound_to 10162
  156.2747  130.4210  149.8400 H   0  0  0  0  0  0  0  0  0  0  0  0  # atno 10718 bound_to 10713
  153.1794  135.4498  155.0008 H   0  0  0  0  0  0  0  0  0  0  0  0  # atno 10763 bound_to 10752
  154.8020  135.3259  154.7529 H   0  0  0  0  0  0  0  0  0  0  0  0  # atno 10764 bound_to 10752
  153.7996  135.6963  153.4913 H   0  0  0  0  0  0  0  0  0  0  0  0  # atno 10765 bound_to 10752
  140.0397  134.9311  157.0820 H   0  0  0  0  0  0  0  0  0  0  0  0  # atno 11005 bound_to 11000
  146.1420  139.4479  143.0103 LP  0  0  0  0  0  0  0  0  0  0  0  0  # atno 17320 bound_to 7965
  145.7004  141.0138  143.1507 LP  0  0  0  0  0  0  0  0  0  0  0  0  # atno 17321 bound_to 7965
  140.7070  143.2475  151.4696 LP  0  0  0  0  0  0  0  0  0  0  0  0  # atno 17342 bound_to 10162
  139.5771  144.1794  152.1918 LP  0  0  0  0  0  0  0  0  0  0  0  0  # atno 17343 bound_to 10162
  156.5868  130.8489  151.3398 LP  0  0  0  0  0  0  0  0  0  0  0  0  # atno 17370 bound_to 10713
  157.7295  130.9672  150.1792 LP  0  0  0  0  0  0  0  0  0  0  0  0  # atno 17371 bound_to 10713
  140.4089  134.2002  155.7163 LP  0  0  0  0  0  0  0  0  0  0  0  0  # atno 17394 bound_to 11000
  141.1876  133.8277  157.1025 LP  0  0  0  0  0  0  0  0  0  0  0  0  # atno 17395 bound_to 11000

$$$$
