AV-unprocessed.smi:777|AV-procd|sdf|3701|dock10
  -GOLD-   22720 1123D 1   1.00000     0.00000
 Structure written by MMmdl.
 37 38  0  0  0  0  0  0  0  0  2 V2000
  148.6545  141.3489  156.8737 C   0  0  0  0  0  0  0  0  0  0  0  0
  150.1138  141.5159  156.3995 C   0  0  2  0  0  0  0  0  0  0  0  0
  150.6998  140.2206  155.8169 C   0  0  0  0  0  0  0  0  0  0  0  0
  151.1778  140.2166  154.6828 O   0  0  0  0  0  0  0  0  0  0  0  0
  150.6277  139.1480  156.6283 N   0  0  0  0  0  0  0  0  0  0  0  0
  150.9898  137.7344  156.4406 C   0  0  0  0  0  0  0  0  0  0  0  0
  152.5388  137.7178  156.5114 C   0  0  0  0  0  0  0  0  0  0  0  0
  153.1293  138.7997  156.7281 O   0  0  0  0  0  0  0  0  0  0  0  0
  153.1212  136.6310  156.2961 O   0  5  0  0  0  0  0  0  0  0  0  0
  150.3662  136.7513  157.4830 C   0  0  0  0  0  0  0  0  0  0  0  0
  150.6458  135.2698  157.1624 C   0  0  0  0  0  0  0  0  0  0  0  0
  150.1499  134.9053  155.7555 C   0  0  0  0  0  0  0  0  0  0  0  0
  150.7549  135.8363  154.6948 C   0  0  0  0  0  0  0  0  0  0  0  0
  150.4851  137.3169  155.0295 C   0  0  0  0  0  0  0  0  0  0  0  0
  150.9954  142.0340  157.4411 N   0  0  0  0  0  0  0  0  0  0  0  0
  150.9488  143.2744  158.0459 C   0  0  0  0  0  0  0  0  0  0  0  0
  151.9955  143.3474  158.9194 C   0  0  0  0  0  0  0  0  0  0  0  0
  152.6494  142.0938  158.7666 C   0  0  0  0  0  0  0  0  0  0  0  0
  152.0564  141.3147  157.8771 N   0  0  0  0  0  0  0  0  0  0  0  0
  148.0128  141.0219  156.0550 H   0  0  0  0  0  0  0  0  0  0  0  0
  148.2556  142.2941  157.2425 H   0  0  0  0  0  0  0  0  0  0  0  0
  148.5623  140.6157  157.6762 H   0  0  0  0  0  0  0  0  0  0  0  0
  150.1017  142.2584  155.5997 H   0  0  0  0  0  0  0  0  0  0  0  0
  150.1987  139.3280  157.5242 H   0  0  0  0  0  0  0  0  0  0  0  0
  150.7084  136.9754  158.4944 H   0  0  0  0  0  0  0  0  0  0  0  0
  149.2830  136.8760  157.4971 H   0  0  0  0  0  0  0  0  0  0  0  0
  151.7124  135.0586  157.2442 H   0  0  0  0  0  0  0  0  0  0  0  0
  150.1542  134.6357  157.9007 H   0  0  0  0  0  0  0  0  0  0  0  0
  150.3998  133.8686  155.5287 H   0  0  0  0  0  0  0  0  0  0  0  0
  149.0620  134.9758  155.7237 H   0  0  0  0  0  0  0  0  0  0  0  0
  151.8278  135.6571  154.6183 H   0  0  0  0  0  0  0  0  0  0  0  0
  150.3375  135.5984  153.7161 H   0  0  0  0  0  0  0  0  0  0  0  0
  149.4098  137.4925  154.9718 H   0  0  0  0  0  0  0  0  0  0  0  0
  150.9197  137.9493  154.2538 H   0  0  0  0  0  0  0  0  0  0  0  0
  150.1835  143.9970  157.8028 H   0  0  0  0  0  0  0  0  0  0  0  0
  152.2594  144.1746  159.5610 H   0  0  0  0  0  0  0  0  0  0  0  0
  153.5349  141.7314  159.2676 H   0  0  0  0  0  0  0  0  0  0  0  0
  1  2  1  0  0  0  0
  1 20  1  0  0  0  0
  1 21  1  0  0  0  0
  1 22  1  0  0  0  0
  2  3  1  0  0  0  0
  2 15  1  0  0  0  0
  2 23  1  0  0  0  0
  3  4  2  0  0  0  0
  3  5  1  0  0  0  0
  5  6  1  0  0  0  0
  5 24  1  0  0  0  0
  6 14  1  0  0  0  0
  6  7  1  0  0  0  0
  6 10  1  0  0  0  0
  7  8  2  0  0  0  0
  7  9  1  0  0  0  0
 10 11  1  0  0  0  0
 10 25  1  0  0  0  0
 10 26  1  0  0  0  0
 11 12  1  0  0  0  0
 11 27  1  0  0  0  0
 11 28  1  0  0  0  0
 12 13  1  0  0  0  0
 12 29  1  0  0  0  0
 12 30  1  0  0  0  0
 13 14  1  0  0  0  0
 13 31  1  0  0  0  0
 13 32  1  0  0  0  0
 14 33  1  0  0  0  0
 14 34  1  0  0  0  0
 15 19  1  0  0  0  0
 15 16  1  0  0  0  0
 16 17  2  0  0  0  0
 16 35  1  0  0  0  0
 17 18  1  0  0  0  0
 17 36  1  0  0  0  0
 18 19  2  0  0  0  0
 18 37  1  0  0  0  0
M  CHG  1   9  -1
M  END
> <s_m_source_file>
AV-unprocessed.smi

> <i_m_source_file_index>
777

> <i_lp_mmshare_version>
43012

> <i_f3d_flags>
0

> <s_epik_input>
bjFbY0hdW2NIXVtjSF1uMVtDQEhdKFtDSDNdKUMoPU8pW05IXUMyKEMoPU8pW09IXSlbQ0gyXVtDSDJdW0NIMl1bQ0gyXVtDSDJdMg==

> <s_epik_cmdline>
J2VwaWtfcHl0aG9uJywgJy1waCcsICc3LjAnLCAnLXRuJywgJzgnLCAnLW1hJywgJzIwMCcsICctbWV0YWxfYmluZGluZycsICctaW1hZScsICc8aW5maWxlLm1hZT4nLCAnLW9tYWUnLCAnPG91dGZpbGUubWFlPic=

> <r_lp_tautomer_probability>
1

> <r_epik_Ionization_Penalty>
0.000371068

> <r_epik_Ionization_Penalty_Charging>
0.000323848

> <r_epik_Ionization_Penalty_Neutral>
4.72198e-05

> <r_epik_State_Penalty>
0.000195685

> <r_epik_Charging_Adjusted_Penalty>
0.000519533

> <i_epik_Tot_Q>
-1

> <i_epik_Tot_abs_Q>
1

> <r_epik_Metal_State_Penalty>
-0

> <b_epik_Metal_Only>
0

> <s_lp_Force_Field>
OPLS_2005

> <r_lp_Energy>
8.44032

> <b_lp_Chiralities_Consistent>
1

> <s_lp_Variant>
AV-unprocessed.smi:777-1

> <Gold.Version>
5.8.1

> <Gold.Id.Protein>
6NUR|6NUR_protein|mol2

> <Gold.PLP.Fitness>
41.8059

> <Gold.PLP.PLP>
-25.6699

> <Gold.PLP.part.hbond>
-2.5430

> <Gold.PLP.part.metal>
0.0000

> <Gold.PLP.part.buried>
-2.2534

> <Gold.PLP.part.nonpolar>
-21.1329

> <Gold.PLP.part.repulsive>
0.0949

> <Gold.PLP.ligand.clash>
0.0000

> <Gold.PLP.ligand.torsion>
0.6031

> <Gold.PLP.Chemscore.Hbond>
4.7313

> <Gold.PLP.Chemscore.CHOScore>
0.9957

> <Gold.PLP.Chemscore.Metal>
0.0000

> <Gold.Chemscore.Hbonds>
donor molecule, donor type, donor heavy atom, donor atom, acceptor molecule, acceptor atom, score
      P1  H  7989  7998       L1     4  0.73
      P1  H  7997  8009       L1     8  2.00
      P1  H 10752 10765       L1     9  1.73
      L1  C    16    35       P1  8028  0.87

> <Gold.PLP.Chemscore.Internal.Correction>
0.1614

> <Gold.Rescore>
     Score         DG    S(hbond)    S(metal)    S(lipo)     H(rot)  DE(clash)    DE(int)     intcor
     10.02     -17.61       2.90        0.00      64.05       1.98       0.02       7.57       ----

> <Gold.Chemscore.Fitness>
10.0216

> <Gold.Chemscore.DG>
-17.6096

> <Gold.Chemscore.ZeroCoef>
-5.4800

> <Gold.Chemscore.Hbond>
2.9035

> <Gold.Chemscore.Metal>
0.0000

> <Gold.Chemscore.Lipo>
64.0517

> <Gold.Chemscore.Internal_Hbond>
0.0000

> <Gold.Chemscore.DEClash>
0.0222

> <Gold.Chemscore.DEInternal>
7.5658

> <Gold.Chemscore.Rot>
1.9774

> <Gold.Chemscore.Internal.Correction>
   9.000000E+99

> <Gold.Chemscore.Hbonds>
donor molecule, donor type, donor heavy atom, donor atom, acceptor molecule, acceptor atom, score
      P1  H  7989  7998       L1     4  0.73
      P1  H  7997  8009       L1     8  0.99
      P1  H 10752 10765       L1     9  0.84

> <Gold.Chemscore.Hbond.Weighted>
-9.6976

> <Gold.Chemscore.Metal.Weighted>
-0.0000

> <Gold.Chemscore.Lipo.Weighted>
-7.4941

> <Gold.Chemscore.Internal_Hbond.Weighted>
0.0000

> <Gold.Chemscore.DEClash.Weighted>
0.0222

> <Gold.Chemscore.DEInternal.Weighted>
7.5658

> <Gold.Chemscore.Rot.Weighted>
5.0620

> <Gold.Chemscore.Internal.Correction.Weighted>
   9.000000E+99

> <Gold.Protein.RotatedTorsions>
[ 6907 6896 6895 6894 ] final -142.07 input  -60.11 | X-H torsion
[ 7974 7965 7964 7962 ] final  148.60 input  175.53 | X-H torsion
[ 8008 7997 7996 7995 ] final -168.36 input   59.86 | X-H torsion
[ 10167 10162 10161 10158 ] final   84.52 input  -65.29 | X-H torsion
[ 10718 10713 10712 10709 ] final  -93.84 input   66.30 | X-H torsion
[ 10763 10752 10751 10750 ] final -126.98 input  -60.55 | X-H torsion
[ 11005 11000 10999 10996 ] final -164.78 input  -57.11 | X-H torsion

> <Gold.Protein.ActiveResidues>
 VAL166  LYS551  ARG553  GLY616  TRP617  ASP618  TYR619  PRO620  LYS621  CYS622 
 ASP623  PHE694  ASN695  SER759  ASP760  ASP761  ALA762  ILE779  LEU786  VAL792 
 PHE793  MET794  SER795  GLU796  ALA797  LYS798  CYS799  TRP800  GLU811  SER814 

> <Gold.Protein.RotatedAtoms>
  151.0822  133.5381  159.2619 H   0  0  0  0  0  0  0  0  0  0  0  0  # atno 6907 bound_to 6896
  151.2280  135.0543  159.8986 H   0  0  0  0  0  0  0  0  0  0  0  0  # atno 6908 bound_to 6896
  152.5425  134.0615  159.8208 H   0  0  0  0  0  0  0  0  0  0  0  0  # atno 6909 bound_to 6896
  144.8501  139.6174  143.5977 H   0  0  0  0  0  0  0  0  0  0  0  0  # atno 7974 bound_to 7965
  155.8904  140.1024  157.1423 H   0  0  0  0  0  0  0  0  0  0  0  0  # atno 8008 bound_to 7997
  154.4014  140.1312  156.4372 H   0  0  0  0  0  0  0  0  0  0  0  0  # atno 8009 bound_to 7997
  155.7540  140.3464  155.5167 H   0  0  0  0  0  0  0  0  0  0  0  0  # atno 8010 bound_to 7997
  139.9072  144.6294  150.8575 H   0  0  0  0  0  0  0  0  0  0  0  0  # atno 10167 bound_to 10162
  156.0019  130.5043  150.5837 H   0  0  0  0  0  0  0  0  0  0  0  0  # atno 10718 bound_to 10713
  154.8749  135.3977  154.3518 H   0  0  0  0  0  0  0  0  0  0  0  0  # atno 10763 bound_to 10752
  153.4303  135.7025  153.6240 H   0  0  0  0  0  0  0  0  0  0  0  0  # atno 10764 bound_to 10752
  153.4865  135.3757  155.2439 H   0  0  0  0  0  0  0  0  0  0  0  0  # atno 10765 bound_to 10752
  140.5831  134.5122  157.5181 H   0  0  0  0  0  0  0  0  0  0  0  0  # atno 11005 bound_to 11000
  146.2778  139.6797  142.9251 LP  0  0  0  0  0  0  0  0  0  0  0  0  # atno 17320 bound_to 7965
  145.4516  141.0428  143.2801 LP  0  0  0  0  0  0  0  0  0  0  0  0  # atno 17321 bound_to 7965
  140.7693  143.3392  151.2243 LP  0  0  0  0  0  0  0  0  0  0  0  0  # atno 17342 bound_to 10162
  139.6974  143.9590  152.2889 LP  0  0  0  0  0  0  0  0  0  0  0  0  # atno 17343 bound_to 10162
  157.3713  131.0766  151.1555 LP  0  0  0  0  0  0  0  0  0  0  0  0  # atno 17370 bound_to 10713
  157.2307  130.6524  149.5848 LP  0  0  0  0  0  0  0  0  0  0  0  0  # atno 17371 bound_to 10713
  139.9308  134.7967  156.0936 LP  0  0  0  0  0  0  0  0  0  0  0  0  # atno 17394 bound_to 11000
  141.0984  133.6687  156.2697 LP  0  0  0  0  0  0  0  0  0  0  0  0  # atno 17395 bound_to 11000

$$$$
