AV-unprocessed.smi:2153|AV-procd|sdf|8766|dock5
  -GOLD-   2272011543D 1   1.00000     0.00000
 Structure written by MMmdl.
 48 49  0  0  0  0  0  0  0  0  1 V2000
  153.6519  140.6608  160.5414 C   0  0  0  0  0  0  0  0  0  0  0  0
  153.1597  141.8439  159.6920 C   0  0  2  0  0  0  0  0  0  0  0  0
  152.6556  142.9877  160.5954 C   0  0  0  0  0  0  0  0  0  0  0  0
  152.1502  144.1830  159.7736 C   0  0  0  0  0  0  0  0  0  0  0  0
  151.0539  143.7501  158.7908 C   0  0  0  0  0  0  0  0  0  0  0  0
  151.5490  142.6197  157.8773 C   0  0  0  0  0  0  0  0  0  0  0  0
  152.0626  141.4132  158.6917 C   0  0  1  0  0  0  0  0  0  0  0  0
  152.6290  140.4555  157.8058 O   0  0  0  0  0  0  0  0  0  0  0  0
  151.6855  139.7893  156.9788 C   0  0  0  0  0  0  0  0  0  0  0  0
  152.2087  138.3853  156.6585 C   0  0  0  0  0  0  0  0  0  0  0  0
  151.1051  137.4438  156.5292 N   0  0  0  0  0  0  0  0  0  0  0  0
  150.9623  136.5769  155.5177 C   0  0  0  0  0  0  0  0  0  0  0  0
  151.7640  136.4934  154.5860 O   0  0  0  0  0  0  0  0  0  0  0  0
  149.7129  135.6862  155.5714 C   0  0  0  0  0  0  0  0  0  0  0  0
  149.9776  134.2855  155.2156 N   0  0  0  0  0  0  0  0  0  0  0  0
  149.4581  133.7714  154.0414 C   0  0  0  0  0  0  0  0  0  0  0  0
  149.6573  132.4998  153.6317 C   0  0  0  0  0  0  0  0  0  0  0  0
  150.4547  131.5760  154.4280 C   0  0  0  0  0  0  0  0  0  0  0  0
  150.6600  130.4050  154.1048 O   0  0  0  0  0  0  0  0  0  0  0  0
  150.9803  132.1267  155.6192 N   0  0  0  0  0  0  0  0  0  0  0  0
  151.7763  131.2390  156.4413 C   0  0  0  0  0  0  0  0  0  0  0  0
  150.7651  133.4581  156.0465 C   0  0  0  0  0  0  0  0  0  0  0  0
  151.2348  133.9001  157.0975 O   0  0  0  0  0  0  0  0  0  0  0  0
  152.8401  140.2290  161.1274 H   0  0  0  0  0  0  0  0  0  0  0  0
  154.4326  140.9741  161.2349 H   0  0  0  0  0  0  0  0  0  0  0  0
  154.0689  139.8694  159.9181 H   0  0  0  0  0  0  0  0  0  0  0  0
  154.0106  142.2189  159.1214 H   0  0  0  0  0  0  0  0  0  0  0  0
  151.8510  142.6242  161.2363 H   0  0  0  0  0  0  0  0  0  0  0  0
  153.4537  143.3170  161.2615 H   0  0  0  0  0  0  0  0  0  0  0  0
  151.7684  144.9579  160.4390 H   0  0  0  0  0  0  0  0  0  0  0  0
  152.9811  144.6280  159.2247 H   0  0  0  0  0  0  0  0  0  0  0  0
  150.1756  143.4160  159.3444 H   0  0  0  0  0  0  0  0  0  0  0  0
  150.7362  144.6023  158.1894 H   0  0  0  0  0  0  0  0  0  0  0  0
  150.7411  142.3183  157.2112 H   0  0  0  0  0  0  0  0  0  0  0  0
  152.3495  142.9954  157.2386 H   0  0  0  0  0  0  0  0  0  0  0  0
  151.2377  140.9697  159.2536 H   0  0  0  0  0  0  0  0  0  0  0  0
  150.7330  139.7121  157.5049 H   0  0  0  0  0  0  0  0  0  0  0  0
  151.5045  140.3418  156.0565 H   0  0  0  0  0  0  0  0  0  0  0  0
  152.7944  138.4026  155.7381 H   0  0  0  0  0  0  0  0  0  0  0  0
  152.8718  138.0493  157.4569 H   0  0  0  0  0  0  0  0  0  0  0  0
  150.4009  137.4593  157.2528 H   0  0  0  0  0  0  0  0  0  0  0  0
  149.2678  135.7470  156.5661 H   0  0  0  0  0  0  0  0  0  0  0  0
  148.9677  136.1028  154.8921 H   0  0  0  0  0  0  0  0  0  0  0  0
  148.8626  134.4199  153.4152 H   0  0  0  0  0  0  0  0  0  0  0  0
  149.2217  132.1621  152.7028 H   0  0  0  0  0  0  0  0  0  0  0  0
  152.2262  131.7696  157.2796 H   0  0  0  0  0  0  0  0  0  0  0  0
  152.5667  130.8283  155.8105 H   0  0  0  0  0  0  0  0  0  0  0  0
  151.1092  130.4551  156.8040 H   0  0  0  0  0  0  0  0  0  0  0  0
  1  2  1  0  0  0  0
  1 24  1  0  0  0  0
  1 25  1  0  0  0  0
  1 26  1  0  0  0  0
  2  7  1  0  0  0  0
  2  3  1  0  0  0  0
  2 27  1  0  0  0  0
  3  4  1  0  0  0  0
  3 28  1  0  0  0  0
  3 29  1  0  0  0  0
  4  5  1  0  0  0  0
  4 30  1  0  0  0  0
  4 31  1  0  0  0  0
  5  6  1  0  0  0  0
  5 32  1  0  0  0  0
  5 33  1  0  0  0  0
  6  7  1  0  0  0  0
  6 34  1  0  0  0  0
  6 35  1  0  0  0  0
  7  8  1  0  0  0  0
  7 36  1  0  0  0  0
  8  9  1  0  0  0  0
  9 10  1  0  0  0  0
  9 37  1  0  0  0  0
  9 38  1  0  0  0  0
 10 11  1  0  0  0  0
 10 39  1  0  0  0  0
 10 40  1  0  0  0  0
 11 12  1  0  0  0  0
 11 41  1  0  0  0  0
 12 13  2  0  0  0  0
 12 14  1  0  0  0  0
 14 15  1  0  0  0  0
 14 42  1  0  0  0  0
 14 43  1  0  0  0  0
 15 22  1  0  0  0  0
 15 16  1  0  0  0  0
 16 17  2  0  0  0  0
 16 44  1  0  0  0  0
 17 18  1  0  0  0  0
 17 45  1  0  0  0  0
 18 19  2  0  0  0  0
 18 20  1  0  0  0  0
 20 21  1  0  0  0  0
 20 22  1  0  0  0  0
 21 46  1  0  0  0  0
 21 47  1  0  0  0  0
 21 48  1  0  0  0  0
 22 23  2  0  0  0  0
M  END
> <s_m_source_file>
AV-unprocessed.smi

> <i_m_source_file_index>
2153

> <i_lp_mmshare_version>
43012

> <i_f3d_flags>
0

> <s_epik_input>
W0NIM11bQ0BASF0xW0NIMl1bQ0gyXVtDSDJdW0NIMl1bQ0BIXTFPW0NIMl1bQ0gyXVtOSF1DKD1PKVtDSDJdbjJbY0hdW2NIXWMoPU8pbihbQ0gzXSljMj1P

> <s_epik_cmdline>
J2VwaWtfcHl0aG9uJywgJy1waCcsICc3LjAnLCAnLXRuJywgJzgnLCAnLW1hJywgJzIwMCcsICctbWV0YWxfYmluZGluZycsICctaW1hZScsICc8aW5maWxlLm1hZT4nLCAnLW9tYWUnLCAnPG91dGZpbGUubWFlPic=

> <r_lp_tautomer_probability>
1

> <r_epik_Ionization_Penalty>
4.02205e-08

> <r_epik_Ionization_Penalty_Charging>
1.23606e-08

> <r_epik_Ionization_Penalty_Neutral>
2.78599e-08

> <r_epik_State_Penalty>
-0

> <r_epik_Charging_Adjusted_Penalty>
1.23606e-08

> <i_epik_Tot_Q>
0

> <i_epik_Tot_abs_Q>
0

> <r_epik_Metal_State_Penalty>
-0

> <b_epik_Metal_Only>
0

> <s_lp_Force_Field>
OPLS_2005

> <r_lp_Energy>
20.2875

> <b_lp_Chiralities_Consistent>
1

> <s_lp_Variant>
AV-unprocessed.smi:2153-1

> <Gold.Version>
5.8.1

> <Gold.Id.Protein>
6NUR|6NUR_protein|mol2

> <Gold.PLP.Fitness>
52.3223

> <Gold.PLP.PLP>
-43.9944

> <Gold.PLP.part.hbond>
-3.0000

> <Gold.PLP.part.metal>
0.0000

> <Gold.PLP.part.buried>
-5.1133

> <Gold.PLP.part.nonpolar>
-35.9319

> <Gold.PLP.part.repulsive>
0.2809

> <Gold.PLP.ligand.clash>
0.0000

> <Gold.PLP.ligand.torsion>
0.7984

> <Gold.PLP.Chemscore.Hbond>
2.2862

> <Gold.PLP.Chemscore.CHOScore>
1.0000

> <Gold.PLP.Chemscore.Metal>
0.0000

> <Gold.Chemscore.Hbonds>
donor molecule, donor type, donor heavy atom, donor atom, acceptor molecule, acceptor atom, score
      P1  H  6896  6908       L1    23  0.36
      P1  H  7997  8008       L1     8  0.69
      P1  H 10752 10765       L1    13  0.84
      L1  C    16    44       P1  7948  0.84

> <Gold.PLP.Chemscore.Internal.Correction>
0.0662

> <Gold.Rescore>
     Score         DG    S(hbond)    S(metal)    S(lipo)     H(rot)  DE(clash)    DE(int)     intcor
     19.26     -20.39       2.67        0.00      99.13       2.20       0.20       0.93       ----

> <Gold.Chemscore.Fitness>
19.2588

> <Gold.Chemscore.DG>
-20.3874

> <Gold.Chemscore.ZeroCoef>
-5.4800

> <Gold.Chemscore.Hbond>
2.6747

> <Gold.Chemscore.Metal>
0.0000

> <Gold.Chemscore.Lipo>
99.1262

> <Gold.Chemscore.Internal_Hbond>
0.0000

> <Gold.Chemscore.DEClash>
0.2025

> <Gold.Chemscore.DEInternal>
0.9260

> <Gold.Chemscore.Rot>
2.1968

> <Gold.Chemscore.Internal.Correction>
   9.000000E+99

> <Gold.Chemscore.Hbonds>
donor molecule, donor type, donor heavy atom, donor atom, acceptor molecule, acceptor atom, score
      P1  H  6896  6908       L1    23  0.36
      P1  H  7997  8008       L1     8  0.20
      P1  H 10752 10765       L1    13  0.82

> <Gold.Chemscore.Hbond.Weighted>
-8.9334

> <Gold.Chemscore.Metal.Weighted>
-0.0000

> <Gold.Chemscore.Lipo.Weighted>
-11.5978

> <Gold.Chemscore.Internal_Hbond.Weighted>
0.0000

> <Gold.Chemscore.DEClash.Weighted>
0.2025

> <Gold.Chemscore.DEInternal.Weighted>
0.9260

> <Gold.Chemscore.Rot.Weighted>
5.6238

> <Gold.Chemscore.Internal.Correction.Weighted>
   9.000000E+99

> <Gold.Protein.RotatedTorsions>
[ 6907 6896 6895 6894 ] final   95.67 input  -60.11 | X-H torsion
[ 7974 7965 7964 7962 ] final   84.25 input  175.53 | X-H torsion
[ 8008 7997 7996 7995 ] final  -64.75 input   59.86 | X-H torsion
[ 10167 10162 10161 10158 ] final   59.74 input  -65.29 | X-H torsion
[ 10718 10713 10712 10709 ] final   16.75 input   66.30 | X-H torsion
[ 10763 10752 10751 10750 ] final  161.49 input  -60.55 | X-H torsion
[ 11005 11000 10999 10996 ] final   75.61 input  -57.11 | X-H torsion

> <Gold.Protein.ActiveResidues>
 VAL166  LYS551  ARG553  GLY616  TRP617  ASP618  TYR619  PRO620  LYS621  CYS622 
 ASP623  PHE694  ASN695  SER759  ASP760  ASP761  ALA762  ILE779  LEU786  VAL792 
 PHE793  MET794  SER795  GLU796  ALA797  LYS798  CYS799  TRP800  GLU811  SER814 

> <Gold.Protein.RotatedAtoms>
  152.5442  134.1004  159.8315 H   0  0  0  0  0  0  0  0  0  0  0  0  # atno 6907 bound_to 6896
  151.1083  133.5185  159.2614 H   0  0  0  0  0  0  0  0  0  0  0  0  # atno 6908 bound_to 6896
  151.1913  135.0413  159.8888 H   0  0  0  0  0  0  0  0  0  0  0  0  # atno 6909 bound_to 6896
  145.6012  139.2353  143.2245 H   0  0  0  0  0  0  0  0  0  0  0  0  # atno 7974 bound_to 7965
  154.4630  140.0947  156.6945 H   0  0  0  0  0  0  0  0  0  0  0  0  # atno 8008 bound_to 7997
  155.4938  140.3471  155.4341 H   0  0  0  0  0  0  0  0  0  0  0  0  # atno 8009 bound_to 7997
  156.0906  140.1396  156.9586 H   0  0  0  0  0  0  0  0  0  0  0  0  # atno 8010 bound_to 7997
  140.1732  144.4256  150.6651 H   0  0  0  0  0  0  0  0  0  0  0  0  # atno 10167 bound_to 10162
  157.0723  130.6353  149.5808 H   0  0  0  0  0  0  0  0  0  0  0  0  # atno 10718 bound_to 10713
  154.2638  135.2767  155.2767 H   0  0  0  0  0  0  0  0  0  0  0  0  # atno 10763 bound_to 10752
  154.5361  135.5716  153.6803 H   0  0  0  0  0  0  0  0  0  0  0  0  # atno 10764 bound_to 10752
  152.9957  135.6239  154.2790 H   0  0  0  0  0  0  0  0  0  0  0  0  # atno 10765 bound_to 10752
  139.9336  134.7532  156.1292 H   0  0  0  0  0  0  0  0  0  0  0  0  # atno 11005 bound_to 11000
  146.1575  140.6837  142.9293 LP  0  0  0  0  0  0  0  0  0  0  0  0  # atno 17320 bound_to 7965
  144.7309  140.4668  143.6938 LP  0  0  0  0  0  0  0  0  0  0  0  0  # atno 17321 bound_to 7965
  140.6569  143.2240  151.5949 LP  0  0  0  0  0  0  0  0  0  0  0  0  # atno 17342 bound_to 10162
  139.5329  144.2865  152.1187 LP  0  0  0  0  0  0  0  0  0  0  0  0  # atno 17343 bound_to 10162
  155.9947  130.5011  150.7429 LP  0  0  0  0  0  0  0  0  0  0  0  0  # atno 17370 bound_to 10713
  157.4867  131.0907  151.0474 LP  0  0  0  0  0  0  0  0  0  0  0  0  # atno 17371 bound_to 10713
  141.0938  133.6704  156.2599 LP  0  0  0  0  0  0  0  0  0  0  0  0  # atno 17394 bound_to 11000
  140.6136  134.5434  157.5537 LP  0  0  0  0  0  0  0  0  0  0  0  0  # atno 17395 bound_to 11000

$$$$
