AV-unprocessed.smi:504|AV-procd|sdf|2747|dock5
  -GOLD-   2262023213D 1   1.00000     0.00000
 Structure written by MMmdl.
 35 36  0  0  0  0  0  0  0  0  1 V2000
  148.5406  139.1035  157.2151 N   0  0  0  0  0  0  0  0  0  0  0  0
  148.5668  140.1966  156.8361 C   0  0  0  0  0  0  0  0  0  0  0  0
  148.5995  141.5923  156.3532 C   0  0  0  0  0  0  0  0  0  0  0  0
  149.4924  142.4100  157.1776 N   0  0  0  0  0  0  0  0  0  0  0  0
  150.8244  142.2836  157.2957 C   0  0  0  0  0  0  0  0  0  0  0  0
  151.4831  141.4459  156.6785 O   0  0  0  0  0  0  0  0  0  0  0  0
  151.5088  143.2749  158.2483 C   0  0  0  0  0  0  0  0  0  0  0  0
  152.2938  142.6226  159.3069 N   0  0  0  0  0  0  0  0  0  0  0  0
  152.9290  141.4610  158.9042 N   0  0  0  0  0  0  0  0  0  0  0  0
  153.6353  140.7972  159.7532 C   0  0  0  0  0  0  0  0  0  0  0  0
  153.7949  141.2261  161.1252 C   0  0  0  0  0  0  0  0  0  0  0  0
  154.7551  140.2935  162.2187 Cl  0  0  0  0  0  0  0  0  0  0  0  0
  153.1727  142.3692  161.5085 C   0  0  0  0  0  0  0  0  0  0  0  0
  153.3179  142.9465  163.1333 Cl  0  0  0  0  0  0  0  0  0  0  0  0
  152.3604  143.1527  160.5673 C   0  0  0  0  0  0  0  0  0  0  0  0
  151.7838  144.1971  160.8742 O   0  0  0  0  0  0  0  0  0  0  0  0
  149.0490  141.6456  154.8708 C   0  0  0  0  0  0  0  0  0  0  0  0
  148.0456  140.9534  153.9321 C   0  0  0  0  0  0  0  0  0  0  0  0
  146.6424  141.5590  154.0772 C   0  0  0  0  0  0  0  0  0  0  0  0
  146.1690  141.5198  155.5372 C   0  0  0  0  0  0  0  0  0  0  0  0
  147.1851  142.2060  156.4664 C   0  0  0  0  0  0  0  0  0  0  0  0
  149.0491  143.1338  157.7239 H   0  0  0  0  0  0  0  0  0  0  0  0
  152.1475  143.9285  157.6514 H   0  0  0  0  0  0  0  0  0  0  0  0
  150.7577  143.9293  158.6952 H   0  0  0  0  0  0  0  0  0  0  0  0
  154.1515  139.8761  159.4822 H   0  0  0  0  0  0  0  0  0  0  0  0
  149.1688  142.6842  154.5590 H   0  0  0  0  0  0  0  0  0  0  0  0
  150.0264  141.1778  154.7499 H   0  0  0  0  0  0  0  0  0  0  0  0
  148.3824  141.0424  152.8989 H   0  0  0  0  0  0  0  0  0  0  0  0
  148.0089  139.8856  154.1513 H   0  0  0  0  0  0  0  0  0  0  0  0
  146.6526  142.5911  153.7246 H   0  0  0  0  0  0  0  0  0  0  0  0
  145.9374  141.0225  153.4417 H   0  0  0  0  0  0  0  0  0  0  0  0
  145.1981  142.0086  155.6240 H   0  0  0  0  0  0  0  0  0  0  0  0
  146.0202  140.4850  155.8482 H   0  0  0  0  0  0  0  0  0  0  0  0
  146.8326  142.1433  157.4970 H   0  0  0  0  0  0  0  0  0  0  0  0
  147.2226  143.2692  156.2228 H   0  0  0  0  0  0  0  0  0  0  0  0
  1  2  3  0  0  0  0
  2  3  1  0  0  0  0
  3 21  1  0  0  0  0
  3  4  1  0  0  0  0
  3 17  1  0  0  0  0
  4  5  1  0  0  0  0
  4 22  1  0  0  0  0
  5  6  2  0  0  0  0
  5  7  1  0  0  0  0
  7  8  1  0  0  0  0
  7 23  1  0  0  0  0
  7 24  1  0  0  0  0
  8 15  1  0  0  0  0
  8  9  1  0  0  0  0
  9 10  2  0  0  0  0
 10 11  1  0  0  0  0
 10 25  1  0  0  0  0
 11 12  1  0  0  0  0
 11 13  2  0  0  0  0
 13 14  1  0  0  0  0
 13 15  1  0  0  0  0
 15 16  2  0  0  0  0
 17 18  1  0  0  0  0
 17 26  1  0  0  0  0
 17 27  1  0  0  0  0
 18 19  1  0  0  0  0
 18 28  1  0  0  0  0
 18 29  1  0  0  0  0
 19 20  1  0  0  0  0
 19 30  1  0  0  0  0
 19 31  1  0  0  0  0
 20 21  1  0  0  0  0
 20 32  1  0  0  0  0
 20 33  1  0  0  0  0
 21 34  1  0  0  0  0
 21 35  1  0  0  0  0
M  END
> <s_m_source_file>
AV-unprocessed.smi

> <i_m_source_file_index>
504

> <i_lp_mmshare_version>
43012

> <i_f3d_flags>
0

> <s_epik_input>
W0NIMl0xW0NIMl1bQ0gyXVtDSDJdW0NIMl1DMShDI04pW05IXUMoPU8pW0NIMl1uMm5bY0hdYyhDbCljKENsKWMyPU8=

> <s_epik_cmdline>
J2VwaWtfcHl0aG9uJywgJy1waCcsICc3LjAnLCAnLXRuJywgJzgnLCAnLW1hJywgJzIwMCcsICctbWV0YWxfYmluZGluZycsICctaW1hZScsICc8aW5maWxlLm1hZT4nLCAnLW9tYWUnLCAnPG91dGZpbGUubWFlPic=

> <r_lp_tautomer_probability>
1

> <r_epik_Ionization_Penalty>
4.52612e-07

> <r_epik_Ionization_Penalty_Charging>
2.33921e-11

> <r_epik_Ionization_Penalty_Neutral>
4.52589e-07

> <r_epik_State_Penalty>
-0

> <r_epik_Charging_Adjusted_Penalty>
2.33921e-11

> <i_epik_Tot_Q>
0

> <i_epik_Tot_abs_Q>
0

> <r_epik_Metal_State_Penalty>
-0

> <b_epik_Metal_Only>
0

> <s_lp_Force_Field>
OPLS_2005

> <r_lp_Energy>
21.394

> <b_lp_Chiralities_Consistent>
1

> <s_lp_Variant>
AV-unprocessed.smi:504-1

> <Gold.Version>
5.8.1

> <Gold.Id.Protein>
6NUR|6NUR_protein|mol2

> <Gold.PLP.Fitness>
40.3447

> <Gold.PLP.PLP>
-41.1106

> <Gold.PLP.part.hbond>
-1.0000

> <Gold.PLP.part.metal>
0.0000

> <Gold.PLP.part.buried>
-1.8735

> <Gold.PLP.part.nonpolar>
-37.2753

> <Gold.PLP.part.repulsive>
0.1887

> <Gold.PLP.ligand.clash>
0.0000

> <Gold.PLP.ligand.torsion>
0.3857

> <Gold.PLP.Chemscore.Hbond>
0.0000

> <Gold.PLP.Chemscore.CHOScore>
0.0000

> <Gold.PLP.Chemscore.Metal>
0.0000

> <Gold.PLP.Chemscore.Internal.Correction>
0.0055

> <Gold.Rescore>
     Score         DG    S(hbond)    S(metal)    S(lipo)     H(rot)  DE(clash)    DE(int)     intcor
     10.21     -12.10       0.00        0.00      91.60       1.60       0.06       1.83       ----

> <Gold.Chemscore.Fitness>
10.2087

> <Gold.Chemscore.DG>
-12.0988

> <Gold.Chemscore.ZeroCoef>
-5.4800

> <Gold.Chemscore.Hbond>
0.0000

> <Gold.Chemscore.Metal>
0.0000

> <Gold.Chemscore.Lipo>
91.5953

> <Gold.Chemscore.Internal_Hbond>
0.0000

> <Gold.Chemscore.DEClash>
0.0552

> <Gold.Chemscore.DEInternal>
1.8349

> <Gold.Chemscore.Rot>
1.6007

> <Gold.Chemscore.Internal.Correction>
   9.000000E+99

> <Gold.Chemscore.Hbond.Weighted>
-0.0000

> <Gold.Chemscore.Metal.Weighted>
-0.0000

> <Gold.Chemscore.Lipo.Weighted>
-10.7166

> <Gold.Chemscore.Internal_Hbond.Weighted>
0.0000

> <Gold.Chemscore.DEClash.Weighted>
0.0552

> <Gold.Chemscore.DEInternal.Weighted>
1.8349

> <Gold.Chemscore.Rot.Weighted>
4.0978

> <Gold.Chemscore.Internal.Correction.Weighted>
   9.000000E+99

> <Gold.Protein.RotatedTorsions>
[ 6907 6896 6895 6894 ] final  175.10 input  -60.11 | X-H torsion
[ 7974 7965 7964 7962 ] final   18.69 input  175.53 | X-H torsion
[ 8008 7997 7996 7995 ] final  107.83 input   59.86 | X-H torsion
[ 10167 10162 10161 10158 ] final   11.93 input  -65.29 | X-H torsion
[ 10718 10713 10712 10709 ] final  -47.83 input   66.30 | X-H torsion
[ 10763 10752 10751 10750 ] final  -70.76 input  -60.55 | X-H torsion
[ 11005 11000 10999 10996 ] final  -13.27 input  -57.11 | X-H torsion

> <Gold.Protein.ActiveResidues>
 VAL166  LYS551  ARG553  GLY616  TRP617  ASP618  TYR619  PRO620  LYS621  CYS622 
 ASP623  PHE694  ASN695  SER759  ASP760  ASP761  ALA762  ILE779  LEU786  VAL792 
 PHE793  MET794  SER795  GLU796  ALA797  LYS798  CYS799  TRP800  GLU811  SER814 

> <Gold.Protein.RotatedAtoms>
  151.7416  133.3322  159.3367 H   0  0  0  0  0  0  0  0  0  0  0  0  # atno 6907 bound_to 6896
  150.7571  134.6273  159.6177 H   0  0  0  0  0  0  0  0  0  0  0  0  # atno 6908 bound_to 6896
  152.3527  134.6986  160.0283 H   0  0  0  0  0  0  0  0  0  0  0  0  # atno 6909 bound_to 6896
  146.2176  139.8420  142.8639 H   0  0  0  0  0  0  0  0  0  0  0  0  # atno 7974 bound_to 7965
  156.1855  140.3087  155.9230 H   0  0  0  0  0  0  0  0  0  0  0  0  # atno 8008 bound_to 7997
  155.3290  140.0460  157.3059 H   0  0  0  0  0  0  0  0  0  0  0  0  # atno 8009 bound_to 7997
  154.5391  140.2255  155.8682 H   0  0  0  0  0  0  0  0  0  0  0  0  # atno 8010 bound_to 7997
  140.6100  143.8427  150.7055 H   0  0  0  0  0  0  0  0  0  0  0  0  # atno 10167 bound_to 10162
  156.2046  130.4158  149.9195 H   0  0  0  0  0  0  0  0  0  0  0  0  # atno 10718 bound_to 10713
  154.4222  135.5984  153.6017 H   0  0  0  0  0  0  0  0  0  0  0  0  # atno 10763 bound_to 10752
  152.9794  135.5955  154.3941 H   0  0  0  0  0  0  0  0  0  0  0  0  # atno 10764 bound_to 10752
  154.3768  135.2841  155.2213 H   0  0  0  0  0  0  0  0  0  0  0  0  # atno 10765 bound_to 10752
  140.7743  133.8413  155.9235 H   0  0  0  0  0  0  0  0  0  0  0  0  # atno 11005 bound_to 11000
  145.2889  141.0161  143.3674 LP  0  0  0  0  0  0  0  0  0  0  0  0  # atno 17320 bound_to 7965
  144.9093  139.4549  143.6595 LP  0  0  0  0  0  0  0  0  0  0  0  0  # atno 17321 bound_to 7965
  140.1993  143.3972  152.1804 LP  0  0  0  0  0  0  0  0  0  0  0  0  # atno 17342 bound_to 10162
  139.5354  144.7204  151.4911 LP  0  0  0  0  0  0  0  0  0  0  0  0  # atno 17343 bound_to 10162
  156.6893  130.8889  151.3586 LP  0  0  0  0  0  0  0  0  0  0  0  0  # atno 17370 bound_to 10713
  157.7005  130.9328  150.0771 LP  0  0  0  0  0  0  0  0  0  0  0  0  # atno 17371 bound_to 10713
  140.9544  134.1737  157.4703 LP  0  0  0  0  0  0  0  0  0  0  0  0  # atno 17394 bound_to 11000
  139.8751  134.9921  156.5581 LP  0  0  0  0  0  0  0  0  0  0  0  0  # atno 17395 bound_to 11000

$$$$
