AV-unprocessed.smi:3040|AV-procd|sdf|11596|dock6
  -GOLD-   2272016573D 1   1.00000     0.00000
 Structure written by MMmdl.
 39 40  0  0  0  0  0  0  0  0  1 V2000
  151.7959  145.5957  159.9844 C   0  0  0  0  0  0  0  0  0  0  0  0
  152.0918  144.1775  159.7731 N   0  0  0  0  0  0  0  0  0  0  0  0
  151.9995  143.7250  158.3776 C   0  0  0  0  0  0  0  0  0  0  0  0
  151.8693  142.2032  158.2354 C   0  0  0  0  0  0  0  0  0  0  0  0
  152.9309  141.5037  159.0937 C   0  0  2  0  0  0  0  0  0  0  0  0
  152.8476  139.9797  158.9415 C   0  0  0  0  0  0  0  0  0  0  0  0
  153.8045  139.3476  158.4927 O   0  0  0  0  0  0  0  0  0  0  0  0
  151.6813  139.4083  159.2838 N   0  0  0  0  0  0  0  0  0  0  0  0
  151.3263  138.0082  159.0572 C   0  0  0  0  0  0  0  0  0  0  0  0
  151.7108  137.5374  157.6396 C   0  0  0  0  0  0  0  0  0  0  0  0
  151.2212  138.4684  156.5608 C   0  0  0  0  0  0  0  0  0  0  0  0
  151.9965  139.2171  155.6294 C   0  0  0  0  0  0  0  0  0  0  0  0
  151.2573  139.9853  154.8455 N   0  0  0  0  0  0  0  0  0  0  0  0
  149.9901  139.7511  155.2436 N   0  0  0  0  0  0  0  0  0  0  0  0
  148.8976  140.4560  154.6081 C   0  0  0  0  0  0  0  0  0  0  0  0
  149.9366  138.8308  156.2671 C   0  0  0  0  0  0  0  0  0  0  0  0
  152.7548  141.9018  160.5739 C   0  0  0  0  0  0  0  0  0  0  0  0
  152.4850  143.3968  160.8085 C   0  0  0  0  0  0  0  0  0  0  0  0
  152.6115  143.8321  161.9536 O   0  0  0  0  0  0  0  0  0  0  0  0
  152.6242  146.0968  160.4877 H   0  0  0  0  0  0  0  0  0  0  0  0
  150.9029  145.7095  160.6003 H   0  0  0  0  0  0  0  0  0  0  0  0
  151.6222  146.1244  159.0463 H   0  0  0  0  0  0  0  0  0  0  0  0
  151.1493  144.1992  157.8851 H   0  0  0  0  0  0  0  0  0  0  0  0
  152.8936  144.0660  157.8540 H   0  0  0  0  0  0  0  0  0  0  0  0
  150.8690  141.8972  158.5468 H   0  0  0  0  0  0  0  0  0  0  0  0
  151.9704  141.9203  157.1868 H   0  0  0  0  0  0  0  0  0  0  0  0
  153.9160  141.8339  158.7581 H   0  0  0  0  0  0  0  0  0  0  0  0
  150.9560  140.0049  159.6543 H   0  0  0  0  0  0  0  0  0  0  0  0
  151.8010  137.3663  159.8012 H   0  0  0  0  0  0  0  0  0  0  0  0
  150.2520  137.8952  159.2038 H   0  0  0  0  0  0  0  0  0  0  0  0
  152.7938  137.4255  157.5860 H   0  0  0  0  0  0  0  0  0  0  0  0
  151.3080  136.5361  157.4827 H   0  0  0  0  0  0  0  0  0  0  0  0
  153.0701  139.2390  155.5147 H   0  0  0  0  0  0  0  0  0  0  0  0
  147.9586  139.9350  154.7972 H   0  0  0  0  0  0  0  0  0  0  0  0
  149.0614  140.5096  153.5312 H   0  0  0  0  0  0  0  0  0  0  0  0
  148.8308  141.4664  155.0127 H   0  0  0  0  0  0  0  0  0  0  0  0
  149.0005  138.5314  156.7150 H   0  0  0  0  0  0  0  0  0  0  0  0
  151.9218  141.3558  161.0204 H   0  0  0  0  0  0  0  0  0  0  0  0
  153.6435  141.6164  161.1384 H   0  0  0  0  0  0  0  0  0  0  0  0
  1  2  1  0  0  0  0
  1 20  1  0  0  0  0
  1 21  1  0  0  0  0
  1 22  1  0  0  0  0
  2 18  1  0  0  0  0
  2  3  1  0  0  0  0
  3  4  1  0  0  0  0
  3 23  1  0  0  0  0
  3 24  1  0  0  0  0
  4  5  1  0  0  0  0
  4 25  1  0  0  0  0
  4 26  1  0  0  0  0
  5  6  1  0  0  0  0
  5 17  1  0  0  0  0
  5 27  1  0  0  0  0
  6  7  2  0  0  0  0
  6  8  1  0  0  0  0
  8  9  1  0  0  0  0
  8 28  1  0  0  0  0
  9 10  1  0  0  0  0
  9 29  1  0  0  0  0
  9 30  1  0  0  0  0
 10 11  1  0  0  0  0
 10 31  1  0  0  0  0
 10 32  1  0  0  0  0
 11 16  2  0  0  0  0
 11 12  1  0  0  0  0
 12 13  2  0  0  0  0
 12 33  1  0  0  0  0
 13 14  1  0  0  0  0
 14 15  1  0  0  0  0
 14 16  1  0  0  0  0
 15 34  1  0  0  0  0
 15 35  1  0  0  0  0
 15 36  1  0  0  0  0
 16 37  1  0  0  0  0
 17 18  1  0  0  0  0
 17 38  1  0  0  0  0
 17 39  1  0  0  0  0
 18 19  2  0  0  0  0
M  END
> <s_m_source_file>
AV-unprocessed.smi

> <i_m_source_file_index>
3040

> <i_lp_mmshare_version>
43012

> <i_f3d_flags>
0

> <s_epik_input>
W0NIM11OMVtDSDJdW0NIMl1bQ0BIXShbQ0gyXUMxPU8pQyg9TylbTkhdW0NIMl1bQ0gyXWMyW2NIXW5uKFtDSDNdKVtjSF0y

> <s_epik_cmdline>
J2VwaWtfcHl0aG9uJywgJy1waCcsICc3LjAnLCAnLXRuJywgJzgnLCAnLW1hJywgJzIwMCcsICctbWV0YWxfYmluZGluZycsICctaW1hZScsICc8aW5maWxlLm1hZT4nLCAnLW9tYWUnLCAnPG91dGZpbGUubWFlPic=

> <r_lp_tautomer_probability>
1

> <r_epik_Ionization_Penalty>
0.000456436

> <r_epik_Ionization_Penalty_Charging>
0

> <r_epik_Ionization_Penalty_Neutral>
0.000456436

> <r_epik_State_Penalty>
-0

> <r_epik_Charging_Adjusted_Penalty>
0

> <i_epik_Tot_Q>
0

> <i_epik_Tot_abs_Q>
0

> <r_epik_Metal_State_Penalty>
-0

> <b_epik_Metal_Only>
0

> <s_lp_Force_Field>
OPLS_2005

> <r_lp_Energy>
9.8739

> <b_lp_Chiralities_Consistent>
1

> <s_lp_Variant>
AV-unprocessed.smi:3040-2

> <Gold.Version>
5.8.1

> <Gold.Id.Protein>
6NUR|6NUR_protein|mol2

> <Gold.PLP.Fitness>
46.1564

> <Gold.PLP.PLP>
-40.5189

> <Gold.PLP.part.hbond>
-1.7961

> <Gold.PLP.part.metal>
0.0000

> <Gold.PLP.part.buried>
-5.6693

> <Gold.PLP.part.nonpolar>
-33.9081

> <Gold.PLP.part.repulsive>
0.3887

> <Gold.PLP.ligand.clash>
0.0000

> <Gold.PLP.ligand.torsion>
0.1276

> <Gold.PLP.Chemscore.Hbond>
1.9588

> <Gold.PLP.Chemscore.CHOScore>
0.0000

> <Gold.PLP.Chemscore.Metal>
0.0000

> <Gold.Chemscore.Hbonds>
donor molecule, donor type, donor heavy atom, donor atom, acceptor molecule, acceptor atom, score
      P1  H  7989  7998       L1    13  1.00
      P1  H  7997  8008       L1     7  1.00

> <Gold.PLP.Chemscore.Internal.Correction>
0.0164

> <Gold.Rescore>
     Score         DG    S(hbond)    S(metal)    S(lipo)     H(rot)  DE(clash)    DE(int)     intcor
     16.36     -17.64       1.96        0.00      84.00       1.65       0.00       1.28       ----

> <Gold.Chemscore.Fitness>
16.3585

> <Gold.Chemscore.DG>
-17.6372

> <Gold.Chemscore.ZeroCoef>
-5.4800

> <Gold.Chemscore.Hbond>
1.9648

> <Gold.Chemscore.Metal>
0.0000

> <Gold.Chemscore.Lipo>
83.9999

> <Gold.Chemscore.Internal_Hbond>
0.0000

> <Gold.Chemscore.DEClash>
0.0021

> <Gold.Chemscore.DEInternal>
1.2765

> <Gold.Chemscore.Rot>
1.6536

> <Gold.Chemscore.Internal.Correction>
   9.000000E+99

> <Gold.Chemscore.Hbonds>
donor molecule, donor type, donor heavy atom, donor atom, acceptor molecule, acceptor atom, score
      P1  H  7989  7998       L1    13  0.99
      P1  H  7997  8008       L1     7  0.98

> <Gold.Chemscore.Hbond.Weighted>
-6.5623

> <Gold.Chemscore.Metal.Weighted>
-0.0000

> <Gold.Chemscore.Lipo.Weighted>
-9.8280

> <Gold.Chemscore.Internal_Hbond.Weighted>
0.0000

> <Gold.Chemscore.DEClash.Weighted>
0.0021

> <Gold.Chemscore.DEInternal.Weighted>
1.2765

> <Gold.Chemscore.Rot.Weighted>
4.2332

> <Gold.Chemscore.Internal.Correction.Weighted>
   9.000000E+99

> <Gold.Protein.RotatedTorsions>
[ 6907 6896 6895 6894 ] final -154.09 input  -60.11 | X-H torsion
[ 7974 7965 7964 7962 ] final -106.06 input  175.53 | X-H torsion
[ 8008 7997 7996 7995 ] final -115.26 input   59.86 | X-H torsion
[ 10167 10162 10161 10158 ] final  140.71 input  -65.29 | X-H torsion
[ 10718 10713 10712 10709 ] final   79.44 input   66.30 | X-H torsion
[ 10763 10752 10751 10750 ] final -101.69 input  -60.55 | X-H torsion
[ 11005 11000 10999 10996 ] final   71.74 input  -57.11 | X-H torsion

> <Gold.Protein.ActiveResidues>
 VAL166  LYS551  ARG553  GLY616  TRP617  ASP618  TYR619  PRO620  LYS621  CYS622 
 ASP623  PHE694  ASN695  SER759  ASP760  ASP761  ALA762  ILE779  LEU786  VAL792 
 PHE793  MET794  SER795  GLU796  ALA797  LYS798  CYS799  TRP800  GLU811  SER814 

> <Gold.Protein.RotatedAtoms>
  151.2523  133.4343  159.2611 H   0  0  0  0  0  0  0  0  0  0  0  0  # atno 6907 bound_to 6896
  151.0606  134.9734  159.8268 H   0  0  0  0  0  0  0  0  0  0  0  0  # atno 6908 bound_to 6896
  152.5397  134.2474  159.8938 H   0  0  0  0  0  0  0  0  0  0  0  0  # atno 6909 bound_to 6896
  145.2226  140.9140  143.3251 H   0  0  0  0  0  0  0  0  0  0  0  0  # atno 7974 bound_to 7965
  155.0492  140.0393  157.2538 H   0  0  0  0  0  0  0  0  0  0  0  0  # atno 8008 bound_to 7997
  154.7151  140.2700  155.6569 H   0  0  0  0  0  0  0  0  0  0  0  0  # atno 8009 bound_to 7997
  156.2801  140.2714  156.1805 H   0  0  0  0  0  0  0  0  0  0  0  0  # atno 8010 bound_to 7997
  139.5041  144.6217  151.6035 H   0  0  0  0  0  0  0  0  0  0  0  0  # atno 10167 bound_to 10162
  157.6776  130.9914  150.1932 H   0  0  0  0  0  0  0  0  0  0  0  0  # atno 10718 bound_to 10713
  154.7677  135.4888  153.9587 H   0  0  0  0  0  0  0  0  0  0  0  0  # atno 10763 bound_to 10752
  153.1329  135.6756  153.9157 H   0  0  0  0  0  0  0  0  0  0  0  0  # atno 10764 bound_to 10752
  153.8855  135.3127  155.3425 H   0  0  0  0  0  0  0  0  0  0  0  0  # atno 10765 bound_to 10752
  139.9527  134.7198  156.0824 H   0  0  0  0  0  0  0  0  0  0  0  0  # atno 11005 bound_to 11000
  144.9751  139.3840  143.6289 LP  0  0  0  0  0  0  0  0  0  0  0  0  # atno 17320 bound_to 7965
  146.3372  139.8867  142.8815 LP  0  0  0  0  0  0  0  0  0  0  0  0  # atno 17321 bound_to 7965
  140.5921  143.9761  150.6331 LP  0  0  0  0  0  0  0  0  0  0  0  0  # atno 17342 bound_to 10162
  140.2945  143.3302  152.1031 LP  0  0  0  0  0  0  0  0  0  0  0  0  # atno 17343 bound_to 10162
  156.2639  130.3714  149.8101 LP  0  0  0  0  0  0  0  0  0  0  0  0  # atno 17370 bound_to 10713
  156.5838  130.8477  151.3390 LP  0  0  0  0  0  0  0  0  0  0  0  0  # atno 17371 bound_to 10713
  141.1193  133.6618  156.3174 LP  0  0  0  0  0  0  0  0  0  0  0  0  # atno 17394 bound_to 11000
  140.5681  134.5868  157.5451 LP  0  0  0  0  0  0  0  0  0  0  0  0  # atno 17395 bound_to 11000

$$$$
