AV-unprocessed.smi:1508|AV-procd|sdf|6086|dock1
  -GOLD-   22720 6213D 1   1.00000     0.00000
 Structure written by MMmdl.
 38 39  0  0  0  0  0  0  0  0  2 V2000
  144.0687  133.4592  151.0145 C   0  0  0  0  0  0  0  0  0  0  0  0
  145.2039  134.0544  151.8627 C   0  0  0  0  0  0  0  0  0  0  0  0
  146.4679  133.1600  151.9796 C   0  0  2  0  0  0  0  0  0  0  0  0
  146.1371  131.7371  152.5084 C   0  0  0  0  0  0  0  0  0  0  0  0
  146.9235  130.6909  151.8621 N   0  0  0  0  0  0  0  0  0  0  0  0
  146.9456  129.4054  152.2420 C   0  0  0  0  0  0  0  0  0  0  0  0
  146.2908  128.9709  153.1892 O   0  0  0  0  0  0  0  0  0  0  0  0
  147.7671  128.6811  151.4653 N   0  0  0  0  0  0  0  0  0  0  0  0
  148.0675  127.2995  151.5654 C   0  0  0  0  0  0  0  0  0  0  0  0
  147.7399  126.6663  152.6979 N   0  0  0  0  0  0  0  0  0  0  0  0
  148.0858  125.3210  152.6608 N   0  0  0  0  0  0  0  0  0  0  0  0
  148.6621  124.9923  151.5005 C   0  0  0  0  0  0  0  0  0  0  0  0
  148.8398  126.2933  150.3364 S   0  0  0  0  0  0  0  0  0  0  0  0
  147.5382  133.8028  152.7981 N   0  3  0  0  0  0  0  0  0  0  0  0
  147.1294  134.2125  154.1660 C   0  0  0  0  0  0  0  0  0  0  0  0
  148.3350  133.9890  155.0900 C   0  0  0  0  0  0  0  0  0  0  0  0
  149.4892  133.6450  154.1555 C   0  0  0  0  0  0  0  0  0  0  0  0
  148.7880  133.0265  152.9522 C   0  0  0  0  0  0  0  0  0  0  0  0
  143.2028  134.1214  151.0163 H   0  0  0  0  0  0  0  0  0  0  0  0
  143.7428  132.4931  151.3998 H   0  0  0  0  0  0  0  0  0  0  0  0
  144.3707  133.3239  149.9761 H   0  0  0  0  0  0  0  0  0  0  0  0
  145.4790  135.0218  151.4417 H   0  0  0  0  0  0  0  0  0  0  0  0
  144.8189  134.2930  152.8540 H   0  0  0  0  0  0  0  0  0  0  0  0
  146.8731  133.0556  150.9716 H   0  0  0  0  0  0  0  0  0  0  0  0
  146.2986  131.6654  153.5846 H   0  0  0  0  0  0  0  0  0  0  0  0
  145.0822  131.5114  152.3527 H   0  0  0  0  0  0  0  0  0  0  0  0
  147.4899  130.9657  151.0722 H   0  0  0  0  0  0  0  0  0  0  0  0
  148.2386  129.1730  150.7205 H   0  0  0  0  0  0  0  0  0  0  0  0
  148.9841  123.9759  151.3290 H   0  0  0  0  0  0  0  0  0  0  0  0
  146.8230  135.2590  154.1555 H   0  0  0  0  0  0  0  0  0  0  0  0
  146.2849  133.6217  154.5245 H   0  0  0  0  0  0  0  0  0  0  0  0
  148.5522  134.8578  155.7124 H   0  0  0  0  0  0  0  0  0  0  0  0
  148.1367  133.1477  155.7555 H   0  0  0  0  0  0  0  0  0  0  0  0
  150.0068  134.5568  153.8537 H   0  0  0  0  0  0  0  0  0  0  0  0
  150.2203  132.9765  154.6111 H   0  0  0  0  0  0  0  0  0  0  0  0
  148.5507  131.9816  153.1601 H   0  0  0  0  0  0  0  0  0  0  0  0
  149.4102  133.0650  152.0579 H   0  0  0  0  0  0  0  0  0  0  0  0
  147.8032  134.6529  152.3212 H   0  0  0  0  0  0  0  0  0  0  0  0
  1  2  1  0  0  0  0
  1 19  1  0  0  0  0
  1 20  1  0  0  0  0
  1 21  1  0  0  0  0
  2  3  1  0  0  0  0
  2 22  1  0  0  0  0
  2 23  1  0  0  0  0
  3  4  1  0  0  0  0
  3 14  1  0  0  0  0
  3 24  1  0  0  0  0
  4  5  1  0  0  0  0
  4 25  1  0  0  0  0
  4 26  1  0  0  0  0
  5  6  1  0  0  0  0
  5 27  1  0  0  0  0
  6  7  2  0  0  0  0
  6  8  1  0  0  0  0
  8  9  1  0  0  0  0
  8 28  1  0  0  0  0
  9 13  1  0  0  0  0
  9 10  2  0  0  0  0
 10 11  1  0  0  0  0
 11 12  2  0  0  0  0
 12 13  1  0  0  0  0
 12 29  1  0  0  0  0
 14 18  1  0  0  0  0
 14 15  1  0  0  0  0
 14 38  1  0  0  0  0
 15 16  1  0  0  0  0
 15 30  1  0  0  0  0
 15 31  1  0  0  0  0
 16 17  1  0  0  0  0
 16 32  1  0  0  0  0
 16 33  1  0  0  0  0
 17 18  1  0  0  0  0
 17 34  1  0  0  0  0
 17 35  1  0  0  0  0
 18 36  1  0  0  0  0
 18 37  1  0  0  0  0
M  CHG  1  14   1
M  END
> <s_m_source_file>
AV-unprocessed.smi

> <i_m_source_file_index>
1508

> <i_lp_mmshare_version>
43012

> <i_f3d_flags>
0

> <s_epik_input>
W0NIMl0xW0NIMl1bQ0gyXVtDSDJdTjFbQ0BIXShbQ0gyXVtDSDNdKVtDSDJdW05IXUMoPU8pW05IXWMybm5bY0hdczI=

> <s_epik_cmdline>
J2VwaWtfcHl0aG9uJywgJy1waCcsICc3LjAnLCAnLXRuJywgJzgnLCAnLW1hJywgJzIwMCcsICctbWV0YWxfYmluZGluZycsICctaW1hZScsICc8aW5maWxlLm1hZT4nLCAnLW9tYWUnLCAnPG91dGZpbGUubWFlPic=

> <r_lp_tautomer_probability>
1

> <r_epik_Ionization_Penalty>
0.00193711

> <r_epik_Ionization_Penalty_Charging>
0.00115997

> <r_epik_Ionization_Penalty_Neutral>
0.000777142

> <r_epik_State_Penalty>
-0

> <r_epik_Charging_Adjusted_Penalty>
0.00115997

> <i_epik_Tot_Q>
1

> <i_epik_Tot_abs_Q>
1

> <r_epik_Metal_State_Penalty>
0.264283

> <b_epik_Metal_Only>
0

> <s_lp_Force_Field>
OPLS_2005

> <r_lp_Energy>
30.1882

> <b_lp_Chiralities_Consistent>
1

> <s_lp_Variant>
AV-unprocessed.smi:1508-1

> <Gold.Version>
5.8.1

> <Gold.Id.Protein>
6NUR|6NUR_protein|mol2

> <Gold.PLP.Fitness>
44.3340

> <Gold.PLP.PLP>
-34.3554

> <Gold.PLP.part.hbond>
-4.3067

> <Gold.PLP.part.metal>
0.0000

> <Gold.PLP.part.buried>
-5.2772

> <Gold.PLP.part.nonpolar>
-24.6720

> <Gold.PLP.part.repulsive>
0.2802

> <Gold.PLP.ligand.clash>
0.0000

> <Gold.PLP.ligand.torsion>
0.6070

> <Gold.PLP.Chemscore.Hbond>
3.6784

> <Gold.PLP.Chemscore.CHOScore>
0.0000

> <Gold.PLP.Chemscore.Metal>
0.0000

> <Gold.Chemscore.Hbonds>
donor molecule, donor type, donor heavy atom, donor atom, acceptor molecule, acceptor atom, score
      L1  H     5    27       P1 10747  0.94
      L1  H     8    28       P1 10747  0.70
      L1  H    14    38       P1  7948  2.00

> <Gold.PLP.Chemscore.Internal.Correction>
0.1573

> <Gold.Rescore>
     Score         DG    S(hbond)    S(metal)    S(lipo)     H(rot)  DE(clash)    DE(int)     intcor
     11.82     -13.86       2.08        0.00      53.59       1.89       0.01       2.03       ----

> <Gold.Chemscore.Fitness>
11.8179

> <Gold.Chemscore.DG>
-13.8574

> <Gold.Chemscore.ZeroCoef>
-5.4800

> <Gold.Chemscore.Hbond>
2.0832

> <Gold.Chemscore.Metal>
0.0000

> <Gold.Chemscore.Lipo>
53.5943

> <Gold.Chemscore.Internal_Hbond>
0.0000

> <Gold.Chemscore.DEClash>
0.0060

> <Gold.Chemscore.DEInternal>
2.0335

> <Gold.Chemscore.Rot>
1.8950

> <Gold.Chemscore.Internal.Correction>
   9.000000E+99

> <Gold.Chemscore.Hbonds>
donor molecule, donor type, donor heavy atom, donor atom, acceptor molecule, acceptor atom, score
      L1  H     5    27       P1 10747  0.91
      L1  H     8    28       P1 10747  0.10
      L1  H    14    38       P1  7948  0.64

> <Gold.Chemscore.Hbond.Weighted>
-6.9579

> <Gold.Chemscore.Metal.Weighted>
-0.0000

> <Gold.Chemscore.Lipo.Weighted>
-6.2705

> <Gold.Chemscore.Internal_Hbond.Weighted>
0.0000

> <Gold.Chemscore.DEClash.Weighted>
0.0060

> <Gold.Chemscore.DEInternal.Weighted>
2.0335

> <Gold.Chemscore.Rot.Weighted>
4.8511

> <Gold.Chemscore.Internal.Correction.Weighted>
   9.000000E+99

> <Gold.Protein.RotatedTorsions>
[ 6907 6896 6895 6894 ] final  107.81 input  -60.11 | X-H torsion
[ 7974 7965 7964 7962 ] final  126.19 input  175.53 | X-H torsion
[ 8008 7997 7996 7995 ] final -176.24 input   59.86 | X-H torsion
[ 10167 10162 10161 10158 ] final -115.18 input  -65.29 | X-H torsion
[ 10718 10713 10712 10709 ] final  142.27 input   66.30 | X-H torsion
[ 10763 10752 10751 10750 ] final  165.62 input  -60.55 | X-H torsion
[ 11005 11000 10999 10996 ] final  -59.83 input  -57.11 | X-H torsion

> <Gold.Protein.ActiveResidues>
 VAL166  LYS551  ARG553  GLY616  TRP617  ASP618  TYR619  PRO620  LYS621  CYS622 
 ASP623  PHE694  ASN695  SER759  ASP760  ASP761  ALA762  ILE779  LEU786  VAL792 
 PHE793  MET794  SER795  GLU796  ALA797  LYS798  CYS799  TRP800  GLU811  SER814 

> <Gold.Protein.RotatedAtoms>
  152.5139  133.9181  159.7520 H   0  0  0  0  0  0  0  0  0  0  0  0  # atno 6907 bound_to 6896
  150.9559  133.6490  159.2770 H   0  0  0  0  0  0  0  0  0  0  0  0  # atno 6908 bound_to 6896
  151.3752  135.0935  159.9531 H   0  0  0  0  0  0  0  0  0  0  0  0  # atno 6909 bound_to 6896
  145.0645  139.3778  143.4989 H   0  0  0  0  0  0  0  0  0  0  0  0  # atno 7974 bound_to 7965
  155.9924  140.1204  157.0625 H   0  0  0  0  0  0  0  0  0  0  0  0  # atno 8008 bound_to 7997
  154.4216  140.1123  156.5652 H   0  0  0  0  0  0  0  0  0  0  0  0  # atno 8009 bound_to 7997
  155.6324  140.3473  155.4689 H   0  0  0  0  0  0  0  0  0  0  0  0  # atno 8010 bound_to 7997
  140.0929  143.4683  152.1859 H   0  0  0  0  0  0  0  0  0  0  0  0  # atno 10167 bound_to 10162
  157.3824  131.0994  151.0725 H   0  0  0  0  0  0  0  0  0  0  0  0  # atno 10718 bound_to 10713
  154.3268  135.2755  155.2492 H   0  0  0  0  0  0  0  0  0  0  0  0  # atno 10763 bound_to 10752
  154.4822  135.5855  153.6401 H   0  0  0  0  0  0  0  0  0  0  0  0  # atno 10764 bound_to 10752
  152.9870  135.6114  154.3457 H   0  0  0  0  0  0  0  0  0  0  0  0  # atno 10765 bound_to 10752
  141.1264  133.6618  156.5131 H   0  0  0  0  0  0  0  0  0  0  0  0  # atno 11005 bound_to 11000
  146.3526  140.0360  142.8646 LP  0  0  0  0  0  0  0  0  0  0  0  0  # atno 17320 bound_to 7965
  145.1368  140.9549  143.4512 LP  0  0  0  0  0  0  0  0  0  0  0  0  # atno 17321 bound_to 7965
  139.5715  144.7465  151.3879 LP  0  0  0  0  0  0  0  0  0  0  0  0  # atno 17342 bound_to 10162
  140.7019  143.7610  150.7417 LP  0  0  0  0  0  0  0  0  0  0  0  0  # atno 17343 bound_to 10162
  157.1789  130.6300  149.5665 LP  0  0  0  0  0  0  0  0  0  0  0  0  # atno 17370 bound_to 10713
  155.9779  130.4760  150.6621 LP  0  0  0  0  0  0  0  0  0  0  0  0  # atno 17371 bound_to 10713
  140.4352  134.7065  157.4963 LP  0  0  0  0  0  0  0  0  0  0  0  0  # atno 17394 bound_to 11000
  140.0266  134.6468  155.9164 LP  0  0  0  0  0  0  0  0  0  0  0  0  # atno 17395 bound_to 11000

$$$$
