AV-unprocessed.smi:2215|AV-procd|sdf|8960|dock2
  -GOLD-   2272012173D 1   1.00000     0.00000
 Structure written by MMmdl.
 40 41  0  0  0  0  0  0  0  0  1 V2000
  143.5298  131.8868  150.2596 C   0  0  0  0  0  0  0  0  0  0  0  0
  144.3739  133.0162  150.8118 C   0  0  0  0  0  0  0  0  0  0  0  0
  145.7620  132.8684  150.9936 C   0  0  0  0  0  0  0  0  0  0  0  0
  146.4975  133.9512  151.5128 C   0  0  0  0  0  0  0  0  0  0  0  0
  145.8299  135.1533  151.8389 C   0  0  0  0  0  0  0  0  0  0  0  0
  146.6617  136.1792  152.3615 N   0  0  0  0  0  0  0  0  0  0  0  0
  146.2985  137.3832  152.8376 C   0  0  0  0  0  0  0  0  0  0  0  0
  145.1460  137.8146  152.8834 O   0  0  0  0  0  0  0  0  0  0  0  0
  147.3637  138.0759  153.2658 N   0  0  0  0  0  0  0  0  0  0  0  0
  147.3155  139.4146  153.8460 C   0  0  0  0  0  0  0  0  0  0  0  0
  148.7190  139.9825  154.1691 C   0  0  2  0  0  0  0  0  0  0  0  0
  149.6724  138.8789  154.6854 C   0  0  0  0  0  0  0  0  0  0  0  0
  151.0600  139.4327  155.0436 C   0  0  0  0  0  0  0  0  0  0  0  0
  150.9550  140.5665  156.0720 C   0  0  0  0  0  0  0  0  0  0  0  0
  150.0368  141.6833  155.5577 C   0  0  0  0  0  0  0  0  0  0  0  0
  148.6419  141.1417  155.1937 C   0  0  1  0  0  0  0  0  0  0  0  0
  147.8859  142.2136  154.6664 O   0  0  0  0  0  0  0  0  0  0  0  0
  144.4924  135.2870  151.6573 N   0  0  0  0  0  0  0  0  0  0  0  0
  143.7885  134.2492  151.1587 C   0  0  0  0  0  0  0  0  0  0  0  0
  144.1033  130.9620  150.1902 H   0  0  0  0  0  0  0  0  0  0  0  0
  143.1657  132.1396  149.2636 H   0  0  0  0  0  0  0  0  0  0  0  0
  142.6696  131.7057  150.9045 H   0  0  0  0  0  0  0  0  0  0  0  0
  146.2587  131.9430  150.7414 H   0  0  0  0  0  0  0  0  0  0  0  0
  147.5634  133.8540  151.6595 H   0  0  0  0  0  0  0  0  0  0  0  0
  147.6476  135.9663  152.3868 H   0  0  0  0  0  0  0  0  0  0  0  0
  148.2741  137.6462  153.1908 H   0  0  0  0  0  0  0  0  0  0  0  0
  146.7763  140.0750  153.1649 H   0  0  0  0  0  0  0  0  0  0  0  0
  146.7172  139.3651  154.7560 H   0  0  0  0  0  0  0  0  0  0  0  0
  149.1458  140.3821  153.2475 H   0  0  0  0  0  0  0  0  0  0  0  0
  149.2376  138.3998  155.5638 H   0  0  0  0  0  0  0  0  0  0  0  0
  149.7906  138.0962  153.9356 H   0  0  0  0  0  0  0  0  0  0  0  0
  151.6889  138.6329  155.4354 H   0  0  0  0  0  0  0  0  0  0  0  0
  151.5519  139.7993  154.1417 H   0  0  0  0  0  0  0  0  0  0  0  0
  150.5673  140.1753  157.0135 H   0  0  0  0  0  0  0  0  0  0  0  0
  151.9457  140.9681  156.2874 H   0  0  0  0  0  0  0  0  0  0  0  0
  149.9495  142.4637  156.3148 H   0  0  0  0  0  0  0  0  0  0  0  0
  150.4935  142.1498  154.6836 H   0  0  0  0  0  0  0  0  0  0  0  0
  148.1459  140.7939  156.1008 H   0  0  0  0  0  0  0  0  0  0  0  0
  148.2580  143.0249  154.9773 H   0  0  0  0  0  0  0  0  0  0  0  0
  142.7272  134.4085  151.0349 H   0  0  0  0  0  0  0  0  0  0  0  0
  1  2  1  0  0  0  0
  1 20  1  0  0  0  0
  1 21  1  0  0  0  0
  1 22  1  0  0  0  0
  2 19  1  0  0  0  0
  2  3  2  0  0  0  0
  3  4  1  0  0  0  0
  3 23  1  0  0  0  0
  4  5  2  0  0  0  0
  4 24  1  0  0  0  0
  5  6  1  0  0  0  0
  5 18  1  0  0  0  0
  6  7  1  0  0  0  0
  6 25  1  0  0  0  0
  7  8  2  0  0  0  0
  7  9  1  0  0  0  0
  9 10  1  0  0  0  0
  9 26  1  0  0  0  0
 10 11  1  0  0  0  0
 10 27  1  0  0  0  0
 10 28  1  0  0  0  0
 11 16  1  0  0  0  0
 11 12  1  0  0  0  0
 11 29  1  0  0  0  0
 12 13  1  0  0  0  0
 12 30  1  0  0  0  0
 12 31  1  0  0  0  0
 13 14  1  0  0  0  0
 13 32  1  0  0  0  0
 13 33  1  0  0  0  0
 14 15  1  0  0  0  0
 14 34  1  0  0  0  0
 14 35  1  0  0  0  0
 15 16  1  0  0  0  0
 15 36  1  0  0  0  0
 15 37  1  0  0  0  0
 16 17  1  0  0  0  0
 16 38  1  0  0  0  0
 17 39  1  0  0  0  0
 18 19  2  0  0  0  0
 19 40  1  0  0  0  0
M  END
> <s_m_source_file>
AV-unprocessed.smi

> <i_m_source_file_index>
2215

> <i_lp_mmshare_version>
43012

> <i_f3d_flags>
0

> <s_epik_input>
W0NIM11jMVtjSF1bY0hdYyhuW2NIXTEpW05IXUMoPU8pW05IXVtDSDJdW0NAQEhdMltDSDJdW0NIMl1bQ0gyXVtDSDJdW0NASF0yW09IXQ==

> <s_epik_cmdline>
J2VwaWtfcHl0aG9uJywgJy1waCcsICc3LjAnLCAnLXRuJywgJzgnLCAnLW1hJywgJzIwMCcsICctbWV0YWxfYmluZGluZycsICctaW1hZScsICc8aW5maWxlLm1hZT4nLCAnLW9tYWUnLCAnPG91dGZpbGUubWFlPic=

> <r_lp_tautomer_probability>
1

> <r_epik_Ionization_Penalty>
6.08491e-05

> <r_epik_Ionization_Penalty_Charging>
0

> <r_epik_Ionization_Penalty_Neutral>
6.08491e-05

> <r_epik_State_Penalty>
-0

> <r_epik_Charging_Adjusted_Penalty>
0

> <i_epik_Tot_Q>
0

> <i_epik_Tot_abs_Q>
0

> <r_epik_Metal_State_Penalty>
-0

> <b_epik_Metal_Only>
0

> <s_lp_Force_Field>
OPLS_2005

> <r_lp_Energy>
13.8041

> <b_lp_Chiralities_Consistent>
1

> <s_lp_Variant>
AV-unprocessed.smi:2215-1

> <Gold.Version>
5.8.1

> <Gold.Id.Protein>
6NUR|6NUR_protein|mol2

> <Gold.PLP.Fitness>
40.9314

> <Gold.PLP.PLP>
-31.8281

> <Gold.PLP.part.hbond>
-2.3968

> <Gold.PLP.part.metal>
0.0000

> <Gold.PLP.part.buried>
-1.1262

> <Gold.PLP.part.nonpolar>
-29.1023

> <Gold.PLP.part.repulsive>
0.4103

> <Gold.PLP.ligand.clash>
0.0000

> <Gold.PLP.ligand.torsion>
0.2201

> <Gold.PLP.Chemscore.Hbond>
2.3553

> <Gold.PLP.Chemscore.CHOScore>
0.8241

> <Gold.PLP.Chemscore.Metal>
0.0000

> <Gold.Chemscore.Hbonds>
donor molecule, donor type, donor heavy atom, donor atom, acceptor molecule, acceptor atom, score
      L1  H     6    25       P1  7948  0.67
      L1  H     9    26       P1  7948  0.58
      L1  H    17    39       P1  8028  1.00
      L1  C    19    40       P1 10186  0.90

> <Gold.PLP.Chemscore.Internal.Correction>
0.0054

> <Gold.Rescore>
     Score         DG    S(hbond)    S(metal)    S(lipo)     H(rot)  DE(clash)    DE(int)     intcor
     17.70     -19.20       2.62        0.00      80.38       1.73       0.08       1.42       ----

> <Gold.Chemscore.Fitness>
17.6974

> <Gold.Chemscore.DG>
-19.1973

> <Gold.Chemscore.ZeroCoef>
-5.4800

> <Gold.Chemscore.Hbond>
2.6200

> <Gold.Chemscore.Metal>
0.0000

> <Gold.Chemscore.Lipo>
80.3850

> <Gold.Chemscore.Internal_Hbond>
0.0000

> <Gold.Chemscore.DEClash>
0.0847

> <Gold.Chemscore.DEInternal>
1.4153

> <Gold.Chemscore.Rot>
1.7339

> <Gold.Chemscore.Internal.Correction>
   9.000000E+99

> <Gold.Chemscore.Hbonds>
donor molecule, donor type, donor heavy atom, donor atom, acceptor molecule, acceptor atom, score
      L1  H     6    25       P1  7948  0.64
      L1  H     9    26       P1  7948  0.55
      L1  H    17    39       P1  8028  0.99

> <Gold.Chemscore.Hbond.Weighted>
-8.7510

> <Gold.Chemscore.Metal.Weighted>
-0.0000

> <Gold.Chemscore.Lipo.Weighted>
-9.4050

> <Gold.Chemscore.Internal_Hbond.Weighted>
0.0000

> <Gold.Chemscore.DEClash.Weighted>
0.0847

> <Gold.Chemscore.DEInternal.Weighted>
1.4153

> <Gold.Chemscore.Rot.Weighted>
4.4387

> <Gold.Chemscore.Internal.Correction.Weighted>
   9.000000E+99

> <Gold.Protein.RotatedTorsions>
[ 6907 6896 6895 6894 ] final   90.34 input  -60.11 | X-H torsion
[ 7974 7965 7964 7962 ] final   55.87 input  175.53 | X-H torsion
[ 8008 7997 7996 7995 ] final  138.68 input   59.86 | X-H torsion
[ 10167 10162 10161 10158 ] final -172.19 input  -65.29 | X-H torsion
[ 10718 10713 10712 10709 ] final  -39.91 input   66.30 | X-H torsion
[ 10763 10752 10751 10750 ] final -103.10 input  -60.55 | X-H torsion
[ 11005 11000 10999 10996 ] final  152.10 input  -57.11 | X-H torsion

> <Gold.Protein.ActiveResidues>
 VAL166  LYS551  ARG553  GLY616  TRP617  ASP618  TYR619  PRO620  LYS621  CYS622 
 ASP623  PHE694  ASN695  SER759  ASP760  ASP761  ALA762  ILE779  LEU786  VAL792 
 PHE793  MET794  SER795  GLU796  ALA797  LYS798  CYS799  TRP800  GLU811  SER814 

> <Gold.Protein.RotatedAtoms>
  152.5444  134.1827  159.8641 H   0  0  0  0  0  0  0  0  0  0  0  0  # atno 6907 bound_to 6896
  151.1828  133.4707  159.2601 H   0  0  0  0  0  0  0  0  0  0  0  0  # atno 6908 bound_to 6896
  151.1161  135.0065  159.8572 H   0  0  0  0  0  0  0  0  0  0  0  0  # atno 6909 bound_to 6896
  145.9458  139.3928  143.0336 H   0  0  0  0  0  0  0  0  0  0  0  0  # atno 7974 bound_to 7965
  156.2995  140.2387  156.4114 H   0  0  0  0  0  0  0  0  0  0  0  0  # atno 8008 bound_to 7997
  154.8438  140.0427  157.1579 H   0  0  0  0  0  0  0  0  0  0  0  0  # atno 8009 bound_to 7997
  154.9074  140.2985  155.5288 H   0  0  0  0  0  0  0  0  0  0  0  0  # atno 8010 bound_to 7997
  139.5758  144.1535  152.1449 H   0  0  0  0  0  0  0  0  0  0  0  0  # atno 10167 bound_to 10162
  156.2872  130.4224  149.8275 H   0  0  0  0  0  0  0  0  0  0  0  0  # atno 10718 bound_to 10713
  154.7783  135.4836  153.9790 H   0  0  0  0  0  0  0  0  0  0  0  0  # atno 10763 bound_to 10752
  153.1458  135.6781  153.8964 H   0  0  0  0  0  0  0  0  0  0  0  0  # atno 10764 bound_to 10752
  153.8624  135.3153  155.3417 H   0  0  0  0  0  0  0  0  0  0  0  0  # atno 10765 bound_to 10752
  140.1277  134.8822  157.2161 H   0  0  0  0  0  0  0  0  0  0  0  0  # atno 11005 bound_to 11000
  145.8238  140.9665  143.0885 LP  0  0  0  0  0  0  0  0  0  0  0  0  # atno 17320 bound_to 7965
  144.6787  140.0076  143.7484 LP  0  0  0  0  0  0  0  0  0  0  0  0  # atno 17321 bound_to 7965
  140.1078  144.5484  150.6945 LP  0  0  0  0  0  0  0  0  0  0  0  0  # atno 17342 bound_to 10162
  140.7041  143.2455  151.4778 LP  0  0  0  0  0  0  0  0  0  0  0  0  # atno 17343 bound_to 10162
  156.5701  130.8421  151.3354 LP  0  0  0  0  0  0  0  0  0  0  0  0  # atno 17370 bound_to 10713
  157.7332  130.9727  150.1966 LP  0  0  0  0  0  0  0  0  0  0  0  0  # atno 17371 bound_to 10713
  140.2882  134.3271  155.7323 LP  0  0  0  0  0  0  0  0  0  0  0  0  # atno 17394 bound_to 11000
  141.2164  133.7519  156.9464 LP  0  0  0  0  0  0  0  0  0  0  0  0  # atno 17395 bound_to 11000

$$$$
