AV-unprocessed.smi:3031|AV-procd|sdf|11545|dock7
  -GOLD-   2272016503D 1   1.00000     0.00000
 Structure written by MMmdl.
 47 48  0  0  0  0  0  0  0  0  2 V2000
  152.0613  143.6965  158.4040 C   0  0  0  0  0  0  0  0  0  0  0  0
  151.0596  142.8384  157.6866 C   0  0  0  0  0  0  0  0  0  0  0  0
  149.7665  142.4464  158.1357 C   0  0  0  0  0  0  0  0  0  0  0  0
  149.1257  141.6884  157.2609 N   0  0  0  0  0  0  0  0  0  0  0  0
  149.9838  141.5693  156.2260 N   0  0  0  0  0  0  0  0  0  0  0  0
  149.6023  140.7956  155.0575 C   0  0  0  0  0  0  0  0  0  0  0  0
  148.4340  141.4391  154.2842 C   0  0  2  0  0  0  0  0  0  0  0  0
  147.2361  141.6763  155.2212 C   0  0  0  0  0  0  0  0  0  0  0  0
  148.0659  140.5972  153.1399 N   0  0  0  0  0  0  0  0  0  0  0  0
  147.3285  139.3773  153.4663 C   0  0  0  0  0  0  0  0  0  0  0  0
  146.8610  138.6557  152.1916 C   0  0  2  0  0  0  0  0  0  0  0  0
  146.3809  139.6384  151.2962 O   0  0  0  0  0  0  0  0  0  0  0  0
  145.7213  137.6491  152.4570 C   0  0  0  0  0  0  0  0  0  0  0  0
  146.1428  136.2444  152.2245 N   0  3  0  0  0  0  0  0  0  0  0  0
  146.1342  135.4114  153.4532 C   0  0  0  0  0  0  0  0  0  0  0  0
  146.6238  133.9875  153.1397 C   0  0  0  0  0  0  0  0  0  0  0  0
  145.8105  133.4161  152.1226 O   0  0  0  0  0  0  0  0  0  0  0  0
  145.8771  134.1564  150.9101 C   0  0  0  0  0  0  0  0  0  0  0  0
  145.3630  135.5863  151.1492 C   0  0  0  0  0  0  0  0  0  0  0  0
  151.1595  142.2514  156.4569 C   0  0  0  0  0  0  0  0  0  0  0  0
  152.2318  143.3491  159.4230 H   0  0  0  0  0  0  0  0  0  0  0  0
  151.7282  144.7325  158.4684 H   0  0  0  0  0  0  0  0  0  0  0  0
  153.0282  143.7001  157.9002 H   0  0  0  0  0  0  0  0  0  0  0  0
  149.2764  142.6910  159.0665 H   0  0  0  0  0  0  0  0  0  0  0  0
  150.4749  140.6787  154.4135 H   0  0  0  0  0  0  0  0  0  0  0  0
  149.3281  139.7939  155.3921 H   0  0  0  0  0  0  0  0  0  0  0  0
  148.7692  142.4108  153.9189 H   0  0  0  0  0  0  0  0  0  0  0  0
  147.5379  142.2491  156.0986 H   0  0  0  0  0  0  0  0  0  0  0  0
  146.8125  140.7347  155.5723 H   0  0  0  0  0  0  0  0  0  0  0  0
  146.4424  142.2429  154.7348 H   0  0  0  0  0  0  0  0  0  0  0  0
  148.8998  140.3614  152.6119 H   0  0  0  0  0  0  0  0  0  0  0  0
  147.9401  138.7007  154.0631 H   0  0  0  0  0  0  0  0  0  0  0  0
  146.4601  139.6347  154.0743 H   0  0  0  0  0  0  0  0  0  0  0  0
  147.7186  138.1683  151.7280 H   0  0  0  0  0  0  0  0  0  0  0  0
  145.5370  139.9378  151.5989 H   0  0  0  0  0  0  0  0  0  0  0  0
  145.3499  137.7400  153.4789 H   0  0  0  0  0  0  0  0  0  0  0  0
  144.8788  137.8969  151.8088 H   0  0  0  0  0  0  0  0  0  0  0  0
  146.7719  135.8505  154.2194 H   0  0  0  0  0  0  0  0  0  0  0  0
  145.1237  135.3728  153.8635 H   0  0  0  0  0  0  0  0  0  0  0  0
  147.6693  133.9942  152.8267 H   0  0  0  0  0  0  0  0  0  0  0  0
  146.5625  133.3642  154.0322 H   0  0  0  0  0  0  0  0  0  0  0  0
  146.9007  134.1676  150.5318 H   0  0  0  0  0  0  0  0  0  0  0  0
  145.2653  133.6583  150.1577 H   0  0  0  0  0  0  0  0  0  0  0  0
  144.3070  135.5639  151.4236 H   0  0  0  0  0  0  0  0  0  0  0  0
  145.4439  136.1620  150.2264 H   0  0  0  0  0  0  0  0  0  0  0  0
  151.9599  142.2667  155.7317 H   0  0  0  0  0  0  0  0  0  0  0  0
  147.0982  136.2844  151.8980 H   0  0  0  0  0  0  0  0  0  0  0  0
  1  2  1  0  0  0  0
  1 21  1  0  0  0  0
  1 22  1  0  0  0  0
  1 23  1  0  0  0  0
  2 20  2  0  0  0  0
  2  3  1  0  0  0  0
  3  4  2  0  0  0  0
  3 24  1  0  0  0  0
  4  5  1  0  0  0  0
  5  6  1  0  0  0  0
  5 20  1  0  0  0  0
  6  7  1  0  0  0  0
  6 25  1  0  0  0  0
  6 26  1  0  0  0  0
  7  8  1  0  0  0  0
  7  9  1  0  0  0  0
  7 27  1  0  0  0  0
  8 28  1  0  0  0  0
  8 29  1  0  0  0  0
  8 30  1  0  0  0  0
  9 10  1  0  0  0  0
  9 31  1  0  0  0  0
 10 11  1  0  0  0  0
 10 32  1  0  0  0  0
 10 33  1  0  0  0  0
 11 12  1  0  0  0  0
 11 13  1  0  0  0  0
 11 34  1  0  0  0  0
 12 35  1  0  0  0  0
 13 14  1  0  0  0  0
 13 36  1  0  0  0  0
 13 37  1  0  0  0  0
 14 19  1  0  0  0  0
 14 15  1  0  0  0  0
 14 47  1  0  0  0  0
 15 16  1  0  0  0  0
 15 38  1  0  0  0  0
 15 39  1  0  0  0  0
 16 17  1  0  0  0  0
 16 40  1  0  0  0  0
 16 41  1  0  0  0  0
 17 18  1  0  0  0  0
 18 19  1  0  0  0  0
 18 42  1  0  0  0  0
 18 43  1  0  0  0  0
 19 44  1  0  0  0  0
 19 45  1  0  0  0  0
 20 46  1  0  0  0  0
M  CHG  1  14   1
M  END
> <s_m_source_file>
AV-unprocessed.smi

> <i_m_source_file_index>
3031

> <i_lp_mmshare_version>
43012

> <i_f3d_flags>
0

> <s_epik_input>
W0NIM11jMVtjSF1ubihbY0hdMSlbQ0gyXVtDQEhdKFtDSDNdKVtOSF1bQ0gyXVtDQEhdKFtPSF0pW0NIMl1OMltDSDJdW0NIMl1PW0NIMl1bQ0gyXTI=

> <s_epik_cmdline>
J2VwaWtfcHl0aG9uJywgJy1waCcsICc3LjAnLCAnLXRuJywgJzgnLCAnLW1hJywgJzIwMCcsICctbWV0YWxfYmluZGluZycsICctaW1hZScsICc8aW5maWxlLm1hZT4nLCAnLW9tYWUnLCAnPG91dGZpbGUubWFlPic=

> <r_epik_Ionization_Penalty>
0.467051

> <r_epik_Ionization_Penalty_Charging>
0.202493

> <r_epik_Ionization_Penalty_Neutral>
0.264558

> <r_epik_State_Penalty>
1.34287

> <r_epik_Charging_Adjusted_Penalty>
1.54537

> <i_epik_Tot_Q>
1

> <i_epik_Tot_abs_Q>
1

> <r_epik_Metal_State_Penalty>
1.34281

> <b_epik_Metal_Only>
0

> <s_lp_Force_Field>
OPLS_2005

> <r_lp_Energy>
23.7878

> <b_lp_Chiralities_Consistent>
1

> <s_lp_Variant>
AV-unprocessed.smi:3031-5

> <Gold.Version>
5.8.1

> <Gold.Id.Protein>
6NUR|6NUR_protein|mol2

> <Gold.PLP.Fitness>
47.3860

> <Gold.PLP.PLP>
-38.7775

> <Gold.PLP.part.hbond>
-4.2235

> <Gold.PLP.part.metal>
0.0000

> <Gold.PLP.part.buried>
-4.3925

> <Gold.PLP.part.nonpolar>
-31.6544

> <Gold.PLP.part.repulsive>
0.2615

> <Gold.PLP.ligand.clash>
0.0000

> <Gold.PLP.ligand.torsion>
1.7716

> <Gold.PLP.Chemscore.Hbond>
3.9913

> <Gold.PLP.Chemscore.CHOScore>
0.0000

> <Gold.PLP.Chemscore.Metal>
0.0000

> <Gold.Chemscore.Hbonds>
donor molecule, donor type, donor heavy atom, donor atom, acceptor molecule, acceptor atom, score
      L1  H     9    31       P1  7957  0.98
      L1  H    12    35       P1 10175  0.84
      L1  H    14    47       P1  7948  2.00

> <Gold.PLP.Chemscore.Internal.Correction>
0.1779

> <Gold.Rescore>
     Score         DG    S(hbond)    S(metal)    S(lipo)     H(rot)  DE(clash)    DE(int)     intcor
     15.67     -18.66       2.88        0.00      88.50       2.65       0.01       2.98       ----

> <Gold.Chemscore.Fitness>
15.6660

> <Gold.Chemscore.DG>
-18.6620

> <Gold.Chemscore.ZeroCoef>
-5.4800

> <Gold.Chemscore.Hbond>
2.8794

> <Gold.Chemscore.Metal>
0.0000

> <Gold.Chemscore.Lipo>
88.4968

> <Gold.Chemscore.Internal_Hbond>
0.0000

> <Gold.Chemscore.DEClash>
0.0139

> <Gold.Chemscore.DEInternal>
2.9821

> <Gold.Chemscore.Rot>
2.6521

> <Gold.Chemscore.Internal.Correction>
   9.000000E+99

> <Gold.Chemscore.Hbonds>
donor molecule, donor type, donor heavy atom, donor atom, acceptor molecule, acceptor atom, score
      L1  H     9    31       P1  7957  0.92
      L1  H    12    35       P1 10175  0.25
      L1  H    14    47       P1  7948  1.00

> <Gold.Chemscore.Hbond.Weighted>
-9.6172

> <Gold.Chemscore.Metal.Weighted>
-0.0000

> <Gold.Chemscore.Lipo.Weighted>
-10.3541

> <Gold.Chemscore.Internal_Hbond.Weighted>
0.0000

> <Gold.Chemscore.DEClash.Weighted>
0.0139

> <Gold.Chemscore.DEInternal.Weighted>
2.9821

> <Gold.Chemscore.Rot.Weighted>
6.7894

> <Gold.Chemscore.Internal.Correction.Weighted>
   9.000000E+99

> <Gold.Protein.RotatedTorsions>
[ 6907 6896 6895 6894 ] final   87.74 input  -60.11 | X-H torsion
[ 7974 7965 7964 7962 ] final   75.34 input  175.53 | X-H torsion
[ 8008 7997 7996 7995 ] final  104.62 input   59.86 | X-H torsion
[ 10167 10162 10161 10158 ] final  131.21 input  -65.29 | X-H torsion
[ 10718 10713 10712 10709 ] final  -11.46 input   66.30 | X-H torsion
[ 10763 10752 10751 10750 ] final  -78.63 input  -60.55 | X-H torsion
[ 11005 11000 10999 10996 ] final -155.67 input  -57.11 | X-H torsion

> <Gold.Protein.ActiveResidues>
 VAL166  LYS551  ARG553  GLY616  TRP617  ASP618  TYR619  PRO620  LYS621  CYS622 
 ASP623  PHE694  ASN695  SER759  ASP760  ASP761  ALA762  ILE779  LEU786  VAL792 
 PHE793  MET794  SER795  GLU796  ALA797  LYS798  CYS799  TRP800  GLU811  SER814 

> <Gold.Protein.RotatedAtoms>
  152.5415  134.2229  159.8794 H   0  0  0  0  0  0  0  0  0  0  0  0  # atno 6907 bound_to 6896
  151.2205  133.4498  159.2608 H   0  0  0  0  0  0  0  0  0  0  0  0  # atno 6908 bound_to 6896
  151.0810  134.9871  159.8412 H   0  0  0  0  0  0  0  0  0  0  0  0  # atno 6909 bound_to 6896
  145.7169  139.2634  143.1618 H   0  0  0  0  0  0  0  0  0  0  0  0  # atno 7974 bound_to 7965
  156.1588  140.3144  155.8772 H   0  0  0  0  0  0  0  0  0  0  0  0  # atno 8008 bound_to 7997
  155.3824  140.0488  157.3060 H   0  0  0  0  0  0  0  0  0  0  0  0  # atno 8009 bound_to 7997
  154.5127  140.2170  155.9137 H   0  0  0  0  0  0  0  0  0  0  0  0  # atno 8010 bound_to 7997
  139.5394  144.6716  151.4674 H   0  0  0  0  0  0  0  0  0  0  0  0  # atno 10167 bound_to 10162
  156.6587  130.4975  149.6038 H   0  0  0  0  0  0  0  0  0  0  0  0  # atno 10718 bound_to 10713
  154.5284  135.5723  153.6738 H   0  0  0  0  0  0  0  0  0  0  0  0  # atno 10763 bound_to 10752
  152.9933  135.6198  154.2662 H   0  0  0  0  0  0  0  0  0  0  0  0  # atno 10764 bound_to 10752
  154.2586  135.2857  155.2767 H   0  0  0  0  0  0  0  0  0  0  0  0  # atno 10765 bound_to 10752
  140.6840  134.4114  157.5224 H   0  0  0  0  0  0  0  0  0  0  0  0  # atno 11005 bound_to 11000
  146.0662  140.7918  142.9711 LP  0  0  0  0  0  0  0  0  0  0  0  0  # atno 17320 bound_to 7965
  144.6927  140.3271  143.7222 LP  0  0  0  0  0  0  0  0  0  0  0  0  # atno 17321 bound_to 7965
  140.6617  143.8484  150.6896 LP  0  0  0  0  0  0  0  0  0  0  0  0  # atno 17342 bound_to 10162
  140.1880  143.4059  152.1884 LP  0  0  0  0  0  0  0  0  0  0  0  0  # atno 17343 bound_to 10162
  156.2028  130.6630  151.1186 LP  0  0  0  0  0  0  0  0  0  0  0  0  # atno 17370 bound_to 10713
  157.7117  131.0731  150.6477 LP  0  0  0  0  0  0  0  0  0  0  0  0  # atno 17371 bound_to 10713
  139.8943  134.8709  156.2183 LP  0  0  0  0  0  0  0  0  0  0  0  0  # atno 17394 bound_to 11000
  141.0295  133.6996  156.1405 LP  0  0  0  0  0  0  0  0  0  0  0  0  # atno 17395 bound_to 11000

$$$$
