AV-unprocessed.smi:576|AV-procd|sdf|2979|dock3
  -GOLD-   2262023483D 1   1.00000     0.00000
 Structure written by MMmdl.
 35 36  0  0  0  0  0  0  0  0  1 V2000
  153.1097  142.0967  160.1992 C   0  0  0  0  0  0  0  0  0  0  0  0
  152.3359  142.7536  159.0477 C   0  0  1  0  0  0  0  0  0  0  0  0
  151.4079  141.7748  158.4907 N   0  0  0  0  0  0  0  0  0  0  0  0
  151.7311  140.5360  158.0892 C   0  0  0  0  0  0  0  0  0  0  0  0
  152.8684  140.0712  158.1773 O   0  0  0  0  0  0  0  0  0  0  0  0
  150.5822  139.6931  157.5183 C   0  0  0  0  0  0  0  0  0  0  0  0
  149.7993  140.4023  156.4923 N   0  0  0  0  0  0  0  0  0  0  0  0
  148.5803  140.9801  156.8985 C   0  0  0  0  0  0  0  0  0  0  0  0
  147.7637  141.6387  156.0538 C   0  0  0  0  0  0  0  0  0  0  0  0
  146.4784  142.2945  156.5340 C   0  0  0  0  0  0  0  0  0  0  0  0
  146.7202  143.1698  157.5102 F   0  0  0  0  0  0  0  0  0  0  0  0
  145.8980  142.9452  155.5267 F   0  0  0  0  0  0  0  0  0  0  0  0
  145.6170  141.3851  156.9913 F   0  0  0  0  0  0  0  0  0  0  0  0
  148.2178  141.7621  154.6823 C   0  0  0  0  0  0  0  0  0  0  0  0
  149.3839  141.2208  154.2786 C   0  0  0  0  0  0  0  0  0  0  0  0
  150.2489  140.4853  155.2040 C   0  0  0  0  0  0  0  0  0  0  0  0
  151.3114  139.9773  154.8444 O   0  0  0  0  0  0  0  0  0  0  0  0
  151.6571  144.0319  159.5113 C   0  0  0  0  0  0  0  0  0  0  0  0
  151.2018  145.0845  158.5279 C   0  0  0  0  0  0  0  0  0  0  0  0
  152.3729  145.3601  159.4428 C   0  0  0  0  0  0  0  0  0  0  0  0
  153.8544  142.7785  160.6109 H   0  0  0  0  0  0  0  0  0  0  0  0
  153.6359  141.2029  159.8620 H   0  0  0  0  0  0  0  0  0  0  0  0
  152.4422  141.8053  161.0111 H   0  0  0  0  0  0  0  0  0  0  0  0
  153.0640  143.0177  158.2781 H   0  0  0  0  0  0  0  0  0  0  0  0
  150.4474  142.0688  158.3874 H   0  0  0  0  0  0  0  0  0  0  0  0
  151.0066  138.7738  157.1124 H   0  0  0  0  0  0  0  0  0  0  0  0
  149.9273  139.3701  158.3299 H   0  0  0  0  0  0  0  0  0  0  0  0
  148.3468  140.8484  157.9451 H   0  0  0  0  0  0  0  0  0  0  0  0
  147.6107  142.2934  153.9642 H   0  0  0  0  0  0  0  0  0  0  0  0
  149.6897  141.3298  153.2484 H   0  0  0  0  0  0  0  0  0  0  0  0
  151.0195  143.8916  160.3826 H   0  0  0  0  0  0  0  0  0  0  0  0
  151.4183  144.9255  157.4734 H   0  0  0  0  0  0  0  0  0  0  0  0
  150.2644  145.5950  158.7393 H   0  0  0  0  0  0  0  0  0  0  0  0
  152.2177  146.0567  160.2642 H   0  0  0  0  0  0  0  0  0  0  0  0
  153.3644  145.3803  158.9945 H   0  0  0  0  0  0  0  0  0  0  0  0
  1  2  1  0  0  0  0
  1 21  1  0  0  0  0
  1 22  1  0  0  0  0
  1 23  1  0  0  0  0
  2  3  1  0  0  0  0
  2 18  1  0  0  0  0
  2 24  1  0  0  0  0
  3  4  1  0  0  0  0
  3 25  1  0  0  0  0
  4  5  2  0  0  0  0
  4  6  1  0  0  0  0
  6  7  1  0  0  0  0
  6 26  1  0  0  0  0
  6 27  1  0  0  0  0
  7 16  1  0  0  0  0
  7  8  1  0  0  0  0
  8  9  2  0  0  0  0
  8 28  1  0  0  0  0
  9 10  1  0  0  0  0
  9 14  1  0  0  0  0
 10 11  1  0  0  0  0
 10 12  1  0  0  0  0
 10 13  1  0  0  0  0
 14 15  2  0  0  0  0
 14 29  1  0  0  0  0
 15 16  1  0  0  0  0
 15 30  1  0  0  0  0
 16 17  2  0  0  0  0
 18 20  1  0  0  0  0
 18 19  1  0  0  0  0
 18 31  1  0  0  0  0
 19 20  1  0  0  0  0
 19 32  1  0  0  0  0
 19 33  1  0  0  0  0
 20 34  1  0  0  0  0
 20 35  1  0  0  0  0
M  END
> <s_m_source_file>
AV-unprocessed.smi

> <i_m_source_file_index>
576

> <i_lp_mmshare_version>
43012

> <i_f3d_flags>
0

> <s_epik_input>
W0NIMl0xW0NIMl1bQ0hdMVtDQEhdKFtDSDNdKVtOSF1DKD1PKVtDSDJdbjJbY0hdYyhDKEYpKEYpRilbY0hdW2NIXWMyPU8=

> <s_epik_cmdline>
J2VwaWtfcHl0aG9uJywgJy1waCcsICc3LjAnLCAnLXRuJywgJzgnLCAnLW1hJywgJzIwMCcsICctbWV0YWxfYmluZGluZycsICctaW1hZScsICc8aW5maWxlLm1hZT4nLCAnLW9tYWUnLCAnPG91dGZpbGUubWFlPic=

> <r_lp_tautomer_probability>
1

> <r_epik_Ionization_Penalty>
3.84201e-08

> <r_epik_Ionization_Penalty_Charging>
1.91184e-08

> <r_epik_Ionization_Penalty_Neutral>
1.93017e-08

> <r_epik_State_Penalty>
-0

> <r_epik_Charging_Adjusted_Penalty>
1.91184e-08

> <i_epik_Tot_Q>
0

> <i_epik_Tot_abs_Q>
0

> <r_epik_Metal_State_Penalty>
-0

> <b_epik_Metal_Only>
0

> <s_lp_Force_Field>
OPLS_2005

> <r_lp_Energy>
24.3329

> <b_lp_Chiralities_Consistent>
1

> <s_lp_Variant>
AV-unprocessed.smi:576-2

> <Gold.Version>
5.8.1

> <Gold.Id.Protein>
6NUR|6NUR_protein|mol2

> <Gold.PLP.Fitness>
43.0748

> <Gold.PLP.PLP>
-38.3811

> <Gold.PLP.part.hbond>
-2.0000

> <Gold.PLP.part.metal>
0.0000

> <Gold.PLP.part.buried>
-5.9162

> <Gold.PLP.part.nonpolar>
-30.9600

> <Gold.PLP.part.repulsive>
0.1574

> <Gold.PLP.ligand.clash>
0.4528

> <Gold.PLP.ligand.torsion>
1.0020

> <Gold.PLP.Chemscore.Hbond>
2.0000

> <Gold.PLP.Chemscore.CHOScore>
0.0000

> <Gold.PLP.Chemscore.Metal>
0.0000

> <Gold.Chemscore.Hbonds>
donor molecule, donor type, donor heavy atom, donor atom, acceptor molecule, acceptor atom, score
      P1  H  7989  7998       L1    17  1.00
      P1  H  7997  8008       L1     5  0.89

> <Gold.PLP.Chemscore.Internal.Correction>
1.1505

> <Gold.Rescore>
     Score         DG    S(hbond)    S(metal)    S(lipo)     H(rot)  DE(clash)    DE(int)     intcor
     14.81     -17.17       1.93        0.00      83.40       1.77       0.30       2.06       ----

> <Gold.Chemscore.Fitness>
14.8072

> <Gold.Chemscore.DG>
-17.1739

> <Gold.Chemscore.ZeroCoef>
-5.4800

> <Gold.Chemscore.Hbond>
1.9326

> <Gold.Chemscore.Metal>
0.0000

> <Gold.Chemscore.Lipo>
83.4023

> <Gold.Chemscore.Internal_Hbond>
0.0000

> <Gold.Chemscore.DEClash>
0.3026

> <Gold.Chemscore.DEInternal>
2.0640

> <Gold.Chemscore.Rot>
1.7653

> <Gold.Chemscore.Internal.Correction>
   9.000000E+99

> <Gold.Chemscore.Hbonds>
donor molecule, donor type, donor heavy atom, donor atom, acceptor molecule, acceptor atom, score
      P1  H  7989  7998       L1    17  0.30
      P1  H  7997  8008       L1     5  0.83

> <Gold.Chemscore.Hbond.Weighted>
-6.4549

> <Gold.Chemscore.Metal.Weighted>
-0.0000

> <Gold.Chemscore.Lipo.Weighted>
-9.7581

> <Gold.Chemscore.Internal_Hbond.Weighted>
0.0000

> <Gold.Chemscore.DEClash.Weighted>
0.3026

> <Gold.Chemscore.DEInternal.Weighted>
2.0640

> <Gold.Chemscore.Rot.Weighted>
4.5191

> <Gold.Chemscore.Internal.Correction.Weighted>
   9.000000E+99

> <Gold.Protein.RotatedTorsions>
[ 6907 6896 6895 6894 ] final  158.91 input  -60.11 | X-H torsion
[ 7974 7965 7964 7962 ] final -145.08 input  175.53 | X-H torsion
[ 8008 7997 7996 7995 ] final  -72.04 input   59.86 | X-H torsion
[ 10167 10162 10161 10158 ] final   53.69 input  -65.29 | X-H torsion
[ 10718 10713 10712 10709 ] final  160.31 input   66.30 | X-H torsion
[ 10763 10752 10751 10750 ] final    6.31 input  -60.55 | X-H torsion
[ 11005 11000 10999 10996 ] final -173.24 input  -57.11 | X-H torsion

> <Gold.Protein.ActiveResidues>
 VAL166  LYS551  ARG553  GLY616  TRP617  ASP618  TYR619  PRO620  LYS621  CYS622 
 ASP623  PHE694  ASN695  SER759  ASP760  ASP761  ALA762  ILE779  LEU786  VAL792 
 PHE793  MET794  SER795  GLU796  ALA797  LYS798  CYS799  TRP800  GLU811  SER814 

> <Gold.Protein.RotatedAtoms>
  151.9934  133.3799  159.4152 H   0  0  0  0  0  0  0  0  0  0  0  0  # atno 6907 bound_to 6896
  150.6919  134.3912  159.5086 H   0  0  0  0  0  0  0  0  0  0  0  0  # atno 6908 bound_to 6896
  152.1649  134.8882  160.0589 H   0  0  0  0  0  0  0  0  0  0  0  0  # atno 6909 bound_to 6896
  144.8252  140.5629  143.5551 H   0  0  0  0  0  0  0  0  0  0  0  0  # atno 7974 bound_to 7965
  154.5135  140.0804  156.8035 H   0  0  0  0  0  0  0  0  0  0  0  0  # atno 8008 bound_to 7997
  155.3733  140.3424  155.4226 H   0  0  0  0  0  0  0  0  0  0  0  0  # atno 8009 bound_to 7997
  156.1600  140.1585  156.8615 H   0  0  0  0  0  0  0  0  0  0  0  0  # atno 8010 bound_to 7997
  140.2381  144.3614  150.6390 H   0  0  0  0  0  0  0  0  0  0  0  0  # atno 10167 bound_to 10162
  157.1522  131.0567  151.2274 H   0  0  0  0  0  0  0  0  0  0  0  0  # atno 10718 bound_to 10713
  153.2492  135.6912  153.7697 H   0  0  0  0  0  0  0  0  0  0  0  0  # atno 10763 bound_to 10752
  153.6798  135.3330  155.3176 H   0  0  0  0  0  0  0  0  0  0  0  0  # atno 10764 bound_to 10752
  154.8387  135.4520  154.1443 H   0  0  0  0  0  0  0  0  0  0  0  0  # atno 10765 bound_to 10752
  140.4879  134.6012  157.4944 H   0  0  0  0  0  0  0  0  0  0  0  0  # atno 11005 bound_to 11000
  145.5015  139.1483  143.3654 LP  0  0  0  0  0  0  0  0  0  0  0  0  # atno 17320 bound_to 7965
  146.2558  140.5155  142.8874 LP  0  0  0  0  0  0  0  0  0  0  0  0  # atno 17321 bound_to 7965
  140.6135  143.2171  151.6839 LP  0  0  0  0  0  0  0  0  0  0  0  0  # atno 17342 bound_to 10162
  139.5087  144.3603  152.0568 LP  0  0  0  0  0  0  0  0  0  0  0  0  # atno 17343 bound_to 10162
  157.4210  130.7437  149.6913 LP  0  0  0  0  0  0  0  0  0  0  0  0  # atno 17370 bound_to 10713
  155.9768  130.4070  150.3752 LP  0  0  0  0  0  0  0  0  0  0  0  0  # atno 17371 bound_to 10713
  139.9786  134.7174  155.9901 LP  0  0  0  0  0  0  0  0  0  0  0  0  # atno 17394 bound_to 11000
  141.1498  133.6550  156.3979 LP  0  0  0  0  0  0  0  0  0  0  0  0  # atno 17395 bound_to 11000

$$$$
