AV-unprocessed.smi:691|AV-procd|sdf|3364|dock3
  -GOLD-   22720 0343D 1   1.00000     0.00000
 Structure written by MMmdl.
 37 38  0  0  0  0  0  0  0  0  1 V2000
  148.1124  139.5347  156.2158 C   0  0  0  0  0  0  0  0  0  0  0  0
  148.7550  139.4485  154.8070 C   0  0  1  0  0  0  0  0  0  0  0  0
  150.0499  138.6031  154.8714 C   0  0  0  0  0  0  0  0  0  0  0  0
  150.3775  138.0442  153.6148 O   0  0  0  0  0  0  0  0  0  0  0  0
  147.7417  138.8559  153.8107 C   0  0  0  0  0  0  0  0  0  0  0  0
  146.8635  140.0268  153.3788 C   0  0  0  0  0  0  0  0  0  0  0  0
  147.8022  141.2340  153.3549 C   0  0  0  0  0  0  0  0  0  0  0  0
  149.0378  140.8534  154.1954 C   0  0  1  0  0  0  0  0  0  0  0  0
  149.3246  141.8886  155.1894 N   0  0  0  0  0  0  0  0  0  0  0  0
  150.1898  141.7702  156.2065 C   0  0  0  0  0  0  0  0  0  0  0  0
  150.8504  140.7545  156.4222 O   0  0  0  0  0  0  0  0  0  0  0  0
  150.2140  142.8874  156.9531 N   0  0  0  0  0  0  0  0  0  0  0  0
  151.0074  143.1757  158.0968 C   0  0  0  0  0  0  0  0  0  0  0  0
  151.9768  142.2985  158.6415 C   0  0  0  0  0  0  0  0  0  0  0  0
  152.7122  142.7137  159.7685 C   0  0  0  0  0  0  0  0  0  0  0  0
  152.4576  143.9904  160.3055 C   0  0  0  0  0  0  0  0  0  0  0  0
  151.5453  144.8409  159.7902 N   0  0  0  0  0  0  0  0  0  0  0  0
  150.8446  144.4364  158.7095 C   0  0  0  0  0  0  0  0  0  0  0  0
  147.7707  138.5577  156.5586 H   0  0  0  0  0  0  0  0  0  0  0  0
  147.2485  140.1995  156.2291 H   0  0  0  0  0  0  0  0  0  0  0  0
  148.8208  139.9026  156.9588 H   0  0  0  0  0  0  0  0  0  0  0  0
  150.8933  139.2099  155.2031 H   0  0  0  0  0  0  0  0  0  0  0  0
  149.9425  137.7926  155.5925 H   0  0  0  0  0  0  0  0  0  0  0  0
  149.6503  137.5158  153.3231 H   0  0  0  0  0  0  0  0  0  0  0  0
  148.2645  138.4668  152.9355 H   0  0  0  0  0  0  0  0  0  0  0  0
  147.1598  138.0338  154.2289 H   0  0  0  0  0  0  0  0  0  0  0  0
  146.3845  139.8526  152.4150 H   0  0  0  0  0  0  0  0  0  0  0  0
  146.0731  140.1870  154.1129 H   0  0  0  0  0  0  0  0  0  0  0  0
  148.1064  141.4563  152.3313 H   0  0  0  0  0  0  0  0  0  0  0  0
  147.2910  142.1205  153.7338 H   0  0  0  0  0  0  0  0  0  0  0  0
  149.8758  140.7806  153.4990 H   0  0  0  0  0  0  0  0  0  0  0  0
  148.8183  142.7568  155.0958 H   0  0  0  0  0  0  0  0  0  0  0  0
  149.5526  143.6056  156.6963 H   0  0  0  0  0  0  0  0  0  0  0  0
  152.1824  141.3292  158.2153 H   0  0  0  0  0  0  0  0  0  0  0  0
  153.4588  142.0693  160.2085 H   0  0  0  0  0  0  0  0  0  0  0  0
  153.0051  144.3398  161.1681 H   0  0  0  0  0  0  0  0  0  0  0  0
  150.1261  145.1443  158.3228 H   0  0  0  0  0  0  0  0  0  0  0  0
  1  2  1  0  0  0  0
  1 19  1  0  0  0  0
  1 20  1  0  0  0  0
  1 21  1  0  0  0  0
  2  8  1  0  0  0  0
  2  3  1  0  0  0  0
  2  5  1  0  0  0  0
  3  4  1  0  0  0  0
  3 22  1  0  0  0  0
  3 23  1  0  0  0  0
  4 24  1  0  0  0  0
  5  6  1  0  0  0  0
  5 25  1  0  0  0  0
  5 26  1  0  0  0  0
  6  7  1  0  0  0  0
  6 27  1  0  0  0  0
  6 28  1  0  0  0  0
  7  8  1  0  0  0  0
  7 29  1  0  0  0  0
  7 30  1  0  0  0  0
  8  9  1  0  0  0  0
  8 31  1  0  0  0  0
  9 10  1  0  0  0  0
  9 32  1  0  0  0  0
 10 11  2  0  0  0  0
 10 12  1  0  0  0  0
 12 13  1  0  0  0  0
 12 33  1  0  0  0  0
 13 18  1  0  0  0  0
 13 14  2  0  0  0  0
 14 15  1  0  0  0  0
 14 34  1  0  0  0  0
 15 16  2  0  0  0  0
 15 35  1  0  0  0  0
 16 17  1  0  0  0  0
 16 36  1  0  0  0  0
 17 18  2  0  0  0  0
 18 37  1  0  0  0  0
M  END
> <s_m_source_file>
AV-unprocessed.smi

> <i_m_source_file_index>
691

> <i_lp_mmshare_version>
43012

> <i_f3d_flags>
0

> <s_epik_input>
W09IXVtDSDJdW0NAXTEoW0NIM10pW0NIMl1bQ0gyXVtDSDJdW0NASF0xW05IXUMoPU8pW05IXWMyW2NIXVtjSF1bY0hdbltjSF0y

> <s_epik_cmdline>
J2VwaWtfcHl0aG9uJywgJy1waCcsICc3LjAnLCAnLXRuJywgJzgnLCAnLW1hJywgJzIwMCcsICctbWV0YWxfYmluZGluZycsICctaW1hZScsICc8aW5maWxlLm1hZT4nLCAnLW9tYWUnLCAnPG91dGZpbGUubWFlPic=

> <r_epik_Ionization_Penalty>
0.00496828

> <r_epik_Ionization_Penalty_Charging>
0

> <r_epik_Ionization_Penalty_Neutral>
0.00496828

> <r_epik_State_Penalty>
0.00358054

> <r_epik_Charging_Adjusted_Penalty>
0.00358054

> <i_epik_Tot_Q>
0

> <i_epik_Tot_abs_Q>
0

> <r_epik_Metal_State_Penalty>
-0

> <b_epik_Metal_Only>
0

> <s_lp_Force_Field>
OPLS_2005

> <r_lp_Energy>
28.9923

> <b_lp_Chiralities_Consistent>
1

> <s_lp_Variant>
AV-unprocessed.smi:691-1

> <Gold.Version>
5.8.1

> <Gold.Id.Protein>
6NUR|6NUR_protein|mol2

> <Gold.PLP.Fitness>
44.0937

> <Gold.PLP.PLP>
-34.1201

> <Gold.PLP.part.hbond>
-4.7670

> <Gold.PLP.part.metal>
0.0000

> <Gold.PLP.part.buried>
-4.6176

> <Gold.PLP.part.nonpolar>
-26.1458

> <Gold.PLP.part.repulsive>
0.3076

> <Gold.PLP.ligand.clash>
0.0000

> <Gold.PLP.ligand.torsion>
0.4789

> <Gold.PLP.Chemscore.Hbond>
2.6886

> <Gold.PLP.Chemscore.CHOScore>
0.9503

> <Gold.PLP.Chemscore.Metal>
0.0000

> <Gold.Chemscore.Hbonds>
donor molecule, donor type, donor heavy atom, donor atom, acceptor molecule, acceptor atom, score
      L1  H     4    24       P1  7948  0.88
      L1  H     9    32       P1  8028  0.85
      L1  H    12    33       P1  8028  1.00
      L1  C    18    37       P1  8028  0.01
      L1  C    18    37       P1  8029  0.89

> <Gold.PLP.Chemscore.Internal.Correction>
0.0145

> <Gold.Rescore>
     Score         DG    S(hbond)    S(metal)    S(lipo)     H(rot)  DE(clash)    DE(int)     intcor
     16.75     -20.50       2.55        0.00      94.49       1.78       0.10       3.65       ----

> <Gold.Chemscore.Fitness>
16.7475

> <Gold.Chemscore.DG>
-20.4995

> <Gold.Chemscore.ZeroCoef>
-5.4800

> <Gold.Chemscore.Hbond>
2.5542

> <Gold.Chemscore.Metal>
0.0000

> <Gold.Chemscore.Lipo>
94.4875

> <Gold.Chemscore.Internal_Hbond>
0.0000

> <Gold.Chemscore.DEClash>
0.1036

> <Gold.Chemscore.DEInternal>
3.6484

> <Gold.Chemscore.Rot>
1.7838

> <Gold.Chemscore.Internal.Correction>
   9.000000E+99

> <Gold.Chemscore.Hbonds>
donor molecule, donor type, donor heavy atom, donor atom, acceptor molecule, acceptor atom, score
      L1  H     4    24       P1  7948  0.63
      L1  H     9    32       P1  8028  0.79
      L1  H    12    33       P1  8028  0.97

> <Gold.Chemscore.Hbond.Weighted>
-8.5311

> <Gold.Chemscore.Metal.Weighted>
-0.0000

> <Gold.Chemscore.Lipo.Weighted>
-11.0550

> <Gold.Chemscore.Internal_Hbond.Weighted>
0.0000

> <Gold.Chemscore.DEClash.Weighted>
0.1036

> <Gold.Chemscore.DEInternal.Weighted>
3.6484

> <Gold.Chemscore.Rot.Weighted>
4.5666

> <Gold.Chemscore.Internal.Correction.Weighted>
   9.000000E+99

> <Gold.Protein.RotatedTorsions>
[ 6907 6896 6895 6894 ] final  116.86 input  -60.11 | X-H torsion
[ 7974 7965 7964 7962 ] final -114.14 input  175.53 | X-H torsion
[ 8008 7997 7996 7995 ] final -129.26 input   59.86 | X-H torsion
[ 10167 10162 10161 10158 ] final  -87.69 input  -65.29 | X-H torsion
[ 10718 10713 10712 10709 ] final    7.39 input   66.30 | X-H torsion
[ 10763 10752 10751 10750 ] final   32.37 input  -60.55 | X-H torsion
[ 11005 11000 10999 10996 ] final  167.11 input  -57.11 | X-H torsion

> <Gold.Protein.ActiveResidues>
 VAL166  LYS551  ARG553  GLY616  TRP617  ASP618  TYR619  PRO620  LYS621  CYS622 
 ASP623  PHE694  ASN695  SER759  ASP760  ASP761  ALA762  ILE779  LEU786  VAL792 
 PHE793  MET794  SER795  GLU796  ALA797  LYS798  CYS799  TRP800  GLU811  SER814 

> <Gold.Protein.RotatedAtoms>
  152.4650  133.7904  159.6898 H   0  0  0  0  0  0  0  0  0  0  0  0  # atno 6907 bound_to 6896
  150.8611  133.7633  159.2998 H   0  0  0  0  0  0  0  0  0  0  0  0  # atno 6908 bound_to 6896
  151.5198  135.1070  159.9927 H   0  0  0  0  0  0  0  0  0  0  0  0  # atno 6909 bound_to 6896
  145.1237  140.8684  143.3798 H   0  0  0  0  0  0  0  0  0  0  0  0  # atno 7974 bound_to 7965
  155.2763  140.0442  157.3011 H   0  0  0  0  0  0  0  0  0  0  0  0  # atno 8008 bound_to 7997
  154.5623  140.2350  155.8284 H   0  0  0  0  0  0  0  0  0  0  0  0  # atno 8009 bound_to 7997
  156.2057  140.3013  155.9630 H   0  0  0  0  0  0  0  0  0  0  0  0  # atno 8010 bound_to 7997
  140.3820  143.2744  151.9372 H   0  0  0  0  0  0  0  0  0  0  0  0  # atno 10167 bound_to 10162
  156.9362  130.5844  149.5651 H   0  0  0  0  0  0  0  0  0  0  0  0  # atno 10718 bound_to 10713
  153.0266  135.6415  154.1344 H   0  0  0  0  0  0  0  0  0  0  0  0  # atno 10763 bound_to 10752
  154.1072  135.2855  155.3240 H   0  0  0  0  0  0  0  0  0  0  0  0  # atno 10764 bound_to 10752
  154.6357  135.5477  153.7794 H   0  0  0  0  0  0  0  0  0  0  0  0  # atno 10765 bound_to 10752
  140.2734  134.7809  157.3695 H   0  0  0  0  0  0  0  0  0  0  0  0  # atno 11005 bound_to 11000
  145.0711  139.3030  143.5831 LP  0  0  0  0  0  0  0  0  0  0  0  0  # atno 17320 bound_to 7965
  146.3519  140.0186  142.8660 LP  0  0  0  0  0  0  0  0  0  0  0  0  # atno 17321 bound_to 7965
  139.4794  144.5809  151.7934 LP  0  0  0  0  0  0  0  0  0  0  0  0  # atno 17342 bound_to 10162
  140.4927  144.1286  150.5954 LP  0  0  0  0  0  0  0  0  0  0  0  0  # atno 17343 bound_to 10162
  156.0425  130.5506  150.8804 LP  0  0  0  0  0  0  0  0  0  0  0  0  # atno 17370 bound_to 10713
  157.5815  131.0946  150.9264 LP  0  0  0  0  0  0  0  0  0  0  0  0  # atno 17371 bound_to 10713
  140.1352  134.5043  155.8074 LP  0  0  0  0  0  0  0  0  0  0  0  0  # atno 17394 bound_to 11000
  141.2174  133.6804  156.7111 LP  0  0  0  0  0  0  0  0  0  0  0  0  # atno 17395 bound_to 11000

$$$$
