AV-unprocessed.smi:1040|AV-procd|sdf|4526|dock1
  -GOLD-   22720 2543D 1   1.00000     0.00000
 Structure written by MMmdl.
 55 56  0  0  0  0  0  0  0  0  2 V2000
  148.6631  141.7300  156.2336 C   0  0  0  0  0  0  0  0  0  0  0  0
  149.0245  142.0896  157.6839 C   0  0  2  0  0  0  0  0  0  0  0  0
  148.1531  143.1517  158.1823 N   0  0  0  0  0  0  0  0  0  0  0  0
  147.0349  142.9755  158.8992 C   0  0  0  0  0  0  0  0  0  0  0  0
  146.5791  141.8711  159.1957 O   0  0  0  0  0  0  0  0  0  0  0  0
  146.5028  144.1543  159.2612 N   0  0  0  0  0  0  0  0  0  0  0  0
  145.3790  144.3821  160.1033 C   0  0  0  0  0  0  0  0  0  0  0  0
  145.0256  143.5036  161.1585 C   0  0  0  0  0  0  0  0  0  0  0  0
  143.8882  143.7796  161.9436 C   0  0  0  0  0  0  0  0  0  0  0  0
  143.1181  144.9225  161.6572 C   0  0  0  0  0  0  0  0  0  0  0  0
  143.4725  145.7302  160.6357 N   0  3  0  0  0  0  0  0  0  0  0  0
  144.5553  145.5081  159.8516 C   0  0  0  0  0  0  0  0  0  0  0  0
  144.8319  146.4123  158.8136 N   0  0  0  0  0  0  0  0  0  0  0  0
  143.8358  146.3932  157.7458 C   0  0  0  0  0  0  0  0  0  0  0  0
  144.3150  147.2209  156.5406 C   0  0  0  0  0  0  0  0  0  0  0  0
  144.6920  148.6484  156.9694 C   0  0  0  0  0  0  0  0  0  0  0  0
  145.7166  148.6077  158.1153 C   0  0  0  0  0  0  0  0  0  0  0  0
  145.2034  147.7452  159.2814 C   0  0  0  0  0  0  0  0  0  0  0  0
  150.4994  142.4633  157.8702 C   0  0  0  0  0  0  0  0  0  0  0  0
  151.3048  142.2785  156.9568 O   0  0  0  0  0  0  0  0  0  0  0  0
  150.8316  142.9736  159.0697 N   0  0  0  0  0  0  0  0  0  0  0  0
  152.1498  143.4137  159.5421 C   0  0  0  0  0  0  0  0  0  0  0  0
  153.0847  142.1943  159.4573 C   0  0  0  0  0  0  0  0  0  0  0  0
  152.0745  143.8861  161.0097 C   0  0  0  0  0  0  0  0  0  0  0  0
  152.7053  144.5339  158.6384 C   0  0  0  0  0  0  0  0  0  0  0  0
  149.3043  140.9341  155.8529 H   0  0  0  0  0  0  0  0  0  0  0  0
  148.7742  142.5903  155.5723 H   0  0  0  0  0  0  0  0  0  0  0  0
  147.6324  141.3821  156.1574 H   0  0  0  0  0  0  0  0  0  0  0  0
  148.8529  141.2016  158.2961 H   0  0  0  0  0  0  0  0  0  0  0  0
  148.4507  144.0970  157.9889 H   0  0  0  0  0  0  0  0  0  0  0  0
  147.0342  144.9757  159.0113 H   0  0  0  0  0  0  0  0  0  0  0  0
  145.6013  142.6153  161.3697 H   0  0  0  0  0  0  0  0  0  0  0  0
  143.6080  143.1197  162.7518 H   0  0  0  0  0  0  0  0  0  0  0  0
  142.2325  145.2093  162.2057 H   0  0  0  0  0  0  0  0  0  0  0  0
  143.6453  145.3642  157.4371 H   0  0  0  0  0  0  0  0  0  0  0  0
  142.8933  146.7949  158.1205 H   0  0  0  0  0  0  0  0  0  0  0  0
  145.1803  146.7363  156.0860 H   0  0  0  0  0  0  0  0  0  0  0  0
  143.5394  147.2510  155.7748 H   0  0  0  0  0  0  0  0  0  0  0  0
  145.0954  149.2032  156.1219 H   0  0  0  0  0  0  0  0  0  0  0  0
  143.7982  149.1819  157.2952 H   0  0  0  0  0  0  0  0  0  0  0  0
  146.6594  148.1998  157.7477 H   0  0  0  0  0  0  0  0  0  0  0  0
  145.9311  149.6185  158.4635 H   0  0  0  0  0  0  0  0  0  0  0  0
  144.3382  148.2237  159.7424 H   0  0  0  0  0  0  0  0  0  0  0  0
  145.9734  147.6647  160.0500 H   0  0  0  0  0  0  0  0  0  0  0  0
  150.0805  143.0695  159.7380 H   0  0  0  0  0  0  0  0  0  0  0  0
  154.0922  142.4426  159.7933 H   0  0  0  0  0  0  0  0  0  0  0  0
  153.1634  141.8231  158.4344 H   0  0  0  0  0  0  0  0  0  0  0  0
  152.7259  141.3729  160.0789 H   0  0  0  0  0  0  0  0  0  0  0  0
  151.6498  143.1153  161.6539 H   0  0  0  0  0  0  0  0  0  0  0  0
  151.4653  144.7828  161.1221 H   0  0  0  0  0  0  0  0  0  0  0  0
  153.0656  144.1259  161.3963 H   0  0  0  0  0  0  0  0  0  0  0  0
  153.7216  144.8025  158.9281 H   0  0  0  0  0  0  0  0  0  0  0  0
  152.1070  145.4431  158.6958 H   0  0  0  0  0  0  0  0  0  0  0  0
  152.7341  144.2234  157.5933 H   0  0  0  0  0  0  0  0  0  0  0  0
  142.8952  146.5494  160.4450 H   0  0  0  0  0  0  0  0  0  0  0  0
  1  2  1  0  0  0  0
  1 26  1  0  0  0  0
  1 27  1  0  0  0  0
  1 28  1  0  0  0  0
  2  3  1  0  0  0  0
  2 19  1  0  0  0  0
  2 29  1  0  0  0  0
  3  4  1  0  0  0  0
  3 30  1  0  0  0  0
  4  5  2  0  0  0  0
  4  6  1  0  0  0  0
  6  7  1  0  0  0  0
  6 31  1  0  0  0  0
  7 12  1  0  0  0  0
  7  8  2  0  0  0  0
  8  9  1  0  0  0  0
  8 32  1  0  0  0  0
  9 10  2  0  0  0  0
  9 33  1  0  0  0  0
 10 11  1  0  0  0  0
 10 34  1  0  0  0  0
 11 12  2  0  0  0  0
 11 55  1  0  0  0  0
 12 13  1  0  0  0  0
 13 18  1  0  0  0  0
 13 14  1  0  0  0  0
 14 15  1  0  0  0  0
 14 35  1  0  0  0  0
 14 36  1  0  0  0  0
 15 16  1  0  0  0  0
 15 37  1  0  0  0  0
 15 38  1  0  0  0  0
 16 17  1  0  0  0  0
 16 39  1  0  0  0  0
 16 40  1  0  0  0  0
 17 18  1  0  0  0  0
 17 41  1  0  0  0  0
 17 42  1  0  0  0  0
 18 43  1  0  0  0  0
 18 44  1  0  0  0  0
 19 20  2  0  0  0  0
 19 21  1  0  0  0  0
 21 22  1  0  0  0  0
 21 45  1  0  0  0  0
 22 23  1  0  0  0  0
 22 24  1  0  0  0  0
 22 25  1  0  0  0  0
 23 46  1  0  0  0  0
 23 47  1  0  0  0  0
 23 48  1  0  0  0  0
 24 49  1  0  0  0  0
 24 50  1  0  0  0  0
 24 51  1  0  0  0  0
 25 52  1  0  0  0  0
 25 53  1  0  0  0  0
 25 54  1  0  0  0  0
M  CHG  1  11   1
M  END
> <s_m_source_file>
AV-unprocessed.smi

> <i_m_source_file_index>
1040

> <i_lp_mmshare_version>
43012

> <i_f3d_flags>
0

> <s_epik_input>
W0NIM11DKFtDSDNdKShbQ0gzXSlbTkhdQyg9TylbQ0BIXShbQ0gzXSlbTkhdQyg9TylbTkhdYzFbY0hdW2NIXVtjSF1uYzFOMltDSDJdW0NIMl1bQ0gyXVtDSDJdW0NIMl0y

> <s_epik_cmdline>
J2VwaWtfcHl0aG9uJywgJy1waCcsICc3LjAnLCAnLXRuJywgJzgnLCAnLW1hJywgJzIwMCcsICctbWV0YWxfYmluZGluZycsICctaW1hZScsICc8aW5maWxlLm1hZT4nLCAnLW9tYWUnLCAnPG91dGZpbGUubWFlPic=

> <r_lp_tautomer_probability>
0.999994

> <r_epik_Ionization_Penalty>
1.20468

> <r_epik_Ionization_Penalty_Charging>
1.20466

> <r_epik_Ionization_Penalty_Neutral>
1.88859e-05

> <r_epik_State_Penalty>
1.27057

> <r_epik_Charging_Adjusted_Penalty>
2.47523

> <i_epik_Tot_Q>
1

> <i_epik_Tot_abs_Q>
1

> <r_epik_Metal_State_Penalty>
1.34448

> <b_epik_Metal_Only>
0

> <s_lp_Force_Field>
OPLS_2005

> <r_lp_Energy>
28.5731

> <b_lp_Chiralities_Consistent>
1

> <s_lp_Variant>
AV-unprocessed.smi:1040-3

> <Gold.Version>
5.8.1

> <Gold.Id.Protein>
6NUR|6NUR_protein|mol2

> <Gold.PLP.Fitness>
50.7282

> <Gold.PLP.PLP>
-45.1570

> <Gold.PLP.part.hbond>
-5.0000

> <Gold.PLP.part.metal>
0.0000

> <Gold.PLP.part.buried>
-1.5670

> <Gold.PLP.part.nonpolar>
-39.3213

> <Gold.PLP.part.repulsive>
0.4033

> <Gold.PLP.ligand.clash>
0.0000

> <Gold.PLP.ligand.torsion>
0.8638

> <Gold.PLP.Chemscore.Hbond>
2.3109

> <Gold.PLP.Chemscore.CHOScore>
0.0000

> <Gold.PLP.Chemscore.Metal>
0.0000

> <Gold.Chemscore.Hbonds>
donor molecule, donor type, donor heavy atom, donor atom, acceptor molecule, acceptor atom, score
      L1  H     3    30       P1  8029  0.61
      L1  H     6    31       P1  8029  0.56
      P1  H  6934  6946       L1     5  0.85

> <Gold.PLP.Chemscore.Internal.Correction>
0.3660

> <Gold.Rescore>
     Score         DG    S(hbond)    S(metal)    S(lipo)     H(rot)  DE(clash)    DE(int)     intcor
     17.96     -20.04       1.66        0.00     113.09       1.64       0.47       1.61       ----

> <Gold.Chemscore.Fitness>
17.9589

> <Gold.Chemscore.DG>
-20.0374

> <Gold.Chemscore.ZeroCoef>
-5.4800

> <Gold.Chemscore.Hbond>
1.6562

> <Gold.Chemscore.Metal>
0.0000

> <Gold.Chemscore.Lipo>
113.0868

> <Gold.Chemscore.Internal_Hbond>
0.0000

> <Gold.Chemscore.DEClash>
0.4694

> <Gold.Chemscore.DEInternal>
1.6090

> <Gold.Chemscore.Rot>
1.6428

> <Gold.Chemscore.Internal.Correction>
   9.000000E+99

> <Gold.Chemscore.Hbonds>
donor molecule, donor type, donor heavy atom, donor atom, acceptor molecule, acceptor atom, score
      L1  H     3    30       P1  8029  0.06
      L1  H     6    31       P1  8029  0.56
      P1  H  6934  6946       L1     5  0.83

> <Gold.Chemscore.Hbond.Weighted>
-5.5317

> <Gold.Chemscore.Metal.Weighted>
-0.0000

> <Gold.Chemscore.Lipo.Weighted>
-13.2312

> <Gold.Chemscore.Internal_Hbond.Weighted>
0.0000

> <Gold.Chemscore.DEClash.Weighted>
0.4694

> <Gold.Chemscore.DEInternal.Weighted>
1.6090

> <Gold.Chemscore.Rot.Weighted>
4.2055

> <Gold.Chemscore.Internal.Correction.Weighted>
   9.000000E+99

> <Gold.Protein.RotatedTorsions>
[ 6907 6896 6895 6894 ] final   93.23 input  -60.11 | X-H torsion
[ 7974 7965 7964 7962 ] final   52.88 input  175.53 | X-H torsion
[ 8008 7997 7996 7995 ] final  174.05 input   59.86 | X-H torsion
[ 10167 10162 10161 10158 ] final  -78.93 input  -65.29 | X-H torsion
[ 10718 10713 10712 10709 ] final -137.79 input   66.30 | X-H torsion
[ 10763 10752 10751 10750 ] final   34.01 input  -60.55 | X-H torsion
[ 11005 11000 10999 10996 ] final   39.05 input  -57.11 | X-H torsion

> <Gold.Protein.ActiveResidues>
 VAL166  LYS551  ARG553  GLY616  TRP617  ASP618  TYR619  PRO620  LYS621  CYS622 
 ASP623  PHE694  ASN695  SER759  ASP760  ASP761  ALA762  ILE779  LEU786  VAL792 
 PHE793  MET794  SER795  GLU796  ALA797  LYS798  CYS799  TRP800  GLU811  SER814 

> <Gold.Protein.RotatedAtoms>
  152.5452  134.1380  159.8466 H   0  0  0  0  0  0  0  0  0  0  0  0  # atno 6907 bound_to 6896
  151.1419  133.4958  159.2604 H   0  0  0  0  0  0  0  0  0  0  0  0  # atno 6908 bound_to 6896
  151.1564  135.0262  159.8745 H   0  0  0  0  0  0  0  0  0  0  0  0  # atno 6909 bound_to 6896
  145.9768  139.4203  143.0156 H   0  0  0  0  0  0  0  0  0  0  0  0  # atno 7974 bound_to 7965
  156.1014  140.1444  156.9463 H   0  0  0  0  0  0  0  0  0  0  0  0  # atno 8008 bound_to 7997
  154.4705  140.0911  156.7176 H   0  0  0  0  0  0  0  0  0  0  0  0  # atno 8009 bound_to 7997
  155.4754  140.3443  155.4334 H   0  0  0  0  0  0  0  0  0  0  0  0  # atno 8010 bound_to 7997
  140.4639  143.2446  151.8307 H   0  0  0  0  0  0  0  0  0  0  0  0  # atno 10167 bound_to 10162
  156.2921  130.7381  151.1409 H   0  0  0  0  0  0  0  0  0  0  0  0  # atno 10718 bound_to 10713
  153.0184  135.6372  154.1601 H   0  0  0  0  0  0  0  0  0  0  0  0  # atno 10763 bound_to 10752
  154.1338  135.2839  155.3180 H   0  0  0  0  0  0  0  0  0  0  0  0  # atno 10764 bound_to 10752
  154.6175  135.5536  153.7600 H   0  0  0  0  0  0  0  0  0  0  0  0  # atno 10765 bound_to 10752
  140.2066  134.3806  155.8069 H   0  0  0  0  0  0  0  0  0  0  0  0  # atno 11005 bound_to 11000
  145.7827  140.9849  143.1091 LP  0  0  0  0  0  0  0  0  0  0  0  0  # atno 17320 bound_to 7965
  144.6851  139.9584  143.7479 LP  0  0  0  0  0  0  0  0  0  0  0  0  # atno 17321 bound_to 7965
  139.4809  144.4974  151.9105 LP  0  0  0  0  0  0  0  0  0  0  0  0  # atno 17342 bound_to 10162
  140.4060  144.2431  150.5890 LP  0  0  0  0  0  0  0  0  0  0  0  0  # atno 17343 bound_to 10162
  157.7345  131.0581  150.5519 LP  0  0  0  0  0  0  0  0  0  0  0  0  # atno 17370 bound_to 10713
  156.5637  130.4262  149.6051 LP  0  0  0  0  0  0  0  0  0  0  0  0  # atno 17371 bound_to 10713
  141.2227  133.7121  156.8347 LP  0  0  0  0  0  0  0  0  0  0  0  0  # atno 17394 bound_to 11000
  140.1996  134.8906  157.3154 LP  0  0  0  0  0  0  0  0  0  0  0  0  # atno 17395 bound_to 11000

$$$$
