AV-unprocessed.smi:1024|AV-procd|sdf|4464|dock4
  -GOLD-   22720 2443D 1   1.00000     0.00000
 Structure written by MMmdl.
 48 50  0  0  0  0  0  0  0  0  2 V2000
  151.8489  138.0975  159.5117 O   0  0  0  0  0  0  0  0  0  0  0  0
  152.8929  138.6818  159.8065 C   0  0  0  0  0  0  0  0  0  0  0  0
  153.8177  138.1226  160.6055 N   0  0  0  0  0  0  0  0  0  0  0  0
  153.7033  136.8083  161.2256 C   0  0  0  0  0  0  0  0  0  0  0  0
  155.0071  136.4052  161.9343 C   0  0  0  0  0  0  0  0  0  0  0  0
  154.7443  135.6321  163.1483 N   0  0  0  0  0  0  0  0  0  0  0  0
  155.1302  134.3442  163.4177 C   0  0  0  0  0  0  0  0  0  0  0  0
  154.6532  134.0479  164.6687 C   0  0  0  0  0  0  0  0  0  0  0  0
  153.9970  135.1665  165.1089 N   0  3  0  0  0  0  0  0  0  0  0  0
  154.0528  136.1286  164.1821 C   0  0  0  0  0  0  0  0  0  0  0  0
  153.2120  139.9166  159.3422 N   0  0  0  0  0  0  0  0  0  0  0  0
  154.3251  140.7605  159.8030 C   0  0  0  0  0  0  0  0  0  0  0  0
  153.7547  141.8949  160.6760 C   0  0  0  0  0  0  0  0  0  0  0  0
  152.6903  142.7565  159.9397 C   0  0  0  0  0  0  0  0  0  0  0  0
  151.9862  143.6564  160.9886 C   0  0  0  0  0  0  0  0  0  0  0  0
  151.0376  144.6971  160.3678 C   0  0  0  0  0  0  0  0  0  0  0  0
  151.7742  145.5832  159.3549 C   0  0  0  0  0  0  0  0  0  0  0  0
  152.4603  144.7343  158.2764 C   0  0  0  0  0  0  0  0  0  0  0  0
  153.3916  143.6783  158.9003 C   0  0  0  0  0  0  0  0  0  0  0  0
  151.6569  141.8038  159.2671 C   0  0  0  0  0  0  0  0  0  0  0  0
  152.3159  140.6691  158.4588 C   0  0  0  0  0  0  0  0  0  0  0  0
  154.6571  138.6501  160.7977 H   0  0  0  0  0  0  0  0  0  0  0  0
  152.8663  136.8014  161.9262 H   0  0  0  0  0  0  0  0  0  0  0  0
  153.4624  136.0829  160.4480 H   0  0  0  0  0  0  0  0  0  0  0  0
  155.6337  135.8005  161.2774 H   0  0  0  0  0  0  0  0  0  0  0  0
  155.5911  137.2830  162.2152 H   0  0  0  0  0  0  0  0  0  0  0  0
  155.6993  133.7497  162.7175 H   0  0  0  0  0  0  0  0  0  0  0  0
  154.7289  133.1487  165.2626 H   0  0  0  0  0  0  0  0  0  0  0  0
  153.6224  137.1118  164.2534 H   0  0  0  0  0  0  0  0  0  0  0  0
  155.0867  140.2186  160.3633 H   0  0  0  0  0  0  0  0  0  0  0  0
  154.8499  141.1687  158.9390 H   0  0  0  0  0  0  0  0  0  0  0  0
  153.3082  141.4476  161.5656 H   0  0  0  0  0  0  0  0  0  0  0  0
  154.5681  142.5243  161.0389 H   0  0  0  0  0  0  0  0  0  0  0  0
  151.4337  143.0437  161.7019 H   0  0  0  0  0  0  0  0  0  0  0  0
  152.7398  144.1853  161.5743 H   0  0  0  0  0  0  0  0  0  0  0  0
  150.1973  144.1995  159.8835 H   0  0  0  0  0  0  0  0  0  0  0  0
  150.6090  145.3182  161.1544 H   0  0  0  0  0  0  0  0  0  0  0  0
  151.0764  146.2824  158.8934 H   0  0  0  0  0  0  0  0  0  0  0  0
  152.5204  146.1864  159.8734 H   0  0  0  0  0  0  0  0  0  0  0  0
  151.7094  144.2542  157.6495 H   0  0  0  0  0  0  0  0  0  0  0  0
  153.0342  145.3819  157.6129 H   0  0  0  0  0  0  0  0  0  0  0  0
  154.2152  144.2027  159.3868 H   0  0  0  0  0  0  0  0  0  0  0  0
  153.8498  143.0948  158.1030 H   0  0  0  0  0  0  0  0  0  0  0  0
  151.0315  141.3509  160.0378 H   0  0  0  0  0  0  0  0  0  0  0  0
  150.9708  142.3521  158.6235 H   0  0  0  0  0  0  0  0  0  0  0  0
  152.8817  141.0693  157.6173 H   0  0  0  0  0  0  0  0  0  0  0  0
  151.5443  140.0411  158.0120 H   0  0  0  0  0  0  0  0  0  0  0  0
  153.5348  135.2556  166.0051 H   0  0  0  0  0  0  0  0  0  0  0  0
  1  2  2  0  0  0  0
  2  3  1  0  0  0  0
  2 11  1  0  0  0  0
  3  4  1  0  0  0  0
  3 22  1  0  0  0  0
  4  5  1  0  0  0  0
  4 23  1  0  0  0  0
  4 24  1  0  0  0  0
  5  6  1  0  0  0  0
  5 25  1  0  0  0  0
  5 26  1  0  0  0  0
  6 10  1  0  0  0  0
  6  7  1  0  0  0  0
  7  8  2  0  0  0  0
  7 27  1  0  0  0  0
  8  9  1  0  0  0  0
  8 28  1  0  0  0  0
  9 10  2  0  0  0  0
  9 48  1  0  0  0  0
 10 29  1  0  0  0  0
 11 21  1  0  0  0  0
 11 12  1  0  0  0  0
 12 13  1  0  0  0  0
 12 30  1  0  0  0  0
 12 31  1  0  0  0  0
 13 14  1  0  0  0  0
 13 32  1  0  0  0  0
 13 33  1  0  0  0  0
 14 19  1  0  0  0  0
 14 15  1  0  0  0  0
 14 20  1  0  0  0  0
 15 16  1  0  0  0  0
 15 34  1  0  0  0  0
 15 35  1  0  0  0  0
 16 17  1  0  0  0  0
 16 36  1  0  0  0  0
 16 37  1  0  0  0  0
 17 18  1  0  0  0  0
 17 38  1  0  0  0  0
 17 39  1  0  0  0  0
 18 19  1  0  0  0  0
 18 40  1  0  0  0  0
 18 41  1  0  0  0  0
 19 42  1  0  0  0  0
 19 43  1  0  0  0  0
 20 21  1  0  0  0  0
 20 44  1  0  0  0  0
 20 45  1  0  0  0  0
 21 46  1  0  0  0  0
 21 47  1  0  0  0  0
M  CHG  1   9   1
M  END
> <s_m_source_file>
AV-unprocessed.smi

> <i_m_source_file_index>
1024

> <i_lp_mmshare_version>
43012

> <i_f3d_flags>
0

> <s_epik_input>
W2NIXTFuW2NIXVtjSF1uMVtDSDJdW0NIMl1bTkhdQyg9TylOKFtDSDJdW0NIMl0yKVtDSDJdW0NIMl1DMjNbQ0gyXVtDSDJdW0NIMl1bQ0gyXVtDSDJdMw==

> <s_epik_cmdline>
J2VwaWtfcHl0aG9uJywgJy1waCcsICc3LjAnLCAnLXRuJywgJzgnLCAnLW1hJywgJzIwMCcsICctbWV0YWxfYmluZGluZycsICctaW1hZScsICc8aW5maWxlLm1hZT4nLCAnLW9tYWUnLCAnPG91dGZpbGUubWFlPic=

> <r_lp_tautomer_probability>
1

> <r_epik_Ionization_Penalty>
0.249817

> <r_epik_Ionization_Penalty_Charging>
0

> <r_epik_Ionization_Penalty_Neutral>
0.249817

> <r_epik_State_Penalty>
0.241048

> <r_epik_Charging_Adjusted_Penalty>
0.241048

> <i_epik_Tot_Q>
1

> <i_epik_Tot_abs_Q>
1

> <r_epik_Metal_State_Penalty>
0.532587

> <b_epik_Metal_Only>
0

> <s_lp_Force_Field>
OPLS_2005

> <r_lp_Energy>
44.4362

> <b_lp_Chiralities_Consistent>
1

> <s_lp_Variant>
AV-unprocessed.smi:1024-1

> <Gold.Version>
5.8.1

> <Gold.Id.Protein>
6NUR|6NUR_protein|mol2

> <Gold.PLP.Fitness>
52.1620

> <Gold.PLP.PLP>
-52.7044

> <Gold.PLP.part.hbond>
-1.0000

> <Gold.PLP.part.metal>
0.0000

> <Gold.PLP.part.buried>
-5.6099

> <Gold.PLP.part.nonpolar>
-45.1085

> <Gold.PLP.part.repulsive>
0.1462

> <Gold.PLP.ligand.clash>
0.0000

> <Gold.PLP.ligand.torsion>
0.2886

> <Gold.PLP.Chemscore.Hbond>
0.0000

> <Gold.PLP.Chemscore.CHOScore>
0.0000

> <Gold.PLP.Chemscore.Metal>
0.0000

> <Gold.PLP.Chemscore.Internal.Correction>
0.0348

> <Gold.Rescore>
     Score         DG    S(hbond)    S(metal)    S(lipo)     H(rot)  DE(clash)    DE(int)     intcor
     16.82     -17.30       0.00        0.00     135.46       1.57       0.05       0.43       ----

> <Gold.Chemscore.Fitness>
16.8191

> <Gold.Chemscore.DG>
-17.2973

> <Gold.Chemscore.ZeroCoef>
-5.4800

> <Gold.Chemscore.Hbond>
0.0000

> <Gold.Chemscore.Metal>
0.0000

> <Gold.Chemscore.Lipo>
135.4580

> <Gold.Chemscore.Internal_Hbond>
0.0000

> <Gold.Chemscore.DEClash>
0.0531

> <Gold.Chemscore.DEInternal>
0.4251

> <Gold.Chemscore.Rot>
1.5747

> <Gold.Chemscore.Internal.Correction>
   9.000000E+99

> <Gold.Chemscore.Hbond.Weighted>
-0.0000

> <Gold.Chemscore.Metal.Weighted>
-0.0000

> <Gold.Chemscore.Lipo.Weighted>
-15.8486

> <Gold.Chemscore.Internal_Hbond.Weighted>
0.0000

> <Gold.Chemscore.DEClash.Weighted>
0.0531

> <Gold.Chemscore.DEInternal.Weighted>
0.4251

> <Gold.Chemscore.Rot.Weighted>
4.0313

> <Gold.Chemscore.Internal.Correction.Weighted>
   9.000000E+99

> <Gold.Protein.RotatedTorsions>
[ 6907 6896 6895 6894 ] final   21.08 input  -60.11 | X-H torsion
[ 7974 7965 7964 7962 ] final   58.12 input  175.53 | X-H torsion
[ 8008 7997 7996 7995 ] final   74.41 input   59.86 | X-H torsion
[ 10167 10162 10161 10158 ] final -126.23 input  -65.29 | X-H torsion
[ 10718 10713 10712 10709 ] final -137.93 input   66.30 | X-H torsion
[ 10763 10752 10751 10750 ] final -125.00 input  -60.55 | X-H torsion
[ 11005 11000 10999 10996 ] final  164.51 input  -57.11 | X-H torsion

> <Gold.Protein.ActiveResidues>
 VAL166  LYS551  ARG553  GLY616  TRP617  ASP618  TYR619  PRO620  LYS621  CYS622 
 ASP623  PHE694  ASN695  SER759  ASP760  ASP761  ALA762  ILE779  LEU786  VAL792 
 PHE793  MET794  SER795  GLU796  ALA797  LYS798  CYS799  TRP800  GLU811  SER814 

> <Gold.Protein.RotatedAtoms>
  151.9063  135.0358  160.0510 H   0  0  0  0  0  0  0  0  0  0  0  0  # atno 6907 bound_to 6896
  152.2317  133.5059  159.5228 H   0  0  0  0  0  0  0  0  0  0  0  0  # atno 6908 bound_to 6896
  150.7027  134.1124  159.4047 H   0  0  0  0  0  0  0  0  0  0  0  0  # atno 6909 bound_to 6896
  145.9217  139.3734  143.0474 H   0  0  0  0  0  0  0  0  0  0  0  0  # atno 7974 bound_to 7965
  155.7979  140.3477  155.5386 H   0  0  0  0  0  0  0  0  0  0  0  0  # atno 8008 bound_to 7997
  155.8568  140.0965  157.1660 H   0  0  0  0  0  0  0  0  0  0  0  0  # atno 8009 bound_to 7997
  154.4010  140.1366  156.3899 H   0  0  0  0  0  0  0  0  0  0  0  0  # atno 8010 bound_to 7997
  139.9737  143.5817  152.2403 H   0  0  0  0  0  0  0  0  0  0  0  0  # atno 10167 bound_to 10162
  156.2937  130.7389  151.1422 H   0  0  0  0  0  0  0  0  0  0  0  0  # atno 10718 bound_to 10713
  154.8730  135.4044  154.3197 H   0  0  0  0  0  0  0  0  0  0  0  0  # atno 10763 bound_to 10752
  153.4027  135.7018  153.6420 H   0  0  0  0  0  0  0  0  0  0  0  0  # atno 10764 bound_to 10752
  153.5156  135.3698  155.2578 H   0  0  0  0  0  0  0  0  0  0  0  0  # atno 10765 bound_to 10752
  140.2467  134.8009  157.3463 H   0  0  0  0  0  0  0  0  0  0  0  0  # atno 11005 bound_to 11000
  145.8542  140.9512  143.0734 LP  0  0  0  0  0  0  0  0  0  0  0  0  # atno 17320 bound_to 7965
  144.6754  140.0446  143.7480 LP  0  0  0  0  0  0  0  0  0  0  0  0  # atno 17321 bound_to 7965
  139.6462  144.7658  151.2240 LP  0  0  0  0  0  0  0  0  0  0  0  0  # atno 17342 bound_to 10162
  140.7513  143.6236  150.8490 LP  0  0  0  0  0  0  0  0  0  0  0  0  # atno 17343 bound_to 10162
  157.7349  131.0577  150.5497 LP  0  0  0  0  0  0  0  0  0  0  0  0  # atno 17370 bound_to 10713
  156.5616  130.4257  149.6060 LP  0  0  0  0  0  0  0  0  0  0  0  0  # atno 17371 bound_to 10713
  140.1599  134.4742  155.7902 LP  0  0  0  0  0  0  0  0  0  0  0  0  # atno 17394 bound_to 11000
  141.2205  133.6897  156.7526 LP  0  0  0  0  0  0  0  0  0  0  0  0  # atno 17395 bound_to 11000

$$$$
