AV-unprocessed.smi:2525|AV-procd|sdf|9930|dock1
  -GOLD-   2272013573D 1   1.00000     0.00000
 Structure written by MMmdl.
 44 45  0  0  0  0  0  0  0  0  1 V2000
  147.7730  139.4254  153.7527 C   0  0  0  0  0  0  0  0  0  0  0  0
  147.9697  139.2536  155.2697 C   0  0  0  0  0  0  0  0  0  0  0  0
  149.3795  139.5696  155.8454 C   0  0  0  0  0  0  0  0  0  0  0  0
  149.6467  141.0660  155.5497 C   0  0  0  0  0  0  0  0  0  0  0  0
  150.7897  141.6957  156.3656 C   0  0  0  0  0  0  0  0  0  0  0  0
  149.6907  139.1636  157.3175 C   0  0  1  0  0  0  0  0  0  0  0  0
  148.9188  138.0178  157.7943 N   0  0  0  0  0  0  0  0  0  0  0  0
  149.1215  137.3725  158.9526 C   0  0  0  0  0  0  0  0  0  0  0  0
  149.9850  137.6978  159.7664 O   0  0  0  0  0  0  0  0  0  0  0  0
  148.1962  136.1892  159.2507 C   0  0  0  0  0  0  0  0  0  0  0  0
  147.9862  136.0124  160.6784 N   0  0  0  0  0  0  0  0  0  0  0  0
  147.7097  134.8504  161.3691 C   0  0  0  0  0  0  0  0  0  0  0  0
  147.5920  135.2702  162.6631 C   0  0  0  0  0  0  0  0  0  0  0  0
  147.7976  136.6482  162.7064 N   0  0  0  0  0  0  0  0  0  0  0  0
  148.0368  137.0823  161.5090 N   0  0  0  0  0  0  0  0  0  0  0  0
  151.1127  138.7526  156.8937 C   0  0  1  0  0  0  0  0  0  0  0  0
  151.8050  137.5659  157.5621 C   0  0  0  0  0  0  0  0  0  0  0  0
  150.5485  138.6132  155.4720 C   0  0  2  0  0  0  0  0  0  0  0  0
  151.3712  139.1341  154.4382 O   0  0  0  0  0  0  0  0  0  0  0  0
  152.6437  138.5150  154.3684 C   0  0  0  0  0  0  0  0  0  0  0  0
  146.7623  139.1328  153.4673 H   0  0  0  0  0  0  0  0  0  0  0  0
  148.4604  138.8144  153.1694 H   0  0  0  0  0  0  0  0  0  0  0  0
  147.9015  140.4651  153.4515 H   0  0  0  0  0  0  0  0  0  0  0  0
  147.2153  139.8813  155.7456 H   0  0  0  0  0  0  0  0  0  0  0  0
  147.6918  138.2329  155.5341 H   0  0  0  0  0  0  0  0  0  0  0  0
  149.8824  141.2068  154.4947 H   0  0  0  0  0  0  0  0  0  0  0  0
  148.7387  141.6487  155.7102 H   0  0  0  0  0  0  0  0  0  0  0  0
  150.9404  142.7339  156.0702 H   0  0  0  0  0  0  0  0  0  0  0  0
  151.7337  141.1738  156.2119 H   0  0  0  0  0  0  0  0  0  0  0  0
  150.5767  141.6930  157.4343 H   0  0  0  0  0  0  0  0  0  0  0  0
  149.7081  139.9984  158.0192 H   0  0  0  0  0  0  0  0  0  0  0  0
  148.1823  137.6831  157.1898 H   0  0  0  0  0  0  0  0  0  0  0  0
  147.2276  136.3444  158.7740 H   0  0  0  0  0  0  0  0  0  0  0  0
  148.6215  135.2784  158.8268 H   0  0  0  0  0  0  0  0  0  0  0  0
  147.6218  133.8805  160.9015 H   0  0  0  0  0  0  0  0  0  0  0  0
  147.3770  134.7028  163.5566 H   0  0  0  0  0  0  0  0  0  0  0  0
  151.7543  139.6340  156.9436 H   0  0  0  0  0  0  0  0  0  0  0  0
  151.2747  136.6308  157.3785 H   0  0  0  0  0  0  0  0  0  0  0  0
  151.8650  137.7034  158.6417 H   0  0  0  0  0  0  0  0  0  0  0  0
  152.8223  137.4405  157.1924 H   0  0  0  0  0  0  0  0  0  0  0  0
  150.2358  137.5870  155.2765 H   0  0  0  0  0  0  0  0  0  0  0  0
  153.1988  138.9195  153.5223 H   0  0  0  0  0  0  0  0  0  0  0  0
  152.5531  137.4376  154.2264 H   0  0  0  0  0  0  0  0  0  0  0  0
  153.2271  138.7036  155.2690 H   0  0  0  0  0  0  0  0  0  0  0  0
  1  2  1  0  0  0  0
  1 21  1  0  0  0  0
  1 22  1  0  0  0  0
  1 23  1  0  0  0  0
  2  3  1  0  0  0  0
  2 24  1  0  0  0  0
  2 25  1  0  0  0  0
  3 18  1  0  0  0  0
  3  4  1  0  0  0  0
  3  6  1  0  0  0  0
  4  5  1  0  0  0  0
  4 26  1  0  0  0  0
  4 27  1  0  0  0  0
  5 28  1  0  0  0  0
  5 29  1  0  0  0  0
  5 30  1  0  0  0  0
  6  7  1  0  0  0  0
  6 16  1  0  0  0  0
  6 31  1  0  0  0  0
  7  8  1  0  0  0  0
  7 32  1  0  0  0  0
  8  9  2  0  0  0  0
  8 10  1  0  0  0  0
 10 11  1  0  0  0  0
 10 33  1  0  0  0  0
 10 34  1  0  0  0  0
 11 15  1  0  0  0  0
 11 12  1  0  0  0  0
 12 13  2  0  0  0  0
 12 35  1  0  0  0  0
 13 14  1  0  0  0  0
 13 36  1  0  0  0  0
 14 15  2  0  0  0  0
 16 17  1  0  0  0  0
 16 18  1  0  0  0  0
 16 37  1  0  0  0  0
 17 38  1  0  0  0  0
 17 39  1  0  0  0  0
 17 40  1  0  0  0  0
 18 19  1  0  0  0  0
 18 41  1  0  0  0  0
 19 20  1  0  0  0  0
 20 42  1  0  0  0  0
 20 43  1  0  0  0  0
 20 44  1  0  0  0  0
M  END
> <s_m_source_file>
AV-unprocessed.smi

> <i_m_source_file_index>
2525

> <i_lp_mmshare_version>
43012

> <i_f3d_flags>
0

> <s_epik_input>
W0NIM11PW0NAQEhdMVtDQEhdKFtDSDNdKVtDQEBIXShDMShbQ0gyXVtDSDNdKVtDSDJdW0NIM10pW05IXUMoPU8pW0NIMl1uMltjSF1bY0hdbm4y

> <s_epik_cmdline>
J2VwaWtfcHl0aG9uJywgJy1waCcsICc3LjAnLCAnLXRuJywgJzgnLCAnLW1hJywgJzIwMCcsICctbWV0YWxfYmluZGluZycsICctaW1hZScsICc8aW5maWxlLm1hZT4nLCAnLW9tYWUnLCAnPG91dGZpbGUubWFlPic=

> <r_lp_tautomer_probability>
1

> <r_epik_Ionization_Penalty>
1.18045e-06

> <r_epik_Ionization_Penalty_Charging>
0

> <r_epik_Ionization_Penalty_Neutral>
1.18045e-06

> <r_epik_State_Penalty>
-0

> <r_epik_Charging_Adjusted_Penalty>
0

> <i_epik_Tot_Q>
0

> <i_epik_Tot_abs_Q>
0

> <r_epik_Metal_State_Penalty>
-0

> <b_epik_Metal_Only>
0

> <s_lp_Force_Field>
OPLS_2005

> <r_lp_Energy>
28.6674

> <b_lp_Chiralities_Consistent>
1

> <s_lp_Variant>
AV-unprocessed.smi:2525-5

> <Gold.Version>
5.8.1

> <Gold.Id.Protein>
6NUR|6NUR_protein|mol2

> <Gold.PLP.Fitness>
35.6934

> <Gold.PLP.PLP>
-29.8962

> <Gold.PLP.part.hbond>
-4.9307

> <Gold.PLP.part.metal>
0.0000

> <Gold.PLP.part.buried>
-3.8248

> <Gold.PLP.part.nonpolar>
-21.4234

> <Gold.PLP.part.repulsive>
0.2106

> <Gold.PLP.ligand.clash>
0.0000

> <Gold.PLP.ligand.torsion>
1.2246

> <Gold.PLP.Chemscore.Hbond>
2.5380

> <Gold.PLP.Chemscore.CHOScore>
0.0000

> <Gold.PLP.Chemscore.Metal>
0.0000

> <Gold.Chemscore.Hbonds>
donor molecule, donor type, donor heavy atom, donor atom, acceptor molecule, acceptor atom, score
      P1  H  6931  6943       L1    15  0.85
      P1  H  6934  6947       L1    15  0.39
      P1  H  7989  7998       L1    19  1.00

> <Gold.PLP.Chemscore.Internal.Correction>
0.6324

> <Gold.Rescore>
     Score         DG    S(hbond)    S(metal)    S(lipo)     H(rot)  DE(clash)    DE(int)     intcor
     11.19     -15.24       1.99        0.00      69.99       1.98       0.28       3.77       ----

> <Gold.Chemscore.Fitness>
11.1882

> <Gold.Chemscore.DG>
-15.2355

> <Gold.Chemscore.ZeroCoef>
-5.4800

> <Gold.Chemscore.Hbond>
1.9878

> <Gold.Chemscore.Metal>
0.0000

> <Gold.Chemscore.Lipo>
69.9935

> <Gold.Chemscore.Internal_Hbond>
0.0000

> <Gold.Chemscore.DEClash>
0.2768

> <Gold.Chemscore.DEInternal>
3.7705

> <Gold.Chemscore.Rot>
1.9817

> <Gold.Chemscore.Internal.Correction>
   9.000000E+99

> <Gold.Chemscore.Hbonds>
donor molecule, donor type, donor heavy atom, donor atom, acceptor molecule, acceptor atom, score
      P1  H  6931  6943       L1    15  0.14
      P1  H  6934  6947       L1    15  0.38
      P1  H  7989  7998       L1    19  0.39

> <Gold.Chemscore.Hbond.Weighted>
-6.6393

> <Gold.Chemscore.Metal.Weighted>
-0.0000

> <Gold.Chemscore.Lipo.Weighted>
-8.1892

> <Gold.Chemscore.Internal_Hbond.Weighted>
0.0000

> <Gold.Chemscore.DEClash.Weighted>
0.2768

> <Gold.Chemscore.DEInternal.Weighted>
3.7705

> <Gold.Chemscore.Rot.Weighted>
5.0731

> <Gold.Chemscore.Internal.Correction.Weighted>
   9.000000E+99

> <Gold.Protein.RotatedTorsions>
[ 6907 6896 6895 6894 ] final   -3.61 input  -60.11 | X-H torsion
[ 7974 7965 7964 7962 ] final  161.98 input  175.53 | X-H torsion
[ 8008 7997 7996 7995 ] final -178.53 input   59.86 | X-H torsion
[ 10167 10162 10161 10158 ] final  -40.27 input  -65.29 | X-H torsion
[ 10718 10713 10712 10709 ] final -127.33 input   66.30 | X-H torsion
[ 10763 10752 10751 10750 ] final -172.89 input  -60.55 | X-H torsion
[ 11005 11000 10999 10996 ] final  -30.99 input  -57.11 | X-H torsion

> <Gold.Protein.ActiveResidues>
 VAL166  LYS551  ARG553  GLY616  TRP617  ASP618  TYR619  PRO620  LYS621  CYS622 
 ASP623  PHE694  ASN695  SER759  ASP760  ASP761  ALA762  ILE779  LEU786  VAL792 
 PHE793  MET794  SER795  GLU796  ALA797  LYS798  CYS799  TRP800  GLU811  SER814 

> <Gold.Protein.RotatedAtoms>
  151.5110  135.1065  159.9853 H   0  0  0  0  0  0  0  0  0  0  0  0  # atno 6907 bound_to 6896
  152.4661  133.7923  159.6919 H   0  0  0  0  0  0  0  0  0  0  0  0  # atno 6908 bound_to 6896
  150.8646  133.7530  159.3006 H   0  0  0  0  0  0  0  0  0  0  0  0  # atno 6909 bound_to 6896
  144.7659  139.7975  143.6315 H   0  0  0  0  0  0  0  0  0  0  0  0  # atno 7974 bound_to 7965
  156.0199  140.1259  157.0368 H   0  0  0  0  0  0  0  0  0  0  0  0  # atno 8008 bound_to 7997
  154.4308  140.1070  156.6019 H   0  0  0  0  0  0  0  0  0  0  0  0  # atno 8009 bound_to 7997
  155.5959  140.3470  155.4582 H   0  0  0  0  0  0  0  0  0  0  0  0  # atno 8010 bound_to 7997
  140.7039  143.3163  151.2900 H   0  0  0  0  0  0  0  0  0  0  0  0  # atno 10167 bound_to 10162
  156.1847  130.6755  151.0349 H   0  0  0  0  0  0  0  0  0  0  0  0  # atno 10718 bound_to 10713
  154.6141  135.2868  155.0399 H   0  0  0  0  0  0  0  0  0  0  0  0  # atno 10763 bound_to 10752
  154.1618  135.6487  153.4992 H   0  0  0  0  0  0  0  0  0  0  0  0  # atno 10764 bound_to 10752
  153.0207  135.5380  154.6906 H   0  0  0  0  0  0  0  0  0  0  0  0  # atno 10765 bound_to 10752
  140.9430  133.7267  156.1104 H   0  0  0  0  0  0  0  0  0  0  0  0  # atno 11005 bound_to 11000
  146.1765  139.4938  142.9894 LP  0  0  0  0  0  0  0  0  0  0  0  0  # atno 17320 bound_to 7965
  145.6472  141.0271  143.1780 LP  0  0  0  0  0  0  0  0  0  0  0  0  # atno 17321 bound_to 7965
  139.6603  144.0201  152.2688 LP  0  0  0  0  0  0  0  0  0  0  0  0  # atno 17342 bound_to 10162
  139.9766  144.6457  150.7939 LP  0  0  0  0  0  0  0  0  0  0  0  0  # atno 17343 bound_to 10162
  157.6891  131.0815  150.7159 LP  0  0  0  0  0  0  0  0  0  0  0  0  # atno 17370 bound_to 10713
  156.7216  130.4682  149.5521 LP  0  0  0  0  0  0  0  0  0  0  0  0  # atno 17371 bound_to 10713
  140.7708  134.3834  157.5508 LP  0  0  0  0  0  0  0  0  0  0  0  0  # atno 17394 bound_to 11000
  139.8825  134.9021  156.2825 LP  0  0  0  0  0  0  0  0  0  0  0  0  # atno 17395 bound_to 11000

$$$$
