AV-unprocessed.smi:1112|AV-procd|sdf|4797|dock10
  -GOLD-   22720 3343D 1   1.00000     0.00000
 Structure written by MMmdl.
 50 52  0  0  0  0  0  0  0  0  2 V2000
  149.9137  137.8279  159.3965 O   0  0  0  0  0  0  0  0  0  0  0  0
  148.9906  137.9107  158.5871 C   0  0  0  0  0  0  0  0  0  0  0  0
  148.0718  136.9523  158.4029 N   0  0  0  0  0  0  0  0  0  0  0  0
  147.9919  135.6883  159.1338 C   0  0  0  0  0  0  0  0  0  0  0  0
  146.5991  135.4539  159.7769 C   0  0  0  0  0  0  0  0  0  0  0  0
  145.6564  135.5166  158.7228 O   0  0  0  0  0  0  0  0  0  0  0  0
  146.4833  134.0305  160.3729 C   0  0  0  0  0  0  0  0  0  0  0  0
  147.2752  133.8661  161.6840 C   0  0  0  0  0  0  0  0  0  0  0  0
  146.8782  134.9312  162.7181 C   0  0  0  0  0  0  0  0  0  0  0  0
  147.0128  136.3489  162.1415 C   0  0  0  0  0  0  0  0  0  0  0  0
  146.1958  136.4994  160.8468 C   0  0  0  0  0  0  0  0  0  0  0  0
  148.7719  138.9525  157.7673 N   0  0  0  0  0  0  0  0  0  0  0  0
  149.5232  140.1569  157.6411 C   0  0  0  0  0  0  0  0  0  0  0  0
  150.6841  140.4136  158.4155 C   0  0  0  0  0  0  0  0  0  0  0  0
  151.3846  141.6239  158.2483 C   0  0  0  0  0  0  0  0  0  0  0  0
  150.9102  142.5647  157.3173 C   0  0  0  0  0  0  0  0  0  0  0  0
  149.7929  142.2994  156.6095 N   0  3  0  0  0  0  0  0  0  0  0  0
  149.0790  141.1522  156.7276 C   0  0  0  0  0  0  0  0  0  0  0  0
  147.9045  140.9978  155.9613 N   0  0  0  0  0  0  0  0  0  0  0  0
  146.8594  141.9664  156.2854 C   0  0  0  0  0  0  0  0  0  0  0  0
  146.2036  142.3627  154.9603 C   0  0  0  0  0  0  0  0  0  0  0  0
  147.3039  142.1098  153.9368 C   0  0  0  0  0  0  0  0  0  0  0  0
  148.0040  140.8783  154.5077 C   0  0  0  0  0  0  0  0  0  0  0  0
  147.3524  137.1107  157.7127 H   0  0  0  0  0  0  0  0  0  0  0  0
  148.2250  134.8806  158.4389 H   0  0  0  0  0  0  0  0  0  0  0  0
  148.7713  135.6481  159.8946 H   0  0  0  0  0  0  0  0  0  0  0  0
  146.0977  135.8182  157.9432 H   0  0  0  0  0  0  0  0  0  0  0  0
  145.4352  133.8066  160.5790 H   0  0  0  0  0  0  0  0  0  0  0  0
  146.8123  133.2858  159.6467 H   0  0  0  0  0  0  0  0  0  0  0  0
  147.1005  132.8718  162.0958 H   0  0  0  0  0  0  0  0  0  0  0  0
  148.3458  133.9260  161.4879 H   0  0  0  0  0  0  0  0  0  0  0  0
  145.8480  134.7643  163.0357 H   0  0  0  0  0  0  0  0  0  0  0  0
  147.4960  134.8315  163.6109 H   0  0  0  0  0  0  0  0  0  0  0  0
  146.6763  137.0797  162.8772 H   0  0  0  0  0  0  0  0  0  0  0  0
  148.0630  136.5690  161.9498 H   0  0  0  0  0  0  0  0  0  0  0  0
  146.2849  137.5159  160.4635 H   0  0  0  0  0  0  0  0  0  0  0  0
  145.1403  136.3733  161.0938 H   0  0  0  0  0  0  0  0  0  0  0  0
  148.0264  138.8348  157.0970 H   0  0  0  0  0  0  0  0  0  0  0  0
  151.0460  139.7088  159.1480 H   0  0  0  0  0  0  0  0  0  0  0  0
  152.2710  141.8284  158.8311 H   0  0  0  0  0  0  0  0  0  0  0  0
  151.3797  143.5188  157.1262 H   0  0  0  0  0  0  0  0  0  0  0  0
  146.1298  141.5414  156.9754 H   0  0  0  0  0  0  0  0  0  0  0  0
  147.2951  142.8465  156.7618 H   0  0  0  0  0  0  0  0  0  0  0  0
  145.3548  141.7080  154.7564 H   0  0  0  0  0  0  0  0  0  0  0  0
  145.8439  143.3921  154.9561 H   0  0  0  0  0  0  0  0  0  0  0  0
  146.9224  141.9533  152.9275 H   0  0  0  0  0  0  0  0  0  0  0  0
  147.9932  142.9552  153.9138 H   0  0  0  0  0  0  0  0  0  0  0  0
  149.0212  140.7761  154.1291 H   0  0  0  0  0  0  0  0  0  0  0  0
  147.4669  139.9762  154.2128 H   0  0  0  0  0  0  0  0  0  0  0  0
  149.4634  143.0059  155.9513 H   0  0  0  0  0  0  0  0  0  0  0  0
  1  2  2  0  0  0  0
  2  3  1  0  0  0  0
  2 12  1  0  0  0  0
  3  4  1  0  0  0  0
  3 24  1  0  0  0  0
  4  5  1  0  0  0  0
  4 25  1  0  0  0  0
  4 26  1  0  0  0  0
  5 11  1  0  0  0  0
  5  6  1  0  0  0  0
  5  7  1  0  0  0  0
  6 27  1  0  0  0  0
  7  8  1  0  0  0  0
  7 28  1  0  0  0  0
  7 29  1  0  0  0  0
  8  9  1  0  0  0  0
  8 30  1  0  0  0  0
  8 31  1  0  0  0  0
  9 10  1  0  0  0  0
  9 32  1  0  0  0  0
  9 33  1  0  0  0  0
 10 11  1  0  0  0  0
 10 34  1  0  0  0  0
 10 35  1  0  0  0  0
 11 36  1  0  0  0  0
 11 37  1  0  0  0  0
 12 13  1  0  0  0  0
 12 38  1  0  0  0  0
 13 18  1  0  0  0  0
 13 14  2  0  0  0  0
 14 15  1  0  0  0  0
 14 39  1  0  0  0  0
 15 16  2  0  0  0  0
 15 40  1  0  0  0  0
 16 17  1  0  0  0  0
 16 41  1  0  0  0  0
 17 18  2  0  0  0  0
 17 50  1  0  0  0  0
 18 19  1  0  0  0  0
 19 23  1  0  0  0  0
 19 20  1  0  0  0  0
 20 21  1  0  0  0  0
 20 42  1  0  0  0  0
 20 43  1  0  0  0  0
 21 22  1  0  0  0  0
 21 44  1  0  0  0  0
 21 45  1  0  0  0  0
 22 23  1  0  0  0  0
 22 46  1  0  0  0  0
 22 47  1  0  0  0  0
 23 48  1  0  0  0  0
 23 49  1  0  0  0  0
M  CHG  1  17   1
M  END
> <s_m_source_file>
AV-unprocessed.smi

> <i_m_source_file_index>
1112

> <i_lp_mmshare_version>
43012

> <i_f3d_flags>
0

> <s_epik_input>
W0NIMl0xW0NIMl1bQ0gyXVtDSDJdW0NIMl1DMShbT0hdKVtDSDJdW05IXUMoPU8pW05IXWMyW2NIXVtjSF1bY0hdbmMyTjNbQ0gyXVtDSDJdW0NIMl1bQ0gyXTM=

> <s_epik_cmdline>
J2VwaWtfcHl0aG9uJywgJy1waCcsICc3LjAnLCAnLXRuJywgJzgnLCAnLW1hJywgJzIwMCcsICctbWV0YWxfYmluZGluZycsICctaW1hZScsICc8aW5maWxlLm1hZT4nLCAnLW9tYWUnLCAnPG91dGZpbGUubWFlPic=

> <r_lp_tautomer_probability>
0.999994

> <r_epik_Ionization_Penalty>
1.10443

> <r_epik_Ionization_Penalty_Charging>
1.1044

> <r_epik_Ionization_Penalty_Neutral>
2.27493e-05

> <r_epik_State_Penalty>
1.16183

> <r_epik_Charging_Adjusted_Penalty>
2.26623

> <i_epik_Tot_Q>
1

> <i_epik_Tot_abs_Q>
1

> <r_epik_Metal_State_Penalty>
1.24855

> <b_epik_Metal_Only>
0

> <s_lp_Force_Field>
OPLS_2005

> <r_lp_Energy>
50.1983

> <b_lp_Chiralities_Consistent>
1

> <s_lp_Variant>
AV-unprocessed.smi:1112-2

> <Gold.Version>
5.8.1

> <Gold.Id.Protein>
6NUR|6NUR_protein|mol2

> <Gold.PLP.Fitness>
42.7911

> <Gold.PLP.PLP>
-36.8592

> <Gold.PLP.part.hbond>
-2.0000

> <Gold.PLP.part.metal>
0.0000

> <Gold.PLP.part.buried>
-7.0868

> <Gold.PLP.part.nonpolar>
-28.9169

> <Gold.PLP.part.repulsive>
0.3582

> <Gold.PLP.ligand.clash>
0.0000

> <Gold.PLP.ligand.torsion>
0.1019

> <Gold.PLP.Chemscore.Hbond>
2.0000

> <Gold.PLP.Chemscore.CHOScore>
0.0000

> <Gold.PLP.Chemscore.Metal>
0.0000

> <Gold.Chemscore.Hbonds>
donor molecule, donor type, donor heavy atom, donor atom, acceptor molecule, acceptor atom, score
      L1  H    17    50       P1  8028  1.95

> <Gold.PLP.Chemscore.Internal.Correction>
0.1358

> <Gold.Rescore>
     Score         DG    S(hbond)    S(metal)    S(lipo)     H(rot)  DE(clash)    DE(int)     intcor
     13.49     -15.06       0.98        0.00      95.85       1.92       0.08       1.50       ----

> <Gold.Chemscore.Fitness>
13.4851

> <Gold.Chemscore.DG>
-15.0620

> <Gold.Chemscore.ZeroCoef>
-5.4800

> <Gold.Chemscore.Hbond>
0.9807

> <Gold.Chemscore.Metal>
0.0000

> <Gold.Chemscore.Lipo>
95.8536

> <Gold.Chemscore.Internal_Hbond>
0.0000

> <Gold.Chemscore.DEClash>
0.0753

> <Gold.Chemscore.DEInternal>
1.5016

> <Gold.Chemscore.Rot>
1.9173

> <Gold.Chemscore.Internal.Correction>
   9.000000E+99

> <Gold.Chemscore.Hbonds>
donor molecule, donor type, donor heavy atom, donor atom, acceptor molecule, acceptor atom, score
      L1  H    17    50       P1  8028  0.93

> <Gold.Chemscore.Hbond.Weighted>
-3.2755

> <Gold.Chemscore.Metal.Weighted>
-0.0000

> <Gold.Chemscore.Lipo.Weighted>
-11.2149

> <Gold.Chemscore.Internal_Hbond.Weighted>
0.0000

> <Gold.Chemscore.DEClash.Weighted>
0.0753

> <Gold.Chemscore.DEInternal.Weighted>
1.5016

> <Gold.Chemscore.Rot.Weighted>
4.9084

> <Gold.Chemscore.Internal.Correction.Weighted>
   9.000000E+99

> <Gold.Protein.RotatedTorsions>
[ 6907 6896 6895 6894 ] final   -4.47 input  -60.11 | X-H torsion
[ 7974 7965 7964 7962 ] final    0.34 input  175.53 | X-H torsion
[ 8008 7997 7996 7995 ] final  118.54 input   59.86 | X-H torsion
[ 10167 10162 10161 10158 ] final  129.27 input  -65.29 | X-H torsion
[ 10718 10713 10712 10709 ] final -121.90 input   66.30 | X-H torsion
[ 10763 10752 10751 10750 ] final  -30.98 input  -60.55 | X-H torsion
[ 11005 11000 10999 10996 ] final  152.91 input  -57.11 | X-H torsion

> <Gold.Protein.ActiveResidues>
 VAL166  LYS551  ARG553  GLY616  TRP617  ASP618  TYR619  PRO620  LYS621  CYS622 
 ASP623  PHE694  ASN695  SER759  ASP760  ASP761  ALA762  ILE779  LEU786  VAL792 
 PHE793  MET794  SER795  GLU796  ALA797  LYS798  CYS799  TRP800  GLU811  SER814 

> <Gold.Protein.RotatedAtoms>
  151.4971  135.1060  159.9818 H   0  0  0  0  0  0  0  0  0  0  0  0  # atno 6907 bound_to 6896
  152.4717  133.8041  159.6979 H   0  0  0  0  0  0  0  0  0  0  0  0  # atno 6908 bound_to 6896
  150.8730  133.7416  159.2981 H   0  0  0  0  0  0  0  0  0  0  0  0  # atno 6909 bound_to 6896
  146.2433  140.1153  142.8342 H   0  0  0  0  0  0  0  0  0  0  0  0  # atno 7974 bound_to 7965
  156.2551  140.2872  156.0850 H   0  0  0  0  0  0  0  0  0  0  0  0  # atno 8008 bound_to 7997
  155.1525  140.0398  157.2841 H   0  0  0  0  0  0  0  0  0  0  0  0  # atno 8009 bound_to 7997
  154.6451  140.2531  155.7284 H   0  0  0  0  0  0  0  0  0  0  0  0  # atno 8010 bound_to 7997
  139.5486  144.6794  151.4396 H   0  0  0  0  0  0  0  0  0  0  0  0  # atno 10167 bound_to 10162
  156.1374  130.6441  150.9718 H   0  0  0  0  0  0  0  0  0  0  0  0  # atno 10718 bound_to 10713
  153.7899  135.6898  153.4873 H   0  0  0  0  0  0  0  0  0  0  0  0  # atno 10763 bound_to 10752
  153.1756  135.4526  154.9959 H   0  0  0  0  0  0  0  0  0  0  0  0  # atno 10764 bound_to 10752
  154.8048  135.3352  154.7396 H   0  0  0  0  0  0  0  0  0  0  0  0  # atno 10765 bound_to 10752
  140.1350  134.8777  157.2255 H   0  0  0  0  0  0  0  0  0  0  0  0  # atno 11005 bound_to 11000
  145.0453  140.8976  143.5028 LP  0  0  0  0  0  0  0  0  0  0  0  0  # atno 17320 bound_to 7965
  145.1240  139.2675  143.5573 LP  0  0  0  0  0  0  0  0  0  0  0  0  # atno 17321 bound_to 7965
  140.6741  143.8228  150.7037 LP  0  0  0  0  0  0  0  0  0  0  0  0  # atno 17342 bound_to 10162
  140.1661  143.4234  152.2033 LP  0  0  0  0  0  0  0  0  0  0  0  0  # atno 17343 bound_to 10162
  157.6545  131.0891  150.7978 LP  0  0  0  0  0  0  0  0  0  0  0  0  # atno 17370 bound_to 10713
  156.8057  130.4935  149.5363 LP  0  0  0  0  0  0  0  0  0  0  0  0  # atno 17371 bound_to 10713
  140.2794  134.3368  155.7348 LP  0  0  0  0  0  0  0  0  0  0  0  0  # atno 17394 bound_to 11000
  141.2177  133.7469  156.9341 LP  0  0  0  0  0  0  0  0  0  0  0  0  # atno 17395 bound_to 11000

$$$$
