AV-unprocessed.smi:739|AV-procd|sdf|3542|dock8
  -GOLD-   22720 0533D 1   1.00000     0.00000
 Structure written by MMmdl.
 32 34  0  0  0  0  0  0  0  0  1 V2000
  148.6808  142.5585  157.2937 O   0  0  0  0  0  0  0  0  0  0  0  0
  149.3950  141.4593  156.7667 C   0  0  2  0  0  0  0  0  0  0  0  0
  150.8278  141.9257  156.4410 C   0  0  0  0  0  0  0  0  0  0  0  0
  151.5110  142.4540  157.6083 N   0  0  0  0  0  0  0  0  0  0  0  0
  151.5118  143.7309  158.0365 C   0  0  0  0  0  0  0  0  0  0  0  0
  152.1933  144.0010  159.1461 N   0  0  0  0  0  0  0  0  0  0  0  0
  152.6961  142.7542  159.4763 C   0  0  0  0  0  0  0  0  0  0  0  0
  153.5077  142.3507  160.5604 C   0  0  0  0  0  0  0  0  0  0  0  0
  153.9003  141.0030  160.6970 C   0  0  0  0  0  0  0  0  0  0  0  0
  154.6775  140.6334  161.7426 F   0  0  0  0  0  0  0  0  0  0  0  0
  153.4883  140.0398  159.7520 C   0  0  0  0  0  0  0  0  0  0  0  0
  153.8681  138.7475  159.8908 F   0  0  0  0  0  0  0  0  0  0  0  0
  152.6810  140.4187  158.6627 C   0  0  0  0  0  0  0  0  0  0  0  0
  152.2906  141.7642  158.5313 C   0  0  0  0  0  0  0  0  0  0  0  0
  148.6982  140.8455  155.5597 C   0  0  0  0  0  0  0  0  0  0  0  0
  149.1541  139.6178  155.0320 C   0  0  0  0  0  0  0  0  0  0  0  0
  148.5356  139.0592  153.8967 C   0  0  0  0  0  0  0  0  0  0  0  0
  147.4565  139.7235  153.2833 C   0  0  0  0  0  0  0  0  0  0  0  0
  146.8626  139.1867  152.1913 F   0  0  0  0  0  0  0  0  0  0  0  0
  146.9960  140.9472  153.8056 C   0  0  0  0  0  0  0  0  0  0  0  0
  147.6149  141.5073  154.9400 C   0  0  0  0  0  0  0  0  0  0  0  0
  148.9396  143.3368  156.8240 H   0  0  0  0  0  0  0  0  0  0  0  0
  149.4387  140.7127  157.5610 H   0  0  0  0  0  0  0  0  0  0  0  0
  151.4182  141.1092  156.0231 H   0  0  0  0  0  0  0  0  0  0  0  0
  150.8038  142.7110  155.6840 H   0  0  0  0  0  0  0  0  0  0  0  0
  150.9766  144.5050  157.5061 H   0  0  0  0  0  0  0  0  0  0  0  0
  153.8286  143.0791  161.2903 H   0  0  0  0  0  0  0  0  0  0  0  0
  152.3627  139.6823  157.9401 H   0  0  0  0  0  0  0  0  0  0  0  0
  149.9872  139.1052  155.4900 H   0  0  0  0  0  0  0  0  0  0  0  0
  148.8913  138.1221  153.4943 H   0  0  0  0  0  0  0  0  0  0  0  0
  146.1698  141.4585  153.3342 H   0  0  0  0  0  0  0  0  0  0  0  0
  147.2614  142.4519  155.3268 H   0  0  0  0  0  0  0  0  0  0  0  0
  1  2  1  0  0  0  0
  1 22  1  0  0  0  0
  2  3  1  0  0  0  0
  2 15  1  0  0  0  0
  2 23  1  0  0  0  0
  3  4  1  0  0  0  0
  3 24  1  0  0  0  0
  3 25  1  0  0  0  0
  4 14  1  0  0  0  0
  4  5  1  0  0  0  0
  5  6  2  0  0  0  0
  5 26  1  0  0  0  0
  6  7  1  0  0  0  0
  7 14  2  0  0  0  0
  7  8  1  0  0  0  0
  8  9  2  0  0  0  0
  8 27  1  0  0  0  0
  9 10  1  0  0  0  0
  9 11  1  0  0  0  0
 11 12  1  0  0  0  0
 11 13  2  0  0  0  0
 13 14  1  0  0  0  0
 13 28  1  0  0  0  0
 15 21  1  0  0  0  0
 15 16  2  0  0  0  0
 16 17  1  0  0  0  0
 16 29  1  0  0  0  0
 17 18  2  0  0  0  0
 17 30  1  0  0  0  0
 18 19  1  0  0  0  0
 18 20  1  0  0  0  0
 20 21  2  0  0  0  0
 20 31  1  0  0  0  0
 21 32  1  0  0  0  0
M  END
> <s_m_source_file>
AV-unprocessed.smi

> <i_m_source_file_index>
739

> <i_lp_mmshare_version>
43012

> <i_f3d_flags>
0

> <s_epik_input>
W2NIXTFbY0hdYyhGKVtjSF1bY0hdYzFbQ0BIXShbT0hdKVtDSDJdbihbY0hdbjIpYyhjMjMpW2NIXWMoRiljKEYpW2NIXTM=

> <s_epik_cmdline>
J2VwaWtfcHl0aG9uJywgJy1waCcsICc3LjAnLCAnLXRuJywgJzgnLCAnLW1hJywgJzIwMCcsICctbWV0YWxfYmluZGluZycsICctaW1hZScsICc8aW5maWxlLm1hZT4nLCAnLW9tYWUnLCAnPG91dGZpbGUubWFlPic=

> <r_epik_Ionization_Penalty>
0.0156356

> <r_epik_Ionization_Penalty_Charging>
0

> <r_epik_Ionization_Penalty_Neutral>
0.0156356

> <r_epik_State_Penalty>
0.0122974

> <r_epik_Charging_Adjusted_Penalty>
0.0122974

> <i_epik_Tot_Q>
0

> <i_epik_Tot_abs_Q>
0

> <r_epik_Metal_State_Penalty>
1.24258e-05

> <b_epik_Metal_Only>
0

> <s_lp_Force_Field>
OPLS_2005

> <r_lp_Energy>
11.0566

> <b_lp_Chiralities_Consistent>
1

> <s_lp_Variant>
AV-unprocessed.smi:739-1

> <Gold.Version>
5.8.1

> <Gold.Id.Protein>
6NUR|6NUR_protein|mol2

> <Gold.PLP.Fitness>
50.6586

> <Gold.PLP.PLP>
-45.7289

> <Gold.PLP.part.hbond>
-0.9310

> <Gold.PLP.part.metal>
0.0000

> <Gold.PLP.part.buried>
-1.5300

> <Gold.PLP.part.nonpolar>
-43.4607

> <Gold.PLP.part.repulsive>
0.0339

> <Gold.PLP.ligand.clash>
0.0000

> <Gold.PLP.ligand.torsion>
0.5460

> <Gold.PLP.Chemscore.Hbond>
1.0000

> <Gold.PLP.Chemscore.CHOScore>
1.0000

> <Gold.PLP.Chemscore.Metal>
0.0000

> <Gold.Chemscore.Hbonds>
donor molecule, donor type, donor heavy atom, donor atom, acceptor molecule, acceptor atom, score
      L1  H     1    22       P1  8028  1.00
      L1  C     5    26       P1  8028  0.42

> <Gold.PLP.Chemscore.Internal.Correction>
0.0216

> <Gold.Rescore>
     Score         DG    S(hbond)    S(metal)    S(lipo)     H(rot)  DE(clash)    DE(int)     intcor
     14.36     -14.80       0.78        0.00     102.69       2.07       0.05       0.40       ----

> <Gold.Chemscore.Fitness>
14.3558

> <Gold.Chemscore.DG>
-14.8047

> <Gold.Chemscore.ZeroCoef>
-5.4800

> <Gold.Chemscore.Hbond>
0.7812

> <Gold.Chemscore.Metal>
0.0000

> <Gold.Chemscore.Lipo>
102.6897

> <Gold.Chemscore.Internal_Hbond>
0.0000

> <Gold.Chemscore.DEClash>
0.0516

> <Gold.Chemscore.DEInternal>
0.3974

> <Gold.Chemscore.Rot>
2.0700

> <Gold.Chemscore.Internal.Correction>
   9.000000E+99

> <Gold.Chemscore.Hbonds>
donor molecule, donor type, donor heavy atom, donor atom, acceptor molecule, acceptor atom, score
      L1  H     1    22       P1  8028  0.82

> <Gold.Chemscore.Hbond.Weighted>
-2.6093

> <Gold.Chemscore.Metal.Weighted>
-0.0000

> <Gold.Chemscore.Lipo.Weighted>
-12.0147

> <Gold.Chemscore.Internal_Hbond.Weighted>
0.0000

> <Gold.Chemscore.DEClash.Weighted>
0.0516

> <Gold.Chemscore.DEInternal.Weighted>
0.3974

> <Gold.Chemscore.Rot.Weighted>
5.2992

> <Gold.Chemscore.Internal.Correction.Weighted>
   9.000000E+99

> <Gold.Protein.RotatedTorsions>
[ 6907 6896 6895 6894 ] final  107.95 input  -60.11 | X-H torsion
[ 7974 7965 7964 7962 ] final  135.23 input  175.53 | X-H torsion
[ 8008 7997 7996 7995 ] final   -9.83 input   59.86 | X-H torsion
[ 10167 10162 10161 10158 ] final -115.52 input  -65.29 | X-H torsion
[ 10718 10713 10712 10709 ] final    0.12 input   66.30 | X-H torsion
[ 10763 10752 10751 10750 ] final   73.76 input  -60.55 | X-H torsion
[ 11005 11000 10999 10996 ] final -137.97 input  -57.11 | X-H torsion

> <Gold.Protein.ActiveResidues>
 VAL166  LYS551  ARG553  GLY616  TRP617  ASP618  TYR619  PRO620  LYS621  CYS622 
 ASP623  PHE694  ASN695  SER759  ASP760  ASP761  ALA762  ILE779  LEU786  VAL792 
 PHE793  MET794  SER795  GLU796  ALA797  LYS798  CYS799  TRP800  GLU811  SER814 

> <Gold.Protein.RotatedAtoms>
  152.5133  133.9159  159.7510 H   0  0  0  0  0  0  0  0  0  0  0  0  # atno 6907 bound_to 6896
  150.9542  133.6507  159.2773 H   0  0  0  0  0  0  0  0  0  0  0  0  # atno 6908 bound_to 6896
  151.3775  135.0939  159.9538 H   0  0  0  0  0  0  0  0  0  0  0  0  # atno 6909 bound_to 6896
  144.9684  139.4632  143.5445 H   0  0  0  0  0  0  0  0  0  0  0  0  # atno 7974 bound_to 7965
  154.5610  140.2345  155.8335 H   0  0  0  0  0  0  0  0  0  0  0  0  # atno 8008 bound_to 7997
  156.2029  140.3047  155.9525 H   0  0  0  0  0  0  0  0  0  0  0  0  # atno 8009 bound_to 7997
  155.2889  140.0426  157.3012 H   0  0  0  0  0  0  0  0  0  0  0  0  # atno 8010 bound_to 7997
  140.0891  143.4716  152.1880 H   0  0  0  0  0  0  0  0  0  0  0  0  # atno 10167 bound_to 10162
  156.8287  130.5481  149.5689 H   0  0  0  0  0  0  0  0  0  0  0  0  # atno 10718 bound_to 10713
  153.0542  135.5051  154.7942 H   0  0  0  0  0  0  0  0  0  0  0  0  # atno 10763 bound_to 10752
  154.6780  135.2963  154.9654 H   0  0  0  0  0  0  0  0  0  0  0  0  # atno 10764 bound_to 10752
  154.0450  135.6712  153.4846 H   0  0  0  0  0  0  0  0  0  0  0  0  # atno 10765 bound_to 10752
  140.8660  134.2109  157.4679 H   0  0  0  0  0  0  0  0  0  0  0  0  # atno 11005 bound_to 11000
  146.3375  139.8881  142.8813 LP  0  0  0  0  0  0  0  0  0  0  0  0  # atno 17320 bound_to 7965
  145.2595  141.0072  143.3835 LP  0  0  0  0  0  0  0  0  0  0  0  0  # atno 17321 bound_to 7965
  139.5735  144.7475  151.3828 LP  0  0  0  0  0  0  0  0  0  0  0  0  # atno 17342 bound_to 10162
  140.7038  143.7566  150.7447 LP  0  0  0  0  0  0  0  0  0  0  0  0  # atno 17343 bound_to 10162
  156.0947  130.5923  150.9793 LP  0  0  0  0  0  0  0  0  0  0  0  0  # atno 17370 bound_to 10713
  157.6418  131.0909  150.8235 LP  0  0  0  0  0  0  0  0  0  0  0  0  # atno 17371 bound_to 10713
  139.8709  134.9752  156.4875 LP  0  0  0  0  0  0  0  0  0  0  0  0  # atno 17394 bound_to 11000
  140.8628  133.8047  155.9283 LP  0  0  0  0  0  0  0  0  0  0  0  0  # atno 17395 bound_to 11000

$$$$
