AV-unprocessed.smi:3127|AV-procd|sdf|11914|dock8
  -GOLD-   2272017293D 1   1.00000     0.00000
 Structure written by MMmdl.
 34 35  0  0  0  0  0  0  0  0  2 V2000
  150.6524  143.3883  158.1997 C   0  0  0  0  0  0  0  0  0  0  0  0
  151.5257  144.2150  159.1679 C   0  0  0  0  0  0  0  0  0  0  0  0
  152.5661  144.9842  158.3300 C   0  0  0  0  0  0  0  0  0  0  0  0
  150.6080  145.2095  159.9059 C   0  0  0  0  0  0  0  0  0  0  0  0
  152.2291  143.3210  160.1697 C   0  0  0  0  0  0  0  0  0  0  0  0
  152.1765  143.3786  161.5439 C   0  0  0  0  0  0  0  0  0  0  0  0
  153.1566  142.1507  162.2964 S   0  0  0  0  0  0  0  0  0  0  0  0
  153.6039  141.5716  160.6990 C   0  0  0  0  0  0  0  0  0  0  0  0
  154.5521  140.4368  160.4805 C   0  0  2  0  0  0  0  0  0  0  0  0
  154.0253  139.1113  161.0623 C   0  0  0  0  0  0  0  0  0  0  0  0
  155.0385  138.0508  160.8987 N   0  3  0  0  0  0  0  0  0  0  0  0
  156.3350  138.4462  161.4842 C   0  0  0  0  0  0  0  0  0  0  0  0
  156.7916  139.7947  160.8997 C   0  0  0  0  0  0  0  0  0  0  0  0
  155.7838  140.7776  161.1135 O   0  0  0  0  0  0  0  0  0  0  0  0
  153.0585  142.2883  159.7125 N   0  0  0  0  0  0  0  0  0  0  0  0
  150.1467  144.0288  157.4760 H   0  0  0  0  0  0  0  0  0  0  0  0
  149.8801  142.8309  158.7315 H   0  0  0  0  0  0  0  0  0  0  0  0
  151.2499  142.6722  157.6342 H   0  0  0  0  0  0  0  0  0  0  0  0
  153.2290  144.3009  157.7977 H   0  0  0  0  0  0  0  0  0  0  0  0
  153.1890  145.6272  158.9528 H   0  0  0  0  0  0  0  0  0  0  0  0
  152.0856  145.6215  157.5870 H   0  0  0  0  0  0  0  0  0  0  0  0
  150.0740  145.8526  159.2056 H   0  0  0  0  0  0  0  0  0  0  0  0
  151.1735  145.8595  160.5745 H   0  0  0  0  0  0  0  0  0  0  0  0
  149.8626  144.6878  160.5075 H   0  0  0  0  0  0  0  0  0  0  0  0
  151.6248  144.0695  162.1642 H   0  0  0  0  0  0  0  0  0  0  0  0
  154.7163  140.3363  159.4061 H   0  0  0  0  0  0  0  0  0  0  0  0
  153.7973  139.2243  162.1234 H   0  0  0  0  0  0  0  0  0  0  0  0
  153.1030  138.8102  160.5646 H   0  0  0  0  0  0  0  0  0  0  0  0
  154.7134  137.2037  161.3432 H   0  0  0  0  0  0  0  0  0  0  0  0
  156.2315  138.5217  162.5675 H   0  0  0  0  0  0  0  0  0  0  0  0
  157.0743  137.6704  161.2845 H   0  0  0  0  0  0  0  0  0  0  0  0
  157.7127  140.1219  161.3823 H   0  0  0  0  0  0  0  0  0  0  0  0
  157.0058  139.7048  159.8334 H   0  0  0  0  0  0  0  0  0  0  0  0
  155.1683  137.8763  159.9123 H   0  0  0  0  0  0  0  0  0  0  0  0
  1  2  1  0  0  0  0
  1 16  1  0  0  0  0
  1 17  1  0  0  0  0
  1 18  1  0  0  0  0
  2  3  1  0  0  0  0
  2  4  1  0  0  0  0
  2  5  1  0  0  0  0
  3 19  1  0  0  0  0
  3 20  1  0  0  0  0
  3 21  1  0  0  0  0
  4 22  1  0  0  0  0
  4 23  1  0  0  0  0
  4 24  1  0  0  0  0
  5 15  1  0  0  0  0
  5  6  2  0  0  0  0
  6  7  1  0  0  0  0
  6 25  1  0  0  0  0
  7  8  1  0  0  0  0
  8  9  1  0  0  0  0
  8 15  2  0  0  0  0
  9 14  1  0  0  0  0
  9 10  1  0  0  0  0
  9 26  1  0  0  0  0
 10 11  1  0  0  0  0
 10 27  1  0  0  0  0
 10 28  1  0  0  0  0
 11 12  1  0  0  0  0
 11 29  1  0  0  0  0
 11 34  1  0  0  0  0
 12 13  1  0  0  0  0
 12 30  1  0  0  0  0
 12 31  1  0  0  0  0
 13 14  1  0  0  0  0
 13 32  1  0  0  0  0
 13 33  1  0  0  0  0
M  CHG  1  11   1
M  END
> <s_m_source_file>
AV-unprocessed.smi

> <i_m_source_file_index>
3127

> <i_lp_mmshare_version>
43012

> <i_f3d_flags>
0

> <s_epik_input>
W0NIM11DKFtDSDNdKShbQ0gzXSljMVtjSF1zYyhuMSlbQ0BASF0yW0NIMl1bTkhdW0NIMl1bQ0gyXU8y

> <s_epik_cmdline>
J2VwaWtfcHl0aG9uJywgJy1waCcsICc3LjAnLCAnLXRuJywgJzgnLCAnLW1hJywgJzIwMCcsICctbWV0YWxfYmluZGluZycsICctaW1hZScsICc8aW5maWxlLm1hZT4nLCAnLW9tYWUnLCAnPG91dGZpbGUubWFlPic=

> <r_epik_Ionization_Penalty>
0.125708

> <r_epik_Ionization_Penalty_Charging>
0.125708

> <r_epik_Ionization_Penalty_Neutral>
5.37588e-07

> <r_epik_State_Penalty>
0.0155352

> <r_epik_Charging_Adjusted_Penalty>
0.141243

> <i_epik_Tot_Q>
1

> <i_epik_Tot_abs_Q>
1

> <r_epik_Metal_State_Penalty>
0.0155796

> <b_epik_Metal_Only>
0

> <s_lp_Force_Field>
OPLS_2005

> <r_lp_Energy>
5.69116

> <b_lp_Chiralities_Consistent>
1

> <s_lp_Variant>
AV-unprocessed.smi:3127-1

> <Gold.Version>
5.8.1

> <Gold.Id.Protein>
6NUR|6NUR_protein|mol2

> <Gold.PLP.Fitness>
37.5747

> <Gold.PLP.PLP>
-37.6375

> <Gold.PLP.part.hbond>
-1.0000

> <Gold.PLP.part.metal>
0.0000

> <Gold.PLP.part.buried>
-5.3655

> <Gold.PLP.part.nonpolar>
-31.4411

> <Gold.PLP.part.repulsive>
0.0000

> <Gold.PLP.ligand.clash>
0.0000

> <Gold.PLP.ligand.torsion>
0.0376

> <Gold.PLP.Chemscore.Hbond>
0.0000

> <Gold.PLP.Chemscore.CHOScore>
0.0000

> <Gold.PLP.Chemscore.Metal>
0.0000

> <Gold.PLP.Chemscore.Internal.Correction>
0.0123

> <Gold.Rescore>
     Score         DG    S(hbond)    S(metal)    S(lipo)     H(rot)  DE(clash)    DE(int)     intcor
     15.98     -16.21       0.00        0.00     116.65       1.14       0.02       0.21       ----

> <Gold.Chemscore.Fitness>
15.9794

> <Gold.Chemscore.DG>
-16.2114

> <Gold.Chemscore.ZeroCoef>
-5.4800

> <Gold.Chemscore.Hbond>
0.0000

> <Gold.Chemscore.Metal>
0.0000

> <Gold.Chemscore.Lipo>
116.6511

> <Gold.Chemscore.Internal_Hbond>
0.0000

> <Gold.Chemscore.DEClash>
0.0181

> <Gold.Chemscore.DEInternal>
0.2140

> <Gold.Chemscore.Rot>
1.1393

> <Gold.Chemscore.Internal.Correction>
   9.000000E+99

> <Gold.Chemscore.Hbond.Weighted>
-0.0000

> <Gold.Chemscore.Metal.Weighted>
-0.0000

> <Gold.Chemscore.Lipo.Weighted>
-13.6482

> <Gold.Chemscore.Internal_Hbond.Weighted>
0.0000

> <Gold.Chemscore.DEClash.Weighted>
0.0181

> <Gold.Chemscore.DEInternal.Weighted>
0.2140

> <Gold.Chemscore.Rot.Weighted>
2.9167

> <Gold.Chemscore.Internal.Correction.Weighted>
   9.000000E+99

> <Gold.Protein.RotatedTorsions>
[ 6907 6896 6895 6894 ] final  123.16 input  -60.11 | X-H torsion
[ 7974 7965 7964 7962 ] final  -90.74 input  175.53 | X-H torsion
[ 8008 7997 7996 7995 ] final  -35.82 input   59.86 | X-H torsion
[ 10167 10162 10161 10158 ] final  -87.68 input  -65.29 | X-H torsion
[ 10718 10713 10712 10709 ] final  111.31 input   66.30 | X-H torsion
[ 10763 10752 10751 10750 ] final   -9.19 input  -60.55 | X-H torsion
[ 11005 11000 10999 10996 ] final -141.61 input  -57.11 | X-H torsion

> <Gold.Protein.ActiveResidues>
 VAL166  LYS551  ARG553  GLY616  TRP617  ASP618  TYR619  PRO620  LYS621  CYS622 
 ASP623  PHE694  ASN695  SER759  ASP760  ASP761  ALA762  ILE779  LEU786  VAL792 
 PHE793  MET794  SER795  GLU796  ALA797  LYS798  CYS799  TRP800  GLU811  SER814 

> <Gold.Protein.RotatedAtoms>
  152.4184  133.7076  159.6459 H   0  0  0  0  0  0  0  0  0  0  0  0  # atno 6907 bound_to 6896
  150.8060  133.8498  159.3211 H   0  0  0  0  0  0  0  0  0  0  0  0  # atno 6908 bound_to 6896
  151.6221  135.1033  160.0155 H   0  0  0  0  0  0  0  0  0  0  0  0  # atno 6909 bound_to 6896
  145.4224  140.9552  143.2173 H   0  0  0  0  0  0  0  0  0  0  0  0  # atno 7974 bound_to 7965
  154.4087  140.1647  156.2273 H   0  0  0  0  0  0  0  0  0  0  0  0  # atno 8008 bound_to 7997
  155.9312  140.3414  155.6228 H   0  0  0  0  0  0  0  0  0  0  0  0  # atno 8009 bound_to 7997
  155.7103  140.0756  157.2364 H   0  0  0  0  0  0  0  0  0  0  0  0  # atno 8010 bound_to 7997
  140.3821  143.2744  151.9371 H   0  0  0  0  0  0  0  0  0  0  0  0  # atno 10167 bound_to 10162
  157.6451  131.0948  150.6731 H   0  0  0  0  0  0  0  0  0  0  0  0  # atno 10718 bound_to 10713
  153.4512  135.7015  153.6108 H   0  0  0  0  0  0  0  0  0  0  0  0  # atno 10763 bound_to 10752
  153.4441  135.3773  155.2246 H   0  0  0  0  0  0  0  0  0  0  0  0  # atno 10764 bound_to 10752
  154.8728  135.3981  154.3925 H   0  0  0  0  0  0  0  0  0  0  0  0  # atno 10765 bound_to 10752
  140.8307  134.2520  157.4858 H   0  0  0  0  0  0  0  0  0  0  0  0  # atno 11005 bound_to 11000
  144.8236  139.5748  143.6975 LP  0  0  0  0  0  0  0  0  0  0  0  0  # atno 17320 bound_to 7965
  146.2649  139.6497  142.9336 LP  0  0  0  0  0  0  0  0  0  0  0  0  # atno 17321 bound_to 7965
  139.4794  144.5809  151.7935 LP  0  0  0  0  0  0  0  0  0  0  0  0  # atno 17342 bound_to 10162
  140.4927  144.1287  150.5953 LP  0  0  0  0  0  0  0  0  0  0  0  0  # atno 17343 bound_to 10162
  156.7049  130.4634  149.5563 LP  0  0  0  0  0  0  0  0  0  0  0  0  # atno 17370 bound_to 10713
  156.1770  130.6474  151.0906 LP  0  0  0  0  0  0  0  0  0  0  0  0  # atno 17371 bound_to 10713
  139.8705  134.9585  156.4301 LP  0  0  0  0  0  0  0  0  0  0  0  0  # atno 17394 bound_to 11000
  140.9001  133.7786  155.9670 LP  0  0  0  0  0  0  0  0  0  0  0  0  # atno 17395 bound_to 11000

$$$$
