AV-unprocessed.smi:516|AV-procd|sdf|2786|dock4
  -GOLD-   2262023263D 1   1.00000     0.00000
 Structure written by MMmdl.
 43 45  0  0  0  0  0  0  0  0  2 V2000
  147.3640  140.7305  153.5142 C   0  0  0  0  0  0  0  0  0  0  0  0
  147.6272  141.7178  154.4954 O   0  0  0  0  0  0  0  0  0  0  0  0
  148.5193  141.2598  155.4970 C   0  0  0  0  0  0  0  0  0  0  0  0
  149.8383  140.8400  154.8331 C   0  0  0  0  0  0  0  0  0  0  0  0
  150.8369  140.4336  155.8160 N   0  0  0  0  0  0  0  0  0  0  0  0
  151.3067  141.1605  156.8640 C   0  0  0  0  0  0  0  0  0  0  0  0
  150.8461  142.5551  157.1722 C   0  0  0  0  0  0  0  0  0  0  0  0
  151.7099  143.2683  158.1108 N   0  0  0  0  0  0  0  0  0  0  0  0
  151.2452  144.6307  158.3378 C   0  0  0  0  0  0  0  0  0  0  0  0
  152.1684  145.3912  159.3054 C   0  0  0  0  0  0  0  0  0  0  0  0
  152.2667  144.6757  160.5330 O   0  0  0  0  0  0  0  0  0  0  0  0
  152.7555  143.3490  160.3593 C   0  0  0  0  0  0  0  0  0  0  0  0
  151.8368  142.5813  159.3935 C   0  0  0  0  0  0  0  0  0  0  0  0
  152.2249  140.5308  157.6017 N   0  0  0  0  0  0  0  0  0  0  0  0
  152.3504  139.3051  156.9653 C   0  0  0  0  0  0  0  0  0  0  0  0
  151.5275  139.2216  155.8878 C   0  0  0  0  0  0  0  0  0  0  0  0
  151.4427  138.0386  155.0059 C   0  0  0  0  0  0  0  0  0  0  0  0
  150.6807  138.0201  154.0412 O   0  0  0  0  0  0  0  0  0  0  0  0
  152.2904  137.0376  155.4048 N   0  5  0  0  0  0  0  0  0  0  0  0
  153.1416  137.0784  156.4895 C   0  0  0  0  0  0  0  0  0  0  0  0
  153.8721  136.1280  156.7702 O   0  0  0  0  0  0  0  0  0  0  0  0
  153.1839  138.1996  157.2800 N   0  0  0  0  0  0  0  0  0  0  0  0
  154.0598  138.3221  158.4493 C   0  0  0  0  0  0  0  0  0  0  0  0
  146.6725  141.1275  152.7712 H   0  0  0  0  0  0  0  0  0  0  0  0
  146.9087  139.8444  153.9582 H   0  0  0  0  0  0  0  0  0  0  0  0
  148.2784  140.4341  152.9985 H   0  0  0  0  0  0  0  0  0  0  0  0
  148.6955  142.0480  156.2301 H   0  0  0  0  0  0  0  0  0  0  0  0
  148.0762  140.4162  156.0272 H   0  0  0  0  0  0  0  0  0  0  0  0
  149.6583  140.0192  154.1400 H   0  0  0  0  0  0  0  0  0  0  0  0
  150.2413  141.6515  154.2277 H   0  0  0  0  0  0  0  0  0  0  0  0
  150.7860  143.1030  156.2314 H   0  0  0  0  0  0  0  0  0  0  0  0
  149.8280  142.5123  157.5624 H   0  0  0  0  0  0  0  0  0  0  0  0
  151.1959  145.1675  157.3898 H   0  0  0  0  0  0  0  0  0  0  0  0
  150.2316  144.6142  158.7413 H   0  0  0  0  0  0  0  0  0  0  0  0
  153.1611  145.5189  158.8706 H   0  0  0  0  0  0  0  0  0  0  0  0
  151.7741  146.3879  159.5033 H   0  0  0  0  0  0  0  0  0  0  0  0
  153.7772  143.3779  159.9771 H   0  0  0  0  0  0  0  0  0  0  0  0
  152.7890  142.8503  161.3279 H   0  0  0  0  0  0  0  0  0  0  0  0
  150.8524  142.4606  159.8484 H   0  0  0  0  0  0  0  0  0  0  0  0
  152.2381  141.5781  159.2470 H   0  0  0  0  0  0  0  0  0  0  0  0
  154.6524  137.4326  158.6640 H   0  0  0  0  0  0  0  0  0  0  0  0
  153.4646  138.5355  159.3376 H   0  0  0  0  0  0  0  0  0  0  0  0
  154.7548  139.1498  158.3059 H   0  0  0  0  0  0  0  0  0  0  0  0
  1  2  1  0  0  0  0
  1 24  1  0  0  0  0
  1 25  1  0  0  0  0
  1 26  1  0  0  0  0
  2  3  1  0  0  0  0
  3  4  1  0  0  0  0
  3 27  1  0  0  0  0
  3 28  1  0  0  0  0
  4  5  1  0  0  0  0
  4 29  1  0  0  0  0
  4 30  1  0  0  0  0
  5 16  1  0  0  0  0
  5  6  1  0  0  0  0
  6  7  1  0  0  0  0
  6 14  2  0  0  0  0
  7  8  1  0  0  0  0
  7 31  1  0  0  0  0
  7 32  1  0  0  0  0
  8 13  1  0  0  0  0
  8  9  1  0  0  0  0
  9 10  1  0  0  0  0
  9 33  1  0  0  0  0
  9 34  1  0  0  0  0
 10 11  1  0  0  0  0
 10 35  1  0  0  0  0
 10 36  1  0  0  0  0
 11 12  1  0  0  0  0
 12 13  1  0  0  0  0
 12 37  1  0  0  0  0
 12 38  1  0  0  0  0
 13 39  1  0  0  0  0
 13 40  1  0  0  0  0
 14 15  1  0  0  0  0
 15 22  1  0  0  0  0
 15 16  2  0  0  0  0
 16 17  1  0  0  0  0
 17 18  2  0  0  0  0
 17 19  1  0  0  0  0
 19 20  1  0  0  0  0
 20 21  2  0  0  0  0
 20 22  1  0  0  0  0
 22 23  1  0  0  0  0
 23 41  1  0  0  0  0
 23 42  1  0  0  0  0
 23 43  1  0  0  0  0
M  CHG  1  19  -1
M  END
> <s_m_source_file>
AV-unprocessed.smi

> <i_m_source_file_index>
516

> <i_lp_mmshare_version>
43012

> <i_f3d_flags>
0

> <s_epik_input>
W0NIM11uMWMoPU8pW25IXWMoPU8pYyhjMTIpbihbQ0gyXVtDSDJdT1tDSDNdKWMobjIpW0NIMl1OM1tDSDJdW0NIMl1PW0NIMl1bQ0gyXTM=

> <s_epik_cmdline>
J2VwaWtfcHl0aG9uJywgJy1waCcsICc3LjAnLCAnLXRuJywgJzgnLCAnLW1hJywgJzIwMCcsICctbWV0YWxfYmluZGluZycsICctaW1hZScsICc8aW5maWxlLm1hZT4nLCAnLW9tYWUnLCAnPG91dGZpbGUubWFlPic=

> <r_epik_Ionization_Penalty>
4.87269

> <r_epik_Ionization_Penalty_Charging>
0.0382909

> <r_epik_Ionization_Penalty_Neutral>
4.8344

> <r_epik_State_Penalty>
4.82423

> <r_epik_Charging_Adjusted_Penalty>
4.86252

> <i_epik_Tot_Q>
-1

> <i_epik_Tot_abs_Q>
1

> <r_epik_Metal_State_Penalty>
1.05282

> <b_epik_Metal_Only>
1

> <s_lp_Force_Field>
OPLS_2005

> <r_lp_Energy>
45.4303

> <b_lp_Chiralities_Consistent>
1

> <s_lp_Variant>
AV-unprocessed.smi:516-3

> <Gold.Version>
5.8.1

> <Gold.Id.Protein>
6NUR|6NUR_protein|mol2

> <Gold.PLP.Fitness>
44.2320

> <Gold.PLP.PLP>
-38.7251

> <Gold.PLP.part.hbond>
-2.0000

> <Gold.PLP.part.metal>
0.0000

> <Gold.PLP.part.buried>
-3.7340

> <Gold.PLP.part.nonpolar>
-34.0326

> <Gold.PLP.part.repulsive>
0.6393

> <Gold.PLP.ligand.clash>
0.0000

> <Gold.PLP.ligand.torsion>
0.2029

> <Gold.PLP.Chemscore.Hbond>
1.9680

> <Gold.PLP.Chemscore.CHOScore>
0.0000

> <Gold.PLP.Chemscore.Metal>
0.0000

> <Gold.Chemscore.Hbonds>
donor molecule, donor type, donor heavy atom, donor atom, acceptor molecule, acceptor atom, score
      P1  H 10752 10764       L1    19  1.15
      P1  H 10752 10765       L1    21  0.74

> <Gold.PLP.Chemscore.Internal.Correction>
0.0086

> <Gold.Rescore>
     Score         DG    S(hbond)    S(metal)    S(lipo)     H(rot)  DE(clash)    DE(int)     intcor
     11.18     -13.26       0.85        0.00      86.15       2.00       0.55       1.53       ----

> <Gold.Chemscore.Fitness>
11.1808

> <Gold.Chemscore.DG>
-13.2591

> <Gold.Chemscore.ZeroCoef>
-5.4800

> <Gold.Chemscore.Hbond>
0.8482

> <Gold.Chemscore.Metal>
0.0000

> <Gold.Chemscore.Lipo>
86.1451

> <Gold.Chemscore.Internal_Hbond>
0.0000

> <Gold.Chemscore.DEClash>
0.5527

> <Gold.Chemscore.DEInternal>
1.5255

> <Gold.Chemscore.Rot>
2.0050

> <Gold.Chemscore.Internal.Correction>
   9.000000E+99

> <Gold.Chemscore.Hbonds>
donor molecule, donor type, donor heavy atom, donor atom, acceptor molecule, acceptor atom, score
      P1  H 10752 10764       L1    19  0.26
      P1  H 10752 10765       L1    21  0.48

> <Gold.Chemscore.Hbond.Weighted>
-2.8328

> <Gold.Chemscore.Metal.Weighted>
-0.0000

> <Gold.Chemscore.Lipo.Weighted>
-10.0790

> <Gold.Chemscore.Internal_Hbond.Weighted>
0.0000

> <Gold.Chemscore.DEClash.Weighted>
0.5527

> <Gold.Chemscore.DEInternal.Weighted>
1.5255

> <Gold.Chemscore.Rot.Weighted>
5.1327

> <Gold.Chemscore.Internal.Correction.Weighted>
   9.000000E+99

> <Gold.Protein.RotatedTorsions>
[ 6907 6896 6895 6894 ] final   89.33 input  -60.11 | X-H torsion
[ 7974 7965 7964 7962 ] final   -6.28 input  175.53 | X-H torsion
[ 8008 7997 7996 7995 ] final  120.88 input   59.86 | X-H torsion
[ 10167 10162 10161 10158 ] final  131.89 input  -65.29 | X-H torsion
[ 10718 10713 10712 10709 ] final  -97.88 input   66.30 | X-H torsion
[ 10763 10752 10751 10750 ] final  -76.12 input  -60.55 | X-H torsion
[ 11005 11000 10999 10996 ] final  179.97 input  -57.11 | X-H torsion

> <Gold.Protein.ActiveResidues>
 VAL166  LYS551  ARG553  GLY616  TRP617  ASP618  TYR619  PRO620  LYS621  CYS622 
 ASP623  PHE694  ASN695  SER759  ASP760  ASP761  ALA762  ILE779  LEU786  VAL792 
 PHE793  MET794  SER795  GLU796  ALA797  LYS798  CYS799  TRP800  GLU811  SER814 

> <Gold.Protein.RotatedAtoms>
  152.5435  134.1982  159.8701 H   0  0  0  0  0  0  0  0  0  0  0  0  # atno 6907 bound_to 6896
  151.1973  133.4625  159.2603 H   0  0  0  0  0  0  0  0  0  0  0  0  # atno 6908 bound_to 6896
  151.1024  134.9992  159.8510 H   0  0  0  0  0  0  0  0  0  0  0  0  # atno 6909 bound_to 6896
  146.2334  140.2146  142.8336 H   0  0  0  0  0  0  0  0  0  0  0  0  # atno 7974 bound_to 7965
  156.2662  140.2821  156.1220 H   0  0  0  0  0  0  0  0  0  0  0  0  # atno 8008 bound_to 7997
  155.1145  140.0391  157.2751 H   0  0  0  0  0  0  0  0  0  0  0  0  # atno 8009 bound_to 7997
  154.6717  140.2589  155.7006 H   0  0  0  0  0  0  0  0  0  0  0  0  # atno 8010 bound_to 7997
  139.5363  144.6686  151.4773 H   0  0  0  0  0  0  0  0  0  0  0  0  # atno 10167 bound_to 10162
  156.0094  130.5213  150.6440 H   0  0  0  0  0  0  0  0  0  0  0  0  # atno 10718 bound_to 10713
  154.4956  135.5808  153.6492 H   0  0  0  0  0  0  0  0  0  0  0  0  # atno 10763 bound_to 10752
  152.9869  135.6123  154.3069 H   0  0  0  0  0  0  0  0  0  0  0  0  # atno 10764 bound_to 10752
  154.2972  135.2847  155.2607 H   0  0  0  0  0  0  0  0  0  0  0  0  # atno 10765 bound_to 10752
  140.4121  134.6683  157.4619 H   0  0  0  0  0  0  0  0  0  0  0  0  # atno 11005 bound_to 11000
  144.9679  140.8340  143.5473 LP  0  0  0  0  0  0  0  0  0  0  0  0  # atno 17320 bound_to 7965
  145.2124  139.2198  143.5136 LP  0  0  0  0  0  0  0  0  0  0  0  0  # atno 17321 bound_to 7965
  140.6572  143.8575  150.6848 LP  0  0  0  0  0  0  0  0  0  0  0  0  # atno 17342 bound_to 10162
  140.1958  143.3999  152.1829 LP  0  0  0  0  0  0  0  0  0  0  0  0  # atno 17343 bound_to 10162
  157.4214  131.0837  151.1127 LP  0  0  0  0  0  0  0  0  0  0  0  0  # atno 17370 bound_to 10713
  157.1728  130.6275  149.5646 LP  0  0  0  0  0  0  0  0  0  0  0  0  # atno 17371 bound_to 10713
  140.0260  134.6476  155.9172 LP  0  0  0  0  0  0  0  0  0  0  0  0  # atno 17394 bound_to 11000
  141.1817  133.6548  156.5048 LP  0  0  0  0  0  0  0  0  0  0  0  0  # atno 17395 bound_to 11000

$$$$
