AV-unprocessed.smi:37|AV-procd|sdf|303|dock6
  -GOLD-   2262016113D 1   1.00000     0.00000
 Structure written by MMmdl.
 44 45  0  0  0  0  0  0  0  0  1 V2000
  151.4450  139.9738  154.9648 C   0  0  0  0  0  0  0  0  0  0  0  0
  150.7368  138.6854  154.5208 C   0  0  0  0  0  0  0  0  0  0  0  0
  150.6484  137.6247  155.6203 C   0  0  0  0  0  0  0  0  0  0  0  0
  151.1621  136.5104  155.5072 O   0  0  0  0  0  0  0  0  0  0  0  0
  149.9584  138.0621  156.6842 O   0  0  0  0  0  0  0  0  0  0  0  0
  150.0583  137.3697  157.9174 C   0  0  0  0  0  0  0  0  0  0  0  0
  149.1897  136.1089  157.8634 C   0  0  2  0  0  0  0  0  0  0  0  0
  148.7046  135.8986  156.5371 O   0  0  0  0  0  0  0  0  0  0  0  0
  147.3455  135.5775  156.5609 C   0  0  1  0  0  0  0  0  0  0  0  0
  147.0690  134.4263  155.6222 N   0  0  0  0  0  0  0  0  0  0  0  0
  148.0437  133.9097  154.7766 C   0  0  0  0  0  0  0  0  0  0  0  0
  147.8103  132.8779  153.9314 C   0  0  0  0  0  0  0  0  0  0  0  0
  148.8025  132.4272  153.1451 F   0  0  0  0  0  0  0  0  0  0  0  0
  146.4945  132.2476  153.8695 C   0  0  0  0  0  0  0  0  0  0  0  0
  146.1862  131.3118  153.1341 O   0  0  0  0  0  0  0  0  0  0  0  0
  145.5501  132.7955  154.7429 N   0  0  0  0  0  0  0  0  0  0  0  0
  145.7782  133.8563  155.6209 C   0  0  0  0  0  0  0  0  0  0  0  0
  144.8757  134.2573  156.3547 O   0  0  0  0  0  0  0  0  0  0  0  0
  146.9856  135.2610  158.0171 C   0  0  1  0  0  0  0  0  0  0  0  0
  147.4018  133.3644  158.5065 Br  0  0  0  0  0  0  0  0  0  0  0  0
  147.9336  136.2085  158.7320 C   0  0  1  0  0  0  0  0  0  0  0  0
  148.1897  135.8279  160.0775 O   0  0  0  0  0  0  0  0  0  0  0  0
  147.4102  136.2896  161.0717 C   0  0  0  0  0  0  0  0  0  0  0  0
  146.5072  137.1181  160.9554 O   0  0  0  0  0  0  0  0  0  0  0  0
  147.7536  135.6699  162.4240 C   0  0  0  0  0  0  0  0  0  0  0  0
  147.6079  134.1422  162.4124 C   0  0  0  0  0  0  0  0  0  0  0  0
  144.6267  132.3872  154.7393 H   0  0  0  0  0  0  0  0  0  0  0  0
  151.4870  140.6900  154.1444 H   0  0  0  0  0  0  0  0  0  0  0  0
  152.4695  139.7760  155.2818 H   0  0  0  0  0  0  0  0  0  0  0  0
  150.9198  140.4515  155.7927 H   0  0  0  0  0  0  0  0  0  0  0  0
  149.7264  138.9195  154.1846 H   0  0  0  0  0  0  0  0  0  0  0  0
  151.2610  138.2551  153.6671 H   0  0  0  0  0  0  0  0  0  0  0  0
  151.1001  137.0905  158.0808 H   0  0  0  0  0  0  0  0  0  0  0  0
  149.7550  138.0105  158.7465 H   0  0  0  0  0  0  0  0  0  0  0  0
  149.7686  135.2313  158.1565 H   0  0  0  0  0  0  0  0  0  0  0  0
  146.7998  136.4357  156.1629 H   0  0  0  0  0  0  0  0  0  0  0  0
  149.0402  134.3265  154.7857 H   0  0  0  0  0  0  0  0  0  0  0  0
  145.9316  135.4517  158.2208 H   0  0  0  0  0  0  0  0  0  0  0  0
  147.5455  137.2273  158.6759 H   0  0  0  0  0  0  0  0  0  0  0  0
  148.7741  135.9465  162.6900 H   0  0  0  0  0  0  0  0  0  0  0  0
  147.1011  136.0985  163.1851 H   0  0  0  0  0  0  0  0  0  0  0  0
  147.8260  133.7287  163.3970 H   0  0  0  0  0  0  0  0  0  0  0  0
  148.2938  133.6797  161.7017 H   0  0  0  0  0  0  0  0  0  0  0  0
  146.5939  133.8427  162.1450 H   0  0  0  0  0  0  0  0  0  0  0  0
  1  2  1  0  0  0  0
  1 28  1  0  0  0  0
  1 29  1  0  0  0  0
  1 30  1  0  0  0  0
  2  3  1  0  0  0  0
  2 31  1  0  0  0  0
  2 32  1  0  0  0  0
  3  4  2  0  0  0  0
  3  5  1  0  0  0  0
  5  6  1  0  0  0  0
  6  7  1  0  0  0  0
  6 33  1  0  0  0  0
  6 34  1  0  0  0  0
  7 21  1  0  0  0  0
  7  8  1  0  0  0  0
  7 35  1  0  0  0  0
  8  9  1  0  0  0  0
  9 10  1  0  0  0  0
  9 19  1  0  0  0  0
  9 36  1  0  0  0  0
 10 17  1  0  0  0  0
 10 11  1  0  0  0  0
 11 12  2  0  0  0  0
 11 37  1  0  0  0  0
 12 13  1  0  0  0  0
 12 14  1  0  0  0  0
 14 15  2  0  0  0  0
 14 16  1  0  0  0  0
 16 27  1  0  0  0  0
 16 17  1  0  0  0  0
 17 18  2  0  0  0  0
 19 20  1  0  0  0  0
 19 21  1  0  0  0  0
 19 38  1  0  0  0  0
 21 22  1  0  0  0  0
 21 39  1  0  0  0  0
 22 23  1  0  0  0  0
 23 24  2  0  0  0  0
 23 25  1  0  0  0  0
 25 26  1  0  0  0  0
 25 40  1  0  0  0  0
 25 41  1  0  0  0  0
 26 42  1  0  0  0  0
 26 43  1  0  0  0  0
 26 44  1  0  0  0  0
M  END
> <s_m_source_file>
AV-unprocessed.smi

> <i_m_source_file_index>
37

> <i_lp_mmshare_version>
43012

> <i_f3d_flags>
0

> <s_epik_input>
W0NIM11bQ0gyXUMoPU8pT1tDSDJdW0NAQEhdMU9bQ0BASF0objJbY0hdYyhGKWMoPU8pW25IXWMyPU8pW0NAQEhdKEJyKVtDQEhdMU9DKD1PKVtDSDJdW0NIM10=

> <s_epik_cmdline>
J2VwaWtfcHl0aG9uJywgJy1waCcsICc3LjAnLCAnLXRuJywgJzgnLCAnLW1hJywgJzIwMCcsICctbWV0YWxfYmluZGluZycsICctaW1hZScsICc8aW5maWxlLm1hZT4nLCAnLW9tYWUnLCAnPG91dGZpbGUubWFlPic=

> <r_lp_tautomer_probability>
0.999537

> <r_epik_Ionization_Penalty>
0.104106

> <r_epik_Ionization_Penalty_Charging>
0.104106

> <r_epik_Ionization_Penalty_Neutral>
3.94675e-16

> <r_epik_State_Penalty>
0.0940182

> <r_epik_Charging_Adjusted_Penalty>
0.198124

> <i_epik_Tot_Q>
0

> <i_epik_Tot_abs_Q>
0

> <r_epik_Metal_State_Penalty>
3.05314

> <b_epik_Metal_Only>
0

> <s_epik_Chemistry_Notes>
This compound has an ester and may undergo hydrolysis at high or low pH. This compound contains an acetal/aminal-like group ( X-CH(R)-Y where X, Y are N, S, or O) that may be acid/base labile, releasing an aldehyde.

> <s_lp_Force_Field>
OPLS_2005

> <r_lp_Energy>
25.209

> <b_lp_Chiralities_Consistent>
1

> <s_lp_Variant>
AV-unprocessed.smi:37-1

> <Gold.Version>
5.8.1

> <Gold.Id.Protein>
6NUR|6NUR_protein|mol2

> <Gold.PLP.Fitness>
37.7271

> <Gold.PLP.PLP>
-31.4517

> <Gold.PLP.part.hbond>
-2.9496

> <Gold.PLP.part.metal>
0.0000

> <Gold.PLP.part.buried>
-4.2163

> <Gold.PLP.part.nonpolar>
-25.0011

> <Gold.PLP.part.repulsive>
0.3143

> <Gold.PLP.ligand.clash>
0.0000

> <Gold.PLP.ligand.torsion>
1.4279

> <Gold.PLP.Chemscore.Hbond>
2.9913

> <Gold.PLP.Chemscore.CHOScore>
0.0000

> <Gold.PLP.Chemscore.Metal>
0.0000

> <Gold.Chemscore.Hbonds>
donor molecule, donor type, donor heavy atom, donor atom, acceptor molecule, acceptor atom, score
      L1  H    16    27       P1 10957  0.99
      P1  H  6934  6947       L1    24  1.00
      P1  H 10752 10763       L1     4  0.60

> <Gold.PLP.Chemscore.Internal.Correction>
0.1575

> <Gold.Rescore>
     Score         DG    S(hbond)    S(metal)    S(lipo)     H(rot)  DE(clash)    DE(int)     intcor
      9.83     -13.14       2.97        0.00      53.44       3.33       0.01       3.30       ----

> <Gold.Chemscore.Fitness>
9.8265

> <Gold.Chemscore.DG>
-13.1354

> <Gold.Chemscore.ZeroCoef>
-5.4800

> <Gold.Chemscore.Hbond>
2.9727

> <Gold.Chemscore.Metal>
0.0000

> <Gold.Chemscore.Lipo>
53.4378

> <Gold.Chemscore.Internal_Hbond>
0.0000

> <Gold.Chemscore.DEClash>
0.0137

> <Gold.Chemscore.DEInternal>
3.2952

> <Gold.Chemscore.Rot>
3.3303

> <Gold.Chemscore.Internal.Correction>
   9.000000E+99

> <Gold.Chemscore.Hbonds>
donor molecule, donor type, donor heavy atom, donor atom, acceptor molecule, acceptor atom, score
      L1  H    16    27       P1 10957  0.72
      P1  H  6934  6947       L1    24  0.83
      P1  H 10752 10763       L1     4  0.60

> <Gold.Chemscore.Hbond.Weighted>
-9.9288

> <Gold.Chemscore.Metal.Weighted>
-0.0000

> <Gold.Chemscore.Lipo.Weighted>
-6.2522

> <Gold.Chemscore.Internal_Hbond.Weighted>
0.0000

> <Gold.Chemscore.DEClash.Weighted>
0.0137

> <Gold.Chemscore.DEInternal.Weighted>
3.2952

> <Gold.Chemscore.Rot.Weighted>
8.5256

> <Gold.Chemscore.Internal.Correction.Weighted>
   9.000000E+99

> <Gold.Protein.RotatedTorsions>
[ 6907 6896 6895 6894 ] final  -77.01 input  -60.11 | X-H torsion
[ 7974 7965 7964 7962 ] final   22.73 input  175.53 | X-H torsion
[ 8008 7997 7996 7995 ] final -163.83 input   59.86 | X-H torsion
[ 10167 10162 10161 10158 ] final  -44.18 input  -65.29 | X-H torsion
[ 10718 10713 10712 10709 ] final  159.10 input   66.30 | X-H torsion
[ 10763 10752 10751 10750 ] final   61.11 input  -60.55 | X-H torsion
[ 11005 11000 10999 10996 ] final  116.64 input  -57.11 | X-H torsion

> <Gold.Protein.ActiveResidues>
 VAL166  LYS551  ARG553  GLY616  TRP617  ASP618  TYR619  PRO620  LYS621  CYS622 
 ASP623  PHE694  ASN695  SER759  ASP760  ASP761  ALA762  ILE779  LEU786  VAL792 
 PHE793  MET794  SER795  GLU796  ALA797  LYS798  CYS799  TRP800  GLU811  SER814 

> <Gold.Protein.RotatedAtoms>
  150.7011  134.4486  159.5325 H   0  0  0  0  0  0  0  0  0  0  0  0  # atno 6907 bound_to 6896
  152.2183  134.8434  160.0498 H   0  0  0  0  0  0  0  0  0  0  0  0  # atno 6908 bound_to 6896
  151.9294  133.3572  159.3962 H   0  0  0  0  0  0  0  0  0  0  0  0  # atno 6909 bound_to 6896
  146.2016  139.7844  142.8757 H   0  0  0  0  0  0  0  0  0  0  0  0  # atno 7974 bound_to 7965
  155.8268  140.0928  157.1816 H   0  0  0  0  0  0  0  0  0  0  0  0  # atno 8008 bound_to 7997
  154.3979  140.1426  156.3627 H   0  0  0  0  0  0  0  0  0  0  0  0  # atno 8009 bound_to 7997
  155.8208  140.3446  155.5515 H   0  0  0  0  0  0  0  0  0  0  0  0  # atno 8010 bound_to 7997
  140.6906  143.2944  151.3458 H   0  0  0  0  0  0  0  0  0  0  0  0  # atno 10167 bound_to 10162
  157.1688  131.0605  151.2194 H   0  0  0  0  0  0  0  0  0  0  0  0  # atno 10718 bound_to 10713
  152.9941  135.5512  154.5982 H   0  0  0  0  0  0  0  0  0  0  0  0  # atno 10763 bound_to 10752
  154.5329  135.2814  155.1166 H   0  0  0  0  0  0  0  0  0  0  0  0  # atno 10764 bound_to 10752
  154.2474  135.6405  153.5281 H   0  0  0  0  0  0  0  0  0  0  0  0  # atno 10765 bound_to 10752
  139.9048  134.9600  156.7229 H   0  0  0  0  0  0  0  0  0  0  0  0  # atno 11005 bound_to 11000
  145.3465  141.0298  143.3363 LP  0  0  0  0  0  0  0  0  0  0  0  0  # atno 17320 bound_to 7965
  144.8696  139.5058  143.6774 LP  0  0  0  0  0  0  0  0  0  0  0  0  # atno 17321 bound_to 7965
  139.6306  144.0728  152.2473 LP  0  0  0  0  0  0  0  0  0  0  0  0  # atno 17342 bound_to 10162
  140.0201  144.6159  150.7574 LP  0  0  0  0  0  0  0  0  0  0  0  0  # atno 17343 bound_to 10162
  157.4063  130.7360  149.6805 LP  0  0  0  0  0  0  0  0  0  0  0  0  # atno 17370 bound_to 10713
  155.9742  130.4107  150.3945 LP  0  0  0  0  0  0  0  0  0  0  0  0  # atno 17371 bound_to 10713
  140.6986  133.9326  155.8010 LP  0  0  0  0  0  0  0  0  0  0  0  0  # atno 17394 bound_to 11000
  141.0388  134.0651  157.3927 LP  0  0  0  0  0  0  0  0  0  0  0  0  # atno 17395 bound_to 11000

$$$$
