AV-unprocessed.smi:219|AV-procd|sdf|1678|dock8
  -GOLD-   2262020113D 1   1.00000     0.00000
 Structure written by MMmdl.
 50 53  0  0  0  0  0  0  0  0  1 V2000
  146.8567  131.2382  160.4515 N   0  0  0  0  0  0  0  0  0  0  0  0
  147.6872  131.7152  159.5205 C   0  0  0  0  0  0  0  0  0  0  0  0
  148.5661  131.0231  159.0115 O   0  0  0  0  0  0  0  0  0  0  0  0
  147.4998  133.1807  159.1026 C   0  0  0  0  0  0  0  0  0  0  0  0
  147.9089  134.2393  160.1705 C   0  0  2  0  0  0  0  0  0  0  0  0
  146.9893  134.0876  161.4043 C   0  0  0  0  0  0  0  0  0  0  0  0
  147.3205  135.1078  162.5021 C   0  0  0  0  0  0  0  0  0  0  0  0
  147.2690  136.5277  161.9287 C   0  0  0  0  0  0  0  0  0  0  0  0
  148.2010  136.6431  160.7155 C   0  0  0  0  0  0  0  0  0  0  0  0
  147.8781  135.6389  159.6996 N   0  0  0  0  0  0  0  0  0  0  0  0
  148.5050  135.8922  158.5285 C   0  0  0  0  0  0  0  0  0  0  0  0
  149.4185  135.0118  158.0401 N   0  0  0  0  0  0  0  0  0  0  0  0
  149.9981  135.2413  156.8580 C   0  0  0  0  0  0  0  0  0  0  0  0
  149.8072  136.2614  156.0181 N   0  0  0  0  0  0  0  0  0  0  0  0
  148.8941  137.1467  156.5116 C   0  0  0  0  0  0  0  0  0  0  0  0
  148.2110  137.0449  157.7546 C   0  0  0  0  0  0  0  0  0  0  0  0
  147.3603  138.1293  157.9250 N   0  0  0  0  0  0  0  0  0  0  0  0
  147.5257  138.8317  156.8377 C   0  0  0  0  0  0  0  0  0  0  0  0
  148.4138  138.3049  155.9262 N   0  0  0  0  0  0  0  0  0  0  0  0
  148.7624  138.8581  154.6274 C   0  0  0  0  0  0  0  0  0  0  0  0
  149.8268  139.9778  154.7078 C   0  0  1  0  0  0  0  0  0  0  0  0
  149.9085  140.6337  153.4540 O   0  0  0  0  0  0  0  0  0  0  0  0
  149.5480  141.0268  155.7819 C   0  0  0  0  0  0  0  0  0  0  0  0
  150.9435  141.4303  156.2366 C   0  0  0  0  0  0  0  0  0  0  0  0
  151.6356  140.1939  156.2309 O   0  0  0  0  0  0  0  0  0  0  0  0
  151.2299  139.4584  155.0811 C   0  0  0  0  0  0  0  0  0  0  0  0
  146.9371  130.2759  160.7470 H   0  0  0  0  0  0  0  0  0  0  0  0
  146.1453  131.8352  160.8476 H   0  0  0  0  0  0  0  0  0  0  0  0
  148.0107  133.3806  158.1596 H   0  0  0  0  0  0  0  0  0  0  0  0
  146.4357  133.2812  158.8863 H   0  0  0  0  0  0  0  0  0  0  0  0
  148.9288  134.0326  160.4994 H   0  0  0  0  0  0  0  0  0  0  0  0
  145.9483  134.2114  161.1013 H   0  0  0  0  0  0  0  0  0  0  0  0
  147.0730  133.0803  161.8138 H   0  0  0  0  0  0  0  0  0  0  0  0
  146.6196  135.0104  163.3316 H   0  0  0  0  0  0  0  0  0  0  0  0
  148.3140  134.9072  162.9051 H   0  0  0  0  0  0  0  0  0  0  0  0
  146.2476  136.7713  161.6331 H   0  0  0  0  0  0  0  0  0  0  0  0
  147.5552  137.2522  162.6915 H   0  0  0  0  0  0  0  0  0  0  0  0
  148.1212  137.6437  160.2875 H   0  0  0  0  0  0  0  0  0  0  0  0
  149.2351  136.5159  161.0388 H   0  0  0  0  0  0  0  0  0  0  0  0
  150.7104  134.4966  156.5350 H   0  0  0  0  0  0  0  0  0  0  0  0
  146.9899  139.7536  156.6646 H   0  0  0  0  0  0  0  0  0  0  0  0
  149.1218  138.0429  153.9979 H   0  0  0  0  0  0  0  0  0  0  0  0
  147.8532  139.2323  154.1545 H   0  0  0  0  0  0  0  0  0  0  0  0
  149.8166  139.9875  152.7705 H   0  0  0  0  0  0  0  0  0  0  0  0
  148.9474  141.8684  155.4336 H   0  0  0  0  0  0  0  0  0  0  0  0
  149.0262  140.5736  156.6256 H   0  0  0  0  0  0  0  0  0  0  0  0
  151.4068  142.1177  155.5272 H   0  0  0  0  0  0  0  0  0  0  0  0
  150.9500  141.8925  157.2240 H   0  0  0  0  0  0  0  0  0  0  0  0
  151.2315  138.3939  155.3184 H   0  0  0  0  0  0  0  0  0  0  0  0
  151.9522  139.6141  154.2778 H   0  0  0  0  0  0  0  0  0  0  0  0
  1  2  1  0  0  0  0
  1 27  1  0  0  0  0
  1 28  1  0  0  0  0
  2  3  2  0  0  0  0
  2  4  1  0  0  0  0
  4  5  1  0  0  0  0
  4 29  1  0  0  0  0
  4 30  1  0  0  0  0
  5 10  1  0  0  0  0
  5  6  1  0  0  0  0
  5 31  1  0  0  0  0
  6  7  1  0  0  0  0
  6 32  1  0  0  0  0
  6 33  1  0  0  0  0
  7  8  1  0  0  0  0
  7 34  1  0  0  0  0
  7 35  1  0  0  0  0
  8  9  1  0  0  0  0
  8 36  1  0  0  0  0
  8 37  1  0  0  0  0
  9 10  1  0  0  0  0
  9 38  1  0  0  0  0
  9 39  1  0  0  0  0
 10 11  1  0  0  0  0
 11 16  1  0  0  0  0
 11 12  2  0  0  0  0
 12 13  1  0  0  0  0
 13 14  2  0  0  0  0
 13 40  1  0  0  0  0
 14 15  1  0  0  0  0
 15 19  1  0  0  0  0
 15 16  2  0  0  0  0
 16 17  1  0  0  0  0
 17 18  2  0  0  0  0
 18 19  1  0  0  0  0
 18 41  1  0  0  0  0
 19 20  1  0  0  0  0
 20 21  1  0  0  0  0
 20 42  1  0  0  0  0
 20 43  1  0  0  0  0
 21 26  1  0  0  0  0
 21 22  1  0  0  0  0
 21 23  1  0  0  0  0
 22 44  1  0  0  0  0
 23 24  1  0  0  0  0
 23 45  1  0  0  0  0
 23 46  1  0  0  0  0
 24 25  1  0  0  0  0
 24 47  1  0  0  0  0
 24 48  1  0  0  0  0
 25 26  1  0  0  0  0
 26 49  1  0  0  0  0
 26 50  1  0  0  0  0
M  END
> <s_m_source_file>
AV-unprocessed.smi

> <i_m_source_file_index>
219

> <i_lp_mmshare_version>
43012

> <i_f3d_flags>
0

> <s_epik_input>
W05IMl1DKD1PKVtDSDJdW0NAQEhdMVtDSDJdW0NIMl1bQ0gyXVtDSDJdTjFjKG5bY0hdbjIpYyhjMjMpbltjSF1uM1tDSDJdW0NAQF00KFtPSF0pW0NIMl1bQ0gyXU9bQ0gyXTQ=

> <s_epik_cmdline>
J2VwaWtfcHl0aG9uJywgJy1waCcsICc3LjAnLCAnLXRuJywgJzgnLCAnLW1hJywgJzIwMCcsICctbWV0YWxfYmluZGluZycsICctaW1hZScsICc8aW5maWxlLm1hZT4nLCAnLW9tYWUnLCAnPG91dGZpbGUubWFlPic=

> <r_lp_tautomer_probability>
1

> <r_epik_Ionization_Penalty>
0.00228532

> <r_epik_Ionization_Penalty_Charging>
0

> <r_epik_Ionization_Penalty_Neutral>
0.00228532

> <r_epik_State_Penalty>
0.00140978

> <r_epik_Charging_Adjusted_Penalty>
0.00140978

> <i_epik_Tot_Q>
0

> <i_epik_Tot_abs_Q>
0

> <r_epik_Metal_State_Penalty>
-0

> <b_epik_Metal_Only>
0

> <s_lp_Force_Field>
OPLS_2005

> <r_lp_Energy>
33.2766

> <b_lp_Chiralities_Consistent>
1

> <s_lp_Variant>
AV-unprocessed.smi:219-1

> <Gold.Version>
5.8.1

> <Gold.Id.Protein>
6NUR|6NUR_protein|mol2

> <Gold.PLP.Fitness>
40.3727

> <Gold.PLP.PLP>
-32.7532

> <Gold.PLP.part.hbond>
-3.3893

> <Gold.PLP.part.metal>
0.0000

> <Gold.PLP.part.buried>
-1.7216

> <Gold.PLP.part.nonpolar>
-26.3177

> <Gold.PLP.part.repulsive>
0.0439

> <Gold.PLP.ligand.clash>
0.0000

> <Gold.PLP.ligand.torsion>
0.8187

> <Gold.PLP.Chemscore.Hbond>
3.0022

> <Gold.PLP.Chemscore.CHOScore>
0.0000

> <Gold.PLP.Chemscore.Metal>
0.0000

> <Gold.Chemscore.Hbonds>
donor molecule, donor type, donor heavy atom, donor atom, acceptor molecule, acceptor atom, score
      L1  H    22    44       P1  7957  0.70
      P1  H  6896  6909       L1    12  1.00
      P1  H  7989  7998       L1    22  0.36
      P1  H  8011  8017       L1    22  0.83

> <Gold.PLP.Chemscore.Internal.Correction>
0.2502

> <Gold.Rescore>
     Score         DG    S(hbond)    S(metal)    S(lipo)     H(rot)  DE(clash)    DE(int)     intcor
      8.93     -11.76       1.92        0.00      72.54       3.37       0.44       2.39       ----

> <Gold.Chemscore.Fitness>
8.9281

> <Gold.Chemscore.DG>
-11.7597

> <Gold.Chemscore.ZeroCoef>
-5.4800

> <Gold.Chemscore.Hbond>
1.9220

> <Gold.Chemscore.Metal>
0.0000

> <Gold.Chemscore.Lipo>
72.5364

> <Gold.Chemscore.Internal_Hbond>
0.0000

> <Gold.Chemscore.DEClash>
0.4407

> <Gold.Chemscore.DEInternal>
2.3909

> <Gold.Chemscore.Rot>
3.3697

> <Gold.Chemscore.Internal.Correction>
   9.000000E+99

> <Gold.Chemscore.Hbonds>
donor molecule, donor type, donor heavy atom, donor atom, acceptor molecule, acceptor atom, score
      L1  H    22    44       P1  7957  0.69
      P1  H  6896  6909       L1    12  0.73
      P1  H  7989  7998       L1    22  0.02
      P1  H  8011  8017       L1    22  0.20

> <Gold.Chemscore.Hbond.Weighted>
-6.4193

> <Gold.Chemscore.Metal.Weighted>
-0.0000

> <Gold.Chemscore.Lipo.Weighted>
-8.4868

> <Gold.Chemscore.Internal_Hbond.Weighted>
0.0000

> <Gold.Chemscore.DEClash.Weighted>
0.4407

> <Gold.Chemscore.DEInternal.Weighted>
2.3909

> <Gold.Chemscore.Rot.Weighted>
8.6264

> <Gold.Chemscore.Internal.Correction.Weighted>
   9.000000E+99

> <Gold.Protein.RotatedTorsions>
[ 6907 6896 6895 6894 ] final   35.58 input  -60.11 | X-H torsion
[ 7974 7965 7964 7962 ] final -117.64 input  175.53 | X-H torsion
[ 8008 7997 7996 7995 ] final  139.43 input   59.86 | X-H torsion
[ 10167 10162 10161 10158 ] final -129.20 input  -65.29 | X-H torsion
[ 10718 10713 10712 10709 ] final  152.14 input   66.30 | X-H torsion
[ 10763 10752 10751 10750 ] final  176.87 input  -60.55 | X-H torsion
[ 11005 11000 10999 10996 ] final  100.19 input  -57.11 | X-H torsion

> <Gold.Protein.ActiveResidues>
 VAL166  LYS551  ARG553  GLY616  TRP617  ASP618  TYR619  PRO620  LYS621  CYS622 
 ASP623  PHE694  ASN695  SER759  ASP760  ASP761  ALA762  ILE779  LEU786  VAL792 
 PHE793  MET794  SER795  GLU796  ALA797  LYS798  CYS799  TRP800  GLU811  SER814 

> <Gold.Protein.RotatedAtoms>
  152.1181  134.9226  160.0563 H   0  0  0  0  0  0  0  0  0  0  0  0  # atno 6907 bound_to 6896
  152.0377  133.3959  159.4332 H   0  0  0  0  0  0  0  0  0  0  0  0  # atno 6908 bound_to 6896
  150.6847  134.3371  159.4895 H   0  0  0  0  0  0  0  0  0  0  0  0  # atno 6909 bound_to 6896
  145.0830  140.8438  143.4028 H   0  0  0  0  0  0  0  0  0  0  0  0  # atno 7974 bound_to 7965
  156.2989  140.2367  156.4237 H   0  0  0  0  0  0  0  0  0  0  0  0  # atno 8008 bound_to 7997
  154.8333  140.0432  157.1512 H   0  0  0  0  0  0  0  0  0  0  0  0  # atno 8009 bound_to 7997
  154.9184  140.3000  155.5233 H   0  0  0  0  0  0  0  0  0  0  0  0  # atno 8010 bound_to 7997
  139.9423  143.6149  152.2500 H   0  0  0  0  0  0  0  0  0  0  0  0  # atno 10167 bound_to 10162
  157.2616  131.0799  151.1661 H   0  0  0  0  0  0  0  0  0  0  0  0  # atno 10718 bound_to 10713
  154.4869  135.2777  155.1527 H   0  0  0  0  0  0  0  0  0  0  0  0  # atno 10763 bound_to 10752
  154.3214  135.6209  153.5513 H   0  0  0  0  0  0  0  0  0  0  0  0  # atno 10764 bound_to 10752
  152.9882  135.5743  154.5282 H   0  0  0  0  0  0  0  0  0  0  0  0  # atno 10765 bound_to 10752
  139.8771  134.9129  156.4718 H   0  0  0  0  0  0  0  0  0  0  0  0  # atno 11005 bound_to 11000
  145.1156  139.2727  143.5615 LP  0  0  0  0  0  0  0  0  0  0  0  0  # atno 17320 bound_to 7965
  146.3531  140.0765  142.8620 LP  0  0  0  0  0  0  0  0  0  0  0  0  # atno 17321 bound_to 7965
  139.6694  144.7661  151.1811 LP  0  0  0  0  0  0  0  0  0  0  0  0  # atno 17342 bound_to 10162
  140.7607  143.5888  150.8818 LP  0  0  0  0  0  0  0  0  0  0  0  0  # atno 17343 bound_to 10162
  157.3169  130.6917  149.6247 LP  0  0  0  0  0  0  0  0  0  0  0  0  # atno 17370 bound_to 10713
  155.9664  130.4347  150.5060 LP  0  0  0  0  0  0  0  0  0  0  0  0  # atno 17371 bound_to 10713
  140.8790  133.7932  155.9446 LP  0  0  0  0  0  0  0  0  0  0  0  0  # atno 17394 bound_to 11000
  140.8874  134.2537  157.5112 LP  0  0  0  0  0  0  0  0  0  0  0  0  # atno 17395 bound_to 11000

$$$$
