AV-unprocessed.smi:1128|AV-procd|sdf|4844|dock9
  -GOLD-   22720 3413D 1   1.00000     0.00000
 Structure written by MMmdl.
 37 38  0  0  0  0  0  0  0  0  2 V2000
  154.5721  139.1909  160.9849 O   0  0  0  0  0  0  0  0  0  0  0  0
  153.8816  139.3686  159.9820 C   0  0  0  0  0  0  0  0  0  0  0  0
  153.1698  140.4850  159.7694 N   0  0  0  0  0  0  0  0  0  0  0  0
  153.0921  141.6326  160.6694 C   0  0  0  0  0  0  0  0  0  0  0  0
  152.1418  142.7265  160.1406 C   0  0  2  0  0  0  0  0  0  0  0  0
  152.5610  143.2612  158.7503 C   0  0  0  0  0  0  0  0  0  0  0  0
  151.8109  144.5202  158.3539 C   0  0  0  0  0  0  0  0  0  0  0  0
  151.1031  145.2643  159.2197 C   0  0  0  0  0  0  0  0  0  0  0  0
  150.9806  144.9341  160.6954 C   0  0  0  0  0  0  0  0  0  0  0  0
  152.0168  143.8876  161.1463 C   0  0  0  0  0  0  0  0  0  0  0  0
  153.7218  138.5044  158.9628 N   0  0  0  0  0  0  0  0  0  0  0  0
  154.2662  137.2225  158.7660 C   0  0  0  0  0  0  0  0  0  0  0  0
  154.9998  136.5293  159.6813 C   0  0  0  0  0  0  0  0  0  0  0  0
  155.5331  135.1999  159.4096 C   0  0  0  0  0  0  0  0  0  0  0  0
  156.4192  134.4336  160.3757 C   0  0  0  0  0  0  0  0  0  0  0  0
  157.6429  134.2645  159.8743 F   0  0  0  0  0  0  0  0  0  0  0  0
  156.5268  135.0768  161.5385 F   0  0  0  0  0  0  0  0  0  0  0  0
  155.8979  133.2306  160.6125 F   0  0  0  0  0  0  0  0  0  0  0  0
  155.2299  134.7633  158.1349 C   0  0  0  0  0  0  0  0  0  0  0  0
  154.5036  135.3776  157.1760 N   0  5  0  0  0  0  0  0  0  0  0  0
  154.0018  136.6161  157.4439 C   0  0  0  0  0  0  0  0  0  0  0  0
  153.3372  137.2338  156.6110 O   0  0  0  0  0  0  0  0  0  0  0  0
  152.6320  140.5431  158.9169 H   0  0  0  0  0  0  0  0  0  0  0  0
  152.7279  141.2646  161.6290 H   0  0  0  0  0  0  0  0  0  0  0  0
  154.0817  142.0500  160.8635 H   0  0  0  0  0  0  0  0  0  0  0  0
  151.1502  142.2814  160.0403 H   0  0  0  0  0  0  0  0  0  0  0  0
  153.6274  143.4889  158.7346 H   0  0  0  0  0  0  0  0  0  0  0  0
  152.3887  142.5009  157.9881 H   0  0  0  0  0  0  0  0  0  0  0  0
  151.8729  144.8169  157.3171 H   0  0  0  0  0  0  0  0  0  0  0  0
  150.5775  146.1411  158.8705 H   0  0  0  0  0  0  0  0  0  0  0  0
  151.0975  145.8471  161.2797 H   0  0  0  0  0  0  0  0  0  0  0  0
  149.9699  144.5679  160.8770 H   0  0  0  0  0  0  0  0  0  0  0  0
  151.7443  143.5116  162.1331 H   0  0  0  0  0  0  0  0  0  0  0  0
  152.9895  144.3682  161.2605 H   0  0  0  0  0  0  0  0  0  0  0  0
  153.1034  138.8019  158.2223 H   0  0  0  0  0  0  0  0  0  0  0  0
  155.2187  136.9432  160.6506 H   0  0  0  0  0  0  0  0  0  0  0  0
  155.6356  133.7722  157.8392 H   0  0  0  0  0  0  0  0  0  0  0  0
  1  2  2  0  0  0  0
  2  3  1  0  0  0  0
  2 11  1  0  0  0  0
  3  4  1  0  0  0  0
  3 23  1  0  0  0  0
  4  5  1  0  0  0  0
  4 24  1  0  0  0  0
  4 25  1  0  0  0  0
  5 10  1  0  0  0  0
  5  6  1  0  0  0  0
  5 26  1  0  0  0  0
  6  7  1  0  0  0  0
  6 27  1  0  0  0  0
  6 28  1  0  0  0  0
  7  8  2  0  0  0  0
  7 29  1  0  0  0  0
  8  9  1  0  0  0  0
  8 30  1  0  0  0  0
  9 10  1  0  0  0  0
  9 31  1  0  0  0  0
  9 32  1  0  0  0  0
 10 33  1  0  0  0  0
 10 34  1  0  0  0  0
 11 12  1  0  0  0  0
 11 35  1  0  0  0  0
 12 21  1  0  0  0  0
 12 13  2  0  0  0  0
 13 14  1  0  0  0  0
 13 36  1  0  0  0  0
 14 15  1  0  0  0  0
 14 19  2  0  0  0  0
 15 16  1  0  0  0  0
 15 17  1  0  0  0  0
 15 18  1  0  0  0  0
 19 20  1  0  0  0  0
 19 37  1  0  0  0  0
 20 21  1  0  0  0  0
 21 22  2  0  0  0  0
M  CHG  1  20  -1
M  END
> <s_m_source_file>
AV-unprocessed.smi

> <i_m_source_file_index>
1128

> <i_lp_mmshare_version>
43012

> <i_f3d_flags>
0

> <s_epik_input>
Tz1jMVtuSF1bY0hdYyhDKEYpKEYpRilbY0hdYzFbTkhdQyg9TylbTkhdW0NIMl1bQ0BASF0yW0NIMl1bQ0hdPVtDSF1bQ0gyXVtDSDJdMg==

> <s_epik_cmdline>
J2VwaWtfcHl0aG9uJywgJy1waCcsICc3LjAnLCAnLXRuJywgJzgnLCAnLW1hJywgJzIwMCcsICctbWV0YWxfYmluZGluZycsICctaW1hZScsICc8aW5maWxlLm1hZT4nLCAnLW9tYWUnLCAnPG91dGZpbGUubWFlPic=

> <r_lp_tautomer_probability>
1

> <r_epik_Ionization_Penalty>
3.16664

> <r_epik_Ionization_Penalty_Charging>
0.172425

> <r_epik_Ionization_Penalty_Neutral>
2.99422

> <r_epik_State_Penalty>
2.99038

> <r_epik_Charging_Adjusted_Penalty>
3.16281

> <i_epik_Tot_Q>
-1

> <i_epik_Tot_abs_Q>
1

> <r_epik_Metal_State_Penalty>
0.453031

> <b_epik_Metal_Only>
1

> <s_lp_Force_Field>
OPLS_2005

> <r_lp_Energy>
22.3955

> <b_lp_Chiralities_Consistent>
1

> <s_lp_Variant>
AV-unprocessed.smi:1128-3

> <Gold.Version>
5.8.1

> <Gold.Id.Protein>
6NUR|6NUR_protein|mol2

> <Gold.PLP.Fitness>
43.7623

> <Gold.PLP.PLP>
-37.8221

> <Gold.PLP.part.hbond>
-1.9042

> <Gold.PLP.part.metal>
0.0000

> <Gold.PLP.part.buried>
-3.4869

> <Gold.PLP.part.nonpolar>
-32.5063

> <Gold.PLP.part.repulsive>
0.1748

> <Gold.PLP.ligand.clash>
0.0000

> <Gold.PLP.ligand.torsion>
0.0665

> <Gold.PLP.Chemscore.Hbond>
2.0000

> <Gold.PLP.Chemscore.CHOScore>
0.0000

> <Gold.PLP.Chemscore.Metal>
0.0000

> <Gold.Chemscore.Hbonds>
donor molecule, donor type, donor heavy atom, donor atom, acceptor molecule, acceptor atom, score
      P1  H 10752 10764       L1    20  1.80

> <Gold.PLP.Chemscore.Internal.Correction>
0.0733

> <Gold.Rescore>
     Score         DG    S(hbond)    S(metal)    S(lipo)     H(rot)  DE(clash)    DE(int)     intcor
     14.41     -15.59       0.50        0.00     100.51       1.29       0.05       1.13       ----

> <Gold.Chemscore.Fitness>
14.4091

> <Gold.Chemscore.DG>
-15.5865

> <Gold.Chemscore.ZeroCoef>
-5.4800

> <Gold.Chemscore.Hbond>
0.4969

> <Gold.Chemscore.Metal>
0.0000

> <Gold.Chemscore.Lipo>
100.5146

> <Gold.Chemscore.Internal_Hbond>
0.0000

> <Gold.Chemscore.DEClash>
0.0513

> <Gold.Chemscore.DEInternal>
1.1260

> <Gold.Chemscore.Rot>
1.2943

> <Gold.Chemscore.Internal.Correction>
   9.000000E+99

> <Gold.Chemscore.Hbonds>
donor molecule, donor type, donor heavy atom, donor atom, acceptor molecule, acceptor atom, score
      P1  H 10752 10764       L1    20  0.18

> <Gold.Chemscore.Hbond.Weighted>
-1.6596

> <Gold.Chemscore.Metal.Weighted>
-0.0000

> <Gold.Chemscore.Lipo.Weighted>
-11.7602

> <Gold.Chemscore.Internal_Hbond.Weighted>
0.0000

> <Gold.Chemscore.DEClash.Weighted>
0.0513

> <Gold.Chemscore.DEInternal.Weighted>
1.1260

> <Gold.Chemscore.Rot.Weighted>
3.3133

> <Gold.Chemscore.Internal.Correction.Weighted>
   9.000000E+99

> <Gold.Protein.RotatedTorsions>
[ 6907 6896 6895 6894 ] final -171.51 input  -60.11 | X-H torsion
[ 7974 7965 7964 7962 ] final   97.59 input  175.53 | X-H torsion
[ 8008 7997 7996 7995 ] final -108.79 input   59.86 | X-H torsion
[ 10167 10162 10161 10158 ] final   24.93 input  -65.29 | X-H torsion
[ 10718 10713 10712 10709 ] final -156.00 input   66.30 | X-H torsion
[ 10763 10752 10751 10750 ] final   27.76 input  -60.55 | X-H torsion
[ 11005 11000 10999 10996 ] final  -56.88 input  -57.11 | X-H torsion

> <Gold.Protein.ActiveResidues>
 VAL166  LYS551  ARG553  GLY616  TRP617  ASP618  TYR619  PRO620  LYS621  CYS622 
 ASP623  PHE694  ASN695  SER759  ASP760  ASP761  ALA762  ILE779  LEU786  VAL792 
 PHE793  MET794  SER795  GLU796  ALA797  LYS798  CYS799  TRP800  GLU811  SER814 

> <Gold.Protein.RotatedAtoms>
  151.5250  133.3459  159.2907 H   0  0  0  0  0  0  0  0  0  0  0  0  # atno 6907 bound_to 6896
  150.8628  134.7987  159.7107 H   0  0  0  0  0  0  0  0  0  0  0  0  # atno 6908 bound_to 6896
  152.4642  134.5122  159.9809 H   0  0  0  0  0  0  0  0  0  0  0  0  # atno 6909 bound_to 6896
  145.4235  139.2318  143.3183 H   0  0  0  0  0  0  0  0  0  0  0  0  # atno 7974 bound_to 7965
  154.9496  140.0401  157.2137 H   0  0  0  0  0  0  0  0  0  0  0  0  # atno 8008 bound_to 7997
  154.7991  140.2848  155.5913 H   0  0  0  0  0  0  0  0  0  0  0  0  # atno 8009 bound_to 7997
  156.2959  140.2558  156.2855 H   0  0  0  0  0  0  0  0  0  0  0  0  # atno 8010 bound_to 7997
  140.5148  144.0100  150.6389 H   0  0  0  0  0  0  0  0  0  0  0  0  # atno 10167 bound_to 10162
  156.5205  130.8476  151.2680 H   0  0  0  0  0  0  0  0  0  0  0  0  # atno 10718 bound_to 10713
  153.0535  135.6529  154.0634 H   0  0  0  0  0  0  0  0  0  0  0  0  # atno 10763 bound_to 10752
  154.0318  135.2911  155.3369 H   0  0  0  0  0  0  0  0  0  0  0  0  # atno 10764 bound_to 10752
  154.6837  135.5310  153.8365 H   0  0  0  0  0  0  0  0  0  0  0  0  # atno 10765 bound_to 10752
  141.1140  133.6610  156.4685 H   0  0  0  0  0  0  0  0  0  0  0  0  # atno 11005 bound_to 11000
  146.2644  140.4962  142.8840 LP  0  0  0  0  0  0  0  0  0  0  0  0  # atno 17320 bound_to 7965
  144.8230  140.6581  143.6341 LP  0  0  0  0  0  0  0  0  0  0  0  0  # atno 17321 bound_to 7965
  140.3433  143.3006  152.0565 LP  0  0  0  0  0  0  0  0  0  0  0  0  # atno 17342 bound_to 10162
  139.4906  144.6427  151.6844 LP  0  0  0  0  0  0  0  0  0  0  0  0  # atno 17343 bound_to 10162
  157.7437  130.9919  150.2617 LP  0  0  0  0  0  0  0  0  0  0  0  0  # atno 17370 bound_to 10713
  156.3154  130.3778  149.7623 LP  0  0  0  0  0  0  0  0  0  0  0  0  # atno 17371 bound_to 10713
  140.4698  134.6764  157.5124 LP  0  0  0  0  0  0  0  0  0  0  0  0  # atno 17394 bound_to 11000
  140.0050  134.6777  155.9469 LP  0  0  0  0  0  0  0  0  0  0  0  0  # atno 17395 bound_to 11000

$$$$
