AV-unprocessed.smi:1889|AV-procd|sdf|7662|dock9
  -GOLD-   22720 9393D 1   1.00000     0.00000
 Structure written by MMmdl.
 35 36  0  0  0  0  0  0  0  0  2 V2000
  150.7010  143.0636  158.2713 C   0  0  0  0  0  0  0  0  0  0  0  0
  151.3008  141.7475  157.7647 C   0  0  0  0  0  0  0  0  0  0  0  0
  151.1064  141.5544  156.2543 C   0  0  0  0  0  0  0  0  0  0  0  0
  151.4157  140.1636  155.8107 C   0  0  0  0  0  0  0  0  0  0  0  0
  152.6290  139.6182  155.9298 N   0  0  0  0  0  0  0  0  0  0  0  0
  152.6748  138.3288  155.4204 N   0  0  0  0  0  0  0  0  0  0  0  0
  151.5058  137.9259  154.9026 C   0  0  0  0  0  0  0  0  0  0  0  0
  151.3416  136.7080  154.3600 N   0  5  0  0  0  0  0  0  0  0  0  0
  150.6140  135.7710  155.0095 C   0  0  0  0  0  0  0  0  0  0  0  0
  150.8005  135.3674  156.1600 O   0  0  0  0  0  0  0  0  0  0  0  0
  149.6079  135.2686  154.2818 N   0  0  0  0  0  0  0  0  0  0  0  0
  148.6687  134.2507  154.7370 C   0  0  0  0  0  0  0  0  0  0  0  0
  148.8107  132.9590  153.9147 C   0  0  1  0  0  0  0  0  0  0  0  0
  150.0704  132.1604  154.2294 C   0  0  0  0  0  0  0  0  0  0  0  0
  149.6201  130.6967  154.1691 C   0  0  0  0  0  0  0  0  0  0  0  0
  148.2854  130.7288  153.6837 O   0  0  0  0  0  0  0  0  0  0  0  0
  147.6989  131.9353  154.1409 C   0  0  0  0  0  0  0  0  0  0  0  0
  150.2276  139.1344  155.0292 S   0  0  0  0  0  0  0  0  0  0  0  0
  150.8503  143.1698  159.3460 H   0  0  0  0  0  0  0  0  0  0  0  0
  149.6290  143.1077  158.0779 H   0  0  0  0  0  0  0  0  0  0  0  0
  151.1659  143.9211  157.7844 H   0  0  0  0  0  0  0  0  0  0  0  0
  152.3649  141.7226  158.0026 H   0  0  0  0  0  0  0  0  0  0  0  0
  150.8449  140.9145  158.3011 H   0  0  0  0  0  0  0  0  0  0  0  0
  150.0794  141.7916  155.9740 H   0  0  0  0  0  0  0  0  0  0  0  0
  151.7472  142.2435  155.7031 H   0  0  0  0  0  0  0  0  0  0  0  0
  149.4862  135.6229  153.3445 H   0  0  0  0  0  0  0  0  0  0  0  0
  148.8548  134.0427  155.7915 H   0  0  0  0  0  0  0  0  0  0  0  0
  147.6500  134.6345  154.6603 H   0  0  0  0  0  0  0  0  0  0  0  0
  148.8273  133.2093  152.8527 H   0  0  0  0  0  0  0  0  0  0  0  0
  150.8582  132.3730  153.5063 H   0  0  0  0  0  0  0  0  0  0  0  0
  150.4606  132.3908  155.2218 H   0  0  0  0  0  0  0  0  0  0  0  0
  150.2544  130.0899  153.5226 H   0  0  0  0  0  0  0  0  0  0  0  0
  149.6284  130.2535  155.1659 H   0  0  0  0  0  0  0  0  0  0  0  0
  147.4491  131.8450  155.1996 H   0  0  0  0  0  0  0  0  0  0  0  0
  146.7885  132.1717  153.5895 H   0  0  0  0  0  0  0  0  0  0  0  0
  1  2  1  0  0  0  0
  1 19  1  0  0  0  0
  1 20  1  0  0  0  0
  1 21  1  0  0  0  0
  2  3  1  0  0  0  0
  2 22  1  0  0  0  0
  2 23  1  0  0  0  0
  3  4  1  0  0  0  0
  3 24  1  0  0  0  0
  3 25  1  0  0  0  0
  4 18  1  0  0  0  0
  4  5  2  0  0  0  0
  5  6  1  0  0  0  0
  6  7  2  0  0  0  0
  7  8  1  0  0  0  0
  7 18  1  0  0  0  0
  8  9  1  0  0  0  0
  9 10  2  0  0  0  0
  9 11  1  0  0  0  0
 11 12  1  0  0  0  0
 11 26  1  0  0  0  0
 12 13  1  0  0  0  0
 12 27  1  0  0  0  0
 12 28  1  0  0  0  0
 13 17  1  0  0  0  0
 13 14  1  0  0  0  0
 13 29  1  0  0  0  0
 14 15  1  0  0  0  0
 14 30  1  0  0  0  0
 14 31  1  0  0  0  0
 15 16  1  0  0  0  0
 15 32  1  0  0  0  0
 15 33  1  0  0  0  0
 16 17  1  0  0  0  0
 17 34  1  0  0  0  0
 17 35  1  0  0  0  0
M  CHG  1   8  -1
M  END
> <s_m_source_file>
AV-unprocessed.smi

> <i_m_source_file_index>
1889

> <i_lp_mmshare_version>
43012

> <i_f3d_flags>
0

> <s_epik_input>
W0NIM11bQ0gyXVtDSDJdYzFubmMoczEpW05IXUMoPU8pW05IXVtDSDJdW0NAQEhdMltDSDJdW0NIMl1PW0NIMl0y

> <s_epik_cmdline>
J2VwaWtfcHl0aG9uJywgJy1waCcsICc3LjAnLCAnLXRuJywgJzgnLCAnLW1hJywgJzIwMCcsICctbWV0YWxfYmluZGluZycsICctaW1hZScsICc8aW5maWxlLm1hZT4nLCAnLW9tYWUnLCAnPG91dGZpbGUubWFlPic=

> <r_lp_tautomer_probability>
1

> <r_epik_Ionization_Penalty>
4.29669

> <r_epik_Ionization_Penalty_Charging>
4.28522

> <r_epik_Ionization_Penalty_Neutral>
0.0114689

> <r_epik_State_Penalty>
4.28479

> <r_epik_Charging_Adjusted_Penalty>
8.57002

> <i_epik_Tot_Q>
-1

> <i_epik_Tot_abs_Q>
1

> <r_epik_Metal_State_Penalty>
0.72177

> <b_epik_Metal_Only>
1

> <s_lp_Force_Field>
OPLS_2005

> <r_lp_Energy>
12.2609

> <b_lp_Chiralities_Consistent>
1

> <s_lp_Variant>
AV-unprocessed.smi:1889-4

> <Gold.Version>
5.8.1

> <Gold.Id.Protein>
6NUR|6NUR_protein|mol2

> <Gold.PLP.Fitness>
38.7398

> <Gold.PLP.PLP>
-29.2528

> <Gold.PLP.part.hbond>
-3.0000

> <Gold.PLP.part.metal>
0.0000

> <Gold.PLP.part.buried>
-5.5234

> <Gold.PLP.part.nonpolar>
-21.4733

> <Gold.PLP.part.repulsive>
0.7703

> <Gold.PLP.ligand.clash>
0.0000

> <Gold.PLP.ligand.torsion>
1.3064

> <Gold.PLP.Chemscore.Hbond>
4.0000

> <Gold.PLP.Chemscore.CHOScore>
0.0000

> <Gold.PLP.Chemscore.Metal>
0.0000

> <Gold.Chemscore.Hbonds>
donor molecule, donor type, donor heavy atom, donor atom, acceptor molecule, acceptor atom, score
      L1  H    11    26       P1  7948  0.85
      P1  H  7997  8010       L1     5  1.00
      P1  H 10752 10765       L1     8  1.50

> <Gold.PLP.Chemscore.Internal.Correction>
0.0999

> <Gold.Rescore>
     Score         DG    S(hbond)    S(metal)    S(lipo)     H(rot)  DE(clash)    DE(int)     intcor
     12.67     -14.03       1.75        0.00      58.08       1.59       0.06       1.31       ----

> <Gold.Chemscore.Fitness>
12.6656

> <Gold.Chemscore.DG>
-14.0322

> <Gold.Chemscore.ZeroCoef>
-5.4800

> <Gold.Chemscore.Hbond>
1.7464

> <Gold.Chemscore.Metal>
0.0000

> <Gold.Chemscore.Lipo>
58.0783

> <Gold.Chemscore.Internal_Hbond>
0.0000

> <Gold.Chemscore.DEClash>
0.0601

> <Gold.Chemscore.DEInternal>
1.3065

> <Gold.Chemscore.Rot>
1.5922

> <Gold.Chemscore.Internal.Correction>
   9.000000E+99

> <Gold.Chemscore.Hbonds>
donor molecule, donor type, donor heavy atom, donor atom, acceptor molecule, acceptor atom, score
      L1  H    11    26       P1  7948  0.15
      P1  H  7997  8010       L1     5  0.65
      P1  H 10752 10765       L1     8  0.08

> <Gold.Chemscore.Hbond.Weighted>
-5.8331

> <Gold.Chemscore.Metal.Weighted>
-0.0000

> <Gold.Chemscore.Lipo.Weighted>
-6.7952

> <Gold.Chemscore.Internal_Hbond.Weighted>
0.0000

> <Gold.Chemscore.DEClash.Weighted>
0.0601

> <Gold.Chemscore.DEInternal.Weighted>
1.3065

> <Gold.Chemscore.Rot.Weighted>
4.0761

> <Gold.Chemscore.Internal.Correction.Weighted>
   9.000000E+99

> <Gold.Protein.RotatedTorsions>
[ 6907 6896 6895 6894 ] final   38.10 input  -60.11 | X-H torsion
[ 7974 7965 7964 7962 ] final   52.61 input  175.53 | X-H torsion
[ 8008 7997 7996 7995 ] final   79.05 input   59.86 | X-H torsion
[ 10167 10162 10161 10158 ] final   84.16 input  -65.29 | X-H torsion
[ 10718 10713 10712 10709 ] final  110.39 input   66.30 | X-H torsion
[ 10763 10752 10751 10750 ] final  162.80 input  -60.55 | X-H torsion
[ 11005 11000 10999 10996 ] final  -63.44 input  -57.11 | X-H torsion

> <Gold.Protein.ActiveResidues>
 VAL166  LYS551  ARG553  GLY616  TRP617  ASP618  TYR619  PRO620  LYS621  CYS622 
 ASP623  PHE694  ASN695  SER759  ASP760  ASP761  ALA762  ILE779  LEU786  VAL792 
 PHE793  MET794  SER795  GLU796  ALA797  LYS798  CYS799  TRP800  GLU811  SER814 

> <Gold.Protein.RotatedAtoms>
  152.1519  134.8981  160.0547 H   0  0  0  0  0  0  0  0  0  0  0  0  # atno 6907 bound_to 6896
  152.0009  133.3820  159.4190 H   0  0  0  0  0  0  0  0  0  0  0  0  # atno 6908 bound_to 6896
  150.6877  134.3757  159.5055 H   0  0  0  0  0  0  0  0  0  0  0  0  # atno 6909 bound_to 6896
  145.9795  139.4228  143.0140 H   0  0  0  0  0  0  0  0  0  0  0  0  # atno 7974 bound_to 7965
  155.8642  140.3452  155.5777 H   0  0  0  0  0  0  0  0  0  0  0  0  # atno 8008 bound_to 7997
  155.7899  140.0870  157.2034 H   0  0  0  0  0  0  0  0  0  0  0  0  # atno 8009 bound_to 7997
  154.4013  140.1485  156.3138 H   0  0  0  0  0  0  0  0  0  0  0  0  # atno 8010 bound_to 7997
  139.9109  144.6272  150.8538 H   0  0  0  0  0  0  0  0  0  0  0  0  # atno 10167 bound_to 10162
  157.6496  131.0932  150.6595 H   0  0  0  0  0  0  0  0  0  0  0  0  # atno 10718 bound_to 10713
  154.2839  135.2762  155.2685 H   0  0  0  0  0  0  0  0  0  0  0  0  # atno 10763 bound_to 10752
  154.5193  135.5760  153.6671 H   0  0  0  0  0  0  0  0  0  0  0  0  # atno 10764 bound_to 10752
  152.9924  135.6200  154.3000 H   0  0  0  0  0  0  0  0  0  0  0  0  # atno 10765 bound_to 10752
  141.1393  133.6652  156.5680 H   0  0  0  0  0  0  0  0  0  0  0  0  # atno 11005 bound_to 11000
  145.7790  140.9864  143.1109 LP  0  0  0  0  0  0  0  0  0  0  0  0  # atno 17320 bound_to 7965
  144.6858  139.9540  143.7478 LP  0  0  0  0  0  0  0  0  0  0  0  0  # atno 17321 bound_to 7965
  140.7685  143.3366  151.2295 LP  0  0  0  0  0  0  0  0  0  0  0  0  # atno 17342 bound_to 10162
  139.6943  143.9639  152.2875 LP  0  0  0  0  0  0  0  0  0  0  0  0  # atno 17343 bound_to 10162
  156.6908  130.4594  149.5600 LP  0  0  0  0  0  0  0  0  0  0  0  0  # atno 17370 bound_to 10713
  156.1863  130.6531  151.1010 LP  0  0  0  0  0  0  0  0  0  0  0  0  # atno 17371 bound_to 10713
  140.3935  134.7419  157.4736 LP  0  0  0  0  0  0  0  0  0  0  0  0  # atno 17394 bound_to 11000
  140.0548  134.6078  155.8818 LP  0  0  0  0  0  0  0  0  0  0  0  0  # atno 17395 bound_to 11000

$$$$
