AV-unprocessed.smi:67|AV-procd|sdf|629|dock2
  -GOLD-   2262016523D 1   1.00000     0.00000
 Structure written by MMmdl.
 49 51  0  0  0  0  0  0  0  0  3 V2000
  142.8157  133.5613  152.4800 O   0  0  0  0  0  0  0  0  0  0  0  0
  144.1305  133.8654  152.0452 C   0  0  1  0  0  0  0  0  0  0  0  0
  144.9140  134.4601  153.2375 C   0  0  0  0  0  0  0  0  0  0  0  0
  145.1965  133.4446  154.2881 N   0  3  2  0  0  0  0  0  0  0  0  0
  145.3336  134.0372  155.6446 C   0  0  0  0  0  0  0  0  0  0  0  0
  145.4123  132.9453  156.7247 C   0  0  0  0  0  0  0  0  0  0  0  0
  146.5385  131.9413  156.4041 C   0  0  1  0  0  0  0  0  0  0  0  0
  146.7588  130.9463  157.4067 O   0  0  0  0  0  0  0  0  0  0  0  0
  145.9436  129.8435  157.5789 C   0  0  0  0  0  0  0  0  0  0  0  0
  146.3071  128.4934  157.3463 C   0  0  0  0  0  0  0  0  0  0  0  0
  145.3814  127.4556  157.5661 C   0  0  0  0  0  0  0  0  0  0  0  0
  144.0813  127.7473  158.0160 C   0  0  0  0  0  0  0  0  0  0  0  0
  143.6971  129.0844  158.2452 C   0  0  0  0  0  0  0  0  0  0  0  0
  142.2964  129.4146  158.7394 C   0  0  0  0  0  0  0  0  0  0  0  0
  141.4191  128.6129  158.1372 F   0  0  0  0  0  0  0  0  0  0  0  0
  142.2085  129.2343  160.0578 F   0  0  0  0  0  0  0  0  0  0  0  0
  141.9757  130.6807  158.4702 F   0  0  0  0  0  0  0  0  0  0  0  0
  144.6349  130.1169  158.0297 C   0  0  0  0  0  0  0  0  0  0  0  0
  146.4660  131.4033  154.9601 C   0  0  0  0  0  0  0  0  0  0  0  0
  146.3467  132.5621  153.9566 C   0  0  0  0  0  0  0  0  0  0  0  0
  144.7640  132.6263  151.4037 C   0  0  0  0  0  0  0  0  0  0  0  0
  144.1715  132.5959  149.9935 C   0  0  0  0  0  0  0  0  0  0  0  0
  143.8905  133.9998  149.6375 N   0  3  0  0  0  0  0  0  0  0  0  0
  144.0239  134.8310  150.8522 C   0  0  0  0  0  0  0  0  0  0  0  0
  142.8646  132.9865  153.2295 H   0  0  0  0  0  0  0  0  0  0  0  0
  145.8452  134.9148  152.8948 H   0  0  0  0  0  0  0  0  0  0  0  0
  144.3310  135.2823  153.6563 H   0  0  0  0  0  0  0  0  0  0  0  0
  146.2234  134.6679  155.6782 H   0  0  0  0  0  0  0  0  0  0  0  0
  144.4785  134.6811  155.8547 H   0  0  0  0  0  0  0  0  0  0  0  0
  145.5981  133.4054  157.6958 H   0  0  0  0  0  0  0  0  0  0  0  0
  144.4408  132.4645  156.8051 H   0  0  0  0  0  0  0  0  0  0  0  0
  147.4596  132.5246  156.4443 H   0  0  0  0  0  0  0  0  0  0  0  0
  147.2855  128.2091  157.0014 H   0  0  0  0  0  0  0  0  0  0  0  0
  145.6707  126.4300  157.3899 H   0  0  0  0  0  0  0  0  0  0  0  0
  143.3840  126.9400  158.1851 H   0  0  0  0  0  0  0  0  0  0  0  0
  144.3481  131.1420  158.2148 H   0  0  0  0  0  0  0  0  0  0  0  0
  147.3621  130.8217  154.7412 H   0  0  0  0  0  0  0  0  0  0  0  0
  145.6288  130.7264  154.8113 H   0  0  0  0  0  0  0  0  0  0  0  0
  146.2313  132.1542  152.9529 H   0  0  0  0  0  0  0  0  0  0  0  0
  147.2659  133.1501  153.9520 H   0  0  0  0  0  0  0  0  0  0  0  0
  145.8443  132.7592  151.3286 H   0  0  0  0  0  0  0  0  0  0  0  0
  144.5809  131.7062  151.9604 H   0  0  0  0  0  0  0  0  0  0  0  0
  144.8366  132.1239  149.2698 H   0  0  0  0  0  0  0  0  0  0  0  0
  143.2293  132.0464  149.9933 H   0  0  0  0  0  0  0  0  0  0  0  0
  144.5456  134.3191  148.9376 H   0  0  0  0  0  0  0  0  0  0  0  0
  143.2034  135.5440  150.9451 H   0  0  0  0  0  0  0  0  0  0  0  0
  144.9450  135.4067  150.7500 H   0  0  0  0  0  0  0  0  0  0  0  0
  142.9500  134.0662  149.2741 H   0  0  0  0  0  0  0  0  0  0  0  0
  144.3769  132.8548  154.3260 H   0  0  0  0  0  0  0  0  0  0  0  0
  1  2  1  0  0  0  0
  1 25  1  0  0  0  0
  2 24  1  0  0  0  0
  2  3  1  0  0  0  0
  2 21  1  0  0  0  0
  3  4  1  0  0  0  0
  3 26  1  0  0  0  0
  3 27  1  0  0  0  0
  4 20  1  0  0  0  0
  4  5  1  0  0  0  0
  4 49  1  0  0  0  0
  5  6  1  0  0  0  0
  5 28  1  0  0  0  0
  5 29  1  0  0  0  0
  6  7  1  0  0  0  0
  6 30  1  0  0  0  0
  6 31  1  0  0  0  0
  7  8  1  0  0  0  0
  7 19  1  0  0  0  0
  7 32  1  0  0  0  0
  8  9  1  0  0  0  0
  9 18  1  0  0  0  0
  9 10  2  0  0  0  0
 10 11  1  0  0  0  0
 10 33  1  0  0  0  0
 11 12  2  0  0  0  0
 11 34  1  0  0  0  0
 12 13  1  0  0  0  0
 12 35  1  0  0  0  0
 13 14  1  0  0  0  0
 13 18  2  0  0  0  0
 14 15  1  0  0  0  0
 14 16  1  0  0  0  0
 14 17  1  0  0  0  0
 18 36  1  0  0  0  0
 19 20  1  0  0  0  0
 19 37  1  0  0  0  0
 19 38  1  0  0  0  0
 20 39  1  0  0  0  0
 20 40  1  0  0  0  0
 21 22  1  0  0  0  0
 21 41  1  0  0  0  0
 21 42  1  0  0  0  0
 22 23  1  0  0  0  0
 22 43  1  0  0  0  0
 22 44  1  0  0  0  0
 23 24  1  0  0  0  0
 23 45  1  0  0  0  0
 23 48  1  0  0  0  0
 24 46  1  0  0  0  0
 24 47  1  0  0  0  0
M  CHG  1   4   1
M  CHG  1  23   1
M  END
> <s_m_source_file>
AV-unprocessed.smi

> <i_m_source_file_index>
67

> <i_lp_mmshare_version>
43012

> <i_f3d_flags>
0

> <s_epik_input>
W0NIMl0xW05IXVtDSDJdW0NIMl1bQ0BAXTEoW09IXSlbQ0gyXU4yW0NIMl1bQ0gyXVtDSF0oW0NIMl1bQ0gyXTIpT2MzW2NIXVtjSF1bY0hdYyhDKEYpKEYpRilbY0hdMw==

> <s_epik_cmdline>
J2VwaWtfcHl0aG9uJywgJy1waCcsICc3LjAnLCAnLXRuJywgJzgnLCAnLW1hJywgJzIwMCcsICctbWV0YWxfYmluZGluZycsICctaW1hZScsICc8aW5maWxlLm1hZT4nLCAnLW9tYWUnLCAnPG91dGZpbGUubWFlPic=

> <r_lp_tautomer_probability>
1

> <r_epik_Ionization_Penalty>
0.0989853

> <r_epik_Ionization_Penalty_Charging>
0.0989662

> <r_epik_Ionization_Penalty_Neutral>
1.91014e-05

> <r_epik_State_Penalty>
0.0852826

> <r_epik_Charging_Adjusted_Penalty>
0.184249

> <i_epik_Tot_Q>
2

> <i_epik_Tot_abs_Q>
2

> <r_epik_Metal_State_Penalty>
0.0849414

> <b_epik_Metal_Only>
0

> <s_lp_Force_Field>
OPLS_2005

> <r_lp_Energy>
60.8706

> <b_lp_Chiralities_Consistent>
1

> <s_lp_Variant>
AV-unprocessed.smi:67-1

> <Gold.Version>
5.8.1

> <Gold.Id.Protein>
6NUR|6NUR_protein|mol2

> <Gold.PLP.Fitness>
48.9310

> <Gold.PLP.PLP>
-32.8653

> <Gold.PLP.part.hbond>
-3.7263

> <Gold.PLP.part.metal>
0.0000

> <Gold.PLP.part.buried>
-7.0227

> <Gold.PLP.part.nonpolar>
-23.2354

> <Gold.PLP.part.repulsive>
0.1035

> <Gold.PLP.ligand.clash>
0.0000

> <Gold.PLP.ligand.torsion>
1.3394

> <Gold.PLP.Chemscore.Hbond>
5.7950

> <Gold.PLP.Chemscore.CHOScore>
0.0000

> <Gold.PLP.Chemscore.Metal>
0.0000

> <Gold.Chemscore.Hbonds>
donor molecule, donor type, donor heavy atom, donor atom, acceptor molecule, acceptor atom, score
      L1  H     1    25       P1 10957  1.00
      L1  H     4    49       P1 10957  1.79
      L1  H    23    45       P1  7921  0.80
      L1  H    23    48       P1 10186  2.00

> <Gold.PLP.Chemscore.Internal.Correction>
1.3594

> <Gold.Rescore>
     Score         DG    S(hbond)    S(metal)    S(lipo)     H(rot)  DE(clash)    DE(int)     intcor
     15.86     -17.41       3.47        0.00      51.85       2.24       0.01       1.53       ----

> <Gold.Chemscore.Fitness>
15.8640

> <Gold.Chemscore.DG>
-17.4073

> <Gold.Chemscore.ZeroCoef>
-5.4800

> <Gold.Chemscore.Hbond>
3.4681

> <Gold.Chemscore.Metal>
0.0000

> <Gold.Chemscore.Lipo>
51.8457

> <Gold.Chemscore.Internal_Hbond>
0.0000

> <Gold.Chemscore.DEClash>
0.0139

> <Gold.Chemscore.DEInternal>
1.5295

> <Gold.Chemscore.Rot>
2.2352

> <Gold.Chemscore.Internal.Correction>
   9.000000E+99

> <Gold.Chemscore.Hbonds>
donor molecule, donor type, donor heavy atom, donor atom, acceptor molecule, acceptor atom, score
      L1  H     1    25       P1 10957  0.68
      L1  H     4    49       P1 10957  0.84
      L1  H    23    45       P1  7921  0.79
      L1  H    23    48       P1 10186  0.93

> <Gold.Chemscore.Hbond.Weighted>
-11.5835

> <Gold.Chemscore.Metal.Weighted>
-0.0000

> <Gold.Chemscore.Lipo.Weighted>
-6.0659

> <Gold.Chemscore.Internal_Hbond.Weighted>
0.0000

> <Gold.Chemscore.DEClash.Weighted>
0.0139

> <Gold.Chemscore.DEInternal.Weighted>
1.5295

> <Gold.Chemscore.Rot.Weighted>
5.7221

> <Gold.Chemscore.Internal.Correction.Weighted>
   9.000000E+99

> <Gold.Protein.RotatedTorsions>
[ 6907 6896 6895 6894 ] final  167.28 input  -60.11 | X-H torsion
[ 7974 7965 7964 7962 ] final -166.15 input  175.53 | X-H torsion
[ 8008 7997 7996 7995 ] final   14.36 input   59.86 | X-H torsion
[ 10167 10162 10161 10158 ] final -169.24 input  -65.29 | X-H torsion
[ 10718 10713 10712 10709 ] final   10.70 input   66.30 | X-H torsion
[ 10763 10752 10751 10750 ] final  -27.89 input  -60.55 | X-H torsion
[ 11005 11000 10999 10996 ] final  -10.12 input  -57.11 | X-H torsion

> <Gold.Protein.ActiveResidues>
 VAL166  LYS551  ARG553  GLY616  TRP617  ASP618  TYR619  PRO620  LYS621  CYS622 
 ASP623  PHE694  ASN695  SER759  ASP760  ASP761  ALA762  ILE779  LEU786  VAL792 
 PHE793  MET794  SER795  GLU796  ALA797  LYS798  CYS799  TRP800  GLU811  SER814 

> <Gold.Protein.RotatedAtoms>
  151.8657  133.3466  159.3718 H   0  0  0  0  0  0  0  0  0  0  0  0  # atno 6907 bound_to 6896
  150.7166  134.5162  159.5641 H   0  0  0  0  0  0  0  0  0  0  0  0  # atno 6908 bound_to 6896
  152.2685  134.7959  160.0469 H   0  0  0  0  0  0  0  0  0  0  0  0  # atno 6909 bound_to 6896
  144.7252  140.2709  143.6251 H   0  0  0  0  0  0  0  0  0  0  0  0  # atno 7974 bound_to 7965
  154.8473  140.2924  155.5620 H   0  0  0  0  0  0  0  0  0  0  0  0  # atno 8008 bound_to 7997
  156.3015  140.2502  156.3358 H   0  0  0  0  0  0  0  0  0  0  0  0  # atno 8009 bound_to 7997
  154.9059  140.0390  157.1908 H   0  0  0  0  0  0  0  0  0  0  0  0  # atno 8010 bound_to 7997
  139.5935  144.1162  152.1662 H   0  0  0  0  0  0  0  0  0  0  0  0  # atno 10167 bound_to 10162
  156.9848  130.6019  149.5680 H   0  0  0  0  0  0  0  0  0  0  0  0  # atno 10718 bound_to 10713
  153.7395  135.6933  153.4970 H   0  0  0  0  0  0  0  0  0  0  0  0  # atno 10763 bound_to 10752
  153.2079  135.4413  155.0344 H   0  0  0  0  0  0  0  0  0  0  0  0  # atno 10764 bound_to 10752
  154.8225  135.3429  154.6921 H   0  0  0  0  0  0  0  0  0  0  0  0  # atno 10765 bound_to 10752
  140.7413  133.8667  155.8970 H   0  0  0  0  0  0  0  0  0  0  0  0  # atno 11005 bound_to 11000
  145.8044  139.1977  143.2029 LP  0  0  0  0  0  0  0  0  0  0  0  0  # atno 17320 bound_to 7965
  146.0649  140.7931  142.9716 LP  0  0  0  0  0  0  0  0  0  0  0  0  # atno 17321 bound_to 7965
  140.0742  144.5754  150.7169 LP  0  0  0  0  0  0  0  0  0  0  0  0  # atno 17342 bound_to 10162
  140.7193  143.2573  151.4332 LP  0  0  0  0  0  0  0  0  0  0  0  0  # atno 17343 bound_to 10162
  156.0230  130.5325  150.8329 LP  0  0  0  0  0  0  0  0  0  0  0  0  # atno 17370 bound_to 10713
  157.5501  131.0943  150.9708 LP  0  0  0  0  0  0  0  0  0  0  0  0  # atno 17371 bound_to 10713
  140.9834  134.1376  157.4474 LP  0  0  0  0  0  0  0  0  0  0  0  0  # atno 17394 bound_to 11000
  139.8805  135.0017  156.6086 LP  0  0  0  0  0  0  0  0  0  0  0  0  # atno 17395 bound_to 11000

$$$$
