AV-unprocessed.smi:3335|AV-procd|sdf|12843|dock1
  -GOLD-   2272019233D 1   1.00000     0.00000
 Structure written by MMmdl.
 47 48  0  0  0  0  0  0  0  0  2 V2000
  145.6355  144.4070  161.5838 C   0  0  0  0  0  0  0  0  0  0  0  0
  145.5989  143.6327  160.2980 C   0  0  0  0  0  0  0  0  0  0  0  0
  145.0009  142.3633  160.0592 C   0  0  0  0  0  0  0  0  0  0  0  0
  145.1552  141.9508  158.8121 N   0  0  0  0  0  0  0  0  0  0  0  0
  145.8502  142.9405  158.2081 N   0  0  0  0  0  0  0  0  0  0  0  0
  146.2277  142.8221  156.8041 C   0  0  2  0  0  0  0  0  0  0  0  0
  145.0466  142.2568  155.9914 C   0  0  0  0  0  0  0  0  0  0  0  0
  147.5348  141.9997  156.6506 C   0  0  1  0  0  0  0  0  0  0  0  0
  147.8502  141.6405  155.1869 C   0  0  0  0  0  0  0  0  0  0  0  0
  148.6760  142.7535  157.2257 N   0  3  0  0  0  0  0  0  0  0  0  0
  149.7545  141.9290  157.8172 C   0  0  1  0  0  0  0  0  0  0  0  0
  150.4140  141.0778  156.7216 C   0  0  0  0  0  0  0  0  0  0  0  0
  150.8129  142.8233  158.4918 C   0  0  0  0  0  0  0  0  0  0  0  0
  150.7098  144.0458  158.3799 O   0  0  0  0  0  0  0  0  0  0  0  0
  151.8315  142.2537  159.1701 N   0  0  0  0  0  0  0  0  0  0  0  0
  152.8645  143.0283  159.8562 C   0  0  0  0  0  0  0  0  0  0  0  0
  153.6601  142.0196  160.6845 C   0  0  0  0  0  0  0  0  0  0  0  0
  153.4675  140.7017  159.9482 C   0  0  0  0  0  0  0  0  0  0  0  0
  152.0754  140.8202  159.3277 C   0  0  0  0  0  0  0  0  0  0  0  0
  146.1287  143.9688  159.0846 C   0  0  0  0  0  0  0  0  0  0  0  0
  145.0600  143.9165  162.3692 H   0  0  0  0  0  0  0  0  0  0  0  0
  145.2235  145.4091  161.4627 H   0  0  0  0  0  0  0  0  0  0  0  0
  146.6540  144.5196  161.9556 H   0  0  0  0  0  0  0  0  0  0  0  0
  144.4679  141.7298  160.7529 H   0  0  0  0  0  0  0  0  0  0  0  0
  146.4164  143.8332  156.4393 H   0  0  0  0  0  0  0  0  0  0  0  0
  145.2246  142.3284  154.9188 H   0  0  0  0  0  0  0  0  0  0  0  0
  144.1306  142.8120  156.1972 H   0  0  0  0  0  0  0  0  0  0  0  0
  144.8594  141.2093  156.2302 H   0  0  0  0  0  0  0  0  0  0  0  0
  147.4134  141.0687  157.2072 H   0  0  0  0  0  0  0  0  0  0  0  0
  147.0889  140.9882  154.7597 H   0  0  0  0  0  0  0  0  0  0  0  0
  148.7988  141.1103  155.1017 H   0  0  0  0  0  0  0  0  0  0  0  0
  147.9142  142.5334  154.5640 H   0  0  0  0  0  0  0  0  0  0  0  0
  149.0643  143.3352  156.4974 H   0  0  0  0  0  0  0  0  0  0  0  0
  149.2969  141.2512  158.5365 H   0  0  0  0  0  0  0  0  0  0  0  0
  151.1979  140.4402  157.1325 H   0  0  0  0  0  0  0  0  0  0  0  0
  150.8639  141.6990  155.9456 H   0  0  0  0  0  0  0  0  0  0  0  0
  149.6837  140.4259  156.2411 H   0  0  0  0  0  0  0  0  0  0  0  0
  153.5057  143.5031  159.1119 H   0  0  0  0  0  0  0  0  0  0  0  0
  152.4399  143.8107  160.4875 H   0  0  0  0  0  0  0  0  0  0  0  0
  154.7095  142.2951  160.7932 H   0  0  0  0  0  0  0  0  0  0  0  0
  153.2289  141.9452  161.6837 H   0  0  0  0  0  0  0  0  0  0  0  0
  154.2145  140.6140  159.1581 H   0  0  0  0  0  0  0  0  0  0  0  0
  153.5678  139.8336  160.6005 H   0  0  0  0  0  0  0  0  0  0  0  0
  151.3244  140.4024  159.9999 H   0  0  0  0  0  0  0  0  0  0  0  0
  152.0250  140.2843  158.3789 H   0  0  0  0  0  0  0  0  0  0  0  0
  146.6808  144.8450  158.7778 H   0  0  0  0  0  0  0  0  0  0  0  0
  148.3263  143.3507  157.9620 H   0  0  0  0  0  0  0  0  0  0  0  0
  1  2  1  0  0  0  0
  1 21  1  0  0  0  0
  1 22  1  0  0  0  0
  1 23  1  0  0  0  0
  2 20  2  0  0  0  0
  2  3  1  0  0  0  0
  3  4  2  0  0  0  0
  3 24  1  0  0  0  0
  4  5  1  0  0  0  0
  5  6  1  0  0  0  0
  5 20  1  0  0  0  0
  6  7  1  0  0  0  0
  6  8  1  0  0  0  0
  6 25  1  0  0  0  0
  7 26  1  0  0  0  0
  7 27  1  0  0  0  0
  7 28  1  0  0  0  0
  8  9  1  0  0  0  0
  8 10  1  0  0  0  0
  8 29  1  0  0  0  0
  9 30  1  0  0  0  0
  9 31  1  0  0  0  0
  9 32  1  0  0  0  0
 10 11  1  0  0  0  0
 10 33  1  0  0  0  0
 10 47  1  0  0  0  0
 11 12  1  0  0  0  0
 11 13  1  0  0  0  0
 11 34  1  0  0  0  0
 12 35  1  0  0  0  0
 12 36  1  0  0  0  0
 12 37  1  0  0  0  0
 13 14  2  0  0  0  0
 13 15  1  0  0  0  0
 15 19  1  0  0  0  0
 15 16  1  0  0  0  0
 16 17  1  0  0  0  0
 16 38  1  0  0  0  0
 16 39  1  0  0  0  0
 17 18  1  0  0  0  0
 17 40  1  0  0  0  0
 17 41  1  0  0  0  0
 18 19  1  0  0  0  0
 18 42  1  0  0  0  0
 18 43  1  0  0  0  0
 19 44  1  0  0  0  0
 19 45  1  0  0  0  0
 20 46  1  0  0  0  0
M  CHG  1  10   1
M  END
> <s_m_source_file>
AV-unprocessed.smi

> <i_m_source_file_index>
3335

> <i_lp_mmshare_version>
43012

> <i_f3d_flags>
0

> <s_epik_input>
W0NIM11jMVtjSF1ubihbY0hdMSlbQ0BIXShbQ0gzXSlbQ0BIXShbQ0gzXSlbTkhdW0NASF0oW0NIM10pQyg9TylOMltDSDJdW0NIMl1bQ0gyXVtDSDJdMg==

> <s_epik_cmdline>
J2VwaWtfcHl0aG9uJywgJy1waCcsICc3LjAnLCAnLXRuJywgJzgnLCAnLW1hJywgJzIwMCcsICctbWV0YWxfYmluZGluZycsICctaW1hZScsICc8aW5maWxlLm1hZT4nLCAnLW9tYWUnLCAnPG91dGZpbGUubWFlPic=

> <r_lp_tautomer_probability>
1

> <r_epik_Ionization_Penalty>
0.14175

> <r_epik_Ionization_Penalty_Charging>
0.141731

> <r_epik_Ionization_Penalty_Neutral>
1.91261e-05

> <r_epik_State_Penalty>
0.131043

> <r_epik_Charging_Adjusted_Penalty>
0.272773

> <i_epik_Tot_Q>
1

> <i_epik_Tot_abs_Q>
1

> <r_epik_Metal_State_Penalty>
0.131408

> <b_epik_Metal_Only>
0

> <s_lp_Force_Field>
OPLS_2005

> <r_lp_Energy>
35.1527

> <b_lp_Chiralities_Consistent>
1

> <s_lp_Variant>
AV-unprocessed.smi:3335-7

> <Gold.Version>
5.8.1

> <Gold.Id.Protein>
6NUR|6NUR_protein|mol2

> <Gold.PLP.Fitness>
41.2283

> <Gold.PLP.PLP>
-34.0098

> <Gold.PLP.part.hbond>
-1.1580

> <Gold.PLP.part.metal>
0.0000

> <Gold.PLP.part.buried>
-4.1483

> <Gold.PLP.part.nonpolar>
-28.1769

> <Gold.PLP.part.repulsive>
0.1943

> <Gold.PLP.ligand.clash>
0.0000

> <Gold.PLP.ligand.torsion>
1.1190

> <Gold.PLP.Chemscore.Hbond>
2.0000

> <Gold.PLP.Chemscore.CHOScore>
1.0000

> <Gold.PLP.Chemscore.Metal>
0.0000

> <Gold.Chemscore.Hbonds>
donor molecule, donor type, donor heavy atom, donor atom, acceptor molecule, acceptor atom, score
      L1  H    10    33       P1  8028  1.76
      L1  C    20    46       P1  8029  1.00

> <Gold.PLP.Chemscore.Internal.Correction>
0.4566

> <Gold.Rescore>
     Score         DG    S(hbond)    S(metal)    S(lipo)     H(rot)  DE(clash)    DE(int)     intcor
     12.22     -13.10       0.90        0.00      76.26       1.68       0.05       0.82       ----

> <Gold.Chemscore.Fitness>
12.2224

> <Gold.Chemscore.DG>
-13.0975

> <Gold.Chemscore.ZeroCoef>
-5.4800

> <Gold.Chemscore.Hbond>
0.8952

> <Gold.Chemscore.Metal>
0.0000

> <Gold.Chemscore.Lipo>
76.2629

> <Gold.Chemscore.Internal_Hbond>
0.0000

> <Gold.Chemscore.DEClash>
0.0515

> <Gold.Chemscore.DEInternal>
0.8236

> <Gold.Chemscore.Rot>
1.6778

> <Gold.Chemscore.Internal.Correction>
   9.000000E+99

> <Gold.Chemscore.Hbonds>
donor molecule, donor type, donor heavy atom, donor atom, acceptor molecule, acceptor atom, score
      L1  H    10    33       P1  8028  0.85

> <Gold.Chemscore.Hbond.Weighted>
-2.9899

> <Gold.Chemscore.Metal.Weighted>
-0.0000

> <Gold.Chemscore.Lipo.Weighted>
-8.9228

> <Gold.Chemscore.Internal_Hbond.Weighted>
0.0000

> <Gold.Chemscore.DEClash.Weighted>
0.0515

> <Gold.Chemscore.DEInternal.Weighted>
0.8236

> <Gold.Chemscore.Rot.Weighted>
4.2952

> <Gold.Chemscore.Internal.Correction.Weighted>
   9.000000E+99

> <Gold.Protein.RotatedTorsions>
[ 6907 6896 6895 6894 ] final  -74.91 input  -60.11 | X-H torsion
[ 7974 7965 7964 7962 ] final   15.22 input  175.53 | X-H torsion
[ 8008 7997 7996 7995 ] final  -19.95 input   59.86 | X-H torsion
[ 10167 10162 10161 10158 ] final  105.47 input  -65.29 | X-H torsion
[ 10718 10713 10712 10709 ] final  -24.99 input   66.30 | X-H torsion
[ 10763 10752 10751 10750 ] final   59.34 input  -60.55 | X-H torsion
[ 11005 11000 10999 10996 ] final  139.53 input  -57.11 | X-H torsion

> <Gold.Protein.ActiveResidues>
 VAL166  LYS551  ARG553  GLY616  TRP617  ASP618  TYR619  PRO620  LYS621  CYS622 
 ASP623  PHE694  ASN695  SER759  ASP760  ASP761  ALA762  ILE779  LEU786  VAL792 
 PHE793  MET794  SER795  GLU796  ALA797  LYS798  CYS799  TRP800  GLU811  SER814 

> <Gold.Protein.RotatedAtoms>
  150.7076  134.4799  159.5464 H   0  0  0  0  0  0  0  0  0  0  0  0  # atno 6907 bound_to 6896
  152.2438  134.8199  160.0465 H   0  0  0  0  0  0  0  0  0  0  0  0  # atno 6908 bound_to 6896
  151.8971  133.3494  159.3855 H   0  0  0  0  0  0  0  0  0  0  0  0  # atno 6909 bound_to 6896
  146.2284  139.8926  142.8552 H   0  0  0  0  0  0  0  0  0  0  0  0  # atno 7974 bound_to 7965
  154.4802  140.2075  155.9782 H   0  0  0  0  0  0  0  0  0  0  0  0  # atno 8008 bound_to 7997
  156.1153  140.3222  155.8100 H   0  0  0  0  0  0  0  0  0  0  0  0  # atno 8009 bound_to 7997
  155.4564  140.0521  157.2986 H   0  0  0  0  0  0  0  0  0  0  0  0  # atno 8010 bound_to 7997
  139.7089  144.7081  151.1059 H   0  0  0  0  0  0  0  0  0  0  0  0  # atno 10167 bound_to 10162
  156.4703  130.4523  149.6873 H   0  0  0  0  0  0  0  0  0  0  0  0  # atno 10718 bound_to 10713
  152.9892  135.5575  154.5698 H   0  0  0  0  0  0  0  0  0  0  0  0  # atno 10763 bound_to 10752
  154.5100  135.2802  155.1352 H   0  0  0  0  0  0  0  0  0  0  0  0  # atno 10764 bound_to 10752
  154.2748  135.6356  153.5377 H   0  0  0  0  0  0  0  0  0  0  0  0  # atno 10765 bound_to 10752
  140.0262  134.9374  157.0572 H   0  0  0  0  0  0  0  0  0  0  0  0  # atno 11005 bound_to 11000
  145.2402  141.0006  143.3940 LP  0  0  0  0  0  0  0  0  0  0  0  0  # atno 17320 bound_to 7965
  144.9458  139.4138  143.6426 LP  0  0  0  0  0  0  0  0  0  0  0  0  # atno 17321 bound_to 7965
  140.7728  143.5320  150.9412 LP  0  0  0  0  0  0  0  0  0  0  0  0  # atno 17342 bound_to 10162
  139.9004  143.6843  152.3132 LP  0  0  0  0  0  0  0  0  0  0  0  0  # atno 17343 bound_to 10162
  156.3625  130.7489  151.2462 LP  0  0  0  0  0  0  0  0  0  0  0  0  # atno 17370 bound_to 10713
  157.7492  131.0346  150.4325 LP  0  0  0  0  0  0  0  0  0  0  0  0  # atno 17371 bound_to 10713
  140.4303  134.1787  155.7168 LP  0  0  0  0  0  0  0  0  0  0  0  0  # atno 17394 bound_to 11000
  141.1804  133.8426  157.1278 LP  0  0  0  0  0  0  0  0  0  0  0  0  # atno 17395 bound_to 11000

$$$$
