AV-unprocessed.smi:1073|AV-procd|sdf|4690|dock6
  -GOLD-   22720 3213D 1   1.00000     0.00000
 Structure written by MMmdl.
 44 44  0  0  0  0  0  0  0  0  1 V2000
  149.3218  135.2039  155.3199 C   0  0  0  0  0  0  0  0  0  0  0  0
  149.3241  136.5062  154.6719 N   0  0  0  0  0  0  0  0  0  0  0  0
  149.1794  137.6718  155.3184 C   0  0  0  0  0  0  0  0  0  0  0  0
  149.0196  137.7493  156.5376 O   0  0  0  0  0  0  0  0  0  0  0  0
  149.2023  138.9399  154.4476 C   0  0  1  0  0  0  0  0  0  0  0  0
  147.8729  139.6984  154.6766 C   0  0  0  0  0  0  0  0  0  0  0  0
  147.6285  140.9050  153.7407 C   0  0  0  0  0  0  0  0  0  0  0  0
  146.9045  142.0314  154.4939 C   0  0  0  0  0  0  0  0  0  0  0  0
  146.8481  140.5209  152.4726 C   0  0  0  0  0  0  0  0  0  0  0  0
  150.3136  139.8050  154.8442 N   0  0  0  0  0  0  0  0  0  0  0  0
  150.4913  140.3270  156.0677 C   0  0  0  0  0  0  0  0  0  0  0  0
  149.7079  140.1394  156.9996 O   0  0  0  0  0  0  0  0  0  0  0  0
  151.7404  141.2015  156.2476 C   0  0  0  0  0  0  0  0  0  0  0  0
  152.0545  141.4922  157.6568 N   0  0  0  0  0  0  0  0  0  0  0  0
  151.7195  142.7736  158.1371 C   0  0  0  0  0  0  0  0  0  0  0  0
  151.9607  143.1683  159.4021 C   0  0  0  0  0  0  0  0  0  0  0  0
  151.5355  144.5369  159.9111 C   0  0  0  0  0  0  0  0  0  0  0  0
  152.0841  145.5097  159.1830 F   0  0  0  0  0  0  0  0  0  0  0  0
  150.2109  144.6574  159.8317 F   0  0  0  0  0  0  0  0  0  0  0  0
  151.8935  144.7135  161.1835 F   0  0  0  0  0  0  0  0  0  0  0  0
  152.5634  142.1852  160.2806 C   0  0  0  0  0  0  0  0  0  0  0  0
  152.8791  140.9514  159.8408 C   0  0  0  0  0  0  0  0  0  0  0  0
  152.6298  140.5442  158.4560 C   0  0  0  0  0  0  0  0  0  0  0  0
  152.9179  139.4214  158.0410 O   0  0  0  0  0  0  0  0  0  0  0  0
  149.4890  134.4207  154.5807 H   0  0  0  0  0  0  0  0  0  0  0  0
  148.3643  135.0147  155.8065 H   0  0  0  0  0  0  0  0  0  0  0  0
  150.1125  135.1403  156.0686 H   0  0  0  0  0  0  0  0  0  0  0  0
  149.4505  136.5249  153.6702 H   0  0  0  0  0  0  0  0  0  0  0  0
  149.3018  138.6574  153.3982 H   0  0  0  0  0  0  0  0  0  0  0  0
  147.0377  139.0036  154.5715 H   0  0  0  0  0  0  0  0  0  0  0  0
  147.8362  140.0488  155.7101 H   0  0  0  0  0  0  0  0  0  0  0  0
  148.5932  141.3051  153.4276 H   0  0  0  0  0  0  0  0  0  0  0  0
  145.9212  141.7100  154.8388 H   0  0  0  0  0  0  0  0  0  0  0  0
  146.7641  142.9051  153.8567 H   0  0  0  0  0  0  0  0  0  0  0  0
  147.4746  142.3518  155.3665 H   0  0  0  0  0  0  0  0  0  0  0  0
  145.8882  140.0661  152.7195 H   0  0  0  0  0  0  0  0  0  0  0  0
  147.4051  139.8166  151.8552 H   0  0  0  0  0  0  0  0  0  0  0  0
  146.6506  141.3977  151.8551 H   0  0  0  0  0  0  0  0  0  0  0  0
  150.9961  140.0210  154.1322 H   0  0  0  0  0  0  0  0  0  0  0  0
  152.5915  140.7146  155.7678 H   0  0  0  0  0  0  0  0  0  0  0  0
  151.5906  142.1266  155.6895 H   0  0  0  0  0  0  0  0  0  0  0  0
  151.2430  143.4151  157.4101 H   0  0  0  0  0  0  0  0  0  0  0  0
  152.7674  142.4431  161.3094 H   0  0  0  0  0  0  0  0  0  0  0  0
  153.3271  140.2448  160.5240 H   0  0  0  0  0  0  0  0  0  0  0  0
  1  2  1  0  0  0  0
  1 25  1  0  0  0  0
  1 26  1  0  0  0  0
  1 27  1  0  0  0  0
  2  3  1  0  0  0  0
  2 28  1  0  0  0  0
  3  4  2  0  0  0  0
  3  5  1  0  0  0  0
  5  6  1  0  0  0  0
  5 10  1  0  0  0  0
  5 29  1  0  0  0  0
  6  7  1  0  0  0  0
  6 30  1  0  0  0  0
  6 31  1  0  0  0  0
  7  8  1  0  0  0  0
  7  9  1  0  0  0  0
  7 32  1  0  0  0  0
  8 33  1  0  0  0  0
  8 34  1  0  0  0  0
  8 35  1  0  0  0  0
  9 36  1  0  0  0  0
  9 37  1  0  0  0  0
  9 38  1  0  0  0  0
 10 11  1  0  0  0  0
 10 39  1  0  0  0  0
 11 12  2  0  0  0  0
 11 13  1  0  0  0  0
 13 14  1  0  0  0  0
 13 40  1  0  0  0  0
 13 41  1  0  0  0  0
 14 23  1  0  0  0  0
 14 15  1  0  0  0  0
 15 16  2  0  0  0  0
 15 42  1  0  0  0  0
 16 17  1  0  0  0  0
 16 21  1  0  0  0  0
 17 18  1  0  0  0  0
 17 19  1  0  0  0  0
 17 20  1  0  0  0  0
 21 22  2  0  0  0  0
 21 43  1  0  0  0  0
 22 23  1  0  0  0  0
 22 44  1  0  0  0  0
 23 24  2  0  0  0  0
M  END
> <s_m_source_file>
AV-unprocessed.smi

> <i_m_source_file_index>
1073

> <i_lp_mmshare_version>
43012

> <i_f3d_flags>
0

> <s_epik_input>
W0NIM11bTkhdQyg9TylbQ0BIXShbQ0gyXVtDSF0oW0NIM10pW0NIM10pW05IXUMoPU8pW0NIMl1uMVtjSF1jKEMoRikoRilGKVtjSF1bY0hdYzE9Tw==

> <s_epik_cmdline>
J2VwaWtfcHl0aG9uJywgJy1waCcsICc3LjAnLCAnLXRuJywgJzgnLCAnLW1hJywgJzIwMCcsICctbWV0YWxfYmluZGluZycsICctaW1hZScsICc8aW5maWxlLm1hZT4nLCAnLW9tYWUnLCAnPG91dGZpbGUubWFlPic=

> <r_lp_tautomer_probability>
1

> <r_epik_Ionization_Penalty>
7.02352e-08

> <r_epik_Ionization_Penalty_Charging>
1.57869e-08

> <r_epik_Ionization_Penalty_Neutral>
5.44484e-08

> <r_epik_State_Penalty>
-0

> <r_epik_Charging_Adjusted_Penalty>
1.57869e-08

> <i_epik_Tot_Q>
0

> <i_epik_Tot_abs_Q>
0

> <r_epik_Metal_State_Penalty>
-0

> <b_epik_Metal_Only>
0

> <s_lp_Force_Field>
OPLS_2005

> <r_lp_Energy>
17.6469

> <b_lp_Chiralities_Consistent>
1

> <s_lp_Variant>
AV-unprocessed.smi:1073-2

> <Gold.Version>
5.8.1

> <Gold.Id.Protein>
6NUR|6NUR_protein|mol2

> <Gold.PLP.Fitness>
45.5957

> <Gold.PLP.PLP>
-42.3600

> <Gold.PLP.part.hbond>
-2.0000

> <Gold.PLP.part.metal>
0.0000

> <Gold.PLP.part.buried>
-4.4766

> <Gold.PLP.part.nonpolar>
-36.7235

> <Gold.PLP.part.repulsive>
0.1467

> <Gold.PLP.ligand.clash>
0.0000

> <Gold.PLP.ligand.torsion>
0.9142

> <Gold.PLP.Chemscore.Hbond>
1.6500

> <Gold.PLP.Chemscore.CHOScore>
0.0000

> <Gold.PLP.Chemscore.Metal>
0.0000

> <Gold.Chemscore.Hbonds>
donor molecule, donor type, donor heavy atom, donor atom, acceptor molecule, acceptor atom, score
      L1  H     2    28       P1  7948  1.00
      P1  H  7997  8010       L1    24  0.73

> <Gold.PLP.Chemscore.Internal.Correction>
0.1141

> <Gold.Rescore>
     Score         DG    S(hbond)    S(metal)    S(lipo)     H(rot)  DE(clash)    DE(int)     intcor
      7.76     -12.83       0.93        0.00      91.45       2.51       0.67       4.40       ----

> <Gold.Chemscore.Fitness>
7.7631

> <Gold.Chemscore.DG>
-12.8344

> <Gold.Chemscore.ZeroCoef>
-5.4800

> <Gold.Chemscore.Hbond>
0.9258

> <Gold.Chemscore.Metal>
0.0000

> <Gold.Chemscore.Lipo>
91.4547

> <Gold.Chemscore.Internal_Hbond>
0.0000

> <Gold.Chemscore.DEClash>
0.6685

> <Gold.Chemscore.DEInternal>
4.4027

> <Gold.Chemscore.Rot>
2.5149

> <Gold.Chemscore.Internal.Correction>
   9.000000E+99

> <Gold.Chemscore.Hbonds>
donor molecule, donor type, donor heavy atom, donor atom, acceptor molecule, acceptor atom, score
      L1  H     2    28       P1  7948  0.81
      P1  H  7997  8010       L1    24  0.09

> <Gold.Chemscore.Hbond.Weighted>
-3.0923

> <Gold.Chemscore.Metal.Weighted>
-0.0000

> <Gold.Chemscore.Lipo.Weighted>
-10.7002

> <Gold.Chemscore.Internal_Hbond.Weighted>
0.0000

> <Gold.Chemscore.DEClash.Weighted>
0.6685

> <Gold.Chemscore.DEInternal.Weighted>
4.4027

> <Gold.Chemscore.Rot.Weighted>
6.4381

> <Gold.Chemscore.Internal.Correction.Weighted>
   9.000000E+99

> <Gold.Protein.RotatedTorsions>
[ 6907 6896 6895 6894 ] final  112.72 input  -60.11 | X-H torsion
[ 7974 7965 7964 7962 ] final  111.32 input  175.53 | X-H torsion
[ 8008 7997 7996 7995 ] final   42.40 input   59.86 | X-H torsion
[ 10167 10162 10161 10158 ] final  140.80 input  -65.29 | X-H torsion
[ 10718 10713 10712 10709 ] final  101.38 input   66.30 | X-H torsion
[ 10763 10752 10751 10750 ] final   -7.85 input  -60.55 | X-H torsion
[ 11005 11000 10999 10996 ] final -157.71 input  -57.11 | X-H torsion

> <Gold.Protein.ActiveResidues>
 VAL166  LYS551  ARG553  GLY616  TRP617  ASP618  TYR619  PRO620  LYS621  CYS622 
 ASP623  PHE694  ASN695  SER759  ASP760  ASP761  ALA762  ILE779  LEU786  VAL792 
 PHE793  MET794  SER795  GLU796  ALA797  LYS798  CYS799  TRP800  GLU811  SER814 

> <Gold.Protein.RotatedAtoms>
  152.4901  133.8477  159.7184 H   0  0  0  0  0  0  0  0  0  0  0  0  # atno 6907 bound_to 6896
  150.9022  133.7094  159.2882 H   0  0  0  0  0  0  0  0  0  0  0  0  # atno 6908 bound_to 6896
  151.4531  135.1035  159.9756 H   0  0  0  0  0  0  0  0  0  0  0  0  # atno 6909 bound_to 6896
  145.2438  139.2768  143.4104 H   0  0  0  0  0  0  0  0  0  0  0  0  # atno 7974 bound_to 7965
  155.2855  140.3375  155.4255 H   0  0  0  0  0  0  0  0  0  0  0  0  # atno 8008 bound_to 7997
  156.2070  140.1755  156.7818 H   0  0  0  0  0  0  0  0  0  0  0  0  # atno 8009 bound_to 7997
  154.5634  140.0683  156.8839 H   0  0  0  0  0  0  0  0  0  0  0  0  # atno 8010 bound_to 7997
  139.5038  144.6212  151.6047 H   0  0  0  0  0  0  0  0  0  0  0  0  # atno 10167 bound_to 10162
  157.6831  131.0724  150.5243 H   0  0  0  0  0  0  0  0  0  0  0  0  # atno 10718 bound_to 10713
  153.4322  135.7012  153.6223 H   0  0  0  0  0  0  0  0  0  0  0  0  # atno 10763 bound_to 10752
  153.4633  135.3731  155.2351 H   0  0  0  0  0  0  0  0  0  0  0  0  # atno 10764 bound_to 10752
  154.8726  135.4025  154.3707 H   0  0  0  0  0  0  0  0  0  0  0  0  # atno 10765 bound_to 10752
  140.6616  134.4343  157.5234 H   0  0  0  0  0  0  0  0  0  0  0  0  # atno 11005 bound_to 11000
  146.3321  140.2809  142.8610 LP  0  0  0  0  0  0  0  0  0  0  0  0  # atno 17320 bound_to 7965
  144.9565  140.8232  143.5540 LP  0  0  0  0  0  0  0  0  0  0  0  0  # atno 17321 bound_to 7965
  140.5914  143.9772  150.6327 LP  0  0  0  0  0  0  0  0  0  0  0  0  # atno 17342 bound_to 10162
  140.2954  143.3296  152.1023 LP  0  0  0  0  0  0  0  0  0  0  0  0  # atno 17343 bound_to 10162
  156.5555  130.4242  149.6087 LP  0  0  0  0  0  0  0  0  0  0  0  0  # atno 17370 bound_to 10713
  156.2866  130.7100  151.1939 LP  0  0  0  0  0  0  0  0  0  0  0  0  # atno 17371 bound_to 10713
  139.9011  134.8554  156.1892 LP  0  0  0  0  0  0  0  0  0  0  0  0  # atno 17394 bound_to 11000
  141.0461  133.6912  156.1686 LP  0  0  0  0  0  0  0  0  0  0  0  0  # atno 17395 bound_to 11000

$$$$
