AV-unprocessed.smi:109|AV-procd|sdf|1047|dock3
  -GOLD-   2262018 93D 1   1.00000     0.00000
 Structure written by MMmdl.
 58 61  0  0  0  0  0  0  0  0  1 V2000
  152.9796  139.0020  155.0927 O   0  0  0  0  0  0  0  0  0  0  0  0
  151.7617  139.3086  155.7368 C   0  0  0  0  0  0  0  0  0  0  0  0
  151.6400  140.8301  155.9276 C   0  0  0  0  0  0  0  0  0  0  0  0
  150.4599  141.2615  156.8323 C   0  0  2  0  0  0  0  0  0  0  0  0
  149.3854  141.8099  156.0022 N   0  0  0  0  0  0  0  0  0  0  0  0
  148.4185  141.0276  155.4724 C   0  0  0  0  0  0  0  0  0  0  0  0
  147.5252  141.5112  154.5703 N   0  0  0  0  0  0  0  0  0  0  0  0
  146.5816  140.7103  154.0661 C   0  0  0  0  0  0  0  0  0  0  0  0
  146.3583  139.4189  154.3222 N   0  0  0  0  0  0  0  0  0  0  0  0
  147.2517  138.9309  155.2308 C   0  0  0  0  0  0  0  0  0  0  0  0
  148.3021  139.6649  155.8476 C   0  0  0  0  0  0  0  0  0  0  0  0
  149.0096  138.8382  156.7104 N   0  0  0  0  0  0  0  0  0  0  0  0
  148.4117  137.6822  156.6008 C   0  0  0  0  0  0  0  0  0  0  0  0
  147.3429  137.6497  155.7301 N   0  0  0  0  0  0  0  0  0  0  0  0
  146.4533  136.4998  155.3650 C   0  0  2  0  0  0  0  0  0  0  0  0
  146.6257  136.2599  154.0006 O   0  0  0  0  0  0  0  0  0  0  0  0
  145.4176  136.5024  153.2844 C   0  0  2  0  0  0  0  0  0  0  0  0
  145.7388  137.1538  151.9290 C   0  0  0  0  0  0  0  0  0  0  0  0
  145.7560  138.5602  152.0449 O   0  0  0  0  0  0  0  0  0  0  0  0
  144.5499  137.3498  154.2225 C   0  0  1  0  0  0  0  0  0  0  0  0
  143.1762  137.0977  154.0039 O   0  0  0  0  0  0  0  0  0  0  0  0
  144.9674  136.8392  155.5914 C   0  0  2  0  0  0  0  0  0  0  0  0
  144.7374  137.8190  156.5884 O   0  0  0  0  0  0  0  0  0  0  0  0
  150.8551  142.3056  157.9164 C   0  0  0  0  0  0  0  0  0  0  0  0
  151.4223  143.6186  157.3207 C   0  0  0  0  0  0  0  0  0  0  0  0
  151.8431  144.6227  158.4066 C   0  0  0  0  0  0  0  0  0  0  0  0
  152.8589  144.0081  159.3770 C   0  0  0  0  0  0  0  0  0  0  0  0
  152.3002  142.7226  159.9981 C   0  0  0  0  0  0  0  0  0  0  0  0
  151.8876  141.7164  158.9128 C   0  0  0  0  0  0  0  0  0  0  0  0
  146.8133  135.6639  155.9656 H   0  0  0  0  0  0  0  0  0  0  0  0
  144.9563  135.5250  153.1310 H   0  0  0  0  0  0  0  0  0  0  0  0
  144.7759  138.4114  154.1108 H   0  0  0  0  0  0  0  0  0  0  0  0
  144.4467  135.9127  155.8386 H   0  0  0  0  0  0  0  0  0  0  0  0
  152.9177  139.2723  154.1894 H   0  0  0  0  0  0  0  0  0  0  0  0
  150.9431  138.9179  155.1324 H   0  0  0  0  0  0  0  0  0  0  0  0
  151.7319  138.7973  156.6993 H   0  0  0  0  0  0  0  0  0  0  0  0
  152.5808  141.1673  156.3594 H   0  0  0  0  0  0  0  0  0  0  0  0
  151.5550  141.3181  154.9554 H   0  0  0  0  0  0  0  0  0  0  0  0
  150.1165  140.3770  157.3685 H   0  0  0  0  0  0  0  0  0  0  0  0
  149.3300  142.8181  155.9845 H   0  0  0  0  0  0  0  0  0  0  0  0
  145.9112  141.1697  153.3549 H   0  0  0  0  0  0  0  0  0  0  0  0
  148.7414  136.8176  157.1561 H   0  0  0  0  0  0  0  0  0  0  0  0
  146.6952  136.8076  151.5380 H   0  0  0  0  0  0  0  0  0  0  0  0
  144.9764  136.8860  151.1971 H   0  0  0  0  0  0  0  0  0  0  0  0
  144.8694  138.8632  152.1682 H   0  0  0  0  0  0  0  0  0  0  0  0
  142.8375  136.6277  154.7508 H   0  0  0  0  0  0  0  0  0  0  0  0
  144.0118  137.5362  157.1241 H   0  0  0  0  0  0  0  0  0  0  0  0
  149.9559  142.5614  158.4796 H   0  0  0  0  0  0  0  0  0  0  0  0
  152.2765  143.3935  156.6809 H   0  0  0  0  0  0  0  0  0  0  0  0
  150.6833  144.1118  156.6915 H   0  0  0  0  0  0  0  0  0  0  0  0
  152.2665  145.5142  157.9430 H   0  0  0  0  0  0  0  0  0  0  0  0
  150.9622  144.9514  158.9597 H   0  0  0  0  0  0  0  0  0  0  0  0
  153.7872  143.7884  158.8483 H   0  0  0  0  0  0  0  0  0  0  0  0
  153.1089  144.7240  160.1605 H   0  0  0  0  0  0  0  0  0  0  0  0
  153.0455  142.2744  160.6556 H   0  0  0  0  0  0  0  0  0  0  0  0
  151.4390  142.9606  160.6237 H   0  0  0  0  0  0  0  0  0  0  0  0
  151.4885  140.8305  159.4069 H   0  0  0  0  0  0  0  0  0  0  0  0
  152.7739  141.3874  158.3687 H   0  0  0  0  0  0  0  0  0  0  0  0
  1  2  1  0  0  0  0
  1 34  1  0  0  0  0
  2  3  1  0  0  0  0
  2 35  1  0  0  0  0
  2 36  1  0  0  0  0
  3  4  1  0  0  0  0
  3 37  1  0  0  0  0
  3 38  1  0  0  0  0
  4  5  1  0  0  0  0
  4 24  1  0  0  0  0
  4 39  1  0  0  0  0
  5  6  1  0  0  0  0
  5 40  1  0  0  0  0
  6 11  1  0  0  0  0
  6  7  2  0  0  0  0
  7  8  1  0  0  0  0
  8  9  2  0  0  0  0
  8 41  1  0  0  0  0
  9 10  1  0  0  0  0
 10 14  1  0  0  0  0
 10 11  2  0  0  0  0
 11 12  1  0  0  0  0
 12 13  2  0  0  0  0
 13 14  1  0  0  0  0
 13 42  1  0  0  0  0
 14 15  1  0  0  0  0
 15 30  1  0  0  0  0
 15 22  1  0  0  0  0
 15 16  1  0  0  0  0
 16 17  1  0  0  0  0
 17 31  1  0  0  0  0
 17 18  1  0  0  0  0
 17 20  1  0  0  0  0
 18 19  1  0  0  0  0
 18 43  1  0  0  0  0
 18 44  1  0  0  0  0
 19 45  1  0  0  0  0
 20 32  1  0  0  0  0
 20 21  1  0  0  0  0
 20 22  1  0  0  0  0
 21 46  1  0  0  0  0
 22 33  1  0  0  0  0
 22 23  1  0  0  0  0
 23 47  1  0  0  0  0
 24 29  1  0  0  0  0
 24 25  1  0  0  0  0
 24 48  1  0  0  0  0
 25 26  1  0  0  0  0
 25 49  1  0  0  0  0
 25 50  1  0  0  0  0
 26 27  1  0  0  0  0
 26 51  1  0  0  0  0
 26 52  1  0  0  0  0
 27 28  1  0  0  0  0
 27 53  1  0  0  0  0
 27 54  1  0  0  0  0
 28 29  1  0  0  0  0
 28 55  1  0  0  0  0
 28 56  1  0  0  0  0
 29 57  1  0  0  0  0
 29 58  1  0  0  0  0
M  END
> <s_m_source_file>
AV-unprocessed.smi

> <i_m_source_file_index>
109

> <i_lp_mmshare_version>
43012

> <i_f3d_flags>
0

> <s_epik_input>
W0NIMl0xW0NIMl1bQ0gyXVtDSDJdW0NIMl1bQ0hdMVtDQEhdKFtDSDJdW0NIMl1bT0hdKVtOSF1jKG5bY0hdbjIpYyhjMjMpbltjSF1uM1tDQEBIXTRPW0NASF0oW0NIMl1bT0hdKVtDQEBIXShbT0hdKVtDQEhdNFtPSF0=

> <s_epik_cmdline>
J2VwaWtfcHl0aG9uJywgJy1waCcsICc3LjAnLCAnLXRuJywgJzgnLCAnLW1hJywgJzIwMCcsICctbWV0YWxfYmluZGluZycsICctaW1hZScsICc8aW5maWxlLm1hZT4nLCAnLW9tYWUnLCAnPG91dGZpbGUubWFlPic=

> <r_lp_tautomer_probability>
1

> <r_epik_Ionization_Penalty>
0.000793976

> <r_epik_Ionization_Penalty_Charging>
0

> <r_epik_Ionization_Penalty_Neutral>
0.000793976

> <r_epik_State_Penalty>
-0

> <r_epik_Charging_Adjusted_Penalty>
0

> <i_epik_Tot_Q>
0

> <i_epik_Tot_abs_Q>
0

> <r_epik_Metal_State_Penalty>
-0

> <b_epik_Metal_Only>
0

> <s_epik_Chemistry_Notes>
This compound contains an acetal/aminal-like group ( X-CH(R)-Y where X, Y are N, S, or O) that may be acid/base labile, releasing an aldehyde.

> <s_lp_Force_Field>
OPLS_2005

> <r_lp_Energy>
53.0649

> <b_lp_Chiralities_Consistent>
1

> <s_lp_Variant>
AV-unprocessed.smi:109-17

> <Gold.Version>
5.8.1

> <Gold.Id.Protein>
6NUR|6NUR_protein|mol2

> <Gold.PLP.Fitness>
45.1751

> <Gold.PLP.PLP>
-36.0733

> <Gold.PLP.part.hbond>
-4.0000

> <Gold.PLP.part.metal>
0.0000

> <Gold.PLP.part.buried>
-5.0840

> <Gold.PLP.part.nonpolar>
-29.1939

> <Gold.PLP.part.repulsive>
1.3921

> <Gold.PLP.ligand.clash>
0.0053

> <Gold.PLP.ligand.torsion>
1.4951

> <Gold.PLP.Chemscore.Hbond>
2.9920

> <Gold.PLP.Chemscore.CHOScore>
0.9874

> <Gold.PLP.Chemscore.Metal>
0.0000

> <Gold.Chemscore.Hbonds>
donor molecule, donor type, donor heavy atom, donor atom, acceptor molecule, acceptor atom, score
      L1  H     5    40       P1  8028  1.00
      L1  H    19    45       P1 10175  0.93
      P1  H  7997  8008       L1     1  0.93
      L1  C     8    41       P1 10175  1.00

> <Gold.PLP.Chemscore.Internal.Correction>
0.1591

> <Gold.Rescore>
     Score         DG    S(hbond)    S(metal)    S(lipo)     H(rot)  DE(clash)    DE(int)     intcor
      3.64     -11.77       2.60        0.00      99.23       5.47       1.32       6.81       ----

> <Gold.Chemscore.Fitness>
3.6443

> <Gold.Chemscore.DG>
-11.7701

> <Gold.Chemscore.ZeroCoef>
-5.4800

> <Gold.Chemscore.Hbond>
2.5969

> <Gold.Chemscore.Metal>
0.0000

> <Gold.Chemscore.Lipo>
99.2310

> <Gold.Chemscore.Internal_Hbond>
0.0000

> <Gold.Chemscore.DEClash>
1.3187

> <Gold.Chemscore.DEInternal>
6.8071

> <Gold.Chemscore.Rot>
5.4662

> <Gold.Chemscore.Internal.Correction>
   9.000000E+99

> <Gold.Chemscore.Hbonds>
donor molecule, donor type, donor heavy atom, donor atom, acceptor molecule, acceptor atom, score
      L1  H     5    40       P1  8028  0.98
      L1  H    19    45       P1 10175  0.86
      P1  H  7997  8008       L1     1  0.26

> <Gold.Chemscore.Hbond.Weighted>
-8.6736

> <Gold.Chemscore.Metal.Weighted>
-0.0000

> <Gold.Chemscore.Lipo.Weighted>
-11.6100

> <Gold.Chemscore.Internal_Hbond.Weighted>
0.0000

> <Gold.Chemscore.DEClash.Weighted>
1.3187

> <Gold.Chemscore.DEInternal.Weighted>
6.8071

> <Gold.Chemscore.Rot.Weighted>
13.9935

> <Gold.Chemscore.Internal.Correction.Weighted>
   9.000000E+99

> <Gold.Protein.RotatedTorsions>
[ 6907 6896 6895 6894 ] final  -25.72 input  -60.11 | X-H torsion
[ 7974 7965 7964 7962 ] final -127.56 input  175.53 | X-H torsion
[ 8008 7997 7996 7995 ] final  -12.49 input   59.86 | X-H torsion
[ 10167 10162 10161 10158 ] final  161.55 input  -65.29 | X-H torsion
[ 10718 10713 10712 10709 ] final  -86.37 input   66.30 | X-H torsion
[ 10763 10752 10751 10750 ] final  166.33 input  -60.55 | X-H torsion
[ 11005 11000 10999 10996 ] final -174.96 input  -57.11 | X-H torsion

> <Gold.Protein.ActiveResidues>
 VAL166  LYS551  ARG553  GLY616  TRP617  ASP618  TYR619  PRO620  LYS621  CYS622 
 ASP623  PHE694  ASN695  SER759  ASP760  ASP761  ALA762  ILE779  LEU786  VAL792 
 PHE793  MET794  SER795  GLU796  ALA797  LYS798  CYS799  TRP800  GLU811  SER814 

> <Gold.Protein.RotatedAtoms>
  151.1712  135.0319  159.8752 H   0  0  0  0  0  0  0  0  0  0  0  0  # atno 6907 bound_to 6896
  152.5448  134.1168  159.8392 H   0  0  0  0  0  0  0  0  0  0  0  0  # atno 6908 bound_to 6896
  151.1274  133.5014  159.2632 H   0  0  0  0  0  0  0  0  0  0  0  0  # atno 6909 bound_to 6896
  144.9759  140.7592  143.4642 H   0  0  0  0  0  0  0  0  0  0  0  0  # atno 7974 bound_to 7965
  154.5372  140.2274  155.8702 H   0  0  0  0  0  0  0  0  0  0  0  0  # atno 8008 bound_to 7997
  156.1823  140.3097  155.9135 H   0  0  0  0  0  0  0  0  0  0  0  0  # atno 8009 bound_to 7997
  155.3330  140.0446  157.3033 H   0  0  0  0  0  0  0  0  0  0  0  0  # atno 8010 bound_to 7997
  139.4850  144.4525  151.8811 H   0  0  0  0  0  0  0  0  0  0  0  0  # atno 10167 bound_to 10162
  155.9990  130.4763  150.4704 H   0  0  0  0  0  0  0  0  0  0  0  0  # atno 10718 bound_to 10713
  154.3374  135.2754  155.2440 H   0  0  0  0  0  0  0  0  0  0  0  0  # atno 10763 bound_to 10752
  154.4726  135.5879  153.6336 H   0  0  0  0  0  0  0  0  0  0  0  0  # atno 10764 bound_to 10752
  152.9861  135.6092  154.3572 H   0  0  0  0  0  0  0  0  0  0  0  0  # atno 10765 bound_to 10752
  140.4687  134.6186  157.4873 H   0  0  0  0  0  0  0  0  0  0  0  0  # atno 11005 bound_to 11000
  145.2491  139.2039  143.4952 LP  0  0  0  0  0  0  0  0  0  0  0  0  # atno 17320 bound_to 7965
  146.3395  140.2401  142.8595 LP  0  0  0  0  0  0  0  0  0  0  0  0  # atno 17321 bound_to 7965
  140.3983  144.2526  150.5894 LP  0  0  0  0  0  0  0  0  0  0  0  0  # atno 17342 bound_to 10162
  140.5081  143.2298  151.8577 LP  0  0  0  0  0  0  0  0  0  0  0  0  # atno 17343 bound_to 10162
  157.2720  131.0589  151.2254 LP  0  0  0  0  0  0  0  0  0  0  0  0  # atno 17370 bound_to 10713
  157.3331  130.6995  149.6336 LP  0  0  0  0  0  0  0  0  0  0  0  0  # atno 17371 bound_to 10713
  139.9899  134.7002  155.9708 LP  0  0  0  0  0  0  0  0  0  0  0  0  # atno 17394 bound_to 11000
  141.1587  133.6540  156.4247 LP  0  0  0  0  0  0  0  0  0  0  0  0  # atno 17395 bound_to 11000

$$$$
