AV-unprocessed.smi:1536|AV-procd|sdf|6189|dock3
  -GOLD-   22720 6353D 1   1.00000     0.00000
 Structure written by MMmdl.
 48 49  0  0  0  0  0  0  0  0  2 V2000
  143.9762  133.0815  151.3778 C   0  0  0  0  0  0  0  0  0  0  0  0
  145.2049  133.8234  150.8228 C   0  0  2  0  0  0  0  0  0  0  0  0
  146.5077  133.0162  150.9772 C   0  0  0  0  0  0  0  0  0  0  0  0
  146.9990  132.9795  152.4347 C   0  0  0  0  0  0  0  0  0  0  0  0
  147.1588  134.3578  152.9702 N   0  3  2  0  0  0  0  0  0  0  0  0
  147.9076  134.4766  154.2619 C   0  0  1  0  0  0  0  0  0  0  0  0
  147.1261  133.9435  155.5010 C   0  0  0  0  0  0  0  0  0  0  0  0
  147.8234  134.1050  156.7740 N   0  0  0  0  0  0  0  0  0  0  0  0
  147.2594  133.9704  157.9839 C   0  0  0  0  0  0  0  0  0  0  0  0
  146.0797  133.6536  158.1415 O   0  0  0  0  0  0  0  0  0  0  0  0
  148.1852  134.2128  159.1818 C   0  0  0  0  0  0  0  0  0  0  0  0
  147.6962  135.2552  160.0669 N   0  0  0  0  0  0  0  0  0  0  0  0
  146.6231  135.3022  160.8592 C   0  0  0  0  0  0  0  0  0  0  0  0
  146.5396  136.4573  161.5009 N   0  0  0  0  0  0  0  0  0  0  0  0
  147.6531  137.1477  161.0520 N   0  0  0  0  0  0  0  0  0  0  0  0
  148.3433  136.4394  160.2007 N   0  0  0  0  0  0  0  0  0  0  0  0
  149.3138  133.8241  154.1180 C   0  0  0  0  0  0  0  0  0  0  0  0
  149.2812  132.2901  154.2593 C   0  0  0  0  0  0  0  0  0  0  0  0
  150.3216  134.3947  155.1362 C   0  0  0  0  0  0  0  0  0  0  0  0
  145.9015  135.1483  152.8951 C   0  0  0  0  0  0  0  0  0  0  0  0
  145.3876  135.2203  151.4464 C   0  0  0  0  0  0  0  0  0  0  0  0
  144.0510  132.9022  152.4501 H   0  0  0  0  0  0  0  0  0  0  0  0
  143.8515  132.1142  150.8903 H   0  0  0  0  0  0  0  0  0  0  0  0
  143.0646  133.6535  151.2031 H   0  0  0  0  0  0  0  0  0  0  0  0
  145.0270  133.9598  149.7553 H   0  0  0  0  0  0  0  0  0  0  0  0
  146.3709  132.0013  150.6019 H   0  0  0  0  0  0  0  0  0  0  0  0
  147.2825  133.4660  150.3547 H   0  0  0  0  0  0  0  0  0  0  0  0
  146.2986  132.4116  153.0467 H   0  0  0  0  0  0  0  0  0  0  0  0
  147.9521  132.4524  152.4756 H   0  0  0  0  0  0  0  0  0  0  0  0
  148.0926  135.5383  154.4314 H   0  0  0  0  0  0  0  0  0  0  0  0
  146.1592  134.4404  155.5815 H   0  0  0  0  0  0  0  0  0  0  0  0
  146.9021  132.8829  155.3867 H   0  0  0  0  0  0  0  0  0  0  0  0
  148.7972  134.3694  156.7320 H   0  0  0  0  0  0  0  0  0  0  0  0
  148.2830  133.2891  159.7534 H   0  0  0  0  0  0  0  0  0  0  0  0
  149.1822  134.4847  158.8314 H   0  0  0  0  0  0  0  0  0  0  0  0
  145.9084  134.4991  160.9620 H   0  0  0  0  0  0  0  0  0  0  0  0
  149.6988  134.0442  153.1219 H   0  0  0  0  0  0  0  0  0  0  0  0
  148.8063  131.9867  155.1929 H   0  0  0  0  0  0  0  0  0  0  0  0
  150.2889  131.8734  154.2526 H   0  0  0  0  0  0  0  0  0  0  0  0
  148.7471  131.8148  153.4373 H   0  0  0  0  0  0  0  0  0  0  0  0
  149.9777  134.2464  156.1603 H   0  0  0  0  0  0  0  0  0  0  0  0
  150.4922  135.4615  154.9910 H   0  0  0  0  0  0  0  0  0  0  0  0
  151.2929  133.9079  155.0423 H   0  0  0  0  0  0  0  0  0  0  0  0
  145.1355  134.7144  153.5345 H   0  0  0  0  0  0  0  0  0  0  0  0
  146.0775  136.1618  153.2572 H   0  0  0  0  0  0  0  0  0  0  0  0
  146.0999  135.7888  150.8467 H   0  0  0  0  0  0  0  0  0  0  0  0
  144.4505  135.7767  151.4087 H   0  0  0  0  0  0  0  0  0  0  0  0
  147.7656  134.8201  152.3081 H   0  0  0  0  0  0  0  0  0  0  0  0
  1  2  1  0  0  0  0
  1 22  1  0  0  0  0
  1 23  1  0  0  0  0
  1 24  1  0  0  0  0
  2 21  1  0  0  0  0
  2  3  1  0  0  0  0
  2 25  1  0  0  0  0
  3  4  1  0  0  0  0
  3 26  1  0  0  0  0
  3 27  1  0  0  0  0
  4  5  1  0  0  0  0
  4 28  1  0  0  0  0
  4 29  1  0  0  0  0
  5  6  1  0  0  0  0
  5 20  1  0  0  0  0
  5 48  1  0  0  0  0
  6  7  1  0  0  0  0
  6 17  1  0  0  0  0
  6 30  1  0  0  0  0
  7  8  1  0  0  0  0
  7 31  1  0  0  0  0
  7 32  1  0  0  0  0
  8  9  1  0  0  0  0
  8 33  1  0  0  0  0
  9 10  2  0  0  0  0
  9 11  1  0  0  0  0
 11 12  1  0  0  0  0
 11 34  1  0  0  0  0
 11 35  1  0  0  0  0
 12 16  1  0  0  0  0
 12 13  1  0  0  0  0
 13 14  2  0  0  0  0
 13 36  1  0  0  0  0
 14 15  1  0  0  0  0
 15 16  2  0  0  0  0
 17 18  1  0  0  0  0
 17 19  1  0  0  0  0
 17 37  1  0  0  0  0
 18 38  1  0  0  0  0
 18 39  1  0  0  0  0
 18 40  1  0  0  0  0
 19 41  1  0  0  0  0
 19 42  1  0  0  0  0
 19 43  1  0  0  0  0
 20 21  1  0  0  0  0
 20 44  1  0  0  0  0
 20 45  1  0  0  0  0
 21 46  1  0  0  0  0
 21 47  1  0  0  0  0
M  CHG  1   5   1
M  END
> <s_m_source_file>
AV-unprocessed.smi

> <i_m_source_file_index>
1536

> <i_lp_mmshare_version>
43012

> <i_f3d_flags>
0

> <s_epik_input>
W0NIM11bQ0hdMVtDSDJdW0NIMl1OKFtDSDJdW0NIMl0xKVtDQEBIXShbQ0hdKFtDSDNdKVtDSDNdKVtDSDJdW05IXUMoPU8pW0NIMl1uMltjSF1ubm4y

> <s_epik_cmdline>
J2VwaWtfcHl0aG9uJywgJy1waCcsICc3LjAnLCAnLXRuJywgJzgnLCAnLW1hJywgJzIwMCcsICctbWV0YWxfYmluZGluZycsICctaW1hZScsICc8aW5maWxlLm1hZT4nLCAnLW9tYWUnLCAnPG91dGZpbGUubWFlPic=

> <r_lp_tautomer_probability>
1

> <r_epik_Ionization_Penalty>
0.00109671

> <r_epik_Ionization_Penalty_Charging>
0.00109273

> <r_epik_Ionization_Penalty_Neutral>
3.97951e-06

> <r_epik_State_Penalty>
0.000716588

> <r_epik_Charging_Adjusted_Penalty>
0.00180932

> <i_epik_Tot_Q>
1

> <i_epik_Tot_abs_Q>
1

> <r_epik_Metal_State_Penalty>
-0

> <b_epik_Metal_Only>
0

> <s_lp_Force_Field>
OPLS_2005

> <r_lp_Energy>
37.5817

> <b_lp_Chiralities_Consistent>
1

> <s_lp_Variant>
AV-unprocessed.smi:1536-4

> <Gold.Version>
5.8.1

> <Gold.Id.Protein>
6NUR|6NUR_protein|mol2

> <Gold.PLP.Fitness>
40.1826

> <Gold.PLP.PLP>
-29.0087

> <Gold.PLP.part.hbond>
-3.0000

> <Gold.PLP.part.metal>
0.0000

> <Gold.PLP.part.buried>
-4.1667

> <Gold.PLP.part.nonpolar>
-22.2815

> <Gold.PLP.part.repulsive>
0.0062

> <Gold.PLP.ligand.clash>
0.0000

> <Gold.PLP.ligand.torsion>
0.5321

> <Gold.PLP.Chemscore.Hbond>
3.8720

> <Gold.PLP.Chemscore.CHOScore>
0.0000

> <Gold.PLP.Chemscore.Metal>
0.0000

> <Gold.Chemscore.Hbonds>
donor molecule, donor type, donor heavy atom, donor atom, acceptor molecule, acceptor atom, score
      L1  H     5    48       P1  7948  2.00
      P1  H  6931  6943       L1    15  0.91
      P1  H  6934  6947       L1    15  0.91

> <Gold.PLP.Chemscore.Internal.Correction>
0.6221

> <Gold.Rescore>
     Score         DG    S(hbond)    S(metal)    S(lipo)     H(rot)  DE(clash)    DE(int)     intcor
     10.71     -11.49       1.89        0.00      58.12       2.77       0.00       0.78       ----

> <Gold.Chemscore.Fitness>
10.7092

> <Gold.Chemscore.DG>
-11.4940

> <Gold.Chemscore.ZeroCoef>
-5.4800

> <Gold.Chemscore.Hbond>
1.8884

> <Gold.Chemscore.Metal>
0.0000

> <Gold.Chemscore.Lipo>
58.1213

> <Gold.Chemscore.Internal_Hbond>
0.0000

> <Gold.Chemscore.DEClash>
0.0000

> <Gold.Chemscore.DEInternal>
0.7848

> <Gold.Chemscore.Rot>
2.7709

> <Gold.Chemscore.Internal.Correction>
   9.000000E+99

> <Gold.Chemscore.Hbonds>
donor molecule, donor type, donor heavy atom, donor atom, acceptor molecule, acceptor atom, score
      L1  H     5    48       P1  7948  0.75
      P1  H  6931  6943       L1    15  0.35
      P1  H  6934  6947       L1    15  0.58

> <Gold.Chemscore.Hbond.Weighted>
-6.3074

> <Gold.Chemscore.Metal.Weighted>
-0.0000

> <Gold.Chemscore.Lipo.Weighted>
-6.8002

> <Gold.Chemscore.Internal_Hbond.Weighted>
0.0000

> <Gold.Chemscore.DEClash.Weighted>
0.0000

> <Gold.Chemscore.DEInternal.Weighted>
0.7848

> <Gold.Chemscore.Rot.Weighted>
7.0935

> <Gold.Chemscore.Internal.Correction.Weighted>
   9.000000E+99

> <Gold.Protein.RotatedTorsions>
[ 6907 6896 6895 6894 ] final -164.35 input  -60.11 | X-H torsion
[ 7974 7965 7964 7962 ] final  118.84 input  175.53 | X-H torsion
[ 8008 7997 7996 7995 ] final  168.90 input   59.86 | X-H torsion
[ 10167 10162 10161 10158 ] final  154.93 input  -65.29 | X-H torsion
[ 10718 10713 10712 10709 ] final  -10.05 input   66.30 | X-H torsion
[ 10763 10752 10751 10750 ] final  143.48 input  -60.55 | X-H torsion
[ 11005 11000 10999 10996 ] final -103.42 input  -57.11 | X-H torsion

> <Gold.Protein.ActiveResidues>
 VAL166  LYS551  ARG553  GLY616  TRP617  ASP618  TYR619  PRO620  LYS621  CYS622 
 ASP623  PHE694  ASN695  SER759  ASP760  ASP761  ALA762  ILE779  LEU786  VAL792 
 PHE793  MET794  SER795  GLU796  ALA797  LYS798  CYS799  TRP800  GLU811  SER814 

> <Gold.Protein.RotatedAtoms>
  151.4105  133.3729  159.2743 H   0  0  0  0  0  0  0  0  0  0  0  0  # atno 6907 bound_to 6896
  150.9366  134.8780  159.7596 H   0  0  0  0  0  0  0  0  0  0  0  0  # atno 6908 bound_to 6896
  152.5053  134.4053  159.9482 H   0  0  0  0  0  0  0  0  0  0  0  0  # atno 6909 bound_to 6896
  145.1503  139.3214  143.4570 H   0  0  0  0  0  0  0  0  0  0  0  0  # atno 7974 bound_to 7965
  156.1505  140.1578  156.8777 H   0  0  0  0  0  0  0  0  0  0  0  0  # atno 8008 bound_to 7997
  154.5067  140.0811  156.7945 H   0  0  0  0  0  0  0  0  0  0  0  0  # atno 8009 bound_to 7997
  155.3905  140.3409  155.4253 H   0  0  0  0  0  0  0  0  0  0  0  0  # atno 8010 bound_to 7997
  139.4822  144.5143  151.7976 H   0  0  0  0  0  0  0  0  0  0  0  0  # atno 10167 bound_to 10162
  156.6791  130.5031  149.5977 H   0  0  0  0  0  0  0  0  0  0  0  0  # atno 10718 bound_to 10713
  153.9730  135.2949  155.3426 H   0  0  0  0  0  0  0  0  0  0  0  0  # atno 10763 bound_to 10752
  154.7312  135.5067  153.8970 H   0  0  0  0  0  0  0  0  0  0  0  0  # atno 10764 bound_to 10752
  153.0891  135.6702  154.0002 H   0  0  0  0  0  0  0  0  0  0  0  0  # atno 10765 bound_to 10752
  141.1147  133.8638  157.1483 H   0  0  0  0  0  0  0  0  0  0  0  0  # atno 11005 bound_to 11000
  146.3495  140.1574  142.8591 LP  0  0  0  0  0  0  0  0  0  0  0  0  # atno 17320 bound_to 7965
  145.0438  140.8966  143.5036 LP  0  0  0  0  0  0  0  0  0  0  0  0  # atno 17321 bound_to 7965
  140.4650  144.1669  150.5910 LP  0  0  0  0  0  0  0  0  0  0  0  0  # atno 17342 bound_to 10162
  140.4444  143.2513  151.9430 LP  0  0  0  0  0  0  0  0  0  0  0  0  # atno 17343 bound_to 10162
  156.1881  130.6542  151.1030 LP  0  0  0  0  0  0  0  0  0  0  0  0  # atno 17370 bound_to 10713
  157.7050  131.0760  150.6696 LP  0  0  0  0  0  0  0  0  0  0  0  0  # atno 17371 bound_to 10713
  140.0061  135.0008  157.0295 LP  0  0  0  0  0  0  0  0  0  0  0  0  # atno 17394 bound_to 11000
  140.4680  134.1416  155.7199 LP  0  0  0  0  0  0  0  0  0  0  0  0  # atno 17395 bound_to 11000

$$$$
