AV-unprocessed.smi:189|AV-procd|sdf|1487|dock5
  -GOLD-   2262019303D 1   1.00000     0.00000
 Structure written by MMmdl.
 53 57  0  0  0  0  0  0  0  0  1 V2000
  150.8366  139.9960  155.3307 C   0  0  0  0  0  0  0  0  0  0  0  0
  150.5728  140.8053  156.6087 C   0  0  2  0  0  0  0  0  0  0  0  0
  150.7113  142.3354  156.4192 C   0  0  0  0  0  0  0  0  0  0  0  0
  151.7497  142.7359  157.4673 C   0  0  1  0  0  0  0  0  0  0  0  0
  151.6434  144.1138  158.1312 C   0  0  0  0  0  0  0  0  0  0  0  0
  152.7467  144.2411  159.2041 C   0  0  0  0  0  0  0  0  0  0  0  0
  152.7325  143.0674  160.2118 C   0  0  0  0  0  0  0  0  0  0  0  0
  152.7467  141.6891  159.5170 C   0  0  0  0  0  0  0  0  0  0  0  0
  151.5950  141.6344  158.5014 C   0  0  2  0  0  0  0  0  0  0  0  0
  151.4964  140.4377  157.6863 N   0  0  0  0  0  0  0  0  0  0  0  0
  151.2135  139.3007  158.3612 C   0  0  0  0  0  0  0  0  0  0  0  0
  152.2002  138.5976  158.9775 N   0  0  0  0  0  0  0  0  0  0  0  0
  151.9052  137.4712  159.6337 C   0  0  0  0  0  0  0  0  0  0  0  0
  150.7173  136.8816  159.7893 N   0  0  0  0  0  0  0  0  0  0  0  0
  149.7288  137.5830  159.1624 C   0  0  0  0  0  0  0  0  0  0  0  0
  149.8908  138.7937  158.4337 C   0  0  0  0  0  0  0  0  0  0  0  0
  148.6669  139.2228  157.9382 N   0  0  0  0  0  0  0  0  0  0  0  0
  147.8253  138.3152  158.3525 C   0  0  0  0  0  0  0  0  0  0  0  0
  148.3782  137.2892  159.0868 N   0  0  0  0  0  0  0  0  0  0  0  0
  147.6726  136.1563  159.6670 C   0  0  0  0  0  0  0  0  0  0  0  0
  146.9553  136.4855  160.9986 C   0  0  2  0  0  0  0  0  0  0  0  0
  146.3030  137.7363  160.8714 O   0  0  0  0  0  0  0  0  0  0  0  0
  147.9227  136.5482  162.1828 C   0  0  0  0  0  0  0  0  0  0  0  0
  147.5851  135.2999  162.9891 C   0  0  0  0  0  0  0  0  0  0  0  0
  146.1861  135.1805  162.8040 O   0  0  0  0  0  0  0  0  0  0  0  0
  145.9269  135.4201  161.4284 C   0  0  0  0  0  0  0  0  0  0  0  0
  150.1555  140.2933  154.5332 H   0  0  0  0  0  0  0  0  0  0  0  0
  150.6964  138.9288  155.5036 H   0  0  0  0  0  0  0  0  0  0  0  0
  151.8561  140.1451  154.9733 H   0  0  0  0  0  0  0  0  0  0  0  0
  149.5480  140.6057  156.9254 H   0  0  0  0  0  0  0  0  0  0  0  0
  151.0304  142.6144  155.4145 H   0  0  0  0  0  0  0  0  0  0  0  0
  149.7545  142.8222  156.6126 H   0  0  0  0  0  0  0  0  0  0  0  0
  152.7353  142.6481  157.0049 H   0  0  0  0  0  0  0  0  0  0  0  0
  151.7468  144.9038  157.3869 H   0  0  0  0  0  0  0  0  0  0  0  0
  150.6612  144.2361  158.5893 H   0  0  0  0  0  0  0  0  0  0  0  0
  153.7200  144.2760  158.7130 H   0  0  0  0  0  0  0  0  0  0  0  0
  152.6390  145.1872  159.7352 H   0  0  0  0  0  0  0  0  0  0  0  0
  153.5826  143.1498  160.8894 H   0  0  0  0  0  0  0  0  0  0  0  0
  151.8390  143.1436  160.8329 H   0  0  0  0  0  0  0  0  0  0  0  0
  153.7021  141.5318  159.0146 H   0  0  0  0  0  0  0  0  0  0  0  0
  152.6449  140.8960  160.2585 H   0  0  0  0  0  0  0  0  0  0  0  0
  150.6509  141.7703  159.0339 H   0  0  0  0  0  0  0  0  0  0  0  0
  152.7409  136.9695  160.0988 H   0  0  0  0  0  0  0  0  0  0  0  0
  146.7697  138.3668  158.1283 H   0  0  0  0  0  0  0  0  0  0  0  0
  146.9510  135.7910  158.9350 H   0  0  0  0  0  0  0  0  0  0  0  0
  148.3911  135.3485  159.8138 H   0  0  0  0  0  0  0  0  0  0  0  0
  145.3987  137.6278  161.1243 H   0  0  0  0  0  0  0  0  0  0  0  0
  148.9720  136.5779  161.8864 H   0  0  0  0  0  0  0  0  0  0  0  0
  147.7331  137.4293  162.7985 H   0  0  0  0  0  0  0  0  0  0  0  0
  148.0885  134.4212  162.5825 H   0  0  0  0  0  0  0  0  0  0  0  0
  147.8474  135.3944  164.0430 H   0  0  0  0  0  0  0  0  0  0  0  0
  144.8910  135.7187  161.2626 H   0  0  0  0  0  0  0  0  0  0  0  0
  146.0868  134.4812  160.8985 H   0  0  0  0  0  0  0  0  0  0  0  0
  1  2  1  0  0  0  0
  1 27  1  0  0  0  0
  1 28  1  0  0  0  0
  1 29  1  0  0  0  0
  2 10  1  0  0  0  0
  2  3  1  0  0  0  0
  2 30  1  0  0  0  0
  3  4  1  0  0  0  0
  3 31  1  0  0  0  0
  3 32  1  0  0  0  0
  4  9  1  0  0  0  0
  4  5  1  0  0  0  0
  4 33  1  0  0  0  0
  5  6  1  0  0  0  0
  5 34  1  0  0  0  0
  5 35  1  0  0  0  0
  6  7  1  0  0  0  0
  6 36  1  0  0  0  0
  6 37  1  0  0  0  0
  7  8  1  0  0  0  0
  7 38  1  0  0  0  0
  7 39  1  0  0  0  0
  8  9  1  0  0  0  0
  8 40  1  0  0  0  0
  8 41  1  0  0  0  0
  9 10  1  0  0  0  0
  9 42  1  0  0  0  0
 10 11  1  0  0  0  0
 11 16  1  0  0  0  0
 11 12  2  0  0  0  0
 12 13  1  0  0  0  0
 13 14  2  0  0  0  0
 13 43  1  0  0  0  0
 14 15  1  0  0  0  0
 15 19  1  0  0  0  0
 15 16  2  0  0  0  0
 16 17  1  0  0  0  0
 17 18  2  0  0  0  0
 18 19  1  0  0  0  0
 18 44  1  0  0  0  0
 19 20  1  0  0  0  0
 20 21  1  0  0  0  0
 20 45  1  0  0  0  0
 20 46  1  0  0  0  0
 21 26  1  0  0  0  0
 21 22  1  0  0  0  0
 21 23  1  0  0  0  0
 22 47  1  0  0  0  0
 23 24  1  0  0  0  0
 23 48  1  0  0  0  0
 23 49  1  0  0  0  0
 24 25  1  0  0  0  0
 24 50  1  0  0  0  0
 24 51  1  0  0  0  0
 25 26  1  0  0  0  0
 26 52  1  0  0  0  0
 26 53  1  0  0  0  0
M  END
> <s_m_source_file>
AV-unprocessed.smi

> <i_m_source_file_index>
189

> <i_lp_mmshare_version>
43012

> <i_f3d_flags>
0

> <s_epik_input>
W0NIMl0xW0NIMl1bQ0gyXVtDSDJdW0NASF0oW0NASF0xMilOKFtDQEhdKFtDSDNdKVtDSDJdMiljKG5bY0hdbjMpYyhjMzQpbltjSF1uNFtDSDJdW0NAQF01KFtPSF0pW0NIMl1bQ0gyXU9bQ0gyXTU=

> <s_epik_cmdline>
J2VwaWtfcHl0aG9uJywgJy1waCcsICc3LjAnLCAnLXRuJywgJzgnLCAnLW1hJywgJzIwMCcsICctbWV0YWxfYmluZGluZycsICctaW1hZScsICc8aW5maWxlLm1hZT4nLCAnLW9tYWUnLCAnPG91dGZpbGUubWFlPic=

> <r_lp_tautomer_probability>
1

> <r_epik_Ionization_Penalty>
0.00594261

> <r_epik_Ionization_Penalty_Charging>
0

> <r_epik_Ionization_Penalty_Neutral>
0.00594261

> <r_epik_State_Penalty>
0.00429776

> <r_epik_Charging_Adjusted_Penalty>
0.00429776

> <i_epik_Tot_Q>
0

> <i_epik_Tot_abs_Q>
0

> <r_epik_Metal_State_Penalty>
-0

> <b_epik_Metal_Only>
0

> <s_lp_Force_Field>
OPLS_2005

> <r_lp_Energy>
58.4812

> <b_lp_Chiralities_Consistent>
1

> <s_lp_Variant>
AV-unprocessed.smi:189-13

> <Gold.Version>
5.8.1

> <Gold.Id.Protein>
6NUR|6NUR_protein|mol2

> <Gold.PLP.Fitness>
49.3688

> <Gold.PLP.PLP>
-45.6880

> <Gold.PLP.part.hbond>
-2.0000

> <Gold.PLP.part.metal>
0.0000

> <Gold.PLP.part.buried>
-4.1313

> <Gold.PLP.part.nonpolar>
-40.2681

> <Gold.PLP.part.repulsive>
0.0000

> <Gold.PLP.ligand.clash>
0.0145

> <Gold.PLP.ligand.torsion>
1.1604

> <Gold.PLP.Chemscore.Hbond>
2.0000

> <Gold.PLP.Chemscore.CHOScore>
0.0000

> <Gold.PLP.Chemscore.Metal>
0.0000

> <Gold.Chemscore.Hbonds>
donor molecule, donor type, donor heavy atom, donor atom, acceptor molecule, acceptor atom, score
      P1  H  6896  6908       L1    14  1.00
      P1  H  6934  6947       L1    22  1.00

> <Gold.PLP.Chemscore.Internal.Correction>
0.0162

> <Gold.Rescore>
     Score         DG    S(hbond)    S(metal)    S(lipo)     H(rot)  DE(clash)    DE(int)     intcor
     16.85     -20.42       1.74        0.00     122.27       2.03       0.18       3.38       ----

> <Gold.Chemscore.Fitness>
16.8486

> <Gold.Chemscore.DG>
-20.4160

> <Gold.Chemscore.ZeroCoef>
-5.4800

> <Gold.Chemscore.Hbond>
1.7444

> <Gold.Chemscore.Metal>
0.0000

> <Gold.Chemscore.Lipo>
122.2706

> <Gold.Chemscore.Internal_Hbond>
0.0000

> <Gold.Chemscore.DEClash>
0.1846

> <Gold.Chemscore.DEInternal>
3.3829

> <Gold.Chemscore.Rot>
2.0297

> <Gold.Chemscore.Internal.Correction>
   9.000000E+99

> <Gold.Chemscore.Hbonds>
donor molecule, donor type, donor heavy atom, donor atom, acceptor molecule, acceptor atom, score
      P1  H  6896  6908       L1    14  0.66
      P1  H  6934  6947       L1    22  0.91

> <Gold.Chemscore.Hbond.Weighted>
-5.8263

> <Gold.Chemscore.Metal.Weighted>
-0.0000

> <Gold.Chemscore.Lipo.Weighted>
-14.3057

> <Gold.Chemscore.Internal_Hbond.Weighted>
0.0000

> <Gold.Chemscore.DEClash.Weighted>
0.1846

> <Gold.Chemscore.DEInternal.Weighted>
3.3829

> <Gold.Chemscore.Rot.Weighted>
5.1960

> <Gold.Chemscore.Internal.Correction.Weighted>
   9.000000E+99

> <Gold.Protein.RotatedTorsions>
[ 6907 6896 6895 6894 ] final -161.30 input  -60.11 | X-H torsion
[ 7974 7965 7964 7962 ] final  -99.44 input  175.53 | X-H torsion
[ 8008 7997 7996 7995 ] final  -24.69 input   59.86 | X-H torsion
[ 10167 10162 10161 10158 ] final  166.98 input  -65.29 | X-H torsion
[ 10718 10713 10712 10709 ] final  100.60 input   66.30 | X-H torsion
[ 10763 10752 10751 10750 ] final -173.60 input  -60.55 | X-H torsion
[ 11005 11000 10999 10996 ] final   37.43 input  -57.11 | X-H torsion

> <Gold.Protein.ActiveResidues>
 VAL166  LYS551  ARG553  GLY616  TRP617  ASP618  TYR619  PRO620  LYS621  CYS622 
 ASP623  PHE694  ASN695  SER759  ASP760  ASP761  ALA762  ILE779  LEU786  VAL792 
 PHE793  MET794  SER795  GLU796  ALA797  LYS798  CYS799  TRP800  GLU811  SER814 

> <Gold.Protein.RotatedAtoms>
  151.3625  133.3884  159.2690 H   0  0  0  0  0  0  0  0  0  0  0  0  # atno 6907 bound_to 6896
  150.9714  134.9087  159.7800 H   0  0  0  0  0  0  0  0  0  0  0  0  # atno 6908 bound_to 6896
  152.5186  134.3587  159.9329 H   0  0  0  0  0  0  0  0  0  0  0  0  # atno 6909 bound_to 6896
  145.3076  140.9392  143.2788 H   0  0  0  0  0  0  0  0  0  0  0  0  # atno 7974 bound_to 7965
  154.4515  140.1946  156.0504 H   0  0  0  0  0  0  0  0  0  0  0  0  # atno 8008 bound_to 7997
  156.0658  140.3291  155.7489 H   0  0  0  0  0  0  0  0  0  0  0  0  # atno 8009 bound_to 7997
  155.5340  140.0580  157.2874 H   0  0  0  0  0  0  0  0  0  0  0  0  # atno 8010 bound_to 7997
  139.4935  144.3971  151.9452 H   0  0  0  0  0  0  0  0  0  0  0  0  # atno 10167 bound_to 10162
  157.6850  131.0703  150.5125 H   0  0  0  0  0  0  0  0  0  0  0  0  # atno 10718 bound_to 10713
  154.6060  135.2859  155.0484 H   0  0  0  0  0  0  0  0  0  0  0  0  # atno 10763 bound_to 10752
  154.1732  135.6469  153.5018 H   0  0  0  0  0  0  0  0  0  0  0  0  # atno 10764 bound_to 10752
  153.0175  135.5406  154.6796 H   0  0  0  0  0  0  0  0  0  0  0  0  # atno 10765 bound_to 10752
  140.2226  134.3622  155.7998 H   0  0  0  0  0  0  0  0  0  0  0  0  # atno 11005 bound_to 11000
  144.9042  139.4610  143.6618 LP  0  0  0  0  0  0  0  0  0  0  0  0  # atno 17320 bound_to 7965
  146.3130  139.7814  142.9005 LP  0  0  0  0  0  0  0  0  0  0  0  0  # atno 17321 bound_to 7965
  140.3409  144.3204  150.5967 LP  0  0  0  0  0  0  0  0  0  0  0  0  # atno 17342 bound_to 10162
  140.5567  143.2198  151.7836 LP  0  0  0  0  0  0  0  0  0  0  0  0  # atno 17343 bound_to 10162
  156.5442  130.4215  149.6139 LP  0  0  0  0  0  0  0  0  0  0  0  0  # atno 17370 bound_to 10713
  156.2959  130.7150  151.2010 LP  0  0  0  0  0  0  0  0  0  0  0  0  # atno 17371 bound_to 10713
  141.2222  133.7202  156.8601 LP  0  0  0  0  0  0  0  0  0  0  0  0  # atno 17394 bound_to 11000
  140.1833  134.9017  157.2975 LP  0  0  0  0  0  0  0  0  0  0  0  0  # atno 17395 bound_to 11000

$$$$
