AV-unprocessed.smi:167|AV-procd|sdf|1392|dock10
  -GOLD-   2262019133D 1   1.00000     0.00000
 Structure written by MMmdl.
 51 55  0  0  0  0  0  0  0  0  1 V2000
  142.7063  132.8302  147.7695 O   0  0  0  0  0  0  0  0  0  0  0  0
  143.8731  133.4563  148.2600 C   0  0  0  0  0  0  0  0  0  0  0  0
  144.5134  132.6014  149.3691 C   0  0  2  0  0  0  0  0  0  0  0  0
  143.4800  132.0418  150.3667 C   0  0  0  0  0  0  0  0  0  0  0  0
  144.0006  132.5966  151.7033 C   0  0  1  0  0  0  0  0  0  0  0  0
  145.2777  131.8340  152.1080 C   0  0  0  0  0  0  0  0  0  0  0  0
  146.3008  132.4197  151.1216 C   0  0  0  0  0  0  0  0  0  0  0  0
  145.4211  133.4072  150.3245 C   0  0  2  0  0  0  0  0  0  0  0  0
  144.4831  133.9135  151.3197 N   0  0  0  0  0  0  0  0  0  0  0  0
  144.9005  134.8098  152.2574 C   0  0  0  0  0  0  0  0  0  0  0  0
  144.7437  134.4914  153.5703 N   0  0  0  0  0  0  0  0  0  0  0  0
  145.1388  135.3340  154.5280 C   0  0  0  0  0  0  0  0  0  0  0  0
  145.7107  136.5313  154.4000 N   0  0  0  0  0  0  0  0  0  0  0  0
  145.8854  136.8566  153.0877 C   0  0  0  0  0  0  0  0  0  0  0  0
  145.5238  136.0592  151.9627 C   0  0  0  0  0  0  0  0  0  0  0  0
  145.8931  136.7160  150.7938 N   0  0  0  0  0  0  0  0  0  0  0  0
  146.4291  137.8330  151.2018 C   0  0  0  0  0  0  0  0  0  0  0  0
  146.4387  138.0125  152.5654 N   0  0  0  0  0  0  0  0  0  0  0  0
  146.9941  139.1211  153.2850 C   0  0  0  0  0  0  0  0  0  0  0  0
  146.1943  139.8240  154.3859 C   0  0  0  0  0  0  0  0  0  0  0  0
  146.8806  141.1595  154.0152 C   0  0  0  0  0  0  0  0  0  0  0  0
  146.0084  142.4308  154.0220 C   0  0  0  0  0  0  0  0  0  0  0  0
  145.6393  142.8291  155.3272 O   0  0  0  0  0  0  0  0  0  0  0  0
  148.1639  141.4842  154.8032 C   0  0  0  0  0  0  0  0  0  0  0  0
  148.9239  142.4913  154.1663 O   0  0  0  0  0  0  0  0  0  0  0  0
  147.1341  140.5034  152.6381 C   0  0  0  0  0  0  0  0  0  0  0  0
  141.9550  133.2291  148.1814 H   0  0  0  0  0  0  0  0  0  0  0  0
  144.5696  133.6194  147.4367 H   0  0  0  0  0  0  0  0  0  0  0  0
  143.5983  134.4366  148.6503 H   0  0  0  0  0  0  0  0  0  0  0  0
  145.0684  131.7853  148.9039 H   0  0  0  0  0  0  0  0  0  0  0  0
  142.4799  132.4259  150.1606 H   0  0  0  0  0  0  0  0  0  0  0  0
  143.4279  130.9527  150.3552 H   0  0  0  0  0  0  0  0  0  0  0  0
  143.2270  132.5786  152.4682 H   0  0  0  0  0  0  0  0  0  0  0  0
  145.5611  132.0607  153.1367 H   0  0  0  0  0  0  0  0  0  0  0  0
  145.1684  130.7528  152.0166 H   0  0  0  0  0  0  0  0  0  0  0  0
  147.0940  132.9428  151.6573 H   0  0  0  0  0  0  0  0  0  0  0  0
  146.7662  131.6612  150.4914 H   0  0  0  0  0  0  0  0  0  0  0  0
  146.0021  134.1714  149.8067 H   0  0  0  0  0  0  0  0  0  0  0  0
  144.9719  135.0013  155.5418 H   0  0  0  0  0  0  0  0  0  0  0  0
  146.8291  138.5618  150.5119 H   0  0  0  0  0  0  0  0  0  0  0  0
  147.9553  138.7763  153.6697 H   0  0  0  0  0  0  0  0  0  0  0  0
  145.1215  139.8124  154.1862 H   0  0  0  0  0  0  0  0  0  0  0  0
  146.4019  139.4585  155.3920 H   0  0  0  0  0  0  0  0  0  0  0  0
  146.5310  143.2690  153.5607 H   0  0  0  0  0  0  0  0  0  0  0  0
  145.0937  142.2768  153.4487 H   0  0  0  0  0  0  0  0  0  0  0  0
  145.2556  143.6915  155.2805 H   0  0  0  0  0  0  0  0  0  0  0  0
  147.9351  141.8280  155.8121 H   0  0  0  0  0  0  0  0  0  0  0  0
  148.7875  140.5971  154.9194 H   0  0  0  0  0  0  0  0  0  0  0  0
  148.9655  143.2424  154.7387 H   0  0  0  0  0  0  0  0  0  0  0  0
  148.1172  140.7009  152.2099 H   0  0  0  0  0  0  0  0  0  0  0  0
  146.3484  140.6998  151.9070 H   0  0  0  0  0  0  0  0  0  0  0  0
  1  2  1  0  0  0  0
  1 27  1  0  0  0  0
  2  3  1  0  0  0  0
  2 28  1  0  0  0  0
  2 29  1  0  0  0  0
  3  8  1  0  0  0  0
  3  4  1  0  0  0  0
  3 30  1  0  0  0  0
  4  5  1  0  0  0  0
  4 31  1  0  0  0  0
  4 32  1  0  0  0  0
  5  9  1  0  0  0  0
  5  6  1  0  0  0  0
  5 33  1  0  0  0  0
  6  7  1  0  0  0  0
  6 34  1  0  0  0  0
  6 35  1  0  0  0  0
  7  8  1  0  0  0  0
  7 36  1  0  0  0  0
  7 37  1  0  0  0  0
  8  9  1  0  0  0  0
  8 38  1  0  0  0  0
  9 10  1  0  0  0  0
 10 15  1  0  0  0  0
 10 11  2  0  0  0  0
 11 12  1  0  0  0  0
 12 13  2  0  0  0  0
 12 39  1  0  0  0  0
 13 14  1  0  0  0  0
 14 18  1  0  0  0  0
 14 15  2  0  0  0  0
 15 16  1  0  0  0  0
 16 17  2  0  0  0  0
 17 18  1  0  0  0  0
 17 40  1  0  0  0  0
 18 19  1  0  0  0  0
 19 26  1  0  0  0  0
 19 20  1  0  0  0  0
 19 41  1  0  0  0  0
 20 21  1  0  0  0  0
 20 42  1  0  0  0  0
 20 43  1  0  0  0  0
 21 22  1  0  0  0  0
 21 24  1  0  0  0  0
 21 26  1  0  0  0  0
 22 23  1  0  0  0  0
 22 44  1  0  0  0  0
 22 45  1  0  0  0  0
 23 46  1  0  0  0  0
 24 25  1  0  0  0  0
 24 47  1  0  0  0  0
 24 48  1  0  0  0  0
 25 49  1  0  0  0  0
 26 50  1  0  0  0  0
 26 51  1  0  0  0  0
M  END
> <s_m_source_file>
AV-unprocessed.smi

> <i_m_source_file_index>
167

> <i_lp_mmshare_version>
43012

> <i_f3d_flags>
0

> <s_epik_input>
W09IXVtDSDJdW0NASF0oW0NIMl1bQ0BASF0xMilbQ0BIXShbQ0gyXVtDSDJdMSlOMmMobltjSF1uMyljKGMzNCluW2NIXW40W0NIXShbQ0gyXTUpW0NIMl1DNShbQ0gyXVtPSF0pW0NIMl1bT0hd

> <s_epik_cmdline>
J2VwaWtfcHl0aG9uJywgJy1waCcsICc3LjAnLCAnLXRuJywgJzgnLCAnLW1hJywgJzIwMCcsICctbWV0YWxfYmluZGluZycsICctaW1hZScsICc8aW5maWxlLm1hZT4nLCAnLW9tYWUnLCAnPG91dGZpbGUubWFlPic=

> <r_lp_tautomer_probability>
1

> <r_epik_Ionization_Penalty>
0.0047903

> <r_epik_Ionization_Penalty_Charging>
0

> <r_epik_Ionization_Penalty_Neutral>
0.0047903

> <r_epik_State_Penalty>
0.00341021

> <r_epik_Charging_Adjusted_Penalty>
0.00341021

> <i_epik_Tot_Q>
0

> <i_epik_Tot_abs_Q>
0

> <r_epik_Metal_State_Penalty>
-0

> <b_epik_Metal_Only>
0

> <s_lp_Force_Field>
OPLS_2005

> <r_lp_Energy>
90.0047

> <b_lp_Chiralities_Consistent>
1

> <s_lp_Variant>
AV-unprocessed.smi:167-1

> <Gold.Version>
5.8.1

> <Gold.Id.Protein>
6NUR|6NUR_protein|mol2

> <Gold.PLP.Fitness>
43.9644

> <Gold.PLP.PLP>
-38.6874

> <Gold.PLP.part.hbond>
-3.7324

> <Gold.PLP.part.metal>
0.0000

> <Gold.PLP.part.buried>
5.3565

> <Gold.PLP.part.nonpolar>
-41.3483

> <Gold.PLP.part.repulsive>
2.1194

> <Gold.PLP.ligand.clash>
0.0000

> <Gold.PLP.ligand.torsion>
0.7960

> <Gold.PLP.Chemscore.Hbond>
2.1280

> <Gold.PLP.Chemscore.CHOScore>
0.0000

> <Gold.PLP.Chemscore.Metal>
0.0000

> <Gold.Chemscore.Hbonds>
donor molecule, donor type, donor heavy atom, donor atom, acceptor molecule, acceptor atom, score
      L1  H     1    27       P1 10186  1.00
      L1  H    25    49       P1  8028  1.00
      P1  H  8011  8017       L1    25  0.13

> <Gold.PLP.Chemscore.Internal.Correction>
0.4850

> <Gold.Rescore>
     Score         DG    S(hbond)    S(metal)    S(lipo)     H(rot)  DE(clash)    DE(int)     intcor
      9.71     -13.86       2.12        0.00     103.20       4.20       3.16       1.00       ----

> <Gold.Chemscore.Fitness>
9.7051

> <Gold.Chemscore.DG>
-13.8578

> <Gold.Chemscore.ZeroCoef>
-5.4800

> <Gold.Chemscore.Hbond>
2.1153

> <Gold.Chemscore.Metal>
0.0000

> <Gold.Chemscore.Lipo>
103.2009

> <Gold.Chemscore.Internal_Hbond>
0.0000

> <Gold.Chemscore.DEClash>
3.1568

> <Gold.Chemscore.DEInternal>
0.9959

> <Gold.Chemscore.Rot>
4.2038

> <Gold.Chemscore.Internal.Correction>
   9.000000E+99

> <Gold.Chemscore.Hbonds>
donor molecule, donor type, donor heavy atom, donor atom, acceptor molecule, acceptor atom, score
      L1  H     1    27       P1 10186  0.93
      L1  H    25    49       P1  8028  1.00
      P1  H  8011  8017       L1    25  0.14

> <Gold.Chemscore.Hbond.Weighted>
-7.0650

> <Gold.Chemscore.Metal.Weighted>
-0.0000

> <Gold.Chemscore.Lipo.Weighted>
-12.0745

> <Gold.Chemscore.Internal_Hbond.Weighted>
0.0000

> <Gold.Chemscore.DEClash.Weighted>
3.1568

> <Gold.Chemscore.DEInternal.Weighted>
0.9959

> <Gold.Chemscore.Rot.Weighted>
10.7617

> <Gold.Chemscore.Internal.Correction.Weighted>
   9.000000E+99

> <Gold.Protein.RotatedTorsions>
[ 6907 6896 6895 6894 ] final   96.55 input  -60.11 | X-H torsion
[ 7974 7965 7964 7962 ] final   94.30 input  175.53 | X-H torsion
[ 8008 7997 7996 7995 ] final  -54.58 input   59.86 | X-H torsion
[ 10167 10162 10161 10158 ] final  -44.93 input  -65.29 | X-H torsion
[ 10718 10713 10712 10709 ] final   16.99 input   66.30 | X-H torsion
[ 10763 10752 10751 10750 ] final   10.96 input  -60.55 | X-H torsion
[ 11005 11000 10999 10996 ] final   56.80 input  -57.11 | X-H torsion

> <Gold.Protein.ActiveResidues>
 VAL166  LYS551  ARG553  GLY616  TRP617  ASP618  TYR619  PRO620  LYS621  CYS622 
 ASP623  PHE694  ASN695  SER759  ASP760  ASP761  ALA762  ILE779  LEU786  VAL792 
 PHE793  MET794  SER795  GLU796  ALA797  LYS798  CYS799  TRP800  GLU811  SER814 

> <Gold.Protein.RotatedAtoms>
  152.5433  134.0869  159.8259 H   0  0  0  0  0  0  0  0  0  0  0  0  # atno 6907 bound_to 6896
  151.0963  133.5270  159.2619 H   0  0  0  0  0  0  0  0  0  0  0  0  # atno 6908 bound_to 6896
  151.2042  135.0464  159.8939 H   0  0  0  0  0  0  0  0  0  0  0  0  # atno 6909 bound_to 6896
  145.4675  139.2283  143.2953 H   0  0  0  0  0  0  0  0  0  0  0  0  # atno 7974 bound_to 7965
  154.4167  140.1173  156.5339 H   0  0  0  0  0  0  0  0  0  0  0  0  # atno 8008 bound_to 7997
  155.6578  140.3496  155.4752 H   0  0  0  0  0  0  0  0  0  0  0  0  # atno 8009 bound_to 7997
  155.9739  140.1147  157.0777 H   0  0  0  0  0  0  0  0  0  0  0  0  # atno 8010 bound_to 7997
  140.6878  143.2905  151.3567 H   0  0  0  0  0  0  0  0  0  0  0  0  # atno 10167 bound_to 10162
  157.0757  130.6366  149.5815 H   0  0  0  0  0  0  0  0  0  0  0  0  # atno 10718 bound_to 10713
  153.1977  135.6851  153.8271 H   0  0  0  0  0  0  0  0  0  0  0  0  # atno 10763 bound_to 10752
  153.7548  135.3218  155.3328 H   0  0  0  0  0  0  0  0  0  0  0  0  # atno 10764 bound_to 10752
  154.8154  135.4689  154.0729 H   0  0  0  0  0  0  0  0  0  0  0  0  # atno 10765 bound_to 10752
  140.0501  134.5749  155.9274 H   0  0  0  0  0  0  0  0  0  0  0  0  # atno 11005 bound_to 11000
  146.2416  140.5449  142.8931 LP  0  0  0  0  0  0  0  0  0  0  0  0  # atno 17320 bound_to 7965
  144.7965  140.6133  143.6506 LP  0  0  0  0  0  0  0  0  0  0  0  0  # atno 17321 bound_to 7965
  139.6251  144.0830  152.2427 LP  0  0  0  0  0  0  0  0  0  0  0  0  # atno 17342 bound_to 10162
  140.0286  144.6098  150.7506 LP  0  0  0  0  0  0  0  0  0  0  0  0  # atno 17343 bound_to 10162
  155.9938  130.5000  150.7394 LP  0  0  0  0  0  0  0  0  0  0  0  0  # atno 17370 bound_to 10713
  157.4842  131.0905  151.0502 LP  0  0  0  0  0  0  0  0  0  0  0  0  # atno 17371 bound_to 10713
  141.1926  133.6576  156.5510 LP  0  0  0  0  0  0  0  0  0  0  0  0  # atno 17394 bound_to 11000
  140.3931  134.7423  157.4734 LP  0  0  0  0  0  0  0  0  0  0  0  0  # atno 17395 bound_to 11000

$$$$
