AV-unprocessed.smi:102|AV-procd|sdf|973|dock8
  -GOLD-   2262017523D 1   1.00000     0.00000
 Structure written by MMmdl.
 43 44  0  0  0  0  0  0  0  0  2 V2000
  145.9751  135.4388  161.3902 C   0  0  0  0  0  0  0  0  0  0  0  0
  146.8893  136.3984  160.6392 C   0  0  0  0  0  0  0  0  0  0  0  0
  147.4284  137.3474  161.2086 O   0  0  0  0  0  0  0  0  0  0  0  0
  147.0113  136.0827  159.3411 O   0  0  0  0  0  0  0  0  0  0  0  0
  147.7775  136.9102  158.4797 C   0  0  0  0  0  0  0  0  0  0  0  0
  149.2710  136.7877  158.8306 C   0  0  2  0  0  0  0  0  0  0  0  0
  149.7346  138.0994  159.1568 O   0  0  0  0  0  0  0  0  0  0  0  0
  150.6825  138.5519  158.2307 C   0  0  1  0  0  0  0  0  0  0  0  0
  152.0641  138.5099  158.8527 N   0  0  0  0  0  0  0  0  0  0  0  0
  152.2695  138.0000  160.1249 C   0  0  0  0  0  0  0  0  0  0  0  0
  153.5028  137.9460  160.6670 C   0  0  0  0  0  0  0  0  0  0  0  0
  153.6694  137.4419  161.9020 F   0  0  0  0  0  0  0  0  0  0  0  0
  154.6500  138.4331  159.9042 C   0  0  0  0  0  0  0  0  0  0  0  0
  155.7727  138.3808  160.4040 O   0  0  0  0  0  0  0  0  0  0  0  0
  154.4203  138.9295  158.6544 N   0  5  0  0  0  0  0  0  0  0  0  0
  153.1740  138.9822  158.0996 C   0  0  0  0  0  0  0  0  0  0  0  0
  152.9600  139.4176  156.9685 O   0  0  0  0  0  0  0  0  0  0  0  0
  150.6299  137.6048  157.0269 C   0  0  2  0  0  0  0  0  0  0  0  0
  149.6675  138.0837  156.0927 O   0  0  0  0  0  0  0  0  0  0  0  0
  150.0205  138.9434  155.1223 C   0  0  0  0  0  0  0  0  0  0  0  0
  148.8236  139.4308  154.3163 C   0  0  0  0  0  0  0  0  0  0  0  0
  151.1622  139.3228  154.8639 O   0  0  0  0  0  0  0  0  0  0  0  0
  150.1805  136.3130  157.6851 C   0  0  2  0  0  0  0  0  0  0  0  0
  149.5844  135.4229  156.7474 O   0  0  0  0  0  0  0  0  0  0  0  0
  150.1921  135.1640  155.5770 C   0  0  0  0  0  0  0  0  0  0  0  0
  149.4049  134.1818  154.7203 C   0  0  0  0  0  0  0  0  0  0  0  0
  151.2683  135.6266  155.1993 O   0  0  0  0  0  0  0  0  0  0  0  0
  145.5724  134.6782  160.7205 H   0  0  0  0  0  0  0  0  0  0  0  0
  145.1408  135.9829  161.8330 H   0  0  0  0  0  0  0  0  0  0  0  0
  146.5256  134.9401  162.1879 H   0  0  0  0  0  0  0  0  0  0  0  0
  147.6080  136.6622  157.4315 H   0  0  0  0  0  0  0  0  0  0  0  0
  147.4469  137.9395  158.6232 H   0  0  0  0  0  0  0  0  0  0  0  0
  149.3870  136.1456  159.7044 H   0  0  0  0  0  0  0  0  0  0  0  0
  150.4996  139.6015  157.9938 H   0  0  0  0  0  0  0  0  0  0  0  0
  151.4394  137.6296  160.7065 H   0  0  0  0  0  0  0  0  0  0  0  0
  151.6137  137.4924  156.5690 H   0  0  0  0  0  0  0  0  0  0  0  0
  147.9041  139.3420  154.8955 H   0  0  0  0  0  0  0  0  0  0  0  0
  148.7180  138.8404  153.4061 H   0  0  0  0  0  0  0  0  0  0  0  0
  148.9551  140.4763  154.0369 H   0  0  0  0  0  0  0  0  0  0  0  0
  151.0696  135.8533  158.1201 H   0  0  0  0  0  0  0  0  0  0  0  0
  148.3358  134.3839  154.7907 H   0  0  0  0  0  0  0  0  0  0  0  0
  149.5878  133.1610  155.0551 H   0  0  0  0  0  0  0  0  0  0  0  0
  149.7029  134.2623  153.6748 H   0  0  0  0  0  0  0  0  0  0  0  0
  1  2  1  0  0  0  0
  1 28  1  0  0  0  0
  1 29  1  0  0  0  0
  1 30  1  0  0  0  0
  2  3  2  0  0  0  0
  2  4  1  0  0  0  0
  4  5  1  0  0  0  0
  5  6  1  0  0  0  0
  5 31  1  0  0  0  0
  5 32  1  0  0  0  0
  6 23  1  0  0  0  0
  6  7  1  0  0  0  0
  6 33  1  0  0  0  0
  7  8  1  0  0  0  0
  8  9  1  0  0  0  0
  8 18  1  0  0  0  0
  8 34  1  0  0  0  0
  9 16  1  0  0  0  0
  9 10  1  0  0  0  0
 10 11  2  0  0  0  0
 10 35  1  0  0  0  0
 11 12  1  0  0  0  0
 11 13  1  0  0  0  0
 13 14  2  0  0  0  0
 13 15  1  0  0  0  0
 15 16  1  0  0  0  0
 16 17  2  0  0  0  0
 18 19  1  0  0  0  0
 18 23  1  0  0  0  0
 18 36  1  0  0  0  0
 19 20  1  0  0  0  0
 20 21  1  0  0  0  0
 20 22  2  0  0  0  0
 21 37  1  0  0  0  0
 21 38  1  0  0  0  0
 21 39  1  0  0  0  0
 23 24  1  0  0  0  0
 23 40  1  0  0  0  0
 24 25  1  0  0  0  0
 25 26  1  0  0  0  0
 25 27  2  0  0  0  0
 26 41  1  0  0  0  0
 26 42  1  0  0  0  0
 26 43  1  0  0  0  0
M  CHG  1  15  -1
M  END
> <s_m_source_file>
AV-unprocessed.smi

> <i_m_source_file_index>
102

> <i_lp_mmshare_version>
43012

> <i_f3d_flags>
0

> <s_epik_input>
W0NIM11DKD1PKU9bQ0gyXVtDQEBIXTFPW0NASF0oW0NAQEhdKE9DKD1PKVtDSDNdKVtDQEhdMU9DKD1PKVtDSDNdKW4yW2NIXWMoRiljKD1PKVtuSF1jMj1P

> <s_epik_cmdline>
J2VwaWtfcHl0aG9uJywgJy1waCcsICc3LjAnLCAnLXRuJywgJzgnLCAnLW1hJywgJzIwMCcsICctbWV0YWxfYmluZGluZycsICctaW1hZScsICc8aW5maWxlLm1hZT4nLCAnLW9tYWUnLCAnPG91dGZpbGUubWFlPic=

> <r_epik_Ionization_Penalty>
1.40304

> <r_epik_Ionization_Penalty_Charging>
1.43915e-08

> <r_epik_Ionization_Penalty_Neutral>
1.40304

> <r_epik_State_Penalty>
1.48536

> <r_epik_Charging_Adjusted_Penalty>
1.48536

> <i_epik_Tot_Q>
-1

> <i_epik_Tot_abs_Q>
1

> <r_epik_Metal_State_Penalty>
0.00663881

> <b_epik_Metal_Only>
0

> <s_epik_Chemistry_Notes>
This compound has an ester and may undergo hydrolysis at high or low pH. This compound contains an acetal/aminal-like group ( X-CH(R)-Y where X, Y are N, S, or O) that may be acid/base labile, releasing an aldehyde.

> <s_lp_Force_Field>
OPLS_2005

> <r_lp_Energy>
27.0853

> <b_lp_Chiralities_Consistent>
1

> <s_lp_Variant>
AV-unprocessed.smi:102-29

> <Gold.Version>
5.8.1

> <Gold.Id.Protein>
6NUR|6NUR_protein|mol2

> <Gold.PLP.Fitness>
44.7346

> <Gold.PLP.PLP>
-29.4026

> <Gold.PLP.part.hbond>
-6.9348

> <Gold.PLP.part.metal>
0.0000

> <Gold.PLP.part.buried>
-2.8908

> <Gold.PLP.part.nonpolar>
-19.4877

> <Gold.PLP.part.repulsive>
0.1949

> <Gold.PLP.ligand.clash>
0.0000

> <Gold.PLP.ligand.torsion>
1.2160

> <Gold.PLP.Chemscore.Hbond>
5.8880

> <Gold.PLP.Chemscore.CHOScore>
0.0000

> <Gold.PLP.Chemscore.Metal>
0.0000

> <Gold.Chemscore.Hbonds>
donor molecule, donor type, donor heavy atom, donor atom, acceptor molecule, acceptor atom, score
      P1  H  6931  6943       L1     3  0.80
      P1  H  6934  6947       L1     3  0.96
      P1  H  7989  7998       L1    22  0.80
      P1  H  7997  8008       L1    15  1.47
      P1  H  7997  8009       L1    17  0.58
      P1  H 10752 10765       L1    27  1.00

> <Gold.PLP.Chemscore.Internal.Correction>
0.1000

> <Gold.Rescore>
     Score         DG    S(hbond)    S(metal)    S(lipo)     H(rot)  DE(clash)    DE(int)     intcor
     10.63     -14.64       4.42        0.00      39.39       4.00       0.80       3.21       ----

> <Gold.Chemscore.Fitness>
10.6256

> <Gold.Chemscore.DG>
-14.6389

> <Gold.Chemscore.ZeroCoef>
-5.4800

> <Gold.Chemscore.Hbond>
4.4243

> <Gold.Chemscore.Metal>
0.0000

> <Gold.Chemscore.Lipo>
39.3935

> <Gold.Chemscore.Internal_Hbond>
0.0000

> <Gold.Chemscore.DEClash>
0.8029

> <Gold.Chemscore.DEInternal>
3.2104

> <Gold.Chemscore.Rot>
3.9951

> <Gold.Chemscore.Internal.Correction>
   9.000000E+99

> <Gold.Chemscore.Hbonds>
donor molecule, donor type, donor heavy atom, donor atom, acceptor molecule, acceptor atom, score
      P1  H  6931  6943       L1     3  0.78
      P1  H  6934  6947       L1     3  0.92
      P1  H  7989  7998       L1    22  0.78
      P1  H  7997  8008       L1    15  0.21
      P1  H  7997  8009       L1    17  0.55
      P1  H 10752 10765       L1    27  1.00

> <Gold.Chemscore.Hbond.Weighted>
-14.7773

> <Gold.Chemscore.Metal.Weighted>
-0.0000

> <Gold.Chemscore.Lipo.Weighted>
-4.6090

> <Gold.Chemscore.Internal_Hbond.Weighted>
0.0000

> <Gold.Chemscore.DEClash.Weighted>
0.8029

> <Gold.Chemscore.DEInternal.Weighted>
3.2104

> <Gold.Chemscore.Rot.Weighted>
10.2274

> <Gold.Chemscore.Internal.Correction.Weighted>
   9.000000E+99

> <Gold.Protein.RotatedTorsions>
[ 6907 6896 6895 6894 ] final   27.32 input  -60.11 | X-H torsion
[ 7974 7965 7964 7962 ] final   78.72 input  175.53 | X-H torsion
[ 8008 7997 7996 7995 ] final -143.63 input   59.86 | X-H torsion
[ 10167 10162 10161 10158 ] final  102.95 input  -65.29 | X-H torsion
[ 10718 10713 10712 10709 ] final -157.42 input   66.30 | X-H torsion
[ 10763 10752 10751 10750 ] final -172.15 input  -60.55 | X-H torsion
[ 11005 11000 10999 10996 ] final   68.33 input  -57.11 | X-H torsion

> <Gold.Protein.ActiveResidues>
 VAL166  LYS551  ARG553  GLY616  TRP617  ASP618  TYR619  PRO620  LYS621  CYS622 
 ASP623  PHE694  ASN695  SER759  ASP760  ASP761  ALA762  ILE779  LEU786  VAL792 
 PHE793  MET794  SER795  GLU796  ALA797  LYS798  CYS799  TRP800  GLU811  SER814 

> <Gold.Protein.RotatedAtoms>
  152.0005  134.9931  160.0564 H   0  0  0  0  0  0  0  0  0  0  0  0  # atno 6907 bound_to 6896
  152.1524  133.4525  159.4828 H   0  0  0  0  0  0  0  0  0  0  0  0  # atno 6908 bound_to 6896
  150.6877  134.2091  159.4395 H   0  0  0  0  0  0  0  0  0  0  0  0  # atno 6909 bound_to 6896
  145.6734  139.2503  143.1855 H   0  0  0  0  0  0  0  0  0  0  0  0  # atno 7974 bound_to 7965
  155.5137  140.0585  157.2919 H   0  0  0  0  0  0  0  0  0  0  0  0  # atno 8008 bound_to 7997
  154.4542  140.1964  156.0375 H   0  0  0  0  0  0  0  0  0  0  0  0  # atno 8009 bound_to 7997
  156.0766  140.3253  155.7646 H   0  0  0  0  0  0  0  0  0  0  0  0  # atno 8010 bound_to 7997
  139.7305  144.7037  151.0729 H   0  0  0  0  0  0  0  0  0  0  0  0  # atno 10167 bound_to 10162
  156.5401  130.8559  151.2746 H   0  0  0  0  0  0  0  0  0  0  0  0  # atno 10718 bound_to 10713
  154.6225  135.2877  155.0310 H   0  0  0  0  0  0  0  0  0  0  0  0  # atno 10763 bound_to 10752
  154.1499  135.6505  153.4965 H   0  0  0  0  0  0  0  0  0  0  0  0  # atno 10764 bound_to 10752
  153.0242  135.5353  154.7020 H   0  0  0  0  0  0  0  0  0  0  0  0  # atno 10765 bound_to 10752
  139.9718  134.6888  156.0432 H   0  0  0  0  0  0  0  0  0  0  0  0  # atno 11005 bound_to 11000
  146.1026  140.7526  142.9542 LP  0  0  0  0  0  0  0  0  0  0  0  0  # atno 17320 bound_to 7965
  144.7049  140.3811  143.7126 LP  0  0  0  0  0  0  0  0  0  0  0  0  # atno 17321 bound_to 7965
  140.7770  143.5049  150.9725 LP  0  0  0  0  0  0  0  0  0  0  0  0  # atno 17342 bound_to 10162
  139.8737  143.7160  152.3164 LP  0  0  0  0  0  0  0  0  0  0  0  0  # atno 17343 bound_to 10162
  157.7407  130.9855  150.2394 LP  0  0  0  0  0  0  0  0  0  0  0  0  # atno 17370 bound_to 10713
  156.2980  130.3754  149.7778 LP  0  0  0  0  0  0  0  0  0  0  0  0  # atno 17371 bound_to 10713
  141.1397  133.6567  156.3694 LP  0  0  0  0  0  0  0  0  0  0  0  0  # atno 17394 bound_to 11000
  140.5278  134.6242  157.5340 LP  0  0  0  0  0  0  0  0  0  0  0  0  # atno 17395 bound_to 11000

$$$$
