AV-unprocessed.smi:79|AV-procd|sdf|778|dock3
  -GOLD-   2262017133D 1   1.00000     0.00000
 Structure written by MMmdl.
 56 59  0  0  0  0  0  0  0  0  2 V2000
  145.5495  131.3884  150.6641 C   0  0  0  0  0  0  0  0  0  0  0  0
  145.3628  132.4666  149.5891 C   0  0  1  0  0  0  0  0  0  0  0  0
  145.6245  131.8833  148.3286 O   0  0  0  0  0  0  0  0  0  0  0  0
  143.9348  133.0462  149.5901 C   0  0  0  0  0  0  0  0  0  0  0  0
  143.7473  134.0856  150.6340 N   0  3  2  0  0  0  0  0  0  0  0  0
  144.7492  135.1821  150.5638 C   0  0  0  0  0  0  0  0  0  0  0  0
  144.4437  136.2776  151.5992 C   0  0  0  0  0  0  0  0  0  0  0  0
  144.3244  135.7027  152.9372 N   0  0  0  0  0  0  0  0  0  0  0  0
  145.4755  135.6780  153.6583 C   0  0  0  0  0  0  0  0  0  0  0  0
  146.1027  134.4965  153.9022 N   0  0  0  0  0  0  0  0  0  0  0  0
  147.2439  134.4690  154.5963 C   0  0  0  0  0  0  0  0  0  0  0  0
  147.9180  135.4874  155.1327 N   0  0  0  0  0  0  0  0  0  0  0  0
  147.2896  136.6755  154.9021 C   0  0  0  0  0  0  0  0  0  0  0  0
  146.0786  136.8583  154.1769 C   0  0  0  0  0  0  0  0  0  0  0  0
  145.7443  138.2063  154.1467 N   0  0  0  0  0  0  0  0  0  0  0  0
  146.7055  138.7879  154.8106 C   0  0  0  0  0  0  0  0  0  0  0  0
  147.6682  137.9424  155.3150 N   0  0  0  0  0  0  0  0  0  0  0  0
  148.8412  138.3204  156.0907 C   0  0  0  0  0  0  0  0  0  0  0  0
  150.1703  138.2594  155.3063 C   0  0  0  0  0  0  0  0  0  0  0  0
  150.5981  136.8000  155.0783 C   0  0  0  0  0  0  0  0  0  0  0  0
  151.6253  136.7129  154.1121 O   0  0  0  0  0  0  0  0  0  0  0  0
  150.2299  139.1636  154.0674 C   0  0  0  0  0  0  0  0  0  0  0  0
  151.1213  140.1002  154.7078 O   0  0  0  0  0  0  0  0  0  0  0  0
  151.2839  139.1879  155.8138 C   0  0  0  0  0  0  0  0  0  0  0  0
  143.3753  134.5916  153.0662 C   0  0  1  0  0  0  0  0  0  0  0  0
  141.9208  135.0898  153.0084 C   0  0  0  0  0  0  0  0  0  0  0  0
  143.6516  133.5068  152.0000 C   0  0  0  0  0  0  0  0  0  0  0  0
  145.3779  131.7965  151.6606 H   0  0  0  0  0  0  0  0  0  0  0  0
  146.5630  130.9858  150.6456 H   0  0  0  0  0  0  0  0  0  0  0  0
  144.8577  130.5573  150.5222 H   0  0  0  0  0  0  0  0  0  0  0  0
  146.0983  133.2518  149.7607 H   0  0  0  0  0  0  0  0  0  0  0  0
  146.4785  131.4787  148.3519 H   0  0  0  0  0  0  0  0  0  0  0  0
  143.7328  133.4696  148.6046 H   0  0  0  0  0  0  0  0  0  0  0  0
  143.1978  132.2547  149.7351 H   0  0  0  0  0  0  0  0  0  0  0  0
  145.7455  134.7732  150.7401 H   0  0  0  0  0  0  0  0  0  0  0  0
  144.7633  135.6279  149.5704 H   0  0  0  0  0  0  0  0  0  0  0  0
  145.2195  137.0420  151.5562 H   0  0  0  0  0  0  0  0  0  0  0  0
  143.5108  136.7818  151.3469 H   0  0  0  0  0  0  0  0  0  0  0  0
  147.6794  133.4915  154.7438 H   0  0  0  0  0  0  0  0  0  0  0  0
  146.7358  139.8588  154.9483 H   0  0  0  0  0  0  0  0  0  0  0  0
  148.6778  139.3190  156.4971 H   0  0  0  0  0  0  0  0  0  0  0  0
  148.8863  137.6605  156.9584 H   0  0  0  0  0  0  0  0  0  0  0  0
  150.9762  136.3610  156.0020 H   0  0  0  0  0  0  0  0  0  0  0  0
  149.7595  136.1755  154.7709 H   0  0  0  0  0  0  0  0  0  0  0  0
  151.2325  136.7333  153.2529 H   0  0  0  0  0  0  0  0  0  0  0  0
  150.6916  138.6950  153.1970 H   0  0  0  0  0  0  0  0  0  0  0  0
  149.2732  139.6147  153.8020 H   0  0  0  0  0  0  0  0  0  0  0  0
  151.0774  139.6656  156.7705 H   0  0  0  0  0  0  0  0  0  0  0  0
  152.2748  138.7312  155.8188 H   0  0  0  0  0  0  0  0  0  0  0  0
  143.4953  134.1369  154.0506 H   0  0  0  0  0  0  0  0  0  0  0  0
  141.2219  134.2724  153.1871 H   0  0  0  0  0  0  0  0  0  0  0  0
  141.6736  135.5266  152.0406 H   0  0  0  0  0  0  0  0  0  0  0  0
  141.7380  135.8476  153.7710 H   0  0  0  0  0  0  0  0  0  0  0  0
  142.8646  132.7522  152.0322 H   0  0  0  0  0  0  0  0  0  0  0  0
  144.5848  132.9889  152.2255 H   0  0  0  0  0  0  0  0  0  0  0  0
  142.8465  134.5046  150.4506 H   0  0  0  0  0  0  0  0  0  0  0  0
  1  2  1  0  0  0  0
  1 28  1  0  0  0  0
  1 29  1  0  0  0  0
  1 30  1  0  0  0  0
  2  3  1  0  0  0  0
  2  4  1  0  0  0  0
  2 31  1  0  0  0  0
  3 32  1  0  0  0  0
  4  5  1  0  0  0  0
  4 33  1  0  0  0  0
  4 34  1  0  0  0  0
  5 27  1  0  0  0  0
  5  6  1  0  0  0  0
  5 56  1  0  0  0  0
  6  7  1  0  0  0  0
  6 35  1  0  0  0  0
  6 36  1  0  0  0  0
  7  8  1  0  0  0  0
  7 37  1  0  0  0  0
  7 38  1  0  0  0  0
  8  9  1  0  0  0  0
  8 25  1  0  0  0  0
  9 14  1  0  0  0  0
  9 10  2  0  0  0  0
 10 11  1  0  0  0  0
 11 12  2  0  0  0  0
 11 39  1  0  0  0  0
 12 13  1  0  0  0  0
 13 17  1  0  0  0  0
 13 14  2  0  0  0  0
 14 15  1  0  0  0  0
 15 16  2  0  0  0  0
 16 17  1  0  0  0  0
 16 40  1  0  0  0  0
 17 18  1  0  0  0  0
 18 19  1  0  0  0  0
 18 41  1  0  0  0  0
 18 42  1  0  0  0  0
 19 24  1  0  0  0  0
 19 20  1  0  0  0  0
 19 22  1  0  0  0  0
 20 21  1  0  0  0  0
 20 43  1  0  0  0  0
 20 44  1  0  0  0  0
 21 45  1  0  0  0  0
 22 23  1  0  0  0  0
 22 46  1  0  0  0  0
 22 47  1  0  0  0  0
 23 24  1  0  0  0  0
 24 48  1  0  0  0  0
 24 49  1  0  0  0  0
 25 26  1  0  0  0  0
 25 27  1  0  0  0  0
 25 50  1  0  0  0  0
 26 51  1  0  0  0  0
 26 52  1  0  0  0  0
 26 53  1  0  0  0  0
 27 54  1  0  0  0  0
 27 55  1  0  0  0  0
M  CHG  1   5   1
M  END
> <s_m_source_file>
AV-unprocessed.smi

> <i_m_source_file_index>
79

> <i_lp_mmshare_version>
43012

> <i_f3d_flags>
0

> <s_epik_input>
W0NIM11bQ0BIXShbT0hdKVtDSDJdTjFbQ0gyXVtDSDJdTihbQ0BASF0oW0NIM10pW0NIMl0xKWMobltjSF1uMiljKGMyMyluW2NIXW4zW0NIMl1DNChbQ0gyXVtPSF0pW0NIMl1PW0NIMl00

> <s_epik_cmdline>
J2VwaWtfcHl0aG9uJywgJy1waCcsICc3LjAnLCAnLXRuJywgJzgnLCAnLW1hJywgJzIwMCcsICctbWV0YWxfYmluZGluZycsICctaW1hZScsICc8aW5maWxlLm1hZT4nLCAnLW9tYWUnLCAnPG91dGZpbGUubWFlPic=

> <r_lp_tautomer_probability>
1

> <r_epik_Ionization_Penalty>
0.00515943

> <r_epik_Ionization_Penalty_Charging>
0.00509693

> <r_epik_Ionization_Penalty_Neutral>
6.25007e-05

> <r_epik_State_Penalty>
-0

> <r_epik_Charging_Adjusted_Penalty>
0.00509693

> <i_epik_Tot_Q>
1

> <i_epik_Tot_abs_Q>
1

> <r_epik_Metal_State_Penalty>
-0

> <b_epik_Metal_Only>
0

> <s_lp_Force_Field>
OPLS_2005

> <r_lp_Energy>
48.7837

> <b_lp_Chiralities_Consistent>
1

> <s_lp_Variant>
AV-unprocessed.smi:79-2

> <Gold.Version>
5.8.1

> <Gold.Id.Protein>
6NUR|6NUR_protein|mol2

> <Gold.PLP.Fitness>
46.6793

> <Gold.PLP.PLP>
-33.2991

> <Gold.PLP.part.hbond>
-6.1318

> <Gold.PLP.part.metal>
0.0000

> <Gold.PLP.part.buried>
-1.1818

> <Gold.PLP.part.nonpolar>
-25.7779

> <Gold.PLP.part.repulsive>
0.4216

> <Gold.PLP.ligand.clash>
0.0000

> <Gold.PLP.ligand.torsion>
1.2854

> <Gold.PLP.Chemscore.Hbond>
4.9825

> <Gold.PLP.Chemscore.CHOScore>
0.0000

> <Gold.PLP.Chemscore.Metal>
0.0000

> <Gold.Chemscore.Hbonds>
donor molecule, donor type, donor heavy atom, donor atom, acceptor molecule, acceptor atom, score
      L1  H     5    56       P1 10186  1.95
      L1  H    21    45       P1  7949  0.94
      P1  H  7989  7998       L1    23  0.98
      P1  H 10752 10763       L1    21  1.00

> <Gold.PLP.Chemscore.Internal.Correction>
1.0034

> <Gold.Rescore>
     Score         DG    S(hbond)    S(metal)    S(lipo)     H(rot)  DE(clash)    DE(int)     intcor
     14.47     -16.04       2.94        0.00      87.87       3.72       0.18       1.39       ----

> <Gold.Chemscore.Fitness>
14.4673

> <Gold.Chemscore.DG>
-16.0450

> <Gold.Chemscore.ZeroCoef>
-5.4800

> <Gold.Chemscore.Hbond>
2.9384

> <Gold.Chemscore.Metal>
0.0000

> <Gold.Chemscore.Lipo>
87.8670

> <Gold.Chemscore.Internal_Hbond>
0.0000

> <Gold.Chemscore.DEClash>
0.1831

> <Gold.Chemscore.DEInternal>
1.3946

> <Gold.Chemscore.Rot>
3.7226

> <Gold.Chemscore.Internal.Correction>
   9.000000E+99

> <Gold.Chemscore.Hbonds>
donor molecule, donor type, donor heavy atom, donor atom, acceptor molecule, acceptor atom, score
      L1  H     5    56       P1 10186  0.48
      L1  H    21    45       P1  7949  0.55
      P1  H  7989  7998       L1    23  0.27
      P1  H 10752 10763       L1    21  0.82

> <Gold.Chemscore.Hbond.Weighted>
-9.8144

> <Gold.Chemscore.Metal.Weighted>
-0.0000

> <Gold.Chemscore.Lipo.Weighted>
-10.2804

> <Gold.Chemscore.Internal_Hbond.Weighted>
0.0000

> <Gold.Chemscore.DEClash.Weighted>
0.1831

> <Gold.Chemscore.DEInternal.Weighted>
1.3946

> <Gold.Chemscore.Rot.Weighted>
9.5298

> <Gold.Chemscore.Internal.Correction.Weighted>
   9.000000E+99

> <Gold.Protein.RotatedTorsions>
[ 6907 6896 6895 6894 ] final  162.91 input  -60.11 | X-H torsion
[ 7974 7965 7964 7962 ] final  142.75 input  175.53 | X-H torsion
[ 8008 7997 7996 7995 ] final   42.97 input   59.86 | X-H torsion
[ 10167 10162 10161 10158 ] final  112.08 input  -65.29 | X-H torsion
[ 10718 10713 10712 10709 ] final  -12.19 input   66.30 | X-H torsion
[ 10763 10752 10751 10750 ] final   35.98 input  -60.55 | X-H torsion
[ 11005 11000 10999 10996 ] final   11.20 input  -57.11 | X-H torsion

> <Gold.Protein.ActiveResidues>
 VAL166  LYS551  ARG553  GLY616  TRP617  ASP618  TYR619  PRO620  LYS621  CYS622 
 ASP623  PHE694  ASN695  SER759  ASP760  ASP761  ALA762  ILE779  LEU786  VAL792 
 PHE793  MET794  SER795  GLU796  ALA797  LYS798  CYS799  TRP800  GLU811  SER814 

> <Gold.Protein.RotatedAtoms>
  151.9333  133.3617  159.3938 H   0  0  0  0  0  0  0  0  0  0  0  0  # atno 6907 bound_to 6896
  150.7013  134.4515  159.5348 H   0  0  0  0  0  0  0  0  0  0  0  0  # atno 6908 bound_to 6896
  152.2159  134.8458  160.0542 H   0  0  0  0  0  0  0  0  0  0  0  0  # atno 6909 bound_to 6896
  144.8980  139.5462  143.5767 H   0  0  0  0  0  0  0  0  0  0  0  0  # atno 7974 bound_to 7965
  155.2950  140.3381  155.4250 H   0  0  0  0  0  0  0  0  0  0  0  0  # atno 8008 bound_to 7997
  156.2028  140.1739  156.7902 H   0  0  0  0  0  0  0  0  0  0  0  0  # atno 8009 bound_to 7997
  154.5581  140.0692  156.8760 H   0  0  0  0  0  0  0  0  0  0  0  0  # atno 8010 bound_to 7997
  139.6563  144.7129  151.1951 H   0  0  0  0  0  0  0  0  0  0  0  0  # atno 10167 bound_to 10162
  156.6482  130.4947  149.6071 H   0  0  0  0  0  0  0  0  0  0  0  0  # atno 10718 bound_to 10713
  153.0096  135.6318  154.1913 H   0  0  0  0  0  0  0  0  0  0  0  0  # atno 10763 bound_to 10752
  154.1656  135.2821  155.3098 H   0  0  0  0  0  0  0  0  0  0  0  0  # atno 10764 bound_to 10752
  154.5948  135.5606  153.7375 H   0  0  0  0  0  0  0  0  0  0  0  0  # atno 10765 bound_to 10752
  140.5059  134.0700  155.7805 H   0  0  0  0  0  0  0  0  0  0  0  0  # atno 11005 bound_to 11000
  146.3092  139.7687  142.9032 LP  0  0  0  0  0  0  0  0  0  0  0  0  # atno 17320 bound_to 7965
  145.3665  141.0335  143.3255 LP  0  0  0  0  0  0  0  0  0  0  0  0  # atno 17321 bound_to 7965
  140.7560  143.6067  150.8646 LP  0  0  0  0  0  0  0  0  0  0  0  0  # atno 17342 bound_to 10162
  139.9720  143.6046  152.2970 LP  0  0  0  0  0  0  0  0  0  0  0  0  # atno 17343 bound_to 10162
  156.2105  130.6676  151.1264 LP  0  0  0  0  0  0  0  0  0  0  0  0  # atno 17370 bound_to 10713
  157.7149  131.0715  150.6363 LP  0  0  0  0  0  0  0  0  0  0  0  0  # atno 17371 bound_to 10713
  141.1411  133.9136  157.2323 LP  0  0  0  0  0  0  0  0  0  0  0  0  # atno 17394 bound_to 11000
  139.9686  135.0134  156.9454 LP  0  0  0  0  0  0  0  0  0  0  0  0  # atno 17395 bound_to 11000

$$$$
