AV-unprocessed.smi:110|AV-procd|sdf|1064|dock5
  -GOLD-   2262018143D 1   1.00000     0.00000
 Structure written by MMmdl.
 46 50  0  0  0  0  0  0  0  0  1 V2000
  146.6016  142.6959  153.8792 O   0  0  0  0  0  0  0  0  0  0  0  0
  146.8228  141.3905  153.3886 C   0  0  0  0  0  0  0  0  0  0  0  0
  147.9547  140.6339  154.1164 C   0  0  2  0  0  0  0  0  0  0  0  0
  149.2528  141.0965  153.7734 O   0  0  0  0  0  0  0  0  0  0  0  0
  150.1978  140.2135  154.3047 C   0  0  1  0  0  0  0  0  0  0  0  0
  150.6954  140.7887  155.5959 N   0  0  0  0  0  0  0  0  0  0  0  0
  150.3202  141.9457  156.2451 C   0  0  0  0  0  0  0  0  0  0  0  0
  150.9468  142.1837  157.3652 N   0  0  0  0  0  0  0  0  0  0  0  0
  151.8455  141.1302  157.4878 C   0  0  0  0  0  0  0  0  0  0  0  0
  152.8282  140.7570  158.4493 C   0  0  0  0  0  0  0  0  0  0  0  0
  153.1087  141.4536  159.5754 N   0  0  0  0  0  0  0  0  0  0  0  0
  153.5612  140.7266  160.7704 C   0  0  0  0  0  0  0  0  0  0  0  0
  153.3419  141.6462  161.9865 C   0  0  0  0  0  0  0  0  0  0  0  0
  152.8576  142.8924  161.3185 C   0  0  0  0  0  0  0  0  0  0  0  0
  152.5487  144.1207  161.9286 C   0  0  0  0  0  0  0  0  0  0  0  0
  152.1276  145.1855  161.1036 C   0  0  0  0  0  0  0  0  0  0  0  0
  152.0335  145.0105  159.7032 C   0  0  0  0  0  0  0  0  0  0  0  0
  152.3512  143.7676  159.1124 C   0  0  0  0  0  0  0  0  0  0  0  0
  152.7497  142.7014  159.9446 C   0  0  0  0  0  0  0  0  0  0  0  0
  153.4951  139.5920  158.2465 N   0  0  0  0  0  0  0  0  0  0  0  0
  153.2522  138.8592  157.1563 C   0  0  0  0  0  0  0  0  0  0  0  0
  152.3858  139.0944  156.1695 N   0  0  0  0  0  0  0  0  0  0  0  0
  151.6884  140.2471  156.3827 C   0  0  0  0  0  0  0  0  0  0  0  0
  149.4760  138.8714  154.5694 C   0  0  2  0  0  0  0  0  0  0  0  0
  150.1250  137.7641  153.9724 O   0  0  0  0  0  0  0  0  0  0  0  0
  148.0665  139.1070  154.0164 C   0  0  2  0  0  0  0  0  0  0  0  0
  147.9298  138.6449  152.6839 O   0  0  0  0  0  0  0  0  0  0  0  0
  147.8262  140.8661  155.1752 H   0  0  0  0  0  0  0  0  0  0  0  0
  151.0818  140.1443  153.6694 H   0  0  0  0  0  0  0  0  0  0  0  0
  149.4123  138.7002  155.6453 H   0  0  0  0  0  0  0  0  0  0  0  0
  147.3079  138.6128  154.6240 H   0  0  0  0  0  0  0  0  0  0  0  0
  146.6645  142.6780  154.8221 H   0  0  0  0  0  0  0  0  0  0  0  0
  145.8926  140.8264  153.4615 H   0  0  0  0  0  0  0  0  0  0  0  0
  147.0603  141.4691  152.3275 H   0  0  0  0  0  0  0  0  0  0  0  0
  149.5603  142.6148  155.8688 H   0  0  0  0  0  0  0  0  0  0  0  0
  153.0122  139.7909  160.8856 H   0  0  0  0  0  0  0  0  0  0  0  0
  154.6185  140.4812  160.6628 H   0  0  0  0  0  0  0  0  0  0  0  0
  152.5810  141.2560  162.6629 H   0  0  0  0  0  0  0  0  0  0  0  0
  154.2637  141.8267  162.5404 H   0  0  0  0  0  0  0  0  0  0  0  0
  152.6355  144.2477  162.9975 H   0  0  0  0  0  0  0  0  0  0  0  0
  151.8840  146.1416  161.5430 H   0  0  0  0  0  0  0  0  0  0  0  0
  151.7209  145.8352  159.0797 H   0  0  0  0  0  0  0  0  0  0  0  0
  152.2919  143.6461  158.0409 H   0  0  0  0  0  0  0  0  0  0  0  0
  153.8341  137.9542  157.0620 H   0  0  0  0  0  0  0  0  0  0  0  0
  149.6189  137.4880  153.2239 H   0  0  0  0  0  0  0  0  0  0  0  0
  148.3305  137.7908  152.6199 H   0  0  0  0  0  0  0  0  0  0  0  0
  1  2  1  0  0  0  0
  1 32  1  0  0  0  0
  2  3  1  0  0  0  0
  2 33  1  0  0  0  0
  2 34  1  0  0  0  0
  3 28  1  0  0  0  0
  3 26  1  0  0  0  0
  3  4  1  0  0  0  0
  4  5  1  0  0  0  0
  5 29  1  0  0  0  0
  5  6  1  0  0  0  0
  5 24  1  0  0  0  0
  6 23  1  0  0  0  0
  6  7  1  0  0  0  0
  7  8  2  0  0  0  0
  7 35  1  0  0  0  0
  8  9  1  0  0  0  0
  9 23  2  0  0  0  0
  9 10  1  0  0  0  0
 10 11  1  0  0  0  0
 10 20  2  0  0  0  0
 11 19  1  0  0  0  0
 11 12  1  0  0  0  0
 12 13  1  0  0  0  0
 12 36  1  0  0  0  0
 12 37  1  0  0  0  0
 13 14  1  0  0  0  0
 13 38  1  0  0  0  0
 13 39  1  0  0  0  0
 14 19  2  0  0  0  0
 14 15  1  0  0  0  0
 15 16  2  0  0  0  0
 15 40  1  0  0  0  0
 16 17  1  0  0  0  0
 16 41  1  0  0  0  0
 17 18  2  0  0  0  0
 17 42  1  0  0  0  0
 18 19  1  0  0  0  0
 18 43  1  0  0  0  0
 20 21  1  0  0  0  0
 21 22  2  0  0  0  0
 21 44  1  0  0  0  0
 22 23  1  0  0  0  0
 24 30  1  0  0  0  0
 24 25  1  0  0  0  0
 24 26  1  0  0  0  0
 25 45  1  0  0  0  0
 26 31  1  0  0  0  0
 26 27  1  0  0  0  0
 27 46  1  0  0  0  0
M  END
> <s_m_source_file>
AV-unprocessed.smi

> <i_m_source_file_index>
110

> <i_lp_mmshare_version>
43012

> <i_f3d_flags>
0

> <s_epik_input>
W09IXVtDSDJdW0NASF0xT1tDQEhdKFtDQEhdKFtPSF0pW0NAQEhdMVtPSF0pbihbY0hdbjIpYyhjMjMpbltjSF1uYzNOKFtDSDJdW0NIMl00KWMoYzQ1KVtjSF1bY0hdW2NIXVtjSF01

> <s_epik_cmdline>
J2VwaWtfcHl0aG9uJywgJy1waCcsICc3LjAnLCAnLXRuJywgJzgnLCAnLW1hJywgJzIwMCcsICctbWV0YWxfYmluZGluZycsICctaW1hZScsICc8aW5maWxlLm1hZT4nLCAnLW9tYWUnLCAnPG91dGZpbGUubWFlPic=

> <r_lp_tautomer_probability>
1

> <r_epik_Ionization_Penalty>
0.00068475

> <r_epik_Ionization_Penalty_Charging>
0

> <r_epik_Ionization_Penalty_Neutral>
0.00068475

> <r_epik_State_Penalty>
0.000417442

> <r_epik_Charging_Adjusted_Penalty>
0.000417442

> <i_epik_Tot_Q>
0

> <i_epik_Tot_abs_Q>
0

> <r_epik_Metal_State_Penalty>
-0

> <b_epik_Metal_Only>
0

> <s_epik_Chemistry_Notes>
This compound contains an acetal/aminal-like group ( X-CH(R)-Y where X, Y are N, S, or O) that may be acid/base labile, releasing an aldehyde.

> <s_lp_Force_Field>
OPLS_2005

> <r_lp_Energy>
64.7575

> <b_lp_Chiralities_Consistent>
1

> <s_lp_Variant>
AV-unprocessed.smi:110-2

> <Gold.Version>
5.8.1

> <Gold.Id.Protein>
6NUR|6NUR_protein|mol2

> <Gold.PLP.Fitness>
63.6506

> <Gold.PLP.PLP>
-52.3582

> <Gold.PLP.part.hbond>
-6.5552

> <Gold.PLP.part.metal>
0.0000

> <Gold.PLP.part.buried>
1.7798

> <Gold.PLP.part.nonpolar>
-47.2386

> <Gold.PLP.part.repulsive>
2.0400

> <Gold.PLP.ligand.clash>
0.1911

> <Gold.PLP.ligand.torsion>
0.3893

> <Gold.PLP.Chemscore.Hbond>
3.0548

> <Gold.PLP.Chemscore.CHOScore>
1.0000

> <Gold.PLP.Chemscore.Metal>
0.0000

> <Gold.Chemscore.Hbonds>
donor molecule, donor type, donor heavy atom, donor atom, acceptor molecule, acceptor atom, score
      L1  H    25    45       P1  7948  1.00
      L1  H    27    46       P1  7948  1.00
      P1  H  7997  8009       L1    20  0.10
      P1  H  8011  8017       L1     4  0.94
      L1  C     7    35       P1  8028  1.00

> <Gold.PLP.Chemscore.Internal.Correction>
0.0976

> <Gold.Rescore>
     Score         DG    S(hbond)    S(metal)    S(lipo)     H(rot)  DE(clash)    DE(int)     intcor
     13.64     -20.22       2.60        0.00     125.71       3.38       4.74       1.84       ----

> <Gold.Chemscore.Fitness>
13.6359

> <Gold.Chemscore.DG>
-20.2204

> <Gold.Chemscore.ZeroCoef>
-5.4800

> <Gold.Chemscore.Hbond>
2.6033

> <Gold.Chemscore.Metal>
0.0000

> <Gold.Chemscore.Lipo>
125.7057

> <Gold.Chemscore.Internal_Hbond>
0.0000

> <Gold.Chemscore.DEClash>
4.7444

> <Gold.Chemscore.DEInternal>
1.8401

> <Gold.Chemscore.Rot>
3.3837

> <Gold.Chemscore.Internal.Correction>
   9.000000E+99

> <Gold.Chemscore.Hbonds>
donor molecule, donor type, donor heavy atom, donor atom, acceptor molecule, acceptor atom, score
      L1  H    25    45       P1  7948  0.77
      L1  H    27    46       P1  7948  0.99
      P1  H  8011  8017       L1     4  0.83

> <Gold.Chemscore.Hbond.Weighted>
-8.6950

> <Gold.Chemscore.Metal.Weighted>
-0.0000

> <Gold.Chemscore.Lipo.Weighted>
-14.7076

> <Gold.Chemscore.Internal_Hbond.Weighted>
0.0000

> <Gold.Chemscore.DEClash.Weighted>
4.7444

> <Gold.Chemscore.DEInternal.Weighted>
1.8401

> <Gold.Chemscore.Rot.Weighted>
8.6622

> <Gold.Chemscore.Internal.Correction.Weighted>
   9.000000E+99

> <Gold.Protein.RotatedTorsions>
[ 6907 6896 6895 6894 ] final  -55.92 input  -60.11 | X-H torsion
[ 7974 7965 7964 7962 ] final   94.22 input  175.53 | X-H torsion
[ 8008 7997 7996 7995 ] final  119.49 input   59.86 | X-H torsion
[ 10167 10162 10161 10158 ] final  138.57 input  -65.29 | X-H torsion
[ 10718 10713 10712 10709 ] final -107.98 input   66.30 | X-H torsion
[ 10763 10752 10751 10750 ] final  123.70 input  -60.55 | X-H torsion
[ 11005 11000 10999 10996 ] final -162.72 input  -57.11 | X-H torsion

> <Gold.Protein.ActiveResidues>
 VAL166  LYS551  ARG553  GLY616  TRP617  ASP618  TYR619  PRO620  LYS621  CYS622 
 ASP623  PHE694  ASN695  SER759  ASP760  ASP761  ALA762  ILE779  LEU786  VAL792 
 PHE793  MET794  SER795  GLU796  ALA797  LYS798  CYS799  TRP800  GLU811  SER814 

> <Gold.Protein.RotatedAtoms>
  150.8211  134.7418  159.6772 H   0  0  0  0  0  0  0  0  0  0  0  0  # atno 6907 bound_to 6896
  152.4326  134.5745  159.9940 H   0  0  0  0  0  0  0  0  0  0  0  0  # atno 6908 bound_to 6896
  151.5929  133.3327  159.3067 H   0  0  0  0  0  0  0  0  0  0  0  0  # atno 6909 bound_to 6896
  145.4685  139.2283  143.2948 H   0  0  0  0  0  0  0  0  0  0  0  0  # atno 7974 bound_to 7965
  156.2598  140.2851  156.1000 H   0  0  0  0  0  0  0  0  0  0  0  0  # atno 8008 bound_to 7997
  155.1370  140.0395  157.2806 H   0  0  0  0  0  0  0  0  0  0  0  0  # atno 8009 bound_to 7997
  154.6558  140.2555  155.7170 H   0  0  0  0  0  0  0  0  0  0  0  0  # atno 8010 bound_to 7997
  139.5106  144.6346  151.5730 H   0  0  0  0  0  0  0  0  0  0  0  0  # atno 10167 bound_to 10162
  156.0463  130.5690  150.7897 H   0  0  0  0  0  0  0  0  0  0  0  0  # atno 10718 bound_to 10713
  153.6497  135.3365  155.3096 H   0  0  0  0  0  0  0  0  0  0  0  0  # atno 10763 bound_to 10752
  154.8540  135.4338  154.1917 H   0  0  0  0  0  0  0  0  0  0  0  0  # atno 10764 bound_to 10752
  153.2856  135.7013  153.7417 H   0  0  0  0  0  0  0  0  0  0  0  0  # atno 10765 bound_to 10752
  140.6061  134.4897  157.5210 H   0  0  0  0  0  0  0  0  0  0  0  0  # atno 11005 bound_to 11000
  146.2410  140.5461  142.8934 LP  0  0  0  0  0  0  0  0  0  0  0  0  # atno 17320 bound_to 7965
  144.7959  140.6122  143.6510 LP  0  0  0  0  0  0  0  0  0  0  0  0  # atno 17321 bound_to 7965
  140.6090  143.9471  150.6439 LP  0  0  0  0  0  0  0  0  0  0  0  0  # atno 17342 bound_to 10162
  140.2707  143.3458  152.1240 LP  0  0  0  0  0  0  0  0  0  0  0  0  # atno 17343 bound_to 10162
  157.5341  131.0938  150.9915 LP  0  0  0  0  0  0  0  0  0  0  0  0  # atno 17370 bound_to 10713
  157.0214  130.5675  149.5332 LP  0  0  0  0  0  0  0  0  0  0  0  0  # atno 17371 bound_to 10713
  139.9212  134.8146  156.1207 LP  0  0  0  0  0  0  0  0  0  0  0  0  # atno 17394 bound_to 11000
  141.0840  133.6742  156.2396 LP  0  0  0  0  0  0  0  0  0  0  0  0  # atno 17395 bound_to 11000

$$$$
