AV-unprocessed.smi:153|AV-procd|sdf|1261|dock1
  -GOLD-   2262018503D 1   1.00000     0.00000
 Structure written by MMmdl.
 59 62  0  0  0  0  0  0  0  0  1 V2000
  152.7802  140.7982  158.9308 C   0  0  0  0  0  0  0  0  0  0  0  0
  151.6448  141.8336  158.9199 C   0  0  1  0  0  0  0  0  0  0  0  0
  152.2047  143.0823  159.3205 O   0  0  0  0  0  0  0  0  0  0  0  0
  151.5124  144.1303  158.6659 C   0  0  0  0  0  0  0  0  0  0  0  0
  151.2956  143.5591  157.2733 C   0  0  0  0  0  0  0  0  0  0  0  0
  150.9531  142.0985  157.5524 C   0  0  2  0  0  0  0  0  0  0  0  0
  149.5520  142.0143  157.7555 O   0  0  0  0  0  0  0  0  0  0  0  0
  151.3231  141.1357  156.3933 C   0  0  0  0  0  0  0  0  0  0  0  0
  150.1725  140.6941  155.6190 N   0  0  0  0  0  0  0  0  0  0  0  0
  149.3791  141.4720  154.8092 C   0  0  0  0  0  0  0  0  0  0  0  0
  148.4084  140.8381  154.2124 N   0  0  0  0  0  0  0  0  0  0  0  0
  148.5296  139.5201  154.6439 C   0  0  0  0  0  0  0  0  0  0  0  0
  147.8147  138.3072  154.3898 C   0  0  0  0  0  0  0  0  0  0  0  0
  146.7454  138.1919  153.5460 N   0  0  0  0  0  0  0  0  0  0  0  0
  146.6128  139.1309  152.4385 C   0  0  0  0  0  0  0  0  0  0  0  0
  146.0419  136.9123  153.4267 C   0  0  0  0  0  0  0  0  0  0  0  0
  144.6936  137.0429  152.6825 C   0  0  2  0  0  0  0  0  0  0  0  0
  143.8877  137.9690  153.3831 O   0  0  0  0  0  0  0  0  0  0  0  0
  143.9354  135.6988  152.6412 C   0  0  0  0  0  0  0  0  0  0  0  0
  144.3932  134.7471  151.6273 N   0  0  0  0  0  0  0  0  0  0  0  0
  143.5877  133.5304  151.6578 C   0  0  0  0  0  0  0  0  0  0  0  0
  144.0505  132.5038  150.6093 C   0  0  0  0  0  0  0  0  0  0  0  0
  145.4249  132.1979  150.8184 O   0  0  0  0  0  0  0  0  0  0  0  0
  146.2577  133.3503  150.7507 C   0  0  0  0  0  0  0  0  0  0  0  0
  145.8002  134.3820  151.7965 C   0  0  0  0  0  0  0  0  0  0  0  0
  148.2491  137.1972  155.0483 N   0  0  0  0  0  0  0  0  0  0  0  0
  149.2978  137.2489  155.8722 C   0  0  0  0  0  0  0  0  0  0  0  0
  150.0556  138.2977  156.1873 N   0  0  0  0  0  0  0  0  0  0  0  0
  149.6318  139.4221  155.5445 C   0  0  0  0  0  0  0  0  0  0  0  0
  152.4227  139.8101  158.6414 H   0  0  0  0  0  0  0  0  0  0  0  0
  153.2078  140.7092  159.9297 H   0  0  0  0  0  0  0  0  0  0  0  0
  153.5875  141.0822  158.2555 H   0  0  0  0  0  0  0  0  0  0  0  0
  150.9072  141.5436  159.6707 H   0  0  0  0  0  0  0  0  0  0  0  0
  150.5627  144.3183  159.1689 H   0  0  0  0  0  0  0  0  0  0  0  0
  152.0919  145.0535  158.6586 H   0  0  0  0  0  0  0  0  0  0  0  0
  150.5349  144.0926  156.7015 H   0  0  0  0  0  0  0  0  0  0  0  0
  152.2339  143.6258  156.7217 H   0  0  0  0  0  0  0  0  0  0  0  0
  149.2309  142.8735  157.9822 H   0  0  0  0  0  0  0  0  0  0  0  0
  152.0219  141.6132  155.7062 H   0  0  0  0  0  0  0  0  0  0  0  0
  151.8288  140.2509  156.7819 H   0  0  0  0  0  0  0  0  0  0  0  0
  149.5482  142.5302  154.6690 H   0  0  0  0  0  0  0  0  0  0  0  0
  146.2763  140.1029  152.7991 H   0  0  0  0  0  0  0  0  0  0  0  0
  145.8801  138.7793  151.7116 H   0  0  0  0  0  0  0  0  0  0  0  0
  147.5615  139.2553  151.9152 H   0  0  0  0  0  0  0  0  0  0  0  0
  146.6945  136.2010  152.9191 H   0  0  0  0  0  0  0  0  0  0  0  0
  145.8937  136.4838  154.4190 H   0  0  0  0  0  0  0  0  0  0  0  0
  144.8644  137.4240  151.6768 H   0  0  0  0  0  0  0  0  0  0  0  0
  144.0447  138.8310  153.0295 H   0  0  0  0  0  0  0  0  0  0  0  0
  144.0060  135.2170  153.6177 H   0  0  0  0  0  0  0  0  0  0  0  0
  142.8740  135.9081  152.4985 H   0  0  0  0  0  0  0  0  0  0  0  0
  143.6375  133.0785  152.6498 H   0  0  0  0  0  0  0  0  0  0  0  0
  142.5402  133.7764  151.4798 H   0  0  0  0  0  0  0  0  0  0  0  0
  143.4650  131.5880  150.6904 H   0  0  0  0  0  0  0  0  0  0  0  0
  143.9053  132.8895  149.5992 H   0  0  0  0  0  0  0  0  0  0  0  0
  147.2905  133.0553  150.9361 H   0  0  0  0  0  0  0  0  0  0  0  0
  146.2210  133.7759  149.7468 H   0  0  0  0  0  0  0  0  0  0  0  0
  146.4396  135.2592  151.7153 H   0  0  0  0  0  0  0  0  0  0  0  0
  145.9590  133.9736  152.7959 H   0  0  0  0  0  0  0  0  0  0  0  0
  149.5686  136.3159  156.3444 H   0  0  0  0  0  0  0  0  0  0  0  0
  1  2  1  0  0  0  0
  1 30  1  0  0  0  0
  1 31  1  0  0  0  0
  1 32  1  0  0  0  0
  2  6  1  0  0  0  0
  2  3  1  0  0  0  0
  2 33  1  0  0  0  0
  3  4  1  0  0  0  0
  4  5  1  0  0  0  0
  4 34  1  0  0  0  0
  4 35  1  0  0  0  0
  5  6  1  0  0  0  0
  5 36  1  0  0  0  0
  5 37  1  0  0  0  0
  6  7  1  0  0  0  0
  6  8  1  0  0  0  0
  7 38  1  0  0  0  0
  8  9  1  0  0  0  0
  8 39  1  0  0  0  0
  8 40  1  0  0  0  0
  9 29  1  0  0  0  0
  9 10  1  0  0  0  0
 10 11  2  0  0  0  0
 10 41  1  0  0  0  0
 11 12  1  0  0  0  0
 12 29  2  0  0  0  0
 12 13  1  0  0  0  0
 13 14  1  0  0  0  0
 13 26  2  0  0  0  0
 14 15  1  0  0  0  0
 14 16  1  0  0  0  0
 15 42  1  0  0  0  0
 15 43  1  0  0  0  0
 15 44  1  0  0  0  0
 16 17  1  0  0  0  0
 16 45  1  0  0  0  0
 16 46  1  0  0  0  0
 17 18  1  0  0  0  0
 17 19  1  0  0  0  0
 17 47  1  0  0  0  0
 18 48  1  0  0  0  0
 19 20  1  0  0  0  0
 19 49  1  0  0  0  0
 19 50  1  0  0  0  0
 20 25  1  0  0  0  0
 20 21  1  0  0  0  0
 21 22  1  0  0  0  0
 21 51  1  0  0  0  0
 21 52  1  0  0  0  0
 22 23  1  0  0  0  0
 22 53  1  0  0  0  0
 22 54  1  0  0  0  0
 23 24  1  0  0  0  0
 24 25  1  0  0  0  0
 24 55  1  0  0  0  0
 24 56  1  0  0  0  0
 25 57  1  0  0  0  0
 25 58  1  0  0  0  0
 26 27  1  0  0  0  0
 27 28  2  0  0  0  0
 27 59  1  0  0  0  0
 28 29  1  0  0  0  0
M  END
> <s_m_source_file>
AV-unprocessed.smi

> <i_m_source_file_index>
153

> <i_lp_mmshare_version>
43012

> <i_f3d_flags>
0

> <s_epik_input>
W0NIMl0xW0NIMl1PW0NAQEhdKFtDSDNdKVtDQEBdMShbT0hdKVtDSDJdbihbY0hdbjIpYyhjMjMpbltjSF1uYzNOKFtDSDNdKVtDSDJdW0NASF0oW09IXSlbQ0gyXU40W0NIMl1bQ0gyXU9bQ0gyXVtDSDJdNA==

> <s_epik_cmdline>
J2VwaWtfcHl0aG9uJywgJy1waCcsICc3LjAnLCAnLXRuJywgJzgnLCAnLW1hJywgJzIwMCcsICctbWV0YWxfYmluZGluZycsICctaW1hZScsICc8aW5maWxlLm1hZT4nLCAnLW9tYWUnLCAnPG91dGZpbGUubWFlPic=

> <r_lp_tautomer_probability>
1

> <r_epik_Ionization_Penalty>
0.424123

> <r_epik_Ionization_Penalty_Charging>
0

> <r_epik_Ionization_Penalty_Neutral>
0.424123

> <r_epik_State_Penalty>
0.421495

> <r_epik_Charging_Adjusted_Penalty>
0.421495

> <i_epik_Tot_Q>
0

> <i_epik_Tot_abs_Q>
0

> <r_epik_Metal_State_Penalty>
0.421223

> <b_epik_Metal_Only>
0

> <s_lp_Force_Field>
OPLS_2005

> <r_lp_Energy>
56.2601

> <b_lp_Chiralities_Consistent>
1

> <s_lp_Variant>
AV-unprocessed.smi:153-12

> <Gold.Version>
5.8.1

> <Gold.Id.Protein>
6NUR|6NUR_protein|mol2

> <Gold.PLP.Fitness>
47.6495

> <Gold.PLP.PLP>
-44.1104

> <Gold.PLP.part.hbond>
-1.0086

> <Gold.PLP.part.metal>
0.0000

> <Gold.PLP.part.buried>
-5.2043

> <Gold.PLP.part.nonpolar>
-37.9240

> <Gold.PLP.part.repulsive>
0.5067

> <Gold.PLP.ligand.clash>
0.0000

> <Gold.PLP.ligand.torsion>
1.5736

> <Gold.PLP.Chemscore.Hbond>
1.0000

> <Gold.PLP.Chemscore.CHOScore>
1.0000

> <Gold.PLP.Chemscore.Metal>
0.0000

> <Gold.Chemscore.Hbonds>
donor molecule, donor type, donor heavy atom, donor atom, acceptor molecule, acceptor atom, score
      L1  H    18    48       P1 10175  1.00
      L1  C    10    41       P1  8028  1.00

> <Gold.PLP.Chemscore.Internal.Correction>
0.6864

> <Gold.Rescore>
     Score         DG    S(hbond)    S(metal)    S(lipo)     H(rot)  DE(clash)    DE(int)     intcor
      9.72     -11.88       0.99        0.00     103.47       3.52       0.40       1.76       ----

> <Gold.Chemscore.Fitness>
9.7214

> <Gold.Chemscore.DG>
-11.8782

> <Gold.Chemscore.ZeroCoef>
-5.4800

> <Gold.Chemscore.Hbond>
0.9869

> <Gold.Chemscore.Metal>
0.0000

> <Gold.Chemscore.Lipo>
103.4671

> <Gold.Chemscore.Internal_Hbond>
0.0000

> <Gold.Chemscore.DEClash>
0.3958

> <Gold.Chemscore.DEInternal>
1.7610

> <Gold.Chemscore.Rot>
3.5170

> <Gold.Chemscore.Internal.Correction>
   9.000000E+99

> <Gold.Chemscore.Hbonds>
donor molecule, donor type, donor heavy atom, donor atom, acceptor molecule, acceptor atom, score
      L1  H    18    48       P1 10175  0.99

> <Gold.Chemscore.Hbond.Weighted>
-3.2962

> <Gold.Chemscore.Metal.Weighted>
-0.0000

> <Gold.Chemscore.Lipo.Weighted>
-12.1057

> <Gold.Chemscore.Internal_Hbond.Weighted>
0.0000

> <Gold.Chemscore.DEClash.Weighted>
0.3958

> <Gold.Chemscore.DEInternal.Weighted>
1.7610

> <Gold.Chemscore.Rot.Weighted>
9.0036

> <Gold.Chemscore.Internal.Correction.Weighted>
   9.000000E+99

> <Gold.Protein.RotatedTorsions>
[ 6907 6896 6895 6894 ] final  -95.79 input  -60.11 | X-H torsion
[ 7974 7965 7964 7962 ] final  171.71 input  175.53 | X-H torsion
[ 8008 7997 7996 7995 ] final   -2.60 input   59.86 | X-H torsion
[ 10167 10162 10161 10158 ] final   20.88 input  -65.29 | X-H torsion
[ 10718 10713 10712 10709 ] final  -51.57 input   66.30 | X-H torsion
[ 10763 10752 10751 10750 ] final   25.40 input  -60.55 | X-H torsion
[ 11005 11000 10999 10996 ] final  125.22 input  -57.11 | X-H torsion

> <Gold.Protein.ActiveResidues>
 VAL166  LYS551  ARG553  GLY616  TRP617  ASP618  TYR619  PRO620  LYS621  CYS622 
 ASP623  PHE694  ASN695  SER759  ASP760  ASP761  ALA762  ILE779  LEU786  VAL792 
 PHE793  MET794  SER795  GLU796  ALA797  LYS798  CYS799  TRP800  GLU811  SER814 

> <Gold.Protein.RotatedAtoms>
  150.6972  134.1603  159.4173 H   0  0  0  0  0  0  0  0  0  0  0  0  # atno 6907 bound_to 6896
  151.9583  135.0133  160.0555 H   0  0  0  0  0  0  0  0  0  0  0  0  # atno 6908 bound_to 6896
  152.1949  133.4764  159.5064 H   0  0  0  0  0  0  0  0  0  0  0  0  # atno 6909 bound_to 6896
  144.7287  139.9390  143.6428 H   0  0  0  0  0  0  0  0  0  0  0  0  # atno 7974 bound_to 7965
  154.6340  140.2530  155.7400 H   0  0  0  0  0  0  0  0  0  0  0  0  # atno 8008 bound_to 7997
  156.2494  140.2901  156.0624 H   0  0  0  0  0  0  0  0  0  0  0  0  # atno 8009 bound_to 7997
  155.1700  140.0386  157.2851 H   0  0  0  0  0  0  0  0  0  0  0  0  # atno 8010 bound_to 7997
  140.5470  143.9577  150.6554 H   0  0  0  0  0  0  0  0  0  0  0  0  # atno 10167 bound_to 10162
  156.1698  130.4149  149.9664 H   0  0  0  0  0  0  0  0  0  0  0  0  # atno 10718 bound_to 10713
  153.0694  135.6584  154.0280 H   0  0  0  0  0  0  0  0  0  0  0  0  # atno 10763 bound_to 10752
  153.9929  135.2944  155.3411 H   0  0  0  0  0  0  0  0  0  0  0  0  # atno 10764 bound_to 10752
  154.7064  135.5223  153.8671 H   0  0  0  0  0  0  0  0  0  0  0  0  # atno 10765 bound_to 10752
  139.9396  134.9637  156.8526 H   0  0  0  0  0  0  0  0  0  0  0  0  # atno 11005 bound_to 11000
  146.0799  139.3787  143.0471 LP  0  0  0  0  0  0  0  0  0  0  0  0  # atno 17320 bound_to 7965
  145.7855  140.9838  143.1077 LP  0  0  0  0  0  0  0  0  0  0  0  0  # atno 17321 bound_to 7965
  140.2993  143.3271  152.0988 LP  0  0  0  0  0  0  0  0  0  0  0  0  # atno 17342 bound_to 10162
  139.5011  144.6707  151.6249 LP  0  0  0  0  0  0  0  0  0  0  0  0  # atno 17343 bound_to 10162
  156.7467  130.9100  151.3635 LP  0  0  0  0  0  0  0  0  0  0  0  0  # atno 17370 bound_to 10713
  157.6795  130.9126  150.0231 LP  0  0  0  0  0  0  0  0  0  0  0  0  # atno 17371 bound_to 10713
  140.5986  134.0193  155.7528 LP  0  0  0  0  0  0  0  0  0  0  0  0  # atno 17394 bound_to 11000
  141.1025  133.9746  157.3054 LP  0  0  0  0  0  0  0  0  0  0  0  0  # atno 17395 bound_to 11000

$$$$
