AV-unprocessed.smi:2032|AV-procd|sdf|8245|dock10
  -GOLD-   2272010513D 1   1.00000     0.00000
 Structure written by MMmdl.
 41 42  0  0  0  0  0  0  0  0  2 V2000
  150.4419  141.8883  156.6190 C   0  0  0  0  0  0  0  0  0  0  0  0
  150.1137  141.1262  155.3235 C   0  0  2  0  0  0  0  0  0  0  0  0
  148.8366  140.2687  155.4261 C   0  0  0  0  0  0  0  0  0  0  0  0
  149.0046  139.0512  156.2280 N   0  0  0  0  0  0  0  0  0  0  0  0
  147.7664  138.2374  156.2848 C   0  0  2  0  0  0  0  0  0  0  0  0
  146.5414  139.0481  156.7808 C   0  0  0  0  0  0  0  0  0  0  0  0
  147.9088  136.9549  157.1570 C   0  0  0  0  0  0  0  0  0  0  0  0
  147.5782  137.1639  158.5650 N   0  0  0  0  0  0  0  0  0  0  0  0
  148.3723  136.8893  159.6099 C   0  0  0  0  0  0  0  0  0  0  0  0
  149.5013  136.4302  159.4209 O   0  0  0  0  0  0  0  0  0  0  0  0
  147.8061  137.1590  160.8082 N   0  5  0  0  0  0  0  0  0  0  0  0
  147.1158  136.2068  161.4563 C   0  0  0  0  0  0  0  0  0  0  0  0
  147.5954  134.9763  161.6717 N   0  0  0  0  0  0  0  0  0  0  0  0
  146.7145  134.1524  162.3747 C   0  0  0  0  0  0  0  0  0  0  0  0
  145.5403  134.7723  162.7105 C   0  0  0  0  0  0  0  0  0  0  0  0
  145.5051  136.4194  162.1487 S   0  0  0  0  0  0  0  0  0  0  0  0
  150.1479  138.3109  155.6864 C   0  0  0  0  0  0  0  0  0  0  0  0
  151.4372  139.1509  155.6396 C   0  0  1  0  0  0  0  0  0  0  0  0
  152.5982  138.3874  154.9935 C   0  0  0  0  0  0  0  0  0  0  0  0
  151.2114  140.3328  154.8793 O   0  0  0  0  0  0  0  0  0  0  0  0
  149.6396  142.5809  156.8738 H   0  0  0  0  0  0  0  0  0  0  0  0
  151.3569  142.4698  156.5071 H   0  0  0  0  0  0  0  0  0  0  0  0
  150.5724  141.2176  157.4680 H   0  0  0  0  0  0  0  0  0  0  0  0
  149.9494  141.8762  154.5493 H   0  0  0  0  0  0  0  0  0  0  0  0
  148.0553  140.9029  155.8406 H   0  0  0  0  0  0  0  0  0  0  0  0
  148.5145  139.9947  154.4202 H   0  0  0  0  0  0  0  0  0  0  0  0
  147.5377  137.9094  155.2698 H   0  0  0  0  0  0  0  0  0  0  0  0
  145.6443  138.4363  156.8688 H   0  0  0  0  0  0  0  0  0  0  0  0
  146.2677  139.8475  156.0941 H   0  0  0  0  0  0  0  0  0  0  0  0
  146.7322  139.4913  157.7585 H   0  0  0  0  0  0  0  0  0  0  0  0
  147.2683  136.1471  156.8057 H   0  0  0  0  0  0  0  0  0  0  0  0
  148.9323  136.5828  157.1033 H   0  0  0  0  0  0  0  0  0  0  0  0
  146.6632  137.5394  158.7664 H   0  0  0  0  0  0  0  0  0  0  0  0
  147.0072  133.1367  162.5951 H   0  0  0  0  0  0  0  0  0  0  0  0
  144.7000  134.3649  163.2518 H   0  0  0  0  0  0  0  0  0  0  0  0
  150.3672  137.4397  156.2997 H   0  0  0  0  0  0  0  0  0  0  0  0
  149.9097  137.9435  154.6869 H   0  0  0  0  0  0  0  0  0  0  0  0
  151.7308  139.4220  156.6540 H   0  0  0  0  0  0  0  0  0  0  0  0
  152.8251  137.4761  155.5474 H   0  0  0  0  0  0  0  0  0  0  0  0
  153.5021  138.9968  154.9729 H   0  0  0  0  0  0  0  0  0  0  0  0
  152.3624  138.1057  153.9669 H   0  0  0  0  0  0  0  0  0  0  0  0
  1  2  1  0  0  0  0
  1 21  1  0  0  0  0
  1 22  1  0  0  0  0
  1 23  1  0  0  0  0
  2 20  1  0  0  0  0
  2  3  1  0  0  0  0
  2 24  1  0  0  0  0
  3  4  1  0  0  0  0
  3 25  1  0  0  0  0
  3 26  1  0  0  0  0
  4  5  1  0  0  0  0
  4 17  1  0  0  0  0
  5  6  1  0  0  0  0
  5  7  1  0  0  0  0
  5 27  1  0  0  0  0
  6 28  1  0  0  0  0
  6 29  1  0  0  0  0
  6 30  1  0  0  0  0
  7  8  1  0  0  0  0
  7 31  1  0  0  0  0
  7 32  1  0  0  0  0
  8  9  1  0  0  0  0
  8 33  1  0  0  0  0
  9 10  2  0  0  0  0
  9 11  1  0  0  0  0
 11 12  1  0  0  0  0
 12 16  1  0  0  0  0
 12 13  2  0  0  0  0
 13 14  1  0  0  0  0
 14 15  2  0  0  0  0
 14 34  1  0  0  0  0
 15 16  1  0  0  0  0
 15 35  1  0  0  0  0
 17 18  1  0  0  0  0
 17 36  1  0  0  0  0
 17 37  1  0  0  0  0
 18 19  1  0  0  0  0
 18 20  1  0  0  0  0
 18 38  1  0  0  0  0
 19 39  1  0  0  0  0
 19 40  1  0  0  0  0
 19 41  1  0  0  0  0
M  CHG  1  11  -1
M  END
> <s_m_source_file>
AV-unprocessed.smi

> <i_m_source_file_index>
2032

> <i_lp_mmshare_version>
43012

> <i_f3d_flags>
0

> <s_epik_input>
W0NIM11bQ0BASF0xW0NIMl1OKFtDSDJdW0NASF0oTzEpW0NIM10pW0NASF0oW0NIM10pW0NIMl1bTkhdQyg9TylbTkhdYzJuW2NIXVtjSF1zMg==

> <s_epik_cmdline>
J2VwaWtfcHl0aG9uJywgJy1waCcsICc3LjAnLCAnLXRuJywgJzgnLCAnLW1hJywgJzIwMCcsICctbWV0YWxfYmluZGluZycsICctaW1hZScsICc8aW5maWxlLm1hZT4nLCAnLW9tYWUnLCAnPG91dGZpbGUubWFlPic=

> <r_lp_tautomer_probability>
0.999

> <r_epik_Ionization_Penalty>
7.22375

> <r_epik_Ionization_Penalty_Charging>
5.82415

> <r_epik_Ionization_Penalty_Neutral>
1.39959

> <r_epik_State_Penalty>
6.03347

> <r_epik_Charging_Adjusted_Penalty>
11.8576

> <i_epik_Tot_Q>
-1

> <i_epik_Tot_abs_Q>
1

> <r_epik_Metal_State_Penalty>
2.01024

> <b_epik_Metal_Only>
1

> <s_lp_Force_Field>
OPLS_2005

> <r_lp_Energy>
26.7208

> <b_lp_Chiralities_Consistent>
1

> <s_lp_Variant>
AV-unprocessed.smi:2032-15

> <Gold.Version>
5.8.1

> <Gold.Id.Protein>
6NUR|6NUR_protein|mol2

> <Gold.PLP.Fitness>
44.0162

> <Gold.PLP.PLP>
-30.7262

> <Gold.PLP.part.hbond>
-3.8167

> <Gold.PLP.part.metal>
0.0000

> <Gold.PLP.part.buried>
-3.8645

> <Gold.PLP.part.nonpolar>
-23.5171

> <Gold.PLP.part.repulsive>
0.1671

> <Gold.PLP.ligand.clash>
0.0000

> <Gold.PLP.ligand.torsion>
1.5053

> <Gold.PLP.Chemscore.Hbond>
5.4153

> <Gold.PLP.Chemscore.CHOScore>
0.0000

> <Gold.PLP.Chemscore.Metal>
0.0000

> <Gold.Chemscore.Hbonds>
donor molecule, donor type, donor heavy atom, donor atom, acceptor molecule, acceptor atom, score
      P1  H  6896  6909       L1    10  0.91
      P1  H  6931  6943       L1    11  1.73
      P1  H  6934  6947       L1    11  1.73
      P1  H  7989  7998       L1    20  1.00

> <Gold.PLP.Chemscore.Internal.Correction>
0.0548

> <Gold.Rescore>
     Score         DG    S(hbond)    S(metal)    S(lipo)     H(rot)  DE(clash)    DE(int)     intcor
     17.33     -18.78       2.99        0.00      62.06       1.54       0.00       1.45       ----

> <Gold.Chemscore.Fitness>
17.3266

> <Gold.Chemscore.DG>
-18.7819

> <Gold.Chemscore.ZeroCoef>
-5.4800

> <Gold.Chemscore.Hbond>
2.9912

> <Gold.Chemscore.Metal>
0.0000

> <Gold.Chemscore.Lipo>
62.0647

> <Gold.Chemscore.Internal_Hbond>
0.0000

> <Gold.Chemscore.DEClash>
0.0015

> <Gold.Chemscore.DEInternal>
1.4539

> <Gold.Chemscore.Rot>
1.5431

> <Gold.Chemscore.Internal.Correction>
   9.000000E+99

> <Gold.Chemscore.Hbonds>
donor molecule, donor type, donor heavy atom, donor atom, acceptor molecule, acceptor atom, score
      P1  H  6896  6909       L1    10  0.87
      P1  H  6931  6943       L1    11  0.59
      P1  H  6934  6947       L1    11  0.66
      P1  H  7989  7998       L1    20  0.56

> <Gold.Chemscore.Hbond.Weighted>
-9.9906

> <Gold.Chemscore.Metal.Weighted>
-0.0000

> <Gold.Chemscore.Lipo.Weighted>
-7.2616

> <Gold.Chemscore.Internal_Hbond.Weighted>
0.0000

> <Gold.Chemscore.DEClash.Weighted>
0.0015

> <Gold.Chemscore.DEInternal.Weighted>
1.4539

> <Gold.Chemscore.Rot.Weighted>
3.9503

> <Gold.Chemscore.Internal.Correction.Weighted>
   9.000000E+99

> <Gold.Protein.RotatedTorsions>
[ 6907 6896 6895 6894 ] final   72.73 input  -60.11 | X-H torsion
[ 7974 7965 7964 7962 ] final  151.53 input  175.53 | X-H torsion
[ 8008 7997 7996 7995 ] final   29.71 input   59.86 | X-H torsion
[ 10167 10162 10161 10158 ] final   56.37 input  -65.29 | X-H torsion
[ 10718 10713 10712 10709 ] final -152.41 input   66.30 | X-H torsion
[ 10763 10752 10751 10750 ] final  -12.99 input  -60.55 | X-H torsion
[ 11005 11000 10999 10996 ] final  -68.08 input  -57.11 | X-H torsion

> <Gold.Protein.ActiveResidues>
 VAL166  LYS551  ARG553  GLY616  TRP617  ASP618  TYR619  PRO620  LYS621  CYS622 
 ASP623  PHE694  ASN695  SER759  ASP760  ASP761  ALA762  ILE779  LEU786  VAL792 
 PHE793  MET794  SER795  GLU796  ALA797  LYS798  CYS799  TRP800  GLU811  SER814 

> <Gold.Protein.RotatedAtoms>
  152.4884  134.4528  159.9579 H   0  0  0  0  0  0  0  0  0  0  0  0  # atno 6907 bound_to 6896
  151.4520  133.3609  159.2804 H   0  0  0  0  0  0  0  0  0  0  0  0  # atno 6908 bound_to 6896
  150.9015  134.8452  159.7423 H   0  0  0  0  0  0  0  0  0  0  0  0  # atno 6909 bound_to 6896
  144.8286  139.6550  143.6069 H   0  0  0  0  0  0  0  0  0  0  0  0  # atno 7974 bound_to 7965
  155.0788  140.3208  155.4607 H   0  0  0  0  0  0  0  0  0  0  0  0  # atno 8008 bound_to 7997
  156.2772  140.2098  156.5862 H   0  0  0  0  0  0  0  0  0  0  0  0  # atno 8009 bound_to 7997
  154.6995  140.0508  157.0431 H   0  0  0  0  0  0  0  0  0  0  0  0  # atno 8010 bound_to 7997
  140.2095  144.3904  150.6495 H   0  0  0  0  0  0  0  0  0  0  0  0  # atno 10167 bound_to 10162
  156.4721  130.8263  151.2492 H   0  0  0  0  0  0  0  0  0  0  0  0  # atno 10718 bound_to 10713
  153.5066  135.7017  153.5803 H   0  0  0  0  0  0  0  0  0  0  0  0  # atno 10763 bound_to 10752
  153.3911  135.3895  155.1924 H   0  0  0  0  0  0  0  0  0  0  0  0  # atno 10764 bound_to 10752
  154.8706  135.3858  154.4542 H   0  0  0  0  0  0  0  0  0  0  0  0  # atno 10765 bound_to 10752
  141.1523  133.6733  156.6391 H   0  0  0  0  0  0  0  0  0  0  0  0  # atno 11005 bound_to 11000
  146.2590  139.6367  142.9375 LP  0  0  0  0  0  0  0  0  0  0  0  0  # atno 17320 bound_to 7965
  145.4946  141.0438  143.2574 LP  0  0  0  0  0  0  0  0  0  0  0  0  # atno 17321 bound_to 7965
  140.6334  143.2191  151.6447 LP  0  0  0  0  0  0  0  0  0  0  0  0  # atno 17342 bound_to 10162
  139.5185  144.3281  152.0851 LP  0  0  0  0  0  0  0  0  0  0  0  0  # atno 17343 bound_to 10162
  157.7490  131.0073  150.3183 LP  0  0  0  0  0  0  0  0  0  0  0  0  # atno 17370 bound_to 10713
  156.3607  130.3846  149.7253 LP  0  0  0  0  0  0  0  0  0  0  0  0  # atno 17371 bound_to 10713
  140.3407  134.7851  157.4396 LP  0  0  0  0  0  0  0  0  0  0  0  0  # atno 17394 bound_to 11000
  140.0940  134.5562  155.8416 LP  0  0  0  0  0  0  0  0  0  0  0  0  # atno 17395 bound_to 11000

$$$$
