AV-unprocessed.smi:175|AV-procd|sdf|1430|dock8
  -GOLD-   2262019213D 1   1.00000     0.00000
 Structure written by MMmdl.
 47 50  0  0  0  0  0  0  0  0  1 V2000
  153.3740  139.1875  159.8196 C   0  0  0  0  0  0  0  0  0  0  0  0
  152.4218  139.1713  158.6131 C   0  0  1  0  0  0  0  0  0  0  0  0
  153.1532  139.2533  157.3985 O   0  0  0  0  0  0  0  0  0  0  0  0
  152.2804  138.8429  156.3620 C   0  0  0  0  0  0  0  0  0  0  0  0
  151.6119  137.6090  156.9559 C   0  0  0  0  0  0  0  0  0  0  0  0
  151.5067  137.9280  158.4504 C   0  0  1  0  0  0  0  0  0  0  0  0
  152.0004  136.8126  159.1743 O   0  0  0  0  0  0  0  0  0  0  0  0
  150.0437  138.1827  158.8905 C   0  0  0  0  0  0  0  0  0  0  0  0
  149.1722  137.0320  158.7034 N   0  0  0  0  0  0  0  0  0  0  0  0
  148.9078  136.3819  157.5182 C   0  0  0  0  0  0  0  0  0  0  0  0
  148.0945  135.3657  157.6091 N   0  0  0  0  0  0  0  0  0  0  0  0
  147.7660  135.3166  158.9579 C   0  0  0  0  0  0  0  0  0  0  0  0
  146.9376  134.4704  159.7483 C   0  0  0  0  0  0  0  0  0  0  0  0
  146.2284  133.4247  159.2682 N   0  0  0  0  0  0  0  0  0  0  0  0
  145.2508  133.7826  158.2387 C   0  0  0  0  0  0  0  0  0  0  0  0
  143.9519  133.2326  158.7934 C   0  0  0  0  0  0  0  0  0  0  0  0
  142.8659  133.3673  158.2320 O   0  0  0  0  0  0  0  0  0  0  0  0
  144.1783  132.6117  159.9517 N   0  0  0  0  0  0  0  0  0  0  0  0
  143.1876  131.9625  160.8063 C   0  0  0  0  0  0  0  0  0  0  0  0
  142.6145  130.6843  160.1680 C   0  0  0  0  0  0  0  0  0  0  0  0
  143.6224  129.8927  159.8044 F   0  0  0  0  0  0  0  0  0  0  0  0
  141.8551  130.0281  161.0456 F   0  0  0  0  0  0  0  0  0  0  0  0
  141.8884  130.9681  159.0870 F   0  0  0  0  0  0  0  0  0  0  0  0
  145.5888  132.6069  160.3008 C   0  0  0  0  0  0  0  0  0  0  0  0
  146.8469  134.7257  161.0757 N   0  0  0  0  0  0  0  0  0  0  0  0
  147.5243  135.7496  161.6045 C   0  0  0  0  0  0  0  0  0  0  0  0
  148.3323  136.6210  160.9956 N   0  0  0  0  0  0  0  0  0  0  0  0
  148.4274  136.3623  159.6594 C   0  0  0  0  0  0  0  0  0  0  0  0
  152.8232  139.1063  160.7570 H   0  0  0  0  0  0  0  0  0  0  0  0
  153.9409  140.1179  159.8495 H   0  0  0  0  0  0  0  0  0  0  0  0
  154.0914  138.3680  159.7753 H   0  0  0  0  0  0  0  0  0  0  0  0
  151.8057  140.0704  158.6487 H   0  0  0  0  0  0  0  0  0  0  0  0
  151.5495  139.6283  156.1618 H   0  0  0  0  0  0  0  0  0  0  0  0
  152.8203  138.6285  155.4398 H   0  0  0  0  0  0  0  0  0  0  0  0
  150.6509  137.3942  156.4872 H   0  0  0  0  0  0  0  0  0  0  0  0
  152.2569  136.7456  156.7837 H   0  0  0  0  0  0  0  0  0  0  0  0
  152.9082  136.9688  159.3845 H   0  0  0  0  0  0  0  0  0  0  0  0
  150.0146  138.4660  159.9434 H   0  0  0  0  0  0  0  0  0  0  0  0
  149.6211  139.0239  158.3391 H   0  0  0  0  0  0  0  0  0  0  0  0
  149.3463  136.6821  156.5776 H   0  0  0  0  0  0  0  0  0  0  0  0
  145.1686  134.8563  158.0593 H   0  0  0  0  0  0  0  0  0  0  0  0
  145.4982  133.2909  157.2978 H   0  0  0  0  0  0  0  0  0  0  0  0
  143.6379  131.7280  161.7720 H   0  0  0  0  0  0  0  0  0  0  0  0
  142.3791  132.6657  161.0108 H   0  0  0  0  0  0  0  0  0  0  0  0
  145.9833  131.5910  160.2604 H   0  0  0  0  0  0  0  0  0  0  0  0
  145.7367  132.9868  161.3134 H   0  0  0  0  0  0  0  0  0  0  0  0
  147.4024  135.8905  162.6684 H   0  0  0  0  0  0  0  0  0  0  0  0
  1  2  1  0  0  0  0
  1 29  1  0  0  0  0
  1 30  1  0  0  0  0
  1 31  1  0  0  0  0
  2  6  1  0  0  0  0
  2  3  1  0  0  0  0
  2 32  1  0  0  0  0
  3  4  1  0  0  0  0
  4  5  1  0  0  0  0
  4 33  1  0  0  0  0
  4 34  1  0  0  0  0
  5  6  1  0  0  0  0
  5 35  1  0  0  0  0
  5 36  1  0  0  0  0
  6  7  1  0  0  0  0
  6  8  1  0  0  0  0
  7 37  1  0  0  0  0
  8  9  1  0  0  0  0
  8 38  1  0  0  0  0
  8 39  1  0  0  0  0
  9 28  1  0  0  0  0
  9 10  1  0  0  0  0
 10 11  2  0  0  0  0
 10 40  1  0  0  0  0
 11 12  1  0  0  0  0
 12 28  2  0  0  0  0
 12 13  1  0  0  0  0
 13 14  1  0  0  0  0
 13 25  2  0  0  0  0
 14 24  1  0  0  0  0
 14 15  1  0  0  0  0
 15 16  1  0  0  0  0
 15 41  1  0  0  0  0
 15 42  1  0  0  0  0
 16 17  2  0  0  0  0
 16 18  1  0  0  0  0
 18 19  1  0  0  0  0
 18 24  1  0  0  0  0
 19 20  1  0  0  0  0
 19 43  1  0  0  0  0
 19 44  1  0  0  0  0
 20 21  1  0  0  0  0
 20 22  1  0  0  0  0
 20 23  1  0  0  0  0
 24 45  1  0  0  0  0
 24 46  1  0  0  0  0
 25 26  1  0  0  0  0
 26 27  2  0  0  0  0
 26 47  1  0  0  0  0
 27 28  1  0  0  0  0
M  END
> <s_m_source_file>
AV-unprocessed.smi

> <i_m_source_file_index>
175

> <i_lp_mmshare_version>
43012

> <i_f3d_flags>
0

> <s_epik_input>
W0NIMl0xW0NIMl1PW0NAQEhdKFtDSDNdKVtDQEBdMShbT0hdKVtDSDJdbihbY0hdbjIpYyhjMjMpbltjSF1uYzNONFtDSDJdQyg9TylOKFtDSDJdNClbQ0gyXUMoRikoRilG

> <s_epik_cmdline>
J2VwaWtfcHl0aG9uJywgJy1waCcsICc3LjAnLCAnLXRuJywgJzgnLCAnLW1hJywgJzIwMCcsICctbWV0YWxfYmluZGluZycsICctaW1hZScsICc8aW5maWxlLm1hZT4nLCAnLW9tYWUnLCAnPG91dGZpbGUubWFlPic=

> <r_lp_tautomer_probability>
1

> <r_epik_Ionization_Penalty>
0.000307802

> <r_epik_Ionization_Penalty_Charging>
0

> <r_epik_Ionization_Penalty_Neutral>
0.000307802

> <r_epik_State_Penalty>
-0

> <r_epik_Charging_Adjusted_Penalty>
0

> <i_epik_Tot_Q>
0

> <i_epik_Tot_abs_Q>
0

> <r_epik_Metal_State_Penalty>
-0

> <b_epik_Metal_Only>
0

> <s_epik_Chemistry_Notes>
This compound contains an acetal/aminal-like group ( X-CH(R)-Y where X, Y are N, S, or O) that may be acid/base labile, releasing an aldehyde.

> <s_lp_Force_Field>
OPLS_2005

> <r_lp_Energy>
36.8699

> <b_lp_Chiralities_Consistent>
1

> <s_lp_Variant>
AV-unprocessed.smi:175-2

> <Gold.Version>
5.8.1

> <Gold.Id.Protein>
6NUR|6NUR_protein|mol2

> <Gold.PLP.Fitness>
43.3273

> <Gold.PLP.PLP>
-31.5577

> <Gold.PLP.part.hbond>
-4.0000

> <Gold.PLP.part.metal>
0.0000

> <Gold.PLP.part.buried>
-6.8418

> <Gold.PLP.part.nonpolar>
-21.1349

> <Gold.PLP.part.repulsive>
0.0722

> <Gold.PLP.ligand.clash>
0.0000

> <Gold.PLP.ligand.torsion>
0.1969

> <Gold.PLP.Chemscore.Hbond>
3.9913

> <Gold.PLP.Chemscore.CHOScore>
0.0000

> <Gold.PLP.Chemscore.Metal>
0.0000

> <Gold.Chemscore.Hbonds>
donor molecule, donor type, donor heavy atom, donor atom, acceptor molecule, acceptor atom, score
      P1  H  6896  6908       L1     7  1.00
      P1  H  6931  6943       L1    27  1.00
      P1  H  7997  8009       L1     3  1.00
      P1  H 11000 11005       L1    17  0.96

> <Gold.PLP.Chemscore.Internal.Correction>
0.1897

> <Gold.Rescore>
     Score         DG    S(hbond)    S(metal)    S(lipo)     H(rot)  DE(clash)    DE(int)     intcor
     12.71     -15.74       3.91        0.00      42.77       3.05       0.02       3.01       ----

> <Gold.Chemscore.Fitness>
12.7132

> <Gold.Chemscore.DG>
-15.7369

> <Gold.Chemscore.ZeroCoef>
-5.4800

> <Gold.Chemscore.Hbond>
3.9093

> <Gold.Chemscore.Metal>
0.0000

> <Gold.Chemscore.Lipo>
42.7715

> <Gold.Chemscore.Internal_Hbond>
0.0000

> <Gold.Chemscore.DEClash>
0.0184

> <Gold.Chemscore.DEInternal>
3.0052

> <Gold.Chemscore.Rot>
3.0487

> <Gold.Chemscore.Internal.Correction>
   9.000000E+99

> <Gold.Chemscore.Hbonds>
donor molecule, donor type, donor heavy atom, donor atom, acceptor molecule, acceptor atom, score
      P1  H  6896  6908       L1     7  0.43
      P1  H  6931  6943       L1    27  0.95
      P1  H  7997  8009       L1     3  0.70
      P1  H 11000 11005       L1    17  0.90

> <Gold.Chemscore.Hbond.Weighted>
-13.0572

> <Gold.Chemscore.Metal.Weighted>
-0.0000

> <Gold.Chemscore.Lipo.Weighted>
-5.0043

> <Gold.Chemscore.Internal_Hbond.Weighted>
0.0000

> <Gold.Chemscore.DEClash.Weighted>
0.0184

> <Gold.Chemscore.DEInternal.Weighted>
3.0052

> <Gold.Chemscore.Rot.Weighted>
7.8046

> <Gold.Chemscore.Internal.Correction.Weighted>
   9.000000E+99

> <Gold.Protein.RotatedTorsions>
[ 6907 6896 6895 6894 ] final -118.40 input  -60.11 | X-H torsion
[ 7974 7965 7964 7962 ] final   81.15 input  175.53 | X-H torsion
[ 8008 7997 7996 7995 ] final  174.66 input   59.86 | X-H torsion
[ 10167 10162 10161 10158 ] final  -47.53 input  -65.29 | X-H torsion
[ 10718 10713 10712 10709 ] final -163.41 input   66.30 | X-H torsion
[ 10763 10752 10751 10750 ] final -153.43 input  -60.55 | X-H torsion
[ 11005 11000 10999 10996 ] final -103.01 input  -57.11 | X-H torsion

> <Gold.Protein.ActiveResidues>
 VAL166  LYS551  ARG553  GLY616  TRP617  ASP618  TYR619  PRO620  LYS621  CYS622 
 ASP623  PHE694  ASN695  SER759  ASP760  ASP761  ALA762  ILE779  LEU786  VAL792 
 PHE793  MET794  SER795  GLU796  ALA797  LYS798  CYS799  TRP800  GLU811  SER814 

> <Gold.Protein.RotatedAtoms>
  150.8216  133.8242  159.3136 H   0  0  0  0  0  0  0  0  0  0  0  0  # atno 6907 bound_to 6896
  151.5998  135.1046  160.0067 H   0  0  0  0  0  0  0  0  0  0  0  0  # atno 6908 bound_to 6896
  152.4305  133.7228  159.6600 H   0  0  0  0  0  0  0  0  0  0  0  0  # atno 6909 bound_to 6896
  145.6419  139.2427  143.2026 H   0  0  0  0  0  0  0  0  0  0  0  0  # atno 7974 bound_to 7965
  156.0951  140.1428  156.9542 H   0  0  0  0  0  0  0  0  0  0  0  0  # atno 8008 bound_to 7997
  154.4666  140.0924  156.7082 H   0  0  0  0  0  0  0  0  0  0  0  0  # atno 8009 bound_to 7997
  155.4855  140.3446  155.4348 H   0  0  0  0  0  0  0  0  0  0  0  0  # atno 8010 bound_to 7997
  140.6771  143.2780  151.3941 H   0  0  0  0  0  0  0  0  0  0  0  0  # atno 10167 bound_to 10162
  156.6242  130.8903  151.2964 H   0  0  0  0  0  0  0  0  0  0  0  0  # atno 10718 bound_to 10713
  154.7928  135.3213  154.7737 H   0  0  0  0  0  0  0  0  0  0  0  0  # atno 10763 bound_to 10752
  153.8422  135.6870  153.4806 H   0  0  0  0  0  0  0  0  0  0  0  0  # atno 10764 bound_to 10752
  153.1606  135.4662  154.9707 H   0  0  0  0  0  0  0  0  0  0  0  0  # atno 10765 bound_to 10752
  141.1164  133.8605  157.1432 H   0  0  0  0  0  0  0  0  0  0  0  0  # atno 11005 bound_to 11000
  146.1274  140.7231  142.9429 LP  0  0  0  0  0  0  0  0  0  0  0  0  # atno 17320 bound_to 7965
  144.7154  140.4191  143.7048 LP  0  0  0  0  0  0  0  0  0  0  0  0  # atno 17321 bound_to 7965
  139.6069  144.1178  152.2259 LP  0  0  0  0  0  0  0  0  0  0  0  0  # atno 17342 bound_to 10162
  140.0580  144.5880  150.7285 LP  0  0  0  0  0  0  0  0  0  0  0  0  # atno 17343 bound_to 10162
  157.7219  130.9569  150.1472 LP  0  0  0  0  0  0  0  0  0  0  0  0  # atno 17370 bound_to 10713
  156.2286  130.3680  149.8471 LP  0  0  0  0  0  0  0  0  0  0  0  0  # atno 17371 bound_to 10713
  140.0090  134.9996  157.0354 LP  0  0  0  0  0  0  0  0  0  0  0  0  # atno 17394 bound_to 11000
  140.4633  134.1462  155.7194 LP  0  0  0  0  0  0  0  0  0  0  0  0  # atno 17395 bound_to 11000

$$$$
