AV-unprocessed.smi:1870|AV-procd|sdf|7598|dock10
  -GOLD-   22720 9313D 1   1.00000     0.00000
 Structure written by MMmdl.
 47 49  0  0  0  0  0  0  0  0  1 V2000
  145.2648  144.8280  152.8557 C   0  0  0  0  0  0  0  0  0  0  0  0
  145.4872  143.7124  153.8409 C   0  0  0  0  0  0  0  0  0  0  0  0
  146.2632  142.7505  153.4626 N   0  0  0  0  0  0  0  0  0  0  0  0
  146.5292  141.6746  154.2859 N   0  0  0  0  0  0  0  0  0  0  0  0
  147.4260  140.6753  153.6907 C   0  0  0  0  0  0  0  0  0  0  0  0
  148.7786  140.5955  154.4341 C   0  0  1  0  0  0  0  0  0  0  0  0
  149.8090  140.7376  153.4766 O   0  0  0  0  0  0  0  0  0  0  0  0
  149.0120  141.7046  155.4813 C   0  0  0  0  0  0  0  0  0  0  0  0
  150.1289  141.4555  156.3947 N   0  0  0  0  0  0  0  0  0  0  0  0
  149.9202  140.2641  157.2166 C   0  0  0  0  0  0  0  0  0  0  0  0
  151.2051  139.8590  157.9552 C   0  0  0  0  0  0  0  0  0  0  0  0
  151.8717  141.0457  158.6327 C   0  0  0  0  0  0  0  0  0  0  0  0
  152.8899  140.8371  159.5851 C   0  0  0  0  0  0  0  0  0  0  0  0
  153.5247  141.9381  160.1920 C   0  0  0  0  0  0  0  0  0  0  0  0
  153.1432  143.2493  159.8482 C   0  0  0  0  0  0  0  0  0  0  0  0
  152.1259  143.4620  158.8975 C   0  0  0  0  0  0  0  0  0  0  0  0
  151.4906  142.3637  158.2825 C   0  0  0  0  0  0  0  0  0  0  0  0
  150.3688  142.5991  157.2777 C   0  0  0  0  0  0  0  0  0  0  0  0
  146.0197  141.5121  155.5409 C   0  0  0  0  0  0  0  0  0  0  0  0
  146.2758  140.5296  156.2388 O   0  0  0  0  0  0  0  0  0  0  0  0
  145.1462  142.6084  155.9657 C   0  0  0  0  0  0  0  0  0  0  0  0
  144.5920  142.4797  157.2748 C   0  0  0  0  0  0  0  0  0  0  0  0
  144.1615  142.3731  158.3442 N   0  0  0  0  0  0  0  0  0  0  0  0
  144.8802  143.6725  155.1675 C   0  0  0  0  0  0  0  0  0  0  0  0
  143.9779  144.8342  155.5608 C   0  0  0  0  0  0  0  0  0  0  0  0
  144.2007  144.9739  152.6685 H   0  0  0  0  0  0  0  0  0  0  0  0
  145.7411  144.6236  151.8954 H   0  0  0  0  0  0  0  0  0  0  0  0
  145.6740  145.7648  153.2346 H   0  0  0  0  0  0  0  0  0  0  0  0
  146.9509  139.6929  153.6537 H   0  0  0  0  0  0  0  0  0  0  0  0
  147.5823  140.9563  152.6504 H   0  0  0  0  0  0  0  0  0  0  0  0
  148.8921  139.6259  154.9205 H   0  0  0  0  0  0  0  0  0  0  0  0
  149.6898  140.0783  152.8100 H   0  0  0  0  0  0  0  0  0  0  0  0
  149.2079  142.6226  154.9243 H   0  0  0  0  0  0  0  0  0  0  0  0
  148.0968  141.9038  156.0416 H   0  0  0  0  0  0  0  0  0  0  0  0
  149.1295  140.4595  157.9429 H   0  0  0  0  0  0  0  0  0  0  0  0
  149.5721  139.4232  156.6200 H   0  0  0  0  0  0  0  0  0  0  0  0
  150.9854  139.0878  158.6942 H   0  0  0  0  0  0  0  0  0  0  0  0
  151.9155  139.4292  157.2481 H   0  0  0  0  0  0  0  0  0  0  0  0
  153.1889  139.8334  159.8489 H   0  0  0  0  0  0  0  0  0  0  0  0
  154.3054  141.7764  160.9205 H   0  0  0  0  0  0  0  0  0  0  0  0
  153.6300  144.0927  160.3154 H   0  0  0  0  0  0  0  0  0  0  0  0
  151.8333  144.4703  158.6431 H   0  0  0  0  0  0  0  0  0  0  0  0
  150.6176  143.4769  156.6798 H   0  0  0  0  0  0  0  0  0  0  0  0
  149.4613  142.8417  157.8330 H   0  0  0  0  0  0  0  0  0  0  0  0
  143.6584  144.7741  156.6008 H   0  0  0  0  0  0  0  0  0  0  0  0
  143.0818  144.8465  154.9397 H   0  0  0  0  0  0  0  0  0  0  0  0
  144.4961  145.7857  155.4364 H   0  0  0  0  0  0  0  0  0  0  0  0
  1  2  1  0  0  0  0
  1 26  1  0  0  0  0
  1 27  1  0  0  0  0
  1 28  1  0  0  0  0
  2 24  1  0  0  0  0
  2  3  2  0  0  0  0
  3  4  1  0  0  0  0
  4  5  1  0  0  0  0
  4 19  1  0  0  0  0
  5  6  1  0  0  0  0
  5 29  1  0  0  0  0
  5 30  1  0  0  0  0
  6  7  1  0  0  0  0
  6  8  1  0  0  0  0
  6 31  1  0  0  0  0
  7 32  1  0  0  0  0
  8  9  1  0  0  0  0
  8 33  1  0  0  0  0
  8 34  1  0  0  0  0
  9 18  1  0  0  0  0
  9 10  1  0  0  0  0
 10 11  1  0  0  0  0
 10 35  1  0  0  0  0
 10 36  1  0  0  0  0
 11 12  1  0  0  0  0
 11 37  1  0  0  0  0
 11 38  1  0  0  0  0
 12 17  2  0  0  0  0
 12 13  1  0  0  0  0
 13 14  2  0  0  0  0
 13 39  1  0  0  0  0
 14 15  1  0  0  0  0
 14 40  1  0  0  0  0
 15 16  2  0  0  0  0
 15 41  1  0  0  0  0
 16 17  1  0  0  0  0
 16 42  1  0  0  0  0
 17 18  1  0  0  0  0
 18 43  1  0  0  0  0
 18 44  1  0  0  0  0
 19 20  2  0  0  0  0
 19 21  1  0  0  0  0
 21 22  1  0  0  0  0
 21 24  2  0  0  0  0
 22 23  3  0  0  0  0
 24 25  1  0  0  0  0
 25 45  1  0  0  0  0
 25 46  1  0  0  0  0
 25 47  1  0  0  0  0
M  END
> <s_m_source_file>
AV-unprocessed.smi

> <i_m_source_file_index>
1870

> <i_lp_mmshare_version>
43012

> <i_f3d_flags>
0

> <s_epik_input>
TiNDYyhjMVtDSDNdKWMoPU8pbihuYzFbQ0gzXSlbQ0gyXVtDQEhdKFtPSF0pW0NIMl1OKFtDSDJdW0NIMl0yKVtDSDJdYyhjMjMpW2NIXVtjSF1bY0hdW2NIXTM=

> <s_epik_cmdline>
J2VwaWtfcHl0aG9uJywgJy1waCcsICc3LjAnLCAnLXRuJywgJzgnLCAnLW1hJywgJzIwMCcsICctbWV0YWxfYmluZGluZycsICctaW1hZScsICc8aW5maWxlLm1hZT4nLCAnLW9tYWUnLCAnPG91dGZpbGUubWFlPic=

> <r_epik_Ionization_Penalty>
2.30251

> <r_epik_Ionization_Penalty_Charging>
1.06171e-10

> <r_epik_Ionization_Penalty_Neutral>
2.30251

> <r_epik_State_Penalty>
2.45335

> <r_epik_Charging_Adjusted_Penalty>
2.45335

> <i_epik_Tot_Q>
0

> <i_epik_Tot_abs_Q>
0

> <r_epik_Metal_State_Penalty>
2.45335

> <b_epik_Metal_Only>
0

> <s_lp_Force_Field>
OPLS_2005

> <r_lp_Energy>
48.2343

> <b_lp_Chiralities_Consistent>
1

> <s_lp_Variant>
AV-unprocessed.smi:1870-6

> <Gold.Version>
5.8.1

> <Gold.Id.Protein>
6NUR|6NUR_protein|mol2

> <Gold.PLP.Fitness>
50.4181

> <Gold.PLP.PLP>
-45.8933

> <Gold.PLP.part.hbond>
-2.3284

> <Gold.PLP.part.metal>
0.0000

> <Gold.PLP.part.buried>
-1.9611

> <Gold.PLP.part.nonpolar>
-41.2116

> <Gold.PLP.part.repulsive>
0.2962

> <Gold.PLP.ligand.clash>
0.0309

> <Gold.PLP.ligand.torsion>
0.8614

> <Gold.PLP.Chemscore.Hbond>
2.0880

> <Gold.PLP.Chemscore.CHOScore>
0.0000

> <Gold.PLP.Chemscore.Metal>
0.0000

> <Gold.Chemscore.Hbonds>
donor molecule, donor type, donor heavy atom, donor atom, acceptor molecule, acceptor atom, score
      L1  H     7    32       P1  7957  0.74
      P1  H  7989  7998       L1     7  0.37
      P1  H  8011  8017       L1     7  1.00

> <Gold.PLP.Chemscore.Internal.Correction>
0.0144

> <Gold.Rescore>
     Score         DG    S(hbond)    S(metal)    S(lipo)     H(rot)  DE(clash)    DE(int)     intcor
     17.05     -19.32       1.30        0.00     126.91       2.10       1.41       0.86       ----

> <Gold.Chemscore.Fitness>
17.0457

> <Gold.Chemscore.DG>
-19.3151

> <Gold.Chemscore.ZeroCoef>
-5.4800

> <Gold.Chemscore.Hbond>
1.3040

> <Gold.Chemscore.Metal>
0.0000

> <Gold.Chemscore.Lipo>
126.9086

> <Gold.Chemscore.Internal_Hbond>
0.0000

> <Gold.Chemscore.DEClash>
1.4087

> <Gold.Chemscore.DEInternal>
0.8608

> <Gold.Chemscore.Rot>
2.0971

> <Gold.Chemscore.Internal.Correction>
   9.000000E+99

> <Gold.Chemscore.Hbonds>
donor molecule, donor type, donor heavy atom, donor atom, acceptor molecule, acceptor atom, score
      L1  H     7    32       P1  7957  0.72
      P1  H  7989  7998       L1     7  0.09
      P1  H  8011  8017       L1     7  0.23

> <Gold.Chemscore.Hbond.Weighted>
-4.3553

> <Gold.Chemscore.Metal.Weighted>
-0.0000

> <Gold.Chemscore.Lipo.Weighted>
-14.8483

> <Gold.Chemscore.Internal_Hbond.Weighted>
0.0000

> <Gold.Chemscore.DEClash.Weighted>
1.4087

> <Gold.Chemscore.DEInternal.Weighted>
0.8608

> <Gold.Chemscore.Rot.Weighted>
5.3685

> <Gold.Chemscore.Internal.Correction.Weighted>
   9.000000E+99

> <Gold.Protein.RotatedTorsions>
[ 6907 6896 6895 6894 ] final  -40.26 input  -60.11 | X-H torsion
[ 7974 7965 7964 7962 ] final  -12.15 input  175.53 | X-H torsion
[ 8008 7997 7996 7995 ] final    3.68 input   59.86 | X-H torsion
[ 10167 10162 10161 10158 ] final  144.98 input  -65.29 | X-H torsion
[ 10718 10713 10712 10709 ] final   63.47 input   66.30 | X-H torsion
[ 10763 10752 10751 10750 ] final  -65.59 input  -60.55 | X-H torsion
[ 11005 11000 10999 10996 ] final  170.73 input  -57.11 | X-H torsion

> <Gold.Protein.ActiveResidues>
 VAL166  LYS551  ARG553  GLY616  TRP617  ASP618  TYR619  PRO620  LYS621  CYS622 
 ASP623  PHE694  ASN695  SER759  ASP760  ASP761  ALA762  ILE779  LEU786  VAL792 
 PHE793  MET794  SER795  GLU796  ALA797  LYS798  CYS799  TRP800  GLU811  SER814 

> <Gold.Protein.RotatedAtoms>
  150.9805  134.9161  159.7841 H   0  0  0  0  0  0  0  0  0  0  0  0  # atno 6907 bound_to 6896
  152.5220  134.3416  159.9229 H   0  0  0  0  0  0  0  0  0  0  0  0  # atno 6908 bound_to 6896
  151.3424  133.3916  159.2707 H   0  0  0  0  0  0  0  0  0  0  0  0  # atno 6909 bound_to 6896
  146.2162  140.3015  142.8375 H   0  0  0  0  0  0  0  0  0  0  0  0  # atno 7974 bound_to 7965
  154.7067  140.2684  155.6668 H   0  0  0  0  0  0  0  0  0  0  0  0  # atno 8008 bound_to 7997
  156.2782  140.2761  156.1619 H   0  0  0  0  0  0  0  0  0  0  0  0  # atno 8009 bound_to 7997
  155.0691  140.0372  157.2592 H   0  0  0  0  0  0  0  0  0  0  0  0  # atno 8010 bound_to 7997
  139.4935  144.5934  151.6634 H   0  0  0  0  0  0  0  0  0  0  0  0  # atno 10167 bound_to 10162
  157.5974  130.9107  149.9721 H   0  0  0  0  0  0  0  0  0  0  0  0  # atno 10718 bound_to 10713
  154.3472  135.6144  153.5625 H   0  0  0  0  0  0  0  0  0  0  0  0  # atno 10763 bound_to 10752
  152.9800  135.5784  154.4785 H   0  0  0  0  0  0  0  0  0  0  0  0  # atno 10764 bound_to 10752
  154.4499  135.2852  155.1765 H   0  0  0  0  0  0  0  0  0  0  0  0  # atno 10765 bound_to 10752
  140.3114  134.7513  157.3994 H   0  0  0  0  0  0  0  0  0  0  0  0  # atno 11005 bound_to 11000
  144.9053  140.7693  143.5841 LP  0  0  0  0  0  0  0  0  0  0  0  0  # atno 17320 bound_to 7965
  145.2943  139.1872  143.4723 LP  0  0  0  0  0  0  0  0  0  0  0  0  # atno 17321 bound_to 7965
  140.5566  144.0338  150.6150 LP  0  0  0  0  0  0  0  0  0  0  0  0  # atno 17342 bound_to 10162
  140.3410  143.3019  152.0588 LP  0  0  0  0  0  0  0  0  0  0  0  0  # atno 17343 bound_to 10162
  156.1039  130.3654  150.0168 LP  0  0  0  0  0  0  0  0  0  0  0  0  # atno 17370 bound_to 10713
  156.8279  130.9382  151.3638 LP  0  0  0  0  0  0  0  0  0  0  0  0  # atno 17371 bound_to 10713
  140.1021  134.5458  155.8343 LP  0  0  0  0  0  0  0  0  0  0  0  0  # atno 17394 bound_to 11000
  141.2107  133.6698  156.6529 LP  0  0  0  0  0  0  0  0  0  0  0  0  # atno 17395 bound_to 11000

$$$$
