AV-unprocessed.smi:81|AV-procd|sdf|786|dock5
  -GOLD-   2262017153D 1   1.00000     0.00000
 Structure written by MMmdl.
 64 67  0  0  0  0  0  0  0  0  2 V2000
  151.7158  128.2303  155.0450 C   0  0  0  0  0  0  0  0  0  0  0  0
  151.3279  129.7046  154.8447 C   0  0  0  0  0  0  0  0  0  0  0  0
  152.2579  130.6198  155.6533 C   0  0  0  0  0  0  0  0  0  0  0  0
  149.8522  129.9686  155.2224 C   0  0  0  0  0  0  0  0  0  0  0  0
  149.3764  131.3116  154.8766 N   0  0  0  0  0  0  0  0  0  0  0  0
  149.4726  132.2212  155.8778 C   0  0  0  0  0  0  0  0  0  0  0  0
  150.1917  133.3603  155.6952 N   0  0  0  0  0  0  0  0  0  0  0  0
  150.2698  134.2657  156.6749 C   0  0  0  0  0  0  0  0  0  0  0  0
  149.7116  134.2340  157.8869 N   0  0  0  0  0  0  0  0  0  0  0  0
  148.9796  133.0972  158.0669 C   0  0  0  0  0  0  0  0  0  0  0  0
  148.8142  132.0457  157.1238 C   0  0  0  0  0  0  0  0  0  0  0  0
  148.0070  131.0489  157.6563 N   0  0  0  0  0  0  0  0  0  0  0  0
  147.7056  131.4897  158.8472 C   0  0  0  0  0  0  0  0  0  0  0  0
  148.2369  132.7182  159.1713 N   0  0  0  0  0  0  0  0  0  0  0  0
  148.0477  133.4496  160.4149 C   0  0  0  0  0  0  0  0  0  0  0  0
  146.5567  133.7346  160.7367 C   0  0  1  0  0  0  0  0  0  0  0  0
  145.9564  134.2871  159.5770 O   0  0  0  0  0  0  0  0  0  0  0  0
  145.7647  132.4878  161.1196 C   0  0  0  0  0  0  0  0  0  0  0  0
  144.6637  133.0443  162.0088 C   0  0  0  0  0  0  0  0  0  0  0  0
  145.3472  134.0295  162.7632 O   0  0  0  0  0  0  0  0  0  0  0  0
  146.2762  134.7053  161.9184 C   0  0  1  0  0  0  0  0  0  0  0  0
  147.4803  135.1037  162.7859 C   0  0  0  0  0  0  0  0  0  0  0  0
  148.1635  131.3828  154.0489 C   0  0  2  0  0  0  0  0  0  0  0  0
  147.8781  130.0947  153.2482 C   0  0  0  0  0  0  0  0  0  0  0  0
  146.5532  130.2103  152.4771 C   0  0  0  0  0  0  0  0  0  0  0  0
  146.5615  131.3913  151.5784 N   0  3  1  0  0  0  0  0  0  0  0  0
  145.3505  131.4624  150.7329 C   0  0  0  0  0  0  0  0  0  0  0  0
  146.8072  132.6536  152.3196 C   0  0  0  0  0  0  0  0  0  0  0  0
  148.1357  132.5938  153.0912 C   0  0  0  0  0  0  0  0  0  0  0  0
  151.5865  127.9241  156.0834 H   0  0  0  0  0  0  0  0  0  0  0  0
  152.7582  128.0590  154.7751 H   0  0  0  0  0  0  0  0  0  0  0  0
  151.1086  127.5698  154.4262 H   0  0  0  0  0  0  0  0  0  0  0  0
  151.4797  129.9526  153.7936 H   0  0  0  0  0  0  0  0  0  0  0  0
  152.1682  130.4313  156.7237 H   0  0  0  0  0  0  0  0  0  0  0  0
  152.0230  131.6702  155.4794 H   0  0  0  0  0  0  0  0  0  0  0  0
  153.3008  130.4671  155.3742 H   0  0  0  0  0  0  0  0  0  0  0  0
  149.2206  129.2319  154.7248 H   0  0  0  0  0  0  0  0  0  0  0  0
  149.7150  129.8062  156.2924 H   0  0  0  0  0  0  0  0  0  0  0  0
  150.8600  135.1433  156.4554 H   0  0  0  0  0  0  0  0  0  0  0  0
  147.0744  130.9313  159.5231 H   0  0  0  0  0  0  0  0  0  0  0  0
  148.5062  132.8637  161.2117 H   0  0  0  0  0  0  0  0  0  0  0  0
  148.6098  134.3824  160.3526 H   0  0  0  0  0  0  0  0  0  0  0  0
  146.2333  135.1869  159.4947 H   0  0  0  0  0  0  0  0  0  0  0  0
  145.3852  131.9250  160.2654 H   0  0  0  0  0  0  0  0  0  0  0  0
  146.3870  131.8148  161.7109 H   0  0  0  0  0  0  0  0  0  0  0  0
  143.8760  133.5118  161.4158 H   0  0  0  0  0  0  0  0  0  0  0  0
  144.2131  132.2863  162.6496 H   0  0  0  0  0  0  0  0  0  0  0  0
  145.7967  135.6172  161.5573 H   0  0  0  0  0  0  0  0  0  0  0  0
  148.2316  135.6378  162.2042 H   0  0  0  0  0  0  0  0  0  0  0  0
  147.9535  134.2325  163.2390 H   0  0  0  0  0  0  0  0  0  0  0  0
  147.1673  135.7627  163.5960 H   0  0  0  0  0  0  0  0  0  0  0  0
  147.3369  131.5045  154.7502 H   0  0  0  0  0  0  0  0  0  0  0  0
  148.6818  129.8946  152.5386 H   0  0  0  0  0  0  0  0  0  0  0  0
  147.8330  129.2383  153.9218 H   0  0  0  0  0  0  0  0  0  0  0  0
  146.3944  129.3050  151.8900 H   0  0  0  0  0  0  0  0  0  0  0  0
  145.7177  130.2869  153.1749 H   0  0  0  0  0  0  0  0  0  0  0  0
  144.4550  131.5941  151.3417 H   0  0  0  0  0  0  0  0  0  0  0  0
  145.2348  130.5498  150.1474 H   0  0  0  0  0  0  0  0  0  0  0  0
  145.4161  132.2979  150.0353 H   0  0  0  0  0  0  0  0  0  0  0  0
  146.8321  133.4890  151.6187 H   0  0  0  0  0  0  0  0  0  0  0  0
  145.9814  132.8415  153.0077 H   0  0  0  0  0  0  0  0  0  0  0  0
  148.2721  133.5235  153.6440 H   0  0  0  0  0  0  0  0  0  0  0  0
  148.9567  132.5339  152.3763 H   0  0  0  0  0  0  0  0  0  0  0  0
  147.3430  131.2693  150.9500 H   0  0  0  0  0  0  0  0  0  0  0  0
  1  2  1  0  0  0  0
  1 30  1  0  0  0  0
  1 31  1  0  0  0  0
  1 32  1  0  0  0  0
  2  3  1  0  0  0  0
  2  4  1  0  0  0  0
  2 33  1  0  0  0  0
  3 34  1  0  0  0  0
  3 35  1  0  0  0  0
  3 36  1  0  0  0  0
  4  5  1  0  0  0  0
  4 37  1  0  0  0  0
  4 38  1  0  0  0  0
  5  6  1  0  0  0  0
  5 23  1  0  0  0  0
  6 11  1  0  0  0  0
  6  7  2  0  0  0  0
  7  8  1  0  0  0  0
  8  9  2  0  0  0  0
  8 39  1  0  0  0  0
  9 10  1  0  0  0  0
 10 14  1  0  0  0  0
 10 11  2  0  0  0  0
 11 12  1  0  0  0  0
 12 13  2  0  0  0  0
 13 14  1  0  0  0  0
 13 40  1  0  0  0  0
 14 15  1  0  0  0  0
 15 16  1  0  0  0  0
 15 41  1  0  0  0  0
 15 42  1  0  0  0  0
 16 21  1  0  0  0  0
 16 17  1  0  0  0  0
 16 18  1  0  0  0  0
 17 43  1  0  0  0  0
 18 19  1  0  0  0  0
 18 44  1  0  0  0  0
 18 45  1  0  0  0  0
 19 20  1  0  0  0  0
 19 46  1  0  0  0  0
 19 47  1  0  0  0  0
 20 21  1  0  0  0  0
 21 22  1  0  0  0  0
 21 48  1  0  0  0  0
 22 49  1  0  0  0  0
 22 50  1  0  0  0  0
 22 51  1  0  0  0  0
 23 29  1  0  0  0  0
 23 24  1  0  0  0  0
 23 52  1  0  0  0  0
 24 25  1  0  0  0  0
 24 53  1  0  0  0  0
 24 54  1  0  0  0  0
 25 26  1  0  0  0  0
 25 55  1  0  0  0  0
 25 56  1  0  0  0  0
 26 27  1  0  0  0  0
 26 28  1  0  0  0  0
 26 64  1  0  0  0  0
 27 57  1  0  0  0  0
 27 58  1  0  0  0  0
 27 59  1  0  0  0  0
 28 29  1  0  0  0  0
 28 60  1  0  0  0  0
 28 61  1  0  0  0  0
 29 62  1  0  0  0  0
 29 63  1  0  0  0  0
M  CHG  1  26   1
M  END
> <s_m_source_file>
AV-unprocessed.smi

> <i_m_source_file_index>
81

> <i_lp_mmshare_version>
43012

> <i_f3d_flags>
0

> <s_epik_input>
W0NIMl0xW0NIMl1OKFtDSDNdKVtDSDJdW0NIMl1bQ0hdMU4oW0NIMl1bQ0hdKFtDSDNdKVtDSDNdKWMobltjSF1uMiljKGMyMyluW2NIXW4zW0NIMl1bQ0BAXTQoW09IXSlbQ0gyXVtDSDJdT1tDQEhdNFtDSDNd

> <s_epik_cmdline>
J2VwaWtfcHl0aG9uJywgJy1waCcsICc3LjAnLCAnLXRuJywgJzgnLCAnLW1hJywgJzIwMCcsICctbWV0YWxfYmluZGluZycsICctaW1hZScsICc8aW5maWxlLm1hZT4nLCAnLW9tYWUnLCAnPG91dGZpbGUubWFlPic=

> <r_lp_tautomer_probability>
1

> <r_epik_Ionization_Penalty>
0.00272708

> <r_epik_Ionization_Penalty_Charging>
0.00158983

> <r_epik_Ionization_Penalty_Neutral>
0.00113725

> <r_epik_State_Penalty>
-0

> <r_epik_Charging_Adjusted_Penalty>
0.00158983

> <i_epik_Tot_Q>
1

> <i_epik_Tot_abs_Q>
1

> <r_epik_Metal_State_Penalty>
-0

> <b_epik_Metal_Only>
0

> <s_lp_Force_Field>
OPLS_2005

> <r_lp_Energy>
44.8479

> <b_lp_Chiralities_Consistent>
1

> <s_lp_Variant>
AV-unprocessed.smi:81-1

> <Gold.Version>
5.8.1

> <Gold.Id.Protein>
6NUR|6NUR_protein|mol2

> <Gold.PLP.Fitness>
43.7442

> <Gold.PLP.PLP>
-40.0986

> <Gold.PLP.part.hbond>
-2.1545

> <Gold.PLP.part.metal>
0.0000

> <Gold.PLP.part.buried>
-4.2920

> <Gold.PLP.part.nonpolar>
-33.7051

> <Gold.PLP.part.repulsive>
0.0727

> <Gold.PLP.ligand.clash>
0.0000

> <Gold.PLP.ligand.torsion>
1.6112

> <Gold.PLP.Chemscore.Hbond>
1.9760

> <Gold.PLP.Chemscore.CHOScore>
0.0000

> <Gold.PLP.Chemscore.Metal>
0.0000

> <Gold.Chemscore.Hbonds>
donor molecule, donor type, donor heavy atom, donor atom, acceptor molecule, acceptor atom, score
      L1  H    26    64       P1 10747  1.00
      P1  H  6896  6908       L1     9  0.94

> <Gold.PLP.Chemscore.Internal.Correction>
0.9401

> <Gold.Rescore>
     Score         DG    S(hbond)    S(metal)    S(lipo)     H(rot)  DE(clash)    DE(int)     intcor
     14.49     -16.31       1.66        0.00     101.62       2.58       0.04       1.78       ----

> <Gold.Chemscore.Fitness>
14.4893

> <Gold.Chemscore.DG>
-16.3138

> <Gold.Chemscore.ZeroCoef>
-5.4800

> <Gold.Chemscore.Hbond>
1.6594

> <Gold.Chemscore.Metal>
0.0000

> <Gold.Chemscore.Lipo>
101.6207

> <Gold.Chemscore.Internal_Hbond>
0.0000

> <Gold.Chemscore.DEClash>
0.0432

> <Gold.Chemscore.DEInternal>
1.7813

> <Gold.Chemscore.Rot>
2.5774

> <Gold.Chemscore.Internal.Correction>
   9.000000E+99

> <Gold.Chemscore.Hbonds>
donor molecule, donor type, donor heavy atom, donor atom, acceptor molecule, acceptor atom, score
      L1  H    26    64       P1 10747  1.00
      P1  H  6896  6908       L1     9  0.31

> <Gold.Chemscore.Hbond.Weighted>
-5.5425

> <Gold.Chemscore.Metal.Weighted>
-0.0000

> <Gold.Chemscore.Lipo.Weighted>
-11.8896

> <Gold.Chemscore.Internal_Hbond.Weighted>
0.0000

> <Gold.Chemscore.DEClash.Weighted>
0.0432

> <Gold.Chemscore.DEInternal.Weighted>
1.7813

> <Gold.Chemscore.Rot.Weighted>
6.5982

> <Gold.Chemscore.Internal.Correction.Weighted>
   9.000000E+99

> <Gold.Protein.RotatedTorsions>
[ 6907 6896 6895 6894 ] final  154.37 input  -60.11 | X-H torsion
[ 7974 7965 7964 7962 ] final -111.92 input  175.53 | X-H torsion
[ 8008 7997 7996 7995 ] final  147.66 input   59.86 | X-H torsion
[ 10167 10162 10161 10158 ] final  -13.38 input  -65.29 | X-H torsion
[ 10718 10713 10712 10709 ] final  156.51 input   66.30 | X-H torsion
[ 10763 10752 10751 10750 ] final  -58.52 input  -60.55 | X-H torsion
[ 11005 11000 10999 10996 ] final   35.87 input  -57.11 | X-H torsion

> <Gold.Protein.ActiveResidues>
 VAL166  LYS551  ARG553  GLY616  TRP617  ASP618  TYR619  PRO620  LYS621  CYS622 
 ASP623  PHE694  ASN695  SER759  ASP760  ASP761  ALA762  ILE779  LEU786  VAL792 
 PHE793  MET794  SER795  GLU796  ALA797  LYS798  CYS799  TRP800  GLU811  SER814 

> <Gold.Protein.RotatedAtoms>
  152.0595  133.4055  159.4411 H   0  0  0  0  0  0  0  0  0  0  0  0  # atno 6907 bound_to 6896
  150.6867  134.3216  159.4798 H   0  0  0  0  0  0  0  0  0  0  0  0  # atno 6908 bound_to 6896
  152.1036  134.9324  160.0619 H   0  0  0  0  0  0  0  0  0  0  0  0  # atno 6909 bound_to 6896
  145.1503  140.8825  143.3650 H   0  0  0  0  0  0  0  0  0  0  0  0  # atno 7974 bound_to 7965
  156.2817  140.2149  156.5574 H   0  0  0  0  0  0  0  0  0  0  0  0  # atno 8008 bound_to 7997
  154.7241  140.0501  157.0689 H   0  0  0  0  0  0  0  0  0  0  0  0  # atno 8009 bound_to 7997
  155.0439  140.3149  155.4718 H   0  0  0  0  0  0  0  0  0  0  0  0  # atno 8010 bound_to 7997
  140.7181  143.5432  150.9385 H   0  0  0  0  0  0  0  0  0  0  0  0  # atno 10167 bound_to 10162
  157.2039  131.0682  151.2009 H   0  0  0  0  0  0  0  0  0  0  0  0  # atno 10718 bound_to 10713
  154.2394  135.6346  153.5202 H   0  0  0  0  0  0  0  0  0  0  0  0  # atno 10763 bound_to 10752
  152.9933  135.5538  154.5927 H   0  0  0  0  0  0  0  0  0  0  0  0  # atno 10764 bound_to 10752
  154.5429  135.2896  155.1054 H   0  0  0  0  0  0  0  0  0  0  0  0  # atno 10765 bound_to 10752
  140.2383  134.3445  155.7936 H   0  0  0  0  0  0  0  0  0  0  0  0  # atno 11005 bound_to 11000
  145.0438  139.3238  143.5963 LP  0  0  0  0  0  0  0  0  0  0  0  0  # atno 17320 bound_to 7965
  146.3495  139.9821  142.8694 LP  0  0  0  0  0  0  0  0  0  0  0  0  # atno 17321 bound_to 7965
  139.9155  143.6668  152.3107 LP  0  0  0  0  0  0  0  0  0  0  0  0  # atno 17342 bound_to 10162
  139.7067  144.7627  151.1181 LP  0  0  0  0  0  0  0  0  0  0  0  0  # atno 17343 bound_to 10162
  157.3739  130.7195  149.6584 LP  0  0  0  0  0  0  0  0  0  0  0  0  # atno 17370 bound_to 10713
  155.9697  130.4191  150.4359 LP  0  0  0  0  0  0  0  0  0  0  0  0  # atno 17371 bound_to 10713
  141.2212  133.7284  156.8844 LP  0  0  0  0  0  0  0  0  0  0  0  0  # atno 17394 bound_to 11000
  140.1679  134.9120  157.2797 LP  0  0  0  0  0  0  0  0  0  0  0  0  # atno 17395 bound_to 11000

$$$$
