AV-unprocessed.smi:557|AV-procd|sdf|2920|dock3
  -GOLD-   2262023413D 1   1.00000     0.00000
 Structure written by MMmdl.
 47 49  0  0  0  0  0  0  0  0  2 V2000
  150.9257  141.4239  156.2242 C   0  0  0  0  0  0  0  0  0  0  0  0
  150.8501  140.1367  155.5671 N   0  0  0  0  0  0  0  0  0  0  0  0
  151.2506  138.9049  156.0385 C   0  0  0  0  0  0  0  0  0  0  0  0
  150.9789  137.9849  155.0652 C   0  0  0  0  0  0  0  0  0  0  0  0
  151.2255  136.5022  155.0765 C   0  0  0  0  0  0  0  0  0  0  0  0
  149.9992  135.7315  155.5835 C   0  0  0  0  0  0  0  0  0  0  0  0
  149.1513  135.3232  154.4665 N   0  0  0  0  0  0  0  0  0  0  0  0
  148.2024  134.3718  154.4710 C   0  0  0  0  0  0  0  0  0  0  0  0
  147.9406  133.7180  155.4787 O   0  0  0  0  0  0  0  0  0  0  0  0
  147.5727  134.2049  153.2955 N   0  0  0  0  0  0  0  0  0  0  0  0
  146.5118  133.2358  153.0387 C   0  0  2  0  0  0  0  0  0  0  0  0
  146.9944  131.7784  153.1475 C   0  0  0  0  0  0  0  0  0  0  0  0
  146.2565  131.0180  152.0283 C   0  0  0  0  0  0  0  0  0  0  0  0
  145.3382  132.0032  151.4267 N   0  3  2  0  0  0  0  0  0  0  0  0
  144.9045  131.7581  150.0341 C   0  0  0  0  0  0  0  0  0  0  0  0
  143.8862  132.8394  149.6218 C   0  0  0  0  0  0  0  0  0  0  0  0
  144.4377  134.2611  149.8537 C   0  0  0  0  0  0  0  0  0  0  0  0
  144.9631  134.4275  151.2930 C   0  0  0  0  0  0  0  0  0  0  0  0
  145.9792  133.3151  151.6053 C   0  0  1  0  0  0  0  0  0  0  0  0
  150.4022  138.7667  154.0238 C   0  0  0  0  0  0  0  0  0  0  0  0
  150.3264  140.0523  154.3268 N   0  0  0  0  0  0  0  0  0  0  0  0
  151.5471  141.3512  157.1175 H   0  0  0  0  0  0  0  0  0  0  0  0
  149.9256  141.7483  156.5126 H   0  0  0  0  0  0  0  0  0  0  0  0
  151.3614  142.1618  155.5500 H   0  0  0  0  0  0  0  0  0  0  0  0
  151.6922  138.7855  157.0170 H   0  0  0  0  0  0  0  0  0  0  0  0
  151.4833  136.1524  154.0761 H   0  0  0  0  0  0  0  0  0  0  0  0
  152.0855  136.2648  155.7042 H   0  0  0  0  0  0  0  0  0  0  0  0
  150.3187  134.8477  156.1382 H   0  0  0  0  0  0  0  0  0  0  0  0
  149.4254  136.3585  156.2680 H   0  0  0  0  0  0  0  0  0  0  0  0
  149.2959  135.8173  153.5975 H   0  0  0  0  0  0  0  0  0  0  0  0
  147.8561  134.7891  152.5221 H   0  0  0  0  0  0  0  0  0  0  0  0
  145.6874  133.3759  153.7415 H   0  0  0  0  0  0  0  0  0  0  0  0
  148.0722  131.7018  152.9960 H   0  0  0  0  0  0  0  0  0  0  0  0
  146.7730  131.3655  154.1322 H   0  0  0  0  0  0  0  0  0  0  0  0
  146.9708  130.6664  151.2823 H   0  0  0  0  0  0  0  0  0  0  0  0
  145.7064  130.1549  152.4038 H   0  0  0  0  0  0  0  0  0  0  0  0
  145.7679  131.7722  149.3671 H   0  0  0  0  0  0  0  0  0  0  0  0
  144.4537  130.7679  149.9595 H   0  0  0  0  0  0  0  0  0  0  0  0
  143.6081  132.7119  148.5753 H   0  0  0  0  0  0  0  0  0  0  0  0
  142.9705  132.7113  150.2005 H   0  0  0  0  0  0  0  0  0  0  0  0
  145.2469  134.4541  149.1481 H   0  0  0  0  0  0  0  0  0  0  0  0
  143.6649  135.0024  149.6477 H   0  0  0  0  0  0  0  0  0  0  0  0
  145.4250  135.4082  151.4061 H   0  0  0  0  0  0  0  0  0  0  0  0
  144.1325  134.3881  151.9992 H   0  0  0  0  0  0  0  0  0  0  0  0
  146.8217  133.3878  150.9133 H   0  0  0  0  0  0  0  0  0  0  0  0
  150.0394  138.4388  153.0608 H   0  0  0  0  0  0  0  0  0  0  0  0
  144.5084  132.0114  152.0030 H   0  0  0  0  0  0  0  0  0  0  0  0
  1  2  1  0  0  0  0
  1 22  1  0  0  0  0
  1 23  1  0  0  0  0
  1 24  1  0  0  0  0
  2 21  1  0  0  0  0
  2  3  1  0  0  0  0
  3  4  2  0  0  0  0
  3 25  1  0  0  0  0
  4  5  1  0  0  0  0
  4 20  1  0  0  0  0
  5  6  1  0  0  0  0
  5 26  1  0  0  0  0
  5 27  1  0  0  0  0
  6  7  1  0  0  0  0
  6 28  1  0  0  0  0
  6 29  1  0  0  0  0
  7  8  1  0  0  0  0
  7 30  1  0  0  0  0
  8  9  2  0  0  0  0
  8 10  1  0  0  0  0
 10 11  1  0  0  0  0
 10 31  1  0  0  0  0
 11 19  1  0  0  0  0
 11 12  1  0  0  0  0
 11 32  1  0  0  0  0
 12 13  1  0  0  0  0
 12 33  1  0  0  0  0
 12 34  1  0  0  0  0
 13 14  1  0  0  0  0
 13 35  1  0  0  0  0
 13 36  1  0  0  0  0
 14 19  1  0  0  0  0
 14 15  1  0  0  0  0
 14 47  1  0  0  0  0
 15 16  1  0  0  0  0
 15 37  1  0  0  0  0
 15 38  1  0  0  0  0
 16 17  1  0  0  0  0
 16 39  1  0  0  0  0
 16 40  1  0  0  0  0
 17 18  1  0  0  0  0
 17 41  1  0  0  0  0
 17 42  1  0  0  0  0
 18 19  1  0  0  0  0
 18 43  1  0  0  0  0
 18 44  1  0  0  0  0
 19 45  1  0  0  0  0
 20 21  2  0  0  0  0
 20 46  1  0  0  0  0
M  CHG  1  14   1
M  END
> <s_m_source_file>
AV-unprocessed.smi

> <i_m_source_file_index>
557

> <i_lp_mmshare_version>
43012

> <i_f3d_flags>
0

> <s_epik_input>
W0NIM11uMVtjSF1jKFtjSF1uMSlbQ0gyXVtDSDJdW05IXUMoPU8pW05IXVtDQEhdKFtDSDJdW0NIMl0yKVtDQEhdKE4yMylbQ0gyXVtDSDJdW0NIMl1bQ0gyXTM=

> <s_epik_cmdline>
J2VwaWtfcHl0aG9uJywgJy1waCcsICc3LjAnLCAnLXRuJywgJzgnLCAnLW1hJywgJzIwMCcsICctbWV0YWxfYmluZGluZycsICctaW1hZScsICc8aW5maWxlLm1hZT4nLCAnLW9tYWUnLCAnPG91dGZpbGUubWFlPic=

> <r_lp_tautomer_probability>
1

> <r_epik_Ionization_Penalty>
0.000956547

> <r_epik_Ionization_Penalty_Charging>
0.000435796

> <r_epik_Ionization_Penalty_Neutral>
0.000520752

> <r_epik_State_Penalty>
-0

> <r_epik_Charging_Adjusted_Penalty>
0.000435796

> <i_epik_Tot_Q>
1

> <i_epik_Tot_abs_Q>
1

> <r_epik_Metal_State_Penalty>
-0

> <b_epik_Metal_Only>
0

> <s_lp_Force_Field>
OPLS_2005

> <r_lp_Energy>
39.998

> <b_lp_Chiralities_Consistent>
1

> <s_lp_Variant>
AV-unprocessed.smi:557-7

> <Gold.Version>
5.8.1

> <Gold.Id.Protein>
6NUR|6NUR_protein|mol2

> <Gold.PLP.Fitness>
46.3288

> <Gold.PLP.PLP>
-34.4975

> <Gold.PLP.part.hbond>
-3.0000

> <Gold.PLP.part.metal>
0.0000

> <Gold.PLP.part.buried>
-0.7733

> <Gold.PLP.part.nonpolar>
-30.9144

> <Gold.PLP.part.repulsive>
0.1789

> <Gold.PLP.ligand.clash>
0.0000

> <Gold.PLP.ligand.torsion>
0.7245

> <Gold.PLP.Chemscore.Hbond>
2.9420

> <Gold.PLP.Chemscore.CHOScore>
1.4779

> <Gold.PLP.Chemscore.Metal>
0.0000

> <Gold.Chemscore.Hbonds>
donor molecule, donor type, donor heavy atom, donor atom, acceptor molecule, acceptor atom, score
      L1  H     7    30       P1  7948  1.00
      L1  H    10    31       P1  7948  0.99
      P1  H  7989  7998       L1    21  0.85
      L1  C    20    46       P1  7948  0.61
      L1  C    20    46       P1  7957  0.86

> <Gold.PLP.Chemscore.Internal.Correction>
0.0205

> <Gold.Rescore>
     Score         DG    S(hbond)    S(metal)    S(lipo)     H(rot)  DE(clash)    DE(int)     intcor
     18.60     -21.19       2.68        0.00      92.77       1.60       1.83       0.77       ----

> <Gold.Chemscore.Fitness>
18.5966

> <Gold.Chemscore.DG>
-21.1940

> <Gold.Chemscore.ZeroCoef>
-5.4800

> <Gold.Chemscore.Hbond>
2.6828

> <Gold.Chemscore.Metal>
0.0000

> <Gold.Chemscore.Lipo>
92.7679

> <Gold.Chemscore.Internal_Hbond>
0.0000

> <Gold.Chemscore.DEClash>
1.8279

> <Gold.Chemscore.DEInternal>
0.7694

> <Gold.Chemscore.Rot>
1.6018

> <Gold.Chemscore.Internal.Correction>
   9.000000E+99

> <Gold.Chemscore.Hbonds>
donor molecule, donor type, donor heavy atom, donor atom, acceptor molecule, acceptor atom, score
      L1  H     7    30       P1  7948  0.59
      L1  H    10    31       P1  7948  0.77
      P1  H  7989  7998       L1    21  0.09

> <Gold.Chemscore.Hbond.Weighted>
-8.9607

> <Gold.Chemscore.Metal.Weighted>
-0.0000

> <Gold.Chemscore.Lipo.Weighted>
-10.8538

> <Gold.Chemscore.Internal_Hbond.Weighted>
0.0000

> <Gold.Chemscore.DEClash.Weighted>
1.8279

> <Gold.Chemscore.DEInternal.Weighted>
0.7694

> <Gold.Chemscore.Rot.Weighted>
4.1006

> <Gold.Chemscore.Internal.Correction.Weighted>
   9.000000E+99

> <Gold.Protein.RotatedTorsions>
[ 6907 6896 6895 6894 ] final -124.50 input  -60.11 | X-H torsion
[ 7974 7965 7964 7962 ] final  117.47 input  175.53 | X-H torsion
[ 8008 7997 7996 7995 ] final -138.91 input   59.86 | X-H torsion
[ 10167 10162 10161 10158 ] final -179.10 input  -65.29 | X-H torsion
[ 10718 10713 10712 10709 ] final  130.46 input   66.30 | X-H torsion
[ 10763 10752 10751 10750 ] final  -46.78 input  -60.55 | X-H torsion
[ 11005 11000 10999 10996 ] final  -54.97 input  -57.11 | X-H torsion

> <Gold.Protein.ActiveResidues>
 VAL166  LYS551  ARG553  GLY616  TRP617  ASP618  TYR619  PRO620  LYS621  CYS622 
 ASP623  PHE694  ASN695  SER759  ASP760  ASP761  ALA762  ILE779  LEU786  VAL792 
 PHE793  MET794  SER795  GLU796  ALA797  LYS798  CYS799  TRP800  GLU811  SER814 

> <Gold.Protein.RotatedAtoms>
  150.8774  133.7419  159.2942 H   0  0  0  0  0  0  0  0  0  0  0  0  # atno 6907 bound_to 6896
  151.5012  135.1060  159.9839 H   0  0  0  0  0  0  0  0  0  0  0  0  # atno 6908 bound_to 6896
  152.4737  133.8042  159.7025 H   0  0  0  0  0  0  0  0  0  0  0  0  # atno 6909 bound_to 6896
  145.1670  139.3123  143.4488 H   0  0  0  0  0  0  0  0  0  0  0  0  # atno 7974 bound_to 7965
  155.4361  140.0528  157.3014 H   0  0  0  0  0  0  0  0  0  0  0  0  # atno 8008 bound_to 7997
  154.4838  140.2092  155.9659 H   0  0  0  0  0  0  0  0  0  0  0  0  # atno 8009 bound_to 7997
  156.1245  140.3182  155.8262 H   0  0  0  0  0  0  0  0  0  0  0  0  # atno 8010 bound_to 7997
  139.5402  144.2385  152.0879 H   0  0  0  0  0  0  0  0  0  0  0  0  # atno 10167 bound_to 10162
  157.5060  131.1095  150.9361 H   0  0  0  0  0  0  0  0  0  0  0  0  # atno 10718 bound_to 10713
  154.0506  135.6631  153.4800 H   0  0  0  0  0  0  0  0  0  0  0  0  # atno 10763 bound_to 10752
  153.0465  135.5111  154.7754 H   0  0  0  0  0  0  0  0  0  0  0  0  # atno 10764 bound_to 10752
  154.6759  135.3037  154.9645 H   0  0  0  0  0  0  0  0  0  0  0  0  # atno 10765 bound_to 10752
  141.1052  133.6614  156.4400 H   0  0  0  0  0  0  0  0  0  0  0  0  # atno 11005 bound_to 11000
  146.3474  140.1801  142.8589 LP  0  0  0  0  0  0  0  0  0  0  0  0  # atno 17320 bound_to 7965
  145.0272  140.8842  143.5131 LP  0  0  0  0  0  0  0  0  0  0  0  0  # atno 17321 bound_to 7965
  140.1862  144.4796  150.6502 LP  0  0  0  0  0  0  0  0  0  0  0  0  # atno 17342 bound_to 10162
  140.6628  143.2257  151.5815 LP  0  0  0  0  0  0  0  0  0  0  0  0  # atno 17343 bound_to 10162
  157.0016  130.5602  149.5312 LP  0  0  0  0  0  0  0  0  0  0  0  0  # atno 17370 bound_to 10713
  156.0258  130.5352  150.8403 LP  0  0  0  0  0  0  0  0  0  0  0  0  # atno 17371 bound_to 10713
  140.4921  134.6565  157.5215 LP  0  0  0  0  0  0  0  0  0  0  0  0  # atno 17394 bound_to 11000
  139.9919  134.6972  155.9676 LP  0  0  0  0  0  0  0  0  0  0  0  0  # atno 17395 bound_to 11000

$$$$
