AV-unprocessed.smi:2508|AV-procd|sdf|9865|dock5
  -GOLD-   2272013493D 1   1.00000     0.00000
 Structure written by MMmdl.
 46 47  0  0  0  0  0  0  0  0  1 V2000
  146.2292  131.4912  148.8196 C   0  0  0  0  0  0  0  0  0  0  0  0
  145.6211  132.4223  149.7740 N   0  0  0  0  0  0  0  0  0  0  0  0
  146.4821  133.2195  150.5536 C   0  0  0  0  0  0  0  0  0  0  0  0
  146.0190  134.1066  151.4621 C   0  0  0  0  0  0  0  0  0  0  0  0
  146.8095  134.9373  152.2709 N   0  0  0  0  0  0  0  0  0  0  0  0
  146.5505  135.4525  153.4918 C   0  0  0  0  0  0  0  0  0  0  0  0
  145.5126  135.2897  154.1292 O   0  0  0  0  0  0  0  0  0  0  0  0
  147.5500  136.2036  153.9858 N   0  0  0  0  0  0  0  0  0  0  0  0
  147.5917  136.9012  155.2725 C   0  0  0  0  0  0  0  0  0  0  0  0
  148.3634  138.2496  155.1971 C   0  0  0  0  0  0  0  0  0  0  0  0
  147.7964  139.1074  154.0427 C   0  0  0  0  0  0  0  0  0  0  0  0
  148.1663  139.0379  156.5124 C   0  0  0  0  0  0  0  0  0  0  0  0
  149.8952  138.0479  154.9624 C   0  0  0  0  0  0  0  0  0  0  0  0
  150.6868  137.3516  156.0797 C   0  0  0  0  0  0  0  0  0  0  0  0
  152.1579  137.5968  155.7291 C   0  0  0  0  0  0  0  0  0  0  0  0
  152.1890  138.8645  154.8621 C   0  0  0  0  0  0  0  0  0  0  0  0
  150.7315  139.3081  154.6901 C   0  0  0  0  0  0  0  0  0  0  0  0
  144.5817  134.2098  151.6005 C   0  0  0  0  0  0  0  0  0  0  0  0
  143.7514  133.4511  150.8588 C   0  0  0  0  0  0  0  0  0  0  0  0
  144.2625  132.4899  149.8792 C   0  0  0  0  0  0  0  0  0  0  0  0
  143.5162  131.7891  149.1951 O   0  0  0  0  0  0  0  0  0  0  0  0
  147.3186  131.5387  148.8151 H   0  0  0  0  0  0  0  0  0  0  0  0
  145.8920  131.7079  147.8049 H   0  0  0  0  0  0  0  0  0  0  0  0
  145.9503  130.4638  149.0579 H   0  0  0  0  0  0  0  0  0  0  0  0
  147.5261  133.0505  150.3465 H   0  0  0  0  0  0  0  0  0  0  0  0
  147.7036  135.1839  151.8718 H   0  0  0  0  0  0  0  0  0  0  0  0
  148.3652  136.3132  153.4002 H   0  0  0  0  0  0  0  0  0  0  0  0
  146.5650  137.0654  155.5992 H   0  0  0  0  0  0  0  0  0  0  0  0
  148.0564  136.2351  155.9989 H   0  0  0  0  0  0  0  0  0  0  0  0
  148.3553  140.0365  153.9257 H   0  0  0  0  0  0  0  0  0  0  0  0
  146.7549  139.3821  154.2123 H   0  0  0  0  0  0  0  0  0  0  0  0
  147.8374  138.5773  153.0909 H   0  0  0  0  0  0  0  0  0  0  0  0
  148.7459  139.9616  156.5121 H   0  0  0  0  0  0  0  0  0  0  0  0
  148.4771  138.4555  157.3801 H   0  0  0  0  0  0  0  0  0  0  0  0
  147.1239  139.3162  156.6694 H   0  0  0  0  0  0  0  0  0  0  0  0
  150.0027  137.4174  154.0774 H   0  0  0  0  0  0  0  0  0  0  0  0
  150.4803  137.8050  157.0483 H   0  0  0  0  0  0  0  0  0  0  0  0
  150.4597  136.2879  156.1579 H   0  0  0  0  0  0  0  0  0  0  0  0
  152.7706  137.6986  156.6253 H   0  0  0  0  0  0  0  0  0  0  0  0
  152.5517  136.7542  155.1596 H   0  0  0  0  0  0  0  0  0  0  0  0
  152.7908  139.6527  155.3158 H   0  0  0  0  0  0  0  0  0  0  0  0
  152.6310  138.6364  153.8913 H   0  0  0  0  0  0  0  0  0  0  0  0
  150.5502  139.7270  153.7000 H   0  0  0  0  0  0  0  0  0  0  0  0
  150.5166  140.0871  155.4200 H   0  0  0  0  0  0  0  0  0  0  0  0
  144.1617  134.9066  152.3114 H   0  0  0  0  0  0  0  0  0  0  0  0
  142.6840  133.5528  150.9879 H   0  0  0  0  0  0  0  0  0  0  0  0
  1  2  1  0  0  0  0
  1 22  1  0  0  0  0
  1 23  1  0  0  0  0
  1 24  1  0  0  0  0
  2 20  1  0  0  0  0
  2  3  1  0  0  0  0
  3  4  2  0  0  0  0
  3 25  1  0  0  0  0
  4  5  1  0  0  0  0
  4 18  1  0  0  0  0
  5  6  1  0  0  0  0
  5 26  1  0  0  0  0
  6  7  2  0  0  0  0
  6  8  1  0  0  0  0
  8  9  1  0  0  0  0
  8 27  1  0  0  0  0
  9 10  1  0  0  0  0
  9 28  1  0  0  0  0
  9 29  1  0  0  0  0
 10 11  1  0  0  0  0
 10 12  1  0  0  0  0
 10 13  1  0  0  0  0
 11 30  1  0  0  0  0
 11 31  1  0  0  0  0
 11 32  1  0  0  0  0
 12 33  1  0  0  0  0
 12 34  1  0  0  0  0
 12 35  1  0  0  0  0
 13 17  1  0  0  0  0
 13 14  1  0  0  0  0
 13 36  1  0  0  0  0
 14 15  1  0  0  0  0
 14 37  1  0  0  0  0
 14 38  1  0  0  0  0
 15 16  1  0  0  0  0
 15 39  1  0  0  0  0
 15 40  1  0  0  0  0
 16 17  1  0  0  0  0
 16 41  1  0  0  0  0
 16 42  1  0  0  0  0
 17 43  1  0  0  0  0
 17 44  1  0  0  0  0
 18 19  2  0  0  0  0
 18 45  1  0  0  0  0
 19 20  1  0  0  0  0
 19 46  1  0  0  0  0
 20 21  2  0  0  0  0
M  END
> <s_m_source_file>
AV-unprocessed.smi

> <i_m_source_file_index>
2508

> <i_lp_mmshare_version>
43012

> <i_f3d_flags>
0

> <s_epik_input>
Tz1jMVtjSF1bY0hdYyhbY0hdbjFbQ0gzXSlbTkhdQyg9TylbTkhdW0NIMl1DKFtDSDNdKShbQ0gzXSlbQ0hdMltDSDJdW0NIMl1bQ0gyXVtDSDJdMg==

> <s_epik_cmdline>
J2VwaWtfcHl0aG9uJywgJy1waCcsICc3LjAnLCAnLXRuJywgJzgnLCAnLW1hJywgJzIwMCcsICctbWV0YWxfYmluZGluZycsICctaW1hZScsICc8aW5maWxlLm1hZT4nLCAnLW9tYWUnLCAnPG91dGZpbGUubWFlPic=

> <r_lp_tautomer_probability>
1

> <r_epik_Ionization_Penalty>
2.69566e-05

> <r_epik_Ionization_Penalty_Charging>
5.95678e-06

> <r_epik_Ionization_Penalty_Neutral>
2.09998e-05

> <r_epik_State_Penalty>
-0

> <r_epik_Charging_Adjusted_Penalty>
5.95678e-06

> <i_epik_Tot_Q>
0

> <i_epik_Tot_abs_Q>
0

> <r_epik_Metal_State_Penalty>
-0

> <b_epik_Metal_Only>
0

> <s_lp_Force_Field>
OPLS_2005

> <r_lp_Energy>
55.0143

> <b_lp_Chiralities_Consistent>
1

> <s_lp_Variant>
AV-unprocessed.smi:2508-1

> <Gold.Version>
5.8.1

> <Gold.Id.Protein>
6NUR|6NUR_protein|mol2

> <Gold.PLP.Fitness>
41.8017

> <Gold.PLP.PLP>
-31.8005

> <Gold.PLP.part.hbond>
-2.9241

> <Gold.PLP.part.metal>
0.0000

> <Gold.PLP.part.buried>
-0.9296

> <Gold.PLP.part.nonpolar>
-28.4646

> <Gold.PLP.part.repulsive>
0.6336

> <Gold.PLP.ligand.clash>
0.0000

> <Gold.PLP.ligand.torsion>
0.4679

> <Gold.PLP.Chemscore.Hbond>
2.8640

> <Gold.PLP.Chemscore.CHOScore>
0.7772

> <Gold.PLP.Chemscore.Metal>
0.0000

> <Gold.Chemscore.Hbonds>
donor molecule, donor type, donor heavy atom, donor atom, acceptor molecule, acceptor atom, score
      L1  H     5    26       P1  7948  0.98
      L1  H     8    27       P1  7948  0.93
      P1  H 10785 10796       L1    21  0.94
      L1  C     3    25       P1 10747  0.79

> <Gold.PLP.Chemscore.Internal.Correction>
0.0133

> <Gold.Rescore>
     Score         DG    S(hbond)    S(metal)    S(lipo)     H(rot)  DE(clash)    DE(int)     intcor
     17.94     -19.89       2.67        0.00      76.88       1.37       0.20       1.75       ----

> <Gold.Chemscore.Fitness>
17.9351

> <Gold.Chemscore.DG>
-19.8870

> <Gold.Chemscore.ZeroCoef>
-5.4800

> <Gold.Chemscore.Hbond>
2.6736

> <Gold.Chemscore.Metal>
0.0000

> <Gold.Chemscore.Lipo>
76.8807

> <Gold.Chemscore.Internal_Hbond>
0.0000

> <Gold.Chemscore.DEClash>
0.2046

> <Gold.Chemscore.DEInternal>
1.7473

> <Gold.Chemscore.Rot>
1.3742

> <Gold.Chemscore.Internal.Correction>
   9.000000E+99

> <Gold.Chemscore.Hbonds>
donor molecule, donor type, donor heavy atom, donor atom, acceptor molecule, acceptor atom, score
      L1  H     5    26       P1  7948  0.78
      L1  H     8    27       P1  7948  0.89
      P1  H 10785 10796       L1    21  0.91

> <Gold.Chemscore.Hbond.Weighted>
-8.9299

> <Gold.Chemscore.Metal.Weighted>
-0.0000

> <Gold.Chemscore.Lipo.Weighted>
-8.9950

> <Gold.Chemscore.Internal_Hbond.Weighted>
0.0000

> <Gold.Chemscore.DEClash.Weighted>
0.2046

> <Gold.Chemscore.DEInternal.Weighted>
1.7473

> <Gold.Chemscore.Rot.Weighted>
3.5179

> <Gold.Chemscore.Internal.Correction.Weighted>
   9.000000E+99

> <Gold.Protein.RotatedTorsions>
[ 6907 6896 6895 6894 ] final  -43.86 input  -60.11 | X-H torsion
[ 7974 7965 7964 7962 ] final  -78.52 input  175.53 | X-H torsion
[ 8008 7997 7996 7995 ] final    2.64 input   59.86 | X-H torsion
[ 10167 10162 10161 10158 ] final -176.19 input  -65.29 | X-H torsion
[ 10718 10713 10712 10709 ] final  -96.72 input   66.30 | X-H torsion
[ 10763 10752 10751 10750 ] final  -70.22 input  -60.55 | X-H torsion
[ 11005 11000 10999 10996 ] final   82.07 input  -57.11 | X-H torsion

> <Gold.Protein.ActiveResidues>
 VAL166  LYS551  ARG553  GLY616  TRP617  ASP618  TYR619  PRO620  LYS621  CYS622 
 ASP623  PHE694  ASN695  SER759  ASP760  ASP761  ALA762  ILE779  LEU786  VAL792 
 PHE793  MET794  SER795  GLU796  ALA797  LYS798  CYS799  TRP800  GLU811  SER814 

> <Gold.Protein.RotatedAtoms>
  150.9392  134.8802  159.7601 H   0  0  0  0  0  0  0  0  0  0  0  0  # atno 6907 bound_to 6896
  152.5073  134.3966  159.9412 H   0  0  0  0  0  0  0  0  0  0  0  0  # atno 6908 bound_to 6896
  151.3988  133.3724  159.2764 H   0  0  0  0  0  0  0  0  0  0  0  0  # atno 6909 bound_to 6896
  145.5854  140.9440  143.1321 H   0  0  0  0  0  0  0  0  0  0  0  0  # atno 7974 bound_to 7965
  154.6940  140.2659  155.6784 H   0  0  0  0  0  0  0  0  0  0  0  0  # atno 8008 bound_to 7997
  156.2742  140.2785  156.1451 H   0  0  0  0  0  0  0  0  0  0  0  0  # atno 8009 bound_to 7997
  155.0857  140.0373  157.2643 H   0  0  0  0  0  0  0  0  0  0  0  0  # atno 8010 bound_to 7997
  139.5542  144.2031  152.1131 H   0  0  0  0  0  0  0  0  0  0  0  0  # atno 10167 bound_to 10162
  156.0068  130.5163  150.6267 H   0  0  0  0  0  0  0  0  0  0  0  0  # atno 10718 bound_to 10713
  154.4145  135.6001  153.5973 H   0  0  0  0  0  0  0  0  0  0  0  0  # atno 10763 bound_to 10752
  152.9791  135.5937  154.4029 H   0  0  0  0  0  0  0  0  0  0  0  0  # atno 10764 bound_to 10752
  154.3846  135.2841  155.2169 H   0  0  0  0  0  0  0  0  0  0  0  0  # atno 10765 bound_to 10752
  139.9076  134.8044  156.2126 H   0  0  0  0  0  0  0  0  0  0  0  0  # atno 11005 bound_to 11000
  144.7375  139.7543  143.7323 LP  0  0  0  0  0  0  0  0  0  0  0  0  # atno 17320 bound_to 7965
  146.1686  139.4827  142.9942 LP  0  0  0  0  0  0  0  0  0  0  0  0  # atno 17321 bound_to 7965
  140.1532  144.5095  150.6675 LP  0  0  0  0  0  0  0  0  0  0  0  0  # atno 17342 bound_to 10162
  140.6812  143.2327  151.5380 LP  0  0  0  0  0  0  0  0  0  0  0  0  # atno 17343 bound_to 10162
  157.4073  131.0818  151.1254 LP  0  0  0  0  0  0  0  0  0  0  0  0  # atno 17370 bound_to 10713
  157.1896  130.6346  149.5700 LP  0  0  0  0  0  0  0  0  0  0  0  0  # atno 17371 bound_to 10713
  141.0456  133.6915  156.1677 LP  0  0  0  0  0  0  0  0  0  0  0  0  # atno 17394 bound_to 11000
  140.6889  134.4687  157.5589 LP  0  0  0  0  0  0  0  0  0  0  0  0  # atno 17395 bound_to 11000

$$$$
