AV-unprocessed.smi:2112|AV-procd|sdf|8613|dock1
  -GOLD-   2272011353D 1   1.00000     0.00000
 Structure written by MMmdl.
 41 42  0  0  0  0  0  0  0  0  1 V2000
  145.4754  135.9606  150.8410 C   0  0  0  0  0  0  0  0  0  0  0  0
  145.4906  136.9379  152.0293 C   0  0  0  0  0  0  0  0  0  0  0  0
  144.0620  137.1925  152.5331 C   0  0  0  0  0  0  0  0  0  0  0  0
  146.1941  138.2707  151.6983 C   0  0  0  0  0  0  0  0  0  0  0  0
  147.4686  138.4165  152.3968 N   0  0  0  0  0  0  0  0  0  0  0  0
  147.7516  139.3493  153.3178 C   0  0  0  0  0  0  0  0  0  0  0  0
  146.9560  140.2191  153.6714 O   0  0  0  0  0  0  0  0  0  0  0  0
  149.0097  139.2145  153.7711 N   0  0  0  0  0  0  0  0  0  0  0  0
  149.6804  139.9663  154.7739 C   0  0  0  0  0  0  0  0  0  0  0  0
  150.9729  139.6718  155.2666 C   0  0  0  0  0  0  0  0  0  0  0  0
  151.5383  140.5120  156.2448 C   0  0  0  0  0  0  0  0  0  0  0  0
  150.8048  141.6326  156.7008 C   0  0  0  0  0  0  0  0  0  0  0  0
  151.3375  142.4974  157.6775 N   0  0  0  0  0  0  0  0  0  0  0  0
  152.1094  141.9890  158.8039 C   0  0  0  0  0  0  0  0  0  0  0  0
  153.0615  143.1234  159.2000 C   0  0  0  0  0  0  0  0  0  0  0  0
  152.4042  144.3784  158.6264 C   0  0  0  0  0  0  0  0  0  0  0  0
  151.7276  143.8624  157.3577 C   0  0  0  0  0  0  0  0  0  0  0  0
  149.5678  141.9132  156.2266 N   0  0  0  0  0  0  0  0  0  0  0  0
  149.0308  141.1055  155.2887 C   0  0  0  0  0  0  0  0  0  0  0  0
  144.9772  136.3986  149.9758 H   0  0  0  0  0  0  0  0  0  0  0  0
  144.9494  135.0406  151.0969 H   0  0  0  0  0  0  0  0  0  0  0  0
  146.4840  135.6794  150.5381 H   0  0  0  0  0  0  0  0  0  0  0  0
  146.0404  136.4604  152.8415 H   0  0  0  0  0  0  0  0  0  0  0  0
  143.4527  137.6769  151.7693 H   0  0  0  0  0  0  0  0  0  0  0  0
  144.0640  137.8351  153.4140 H   0  0  0  0  0  0  0  0  0  0  0  0
  143.5692  136.2600  152.8096 H   0  0  0  0  0  0  0  0  0  0  0  0
  146.3213  138.3747  150.6192 H   0  0  0  0  0  0  0  0  0  0  0  0
  145.5614  139.1035  152.0068 H   0  0  0  0  0  0  0  0  0  0  0  0
  148.1891  137.7489  152.1638 H   0  0  0  0  0  0  0  0  0  0  0  0
  149.5684  138.5046  153.3206 H   0  0  0  0  0  0  0  0  0  0  0  0
  151.5482  138.8324  154.9093 H   0  0  0  0  0  0  0  0  0  0  0  0
  152.5213  140.2853  156.6295 H   0  0  0  0  0  0  0  0  0  0  0  0
  151.4265  141.7540  159.6210 H   0  0  0  0  0  0  0  0  0  0  0  0
  152.6660  141.0860  158.5503 H   0  0  0  0  0  0  0  0  0  0  0  0
  153.2257  143.1822  160.2761 H   0  0  0  0  0  0  0  0  0  0  0  0
  154.0299  142.9704  158.7216 H   0  0  0  0  0  0  0  0  0  0  0  0
  151.6515  144.7509  159.3226 H   0  0  0  0  0  0  0  0  0  0  0  0
  153.1137  145.1832  158.4322 H   0  0  0  0  0  0  0  0  0  0  0  0
  152.4309  143.8555  156.5238 H   0  0  0  0  0  0  0  0  0  0  0  0
  150.8678  144.4734  157.0810 H   0  0  0  0  0  0  0  0  0  0  0  0
  148.0463  141.3799  154.9390 H   0  0  0  0  0  0  0  0  0  0  0  0
  1  2  1  0  0  0  0
  1 20  1  0  0  0  0
  1 21  1  0  0  0  0
  1 22  1  0  0  0  0
  2  3  1  0  0  0  0
  2  4  1  0  0  0  0
  2 23  1  0  0  0  0
  3 24  1  0  0  0  0
  3 25  1  0  0  0  0
  3 26  1  0  0  0  0
  4  5  1  0  0  0  0
  4 27  1  0  0  0  0
  4 28  1  0  0  0  0
  5  6  1  0  0  0  0
  5 29  1  0  0  0  0
  6  7  2  0  0  0  0
  6  8  1  0  0  0  0
  8  9  1  0  0  0  0
  8 30  1  0  0  0  0
  9 19  1  0  0  0  0
  9 10  2  0  0  0  0
 10 11  1  0  0  0  0
 10 31  1  0  0  0  0
 11 12  2  0  0  0  0
 11 32  1  0  0  0  0
 12 13  1  0  0  0  0
 12 18  1  0  0  0  0
 13 17  1  0  0  0  0
 13 14  1  0  0  0  0
 14 15  1  0  0  0  0
 14 33  1  0  0  0  0
 14 34  1  0  0  0  0
 15 16  1  0  0  0  0
 15 35  1  0  0  0  0
 15 36  1  0  0  0  0
 16 17  1  0  0  0  0
 16 37  1  0  0  0  0
 16 38  1  0  0  0  0
 17 39  1  0  0  0  0
 17 40  1  0  0  0  0
 18 19  2  0  0  0  0
 19 41  1  0  0  0  0
M  END
> <s_m_source_file>
AV-unprocessed.smi

> <i_m_source_file_index>
2112

> <i_lp_mmshare_version>
43012

> <i_f3d_flags>
0

> <s_epik_input>
W0NIM11bQ0hdKFtDSDNdKVtDSDJdW05IXUMoPU8pW05IXWMxW2NIXVtjSF1jKG5bY0hdMSlOMltDSDJdW0NIMl1bQ0gyXVtDSDJdMg==

> <s_epik_cmdline>
J2VwaWtfcHl0aG9uJywgJy1waCcsICc3LjAnLCAnLXRuJywgJzgnLCAnLW1hJywgJzIwMCcsICctbWV0YWxfYmluZGluZycsICctaW1hZScsICc8aW5maWxlLm1hZT4nLCAnLW9tYWUnLCAnPG91dGZpbGUubWFlPic=

> <r_lp_tautomer_probability>
1

> <r_epik_Ionization_Penalty>
0.101487

> <r_epik_Ionization_Penalty_Charging>
0

> <r_epik_Ionization_Penalty_Neutral>
0.101487

> <r_epik_State_Penalty>
0.0909146

> <r_epik_Charging_Adjusted_Penalty>
0.0909146

> <i_epik_Tot_Q>
0

> <i_epik_Tot_abs_Q>
0

> <r_epik_Metal_State_Penalty>
0.0775519

> <b_epik_Metal_Only>
0

> <s_lp_Force_Field>
OPLS_2005

> <r_lp_Energy>
29.5251

> <b_lp_Chiralities_Consistent>
1

> <s_lp_Variant>
AV-unprocessed.smi:2112-1

> <Gold.Version>
5.8.1

> <Gold.Id.Protein>
6NUR|6NUR_protein|mol2

> <Gold.PLP.Fitness>
43.1096

> <Gold.PLP.PLP>
-43.2826

> <Gold.PLP.part.hbond>
-3.0000

> <Gold.PLP.part.metal>
0.0000

> <Gold.PLP.part.buried>
-1.8666

> <Gold.PLP.part.nonpolar>
-40.1314

> <Gold.PLP.part.repulsive>
1.0078

> <Gold.PLP.ligand.clash>
0.0000

> <Gold.PLP.ligand.torsion>
1.6900

> <Gold.PLP.Chemscore.Hbond>
1.0000

> <Gold.PLP.Chemscore.CHOScore>
0.0000

> <Gold.PLP.Chemscore.Metal>
0.0000

> <Gold.Chemscore.Hbonds>
donor molecule, donor type, donor heavy atom, donor atom, acceptor molecule, acceptor atom, score
      L1  H     5    29       P1  7948  1.00

> <Gold.PLP.Chemscore.Internal.Correction>
0.2071

> <Gold.Rescore>
     Score         DG    S(hbond)    S(metal)    S(lipo)     H(rot)  DE(clash)    DE(int)     intcor
     14.30     -17.55       1.00        0.00      99.96       1.15       0.23       3.02       ----

> <Gold.Chemscore.Fitness>
14.2993

> <Gold.Chemscore.DG>
-17.5480

> <Gold.Chemscore.ZeroCoef>
-5.4800

> <Gold.Chemscore.Hbond>
0.9954

> <Gold.Chemscore.Metal>
0.0000

> <Gold.Chemscore.Lipo>
99.9567

> <Gold.Chemscore.Internal_Hbond>
0.0000

> <Gold.Chemscore.DEClash>
0.2283

> <Gold.Chemscore.DEInternal>
3.0203

> <Gold.Chemscore.Rot>
1.1529

> <Gold.Chemscore.Internal.Correction>
   9.000000E+99

> <Gold.Chemscore.Hbonds>
donor molecule, donor type, donor heavy atom, donor atom, acceptor molecule, acceptor atom, score
      L1  H     5    29       P1  7948  1.00

> <Gold.Chemscore.Hbond.Weighted>
-3.3245

> <Gold.Chemscore.Metal.Weighted>
-0.0000

> <Gold.Chemscore.Lipo.Weighted>
-11.6949

> <Gold.Chemscore.Internal_Hbond.Weighted>
0.0000

> <Gold.Chemscore.DEClash.Weighted>
0.2283

> <Gold.Chemscore.DEInternal.Weighted>
3.0203

> <Gold.Chemscore.Rot.Weighted>
2.9515

> <Gold.Chemscore.Internal.Correction.Weighted>
   9.000000E+99

> <Gold.Protein.RotatedTorsions>
[ 6907 6896 6895 6894 ] final   59.90 input  -60.11 | X-H torsion
[ 7974 7965 7964 7962 ] final  138.13 input  175.53 | X-H torsion
[ 8008 7997 7996 7995 ] final   13.37 input   59.86 | X-H torsion
[ 10167 10162 10161 10158 ] final    3.09 input  -65.29 | X-H torsion
[ 10718 10713 10712 10709 ] final  151.44 input   66.30 | X-H torsion
[ 10763 10752 10751 10750 ] final  141.76 input  -60.55 | X-H torsion
[ 11005 11000 10999 10996 ] final   92.36 input  -57.11 | X-H torsion

> <Gold.Protein.ActiveResidues>
 VAL166  LYS551  ARG553  GLY616  TRP617  ASP618  TYR619  PRO620  LYS621  CYS622 
 ASP623  PHE694  ASN695  SER759  ASP760  ASP761  ALA762  ILE779  LEU786  VAL792 
 PHE793  MET794  SER795  GLU796  ALA797  LYS798  CYS799  TRP800  GLU811  SER814 

> <Gold.Protein.RotatedAtoms>
  152.3956  134.6371  160.0090 H   0  0  0  0  0  0  0  0  0  0  0  0  # atno 6907 bound_to 6896
  151.6592  133.3312  159.3178 H   0  0  0  0  0  0  0  0  0  0  0  0  # atno 6908 bound_to 6896
  150.7864  134.6895  159.6534 H   0  0  0  0  0  0  0  0  0  0  0  0  # atno 6909 bound_to 6896
  144.9402  139.4940  143.5576 H   0  0  0  0  0  0  0  0  0  0  0  0  # atno 7974 bound_to 7965
  154.8336  140.2903  155.5706 H   0  0  0  0  0  0  0  0  0  0  0  0  # atno 8008 bound_to 7997
  156.3007  140.2527  156.3196 H   0  0  0  0  0  0  0  0  0  0  0  0  # atno 8009 bound_to 7997
  154.9204  140.0386  157.1984 H   0  0  0  0  0  0  0  0  0  0  0  0  # atno 8010 bound_to 7997
  140.6603  143.7322  150.7726 H   0  0  0  0  0  0  0  0  0  0  0  0  # atno 10167 bound_to 10162
  157.2706  131.0816  151.1602 H   0  0  0  0  0  0  0  0  0  0  0  0  # atno 10718 bound_to 10713
  153.9446  135.2976  155.3441 H   0  0  0  0  0  0  0  0  0  0  0  0  # atno 10763 bound_to 10752
  154.7459  135.5003  153.9206 H   0  0  0  0  0  0  0  0  0  0  0  0  # atno 10764 bound_to 10752
  153.1025  135.6738  153.9754 H   0  0  0  0  0  0  0  0  0  0  0  0  # atno 10765 bound_to 10752
  139.8824  134.8728  156.3561 H   0  0  0  0  0  0  0  0  0  0  0  0  # atno 11005 bound_to 11000
  146.3282  139.8415  142.8889 LP  0  0  0  0  0  0  0  0  0  0  0  0  # atno 17320 bound_to 7965
  145.3004  141.0192  143.3612 LP  0  0  0  0  0  0  0  0  0  0  0  0  # atno 17321 bound_to 7965
  140.0989  143.4806  152.2436 LP  0  0  0  0  0  0  0  0  0  0  0  0  # atno 17342 bound_to 10162
  139.5835  144.7521  151.3580 LP  0  0  0  0  0  0  0  0  0  0  0  0  # atno 17343 bound_to 10162
  157.3075  130.6873  149.6197 LP  0  0  0  0  0  0  0  0  0  0  0  0  # atno 17370 bound_to 10713
  155.9663  130.4373  150.5171 LP  0  0  0  0  0  0  0  0  0  0  0  0  # atno 17371 bound_to 10713
  140.9561  133.7419  156.0338 LP  0  0  0  0  0  0  0  0  0  0  0  0  # atno 17394 bound_to 11000
  140.8046  134.3469  157.5429 LP  0  0  0  0  0  0  0  0  0  0  0  0  # atno 17395 bound_to 11000

$$$$
