AV-unprocessed.smi:983|AV-procd|sdf|4316|dock7
  -GOLD-   22720 2223D 1   1.00000     0.00000
 Structure written by MMmdl.
 35 36  0  0  0  0  0  0  0  0  1 V2000
  153.1988  142.8942  163.1593 C   0  0  0  0  0  0  0  0  0  0  0  0
  152.8036  143.1009  161.7117 C   0  0  0  0  0  0  0  0  0  0  0  0
  153.1664  142.1310  160.6991 C   0  0  0  0  0  0  0  0  0  0  0  0
  152.8030  142.3486  159.4257 C   0  0  0  0  0  0  0  0  0  0  0  0
  152.0780  143.4924  159.0445 N   0  0  0  0  0  0  0  0  0  0  0  0
  151.7273  143.6253  157.6208 C   0  0  0  0  0  0  0  0  0  0  0  0
  151.1139  142.3469  157.0325 C   0  0  0  0  0  0  0  0  0  0  0  0
  151.7326  141.2822  157.0616 O   0  0  0  0  0  0  0  0  0  0  0  0
  149.8989  142.4751  156.4784 N   0  0  0  0  0  0  0  0  0  0  0  0
  149.1417  141.3882  155.8638 C   0  0  0  0  0  0  0  0  0  0  0  0
  149.6761  141.0427  154.4592 C   0  0  0  0  0  0  0  0  0  0  0  0
  148.4462  140.9361  153.5574 C   0  0  0  0  0  0  0  0  0  0  0  0
  147.4514  141.9197  154.1653 C   0  0  0  0  0  0  0  0  0  0  0  0
  147.6667  141.7891  155.6741 C   0  0  0  0  0  0  0  0  0  0  0  0
  151.7003  144.4429  159.9513 C   0  0  0  0  0  0  0  0  0  0  0  0
  151.0604  145.4431  159.6246 O   0  0  0  0  0  0  0  0  0  0  0  0
  152.1056  144.1967  161.3400 C   0  0  0  0  0  0  0  0  0  0  0  0
  153.6363  141.9072  163.3113 H   0  0  0  0  0  0  0  0  0  0  0  0
  152.3275  142.9828  163.8088 H   0  0  0  0  0  0  0  0  0  0  0  0
  153.9313  143.6428  163.4618 H   0  0  0  0  0  0  0  0  0  0  0  0
  153.7190  141.2407  160.9618 H   0  0  0  0  0  0  0  0  0  0  0  0
  153.0352  141.6621  158.6245 H   0  0  0  0  0  0  0  0  0  0  0  0
  151.0395  144.4618  157.4813 H   0  0  0  0  0  0  0  0  0  0  0  0
  152.6089  143.8796  157.0309 H   0  0  0  0  0  0  0  0  0  0  0  0
  149.4636  143.3860  156.4899 H   0  0  0  0  0  0  0  0  0  0  0  0
  149.1820  140.5067  156.5066 H   0  0  0  0  0  0  0  0  0  0  0  0
  150.3179  141.8425  154.0859 H   0  0  0  0  0  0  0  0  0  0  0  0
  150.2685  140.1273  154.4568 H   0  0  0  0  0  0  0  0  0  0  0  0
  148.6704  141.1545  152.5132 H   0  0  0  0  0  0  0  0  0  0  0  0
  148.0400  139.9249  153.6072 H   0  0  0  0  0  0  0  0  0  0  0  0
  147.6955  142.9334  153.8451 H   0  0  0  0  0  0  0  0  0  0  0  0
  146.4224  141.7148  153.8686 H   0  0  0  0  0  0  0  0  0  0  0  0
  147.0273  140.9942  156.0604 H   0  0  0  0  0  0  0  0  0  0  0  0
  147.3938  142.7025  156.2046 H   0  0  0  0  0  0  0  0  0  0  0  0
  151.8319  144.9242  162.0904 H   0  0  0  0  0  0  0  0  0  0  0  0
  1  2  1  0  0  0  0
  1 18  1  0  0  0  0
  1 19  1  0  0  0  0
  1 20  1  0  0  0  0
  2 17  2  0  0  0  0
  2  3  1  0  0  0  0
  3  4  2  0  0  0  0
  3 21  1  0  0  0  0
  4  5  1  0  0  0  0
  4 22  1  0  0  0  0
  5  6  1  0  0  0  0
  5 15  1  0  0  0  0
  6  7  1  0  0  0  0
  6 23  1  0  0  0  0
  6 24  1  0  0  0  0
  7  8  2  0  0  0  0
  7  9  1  0  0  0  0
  9 10  1  0  0  0  0
  9 25  1  0  0  0  0
 10 14  1  0  0  0  0
 10 11  1  0  0  0  0
 10 26  1  0  0  0  0
 11 12  1  0  0  0  0
 11 27  1  0  0  0  0
 11 28  1  0  0  0  0
 12 13  1  0  0  0  0
 12 29  1  0  0  0  0
 12 30  1  0  0  0  0
 13 14  1  0  0  0  0
 13 31  1  0  0  0  0
 13 32  1  0  0  0  0
 14 33  1  0  0  0  0
 14 34  1  0  0  0  0
 15 16  2  0  0  0  0
 15 17  1  0  0  0  0
 17 35  1  0  0  0  0
M  END
> <s_m_source_file>
AV-unprocessed.smi

> <i_m_source_file_index>
983

> <i_lp_mmshare_version>
43012

> <i_f3d_flags>
0

> <s_epik_input>
W0NIM11jMVtjSF1bY0hdbihjKD1PKVtjSF0xKVtDSDJdQyg9TylbTkhdW0NIXTJbQ0gyXVtDSDJdW0NIMl1bQ0gyXTI=

> <s_epik_cmdline>
J2VwaWtfcHl0aG9uJywgJy1waCcsICc3LjAnLCAnLXRuJywgJzgnLCAnLW1hJywgJzIwMCcsICctbWV0YWxfYmluZGluZycsICctaW1hZScsICc8aW5maWxlLm1hZT4nLCAnLW9tYWUnLCAnPG91dGZpbGUubWFlPic=

> <r_lp_tautomer_probability>
1

> <r_epik_Ionization_Penalty>
5.52576e-07

> <r_epik_Ionization_Penalty_Charging>
5.33275e-07

> <r_epik_Ionization_Penalty_Neutral>
1.93017e-08

> <r_epik_State_Penalty>
-0

> <r_epik_Charging_Adjusted_Penalty>
5.33275e-07

> <i_epik_Tot_Q>
0

> <i_epik_Tot_abs_Q>
0

> <r_epik_Metal_State_Penalty>
-0

> <b_epik_Metal_Only>
0

> <s_lp_Force_Field>
OPLS_2005

> <r_lp_Energy>
27.4502

> <b_lp_Chiralities_Consistent>
1

> <s_lp_Variant>
AV-unprocessed.smi:983-1

> <Gold.Version>
5.8.1

> <Gold.Id.Protein>
6NUR|6NUR_protein|mol2

> <Gold.PLP.Fitness>
48.7418

> <Gold.PLP.PLP>
-46.8276

> <Gold.PLP.part.hbond>
-1.1686

> <Gold.PLP.part.metal>
0.0000

> <Gold.PLP.part.buried>
-4.5267

> <Gold.PLP.part.nonpolar>
-40.7332

> <Gold.PLP.part.repulsive>
0.2479

> <Gold.PLP.ligand.clash>
0.0000

> <Gold.PLP.ligand.torsion>
0.3403

> <Gold.PLP.Chemscore.Hbond>
0.8640

> <Gold.PLP.Chemscore.CHOScore>
0.0000

> <Gold.PLP.Chemscore.Metal>
0.0000

> <Gold.Chemscore.Hbonds>
donor molecule, donor type, donor heavy atom, donor atom, acceptor molecule, acceptor atom, score
      L1  H     9    25       P1  8028  1.00

> <Gold.PLP.Chemscore.Internal.Correction>
0.0028

> <Gold.Rescore>
     Score         DG    S(hbond)    S(metal)    S(lipo)     H(rot)  DE(clash)    DE(int)     intcor
     15.31     -16.60       0.89        0.00      99.89       1.38       0.01       1.28       ----

> <Gold.Chemscore.Fitness>
15.3119

> <Gold.Chemscore.DG>
-16.5960

> <Gold.Chemscore.ZeroCoef>
-5.4800

> <Gold.Chemscore.Hbond>
0.8858

> <Gold.Chemscore.Metal>
0.0000

> <Gold.Chemscore.Lipo>
99.8941

> <Gold.Chemscore.Internal_Hbond>
0.0000

> <Gold.Chemscore.DEClash>
0.0059

> <Gold.Chemscore.DEInternal>
1.2782

> <Gold.Chemscore.Rot>
1.3789

> <Gold.Chemscore.Internal.Correction>
   9.000000E+99

> <Gold.Chemscore.Hbonds>
donor molecule, donor type, donor heavy atom, donor atom, acceptor molecule, acceptor atom, score
      L1  H     9    25       P1  8028  0.94

> <Gold.Chemscore.Hbond.Weighted>
-2.9584

> <Gold.Chemscore.Metal.Weighted>
-0.0000

> <Gold.Chemscore.Lipo.Weighted>
-11.6876

> <Gold.Chemscore.Internal_Hbond.Weighted>
0.0000

> <Gold.Chemscore.DEClash.Weighted>
0.0059

> <Gold.Chemscore.DEInternal.Weighted>
1.2782

> <Gold.Chemscore.Rot.Weighted>
3.5301

> <Gold.Chemscore.Internal.Correction.Weighted>
   9.000000E+99

> <Gold.Protein.RotatedTorsions>
[ 6907 6896 6895 6894 ] final   54.35 input  -60.11 | X-H torsion
[ 7974 7965 7964 7962 ] final  153.28 input  175.53 | X-H torsion
[ 8008 7997 7996 7995 ] final   65.43 input   59.86 | X-H torsion
[ 10167 10162 10161 10158 ] final  106.37 input  -65.29 | X-H torsion
[ 10718 10713 10712 10709 ] final   81.80 input   66.30 | X-H torsion
[ 10763 10752 10751 10750 ] final   85.02 input  -60.55 | X-H torsion
[ 11005 11000 10999 10996 ] final   16.57 input  -57.11 | X-H torsion

> <Gold.Protein.ActiveResidues>
 VAL166  LYS551  ARG553  GLY616  TRP617  ASP618  TYR619  PRO620  LYS621  CYS622 
 ASP623  PHE694  ASN695  SER759  ASP760  ASP761  ALA762  ILE779  LEU786  VAL792 
 PHE793  MET794  SER795  GLU796  ALA797  LYS798  CYS799  TRP800  GLU811  SER814 

> <Gold.Protein.RotatedAtoms>
  152.3430  134.7109  160.0258 H   0  0  0  0  0  0  0  0  0  0  0  0  # atno 6907 bound_to 6896
  151.7488  133.3321  159.3394 H   0  0  0  0  0  0  0  0  0  0  0  0  # atno 6908 bound_to 6896
  150.7491  134.6143  159.6147 H   0  0  0  0  0  0  0  0  0  0  0  0  # atno 6909 bound_to 6896
  144.8165  139.6780  143.6119 H   0  0  0  0  0  0  0  0  0  0  0  0  # atno 7974 bound_to 7965
  155.6616  140.3497  155.4785 H   0  0  0  0  0  0  0  0  0  0  0  0  # atno 8008 bound_to 7997
  155.9763  140.1165  157.0790 H   0  0  0  0  0  0  0  0  0  0  0  0  # atno 8009 bound_to 7997
  154.4179  140.1147  156.5361 H   0  0  0  0  0  0  0  0  0  0  0  0  # atno 8010 bound_to 7997
  139.7014  144.7093  151.1178 H   0  0  0  0  0  0  0  0  0  0  0  0  # atno 10167 bound_to 10162
  157.6842  131.0020  150.2280 H   0  0  0  0  0  0  0  0  0  0  0  0  # atno 10718 bound_to 10713
  153.1435  135.4633  154.9532 H   0  0  0  0  0  0  0  0  0  0  0  0  # atno 10763 bound_to 10752
  154.7767  135.3175  154.8079 H   0  0  0  0  0  0  0  0  0  0  0  0  # atno 10764 bound_to 10752
  153.8597  135.6914  153.4838 H   0  0  0  0  0  0  0  0  0  0  0  0  # atno 10765 bound_to 10752
  140.4457  134.1276  155.7696 H   0  0  0  0  0  0  0  0  0  0  0  0  # atno 11005 bound_to 11000
  146.2468  139.6115  142.9454 LP  0  0  0  0  0  0  0  0  0  0  0  0  # atno 17320 bound_to 7965
  145.5203  141.0432  143.2439 LP  0  0  0  0  0  0  0  0  0  0  0  0  # atno 17321 bound_to 7965
  140.7710  143.5418  150.9304 LP  0  0  0  0  0  0  0  0  0  0  0  0  # atno 17342 bound_to 10162
  139.9100  143.6732  152.3117 LP  0  0  0  0  0  0  0  0  0  0  0  0  # atno 17343 bound_to 10162
  156.2918  130.3746  149.7834 LP  0  0  0  0  0  0  0  0  0  0  0  0  # atno 17370 bound_to 10713
  156.5491  130.8334  151.3294 LP  0  0  0  0  0  0  0  0  0  0  0  0  # atno 17371 bound_to 10713
  141.1686  133.8653  157.1639 LP  0  0  0  0  0  0  0  0  0  0  0  0  # atno 17394 bound_to 11000
  140.0040  135.0016  157.0253 LP  0  0  0  0  0  0  0  0  0  0  0  0  # atno 17395 bound_to 11000

$$$$
