AV-unprocessed.smi:1196|AV-procd|sdf|5001|dock2
  -GOLD-   22720 4 13D 1   1.00000     0.00000
 Structure written by MMmdl.
 36 37  0  0  0  0  0  0  0  0  2 V2000
  145.7573  134.5341  154.4498 C   0  0  0  0  0  0  0  0  0  0  0  0
  146.7662  134.1157  153.3688 C   0  0  1  0  0  0  0  0  0  0  0  0
  146.3164  134.5811  151.9704 C   0  0  0  0  0  0  0  0  0  0  0  0
  145.5063  133.5858  151.2905 N   0  0  0  0  0  0  0  0  0  0  0  0
  145.9091  132.3889  150.7369 C   0  0  0  0  0  0  0  0  0  0  0  0
  144.8013  131.7943  150.2040 C   0  0  0  0  0  0  0  0  0  0  0  0
  143.7551  132.7174  150.4840 C   0  0  0  0  0  0  0  0  0  0  0  0
  144.1796  133.7878  151.1360 N   0  0  0  0  0  0  0  0  0  0  0  0
  148.0853  134.6626  153.6808 N   0  0  0  0  0  0  0  0  0  0  0  0
  148.8333  134.3369  154.7458 C   0  0  0  0  0  0  0  0  0  0  0  0
  148.4754  133.5248  155.5996 O   0  0  0  0  0  0  0  0  0  0  0  0
  150.1903  135.0372  154.8552 C   0  0  0  0  0  0  0  0  0  0  0  0
  150.0661  136.5648  155.0149 C   0  0  0  0  0  0  0  0  0  0  0  0
  151.3736  137.3136  154.6809 C   0  0  2  0  0  0  0  0  0  0  0  0
  152.4181  137.0239  155.6481 N   0  5  0  0  0  0  0  0  0  0  0  0
  152.8147  138.1883  156.2134 C   0  0  0  0  0  0  0  0  0  0  0  0
  153.6842  138.3523  157.0663 O   0  0  0  0  0  0  0  0  0  0  0  0
  152.1165  139.2159  155.7197 N   0  0  0  0  0  0  0  0  0  0  0  0
  151.2262  138.8167  154.8174 C   0  0  0  0  0  0  0  0  0  0  0  0
  150.4259  139.5147  154.1965 O   0  0  0  0  0  0  0  0  0  0  0  0
  144.7690  134.1230  154.2430 H   0  0  0  0  0  0  0  0  0  0  0  0
  145.6617  135.6190  154.5047 H   0  0  0  0  0  0  0  0  0  0  0  0
  146.0604  134.1761  155.4341 H   0  0  0  0  0  0  0  0  0  0  0  0
  146.8218  133.0255  153.3600 H   0  0  0  0  0  0  0  0  0  0  0  0
  145.7220  135.4917  152.0536 H   0  0  0  0  0  0  0  0  0  0  0  0
  147.1785  134.8296  151.3488 H   0  0  0  0  0  0  0  0  0  0  0  0
  146.9391  132.0651  150.7666 H   0  0  0  0  0  0  0  0  0  0  0  0
  144.7470  130.8456  149.6912 H   0  0  0  0  0  0  0  0  0  0  0  0
  142.7069  132.6414  150.2351 H   0  0  0  0  0  0  0  0  0  0  0  0
  148.4661  135.3309  153.0264 H   0  0  0  0  0  0  0  0  0  0  0  0
  150.7283  134.6132  155.7036 H   0  0  0  0  0  0  0  0  0  0  0  0
  150.7820  134.8126  153.9664 H   0  0  0  0  0  0  0  0  0  0  0  0
  149.2740  136.9221  154.3543 H   0  0  0  0  0  0  0  0  0  0  0  0
  149.7447  136.8087  156.0295 H   0  0  0  0  0  0  0  0  0  0  0  0
  151.6803  137.0922  153.6577 H   0  0  0  0  0  0  0  0  0  0  0  0
  152.2434  140.1751  156.0060 H   0  0  0  0  0  0  0  0  0  0  0  0
  1  2  1  0  0  0  0
  1 21  1  0  0  0  0
  1 22  1  0  0  0  0
  1 23  1  0  0  0  0
  2  3  1  0  0  0  0
  2  9  1  0  0  0  0
  2 24  1  0  0  0  0
  3  4  1  0  0  0  0
  3 25  1  0  0  0  0
  3 26  1  0  0  0  0
  4  8  1  0  0  0  0
  4  5  1  0  0  0  0
  5  6  2  0  0  0  0
  5 27  1  0  0  0  0
  6  7  1  0  0  0  0
  6 28  1  0  0  0  0
  7  8  2  0  0  0  0
  7 29  1  0  0  0  0
  9 10  1  0  0  0  0
  9 30  1  0  0  0  0
 10 11  2  0  0  0  0
 10 12  1  0  0  0  0
 12 13  1  0  0  0  0
 12 31  1  0  0  0  0
 12 32  1  0  0  0  0
 13 14  1  0  0  0  0
 13 33  1  0  0  0  0
 13 34  1  0  0  0  0
 14 19  1  0  0  0  0
 14 15  1  0  0  0  0
 14 35  1  0  0  0  0
 15 16  1  0  0  0  0
 16 17  2  0  0  0  0
 16 18  1  0  0  0  0
 18 19  1  0  0  0  0
 18 36  1  0  0  0  0
 19 20  2  0  0  0  0
M  CHG  1  15  -1
M  END
> <s_m_source_file>
AV-unprocessed.smi

> <i_m_source_file_index>
1196

> <i_lp_mmshare_version>
43012

> <i_f3d_flags>
0

> <s_epik_input>
bjFbY0hdW2NIXVtjSF1uMVtDSDJdW0NAQEhdKFtDSDNdKVtOSF1DKD1PKVtDSDJdW0NIMl1bQ0BASF0yW05IXUMoPU8pW05IXUMyPU8=

> <s_epik_cmdline>
J2VwaWtfcHl0aG9uJywgJy1waCcsICc3LjAnLCAnLXRuJywgJzgnLCAnLW1hJywgJzIwMCcsICctbWV0YWxfYmluZGluZycsICctaW1hZScsICc8aW5maWxlLm1hZT4nLCAnLW9tYWUnLCAnPG91dGZpbGUubWFlPic=

> <r_lp_tautomer_probability>
1

> <r_epik_Ionization_Penalty>
5.79547

> <r_epik_Ionization_Penalty_Charging>
5.79516

> <r_epik_Ionization_Penalty_Neutral>
0.000313087

> <r_epik_State_Penalty>
5.80096

> <r_epik_Charging_Adjusted_Penalty>
11.5961

> <i_epik_Tot_Q>
-1

> <i_epik_Tot_abs_Q>
1

> <r_epik_Metal_State_Penalty>
2.14443

> <b_epik_Metal_Only>
1

> <s_lp_Force_Field>
OPLS_2005

> <r_lp_Energy>
12.2353

> <b_lp_Chiralities_Consistent>
1

> <s_lp_Variant>
AV-unprocessed.smi:1196-6

> <Gold.Version>
5.8.1

> <Gold.Id.Protein>
6NUR|6NUR_protein|mol2

> <Gold.PLP.Fitness>
50.0947

> <Gold.PLP.PLP>
-31.3936

> <Gold.PLP.part.hbond>
-4.0000

> <Gold.PLP.part.metal>
0.0000

> <Gold.PLP.part.buried>
-5.4083

> <Gold.PLP.part.nonpolar>
-23.6814

> <Gold.PLP.part.repulsive>
0.6357

> <Gold.PLP.ligand.clash>
0.0000

> <Gold.PLP.ligand.torsion>
0.6932

> <Gold.PLP.Chemscore.Hbond>
4.6560

> <Gold.PLP.Chemscore.CHOScore>
2.0000

> <Gold.PLP.Chemscore.Metal>
0.0000

> <Gold.Chemscore.Hbonds>
donor molecule, donor type, donor heavy atom, donor atom, acceptor molecule, acceptor atom, score
      L1  H     9    30       P1  7948  0.99
      P1  H  7989  7998       L1    20  1.00
      P1  H  7997  8009       L1    17  0.85
      P1  H 10752 10763       L1    15  1.60
      L1  C     5    27       P1 10747  1.00
      L1  C     7    29       P1 10186  0.95

> <Gold.PLP.Chemscore.Internal.Correction>
0.1195

> <Gold.Rescore>
     Score         DG    S(hbond)    S(metal)    S(lipo)     H(rot)  DE(clash)    DE(int)     intcor
     12.25     -12.92       2.57        0.00      53.60       2.89       0.03       0.64       ----

> <Gold.Chemscore.Fitness>
12.2518

> <Gold.Chemscore.DG>
-12.9240

> <Gold.Chemscore.ZeroCoef>
-5.4800

> <Gold.Chemscore.Hbond>
2.5696

> <Gold.Chemscore.Metal>
0.0000

> <Gold.Chemscore.Lipo>
53.6024

> <Gold.Chemscore.Internal_Hbond>
0.0000

> <Gold.Chemscore.DEClash>
0.0310

> <Gold.Chemscore.DEInternal>
0.6412

> <Gold.Chemscore.Rot>
2.8946

> <Gold.Chemscore.Internal.Correction>
   9.000000E+99

> <Gold.Chemscore.Hbonds>
donor molecule, donor type, donor heavy atom, donor atom, acceptor molecule, acceptor atom, score
      L1  H     9    30       P1  7948  0.87
      P1  H  7989  7998       L1    20  0.25
      P1  H  7997  8009       L1    17  0.54
      P1  H 10752 10763       L1    15  0.24

> <Gold.Chemscore.Hbond.Weighted>
-8.5826

> <Gold.Chemscore.Metal.Weighted>
-0.0000

> <Gold.Chemscore.Lipo.Weighted>
-6.2715

> <Gold.Chemscore.Internal_Hbond.Weighted>
0.0000

> <Gold.Chemscore.DEClash.Weighted>
0.0310

> <Gold.Chemscore.DEInternal.Weighted>
0.6412

> <Gold.Chemscore.Rot.Weighted>
7.4101

> <Gold.Chemscore.Internal.Correction.Weighted>
   9.000000E+99

> <Gold.Protein.RotatedTorsions>
[ 6907 6896 6895 6894 ] final  118.18 input  -60.11 | X-H torsion
[ 7974 7965 7964 7962 ] final  117.97 input  175.53 | X-H torsion
[ 8008 7997 7996 7995 ] final  170.07 input   59.86 | X-H torsion
[ 10167 10162 10161 10158 ] final -138.11 input  -65.29 | X-H torsion
[ 10718 10713 10712 10709 ] final  -49.49 input   66.30 | X-H torsion
[ 10763 10752 10751 10750 ] final   83.91 input  -60.55 | X-H torsion
[ 11005 11000 10999 10996 ] final  -24.11 input  -57.11 | X-H torsion

> <Gold.Protein.ActiveResidues>
 VAL166  LYS551  ARG553  GLY616  TRP617  ASP618  TYR619  PRO620  LYS621  CYS622 
 ASP623  PHE694  ASN695  SER759  ASP760  ASP761  ALA762  ILE779  LEU786  VAL792 
 PHE793  MET794  SER795  GLU796  ALA797  LYS798  CYS799  TRP800  GLU811  SER814 

> <Gold.Protein.RotatedAtoms>
  152.4561  133.7725  159.6806 H   0  0  0  0  0  0  0  0  0  0  0  0  # atno 6907 bound_to 6896
  150.8487  133.7810  159.3039 H   0  0  0  0  0  0  0  0  0  0  0  0  # atno 6908 bound_to 6896
  151.5412  135.1071  159.9979 H   0  0  0  0  0  0  0  0  0  0  0  0  # atno 6909 bound_to 6896
  145.1609  139.3156  143.4518 H   0  0  0  0  0  0  0  0  0  0  0  0  # atno 7974 bound_to 7965
  156.1399  140.1547  156.8936 H   0  0  0  0  0  0  0  0  0  0  0  0  # atno 8008 bound_to 7997
  154.4979  140.0833  156.7773 H   0  0  0  0  0  0  0  0  0  0  0  0  # atno 8009 bound_to 7997
  155.4098  140.3418  155.4265 H   0  0  0  0  0  0  0  0  0  0  0  0  # atno 8010 bound_to 7997
  139.8511  143.7198  152.2658 H   0  0  0  0  0  0  0  0  0  0  0  0  # atno 10167 bound_to 10162
  156.1888  130.4152  149.9400 H   0  0  0  0  0  0  0  0  0  0  0  0  # atno 10718 bound_to 10713
  153.1334  135.4673  154.9384 H   0  0  0  0  0  0  0  0  0  0  0  0  # atno 10763 bound_to 10752
  154.7684  135.3151  154.8242 H   0  0  0  0  0  0  0  0  0  0  0  0  # atno 10764 bound_to 10752
  153.8779  135.6897  153.4823 H   0  0  0  0  0  0  0  0  0  0  0  0  # atno 10765 bound_to 10752
  140.8815  133.7651  156.0308 H   0  0  0  0  0  0  0  0  0  0  0  0  # atno 11005 bound_to 11000
  146.3482  140.1719  142.8589 LP  0  0  0  0  0  0  0  0  0  0  0  0  # atno 17320 bound_to 7965
  145.0332  140.8887  143.5097 LP  0  0  0  0  0  0  0  0  0  0  0  0  # atno 17321 bound_to 7965
  139.7465  144.7546  151.0572 LP  0  0  0  0  0  0  0  0  0  0  0  0  # atno 17342 bound_to 10162
  140.7787  143.4911  150.9892 LP  0  0  0  0  0  0  0  0  0  0  0  0  # atno 17343 bound_to 10162
  156.7147  130.8984  151.3613 LP  0  0  0  0  0  0  0  0  0  0  0  0  # atno 17370 bound_to 10713
  157.6916  130.9239  150.0530 LP  0  0  0  0  0  0  0  0  0  0  0  0  # atno 17371 bound_to 10713
  140.8456  134.3015  157.5296 LP  0  0  0  0  0  0  0  0  0  0  0  0  # atno 17394 bound_to 11000
  139.8720  134.9440  156.3868 LP  0  0  0  0  0  0  0  0  0  0  0  0  # atno 17395 bound_to 11000

$$$$
