AV-unprocessed.smi:2485|AV-procd|sdf|9789|dock5
  -GOLD-   2272013423D 1   1.00000     0.00000
 Structure written by MMmdl.
 39 40  0  0  0  0  0  0  0  0  1 V2000
  152.5511  142.1927  161.5876 C   0  0  0  0  0  0  0  0  0  0  0  0
  152.9336  142.4250  160.1160 C   0  0  0  0  0  0  0  0  0  0  0  0
  154.3216  141.8429  159.8081 C   0  0  0  0  0  0  0  0  0  0  0  0
  151.8593  141.9028  159.1549 C   0  0  0  0  0  0  0  0  0  0  0  0
  150.9429  143.0976  158.9804 C   0  0  2  0  0  0  0  0  0  0  0  0
  150.1941  143.0201  157.7276 N   0  0  0  0  0  0  0  0  0  0  0  0
  149.5648  141.9288  157.2698 C   0  0  0  0  0  0  0  0  0  0  0  0
  149.5714  140.8448  157.8532 O   0  0  0  0  0  0  0  0  0  0  0  0
  148.9357  142.1833  156.1096 N   0  0  0  0  0  0  0  0  0  0  0  0
  148.1448  141.2984  155.3306 C   0  0  0  0  0  0  0  0  0  0  0  0
  147.9703  141.6734  153.9814 C   0  0  0  0  0  0  0  0  0  0  0  0
  147.1951  140.8433  153.1536 C   0  0  0  0  0  0  0  0  0  0  0  0
  146.6447  139.6883  153.7346 C   0  0  0  0  0  0  0  0  0  0  0  0
  146.8379  139.3678  155.0323 N   0  0  0  0  0  0  0  0  0  0  0  0
  147.5768  140.1626  155.8144 N   0  0  0  0  0  0  0  0  0  0  0  0
  151.9282  144.2854  159.0499 C   0  0  0  0  0  0  0  0  0  0  0  0
  152.5901  144.6432  157.7024 C   0  0  0  0  0  0  0  0  0  0  0  0
  151.2967  145.5309  159.6918 C   0  0  0  0  0  0  0  0  0  0  0  0
  152.9769  143.8359  159.9070 O   0  0  0  0  0  0  0  0  0  0  0  0
  152.4828  141.1285  161.8149 H   0  0  0  0  0  0  0  0  0  0  0  0
  151.5886  142.6453  161.8274 H   0  0  0  0  0  0  0  0  0  0  0  0
  153.2915  142.6281  162.2592 H   0  0  0  0  0  0  0  0  0  0  0  0
  154.3321  140.7599  159.9342 H   0  0  0  0  0  0  0  0  0  0  0  0
  155.0801  142.2627  160.4694 H   0  0  0  0  0  0  0  0  0  0  0  0
  154.6242  142.0621  158.7837 H   0  0  0  0  0  0  0  0  0  0  0  0
  152.3072  141.6338  158.1968 H   0  0  0  0  0  0  0  0  0  0  0  0
  151.3398  141.0206  159.5306 H   0  0  0  0  0  0  0  0  0  0  0  0
  150.2589  143.1256  159.8310 H   0  0  0  0  0  0  0  0  0  0  0  0
  150.1372  143.8672  157.1818 H   0  0  0  0  0  0  0  0  0  0  0  0
  149.0242  143.1208  155.7471 H   0  0  0  0  0  0  0  0  0  0  0  0
  148.4172  142.5750  153.5880 H   0  0  0  0  0  0  0  0  0  0  0  0
  147.0284  141.0831  152.1140 H   0  0  0  0  0  0  0  0  0  0  0  0
  146.0395  139.0103  153.1512 H   0  0  0  0  0  0  0  0  0  0  0  0
  151.8662  145.0450  156.9930 H   0  0  0  0  0  0  0  0  0  0  0  0
  153.0619  143.7748  157.2425 H   0  0  0  0  0  0  0  0  0  0  0  0
  153.3641  145.3992  157.8377 H   0  0  0  0  0  0  0  0  0  0  0  0
  150.4869  145.9254  159.0781 H   0  0  0  0  0  0  0  0  0  0  0  0
  152.0324  146.3256  159.8176 H   0  0  0  0  0  0  0  0  0  0  0  0
  150.8877  145.3047  160.6769 H   0  0  0  0  0  0  0  0  0  0  0  0
  1  2  1  0  0  0  0
  1 20  1  0  0  0  0
  1 21  1  0  0  0  0
  1 22  1  0  0  0  0
  2 19  1  0  0  0  0
  2  3  1  0  0  0  0
  2  4  1  0  0  0  0
  3 23  1  0  0  0  0
  3 24  1  0  0  0  0
  3 25  1  0  0  0  0
  4  5  1  0  0  0  0
  4 26  1  0  0  0  0
  4 27  1  0  0  0  0
  5  6  1  0  0  0  0
  5 16  1  0  0  0  0
  5 28  1  0  0  0  0
  6  7  1  0  0  0  0
  6 29  1  0  0  0  0
  7  8  2  0  0  0  0
  7  9  1  0  0  0  0
  9 10  1  0  0  0  0
  9 30  1  0  0  0  0
 10 15  1  0  0  0  0
 10 11  2  0  0  0  0
 11 12  1  0  0  0  0
 11 31  1  0  0  0  0
 12 13  2  0  0  0  0
 12 32  1  0  0  0  0
 13 14  1  0  0  0  0
 13 33  1  0  0  0  0
 14 15  2  0  0  0  0
 16 17  1  0  0  0  0
 16 18  1  0  0  0  0
 16 19  1  0  0  0  0
 17 34  1  0  0  0  0
 17 35  1  0  0  0  0
 17 36  1  0  0  0  0
 18 37  1  0  0  0  0
 18 38  1  0  0  0  0
 18 39  1  0  0  0  0
M  END
> <s_m_source_file>
AV-unprocessed.smi

> <i_m_source_file_index>
2485

> <i_lp_mmshare_version>
43012

> <i_f3d_flags>
0

> <s_epik_input>
W0NIM11DMShbQ0gzXSlbQ0gyXVtDQEhdKEMoTzEpKFtDSDNdKVtDSDNdKVtOSF1DKD1PKVtOSF1jMltjSF1bY0hdW2NIXW5uMg==

> <s_epik_cmdline>
J2VwaWtfcHl0aG9uJywgJy1waCcsICc3LjAnLCAnLXRuJywgJzgnLCAnLW1hJywgJzIwMCcsICctbWV0YWxfYmluZGluZycsICctaW1hZScsICc8aW5maWxlLm1hZT4nLCAnLW9tYWUnLCAnPG91dGZpbGUubWFlPic=

> <r_lp_tautomer_probability>
1

> <r_epik_Ionization_Penalty>
0.00480341

> <r_epik_Ionization_Penalty_Charging>
0

> <r_epik_Ionization_Penalty_Neutral>
0.00480341

> <r_epik_State_Penalty>
-0

> <r_epik_Charging_Adjusted_Penalty>
0

> <i_epik_Tot_Q>
0

> <i_epik_Tot_abs_Q>
0

> <r_epik_Metal_State_Penalty>
-0

> <b_epik_Metal_Only>
0

> <s_lp_Force_Field>
OPLS_2005

> <r_lp_Energy>
24.1207

> <b_lp_Chiralities_Consistent>
1

> <s_lp_Variant>
AV-unprocessed.smi:2485-2

> <Gold.Version>
5.8.1

> <Gold.Id.Protein>
6NUR|6NUR_protein|mol2

> <Gold.PLP.Fitness>
43.1943

> <Gold.PLP.PLP>
-38.1170

> <Gold.PLP.part.hbond>
-2.0000

> <Gold.PLP.part.metal>
0.0000

> <Gold.PLP.part.buried>
-4.2051

> <Gold.PLP.part.nonpolar>
-31.8218

> <Gold.PLP.part.repulsive>
0.1842

> <Gold.PLP.ligand.clash>
0.0000

> <Gold.PLP.ligand.torsion>
0.3030

> <Gold.PLP.Chemscore.Hbond>
1.6115

> <Gold.PLP.Chemscore.CHOScore>
0.2792

> <Gold.PLP.Chemscore.Metal>
0.0000

> <Gold.Chemscore.Hbonds>
donor molecule, donor type, donor heavy atom, donor atom, acceptor molecule, acceptor atom, score
      L1  H     6    29       P1  8028  0.59
      L1  H     9    30       P1  8028  1.00
      L1  C    13    33       P1 10175  0.10

> <Gold.PLP.Chemscore.Internal.Correction>
0.0111

> <Gold.Rescore>
     Score         DG    S(hbond)    S(metal)    S(lipo)     H(rot)  DE(clash)    DE(int)     intcor
     18.66     -21.50       1.76        0.00     108.61       1.00       0.22       2.62       ----

> <Gold.Chemscore.Fitness>
18.6595

> <Gold.Chemscore.DG>
-21.4961

> <Gold.Chemscore.ZeroCoef>
-5.4800

> <Gold.Chemscore.Hbond>
1.7569

> <Gold.Chemscore.Metal>
0.0000

> <Gold.Chemscore.Lipo>
108.6149

> <Gold.Chemscore.Internal_Hbond>
0.0000

> <Gold.Chemscore.DEClash>
0.2157

> <Gold.Chemscore.DEInternal>
2.6209

> <Gold.Chemscore.Rot>
1.0000

> <Gold.Chemscore.Internal.Correction>
   9.000000E+99

> <Gold.Chemscore.Hbonds>
donor molecule, donor type, donor heavy atom, donor atom, acceptor molecule, acceptor atom, score
      L1  H     6    29       P1  8028  0.56
      L1  H     9    30       P1  8028  0.98

> <Gold.Chemscore.Hbond.Weighted>
-5.8682

> <Gold.Chemscore.Metal.Weighted>
-0.0000

> <Gold.Chemscore.Lipo.Weighted>
-12.7079

> <Gold.Chemscore.Internal_Hbond.Weighted>
0.0000

> <Gold.Chemscore.DEClash.Weighted>
0.2157

> <Gold.Chemscore.DEInternal.Weighted>
2.6209

> <Gold.Chemscore.Rot.Weighted>
2.5600

> <Gold.Chemscore.Internal.Correction.Weighted>
   9.000000E+99

> <Gold.Protein.RotatedTorsions>
[ 6907 6896 6895 6894 ] final   62.96 input  -60.11 | X-H torsion
[ 7974 7965 7964 7962 ] final  -45.20 input  175.53 | X-H torsion
[ 8008 7997 7996 7995 ] final  -54.23 input   59.86 | X-H torsion
[ 10167 10162 10161 10158 ] final -156.84 input  -65.29 | X-H torsion
[ 10718 10713 10712 10709 ] final   97.63 input   66.30 | X-H torsion
[ 10763 10752 10751 10750 ] final -126.43 input  -60.55 | X-H torsion
[ 11005 11000 10999 10996 ] final  -81.57 input  -57.11 | X-H torsion

> <Gold.Protein.ActiveResidues>
 VAL166  LYS551  ARG553  GLY616  TRP617  ASP618  TYR619  PRO620  LYS621  CYS622 
 ASP623  PHE694  ASN695  SER759  ASP760  ASP761  ALA762  ILE779  LEU786  VAL792 
 PHE793  MET794  SER795  GLU796  ALA797  LYS798  CYS799  TRP800  GLU811  SER814 

> <Gold.Protein.RotatedAtoms>
  152.4215  134.5946  159.9983 H   0  0  0  0  0  0  0  0  0  0  0  0  # atno 6907 bound_to 6896
  151.6095  133.3343  159.3072 H   0  0  0  0  0  0  0  0  0  0  0  0  # atno 6908 bound_to 6896
  150.8103  134.7292  159.6747 H   0  0  0  0  0  0  0  0  0  0  0  0  # atno 6909 bound_to 6896
  145.9844  140.7249  142.9347 H   0  0  0  0  0  0  0  0  0  0  0  0  # atno 7974 bound_to 7965
  154.4156  140.1181  156.5282 H   0  0  0  0  0  0  0  0  0  0  0  0  # atno 8008 bound_to 7997
  155.6633  140.3496  155.4771 H   0  0  0  0  0  0  0  0  0  0  0  0  # atno 8009 bound_to 7997
  155.9695  140.1138  157.0815 H   0  0  0  0  0  0  0  0  0  0  0  0  # atno 8010 bound_to 7997
  139.6818  143.9568  152.2340 H   0  0  0  0  0  0  0  0  0  0  0  0  # atno 10167 bound_to 10162
  157.6909  131.0615  150.4673 H   0  0  0  0  0  0  0  0  0  0  0  0  # atno 10718 bound_to 10713
  154.8745  135.3995  154.3430 H   0  0  0  0  0  0  0  0  0  0  0  0  # atno 10763 bound_to 10752
  153.4227  135.7023  153.6289 H   0  0  0  0  0  0  0  0  0  0  0  0  # atno 10764 bound_to 10752
  153.4944  135.3741  155.2478 H   0  0  0  0  0  0  0  0  0  0  0  0  # atno 10765 bound_to 10752
  141.1666  133.7202  156.8442 H   0  0  0  0  0  0  0  0  0  0  0  0  # atno 11005 bound_to 11000
  144.6870  140.2963  143.7270 LP  0  0  0  0  0  0  0  0  0  0  0  0  # atno 17320 bound_to 7965
  145.7722  139.1861  143.2206 LP  0  0  0  0  0  0  0  0  0  0  0  0  # atno 17321 bound_to 7965
  139.9360  144.6711  150.8314 LP  0  0  0  0  0  0  0  0  0  0  0  0  # atno 17342 bound_to 10162
  140.7654  143.3276  151.2481 LP  0  0  0  0  0  0  0  0  0  0  0  0  # atno 17343 bound_to 10162
  156.5013  130.4118  149.6351 LP  0  0  0  0  0  0  0  0  0  0  0  0  # atno 17370 bound_to 10713
  156.3325  130.7339  151.2271 LP  0  0  0  0  0  0  0  0  0  0  0  0  # atno 17371 bound_to 10713
  140.1962  134.8930  157.3117 LP  0  0  0  0  0  0  0  0  0  0  0  0  # atno 17394 bound_to 11000
  140.2237  134.3993  155.7554 LP  0  0  0  0  0  0  0  0  0  0  0  0  # atno 17395 bound_to 11000

$$$$
