AV-unprocessed.smi:408|AV-procd|sdf|2504|dock7
  -GOLD-   2262022453D 1   1.00000     0.00000
 Structure written by MMmdl.
 40 41  0  0  0  0  0  0  0  0  2 V2000
  152.3857  144.8959  158.4371 C   0  0  0  0  0  0  0  0  0  0  0  0
  152.0064  143.7706  159.4139 C   0  0  0  0  0  0  0  0  0  0  0  0
  151.9874  144.2979  160.8561 C   0  0  0  0  0  0  0  0  0  0  0  0
  152.9475  142.5515  159.2876 C   0  0  0  0  0  0  0  0  0  0  0  0
  152.4341  141.2485  159.9316 C   0  0  0  0  0  0  0  0  0  0  0  0
  151.8435  140.3623  158.9355 N   0  0  0  0  0  0  0  0  0  0  0  0
  152.4873  139.3991  158.2570 C   0  0  0  0  0  0  0  0  0  0  0  0
  153.6554  139.0769  158.4723 O   0  0  0  0  0  0  0  0  0  0  0  0
  151.6931  138.7143  157.1429 C   0  0  0  0  0  0  0  0  0  0  0  0
  150.4632  138.0813  157.7260 C   0  0  0  0  0  0  0  0  0  0  0  0
  149.3952  137.5635  157.0387 C   0  0  0  0  0  0  0  0  0  0  0  0
  148.2299  136.8418  158.1095 S   0  0  0  0  0  0  0  0  0  0  0  0
  149.2377  137.2842  159.4873 C   0  0  0  0  0  0  0  0  0  0  0  0
  148.9426  137.0009  160.7689 N   0  5  0  0  0  0  0  0  0  0  0  0
  147.7238  136.5429  161.1698 C   0  0  0  0  0  0  0  0  0  0  0  0
  146.6442  137.0544  160.8771 O   0  0  0  0  0  0  0  0  0  0  0  0
  147.7609  135.3202  162.0444 C   0  0  0  0  0  0  0  0  0  0  0  0
  147.1545  134.0328  161.5187 C   0  0  0  0  0  0  0  0  0  0  0  0
  146.4307  134.8252  162.5761 C   0  0  0  0  0  0  0  0  0  0  0  0
  150.3366  137.9485  159.1107 N   0  0  0  0  0  0  0  0  0  0  0  0
  153.4165  145.2190  158.5847 H   0  0  0  0  0  0  0  0  0  0  0  0
  151.7451  145.7671  158.5744 H   0  0  0  0  0  0  0  0  0  0  0  0
  152.2780  144.5793  157.4000 H   0  0  0  0  0  0  0  0  0  0  0  0
  150.9882  143.4549  159.1851 H   0  0  0  0  0  0  0  0  0  0  0  0
  152.9789  144.6205  161.1743 H   0  0  0  0  0  0  0  0  0  0  0  0
  151.6461  143.5297  161.5504 H   0  0  0  0  0  0  0  0  0  0  0  0
  151.3123  145.1487  160.9548 H   0  0  0  0  0  0  0  0  0  0  0  0
  153.1552  142.3677  158.2327 H   0  0  0  0  0  0  0  0  0  0  0  0
  153.9108  142.7964  159.7378 H   0  0  0  0  0  0  0  0  0  0  0  0
  153.2239  140.7540  160.4983 H   0  0  0  0  0  0  0  0  0  0  0  0
  151.6558  141.4904  160.6555 H   0  0  0  0  0  0  0  0  0  0  0  0
  150.8830  140.5459  158.6841 H   0  0  0  0  0  0  0  0  0  0  0  0
  151.4304  139.4473  156.3790 H   0  0  0  0  0  0  0  0  0  0  0  0
  152.3206  137.9675  156.6552 H   0  0  0  0  0  0  0  0  0  0  0  0
  149.2358  137.5388  155.9713 H   0  0  0  0  0  0  0  0  0  0  0  0
  148.6352  135.2078  162.6835 H   0  0  0  0  0  0  0  0  0  0  0  0
  146.7179  134.0245  160.5217 H   0  0  0  0  0  0  0  0  0  0  0  0
  147.6361  133.1040  161.8172 H   0  0  0  0  0  0  0  0  0  0  0  0
  146.4197  134.4504  163.5963 H   0  0  0  0  0  0  0  0  0  0  0  0
  145.5308  135.3589  162.2749 H   0  0  0  0  0  0  0  0  0  0  0  0
  1  2  1  0  0  0  0
  1 21  1  0  0  0  0
  1 22  1  0  0  0  0
  1 23  1  0  0  0  0
  2  3  1  0  0  0  0
  2  4  1  0  0  0  0
  2 24  1  0  0  0  0
  3 25  1  0  0  0  0
  3 26  1  0  0  0  0
  3 27  1  0  0  0  0
  4  5  1  0  0  0  0
  4 28  1  0  0  0  0
  4 29  1  0  0  0  0
  5  6  1  0  0  0  0
  5 30  1  0  0  0  0
  5 31  1  0  0  0  0
  6  7  1  0  0  0  0
  6 32  1  0  0  0  0
  7  8  2  0  0  0  0
  7  9  1  0  0  0  0
  9 10  1  0  0  0  0
  9 33  1  0  0  0  0
  9 34  1  0  0  0  0
 10 20  1  0  0  0  0
 10 11  2  0  0  0  0
 11 12  1  0  0  0  0
 11 35  1  0  0  0  0
 12 13  1  0  0  0  0
 13 14  1  0  0  0  0
 13 20  2  0  0  0  0
 14 15  1  0  0  0  0
 15 16  2  0  0  0  0
 15 17  1  0  0  0  0
 17 19  1  0  0  0  0
 17 18  1  0  0  0  0
 17 36  1  0  0  0  0
 18 19  1  0  0  0  0
 18 37  1  0  0  0  0
 18 38  1  0  0  0  0
 19 39  1  0  0  0  0
 19 40  1  0  0  0  0
M  CHG  1  14  -1
M  END
> <s_m_source_file>
AV-unprocessed.smi

> <i_m_source_file_index>
408

> <i_lp_mmshare_version>
43012

> <i_f3d_flags>
0

> <s_epik_input>
W0NIM11bQ0hdKFtDSDNdKVtDSDJdW0NIMl1bTkhdQyg9TylbQ0gyXWMxW2NIXXNjKG4xKVtOSF1DKD1PKVtDSF0yW0NIMl1bQ0gyXTI=

> <s_epik_cmdline>
J2VwaWtfcHl0aG9uJywgJy1waCcsICc3LjAnLCAnLXRuJywgJzgnLCAnLW1hJywgJzIwMCcsICctbWV0YWxfYmluZGluZycsICctaW1hZScsICc8aW5maWxlLm1hZT4nLCAnLW9tYWUnLCAnPG91dGZpbGUubWFlPic=

> <r_lp_tautomer_probability>
1

> <r_epik_Ionization_Penalty>
5.55111

> <r_epik_Ionization_Penalty_Charging>
5.01898

> <r_epik_Ionization_Penalty_Neutral>
0.532133

> <r_epik_State_Penalty>
5.01885

> <r_epik_Charging_Adjusted_Penalty>
10.0378

> <i_epik_Tot_Q>
-1

> <i_epik_Tot_abs_Q>
1

> <r_epik_Metal_State_Penalty>
1.13336

> <b_epik_Metal_Only>
1

> <s_lp_Force_Field>
OPLS_2005

> <r_lp_Energy>
8.36317

> <b_lp_Chiralities_Consistent>
1

> <s_lp_Variant>
AV-unprocessed.smi:408-2

> <Gold.Version>
5.8.1

> <Gold.Id.Protein>
6NUR|6NUR_protein|mol2

> <Gold.PLP.Fitness>
47.4240

> <Gold.PLP.PLP>
-39.4494

> <Gold.PLP.part.hbond>
-3.4865

> <Gold.PLP.part.metal>
0.0000

> <Gold.PLP.part.buried>
-3.6424

> <Gold.PLP.part.nonpolar>
-32.6996

> <Gold.PLP.part.repulsive>
0.1433

> <Gold.PLP.ligand.clash>
0.0000

> <Gold.PLP.ligand.torsion>
1.2001

> <Gold.PLP.Chemscore.Hbond>
3.4188

> <Gold.PLP.Chemscore.CHOScore>
0.0000

> <Gold.PLP.Chemscore.Metal>
0.0000

> <Gold.Chemscore.Hbonds>
donor molecule, donor type, donor heavy atom, donor atom, acceptor molecule, acceptor atom, score
      P1  H  6931  6943       L1    14  1.39
      P1  H  6934  6947       L1    16  0.98
      P1  H  7997  8008       L1     8  1.00

> <Gold.PLP.Chemscore.Internal.Correction>
0.1184

> <Gold.Rescore>
     Score         DG    S(hbond)    S(metal)    S(lipo)     H(rot)  DE(clash)    DE(int)     intcor
     15.33     -18.03       1.86        0.00      96.09       1.92       0.05       2.65       ----

> <Gold.Chemscore.Fitness>
15.3262

> <Gold.Chemscore.DG>
-18.0253

> <Gold.Chemscore.ZeroCoef>
-5.4800

> <Gold.Chemscore.Hbond>
1.8614

> <Gold.Chemscore.Metal>
0.0000

> <Gold.Chemscore.Lipo>
96.0926

> <Gold.Chemscore.Internal_Hbond>
0.0000

> <Gold.Chemscore.DEClash>
0.0456

> <Gold.Chemscore.DEInternal>
2.6535

> <Gold.Chemscore.Rot>
1.9198

> <Gold.Chemscore.Internal.Correction>
   9.000000E+99

> <Gold.Chemscore.Hbonds>
donor molecule, donor type, donor heavy atom, donor atom, acceptor molecule, acceptor atom, score
      P1  H  6931  6943       L1    14  0.11
      P1  H  6934  6947       L1    16  0.24
      P1  H  7997  8008       L1     8  0.77

> <Gold.Chemscore.Hbond.Weighted>
-6.2172

> <Gold.Chemscore.Metal.Weighted>
-0.0000

> <Gold.Chemscore.Lipo.Weighted>
-11.2428

> <Gold.Chemscore.Internal_Hbond.Weighted>
0.0000

> <Gold.Chemscore.DEClash.Weighted>
0.0456

> <Gold.Chemscore.DEInternal.Weighted>
2.6535

> <Gold.Chemscore.Rot.Weighted>
4.9148

> <Gold.Chemscore.Internal.Correction.Weighted>
   9.000000E+99

> <Gold.Protein.RotatedTorsions>
[ 6907 6896 6895 6894 ] final -152.39 input  -60.11 | X-H torsion
[ 7974 7965 7964 7962 ] final  -42.09 input  175.53 | X-H torsion
[ 8008 7997 7996 7995 ] final -107.99 input   59.86 | X-H torsion
[ 10167 10162 10161 10158 ] final -111.71 input  -65.29 | X-H torsion
[ 10718 10713 10712 10709 ] final -165.34 input   66.30 | X-H torsion
[ 10763 10752 10751 10750 ] final  155.57 input  -60.55 | X-H torsion
[ 11005 11000 10999 10996 ] final  -82.21 input  -57.11 | X-H torsion

> <Gold.Protein.ActiveResidues>
 VAL166  LYS551  ARG553  GLY616  TRP617  ASP618  TYR619  PRO620  LYS621  CYS622 
 ASP623  PHE694  ASN695  SER759  ASP760  ASP761  ALA762  ILE779  LEU786  VAL792 
 PHE793  MET794  SER795  GLU796  ALA797  LYS798  CYS799  TRP800  GLU811  SER814 

> <Gold.Protein.RotatedAtoms>
  151.2271  133.4470  159.2602 H   0  0  0  0  0  0  0  0  0  0  0  0  # atno 6907 bound_to 6896
  151.0829  134.9870  159.8375 H   0  0  0  0  0  0  0  0  0  0  0  0  # atno 6908 bound_to 6896
  152.5426  134.2209  159.8840 H   0  0  0  0  0  0  0  0  0  0  0  0  # atno 6909 bound_to 6896
  146.0149  140.6920  142.9206 H   0  0  0  0  0  0  0  0  0  0  0  0  # atno 7974 bound_to 7965
  154.9376  140.0403  157.2080 H   0  0  0  0  0  0  0  0  0  0  0  0  # atno 8008 bound_to 7997
  154.8100  140.2866  155.5838 H   0  0  0  0  0  0  0  0  0  0  0  0  # atno 8009 bound_to 7997
  156.2970  140.2539  156.2986 H   0  0  0  0  0  0  0  0  0  0  0  0  # atno 8010 bound_to 7997
  140.1307  143.4363  152.1629 H   0  0  0  0  0  0  0  0  0  0  0  0  # atno 10167 bound_to 10162
  156.6520  130.9011  151.3015 H   0  0  0  0  0  0  0  0  0  0  0  0  # atno 10718 bound_to 10713
  154.1705  135.2805  155.3082 H   0  0  0  0  0  0  0  0  0  0  0  0  # atno 10763 bound_to 10752
  154.6078  135.5508  153.7445 H   0  0  0  0  0  0  0  0  0  0  0  0  # atno 10764 bound_to 10752
  153.0166  135.6408  154.1846 H   0  0  0  0  0  0  0  0  0  0  0  0  # atno 10765 bound_to 10752
  141.1664  133.7233  156.8537 H   0  0  0  0  0  0  0  0  0  0  0  0  # atno 11005 bound_to 11000
  144.6967  140.3463  143.7190 LP  0  0  0  0  0  0  0  0  0  0  0  0  # atno 17320 bound_to 7965
  145.7284  139.1729  143.2444 LP  0  0  0  0  0  0  0  0  0  0  0  0  # atno 17321 bound_to 7965
  139.5521  144.7345  151.4403 LP  0  0  0  0  0  0  0  0  0  0  0  0  # atno 17342 bound_to 10162
  140.6819  143.8063  150.7132 LP  0  0  0  0  0  0  0  0  0  0  0  0  # atno 17343 bound_to 10162
  157.7138  130.9472  150.1181 LP  0  0  0  0  0  0  0  0  0  0  0  0  # atno 17370 bound_to 10713
  156.2077  130.3664  149.8709 LP  0  0  0  0  0  0  0  0  0  0  0  0  # atno 17371 bound_to 10713
  140.1897  134.8974  157.3046 LP  0  0  0  0  0  0  0  0  0  0  0  0  # atno 17394 bound_to 11000
  140.2303  134.3917  155.7525 LP  0  0  0  0  0  0  0  0  0  0  0  0  # atno 17395 bound_to 11000

$$$$
