AV-unprocessed.smi:247|AV-procd|sdf|1895|dock9
  -GOLD-   2262020563D 1   1.00000     0.00000
 Structure written by MMmdl.
 61 65  0  0  0  0  0  0  0  0  1 V2000
  147.3555  132.0013  159.7319 O   0  0  0  0  0  0  0  0  0  0  0  0
  147.1058  133.3428  159.3598 C   0  0  0  0  0  0  0  0  0  0  0  0
  146.6197  134.2314  160.5386 C   0  0  0  0  0  0  0  0  0  0  0  0
  146.4540  135.6957  160.0213 C   0  0  0  0  0  0  0  0  0  0  0  0
  147.6150  136.2474  159.3364 N   0  0  0  0  0  0  0  0  0  0  0  0
  148.9149  136.2512  159.7908 C   0  0  0  0  0  0  0  0  0  0  0  0
  149.7855  136.7958  158.9863 N   0  0  0  0  0  0  0  0  0  0  0  0
  149.0354  137.1776  157.8802 C   0  0  0  0  0  0  0  0  0  0  0  0
  149.3446  137.8150  156.6445 C   0  0  0  0  0  0  0  0  0  0  0  0
  150.6072  138.1873  156.3061 N   0  0  0  0  0  0  0  0  0  0  0  0
  151.3368  137.2852  155.4203 C   0  0  0  0  0  0  0  0  0  0  0  0
  152.1591  138.1723  154.4813 C   0  0  0  0  0  0  0  0  0  0  0  0
  152.2883  139.4846  155.2465 C   0  0  0  0  0  0  0  0  0  0  0  0
  150.9438  139.5743  155.9804 C   0  0  2  0  0  0  0  0  0  0  0  0
  150.9044  140.5363  157.2026 C   0  0  1  0  0  0  0  0  0  0  0  0
  152.0061  140.2464  158.2499 C   0  0  0  0  0  0  0  0  0  0  0  0
  151.8724  141.1184  159.3672 O   0  0  0  0  0  0  0  0  0  0  0  0
  152.0452  142.4885  159.0249 C   0  0  0  0  0  0  0  0  0  0  0  0
  150.9445  142.9157  158.0437 C   0  0  0  0  0  0  0  0  0  0  0  0
  150.9652  142.0241  156.7943 C   0  0  2  0  0  0  0  0  0  0  0  0
  149.8637  142.3666  155.9765 O   0  0  0  0  0  0  0  0  0  0  0  0
  148.3143  138.0390  155.7860 N   0  0  0  0  0  0  0  0  0  0  0  0
  147.0725  137.6637  156.1046 C   0  0  0  0  0  0  0  0  0  0  0  0
  146.6425  137.0582  157.2128 N   0  0  0  0  0  0  0  0  0  0  0  0
  147.6679  136.8369  158.0844 C   0  0  0  0  0  0  0  0  0  0  0  0
  145.2958  133.6640  161.1134 C   0  0  0  0  0  0  0  0  0  0  0  0
  144.8831  134.3571  162.4243 C   0  0  0  0  0  0  0  0  0  0  0  0
  145.9249  134.2335  163.3849 O   0  0  0  0  0  0  0  0  0  0  0  0
  147.1345  134.8636  162.9805 C   0  0  0  0  0  0  0  0  0  0  0  0
  147.6639  134.2179  161.6853 C   0  0  0  0  0  0  0  0  0  0  0  0
  146.8093  131.4368  159.2066 H   0  0  0  0  0  0  0  0  0  0  0  0
  148.0234  133.7493  158.9327 H   0  0  0  0  0  0  0  0  0  0  0  0
  146.3662  133.3223  158.5596 H   0  0  0  0  0  0  0  0  0  0  0  0
  145.6108  135.7829  159.3383 H   0  0  0  0  0  0  0  0  0  0  0  0
  146.2146  136.3559  160.8562 H   0  0  0  0  0  0  0  0  0  0  0  0
  149.1997  135.8387  160.7475 H   0  0  0  0  0  0  0  0  0  0  0  0
  151.9953  136.6624  156.0265 H   0  0  0  0  0  0  0  0  0  0  0  0
  150.6757  136.6263  154.8552 H   0  0  0  0  0  0  0  0  0  0  0  0
  153.1222  137.7339  154.2187 H   0  0  0  0  0  0  0  0  0  0  0  0
  151.6039  138.3418  153.5578 H   0  0  0  0  0  0  0  0  0  0  0  0
  153.1221  139.4116  155.9436 H   0  0  0  0  0  0  0  0  0  0  0  0
  152.4703  140.3362  154.5904 H   0  0  0  0  0  0  0  0  0  0  0  0
  150.2092  139.9172  155.2502 H   0  0  0  0  0  0  0  0  0  0  0  0
  149.9520  140.3884  157.7121 H   0  0  0  0  0  0  0  0  0  0  0  0
  151.9262  139.2217  158.6133 H   0  0  0  0  0  0  0  0  0  0  0  0
  153.0055  140.3551  157.8286 H   0  0  0  0  0  0  0  0  0  0  0  0
  151.9914  143.0886  159.9335 H   0  0  0  0  0  0  0  0  0  0  0  0
  153.0354  142.6480  158.5953 H   0  0  0  0  0  0  0  0  0  0  0  0
  149.9755  142.8418  158.5396 H   0  0  0  0  0  0  0  0  0  0  0  0
  151.0757  143.9622  157.7661 H   0  0  0  0  0  0  0  0  0  0  0  0
  151.8807  142.2195  156.2345 H   0  0  0  0  0  0  0  0  0  0  0  0
  149.6643  143.2810  156.1075 H   0  0  0  0  0  0  0  0  0  0  0  0
  146.3156  137.8782  155.3647 H   0  0  0  0  0  0  0  0  0  0  0  0
  144.4900  133.7228  160.3828 H   0  0  0  0  0  0  0  0  0  0  0  0
  145.4124  132.6015  161.3294 H   0  0  0  0  0  0  0  0  0  0  0  0
  144.6381  135.4074  162.2657 H   0  0  0  0  0  0  0  0  0  0  0  0
  143.9853  133.8859  162.8246 H   0  0  0  0  0  0  0  0  0  0  0  0
  146.9797  135.9364  162.8655 H   0  0  0  0  0  0  0  0  0  0  0  0
  147.8686  134.7439  163.7774 H   0  0  0  0  0  0  0  0  0  0  0  0
  147.9441  133.1927  161.9279 H   0  0  0  0  0  0  0  0  0  0  0  0
  148.5833  134.7123  161.3699 H   0  0  0  0  0  0  0  0  0  0  0  0
  1  2  1  0  0  0  0
  1 31  1  0  0  0  0
  2  3  1  0  0  0  0
  2 32  1  0  0  0  0
  2 33  1  0  0  0  0
  3 30  1  0  0  0  0
  3  4  1  0  0  0  0
  3 26  1  0  0  0  0
  4  5  1  0  0  0  0
  4 34  1  0  0  0  0
  4 35  1  0  0  0  0
  5 25  1  0  0  0  0
  5  6  1  0  0  0  0
  6  7  2  0  0  0  0
  6 36  1  0  0  0  0
  7  8  1  0  0  0  0
  8 25  2  0  0  0  0
  8  9  1  0  0  0  0
  9 10  1  0  0  0  0
  9 22  2  0  0  0  0
 10 14  1  0  0  0  0
 10 11  1  0  0  0  0
 11 12  1  0  0  0  0
 11 37  1  0  0  0  0
 11 38  1  0  0  0  0
 12 13  1  0  0  0  0
 12 39  1  0  0  0  0
 12 40  1  0  0  0  0
 13 14  1  0  0  0  0
 13 41  1  0  0  0  0
 13 42  1  0  0  0  0
 14 15  1  0  0  0  0
 14 43  1  0  0  0  0
 15 20  1  0  0  0  0
 15 16  1  0  0  0  0
 15 44  1  0  0  0  0
 16 17  1  0  0  0  0
 16 45  1  0  0  0  0
 16 46  1  0  0  0  0
 17 18  1  0  0  0  0
 18 19  1  0  0  0  0
 18 47  1  0  0  0  0
 18 48  1  0  0  0  0
 19 20  1  0  0  0  0
 19 49  1  0  0  0  0
 19 50  1  0  0  0  0
 20 21  1  0  0  0  0
 20 51  1  0  0  0  0
 21 52  1  0  0  0  0
 22 23  1  0  0  0  0
 23 24  2  0  0  0  0
 23 53  1  0  0  0  0
 24 25  1  0  0  0  0
 26 27  1  0  0  0  0
 26 54  1  0  0  0  0
 26 55  1  0  0  0  0
 27 28  1  0  0  0  0
 27 56  1  0  0  0  0
 27 57  1  0  0  0  0
 28 29  1  0  0  0  0
 29 30  1  0  0  0  0
 29 58  1  0  0  0  0
 29 59  1  0  0  0  0
 30 60  1  0  0  0  0
 30 61  1  0  0  0  0
M  END
> <s_m_source_file>
AV-unprocessed.smi

> <i_m_source_file_index>
247

> <i_lp_mmshare_version>
43012

> <i_f3d_flags>
0

> <s_epik_input>
W0NIMl0xW0NIMl1PW0NIMl1bQ0gyXUMxKFtDSDJdW09IXSlbQ0gyXW4oW2NIXW4yKWMoYzIzKW5bY0hdbmMzTjRbQ0gyXVtDSDJdW0NIMl1bQ0BIXTRbQ0BASF01W0NIMl1PW0NIMl1bQ0gyXVtDQEhdNVtPSF0=

> <s_epik_cmdline>
J2VwaWtfcHl0aG9uJywgJy1waCcsICc3LjAnLCAnLXRuJywgJzgnLCAnLW1hJywgJzIwMCcsICctbWV0YWxfYmluZGluZycsICctaW1hZScsICc8aW5maWxlLm1hZT4nLCAnLW9tYWUnLCAnPG91dGZpbGUubWFlPic=

> <r_lp_tautomer_probability>
1

> <r_epik_Ionization_Penalty>
0.00362597

> <r_epik_Ionization_Penalty_Charging>
0

> <r_epik_Ionization_Penalty_Neutral>
0.00362597

> <r_epik_State_Penalty>
0.00241433

> <r_epik_Charging_Adjusted_Penalty>
0.00241433

> <i_epik_Tot_Q>
0

> <i_epik_Tot_abs_Q>
0

> <r_epik_Metal_State_Penalty>
-0

> <b_epik_Metal_Only>
0

> <s_lp_Force_Field>
OPLS_2005

> <r_lp_Energy>
58.878

> <b_lp_Chiralities_Consistent>
1

> <s_lp_Variant>
AV-unprocessed.smi:247-8

> <Gold.Version>
5.8.1

> <Gold.Id.Protein>
6NUR|6NUR_protein|mol2

> <Gold.PLP.Fitness>
42.3764

> <Gold.PLP.PLP>
-39.9116

> <Gold.PLP.part.hbond>
-2.1781

> <Gold.PLP.part.metal>
0.0000

> <Gold.PLP.part.buried>
-6.2933

> <Gold.PLP.part.nonpolar>
-33.2847

> <Gold.PLP.part.repulsive>
0.0749

> <Gold.PLP.ligand.clash>
0.0000

> <Gold.PLP.ligand.torsion>
0.5008

> <Gold.PLP.Chemscore.Hbond>
1.0158

> <Gold.PLP.Chemscore.CHOScore>
0.0000

> <Gold.PLP.Chemscore.Metal>
0.0000

> <Gold.Chemscore.Hbonds>
donor molecule, donor type, donor heavy atom, donor atom, acceptor molecule, acceptor atom, score
      L1  H    21    52       P1  8028  1.00
      P1  H  6896  6907       L1     7  0.01

> <Gold.PLP.Chemscore.Internal.Correction>
0.4190

> <Gold.Rescore>
     Score         DG    S(hbond)    S(metal)    S(lipo)     H(rot)  DE(clash)    DE(int)     intcor
     12.05     -13.00       1.00        0.00     106.41       3.23       0.18       0.77       ----

> <Gold.Chemscore.Fitness>
12.0464

> <Gold.Chemscore.DG>
-12.9960

> <Gold.Chemscore.ZeroCoef>
-5.4800

> <Gold.Chemscore.Hbond>
0.9968

> <Gold.Chemscore.Metal>
0.0000

> <Gold.Chemscore.Lipo>
106.4099

> <Gold.Chemscore.Internal_Hbond>
0.0000

> <Gold.Chemscore.DEClash>
0.1785

> <Gold.Chemscore.DEInternal>
0.7711

> <Gold.Chemscore.Rot>
3.2278

> <Gold.Chemscore.Internal.Correction>
   9.000000E+99

> <Gold.Chemscore.Hbonds>
donor molecule, donor type, donor heavy atom, donor atom, acceptor molecule, acceptor atom, score
      L1  H    21    52       P1  8028  0.96

> <Gold.Chemscore.Hbond.Weighted>
-3.3293

> <Gold.Chemscore.Metal.Weighted>
-0.0000

> <Gold.Chemscore.Lipo.Weighted>
-12.4500

> <Gold.Chemscore.Internal_Hbond.Weighted>
0.0000

> <Gold.Chemscore.DEClash.Weighted>
0.1785

> <Gold.Chemscore.DEInternal.Weighted>
0.7711

> <Gold.Chemscore.Rot.Weighted>
8.2633

> <Gold.Chemscore.Internal.Correction.Weighted>
   9.000000E+99

> <Gold.Protein.RotatedTorsions>
[ 6907 6896 6895 6894 ] final  -16.77 input  -60.11 | X-H torsion
[ 7974 7965 7964 7962 ] final   38.57 input  175.53 | X-H torsion
[ 8008 7997 7996 7995 ] final  -17.94 input   59.86 | X-H torsion
[ 10167 10162 10161 10158 ] final  140.95 input  -65.29 | X-H torsion
[ 10718 10713 10712 10709 ] final -132.21 input   66.30 | X-H torsion
[ 10763 10752 10751 10750 ] final  115.85 input  -60.55 | X-H torsion
[ 11005 11000 10999 10996 ] final -167.97 input  -57.11 | X-H torsion

> <Gold.Protein.ActiveResidues>
 VAL166  LYS551  ARG553  GLY616  TRP617  ASP618  TYR619  PRO620  LYS621  CYS622 
 ASP623  PHE694  ASN695  SER759  ASP760  ASP761  ALA762  ILE779  LEU786  VAL792 
 PHE793  MET794  SER795  GLU796  ALA797  LYS798  CYS799  TRP800  GLU811  SER814 

> <Gold.Protein.RotatedAtoms>
  151.3035  135.0775  159.9246 H   0  0  0  0  0  0  0  0  0  0  0  0  # atno 6907 bound_to 6896
  152.5292  133.9808  159.7816 H   0  0  0  0  0  0  0  0  0  0  0  0  # atno 6908 bound_to 6896
  151.0099  133.5923  159.2714 H   0  0  0  0  0  0  0  0  0  0  0  0  # atno 6909 bound_to 6896
  146.1051  139.5756  142.9388 H   0  0  0  0  0  0  0  0  0  0  0  0  # atno 7974 bound_to 7965
  154.4942  140.2129  155.9483 H   0  0  0  0  0  0  0  0  0  0  0  0  # atno 8008 bound_to 7997
  156.1347  140.3190  155.8370 H   0  0  0  0  0  0  0  0  0  0  0  0  # atno 8009 bound_to 7997
  155.4232  140.0498  157.3015 H   0  0  0  0  0  0  0  0  0  0  0  0  # atno 8010 bound_to 7997
  139.5034  144.6202  151.6068 H   0  0  0  0  0  0  0  0  0  0  0  0  # atno 10167 bound_to 10162
  156.2323  130.7045  151.0871 H   0  0  0  0  0  0  0  0  0  0  0  0  # atno 10718 bound_to 10713
  153.5284  135.3583  155.2664 H   0  0  0  0  0  0  0  0  0  0  0  0  # atno 10763 bound_to 10752
  154.8729  135.4062  154.3180 H   0  0  0  0  0  0  0  0  0  0  0  0  # atno 10764 bound_to 10752
  153.3864  135.7070  153.6595 H   0  0  0  0  0  0  0  0  0  0  0  0  # atno 10765 bound_to 10752
  140.5473  134.5463  157.5114 H   0  0  0  0  0  0  0  0  0  0  0  0  # atno 11005 bound_to 11000
  145.5776  141.0386  143.2140 LP  0  0  0  0  0  0  0  0  0  0  0  0  # atno 17320 bound_to 7965
  144.7464  139.7308  143.7290 LP  0  0  0  0  0  0  0  0  0  0  0  0  # atno 17321 bound_to 7965
  140.5902  143.9793  150.6320 LP  0  0  0  0  0  0  0  0  0  0  0  0  # atno 17342 bound_to 10162
  140.2971  143.3285  152.1007 LP  0  0  0  0  0  0  0  0  0  0  0  0  # atno 17343 bound_to 10162
  157.7138  131.0720  150.6402 LP  0  0  0  0  0  0  0  0  0  0  0  0  # atno 17370 bound_to 10713
  156.6470  130.4474  149.5732 LP  0  0  0  0  0  0  0  0  0  0  0  0  # atno 17371 bound_to 10713
  139.9473  134.7679  156.0531 LP  0  0  0  0  0  0  0  0  0  0  0  0  # atno 17394 bound_to 11000
  141.1192  133.6618  156.3172 LP  0  0  0  0  0  0  0  0  0  0  0  0  # atno 17395 bound_to 11000

$$$$
