AV-unprocessed.smi:1198|AV-procd|sdf|5013|dock4
  -GOLD-   22720 4 33D 1   1.00000     0.00000
 Structure written by MMmdl.
 40 41  0  0  0  0  0  0  0  0  2 V2000
  135.1909  138.7542  154.8042 C   0  0  0  0  0  0  0  0  0  0  0  0
  136.1638  139.7629  155.0556 O   0  0  0  0  0  0  0  0  0  0  0  0
  137.4571  139.5464  154.6261 C   0  0  0  0  0  0  0  0  0  0  0  0
  137.8349  138.2420  154.2508 C   0  0  0  0  0  0  0  0  0  0  0  0
  139.1543  138.0170  153.8145 C   0  0  0  0  0  0  0  0  0  0  0  0
  140.0597  139.0966  153.7735 C   0  0  0  0  0  0  0  0  0  0  0  0
  141.3806  138.8433  153.3130 N   0  0  0  0  0  0  0  0  0  0  0  0
  142.0313  137.6691  153.2452 C   0  0  0  0  0  0  0  0  0  0  0  0
  141.5541  136.5727  153.5366 O   0  0  0  0  0  0  0  0  0  0  0  0
  143.2817  137.8307  152.7883 N   0  0  0  0  0  0  0  0  0  0  0  0
  144.2639  136.7636  152.6194 C   0  0  0  0  0  0  0  0  0  0  0  0
  143.8561  135.7584  151.5245 C   0  0  1  0  0  0  0  0  0  0  0  0
  144.9879  135.4157  150.5555 C   0  0  0  0  0  0  0  0  0  0  0  0
  144.5930  134.0575  149.9610 C   0  0  0  0  0  0  0  0  0  0  0  0
  143.5578  133.4873  150.8539 N   0  3  1  0  0  0  0  0  0  0  0  0
  143.7489  132.0603  151.1865 C   0  0  0  0  0  0  0  0  0  0  0  0
  143.4419  134.3738  152.0282 C   0  0  0  0  0  0  0  0  0  0  0  0
  139.5793  140.3727  154.1578 C   0  0  0  0  0  0  0  0  0  0  0  0
  138.3155  140.5947  154.5764 N   0  0  0  0  0  0  0  0  0  0  0  0
  134.2275  139.0743  155.2006 H   0  0  0  0  0  0  0  0  0  0  0  0
  135.4540  137.8155  155.2937 H   0  0  0  0  0  0  0  0  0  0  0  0
  135.0660  138.5779  153.7348 H   0  0  0  0  0  0  0  0  0  0  0  0
  137.1250  137.4292  154.2968 H   0  0  0  0  0  0  0  0  0  0  0  0
  139.4648  137.0253  153.5193 H   0  0  0  0  0  0  0  0  0  0  0  0
  141.8756  139.6484  152.9578 H   0  0  0  0  0  0  0  0  0  0  0  0
  143.5878  138.7673  152.5674 H   0  0  0  0  0  0  0  0  0  0  0  0
  145.2110  137.2302  152.3473 H   0  0  0  0  0  0  0  0  0  0  0  0
  144.4411  136.2510  153.5667 H   0  0  0  0  0  0  0  0  0  0  0  0
  143.0294  136.1764  150.9473 H   0  0  0  0  0  0  0  0  0  0  0  0
  145.1335  136.1810  149.7925 H   0  0  0  0  0  0  0  0  0  0  0  0
  145.9270  135.3114  151.1012 H   0  0  0  0  0  0  0  0  0  0  0  0
  144.1660  134.1754  148.9647 H   0  0  0  0  0  0  0  0  0  0  0  0
  145.4654  133.4082  149.8721 H   0  0  0  0  0  0  0  0  0  0  0  0
  144.6889  131.9021  151.7171 H   0  0  0  0  0  0  0  0  0  0  0  0
  143.7608  131.4563  150.2788 H   0  0  0  0  0  0  0  0  0  0  0  0
  142.9343  131.7047  151.8182 H   0  0  0  0  0  0  0  0  0  0  0  0
  144.1292  134.0406  152.8080 H   0  0  0  0  0  0  0  0  0  0  0  0
  142.4318  134.3586  152.4385 H   0  0  0  0  0  0  0  0  0  0  0  0
  140.1986  141.2547  154.1178 H   0  0  0  0  0  0  0  0  0  0  0  0
  142.6831  133.5651  150.3548 H   0  0  0  0  0  0  0  0  0  0  0  0
  1  2  1  0  0  0  0
  1 20  1  0  0  0  0
  1 21  1  0  0  0  0
  1 22  1  0  0  0  0
  2  3  1  0  0  0  0
  3 19  1  0  0  0  0
  3  4  2  0  0  0  0
  4  5  1  0  0  0  0
  4 23  1  0  0  0  0
  5  6  2  0  0  0  0
  5 24  1  0  0  0  0
  6  7  1  0  0  0  0
  6 18  1  0  0  0  0
  7  8  1  0  0  0  0
  7 25  1  0  0  0  0
  8  9  2  0  0  0  0
  8 10  1  0  0  0  0
 10 11  1  0  0  0  0
 10 26  1  0  0  0  0
 11 12  1  0  0  0  0
 11 27  1  0  0  0  0
 11 28  1  0  0  0  0
 12 17  1  0  0  0  0
 12 13  1  0  0  0  0
 12 29  1  0  0  0  0
 13 14  1  0  0  0  0
 13 30  1  0  0  0  0
 13 31  1  0  0  0  0
 14 15  1  0  0  0  0
 14 32  1  0  0  0  0
 14 33  1  0  0  0  0
 15 16  1  0  0  0  0
 15 17  1  0  0  0  0
 15 40  1  0  0  0  0
 16 34  1  0  0  0  0
 16 35  1  0  0  0  0
 16 36  1  0  0  0  0
 17 37  1  0  0  0  0
 17 38  1  0  0  0  0
 18 19  2  0  0  0  0
 18 39  1  0  0  0  0
M  CHG  1  15   1
M  END
> <s_m_source_file>
AV-unprocessed.smi

> <i_m_source_file_index>
1198

> <i_lp_mmshare_version>
43012

> <i_f3d_flags>
0

> <s_epik_input>
W0NIM11PYzFbY0hdW2NIXWMoW2NIXW4xKVtOSF1DKD1PKVtOSF1bQ0gyXVtDQEBIXTJbQ0gyXVtDSDJdTihbQ0gzXSlbQ0gyXTI=

> <s_epik_cmdline>
J2VwaWtfcHl0aG9uJywgJy1waCcsICc3LjAnLCAnLXRuJywgJzgnLCAnLW1hJywgJzIwMCcsICctbWV0YWxfYmluZGluZycsICctaW1hZScsICc8aW5maWxlLm1hZT4nLCAnLW9tYWUnLCAnPG91dGZpbGUubWFlPic=

> <r_lp_tautomer_probability>
1

> <r_epik_Ionization_Penalty>
0.00131396

> <r_epik_Ionization_Penalty_Charging>
0.0012301

> <r_epik_Ionization_Penalty_Neutral>
8.38549e-05

> <r_epik_State_Penalty>
0.00081314

> <r_epik_Charging_Adjusted_Penalty>
0.00204324

> <i_epik_Tot_Q>
1

> <i_epik_Tot_abs_Q>
1

> <r_epik_Metal_State_Penalty>
-0

> <b_epik_Metal_Only>
0

> <s_lp_Force_Field>
OPLS_2005

> <r_lp_Energy>
29.2509

> <b_lp_Chiralities_Consistent>
1

> <s_lp_Variant>
AV-unprocessed.smi:1198-4

> <Gold.Version>
5.8.1

> <Gold.Id.Protein>
6NUR|6NUR_protein|mol2

> <Gold.PLP.Fitness>
41.7032

> <Gold.PLP.PLP>
-31.7064

> <Gold.PLP.part.hbond>
-4.7762

> <Gold.PLP.part.metal>
0.0000

> <Gold.PLP.part.buried>
-1.5763

> <Gold.PLP.part.nonpolar>
-25.7157

> <Gold.PLP.part.repulsive>
0.2352

> <Gold.PLP.ligand.clash>
0.0211

> <Gold.PLP.ligand.torsion>
0.9604

> <Gold.PLP.Chemscore.Hbond>
3.9760

> <Gold.PLP.Chemscore.CHOScore>
0.0000

> <Gold.PLP.Chemscore.Metal>
0.0000

> <Gold.Chemscore.Hbonds>
donor molecule, donor type, donor heavy atom, donor atom, acceptor molecule, acceptor atom, score
      L1  H     7    25       P1 10175  0.98
      L1  H    10    26       P1 10175  1.00
      L1  H    15    40       P1 10186  1.92

> <Gold.PLP.Chemscore.Internal.Correction>
0.0106

> <Gold.Rescore>
     Score         DG    S(hbond)    S(metal)    S(lipo)     H(rot)  DE(clash)    DE(int)     intcor
     16.75     -19.10       2.81        0.00      69.49       1.51       0.15       2.20       ----

> <Gold.Chemscore.Fitness>
16.7499

> <Gold.Chemscore.DG>
-19.1040

> <Gold.Chemscore.ZeroCoef>
-5.4800

> <Gold.Chemscore.Hbond>
2.8058

> <Gold.Chemscore.Metal>
0.0000

> <Gold.Chemscore.Lipo>
69.4949

> <Gold.Chemscore.Internal_Hbond>
0.0000

> <Gold.Chemscore.DEClash>
0.1539

> <Gold.Chemscore.DEInternal>
2.2003

> <Gold.Chemscore.Rot>
1.5149

> <Gold.Chemscore.Internal.Correction>
   9.000000E+99

> <Gold.Chemscore.Hbonds>
donor molecule, donor type, donor heavy atom, donor atom, acceptor molecule, acceptor atom, score
      L1  H     7    25       P1 10175  0.51
      L1  H    10    26       P1 10175  1.00
      L1  H    15    40       P1 10186  0.90

> <Gold.Chemscore.Hbond.Weighted>
-9.3713

> <Gold.Chemscore.Metal.Weighted>
-0.0000

> <Gold.Chemscore.Lipo.Weighted>
-8.1309

> <Gold.Chemscore.Internal_Hbond.Weighted>
0.0000

> <Gold.Chemscore.DEClash.Weighted>
0.1539

> <Gold.Chemscore.DEInternal.Weighted>
2.2003

> <Gold.Chemscore.Rot.Weighted>
3.8781

> <Gold.Chemscore.Internal.Correction.Weighted>
   9.000000E+99

> <Gold.Protein.RotatedTorsions>
[ 6907 6896 6895 6894 ] final  158.61 input  -60.11 | X-H torsion
[ 7974 7965 7964 7962 ] final -126.41 input  175.53 | X-H torsion
[ 8008 7997 7996 7995 ] final  144.70 input   59.86 | X-H torsion
[ 10167 10162 10161 10158 ] final -175.83 input  -65.29 | X-H torsion
[ 10718 10713 10712 10709 ] final   -3.95 input   66.30 | X-H torsion
[ 10763 10752 10751 10750 ] final  -94.51 input  -60.55 | X-H torsion
[ 11005 11000 10999 10996 ] final -132.53 input  -57.11 | X-H torsion

> <Gold.Protein.ActiveResidues>
 VAL166  LYS551  ARG553  GLY616  TRP617  ASP618  TYR619  PRO620  LYS621  CYS622 
 ASP623  PHE694  ASN695  SER759  ASP760  ASP761  ALA762  ILE779  LEU786  VAL792 
 PHE793  MET794  SER795  GLU796  ALA797  LYS798  CYS799  TRP800  GLU811  SER814 

> <Gold.Protein.RotatedAtoms>
  151.9978  133.3814  159.4169 H   0  0  0  0  0  0  0  0  0  0  0  0  # atno 6907 bound_to 6896
  150.6913  134.3867  159.5067 H   0  0  0  0  0  0  0  0  0  0  0  0  # atno 6908 bound_to 6896
  152.1610  134.8912  160.0592 H   0  0  0  0  0  0  0  0  0  0  0  0  # atno 6909 bound_to 6896
  144.9875  140.7700  143.4574 H   0  0  0  0  0  0  0  0  0  0  0  0  # atno 7974 bound_to 7965
  156.2901  140.2228  156.5096 H   0  0  0  0  0  0  0  0  0  0  0  0  # atno 8008 bound_to 7997
  154.7620  140.0472  157.1003 H   0  0  0  0  0  0  0  0  0  0  0  0  # atno 8009 bound_to 7997
  154.9979  140.3098  155.4882 H   0  0  0  0  0  0  0  0  0  0  0  0  # atno 8010 bound_to 7997
  139.5561  144.1987  152.1161 H   0  0  0  0  0  0  0  0  0  0  0  0  # atno 10167 bound_to 10162
  156.7685  130.5292  149.5772 H   0  0  0  0  0  0  0  0  0  0  0  0  # atno 10718 bound_to 10713
  154.7062  135.5155  153.8598 H   0  0  0  0  0  0  0  0  0  0  0  0  # atno 10763 bound_to 10752
  153.0743  135.6611  154.0188 H   0  0  0  0  0  0  0  0  0  0  0  0  # atno 10764 bound_to 10752
  154.0039  135.3008  155.3379 H   0  0  0  0  0  0  0  0  0  0  0  0  # atno 10765 bound_to 10752
  140.9162  134.1504  157.4350 H   0  0  0  0  0  0  0  0  0  0  0  0  # atno 11005 bound_to 11000
  145.2332  139.2105  143.5031 LP  0  0  0  0  0  0  0  0  0  0  0  0  # atno 17320 bound_to 7965
  146.3423  140.2213  142.8591 LP  0  0  0  0  0  0  0  0  0  0  0  0  # atno 17321 bound_to 7965
  140.1491  144.5131  150.6698 LP  0  0  0  0  0  0  0  0  0  0  0  0  # atno 17342 bound_to 10162
  140.6833  143.2337  151.5326 LP  0  0  0  0  0  0  0  0  0  0  0  0  # atno 17343 bound_to 10162
  156.1293  130.6166  151.0310 LP  0  0  0  0  0  0  0  0  0  0  0  0  # atno 17370 bound_to 10713
  157.6702  131.0863  150.7631 LP  0  0  0  0  0  0  0  0  0  0  0  0  # atno 17371 bound_to 10713
  139.8766  134.9954  156.5744 LP  0  0  0  0  0  0  0  0  0  0  0  0  # atno 17394 bound_to 11000
  140.8047  133.8477  155.8757 LP  0  0  0  0  0  0  0  0  0  0  0  0  # atno 17395 bound_to 11000

$$$$
