AV-unprocessed.smi:897|AV-procd|sdf|4082|dock8
  -GOLD-   22720 1573D 1   1.00000     0.00000
 Structure written by MMmdl.
 35 37  0  0  0  0  0  0  0  0  1 V2000
  151.2470  144.5164  158.4062 C   0  0  0  0  0  0  0  0  0  0  0  0
  151.9704  143.4385  159.1857 C   0  0  0  0  0  0  0  0  0  0  0  0
  152.3475  143.6424  160.5259 C   0  0  0  0  0  0  0  0  0  0  0  0
  153.0175  142.6051  161.2053 C   0  0  0  0  0  0  0  0  0  0  0  0
  153.4247  142.8122  162.6564 C   0  0  0  0  0  0  0  0  0  0  0  0
  153.2894  141.3980  160.5097 C   0  0  0  0  0  0  0  0  0  0  0  0
  153.9871  140.2997  161.1762 C   0  0  0  0  0  0  0  0  0  0  0  0
  154.5391  139.4304  161.7041 N   0  0  0  0  0  0  0  0  0  0  0  0
  152.8693  141.2900  159.1550 C   0  0  0  0  0  0  0  0  0  0  0  0
  153.1123  140.1121  158.4235 N   0  0  0  0  0  0  0  0  0  0  0  0
  152.1259  139.5672  157.4966 C   0  0  1  0  0  0  0  0  0  0  0  0
  151.6994  140.5679  156.4146 C   0  0  0  0  0  0  0  0  0  0  0  0
  152.0178  139.7985  155.1270 C   0  0  2  0  0  0  0  0  0  0  0  0
  151.0823  138.5998  154.9181 C   0  0  0  0  0  0  0  0  0  0  0  0
  151.5939  137.6172  155.9712 C   0  0  0  0  0  0  0  0  0  0  0  0
  152.7097  138.4277  156.6442 C   0  0  1  0  0  0  0  0  0  0  0  0
  153.2072  139.1380  155.5212 O   0  0  0  0  0  0  0  0  0  0  0  0
  152.2220  142.2950  158.5176 N   0  0  0  0  0  0  0  0  0  0  0  0
  150.9974  145.3655  159.0430 H   0  0  0  0  0  0  0  0  0  0  0  0
  150.3203  144.1249  157.9856 H   0  0  0  0  0  0  0  0  0  0  0  0
  151.8720  144.8752  157.5878 H   0  0  0  0  0  0  0  0  0  0  0  0
  152.1261  144.5760  161.0227 H   0  0  0  0  0  0  0  0  0  0  0  0
  154.5077  142.7468  162.7630 H   0  0  0  0  0  0  0  0  0  0  0  0
  152.9669  142.0556  163.2941 H   0  0  0  0  0  0  0  0  0  0  0  0
  153.1100  143.7901  163.0214 H   0  0  0  0  0  0  0  0  0  0  0  0
  154.0525  139.7453  158.3837 H   0  0  0  0  0  0  0  0  0  0  0  0
  151.2687  139.1995  158.0625 H   0  0  0  0  0  0  0  0  0  0  0  0
  150.6463  140.8409  156.4882 H   0  0  0  0  0  0  0  0  0  0  0  0
  152.2892  141.4849  156.4585 H   0  0  0  0  0  0  0  0  0  0  0  0
  152.1274  140.4349  154.2485 H   0  0  0  0  0  0  0  0  0  0  0  0
  150.0337  138.8645  155.0578 H   0  0  0  0  0  0  0  0  0  0  0  0
  151.2006  138.1826  153.9175 H   0  0  0  0  0  0  0  0  0  0  0  0
  150.8204  137.3069  156.6746 H   0  0  0  0  0  0  0  0  0  0  0  0
  151.9994  136.7237  155.4950 H   0  0  0  0  0  0  0  0  0  0  0  0
  153.4484  137.8099  157.1565 H   0  0  0  0  0  0  0  0  0  0  0  0
  1  2  1  0  0  0  0
  1 19  1  0  0  0  0
  1 20  1  0  0  0  0
  1 21  1  0  0  0  0
  2 18  1  0  0  0  0
  2  3  2  0  0  0  0
  3  4  1  0  0  0  0
  3 22  1  0  0  0  0
  4  5  1  0  0  0  0
  4  6  2  0  0  0  0
  5 23  1  0  0  0  0
  5 24  1  0  0  0  0
  5 25  1  0  0  0  0
  6  7  1  0  0  0  0
  6  9  1  0  0  0  0
  7  8  3  0  0  0  0
  9 10  1  0  0  0  0
  9 18  2  0  0  0  0
 10 11  1  0  0  0  0
 10 26  1  0  0  0  0
 11 16  1  0  0  0  0
 11 12  1  0  0  0  0
 11 27  1  0  0  0  0
 12 13  1  0  0  0  0
 12 28  1  0  0  0  0
 12 29  1  0  0  0  0
 13 17  1  0  0  0  0
 13 14  1  0  0  0  0
 13 30  1  0  0  0  0
 14 15  1  0  0  0  0
 14 31  1  0  0  0  0
 14 32  1  0  0  0  0
 15 16  1  0  0  0  0
 15 33  1  0  0  0  0
 15 34  1  0  0  0  0
 16 17  1  0  0  0  0
 16 35  1  0  0  0  0
M  END
> <s_m_source_file>
AV-unprocessed.smi

> <i_m_source_file_index>
897

> <i_lp_mmshare_version>
43012

> <i_f3d_flags>
0

> <s_epik_input>
W0NIM11jMVtjSF1jKFtDSDNdKWMoQyNOKWMobjEpW05IXVtDQEhdKFtDSDJdW0NAQEhdMjMpW0NAQEhdKE8zKVtDSDJdW0NIMl0y

> <s_epik_cmdline>
J2VwaWtfcHl0aG9uJywgJy1waCcsICc3LjAnLCAnLXRuJywgJzgnLCAnLW1hJywgJzIwMCcsICctbWV0YWxfYmluZGluZycsICctaW1hZScsICc8aW5maWxlLm1hZT4nLCAnLW9tYWUnLCAnPG91dGZpbGUubWFlPic=

> <r_lp_tautomer_probability>
1

> <r_epik_Ionization_Penalty>
0.000502654

> <r_epik_Ionization_Penalty_Charging>
0

> <r_epik_Ionization_Penalty_Neutral>
0.000502654

> <r_epik_State_Penalty>
-0

> <r_epik_Charging_Adjusted_Penalty>
0

> <i_epik_Tot_Q>
0

> <i_epik_Tot_abs_Q>
0

> <r_epik_Metal_State_Penalty>
-0

> <b_epik_Metal_Only>
0

> <s_lp_Force_Field>
OPLS_2005

> <r_lp_Energy>
43.6408

> <b_lp_Chiralities_Consistent>
1

> <s_lp_Variant>
AV-unprocessed.smi:897-4

> <Gold.Version>
5.8.1

> <Gold.Id.Protein>
6NUR|6NUR_protein|mol2

> <Gold.PLP.Fitness>
41.3189

> <Gold.PLP.PLP>
-39.0780

> <Gold.PLP.part.hbond>
-1.0000

> <Gold.PLP.part.metal>
0.0000

> <Gold.PLP.part.buried>
-3.4909

> <Gold.PLP.part.nonpolar>
-34.6971

> <Gold.PLP.part.repulsive>
1.0674

> <Gold.PLP.ligand.clash>
0.0000

> <Gold.PLP.ligand.torsion>
0.3537

> <Gold.PLP.Chemscore.Hbond>
0.9760

> <Gold.PLP.Chemscore.CHOScore>
0.0000

> <Gold.PLP.Chemscore.Metal>
0.0000

> <Gold.Chemscore.Hbonds>
donor molecule, donor type, donor heavy atom, donor atom, acceptor molecule, acceptor atom, score
      P1  H  7997  8009       L1    17  1.00

> <Gold.PLP.Chemscore.Internal.Correction>
0.0202

> <Gold.Rescore>
     Score         DG    S(hbond)    S(metal)    S(lipo)     H(rot)  DE(clash)    DE(int)     intcor
     16.47     -18.37       0.91        0.00     106.03       1.00       0.07       1.84       ----

> <Gold.Chemscore.Fitness>
16.4673

> <Gold.Chemscore.DG>
-18.3696

> <Gold.Chemscore.ZeroCoef>
-5.4800

> <Gold.Chemscore.Hbond>
0.9114

> <Gold.Chemscore.Metal>
0.0000

> <Gold.Chemscore.Lipo>
106.0308

> <Gold.Chemscore.Internal_Hbond>
0.0000

> <Gold.Chemscore.DEClash>
0.0659

> <Gold.Chemscore.DEInternal>
1.8365

> <Gold.Chemscore.Rot>
1.0000

> <Gold.Chemscore.Internal.Correction>
   9.000000E+99

> <Gold.Chemscore.Hbonds>
donor molecule, donor type, donor heavy atom, donor atom, acceptor molecule, acceptor atom, score
      P1  H  7997  8009       L1    17  0.77

> <Gold.Chemscore.Hbond.Weighted>
-3.0440

> <Gold.Chemscore.Metal.Weighted>
-0.0000

> <Gold.Chemscore.Lipo.Weighted>
-12.4056

> <Gold.Chemscore.Internal_Hbond.Weighted>
0.0000

> <Gold.Chemscore.DEClash.Weighted>
0.0659

> <Gold.Chemscore.DEInternal.Weighted>
1.8365

> <Gold.Chemscore.Rot.Weighted>
2.5600

> <Gold.Chemscore.Internal.Correction.Weighted>
   9.000000E+99

> <Gold.Protein.RotatedTorsions>
[ 6907 6896 6895 6894 ] final  -45.48 input  -60.11 | X-H torsion
[ 7974 7965 7964 7962 ] final  176.57 input  175.53 | X-H torsion
[ 8008 7997 7996 7995 ] final -129.74 input   59.86 | X-H torsion
[ 10167 10162 10161 10158 ] final  126.04 input  -65.29 | X-H torsion
[ 10718 10713 10712 10709 ] final  -29.17 input   66.30 | X-H torsion
[ 10763 10752 10751 10750 ] final -109.05 input  -60.55 | X-H torsion
[ 11005 11000 10999 10996 ] final   37.01 input  -57.11 | X-H torsion

> <Gold.Protein.ActiveResidues>
 VAL166  LYS551  ARG553  GLY616  TRP617  ASP618  TYR619  PRO620  LYS621  CYS622 
 ASP623  PHE694  ASN695  SER759  ASP760  ASP761  ALA762  ILE779  LEU786  VAL792 
 PHE793  MET794  SER795  GLU796  ALA797  LYS798  CYS799  TRP800  GLU811  SER814 

> <Gold.Protein.RotatedAtoms>
  150.9215  134.8633  159.7491 H   0  0  0  0  0  0  0  0  0  0  0  0  # atno 6907 bound_to 6896
  152.4995  134.4211  159.9491 H   0  0  0  0  0  0  0  0  0  0  0  0  # atno 6908 bound_to 6896
  151.4245  133.3649  159.2795 H   0  0  0  0  0  0  0  0  0  0  0  0  # atno 6909 bound_to 6896
  144.7182  140.0117  143.6440 H   0  0  0  0  0  0  0  0  0  0  0  0  # atno 7974 bound_to 7965
  155.2842  140.0445  157.3018 H   0  0  0  0  0  0  0  0  0  0  0  0  # atno 8008 bound_to 7997
  154.5579  140.2337  155.8349 H   0  0  0  0  0  0  0  0  0  0  0  0  # atno 8009 bound_to 7997
  156.2023  140.3022  155.9559 H   0  0  0  0  0  0  0  0  0  0  0  0  # atno 8010 bound_to 7997
  139.5652  144.6907  151.3929 H   0  0  0  0  0  0  0  0  0  0  0  0  # atno 10167 bound_to 10162
  156.4159  130.4417  149.7218 H   0  0  0  0  0  0  0  0  0  0  0  0  # atno 10718 bound_to 10713
  154.8171  135.4615  154.0673 H   0  0  0  0  0  0  0  0  0  0  0  0  # atno 10763 bound_to 10752
  153.2057  135.6875  153.8182 H   0  0  0  0  0  0  0  0  0  0  0  0  # atno 10764 bound_to 10752
  153.7651  135.3278  155.3320 H   0  0  0  0  0  0  0  0  0  0  0  0  # atno 10765 bound_to 10752
  140.2268  134.3575  155.7981 H   0  0  0  0  0  0  0  0  0  0  0  0  # atno 11005 bound_to 11000
  146.0253  139.3286  143.0788 LP  0  0  0  0  0  0  0  0  0  0  0  0  # atno 17320 bound_to 7965
  145.8519  140.9524  143.0745 LP  0  0  0  0  0  0  0  0  0  0  0  0  # atno 17321 bound_to 7965
  140.6935  143.7804  150.7291 LP  0  0  0  0  0  0  0  0  0  0  0  0  # atno 17342 bound_to 10162
  140.1294  143.4540  152.2264 LP  0  0  0  0  0  0  0  0  0  0  0  0  # atno 17343 bound_to 10162
  156.4178  130.7754  151.2770 LP  0  0  0  0  0  0  0  0  0  0  0  0  # atno 17370 bound_to 10713
  157.7508  131.0192  150.3656 LP  0  0  0  0  0  0  0  0  0  0  0  0  # atno 17371 bound_to 10713
  141.2220  133.7224  156.8667 LP  0  0  0  0  0  0  0  0  0  0  0  0  # atno 17394 bound_to 11000
  140.1792  134.9045  157.2927 LP  0  0  0  0  0  0  0  0  0  0  0  0  # atno 17395 bound_to 11000

$$$$
