AV-unprocessed.smi:2783|AV-procd|sdf|10724|dock6
  -GOLD-   2272015163D 1   1.00000     0.00000
 Structure written by MMmdl.
 29 29  0  0  0  0  0  0  0  0  1 V2000
  153.2252  143.1609  159.7819 C   0  0  0  0  0  0  0  0  0  0  0  0
  152.0444  143.9586  159.8461 O   0  0  0  0  0  0  0  0  0  0  0  0
  151.1644  143.9577  158.7119 C   0  0  0  0  0  0  0  0  0  0  0  0
  149.9030  144.8063  158.9985 C   0  0  0  0  0  0  0  0  0  0  0  0
  151.9640  144.6069  157.5683 C   0  0  0  0  0  0  0  0  0  0  0  0
  150.7964  142.5124  158.3034 C   0  0  0  0  0  0  0  0  0  0  0  0
  151.1010  141.5752  159.0418 O   0  0  0  0  0  0  0  0  0  0  0  0
  150.1136  142.3734  157.1504 N   0  0  0  0  0  0  0  0  0  0  0  0
  149.6509  141.1868  156.5168 C   0  0  0  0  0  0  0  0  0  0  0  0
  149.9505  139.8818  156.9778 C   0  0  0  0  0  0  0  0  0  0  0  0
  149.4530  138.7787  156.2562 C   0  0  0  0  0  0  0  0  0  0  0  0
  148.7086  138.8960  155.1370 N   0  0  0  0  0  0  0  0  0  0  0  0
  148.4372  140.1399  154.6906 C   0  0  0  0  0  0  0  0  0  0  0  0
  148.8854  141.3117  155.3345 C   0  0  0  0  0  0  0  0  0  0  0  0
  148.5738  142.5367  154.8146 O   0  0  0  0  0  0  0  0  0  0  0  0
  153.8391  143.3659  160.6586 H   0  0  0  0  0  0  0  0  0  0  0  0
  153.8312  143.3720  158.9010 H   0  0  0  0  0  0  0  0  0  0  0  0
  152.9902  142.0966  159.7959 H   0  0  0  0  0  0  0  0  0  0  0  0
  149.3204  144.9730  158.0916 H   0  0  0  0  0  0  0  0  0  0  0  0
  150.1724  145.7859  159.3941 H   0  0  0  0  0  0  0  0  0  0  0  0
  149.2408  144.3270  159.7206 H   0  0  0  0  0  0  0  0  0  0  0  0
  151.3792  144.6600  156.6489 H   0  0  0  0  0  0  0  0  0  0  0  0
  152.8747  144.0476  157.3494 H   0  0  0  0  0  0  0  0  0  0  0  0
  152.2615  145.6234  157.8270 H   0  0  0  0  0  0  0  0  0  0  0  0
  149.8439  143.2344  156.6966 H   0  0  0  0  0  0  0  0  0  0  0  0
  150.5569  139.7045  157.8523 H   0  0  0  0  0  0  0  0  0  0  0  0
  149.6663  137.7720  156.5846 H   0  0  0  0  0  0  0  0  0  0  0  0
  147.8453  140.2023  153.7894 H   0  0  0  0  0  0  0  0  0  0  0  0
  148.6803  143.2407  155.4365 H   0  0  0  0  0  0  0  0  0  0  0  0
  1  2  1  0  0  0  0
  1 16  1  0  0  0  0
  1 17  1  0  0  0  0
  1 18  1  0  0  0  0
  2  3  1  0  0  0  0
  3  4  1  0  0  0  0
  3  5  1  0  0  0  0
  3  6  1  0  0  0  0
  4 19  1  0  0  0  0
  4 20  1  0  0  0  0
  4 21  1  0  0  0  0
  5 22  1  0  0  0  0
  5 23  1  0  0  0  0
  5 24  1  0  0  0  0
  6  7  2  0  0  0  0
  6  8  1  0  0  0  0
  8  9  1  0  0  0  0
  8 25  1  0  0  0  0
  9 14  1  0  0  0  0
  9 10  2  0  0  0  0
 10 11  1  0  0  0  0
 10 26  1  0  0  0  0
 11 12  2  0  0  0  0
 11 27  1  0  0  0  0
 12 13  1  0  0  0  0
 13 14  2  0  0  0  0
 13 28  1  0  0  0  0
 14 15  1  0  0  0  0
 15 29  1  0  0  0  0
M  END
> <s_m_source_file>
AV-unprocessed.smi

> <i_m_source_file_index>
2783

> <i_lp_mmshare_version>
43012

> <i_f3d_flags>
0

> <s_epik_input>
W0NIM11PQyhbQ0gzXSkoW0NIM10pQyg9TylbTkhdYzFbY0hdW2NIXW5bY0hdYzFbT0hd

> <s_epik_cmdline>
J2VwaWtfcHl0aG9uJywgJy1waCcsICc3LjAnLCAnLXRuJywgJzgnLCAnLW1hJywgJzIwMCcsICctbWV0YWxfYmluZGluZycsICctaW1hZScsICc8aW5maWxlLm1hZT4nLCAnLW9tYWUnLCAnPG91dGZpbGUubWFlPic=

> <r_lp_tautomer_probability>
0.43658

> <r_epik_Ionization_Penalty>
0.0236053

> <r_epik_Ionization_Penalty_Charging>
0

> <r_epik_Ionization_Penalty_Neutral>
0.0236053

> <r_epik_State_Penalty>
0.499983

> <r_epik_Charging_Adjusted_Penalty>
0.499983

> <i_epik_Tot_Q>
0

> <i_epik_Tot_abs_Q>
0

> <r_epik_Metal_State_Penalty>
0.746226

> <b_epik_Metal_Only>
0

> <s_lp_Force_Field>
OPLS_2005

> <r_lp_Energy>
14.4929

> <b_lp_Chiralities_Consistent>
1

> <s_lp_Variant>
AV-unprocessed.smi:2783-2

> <Gold.Version>
5.8.1

> <Gold.Id.Protein>
6NUR|6NUR_protein|mol2

> <Gold.PLP.Fitness>
35.2313

> <Gold.PLP.PLP>
-27.7345

> <Gold.PLP.part.hbond>
-2.8163

> <Gold.PLP.part.metal>
0.0000

> <Gold.PLP.part.buried>
-0.7078

> <Gold.PLP.part.nonpolar>
-24.3882

> <Gold.PLP.part.repulsive>
0.4713

> <Gold.PLP.ligand.clash>
0.0000

> <Gold.PLP.ligand.torsion>
0.1610

> <Gold.PLP.Chemscore.Hbond>
1.9316

> <Gold.PLP.Chemscore.CHOScore>
0.6632

> <Gold.PLP.Chemscore.Metal>
0.0000

> <Gold.Chemscore.Hbonds>
donor molecule, donor type, donor heavy atom, donor atom, acceptor molecule, acceptor atom, score
      L1  H     8    25       P1  8028  0.96
      L1  H    15    29       P1  8028  0.86

> <Gold.PLP.Chemscore.Internal.Correction>
0.0344

> <Gold.Rescore>
     Score         DG    S(hbond)    S(metal)    S(lipo)     H(rot)  DE(clash)    DE(int)     intcor
     10.91     -13.97       1.38        0.00      71.45       1.75       0.32       2.74       ----

> <Gold.Chemscore.Fitness>
10.9134

> <Gold.Chemscore.DG>
-13.9725

> <Gold.Chemscore.ZeroCoef>
-5.4800

> <Gold.Chemscore.Hbond>
1.3814

> <Gold.Chemscore.Metal>
0.0000

> <Gold.Chemscore.Lipo>
71.4550

> <Gold.Chemscore.Internal_Hbond>
0.0000

> <Gold.Chemscore.DEClash>
0.3215

> <Gold.Chemscore.DEInternal>
2.7375

> <Gold.Chemscore.Rot>
1.7507

> <Gold.Chemscore.Internal.Correction>
   9.000000E+99

> <Gold.Chemscore.Hbonds>
donor molecule, donor type, donor heavy atom, donor atom, acceptor molecule, acceptor atom, score
      L1  H     8    25       P1  8028  0.91
      L1  H    15    29       P1  8028  0.79

> <Gold.Chemscore.Hbond.Weighted>
-4.6140

> <Gold.Chemscore.Metal.Weighted>
-0.0000

> <Gold.Chemscore.Lipo.Weighted>
-8.3602

> <Gold.Chemscore.Internal_Hbond.Weighted>
0.0000

> <Gold.Chemscore.DEClash.Weighted>
0.3215

> <Gold.Chemscore.DEInternal.Weighted>
2.7375

> <Gold.Chemscore.Rot.Weighted>
4.4817

> <Gold.Chemscore.Internal.Correction.Weighted>
   9.000000E+99

> <Gold.Protein.RotatedTorsions>
[ 6907 6896 6895 6894 ] final -135.99 input  -60.11 | X-H torsion
[ 7974 7965 7964 7962 ] final   23.61 input  175.53 | X-H torsion
[ 8008 7997 7996 7995 ] final   52.60 input   59.86 | X-H torsion
[ 10167 10162 10161 10158 ] final -133.71 input  -65.29 | X-H torsion
[ 10718 10713 10712 10709 ] final   -4.09 input   66.30 | X-H torsion
[ 10763 10752 10751 10750 ] final   60.96 input  -60.55 | X-H torsion
[ 11005 11000 10999 10996 ] final   94.23 input  -57.11 | X-H torsion

> <Gold.Protein.ActiveResidues>
 VAL166  LYS551  ARG553  GLY616  TRP617  ASP618  TYR619  PRO620  LYS621  CYS622 
 ASP623  PHE694  ASN695  SER759  ASP760  ASP761  ALA762  ILE779  LEU786  VAL792 
 PHE793  MET794  SER795  GLU796  ALA797  LYS798  CYS799  TRP800  GLU811  SER814 

> <Gold.Protein.RotatedAtoms>
  151.0045  133.6024  159.2690 H   0  0  0  0  0  0  0  0  0  0  0  0  # atno 6907 bound_to 6896
  151.3198  135.0814  159.9311 H   0  0  0  0  0  0  0  0  0  0  0  0  # atno 6908 bound_to 6896
  152.5283  133.9695  159.7809 H   0  0  0  0  0  0  0  0  0  0  0  0  # atno 6909 bound_to 6896
  146.1976  139.7721  142.8785 H   0  0  0  0  0  0  0  0  0  0  0  0  # atno 7974 bound_to 7965
  155.4544  140.3459  155.4305 H   0  0  0  0  0  0  0  0  0  0  0  0  # atno 8008 bound_to 7997
  156.1200  140.1484  156.9248 H   0  0  0  0  0  0  0  0  0  0  0  0  # atno 8009 bound_to 7997
  154.4816  140.0868  156.7371 H   0  0  0  0  0  0  0  0  0  0  0  0  # atno 8010 bound_to 7997
  139.8955  143.6671  152.2604 H   0  0  0  0  0  0  0  0  0  0  0  0  # atno 10167 bound_to 10162
  156.7665  130.5286  149.5775 H   0  0  0  0  0  0  0  0  0  0  0  0  # atno 10718 bound_to 10713
  152.9936  135.5517  154.5958 H   0  0  0  0  0  0  0  0  0  0  0  0  # atno 10763 bound_to 10752
  154.5310  135.2813  155.1182 H   0  0  0  0  0  0  0  0  0  0  0  0  # atno 10764 bound_to 10752
  154.2498  135.6401  153.5289 H   0  0  0  0  0  0  0  0  0  0  0  0  # atno 10765 bound_to 10752
  139.8801  134.8834  156.3833 H   0  0  0  0  0  0  0  0  0  0  0  0  # atno 11005 bound_to 11000
  145.3591  141.0322  143.3295 LP  0  0  0  0  0  0  0  0  0  0  0  0  # atno 17320 bound_to 7965
  144.8614  139.5172  143.6810 LP  0  0  0  0  0  0  0  0  0  0  0  0  # atno 17321 bound_to 7965
  139.7072  144.7626  151.1174 LP  0  0  0  0  0  0  0  0  0  0  0  0  # atno 17342 bound_to 10162
  140.7718  143.5379  150.9346 LP  0  0  0  0  0  0  0  0  0  0  0  0  # atno 17343 bound_to 10162
  156.1306  130.6175  151.0327 LP  0  0  0  0  0  0  0  0  0  0  0  0  # atno 17370 bound_to 10713
  157.6711  131.0861  150.7610 LP  0  0  0  0  0  0  0  0  0  0  0  0  # atno 17371 bound_to 10713
  140.9383  133.7531  156.0114 LP  0  0  0  0  0  0  0  0  0  0  0  0  # atno 17394 bound_to 11000
  140.8249  134.3246  157.5369 LP  0  0  0  0  0  0  0  0  0  0  0  0  # atno 17395 bound_to 11000

$$$$
