AV-unprocessed.smi:2308|AV-procd|sdf|9252|dock1
  -GOLD-   2272012473D 1   1.00000     0.00000
 Structure written by MMmdl.
 33 34  0  0  0  0  0  0  0  0  1 V2000
  153.3719  141.6615  160.8240 C   0  0  0  0  0  0  0  0  0  0  0  0
  152.5503  142.7418  160.1520 C   0  0  0  0  0  0  0  0  0  0  0  0
  152.5074  144.0499  160.6733 C   0  0  0  0  0  0  0  0  0  0  0  0
  151.7211  145.0045  160.0037 C   0  0  0  0  0  0  0  0  0  0  0  0
  151.0146  144.6148  158.8495 C   0  0  0  0  0  0  0  0  0  0  0  0
  151.1111  143.2810  158.3925 C   0  0  0  0  0  0  0  0  0  0  0  0
  150.3595  142.9885  157.2233 N   0  0  0  0  0  0  0  0  0  0  0  0
  150.0396  141.7828  156.7208 C   0  0  0  0  0  0  0  0  0  0  0  0
  150.3682  140.6995  157.2059 O   0  0  0  0  0  0  0  0  0  0  0  0
  149.3045  141.9037  155.6033 N   0  0  0  0  0  0  0  0  0  0  0  0
  148.7785  140.8076  154.7858 C   0  0  0  0  0  0  0  0  0  0  0  0
  149.9147  139.8617  154.3831 C   0  0  0  0  0  0  0  0  0  0  0  0
  147.4852  140.2047  155.3757 C   0  0  0  0  0  0  0  0  0  0  0  0
  146.8910  140.2359  153.9653 C   0  0  0  0  0  0  0  0  0  0  0  0
  147.8808  141.3652  153.6646 C   0  0  0  0  0  0  0  0  0  0  0  0
  151.8726  142.3678  159.0454 N   0  0  0  0  0  0  0  0  0  0  0  0
  154.0494  142.0850  161.5660 H   0  0  0  0  0  0  0  0  0  0  0  0
  153.9697  141.1211  160.0892 H   0  0  0  0  0  0  0  0  0  0  0  0
  152.7174  140.9485  161.3258 H   0  0  0  0  0  0  0  0  0  0  0  0
  153.0599  144.3168  161.5624 H   0  0  0  0  0  0  0  0  0  0  0  0
  151.6592  146.0189  160.3692 H   0  0  0  0  0  0  0  0  0  0  0  0
  150.4054  145.3361  158.3243 H   0  0  0  0  0  0  0  0  0  0  0  0
  150.0224  143.7908  156.7124 H   0  0  0  0  0  0  0  0  0  0  0  0
  149.0873  142.8375  155.2872 H   0  0  0  0  0  0  0  0  0  0  0  0
  149.5597  139.0658  153.7282 H   0  0  0  0  0  0  0  0  0  0  0  0
  150.3686  139.3824  155.2507 H   0  0  0  0  0  0  0  0  0  0  0  0
  150.7032  140.3925  153.8490 H   0  0  0  0  0  0  0  0  0  0  0  0
  147.5981  139.2054  155.7977 H   0  0  0  0  0  0  0  0  0  0  0  0
  146.9592  140.8706  156.0631 H   0  0  0  0  0  0  0  0  0  0  0  0
  147.0907  139.3268  153.3958 H   0  0  0  0  0  0  0  0  0  0  0  0
  145.8404  140.5237  153.9174 H   0  0  0  0  0  0  0  0  0  0  0  0
  147.4637  142.3511  153.8809 H   0  0  0  0  0  0  0  0  0  0  0  0
  148.3171  141.3283  152.6659 H   0  0  0  0  0  0  0  0  0  0  0  0
  1  2  1  0  0  0  0
  1 17  1  0  0  0  0
  1 18  1  0  0  0  0
  1 19  1  0  0  0  0
  2 16  1  0  0  0  0
  2  3  2  0  0  0  0
  3  4  1  0  0  0  0
  3 20  1  0  0  0  0
  4  5  2  0  0  0  0
  4 21  1  0  0  0  0
  5  6  1  0  0  0  0
  5 22  1  0  0  0  0
  6  7  1  0  0  0  0
  6 16  2  0  0  0  0
  7  8  1  0  0  0  0
  7 23  1  0  0  0  0
  8  9  2  0  0  0  0
  8 10  1  0  0  0  0
 10 11  1  0  0  0  0
 10 24  1  0  0  0  0
 11 15  1  0  0  0  0
 11 12  1  0  0  0  0
 11 13  1  0  0  0  0
 12 25  1  0  0  0  0
 12 26  1  0  0  0  0
 12 27  1  0  0  0  0
 13 14  1  0  0  0  0
 13 28  1  0  0  0  0
 13 29  1  0  0  0  0
 14 15  1  0  0  0  0
 14 30  1  0  0  0  0
 14 31  1  0  0  0  0
 15 32  1  0  0  0  0
 15 33  1  0  0  0  0
M  END
> <s_m_source_file>
AV-unprocessed.smi

> <i_m_source_file_index>
2308

> <i_lp_mmshare_version>
43012

> <i_f3d_flags>
0

> <s_epik_input>
W0NIM11jMVtjSF1bY0hdW2NIXWMobjEpW05IXUMoPU8pW05IXUMyKFtDSDNdKVtDSDJdW0NIMl1bQ0gyXTI=

> <s_epik_cmdline>
J2VwaWtfcHl0aG9uJywgJy1waCcsICc3LjAnLCAnLXRuJywgJzgnLCAnLW1hJywgJzIwMCcsICctbWV0YWxfYmluZGluZycsICctaW1hZScsICc8aW5maWxlLm1hZT4nLCAnLW9tYWUnLCAnPG91dGZpbGUubWFlPic=

> <r_lp_tautomer_probability>
1

> <r_epik_Ionization_Penalty>
9.50392e-05

> <r_epik_Ionization_Penalty_Charging>
0

> <r_epik_Ionization_Penalty_Neutral>
9.50392e-05

> <r_epik_State_Penalty>
-0

> <r_epik_Charging_Adjusted_Penalty>
0

> <i_epik_Tot_Q>
0

> <i_epik_Tot_abs_Q>
0

> <r_epik_Metal_State_Penalty>
-0

> <b_epik_Metal_Only>
0

> <s_lp_Force_Field>
OPLS_2005

> <r_lp_Energy>
16.4501

> <b_lp_Chiralities_Consistent>
1

> <s_lp_Variant>
AV-unprocessed.smi:2308-1

> <Gold.Version>
5.8.1

> <Gold.Id.Protein>
6NUR|6NUR_protein|mol2

> <Gold.PLP.Fitness>
40.9678

> <Gold.PLP.PLP>
-35.1257

> <Gold.PLP.part.hbond>
-2.0000

> <Gold.PLP.part.metal>
0.0000

> <Gold.PLP.part.buried>
-4.7808

> <Gold.PLP.part.nonpolar>
-28.6596

> <Gold.PLP.part.repulsive>
0.1658

> <Gold.PLP.ligand.clash>
0.0000

> <Gold.PLP.ligand.torsion>
0.2269

> <Gold.PLP.Chemscore.Hbond>
2.0000

> <Gold.PLP.Chemscore.CHOScore>
0.0000

> <Gold.PLP.Chemscore.Metal>
0.0000

> <Gold.Chemscore.Hbonds>
donor molecule, donor type, donor heavy atom, donor atom, acceptor molecule, acceptor atom, score
      L1  H     7    23       P1  8028  1.00
      L1  H    10    24       P1  8028  1.00

> <Gold.PLP.Chemscore.Internal.Correction>
0.2960

> <Gold.Rescore>
     Score         DG    S(hbond)    S(metal)    S(lipo)     H(rot)  DE(clash)    DE(int)     intcor
     16.97     -19.59       1.94        0.00      86.98       1.00       0.03       2.59       ----

> <Gold.Chemscore.Fitness>
16.9651

> <Gold.Chemscore.DG>
-19.5864

> <Gold.Chemscore.ZeroCoef>
-5.4800

> <Gold.Chemscore.Hbond>
1.9432

> <Gold.Chemscore.Metal>
0.0000

> <Gold.Chemscore.Lipo>
86.9763

> <Gold.Chemscore.Internal_Hbond>
0.0000

> <Gold.Chemscore.DEClash>
0.0279

> <Gold.Chemscore.DEInternal>
2.5933

> <Gold.Chemscore.Rot>
1.0000

> <Gold.Chemscore.Internal.Correction>
   9.000000E+99

> <Gold.Chemscore.Hbonds>
donor molecule, donor type, donor heavy atom, donor atom, acceptor molecule, acceptor atom, score
      L1  H     7    23       P1  8028  0.99
      L1  H    10    24       P1  8028  0.95

> <Gold.Chemscore.Hbond.Weighted>
-6.4901

> <Gold.Chemscore.Metal.Weighted>
-0.0000

> <Gold.Chemscore.Lipo.Weighted>
-10.1762

> <Gold.Chemscore.Internal_Hbond.Weighted>
0.0000

> <Gold.Chemscore.DEClash.Weighted>
0.0279

> <Gold.Chemscore.DEInternal.Weighted>
2.5933

> <Gold.Chemscore.Rot.Weighted>
2.5600

> <Gold.Chemscore.Internal.Correction.Weighted>
   9.000000E+99

> <Gold.Protein.RotatedTorsions>
[ 6907 6896 6895 6894 ] final  -58.44 input  -60.11 | X-H torsion
[ 7974 7965 7964 7962 ] final -179.32 input  175.53 | X-H torsion
[ 8008 7997 7996 7995 ] final   47.17 input   59.86 | X-H torsion
[ 10167 10162 10161 10158 ] final  114.59 input  -65.29 | X-H torsion
[ 10718 10713 10712 10709 ] final  -60.90 input   66.30 | X-H torsion
[ 10763 10752 10751 10750 ] final -169.74 input  -60.55 | X-H torsion
[ 11005 11000 10999 10996 ] final   16.25 input  -57.11 | X-H torsion

> <Gold.Protein.ActiveResidues>
 VAL166  LYS551  ARG553  GLY616  TRP617  ASP618  TYR619  PRO620  LYS621  CYS622 
 ASP623  PHE694  ASN695  SER759  ASP760  ASP761  ALA762  ILE779  LEU786  VAL792 
 PHE793  MET794  SER795  GLU796  ALA797  LYS798  CYS799  TRP800  GLU811  SER814 

> <Gold.Protein.RotatedAtoms>
  150.8006  134.7097  159.6596 H   0  0  0  0  0  0  0  0  0  0  0  0  # atno 6907 bound_to 6896
  152.4123  134.6100  160.0033 H   0  0  0  0  0  0  0  0  0  0  0  0  # atno 6908 bound_to 6896
  151.6339  133.3293  159.3151 H   0  0  0  0  0  0  0  0  0  0  0  0  # atno 6909 bound_to 6896
  144.7136  140.0735  143.6428 H   0  0  0  0  0  0  0  0  0  0  0  0  # atno 7974 bound_to 7965
  155.3645  140.3420  155.4241 H   0  0  0  0  0  0  0  0  0  0  0  0  # atno 8008 bound_to 7997
  156.1695  140.1627  156.8506 H   0  0  0  0  0  0  0  0  0  0  0  0  # atno 8009 bound_to 7997
  154.5219  140.0765  156.8170 H   0  0  0  0  0  0  0  0  0  0  0  0  # atno 8010 bound_to 7997
  139.6378  144.7121  151.2299 H   0  0  0  0  0  0  0  0  0  0  0  0  # atno 10167 bound_to 10162
  156.0958  130.4193  150.0919 H   0  0  0  0  0  0  0  0  0  0  0  0  # atno 10718 bound_to 10713
  154.6490  135.2909  155.0010 H   0  0  0  0  0  0  0  0  0  0  0  0  # atno 10763 bound_to 10752
  154.1110  135.6562  153.4889 H   0  0  0  0  0  0  0  0  0  0  0  0  # atno 10764 bound_to 10752
  153.0366  135.5265  154.7390 H   0  0  0  0  0  0  0  0  0  0  0  0  # atno 10765 bound_to 10752
  140.4493  134.1241  155.7700 H   0  0  0  0  0  0  0  0  0  0  0  0  # atno 11005 bound_to 11000
  145.9763  139.2907  143.1069 LP  0  0  0  0  0  0  0  0  0  0  0  0  # atno 17320 bound_to 7965
  145.9061  140.9211  143.0478 LP  0  0  0  0  0  0  0  0  0  0  0  0  # atno 17321 bound_to 7965
  140.7474  143.6365  150.8374 LP  0  0  0  0  0  0  0  0  0  0  0  0  # atno 17342 bound_to 10162
  139.9999  143.5755  152.2879 LP  0  0  0  0  0  0  0  0  0  0  0  0  # atno 17343 bound_to 10162
  156.8918  130.9591  151.3587 LP  0  0  0  0  0  0  0  0  0  0  0  0  # atno 17370 bound_to 10713
  157.6119  130.8589  149.8965 LP  0  0  0  0  0  0  0  0  0  0  0  0  # atno 17371 bound_to 10713
  141.1671  133.8681  157.1681 LP  0  0  0  0  0  0  0  0  0  0  0  0  # atno 17394 bound_to 11000
  140.0018  135.0025  157.0206 LP  0  0  0  0  0  0  0  0  0  0  0  0  # atno 17395 bound_to 11000

$$$$
