AV-unprocessed.smi:861|AV-procd|sdf|3972|dock4
  -GOLD-   22720 1443D 1   1.00000     0.00000
 Structure written by MMmdl.
 45 46  0  0  0  0  0  0  0  0  3 V2000
  152.4395  144.4823  158.4856 C   0  0  0  0  0  0  0  0  0  0  0  0
  152.0123  143.1301  159.0823 C   0  0  0  0  0  0  0  0  0  0  0  0
  153.0614  142.6403  160.0929 C   0  0  0  0  0  0  0  0  0  0  0  0
  151.7545  142.0593  158.0014 C   0  0  0  0  0  0  0  0  0  0  0  0
  150.2862  141.5962  157.9145 C   0  0  0  0  0  0  0  0  0  0  0  0
  149.9874  140.8729  156.6517 N   0  3  1  0  0  0  0  0  0  0  0  0
  150.1586  141.7057  155.4354 C   0  0  0  0  0  0  0  0  0  0  0  0
  149.8099  140.8974  154.1759 C   0  0  0  0  0  0  0  0  0  0  0  0
  150.6167  139.7282  154.1228 O   0  0  0  0  0  0  0  0  0  0  0  0
  150.3943  138.8630  155.2301 C   0  0  1  0  0  0  0  0  0  0  0  0
  151.2551  137.6064  155.0010 C   0  0  0  0  0  0  0  0  0  0  0  0
  150.5288  136.5276  154.3438 N   0  0  0  0  0  0  0  0  0  0  0  0
  150.3385  135.2799  154.9552 C   0  0  0  0  0  0  0  0  0  0  0  0
  150.8135  134.9368  156.2430 C   0  0  0  0  0  0  0  0  0  0  0  0
  150.5473  133.6456  156.7298 C   0  0  0  0  0  0  0  0  0  0  0  0
  149.8206  132.7732  155.9006 C   0  0  0  0  0  0  0  0  0  0  0  0
  149.3742  133.1200  154.6731 N   0  0  0  0  0  0  0  0  0  0  0  0
  149.6446  134.3624  154.2357 N   0  3  0  0  0  0  0  0  0  0  0  0
  150.7640  139.6148  156.5272 C   0  0  0  0  0  0  0  0  0  0  0  0
  153.3469  144.3835  157.8887 H   0  0  0  0  0  0  0  0  0  0  0  0
  152.6412  145.2095  159.2729 H   0  0  0  0  0  0  0  0  0  0  0  0
  151.6650  144.9097  157.8497 H   0  0  0  0  0  0  0  0  0  0  0  0
  151.0839  143.2852  159.6337 H   0  0  0  0  0  0  0  0  0  0  0  0
  154.0217  142.4560  159.6097 H   0  0  0  0  0  0  0  0  0  0  0  0
  152.7460  141.7129  160.5719 H   0  0  0  0  0  0  0  0  0  0  0  0
  153.2217  143.3754  160.8824 H   0  0  0  0  0  0  0  0  0  0  0  0
  152.0823  142.4334  157.0305 H   0  0  0  0  0  0  0  0  0  0  0  0
  152.3871  141.2003  158.2226 H   0  0  0  0  0  0  0  0  0  0  0  0
  150.0263  140.9706  158.7697 H   0  0  0  0  0  0  0  0  0  0  0  0
  149.6412  142.4733  157.9666 H   0  0  0  0  0  0  0  0  0  0  0  0
  149.5200  142.5869  155.4772 H   0  0  0  0  0  0  0  0  0  0  0  0
  151.1890  142.0594  155.3757 H   0  0  0  0  0  0  0  0  0  0  0  0
  148.7526  140.6276  154.1632 H   0  0  0  0  0  0  0  0  0  0  0  0
  149.9963  141.4957  153.2839 H   0  0  0  0  0  0  0  0  0  0  0  0
  149.3394  138.5838  155.2504 H   0  0  0  0  0  0  0  0  0  0  0  0
  152.1422  137.8549  154.4179 H   0  0  0  0  0  0  0  0  0  0  0  0
  151.6234  137.2351  155.9576 H   0  0  0  0  0  0  0  0  0  0  0  0
  150.1054  136.7110  153.4450 H   0  0  0  0  0  0  0  0  0  0  0  0
  151.3694  135.6314  156.8543 H   0  0  0  0  0  0  0  0  0  0  0  0
  150.8870  133.3325  157.7063 H   0  0  0  0  0  0  0  0  0  0  0  0
  149.5901  131.7703  156.2292 H   0  0  0  0  0  0  0  0  0  0  0  0
  151.8307  139.8456  156.5392 H   0  0  0  0  0  0  0  0  0  0  0  0
  150.5644  138.9793  157.3909 H   0  0  0  0  0  0  0  0  0  0  0  0
  149.0142  140.6053  156.6947 H   0  0  0  0  0  0  0  0  0  0  0  0
  149.3067  134.6309  153.3112 H   0  0  0  0  0  0  0  0  0  0  0  0
  1  2  1  0  0  0  0
  1 20  1  0  0  0  0
  1 21  1  0  0  0  0
  1 22  1  0  0  0  0
  2  3  1  0  0  0  0
  2  4  1  0  0  0  0
  2 23  1  0  0  0  0
  3 24  1  0  0  0  0
  3 25  1  0  0  0  0
  3 26  1  0  0  0  0
  4  5  1  0  0  0  0
  4 27  1  0  0  0  0
  4 28  1  0  0  0  0
  5  6  1  0  0  0  0
  5 29  1  0  0  0  0
  5 30  1  0  0  0  0
  6 19  1  0  0  0  0
  6  7  1  0  0  0  0
  6 44  1  0  0  0  0
  7  8  1  0  0  0  0
  7 31  1  0  0  0  0
  7 32  1  0  0  0  0
  8  9  1  0  0  0  0
  8 33  1  0  0  0  0
  8 34  1  0  0  0  0
  9 10  1  0  0  0  0
 10 11  1  0  0  0  0
 10 19  1  0  0  0  0
 10 35  1  0  0  0  0
 11 12  1  0  0  0  0
 11 36  1  0  0  0  0
 11 37  1  0  0  0  0
 12 13  1  0  0  0  0
 12 38  1  0  0  0  0
 13 18  1  0  0  0  0
 13 14  2  0  0  0  0
 14 15  1  0  0  0  0
 14 39  1  0  0  0  0
 15 16  2  0  0  0  0
 15 40  1  0  0  0  0
 16 17  1  0  0  0  0
 16 41  1  0  0  0  0
 17 18  2  0  0  0  0
 18 45  1  0  0  0  0
 19 42  1  0  0  0  0
 19 43  1  0  0  0  0
M  CHG  1   6   1
M  CHG  1  18   1
M  END
> <s_m_source_file>
AV-unprocessed.smi

> <i_m_source_file_index>
861

> <i_lp_mmshare_version>
43012

> <i_f3d_flags>
0

> <s_epik_input>
W0NIM11bQ0hdKFtDSDNdKVtDSDJdW0NIMl1OMVtDSDJdW0NIMl1PW0NASF0oW0NIMl0xKVtDSDJdW05IXWMyW2NIXVtjSF1bY0hdbm4y

> <s_epik_cmdline>
J2VwaWtfcHl0aG9uJywgJy1waCcsICc3LjAnLCAnLXRuJywgJzgnLCAnLW1hJywgJzIwMCcsICctbWV0YWxfYmluZGluZycsICctaW1hZScsICc8aW5maWxlLm1hZT4nLCAnLW9tYWUnLCAnPG91dGZpbGUubWFlPic=

> <r_lp_tautomer_probability>
0.966961

> <r_epik_Ionization_Penalty>
2.478

> <r_epik_Ionization_Penalty_Charging>
2.47799

> <r_epik_Ionization_Penalty_Neutral>
3.15286e-06

> <r_epik_State_Penalty>
2.10794

> <r_epik_Charging_Adjusted_Penalty>
4.58594

> <i_epik_Tot_Q>
2

> <i_epik_Tot_abs_Q>
2

> <r_epik_Metal_State_Penalty>
2.11378

> <b_epik_Metal_Only>
0

> <s_lp_Force_Field>
OPLS_2005

> <r_lp_Energy>
34.6119

> <b_lp_Chiralities_Consistent>
1

> <s_lp_Variant>
AV-unprocessed.smi:861-7

> <Gold.Version>
5.8.1

> <Gold.Id.Protein>
6NUR|6NUR_protein|mol2

> <Gold.PLP.Fitness>
46.6550

> <Gold.PLP.PLP>
-35.7372

> <Gold.PLP.part.hbond>
-3.9729

> <Gold.PLP.part.metal>
0.0000

> <Gold.PLP.part.buried>
-2.6499

> <Gold.PLP.part.nonpolar>
-30.6451

> <Gold.PLP.part.repulsive>
0.7529

> <Gold.PLP.ligand.clash>
0.0000

> <Gold.PLP.ligand.torsion>
1.2583

> <Gold.PLP.Chemscore.Hbond>
4.4640

> <Gold.PLP.Chemscore.CHOScore>
0.0000

> <Gold.PLP.Chemscore.Metal>
0.0000

> <Gold.Chemscore.Hbonds>
donor molecule, donor type, donor heavy atom, donor atom, acceptor molecule, acceptor atom, score
      L1  H    12    38       P1  7948  1.50
      L1  H    18    45       P1  7948  0.64

> <Gold.PLP.Chemscore.Internal.Correction>
0.0424

> <Gold.Rescore>
     Score         DG    S(hbond)    S(metal)    S(lipo)     H(rot)  DE(clash)    DE(int)     intcor
     16.75     -19.55       2.16        0.00      97.34       1.78       1.51       1.28       ----

> <Gold.Chemscore.Fitness>
16.7544

> <Gold.Chemscore.DG>
-19.5454

> <Gold.Chemscore.ZeroCoef>
-5.4800

> <Gold.Chemscore.Hbond>
2.1627

> <Gold.Chemscore.Metal>
0.0000

> <Gold.Chemscore.Lipo>
97.3352

> <Gold.Chemscore.Internal_Hbond>
0.0000

> <Gold.Chemscore.DEClash>
1.5106

> <Gold.Chemscore.DEInternal>
1.2804

> <Gold.Chemscore.Rot>
1.7759

> <Gold.Chemscore.Internal.Correction>
   9.000000E+99

> <Gold.Chemscore.Hbonds>
donor molecule, donor type, donor heavy atom, donor atom, acceptor molecule, acceptor atom, score
      L1  H    12    38       P1  7948  0.09
      L1  H    18    45       P1  7948  0.01

> <Gold.Chemscore.Hbond.Weighted>
-7.2234

> <Gold.Chemscore.Metal.Weighted>
-0.0000

> <Gold.Chemscore.Lipo.Weighted>
-11.3882

> <Gold.Chemscore.Internal_Hbond.Weighted>
0.0000

> <Gold.Chemscore.DEClash.Weighted>
1.5106

> <Gold.Chemscore.DEInternal.Weighted>
1.2804

> <Gold.Chemscore.Rot.Weighted>
4.5462

> <Gold.Chemscore.Internal.Correction.Weighted>
   9.000000E+99

> <Gold.Protein.RotatedTorsions>
[ 6907 6896 6895 6894 ] final  -44.45 input  -60.11 | X-H torsion
[ 7974 7965 7964 7962 ] final   88.58 input  175.53 | X-H torsion
[ 8008 7997 7996 7995 ] final  -22.87 input   59.86 | X-H torsion
[ 10167 10162 10161 10158 ] final   -1.63 input  -65.29 | X-H torsion
[ 10718 10713 10712 10709 ] final  116.18 input   66.30 | X-H torsion
[ 10763 10752 10751 10750 ] final  168.40 input  -60.55 | X-H torsion
[ 11005 11000 10999 10996 ] final   -2.24 input  -57.11 | X-H torsion

> <Gold.Protein.ActiveResidues>
 VAL166  LYS551  ARG553  GLY616  TRP617  ASP618  TYR619  PRO620  LYS621  CYS622 
 ASP623  PHE694  ASN695  SER759  ASP760  ASP761  ALA762  ILE779  LEU786  VAL792 
 PHE793  MET794  SER795  GLU796  ALA797  LYS798  CYS799  TRP800  GLU811  SER814 

> <Gold.Protein.RotatedAtoms>
  150.9326  134.8741  159.7561 H   0  0  0  0  0  0  0  0  0  0  0  0  # atno 6907 bound_to 6896
  152.5045  134.4056  159.9441 H   0  0  0  0  0  0  0  0  0  0  0  0  # atno 6908 bound_to 6896
  151.4082  133.3696  159.2775 H   0  0  0  0  0  0  0  0  0  0  0  0  # atno 6909 bound_to 6896
  145.5438  139.2290  143.2551 H   0  0  0  0  0  0  0  0  0  0  0  0  # atno 7974 bound_to 7965
  154.4618  140.1996  156.0224 H   0  0  0  0  0  0  0  0  0  0  0  0  # atno 8008 bound_to 7997
  156.0854  140.3265  155.7718 H   0  0  0  0  0  0  0  0  0  0  0  0  # atno 8009 bound_to 7997
  155.5043  140.0556  157.2925 H   0  0  0  0  0  0  0  0  0  0  0  0  # atno 8010 bound_to 7997
  140.6818  143.6752  150.8151 H   0  0  0  0  0  0  0  0  0  0  0  0  # atno 10167 bound_to 10162
  157.6176  131.1022  150.7436 H   0  0  0  0  0  0  0  0  0  0  0  0  # atno 10718 bound_to 10713
  154.3680  135.2753  155.2282 H   0  0  0  0  0  0  0  0  0  0  0  0  # atno 10763 bound_to 10752
  154.4442  135.5947  153.6152 H   0  0  0  0  0  0  0  0  0  0  0  0  # atno 10764 bound_to 10752
  152.9840  135.6026  154.3908 H   0  0  0  0  0  0  0  0  0  0  0  0  # atno 10765 bound_to 10752
  140.6562  133.9360  155.8409 H   0  0  0  0  0  0  0  0  0  0  0  0  # atno 11005 bound_to 11000
  146.1963  140.6259  142.9122 LP  0  0  0  0  0  0  0  0  0  0  0  0  # atno 17320 bound_to 7965
  144.7563  140.5316  143.6766 LP  0  0  0  0  0  0  0  0  0  0  0  0  # atno 17321 bound_to 7965
  140.0454  143.5304  152.2699 LP  0  0  0  0  0  0  0  0  0  0  0  0  # atno 17342 bound_to 10162
  139.6146  144.7616  151.2875 LP  0  0  0  0  0  0  0  0  0  0  0  0  # atno 17343 bound_to 10162
  156.7800  130.4856  149.5403 LP  0  0  0  0  0  0  0  0  0  0  0  0  # atno 17370 bound_to 10713
  156.1306  130.6175  151.0327 LP  0  0  0  0  0  0  0  0  0  0  0  0  # atno 17371 bound_to 10713
  141.0500  134.0499  157.3796 LP  0  0  0  0  0  0  0  0  0  0  0  0  # atno 17394 bound_to 11000
  139.9028  135.0170  156.7351 LP  0  0  0  0  0  0  0  0  0  0  0  0  # atno 17395 bound_to 11000

$$$$
