AV-unprocessed.smi:1441|AV-procd|sdf|5875|dock3
  -GOLD-   22720 5553D 1   1.00000     0.00000
 Structure written by MMmdl.
 45 46  0  0  0  0  0  0  0  0  1 V2000
  152.2335  144.7768  157.4372 C   0  0  0  0  0  0  0  0  0  0  0  0
  152.3348  143.9044  158.6536 C   0  0  0  0  0  0  0  0  0  0  0  0
  152.3358  144.2967  160.0212 C   0  0  0  0  0  0  0  0  0  0  0  0
  152.4473  143.1216  160.7094 C   0  0  0  0  0  0  0  0  0  0  0  0
  152.4996  142.8677  162.1801 C   0  0  0  0  0  0  0  0  0  0  0  0
  152.5074  142.1093  159.7678 N   0  0  0  0  0  0  0  0  0  0  0  0
  152.6204  140.6717  159.9690 C   0  0  0  0  0  0  0  0  0  0  0  0
  154.0258  140.2539  160.4175 C   0  0  0  0  0  0  0  0  0  0  0  0
  154.9817  140.3214  159.6432 O   0  0  0  0  0  0  0  0  0  0  0  0
  154.1354  139.8157  161.6808 N   0  0  0  0  0  0  0  0  0  0  0  0
  155.3780  139.3862  162.3104 C   0  0  0  0  0  0  0  0  0  0  0  0
  155.1063  138.6101  163.6125 C   0  0  0  0  0  0  0  0  0  0  0  0
  154.6678  137.2337  163.3362 N   0  0  0  0  0  0  0  0  0  0  0  0
  153.4769  136.7812  164.0724 C   0  0  0  0  0  0  0  0  0  0  0  0
  153.7825  135.6274  165.0470 C   0  0  0  0  0  0  0  0  0  0  0  0
  153.8367  134.2446  164.3806 C   0  0  0  0  0  0  0  0  0  0  0  0
  154.9572  134.0850  163.3432 C   0  0  0  0  0  0  0  0  0  0  0  0
  154.8198  135.0446  162.1495 C   0  0  0  0  0  0  0  0  0  0  0  0
  155.3431  136.4534  162.4583 C   0  0  0  0  0  0  0  0  0  0  0  0
  156.3606  136.8346  161.8782 O   0  0  0  0  0  0  0  0  0  0  0  0
  152.4396  142.5939  158.5084 N   0  0  0  0  0  0  0  0  0  0  0  0
  152.1692  145.8298  157.7120 H   0  0  0  0  0  0  0  0  0  0  0  0
  151.3471  144.5323  156.8515 H   0  0  0  0  0  0  0  0  0  0  0  0
  153.1046  144.6546  156.7931 H   0  0  0  0  0  0  0  0  0  0  0  0
  152.2633  145.2918  160.4347 H   0  0  0  0  0  0  0  0  0  0  0  0
  152.3503  143.7911  162.7398 H   0  0  0  0  0  0  0  0  0  0  0  0
  153.4656  142.4529  162.4678 H   0  0  0  0  0  0  0  0  0  0  0  0
  151.7234  142.1643  162.4822 H   0  0  0  0  0  0  0  0  0  0  0  0
  151.8813  140.3610  160.7099 H   0  0  0  0  0  0  0  0  0  0  0  0
  152.3708  140.1591  159.0398 H   0  0  0  0  0  0  0  0  0  0  0  0
  153.3018  139.7900  162.2500 H   0  0  0  0  0  0  0  0  0  0  0  0
  155.9175  138.7593  161.6004 H   0  0  0  0  0  0  0  0  0  0  0  0
  156.0166  140.2497  162.5059 H   0  0  0  0  0  0  0  0  0  0  0  0
  155.9978  138.6120  164.2405 H   0  0  0  0  0  0  0  0  0  0  0  0
  154.3530  139.1337  164.2041 H   0  0  0  0  0  0  0  0  0  0  0  0
  153.0583  137.6015  164.6561 H   0  0  0  0  0  0  0  0  0  0  0  0
  152.6877  136.5003  163.3738 H   0  0  0  0  0  0  0  0  0  0  0  0
  154.7076  135.8254  165.5899 H   0  0  0  0  0  0  0  0  0  0  0  0
  152.9963  135.6013  165.8022 H   0  0  0  0  0  0  0  0  0  0  0  0
  153.9665  133.4875  165.1545 H   0  0  0  0  0  0  0  0  0  0  0  0
  152.8751  134.0297  163.9129 H   0  0  0  0  0  0  0  0  0  0  0  0
  155.9297  134.2102  163.8225 H   0  0  0  0  0  0  0  0  0  0  0  0
  154.9404  133.0600  162.9715 H   0  0  0  0  0  0  0  0  0  0  0  0
  155.4015  134.6476  161.3164 H   0  0  0  0  0  0  0  0  0  0  0  0
  153.7896  135.0900  161.7947 H   0  0  0  0  0  0  0  0  0  0  0  0
  1  2  1  0  0  0  0
  1 22  1  0  0  0  0
  1 23  1  0  0  0  0
  1 24  1  0  0  0  0
  2 21  2  0  0  0  0
  2  3  1  0  0  0  0
  3  4  2  0  0  0  0
  3 25  1  0  0  0  0
  4  5  1  0  0  0  0
  4  6  1  0  0  0  0
  5 26  1  0  0  0  0
  5 27  1  0  0  0  0
  5 28  1  0  0  0  0
  6  7  1  0  0  0  0
  6 21  1  0  0  0  0
  7  8  1  0  0  0  0
  7 29  1  0  0  0  0
  7 30  1  0  0  0  0
  8  9  2  0  0  0  0
  8 10  1  0  0  0  0
 10 11  1  0  0  0  0
 10 31  1  0  0  0  0
 11 12  1  0  0  0  0
 11 32  1  0  0  0  0
 11 33  1  0  0  0  0
 12 13  1  0  0  0  0
 12 34  1  0  0  0  0
 12 35  1  0  0  0  0
 13 19  1  0  0  0  0
 13 14  1  0  0  0  0
 14 15  1  0  0  0  0
 14 36  1  0  0  0  0
 14 37  1  0  0  0  0
 15 16  1  0  0  0  0
 15 38  1  0  0  0  0
 15 39  1  0  0  0  0
 16 17  1  0  0  0  0
 16 40  1  0  0  0  0
 16 41  1  0  0  0  0
 17 18  1  0  0  0  0
 17 42  1  0  0  0  0
 17 43  1  0  0  0  0
 18 19  1  0  0  0  0
 18 44  1  0  0  0  0
 18 45  1  0  0  0  0
 19 20  2  0  0  0  0
M  END
> <s_m_source_file>
AV-unprocessed.smi

> <i_m_source_file_index>
1441

> <i_lp_mmshare_version>
43012

> <i_f3d_flags>
0

> <s_epik_input>
W0NIM11jMVtjSF1jKFtDSDNdKW4objEpW0NIMl1DKD1PKVtOSF1bQ0gyXVtDSDJdTjJbQ0gyXVtDSDJdW0NIMl1bQ0gyXVtDSDJdQzI9Tw==

> <s_epik_cmdline>
J2VwaWtfcHl0aG9uJywgJy1waCcsICc3LjAnLCAnLXRuJywgJzgnLCAnLW1hJywgJzIwMCcsICctbWV0YWxfYmluZGluZycsICctaW1hZScsICc8aW5maWxlLm1hZT4nLCAnLW9tYWUnLCAnPG91dGZpbGUubWFlPic=

> <r_lp_tautomer_probability>
1

> <r_epik_Ionization_Penalty>
0.000341945

> <r_epik_Ionization_Penalty_Charging>
0

> <r_epik_Ionization_Penalty_Neutral>
0.000341945

> <r_epik_State_Penalty>
-0

> <r_epik_Charging_Adjusted_Penalty>
0

> <i_epik_Tot_Q>
0

> <i_epik_Tot_abs_Q>
0

> <r_epik_Metal_State_Penalty>
-0

> <b_epik_Metal_Only>
0

> <s_lp_Force_Field>
OPLS_2005

> <r_lp_Energy>
16.3244

> <b_lp_Chiralities_Consistent>
1

> <s_lp_Variant>
AV-unprocessed.smi:1441-1

> <Gold.Version>
5.8.1

> <Gold.Id.Protein>
6NUR|6NUR_protein|mol2

> <Gold.PLP.Fitness>
45.8356

> <Gold.PLP.PLP>
-44.1447

> <Gold.PLP.part.hbond>
-1.0000

> <Gold.PLP.part.metal>
0.0000

> <Gold.PLP.part.buried>
-1.3849

> <Gold.PLP.part.nonpolar>
-41.4993

> <Gold.PLP.part.repulsive>
0.0052

> <Gold.PLP.ligand.clash>
0.0000

> <Gold.PLP.ligand.torsion>
0.5359

> <Gold.PLP.Chemscore.Hbond>
0.9120

> <Gold.PLP.Chemscore.CHOScore>
0.0000

> <Gold.PLP.Chemscore.Metal>
0.0000

> <Gold.Chemscore.Hbonds>
donor molecule, donor type, donor heavy atom, donor atom, acceptor molecule, acceptor atom, score
      P1  H  7997  8009       L1     9  0.27

> <Gold.PLP.Chemscore.Internal.Correction>
0.0266

> <Gold.Rescore>
     Score         DG    S(hbond)    S(metal)    S(lipo)     H(rot)  DE(clash)    DE(int)     intcor
     15.74     -17.69       0.98        0.00     115.32       1.77       0.08       1.87       ----

> <Gold.Chemscore.Fitness>
15.7410

> <Gold.Chemscore.DG>
-17.6934

> <Gold.Chemscore.ZeroCoef>
-5.4800

> <Gold.Chemscore.Hbond>
0.9750

> <Gold.Chemscore.Metal>
0.0000

> <Gold.Chemscore.Lipo>
115.3159

> <Gold.Chemscore.Internal_Hbond>
0.0000

> <Gold.Chemscore.DEClash>
0.0795

> <Gold.Chemscore.DEInternal>
1.8730

> <Gold.Chemscore.Rot>
1.7715

> <Gold.Chemscore.Internal.Correction>
   9.000000E+99

> <Gold.Chemscore.Hbonds>
donor molecule, donor type, donor heavy atom, donor atom, acceptor molecule, acceptor atom, score
      P1  H  7997  8009       L1     9  0.27

> <Gold.Chemscore.Hbond.Weighted>
-3.2565

> <Gold.Chemscore.Metal.Weighted>
-0.0000

> <Gold.Chemscore.Lipo.Weighted>
-13.4920

> <Gold.Chemscore.Internal_Hbond.Weighted>
0.0000

> <Gold.Chemscore.DEClash.Weighted>
0.0795

> <Gold.Chemscore.DEInternal.Weighted>
1.8730

> <Gold.Chemscore.Rot.Weighted>
4.5351

> <Gold.Chemscore.Internal.Correction.Weighted>
   9.000000E+99

> <Gold.Protein.RotatedTorsions>
[ 6907 6896 6895 6894 ] final   21.93 input  -60.11 | X-H torsion
[ 7974 7965 7964 7962 ] final  -90.18 input  175.53 | X-H torsion
[ 8008 7997 7996 7995 ] final  116.12 input   59.86 | X-H torsion
[ 10167 10162 10161 10158 ] final  -33.72 input  -65.29 | X-H torsion
[ 10718 10713 10712 10709 ] final  -30.11 input   66.30 | X-H torsion
[ 10763 10752 10751 10750 ] final -114.64 input  -60.55 | X-H torsion
[ 11005 11000 10999 10996 ] final -113.04 input  -57.11 | X-H torsion

> <Gold.Protein.ActiveResidues>
 VAL166  LYS551  ARG553  GLY616  TRP617  ASP618  TYR619  PRO620  LYS621  CYS622 
 ASP623  PHE694  ASN695  SER759  ASP760  ASP761  ALA762  ILE779  LEU786  VAL792 
 PHE793  MET794  SER795  GLU796  ALA797  LYS798  CYS799  TRP800  GLU811  SER814 

> <Gold.Protein.RotatedAtoms>
  151.9194  135.0305  160.0520 H   0  0  0  0  0  0  0  0  0  0  0  0  # atno 6907 bound_to 6896
  152.2212  133.4980  159.5172 H   0  0  0  0  0  0  0  0  0  0  0  0  # atno 6908 bound_to 6896
  150.7000  134.1256  159.4093 H   0  0  0  0  0  0  0  0  0  0  0  0  # atno 6909 bound_to 6896
  145.4299  140.9555  143.2134 H   0  0  0  0  0  0  0  0  0  0  0  0  # atno 7974 bound_to 7965
  156.2421  140.2924  156.0474 H   0  0  0  0  0  0  0  0  0  0  0  0  # atno 8008 bound_to 7997
  155.1919  140.0407  157.2919 H   0  0  0  0  0  0  0  0  0  0  0  0  # atno 8009 bound_to 7997
  154.6189  140.2470  155.7582 H   0  0  0  0  0  0  0  0  0  0  0  0  # atno 8010 bound_to 7997
  140.7199  143.3600  151.1982 H   0  0  0  0  0  0  0  0  0  0  0  0  # atno 10167 bound_to 10162
  156.4040  130.4395  149.7301 H   0  0  0  0  0  0  0  0  0  0  0  0  # atno 10718 bound_to 10713
  154.8448  135.4410  154.1537 H   0  0  0  0  0  0  0  0  0  0  0  0  # atno 10763 bound_to 10752
  153.2691  135.6943  153.7505 H   0  0  0  0  0  0  0  0  0  0  0  0  # atno 10764 bound_to 10752
  153.6752  135.3412  155.3139 H   0  0  0  0  0  0  0  0  0  0  0  0  # atno 10765 bound_to 10752
  141.0639  133.9491  157.2616 H   0  0  0  0  0  0  0  0  0  0  0  0  # atno 11005 bound_to 11000
  144.8190  139.5826  143.6995 LP  0  0  0  0  0  0  0  0  0  0  0  0  # atno 17320 bound_to 7965
  146.2612  139.6416  142.9360 LP  0  0  0  0  0  0  0  0  0  0  0  0  # atno 17321 bound_to 7965
  139.7150  143.9315  152.2963 LP  0  0  0  0  0  0  0  0  0  0  0  0  # atno 17342 bound_to 10162
  139.9053  144.6888  150.8621 LP  0  0  0  0  0  0  0  0  0  0  0  0  # atno 17343 bound_to 10162
  156.4306  130.7813  151.2833 LP  0  0  0  0  0  0  0  0  0  0  0  0  # atno 17370 bound_to 10713
  157.7505  131.0155  150.3507 LP  0  0  0  0  0  0  0  0  0  0  0  0  # atno 17371 bound_to 10713
  139.9458  135.0184  156.8847 LP  0  0  0  0  0  0  0  0  0  0  0  0  # atno 17394 bound_to 11000
  140.5813  134.0349  155.7465 LP  0  0  0  0  0  0  0  0  0  0  0  0  # atno 17395 bound_to 11000

$$$$
