AV-unprocessed.smi:671|AV-procd|sdf|3278|dock1
  -GOLD-   22720 0233D 1   1.00000     0.00000
 Structure written by MMmdl.
 49 50  0  0  0  0  0  0  0  0  1 V2000
  147.8863  138.6360  156.7917 C   0  0  0  0  0  0  0  0  0  0  0  0
  147.4651  138.7797  155.3570 C   0  0  0  0  0  0  0  0  0  0  0  0
  146.7634  137.8071  154.8001 N   0  0  0  0  0  0  0  0  0  0  0  0
  146.5453  138.2182  153.5357 N   0  0  0  0  0  0  0  0  0  0  0  0
  145.7902  137.3705  152.6335 C   0  0  0  0  0  0  0  0  0  0  0  0
  147.1117  139.4537  153.2914 C   0  0  0  0  0  0  0  0  0  0  0  0
  147.0089  140.1244  151.9591 C   0  0  0  0  0  0  0  0  0  0  0  0
  147.7227  139.8519  154.4504 C   0  0  0  0  0  0  0  0  0  0  0  0
  148.4875  141.1269  154.7080 C   0  0  0  0  0  0  0  0  0  0  0  0
  149.4997  140.9885  155.8625 C   0  0  1  0  0  0  0  0  0  0  0  0
  150.7079  140.1355  155.4522 C   0  0  0  0  0  0  0  0  0  0  0  0
  149.9734  142.3095  156.2896 N   0  0  0  0  0  0  0  0  0  0  0  0
  150.8445  142.6363  157.2615 C   0  0  0  0  0  0  0  0  0  0  0  0
  151.3898  141.7771  157.9514 O   0  0  0  0  0  0  0  0  0  0  0  0
  151.0722  143.9518  157.4065 N   0  0  0  0  0  0  0  0  0  0  0  0
  151.9544  144.5467  158.4105 C   0  0  2  0  0  0  0  0  0  0  0  0
  153.2486  143.7179  158.5669 C   0  0  0  0  0  0  0  0  0  0  0  0
  153.2836  143.2214  160.0171 C   0  0  0  0  0  0  0  0  0  0  0  0
  151.8427  143.3249  160.5102 C   0  0  0  0  0  0  0  0  0  0  0  0
  151.3084  144.5762  159.8127 C   0  0  2  0  0  0  0  0  0  0  0  0
  149.7786  144.7119  159.8600 C   0  0  0  0  0  0  0  0  0  0  0  0
  148.7107  137.9290  156.8858 H   0  0  0  0  0  0  0  0  0  0  0  0
  147.0646  138.2737  157.4104 H   0  0  0  0  0  0  0  0  0  0  0  0
  148.2172  139.5861  157.2105 H   0  0  0  0  0  0  0  0  0  0  0  0
  146.3148  137.2842  151.6817 H   0  0  0  0  0  0  0  0  0  0  0  0
  144.8062  137.8068  152.4608 H   0  0  0  0  0  0  0  0  0  0  0  0
  145.6682  136.3722  153.0559 H   0  0  0  0  0  0  0  0  0  0  0  0
  147.5033  141.0954  151.9631 H   0  0  0  0  0  0  0  0  0  0  0  0
  145.9656  140.2813  151.6846 H   0  0  0  0  0  0  0  0  0  0  0  0
  147.4749  139.5187  151.1820 H   0  0  0  0  0  0  0  0  0  0  0  0
  149.0201  141.4267  153.8052 H   0  0  0  0  0  0  0  0  0  0  0  0
  147.8083  141.9541  154.9164 H   0  0  0  0  0  0  0  0  0  0  0  0
  149.0089  140.4555  156.6777 H   0  0  0  0  0  0  0  0  0  0  0  0
  150.3981  139.1339  155.1523 H   0  0  0  0  0  0  0  0  0  0  0  0
  151.4103  140.0267  156.2794 H   0  0  0  0  0  0  0  0  0  0  0  0
  151.2453  140.5824  154.6149 H   0  0  0  0  0  0  0  0  0  0  0  0
  149.6164  143.0838  155.7488 H   0  0  0  0  0  0  0  0  0  0  0  0
  150.5921  144.5882  156.7872 H   0  0  0  0  0  0  0  0  0  0  0  0
  152.1905  145.5696  158.1104 H   0  0  0  0  0  0  0  0  0  0  0  0
  153.2586  142.8661  157.8851 H   0  0  0  0  0  0  0  0  0  0  0  0
  154.1326  144.3143  158.3389 H   0  0  0  0  0  0  0  0  0  0  0  0
  153.6825  142.2103  160.1034 H   0  0  0  0  0  0  0  0  0  0  0  0
  153.9195  143.8784  160.6122 H   0  0  0  0  0  0  0  0  0  0  0  0
  151.2792  142.4465  160.1918 H   0  0  0  0  0  0  0  0  0  0  0  0
  151.7771  143.3892  161.5969 H   0  0  0  0  0  0  0  0  0  0  0  0
  151.7269  145.4369  160.3373 H   0  0  0  0  0  0  0  0  0  0  0  0
  149.2836  143.8483  159.4166 H   0  0  0  0  0  0  0  0  0  0  0  0
  149.4526  145.6025  159.3227 H   0  0  0  0  0  0  0  0  0  0  0  0
  149.4263  144.7986  160.8879 H   0  0  0  0  0  0  0  0  0  0  0  0
  1  2  1  0  0  0  0
  1 22  1  0  0  0  0
  1 23  1  0  0  0  0
  1 24  1  0  0  0  0
  2  8  1  0  0  0  0
  2  3  2  0  0  0  0
  3  4  1  0  0  0  0
  4  5  1  0  0  0  0
  4  6  1  0  0  0  0
  5 25  1  0  0  0  0
  5 26  1  0  0  0  0
  5 27  1  0  0  0  0
  6  7  1  0  0  0  0
  6  8  2  0  0  0  0
  7 28  1  0  0  0  0
  7 29  1  0  0  0  0
  7 30  1  0  0  0  0
  8  9  1  0  0  0  0
  9 10  1  0  0  0  0
  9 31  1  0  0  0  0
  9 32  1  0  0  0  0
 10 11  1  0  0  0  0
 10 12  1  0  0  0  0
 10 33  1  0  0  0  0
 11 34  1  0  0  0  0
 11 35  1  0  0  0  0
 11 36  1  0  0  0  0
 12 13  1  0  0  0  0
 12 37  1  0  0  0  0
 13 14  2  0  0  0  0
 13 15  1  0  0  0  0
 15 16  1  0  0  0  0
 15 38  1  0  0  0  0
 16 20  1  0  0  0  0
 16 17  1  0  0  0  0
 16 39  1  0  0  0  0
 17 18  1  0  0  0  0
 17 40  1  0  0  0  0
 17 41  1  0  0  0  0
 18 19  1  0  0  0  0
 18 42  1  0  0  0  0
 18 43  1  0  0  0  0
 19 20  1  0  0  0  0
 19 44  1  0  0  0  0
 19 45  1  0  0  0  0
 20 21  1  0  0  0  0
 20 46  1  0  0  0  0
 21 47  1  0  0  0  0
 21 48  1  0  0  0  0
 21 49  1  0  0  0  0
M  END
> <s_m_source_file>
AV-unprocessed.smi

> <i_m_source_file_index>
671

> <i_lp_mmshare_version>
43012

> <i_f3d_flags>
0

> <s_epik_input>
W0NIM11jMW5uKFtDSDNdKWMoW0NIM10pYzFbQ0gyXVtDQEhdKFtDSDNdKVtOSF1DKD1PKVtOSF1bQ0BASF0yW0NIMl1bQ0gyXVtDSDJdW0NASF0yW0NIM10=

> <s_epik_cmdline>
J2VwaWtfcHl0aG9uJywgJy1waCcsICc3LjAnLCAnLXRuJywgJzgnLCAnLW1hJywgJzIwMCcsICctbWV0YWxfYmluZGluZycsICctaW1hZScsICc8aW5maWxlLm1hZT4nLCAnLW9tYWUnLCAnPG91dGZpbGUubWFlPic=

> <r_lp_tautomer_probability>
1

> <r_epik_Ionization_Penalty>
0.0126855

> <r_epik_Ionization_Penalty_Charging>
0

> <r_epik_Ionization_Penalty_Neutral>
0.0126855

> <r_epik_State_Penalty>
0.00977547

> <r_epik_Charging_Adjusted_Penalty>
0.00977547

> <i_epik_Tot_Q>
0

> <i_epik_Tot_abs_Q>
0

> <r_epik_Metal_State_Penalty>
0.00957132

> <b_epik_Metal_Only>
0

> <s_lp_Force_Field>
OPLS_2005

> <r_lp_Energy>
22.0359

> <b_lp_Chiralities_Consistent>
1

> <s_lp_Variant>
AV-unprocessed.smi:671-6

> <Gold.Version>
5.8.1

> <Gold.Id.Protein>
6NUR|6NUR_protein|mol2

> <Gold.PLP.Fitness>
42.3285

> <Gold.PLP.PLP>
-38.1462

> <Gold.PLP.part.hbond>
-2.0000

> <Gold.PLP.part.metal>
0.0000

> <Gold.PLP.part.buried>
-2.3874

> <Gold.PLP.part.nonpolar>
-34.4309

> <Gold.PLP.part.repulsive>
0.2035

> <Gold.PLP.ligand.clash>
0.0000

> <Gold.PLP.ligand.torsion>
0.6752

> <Gold.PLP.Chemscore.Hbond>
1.8320

> <Gold.PLP.Chemscore.CHOScore>
0.0000

> <Gold.PLP.Chemscore.Metal>
0.0000

> <Gold.Chemscore.Hbonds>
donor molecule, donor type, donor heavy atom, donor atom, acceptor molecule, acceptor atom, score
      L1  H    12    37       P1  8028  1.00
      L1  H    15    38       P1  8028  0.85

> <Gold.PLP.Chemscore.Internal.Correction>
0.0367

> <Gold.Rescore>
     Score         DG    S(hbond)    S(metal)    S(lipo)     H(rot)  DE(clash)    DE(int)     intcor
     16.80     -20.52       1.83        0.00     107.94       1.45       0.29       3.43       ----

> <Gold.Chemscore.Fitness>
16.7961

> <Gold.Chemscore.DG>
-20.5160

> <Gold.Chemscore.ZeroCoef>
-5.4800

> <Gold.Chemscore.Hbond>
1.8319

> <Gold.Chemscore.Metal>
0.0000

> <Gold.Chemscore.Lipo>
107.9425

> <Gold.Chemscore.Internal_Hbond>
0.0000

> <Gold.Chemscore.DEClash>
0.2851

> <Gold.Chemscore.DEInternal>
3.4348

> <Gold.Chemscore.Rot>
1.4499

> <Gold.Chemscore.Internal.Correction>
   9.000000E+99

> <Gold.Chemscore.Hbonds>
donor molecule, donor type, donor heavy atom, donor atom, acceptor molecule, acceptor atom, score
      L1  H    12    37       P1  8028  0.95
      L1  H    15    38       P1  8028  0.72

> <Gold.Chemscore.Hbond.Weighted>
-6.1186

> <Gold.Chemscore.Metal.Weighted>
-0.0000

> <Gold.Chemscore.Lipo.Weighted>
-12.6293

> <Gold.Chemscore.Internal_Hbond.Weighted>
0.0000

> <Gold.Chemscore.DEClash.Weighted>
0.2851

> <Gold.Chemscore.DEInternal.Weighted>
3.4348

> <Gold.Chemscore.Rot.Weighted>
3.7118

> <Gold.Chemscore.Internal.Correction.Weighted>
   9.000000E+99

> <Gold.Protein.RotatedTorsions>
[ 6907 6896 6895 6894 ] final   95.70 input  -60.11 | X-H torsion
[ 7974 7965 7964 7962 ] final   53.58 input  175.53 | X-H torsion
[ 8008 7997 7996 7995 ] final   39.02 input   59.86 | X-H torsion
[ 10167 10162 10161 10158 ] final  167.30 input  -65.29 | X-H torsion
[ 10718 10713 10712 10709 ] final   33.52 input   66.30 | X-H torsion
[ 10763 10752 10751 10750 ] final  -21.28 input  -60.55 | X-H torsion
[ 11005 11000 10999 10996 ] final -171.71 input  -57.11 | X-H torsion

> <Gold.Protein.ActiveResidues>
 VAL166  LYS551  ARG553  GLY616  TRP617  ASP618  TYR619  PRO620  LYS621  CYS622 
 ASP623  PHE694  ASN695  SER759  ASP760  ASP761  ALA762  ILE779  LEU786  VAL792 
 PHE793  MET794  SER795  GLU796  ALA797  LYS798  CYS799  TRP800  GLU811  SER814 

> <Gold.Protein.RotatedAtoms>
  152.5441  134.0999  159.8313 H   0  0  0  0  0  0  0  0  0  0  0  0  # atno 6907 bound_to 6896
  151.1078  133.5188  159.2614 H   0  0  0  0  0  0  0  0  0  0  0  0  # atno 6908 bound_to 6896
  151.1918  135.0415  159.8890 H   0  0  0  0  0  0  0  0  0  0  0  0  # atno 6909 bound_to 6896
  145.9697  139.4137  143.0198 H   0  0  0  0  0  0  0  0  0  0  0  0  # atno 7974 bound_to 7965
  155.2298  140.3337  155.4305 H   0  0  0  0  0  0  0  0  0  0  0  0  # atno 8008 bound_to 7997
  156.2300  140.1846  156.7314 H   0  0  0  0  0  0  0  0  0  0  0  0  # atno 8009 bound_to 7997
  154.5961  140.0630  156.9291 H   0  0  0  0  0  0  0  0  0  0  0  0  # atno 8010 bound_to 7997
  139.4942  144.3936  151.9489 H   0  0  0  0  0  0  0  0  0  0  0  0  # atno 10167 bound_to 10162
  157.2989  130.7340  149.6655 H   0  0  0  0  0  0  0  0  0  0  0  0  # atno 10718 bound_to 10713
  153.6337  135.6988  153.5266 H   0  0  0  0  0  0  0  0  0  0  0  0  # atno 10763 bound_to 10752
  153.2839  135.4177  155.1103 H   0  0  0  0  0  0  0  0  0  0  0  0  # atno 10764 bound_to 10752
  154.8516  135.3608  154.5880 H   0  0  0  0  0  0  0  0  0  0  0  0  # atno 10765 bound_to 10752
  140.5052  134.5855  157.5001 H   0  0  0  0  0  0  0  0  0  0  0  0  # atno 11005 bound_to 11000
  145.7923  140.9808  143.1042 LP  0  0  0  0  0  0  0  0  0  0  0  0  # atno 17320 bound_to 7965
  144.6834  139.9698  143.7482 LP  0  0  0  0  0  0  0  0  0  0  0  0  # atno 17321 bound_to 7965
  140.3374  144.3244  150.5974 LP  0  0  0  0  0  0  0  0  0  0  0  0  # atno 17342 bound_to 10162
  140.5594  143.2194  151.7790 LP  0  0  0  0  0  0  0  0  0  0  0  0  # atno 17343 bound_to 10162
  155.9670  130.4286  150.4795 LP  0  0  0  0  0  0  0  0  0  0  0  0  # atno 17370 bound_to 10713
  157.2772  131.0599  151.2221 LP  0  0  0  0  0  0  0  0  0  0  0  0  # atno 17371 bound_to 10713
  139.9690  134.7324  156.0079 LP  0  0  0  0  0  0  0  0  0  0  0  0  # atno 17394 bound_to 11000
  141.1415  133.6564  156.3742 LP  0  0  0  0  0  0  0  0  0  0  0  0  # atno 17395 bound_to 11000

$$$$
