AV-unprocessed.smi:2100|AV-procd|sdf|8574|dock9
  -GOLD-   2272011303D 1   1.00000     0.00000
 Structure written by MMmdl.
 41 42  0  0  0  0  0  0  0  0  1 V2000
  150.9813  142.6350  157.2679 C   0  0  0  0  0  0  0  0  0  0  0  0
  151.3312  141.5849  158.3278 C   0  0  1  0  0  0  0  0  0  0  0  0
  151.4918  140.1797  157.7202 C   0  0  0  0  0  0  0  0  0  0  0  0
  151.9505  139.2135  158.7337 N   0  0  0  0  0  0  0  0  0  0  0  0
  151.9293  137.5368  158.3043 S   0  0  0  0  0  0  0  0  0  0  0  0
  152.6643  137.3676  157.0415 O   0  0  0  0  0  0  0  0  0  0  0  0
  152.2723  136.7374  159.4906 O   0  0  0  0  0  0  0  0  0  0  0  0
  150.2410  137.3411  157.9991 N   0  0  0  0  0  0  0  0  0  0  0  0
  149.2668  137.6296  159.0536 C   0  0  0  0  0  0  0  0  0  0  0  0
  148.1475  136.5768  159.0927 C   0  0  0  0  0  0  0  0  0  0  0  0
  147.8119  136.1496  160.5090 C   0  0  0  0  0  0  0  0  0  0  0  0
  147.6915  134.7831  160.8399 C   0  0  0  0  0  0  0  0  0  0  0  0
  147.3754  134.4398  162.1688 C   0  0  0  0  0  0  0  0  0  0  0  0
  147.1906  135.4707  163.1100 C   0  0  0  0  0  0  0  0  0  0  0  0
  147.3302  136.8048  162.6786 C   0  0  0  0  0  0  0  0  0  0  0  0
  147.6337  137.1446  161.4071 N   0  0  0  0  0  0  0  0  0  0  0  0
  153.1181  139.6852  159.4947 C   0  0  0  0  0  0  0  0  0  0  0  0
  152.8945  141.1125  160.0278 C   0  0  1  0  0  0  0  0  0  0  0  0
  154.1475  141.6770  160.7064 C   0  0  0  0  0  0  0  0  0  0  0  0
  152.5473  141.9728  158.9516 O   0  0  0  0  0  0  0  0  0  0  0  0
  150.0490  142.3854  156.7607 H   0  0  0  0  0  0  0  0  0  0  0  0
  151.7640  142.7100  156.5126 H   0  0  0  0  0  0  0  0  0  0  0  0
  150.8597  143.6193  157.7205 H   0  0  0  0  0  0  0  0  0  0  0  0
  150.5337  141.5710  159.0730 H   0  0  0  0  0  0  0  0  0  0  0  0
  150.5436  139.8527  157.2940 H   0  0  0  0  0  0  0  0  0  0  0  0
  152.2162  140.2010  156.9047 H   0  0  0  0  0  0  0  0  0  0  0  0
  149.9670  137.7044  157.0867 H   0  0  0  0  0  0  0  0  0  0  0  0
  149.7808  137.6883  160.0138 H   0  0  0  0  0  0  0  0  0  0  0  0
  148.8380  138.6136  158.8619 H   0  0  0  0  0  0  0  0  0  0  0  0
  147.2496  136.9672  158.6120 H   0  0  0  0  0  0  0  0  0  0  0  0
  148.4374  135.6896  158.5290 H   0  0  0  0  0  0  0  0  0  0  0  0
  147.8372  134.0148  160.0951 H   0  0  0  0  0  0  0  0  0  0  0  0
  147.2756  133.4047  162.4602 H   0  0  0  0  0  0  0  0  0  0  0  0
  146.9469  135.2446  164.1375 H   0  0  0  0  0  0  0  0  0  0  0  0
  147.1939  137.6207  163.3729 H   0  0  0  0  0  0  0  0  0  0  0  0
  153.3120  139.0072  160.3262 H   0  0  0  0  0  0  0  0  0  0  0  0
  153.9943  139.6538  158.8454 H   0  0  0  0  0  0  0  0  0  0  0  0
  152.0826  141.1063  160.7573 H   0  0  0  0  0  0  0  0  0  0  0  0
  154.4462  141.0600  161.5542 H   0  0  0  0  0  0  0  0  0  0  0  0
  153.9682  142.6863  161.0775 H   0  0  0  0  0  0  0  0  0  0  0  0
  154.9869  141.7214  160.0120 H   0  0  0  0  0  0  0  0  0  0  0  0
  1  2  1  0  0  0  0
  1 21  1  0  0  0  0
  1 22  1  0  0  0  0
  1 23  1  0  0  0  0
  2 20  1  0  0  0  0
  2  3  1  0  0  0  0
  2 24  1  0  0  0  0
  3  4  1  0  0  0  0
  3 25  1  0  0  0  0
  3 26  1  0  0  0  0
  4  5  1  0  0  0  0
  4 17  1  0  0  0  0
  5  6  2  0  0  0  0
  5  7  2  0  0  0  0
  5  8  1  0  0  0  0
  8  9  1  0  0  0  0
  8 27  1  0  0  0  0
  9 10  1  0  0  0  0
  9 28  1  0  0  0  0
  9 29  1  0  0  0  0
 10 11  1  0  0  0  0
 10 30  1  0  0  0  0
 10 31  1  0  0  0  0
 11 16  1  0  0  0  0
 11 12  2  0  0  0  0
 12 13  1  0  0  0  0
 12 32  1  0  0  0  0
 13 14  2  0  0  0  0
 13 33  1  0  0  0  0
 14 15  1  0  0  0  0
 14 34  1  0  0  0  0
 15 16  2  0  0  0  0
 15 35  1  0  0  0  0
 17 18  1  0  0  0  0
 17 36  1  0  0  0  0
 17 37  1  0  0  0  0
 18 19  1  0  0  0  0
 18 20  1  0  0  0  0
 18 38  1  0  0  0  0
 19 39  1  0  0  0  0
 19 40  1  0  0  0  0
 19 41  1  0  0  0  0
M  END
> <s_m_source_file>
AV-unprocessed.smi

> <i_m_source_file_index>
2100

> <i_lp_mmshare_version>
43012

> <i_f3d_flags>
0

> <s_epik_input>
W0NIM11bQ0BASF0xW0NIMl1OKFtDSDJdW0NASF0oTzEpW0NIM10pUyg9TykoPU8pW05IXVtDSDJdW0NIMl1jMltjSF1bY0hdW2NIXVtjSF1uMg==

> <s_epik_cmdline>
J2VwaWtfcHl0aG9uJywgJy1waCcsICc3LjAnLCAnLXRuJywgJzgnLCAnLW1hJywgJzIwMCcsICctbWV0YWxfYmluZGluZycsICctaW1hZScsICc8aW5maWxlLm1hZT4nLCAnLW9tYWUnLCAnPG91dGZpbGUubWFlPic=

> <r_epik_Ionization_Penalty>
0.085378

> <r_epik_Ionization_Penalty_Charging>
0

> <r_epik_Ionization_Penalty_Neutral>
0.085378

> <r_epik_State_Penalty>
0.0441186

> <r_epik_Charging_Adjusted_Penalty>
0.0441186

> <i_epik_Tot_Q>
0

> <i_epik_Tot_abs_Q>
0

> <r_epik_Metal_State_Penalty>
0.24397

> <b_epik_Metal_Only>
0

> <s_lp_Force_Field>
OPLS_2005

> <r_lp_Energy>
5.36855

> <b_lp_Chiralities_Consistent>
1

> <s_lp_Variant>
AV-unprocessed.smi:2100-2

> <Gold.Version>
5.8.1

> <Gold.Id.Protein>
6NUR|6NUR_protein|mol2

> <Gold.PLP.Fitness>
44.3699

> <Gold.PLP.PLP>
-38.5026

> <Gold.PLP.part.hbond>
-3.0000

> <Gold.PLP.part.metal>
0.0000

> <Gold.PLP.part.buried>
-5.1905

> <Gold.PLP.part.nonpolar>
-30.8164

> <Gold.PLP.part.repulsive>
0.0000

> <Gold.PLP.ligand.clash>
0.0000

> <Gold.PLP.ligand.torsion>
1.2194

> <Gold.PLP.Chemscore.Hbond>
2.5320

> <Gold.PLP.Chemscore.CHOScore>
0.0000

> <Gold.PLP.Chemscore.Metal>
0.0000

> <Gold.Chemscore.Hbonds>
donor molecule, donor type, donor heavy atom, donor atom, acceptor molecule, acceptor atom, score
      P1  H  6896  6907       L1     7  1.00
      P1  H  6931  6943       L1    16  0.69
      P1  H  6934  6947       L1    16  0.83

> <Gold.PLP.Chemscore.Internal.Correction>
0.7102

> <Gold.Rescore>
     Score         DG    S(hbond)    S(metal)    S(lipo)     H(rot)  DE(clash)    DE(int)     intcor
     18.01     -19.13       1.98        0.00      97.49       1.71       0.02       1.10       ----

> <Gold.Chemscore.Fitness>
18.0113

> <Gold.Chemscore.DG>
-19.1332

> <Gold.Chemscore.ZeroCoef>
-5.4800

> <Gold.Chemscore.Hbond>
1.9802

> <Gold.Chemscore.Metal>
0.0000

> <Gold.Chemscore.Lipo>
97.4934

> <Gold.Chemscore.Internal_Hbond>
0.0000

> <Gold.Chemscore.DEClash>
0.0197

> <Gold.Chemscore.DEInternal>
1.1023

> <Gold.Chemscore.Rot>
1.7060

> <Gold.Chemscore.Internal.Correction>
   9.000000E+99

> <Gold.Chemscore.Hbonds>
donor molecule, donor type, donor heavy atom, donor atom, acceptor molecule, acceptor atom, score
      P1  H  6896  6907       L1     7  0.98
      P1  H  6931  6943       L1    16  0.07
      P1  H  6934  6947       L1    16  0.71

> <Gold.Chemscore.Hbond.Weighted>
-6.6138

> <Gold.Chemscore.Metal.Weighted>
-0.0000

> <Gold.Chemscore.Lipo.Weighted>
-11.4067

> <Gold.Chemscore.Internal_Hbond.Weighted>
0.0000

> <Gold.Chemscore.DEClash.Weighted>
0.0197

> <Gold.Chemscore.DEInternal.Weighted>
1.1023

> <Gold.Chemscore.Rot.Weighted>
4.3674

> <Gold.Chemscore.Internal.Correction.Weighted>
   9.000000E+99

> <Gold.Protein.RotatedTorsions>
[ 6907 6896 6895 6894 ] final    3.76 input  -60.11 | X-H torsion
[ 7974 7965 7964 7962 ] final  -50.05 input  175.53 | X-H torsion
[ 8008 7997 7996 7995 ] final   80.84 input   59.86 | X-H torsion
[ 10167 10162 10161 10158 ] final -121.00 input  -65.29 | X-H torsion
[ 10718 10713 10712 10709 ] final  -18.68 input   66.30 | X-H torsion
[ 10763 10752 10751 10750 ] final -135.06 input  -60.55 | X-H torsion
[ 11005 11000 10999 10996 ] final   56.22 input  -57.11 | X-H torsion

> <Gold.Protein.ActiveResidues>
 VAL166  LYS551  ARG553  GLY616  TRP617  ASP618  TYR619  PRO620  LYS621  CYS622 
 ASP623  PHE694  ASN695  SER759  ASP760  ASP761  ALA762  ILE779  LEU786  VAL792 
 PHE793  MET794  SER795  GLU796  ALA797  LYS798  CYS799  TRP800  GLU811  SER814 

> <Gold.Protein.RotatedAtoms>
  151.6302  135.1023  160.0119 H   0  0  0  0  0  0  0  0  0  0  0  0  # atno 6907 bound_to 6896
  152.4110  133.6960  159.6406 H   0  0  0  0  0  0  0  0  0  0  0  0  # atno 6908 bound_to 6896
  150.8001  133.8541  159.3254 H   0  0  0  0  0  0  0  0  0  0  0  0  # atno 6909 bound_to 6896
  145.9340  140.7723  142.9585 H   0  0  0  0  0  0  0  0  0  0  0  0  # atno 7974 bound_to 7965
  155.8889  140.3440  155.5942 H   0  0  0  0  0  0  0  0  0  0  0  0  # atno 8008 bound_to 7997
  155.7633  140.0835  157.2163 H   0  0  0  0  0  0  0  0  0  0  0  0  # atno 8009 bound_to 7997
  154.4031  140.1532  156.2845 H   0  0  0  0  0  0  0  0  0  0  0  0  # atno 8010 bound_to 7997
  140.0297  143.5260  152.2182 H   0  0  0  0  0  0  0  0  0  0  0  0  # atno 10167 bound_to 10162
  156.5562  130.4714  149.6428 H   0  0  0  0  0  0  0  0  0  0  0  0  # atno 10718 bound_to 10713
  154.8709  135.3715  154.4837 H   0  0  0  0  0  0  0  0  0  0  0  0  # atno 10763 bound_to 10752
  153.5489  135.7025  153.5606 H   0  0  0  0  0  0  0  0  0  0  0  0  # atno 10764 bound_to 10752
  153.3734  135.4015  155.1769 H   0  0  0  0  0  0  0  0  0  0  0  0  # atno 10765 bound_to 10752
  140.0546  134.5688  155.9223 H   0  0  0  0  0  0  0  0  0  0  0  0  # atno 11005 bound_to 11000
  144.6769  140.2173  143.7370 LP  0  0  0  0  0  0  0  0  0  0  0  0  # atno 17320 bound_to 7965
  145.8388  139.2120  143.1839 LP  0  0  0  0  0  0  0  0  0  0  0  0  # atno 17321 bound_to 7965
  139.6084  144.7602  151.3008 LP  0  0  0  0  0  0  0  0  0  0  0  0  # atno 17342 bound_to 10162
  140.7307  143.6872  150.7952 LP  0  0  0  0  0  0  0  0  0  0  0  0  # atno 17343 bound_to 10162
  156.2840  130.7087  151.1918 LP  0  0  0  0  0  0  0  0  0  0  0  0  # atno 17370 bound_to 10713
  157.7378  131.0548  150.5335 LP  0  0  0  0  0  0  0  0  0  0  0  0  # atno 17371 bound_to 10713
  141.1946  133.6583  156.5603 LP  0  0  0  0  0  0  0  0  0  0  0  0  # atno 17394 bound_to 11000
  140.3864  134.7478  157.4694 LP  0  0  0  0  0  0  0  0  0  0  0  0  # atno 17395 bound_to 11000

$$$$
