AV-unprocessed.smi:3094|AV-procd|sdf|11791|dock3
  -GOLD-   2272017163D 1   1.00000     0.00000
 Structure written by MMmdl.
 29 30  0  0  0  0  0  0  0  0  1 V2000
  149.2638  141.5269  157.9706 C   0  0  0  0  0  0  0  0  0  0  0  0
  150.6685  140.9929  157.6597 C   0  0  1  0  0  0  0  0  0  0  0  0
  151.0639  141.2738  156.1945 C   0  0  0  0  0  0  0  0  0  0  0  0
  150.1433  140.6787  155.2431 N   0  0  0  0  0  0  0  0  0  0  0  0
  150.1697  139.3795  154.7532 C   0  0  0  0  0  0  0  0  0  0  0  0
  149.1164  139.2699  153.8739 C   0  0  0  0  0  0  0  0  0  0  0  0
  148.4278  140.4793  153.8134 N   0  0  0  0  0  0  0  0  0  0  0  0
  149.0920  141.2634  154.6526 C   0  0  0  0  0  0  0  0  0  0  0  0
  151.6241  141.6028  158.5842 N   0  0  0  0  0  0  0  0  0  0  0  0
  152.8088  141.0846  158.9454 C   0  0  0  0  0  0  0  0  0  0  0  0
  153.2248  140.0014  158.5321 O   0  0  0  0  0  0  0  0  0  0  0  0
  153.5863  141.9499  159.8815 C   0  0  0  0  0  0  0  0  0  0  0  0
  152.9634  142.2535  161.2287 C   0  0  0  0  0  0  0  0  0  0  0  0
  153.0457  143.3339  160.1795 C   0  0  0  0  0  0  0  0  0  0  0  0
  148.5192  141.0757  157.3142 H   0  0  0  0  0  0  0  0  0  0  0  0
  149.2107  142.6084  157.8401 H   0  0  0  0  0  0  0  0  0  0  0  0
  148.9753  141.2999  158.9974 H   0  0  0  0  0  0  0  0  0  0  0  0
  150.6406  139.9127  157.8141 H   0  0  0  0  0  0  0  0  0  0  0  0
  151.0798  142.3488  156.0102 H   0  0  0  0  0  0  0  0  0  0  0  0
  152.0714  140.9080  155.9904 H   0  0  0  0  0  0  0  0  0  0  0  0
  150.9198  138.6637  155.0558 H   0  0  0  0  0  0  0  0  0  0  0  0
  148.8038  138.4201  153.2851 H   0  0  0  0  0  0  0  0  0  0  0  0
  148.8117  142.2907  154.8351 H   0  0  0  0  0  0  0  0  0  0  0  0
  151.3678  142.4993  158.9720 H   0  0  0  0  0  0  0  0  0  0  0  0
  154.6695  141.8396  159.8605 H   0  0  0  0  0  0  0  0  0  0  0  0
  151.9793  141.8432  161.4501 H   0  0  0  0  0  0  0  0  0  0  0  0
  153.6373  142.3150  162.0808 H   0  0  0  0  0  0  0  0  0  0  0  0
  153.7751  144.1288  160.3209 H   0  0  0  0  0  0  0  0  0  0  0  0
  152.1146  143.6437  159.7078 H   0  0  0  0  0  0  0  0  0  0  0  0
  1  2  1  0  0  0  0
  1 15  1  0  0  0  0
  1 16  1  0  0  0  0
  1 17  1  0  0  0  0
  2  3  1  0  0  0  0
  2  9  1  0  0  0  0
  2 18  1  0  0  0  0
  3  4  1  0  0  0  0
  3 19  1  0  0  0  0
  3 20  1  0  0  0  0
  4  8  1  0  0  0  0
  4  5  1  0  0  0  0
  5  6  2  0  0  0  0
  5 21  1  0  0  0  0
  6  7  1  0  0  0  0
  6 22  1  0  0  0  0
  7  8  2  0  0  0  0
  8 23  1  0  0  0  0
  9 10  1  0  0  0  0
  9 24  1  0  0  0  0
 10 11  2  0  0  0  0
 10 12  1  0  0  0  0
 12 14  1  0  0  0  0
 12 13  1  0  0  0  0
 12 25  1  0  0  0  0
 13 14  1  0  0  0  0
 13 26  1  0  0  0  0
 13 27  1  0  0  0  0
 14 28  1  0  0  0  0
 14 29  1  0  0  0  0
M  END
> <s_m_source_file>
AV-unprocessed.smi

> <i_m_source_file_index>
3094

> <i_lp_mmshare_version>
43012

> <i_f3d_flags>
0

> <s_epik_input>
W0NIMl0xW0NIMl1bQ0hdMUMoPU8pW05IXVtDQEhdKFtDSDNdKVtDSDJdbjJbY0hdW2NIXW5bY0hdMg==

> <s_epik_cmdline>
J2VwaWtfcHl0aG9uJywgJy1waCcsICc3LjAnLCAnLXRuJywgJzgnLCAnLW1hJywgJzIwMCcsICctbWV0YWxfYmluZGluZycsICctaW1hZScsICc8aW5maWxlLm1hZT4nLCAnLW9tYWUnLCAnPG91dGZpbGUubWFlPic=

> <r_lp_tautomer_probability>
1

> <r_epik_Ionization_Penalty>
0.642614

> <r_epik_Ionization_Penalty_Charging>
0.642614

> <r_epik_Ionization_Penalty_Neutral>
4.09963e-08

> <r_epik_State_Penalty>
0.660429

> <r_epik_Charging_Adjusted_Penalty>
1.30304

> <i_epik_Tot_Q>
0

> <i_epik_Tot_abs_Q>
0

> <r_epik_Metal_State_Penalty>
0.31224

> <b_epik_Metal_Only>
0

> <s_lp_Force_Field>
OPLS_2005

> <r_lp_Energy>
7.79034

> <b_lp_Chiralities_Consistent>
1

> <s_lp_Variant>
AV-unprocessed.smi:3094-4

> <Gold.Version>
5.8.1

> <Gold.Id.Protein>
6NUR|6NUR_protein|mol2

> <Gold.PLP.Fitness>
36.5820

> <Gold.PLP.PLP>
-29.4014

> <Gold.PLP.part.hbond>
-1.0000

> <Gold.PLP.part.metal>
0.0000

> <Gold.PLP.part.buried>
-1.1592

> <Gold.PLP.part.nonpolar>
-27.3703

> <Gold.PLP.part.repulsive>
1.2529

> <Gold.PLP.ligand.clash>
0.0000

> <Gold.PLP.ligand.torsion>
0.7314

> <Gold.PLP.Chemscore.Hbond>
1.0000

> <Gold.PLP.Chemscore.CHOScore>
1.8492

> <Gold.PLP.Chemscore.Metal>
0.0000

> <Gold.Chemscore.Hbonds>
donor molecule, donor type, donor heavy atom, donor atom, acceptor molecule, acceptor atom, score
      P1  H  7997  8009       L1    11  0.99
      L1  C     6    22       P1  7948  0.85
      L1  C     6    22       P1  7957  0.03
      L1  C     8    23       P1  8028  0.95

> <Gold.PLP.Chemscore.Internal.Correction>
0.0959

> <Gold.Rescore>
     Score         DG    S(hbond)    S(metal)    S(lipo)     H(rot)  DE(clash)    DE(int)     intcor
     10.41     -11.21       0.91        0.00      63.00       1.83       0.06       0.74       ----

> <Gold.Chemscore.Fitness>
10.4064

> <Gold.Chemscore.DG>
-11.2093

> <Gold.Chemscore.ZeroCoef>
-5.4800

> <Gold.Chemscore.Hbond>
0.9146

> <Gold.Chemscore.Metal>
0.0000

> <Gold.Chemscore.Lipo>
63.0038

> <Gold.Chemscore.Internal_Hbond>
0.0000

> <Gold.Chemscore.DEClash>
0.0627

> <Gold.Chemscore.DEInternal>
0.7401

> <Gold.Chemscore.Rot>
1.8347

> <Gold.Chemscore.Internal.Correction>
   9.000000E+99

> <Gold.Chemscore.Hbonds>
donor molecule, donor type, donor heavy atom, donor atom, acceptor molecule, acceptor atom, score
      P1  H  7997  8009       L1    11  0.83

> <Gold.Chemscore.Hbond.Weighted>
-3.0547

> <Gold.Chemscore.Metal.Weighted>
-0.0000

> <Gold.Chemscore.Lipo.Weighted>
-7.3714

> <Gold.Chemscore.Internal_Hbond.Weighted>
0.0000

> <Gold.Chemscore.DEClash.Weighted>
0.0627

> <Gold.Chemscore.DEInternal.Weighted>
0.7401

> <Gold.Chemscore.Rot.Weighted>
4.6969

> <Gold.Chemscore.Internal.Correction.Weighted>
   9.000000E+99

> <Gold.Protein.RotatedTorsions>
[ 6907 6896 6895 6894 ] final  -89.52 input  -60.11 | X-H torsion
[ 7974 7965 7964 7962 ] final  -78.83 input  175.53 | X-H torsion
[ 8008 7997 7996 7995 ] final  143.20 input   59.86 | X-H torsion
[ 10167 10162 10161 10158 ] final -116.32 input  -65.29 | X-H torsion
[ 10718 10713 10712 10709 ] final  124.69 input   66.30 | X-H torsion
[ 10763 10752 10751 10750 ] final -152.11 input  -60.55 | X-H torsion
[ 11005 11000 10999 10996 ] final  120.37 input  -57.11 | X-H torsion

> <Gold.Protein.ActiveResidues>
 VAL166  LYS551  ARG553  GLY616  TRP617  ASP618  TYR619  PRO620  LYS621  CYS622 
 ASP623  PHE694  ASN695  SER759  ASP760  ASP761  ALA762  ILE779  LEU786  VAL792 
 PHE793  MET794  SER795  GLU796  ALA797  LYS798  CYS799  TRP800  GLU811  SER814 

> <Gold.Protein.RotatedAtoms>
  150.6874  134.2574  159.4535 H   0  0  0  0  0  0  0  0  0  0  0  0  # atno 6907 bound_to 6896
  152.0507  134.9653  160.0584 H   0  0  0  0  0  0  0  0  0  0  0  0  # atno 6908 bound_to 6896
  152.1118  133.4270  159.4671 H   0  0  0  0  0  0  0  0  0  0  0  0  # atno 6909 bound_to 6896
  145.5813  140.9448  143.1342 H   0  0  0  0  0  0  0  0  0  0  0  0  # atno 7974 bound_to 7965
  156.2935  140.2268  156.4851 H   0  0  0  0  0  0  0  0  0  0  0  0  # atno 8008 bound_to 7997
  154.7819  140.0460  157.1155 H   0  0  0  0  0  0  0  0  0  0  0  0  # atno 8009 bound_to 7997
  154.9749  140.3071  155.4975 H   0  0  0  0  0  0  0  0  0  0  0  0  # atno 8010 bound_to 7997
  140.0805  143.4792  152.1928 H   0  0  0  0  0  0  0  0  0  0  0  0  # atno 10167 bound_to 10162
  157.5564  131.1092  150.8614 H   0  0  0  0  0  0  0  0  0  0  0  0  # atno 10718 bound_to 10713
  154.8015  135.3244  154.7537 H   0  0  0  0  0  0  0  0  0  0  0  0  # atno 10763 bound_to 10752
  153.8204  135.6888  153.4832 H   0  0  0  0  0  0  0  0  0  0  0  0  # atno 10764 bound_to 10752
  153.1735  135.4614  154.9877 H   0  0  0  0  0  0  0  0  0  0  0  0  # atno 10765 bound_to 10752
  139.9183  134.9634  156.7797 H   0  0  0  0  0  0  0  0  0  0  0  0  # atno 11005 bound_to 11000
  144.7393  139.7496  143.7317 LP  0  0  0  0  0  0  0  0  0  0  0  0  # atno 17320 bound_to 7965
  146.1714  139.4866  142.9925 LP  0  0  0  0  0  0  0  0  0  0  0  0  # atno 17321 bound_to 7965
  139.5782  144.7498  151.3708 LP  0  0  0  0  0  0  0  0  0  0  0  0  # atno 17342 bound_to 10162
  140.7080  143.7464  150.7516 LP  0  0  0  0  0  0  0  0  0  0  0  0  # atno 17343 bound_to 10162
  156.9124  130.5285  149.5280 LP  0  0  0  0  0  0  0  0  0  0  0  0  # atno 17370 bound_to 10713
  156.0622  130.5673  150.9216 LP  0  0  0  0  0  0  0  0  0  0  0  0  # atno 17371 bound_to 10713
  140.6554  133.9693  155.7777 LP  0  0  0  0  0  0  0  0  0  0  0  0  # atno 17394 bound_to 11000
  141.0680  134.0248  157.3567 LP  0  0  0  0  0  0  0  0  0  0  0  0  # atno 17395 bound_to 11000

$$$$
