AV-unprocessed.smi:3161|AV-procd|sdf|12061|dock5
  -GOLD-   2272017493D 1   1.00000     0.00000
 Structure written by MMmdl.
 40 41  0  0  0  0  0  0  0  0  1 V2000
  150.6200  140.3216  156.1500 C   0  0  0  0  0  0  0  0  0  0  0  0
  150.8692  141.3947  157.1701 C   0  0  0  0  0  0  0  0  0  0  0  0
  151.0443  141.2450  158.5751 C   0  0  0  0  0  0  0  0  0  0  0  0
  151.2468  142.3964  159.1942 N   0  0  0  0  0  0  0  0  0  0  0  0
  151.2028  143.3211  158.2111 N   0  0  0  0  0  0  0  0  0  0  0  0
  151.3835  144.7299  158.5265 C   0  0  0  0  0  0  0  0  0  0  0  0
  151.0002  145.0964  159.9780 C   0  0  2  0  0  0  0  0  0  0  0  0
  151.8910  144.3835  161.0153 C   0  0  0  0  0  0  0  0  0  0  0  0
  149.5750  144.8272  160.1992 N   0  0  0  0  0  0  0  0  0  0  0  0
  149.0200  145.3201  161.4592 C   0  0  0  0  0  0  0  0  0  0  0  0
  147.4983  145.1159  161.5083 C   0  0  1  0  0  0  0  0  0  0  0  0
  146.7796  145.7057  160.2765 C   0  0  0  0  0  0  0  0  0  0  0  0
  145.2793  145.3965  160.3292 C   0  0  0  0  0  0  0  0  0  0  0  0
  145.0685  143.8905  160.5155 C   0  0  0  0  0  0  0  0  0  0  0  0
  145.8762  143.3829  161.7205 C   0  0  0  0  0  0  0  0  0  0  0  0
  147.2526  143.7122  161.5573 O   0  0  0  0  0  0  0  0  0  0  0  0
  150.9832  142.7424  156.9788 C   0  0  0  0  0  0  0  0  0  0  0  0
  150.6020  139.3290  156.6007 H   0  0  0  0  0  0  0  0  0  0  0  0
  151.3926  140.3112  155.3809 H   0  0  0  0  0  0  0  0  0  0  0  0
  149.6645  140.4621  155.6446 H   0  0  0  0  0  0  0  0  0  0  0  0
  151.0305  140.3374  159.1603 H   0  0  0  0  0  0  0  0  0  0  0  0
  152.4261  144.9949  158.3431 H   0  0  0  0  0  0  0  0  0  0  0  0
  150.7949  145.3176  157.8207 H   0  0  0  0  0  0  0  0  0  0  0  0
  151.1666  146.1690  160.0859 H   0  0  0  0  0  0  0  0  0  0  0  0
  152.9455  144.5014  160.7651 H   0  0  0  0  0  0  0  0  0  0  0  0
  151.6802  143.3146  161.0630 H   0  0  0  0  0  0  0  0  0  0  0  0
  151.7568  144.7950  162.0153 H   0  0  0  0  0  0  0  0  0  0  0  0
  149.4051  143.8291  160.1266 H   0  0  0  0  0  0  0  0  0  0  0  0
  149.4757  144.8184  162.3125 H   0  0  0  0  0  0  0  0  0  0  0  0
  149.2444  146.3824  161.5626 H   0  0  0  0  0  0  0  0  0  0  0  0
  147.1082  145.5685  162.4223 H   0  0  0  0  0  0  0  0  0  0  0  0
  146.9320  146.7842  160.2237 H   0  0  0  0  0  0  0  0  0  0  0  0
  147.2066  145.2852  159.3649 H   0  0  0  0  0  0  0  0  0  0  0  0
  144.8223  145.9371  161.1588 H   0  0  0  0  0  0  0  0  0  0  0  0
  144.7864  145.7411  159.4198 H   0  0  0  0  0  0  0  0  0  0  0  0
  144.0089  143.6712  160.6502 H   0  0  0  0  0  0  0  0  0  0  0  0
  145.3862  143.3617  159.6162 H   0  0  0  0  0  0  0  0  0  0  0  0
  145.4974  143.8085  162.6509 H   0  0  0  0  0  0  0  0  0  0  0  0
  145.7808  142.3003  161.8054 H   0  0  0  0  0  0  0  0  0  0  0  0
  150.9224  143.3332  156.0765 H   0  0  0  0  0  0  0  0  0  0  0  0
  1  2  1  0  0  0  0
  1 18  1  0  0  0  0
  1 19  1  0  0  0  0
  1 20  1  0  0  0  0
  2 17  2  0  0  0  0
  2  3  1  0  0  0  0
  3  4  2  0  0  0  0
  3 21  1  0  0  0  0
  4  5  1  0  0  0  0
  5  6  1  0  0  0  0
  5 17  1  0  0  0  0
  6  7  1  0  0  0  0
  6 22  1  0  0  0  0
  6 23  1  0  0  0  0
  7  8  1  0  0  0  0
  7  9  1  0  0  0  0
  7 24  1  0  0  0  0
  8 25  1  0  0  0  0
  8 26  1  0  0  0  0
  8 27  1  0  0  0  0
  9 10  1  0  0  0  0
  9 28  1  0  0  0  0
 10 11  1  0  0  0  0
 10 29  1  0  0  0  0
 10 30  1  0  0  0  0
 11 16  1  0  0  0  0
 11 12  1  0  0  0  0
 11 31  1  0  0  0  0
 12 13  1  0  0  0  0
 12 32  1  0  0  0  0
 12 33  1  0  0  0  0
 13 14  1  0  0  0  0
 13 34  1  0  0  0  0
 13 35  1  0  0  0  0
 14 15  1  0  0  0  0
 14 36  1  0  0  0  0
 14 37  1  0  0  0  0
 15 16  1  0  0  0  0
 15 38  1  0  0  0  0
 15 39  1  0  0  0  0
 17 40  1  0  0  0  0
M  END
> <s_m_source_file>
AV-unprocessed.smi

> <i_m_source_file_index>
3161

> <i_lp_mmshare_version>
43012

> <i_f3d_flags>
0

> <s_epik_input>
W0NIM11jMVtjSF1ubihbY0hdMSlbQ0gyXVtDQEhdKFtDSDNdKVtOSF1bQ0gyXVtDQEBIXTJbQ0gyXVtDSDJdW0NIMl1bQ0gyXU8y

> <s_epik_cmdline>
J2VwaWtfcHl0aG9uJywgJy1waCcsICc3LjAnLCAnLXRuJywgJzgnLCAnLW1hJywgJzIwMCcsICctbWV0YWxfYmluZGluZycsICctaW1hZScsICc8aW5maWxlLm1hZT4nLCAnLW9tYWUnLCAnPG91dGZpbGUubWFlPic=

> <r_lp_tautomer_probability>
1

> <r_epik_Ionization_Penalty>
2.51986

> <r_epik_Ionization_Penalty_Charging>
0

> <r_epik_Ionization_Penalty_Neutral>
2.51986

> <r_epik_State_Penalty>
2.68614

> <r_epik_Charging_Adjusted_Penalty>
2.68614

> <i_epik_Tot_Q>
0

> <i_epik_Tot_abs_Q>
0

> <r_epik_Metal_State_Penalty>
2.68606

> <b_epik_Metal_Only>
0

> <s_lp_Force_Field>
OPLS_2005

> <r_lp_Energy>
14.508

> <b_lp_Chiralities_Consistent>
1

> <s_lp_Variant>
AV-unprocessed.smi:3161-7

> <Gold.Version>
5.8.1

> <Gold.Id.Protein>
6NUR|6NUR_protein|mol2

> <Gold.PLP.Fitness>
41.1658

> <Gold.PLP.PLP>
-36.5517

> <Gold.PLP.part.hbond>
-1.0000

> <Gold.PLP.part.metal>
0.0000

> <Gold.PLP.part.buried>
-4.1510

> <Gold.PLP.part.nonpolar>
-33.0983

> <Gold.PLP.part.repulsive>
0.0719

> <Gold.PLP.ligand.clash>
0.0000

> <Gold.PLP.ligand.torsion>
0.4174

> <Gold.PLP.Chemscore.Hbond>
1.0000

> <Gold.PLP.Chemscore.CHOScore>
0.8040

> <Gold.PLP.Chemscore.Metal>
0.0000

> <Gold.Chemscore.Hbonds>
donor molecule, donor type, donor heavy atom, donor atom, acceptor molecule, acceptor atom, score
      P1  H  6933  6944       L1    16  1.00
      L1  C    17    40       P1  8028  0.80

> <Gold.PLP.Chemscore.Internal.Correction>
0.0369

> <Gold.Rescore>
     Score         DG    S(hbond)    S(metal)    S(lipo)     H(rot)  DE(clash)    DE(int)     intcor
     13.42     -15.97       0.97        0.00      94.78       1.50       0.64       1.90       ----

> <Gold.Chemscore.Fitness>
13.4240

> <Gold.Chemscore.DG>
-15.9694

> <Gold.Chemscore.ZeroCoef>
-5.4800

> <Gold.Chemscore.Hbond>
0.9725

> <Gold.Chemscore.Metal>
0.0000

> <Gold.Chemscore.Lipo>
94.7764

> <Gold.Chemscore.Internal_Hbond>
0.0000

> <Gold.Chemscore.DEClash>
0.6423

> <Gold.Chemscore.DEInternal>
1.9031

> <Gold.Chemscore.Rot>
1.5030

> <Gold.Chemscore.Internal.Correction>
   9.000000E+99

> <Gold.Chemscore.Hbonds>
donor molecule, donor type, donor heavy atom, donor atom, acceptor molecule, acceptor atom, score
      P1  H  6933  6944       L1    16  0.96

> <Gold.Chemscore.Hbond.Weighted>
-3.2483

> <Gold.Chemscore.Metal.Weighted>
-0.0000

> <Gold.Chemscore.Lipo.Weighted>
-11.0888

> <Gold.Chemscore.Internal_Hbond.Weighted>
0.0000

> <Gold.Chemscore.DEClash.Weighted>
0.6423

> <Gold.Chemscore.DEInternal.Weighted>
1.9031

> <Gold.Chemscore.Rot.Weighted>
3.8477

> <Gold.Chemscore.Internal.Correction.Weighted>
   9.000000E+99

> <Gold.Protein.RotatedTorsions>
[ 6907 6896 6895 6894 ] final  -86.90 input  -60.11 | X-H torsion
[ 7974 7965 7964 7962 ] final -165.21 input  175.53 | X-H torsion
[ 8008 7997 7996 7995 ] final    5.72 input   59.86 | X-H torsion
[ 10167 10162 10161 10158 ] final  117.81 input  -65.29 | X-H torsion
[ 10718 10713 10712 10709 ] final  -17.24 input   66.30 | X-H torsion
[ 10763 10752 10751 10750 ] final -105.15 input  -60.55 | X-H torsion
[ 11005 11000 10999 10996 ] final   83.81 input  -57.11 | X-H torsion

> <Gold.Protein.ActiveResidues>
 VAL166  LYS551  ARG553  GLY616  TRP617  ASP618  TYR619  PRO620  LYS621  CYS622 
 ASP623  PHE694  ASN695  SER759  ASP760  ASP761  ALA762  ILE779  LEU786  VAL792 
 PHE793  MET794  SER795  GLU796  ALA797  LYS798  CYS799  TRP800  GLU811  SER814 

> <Gold.Protein.RotatedAtoms>
  150.6866  134.2978  159.4693 H   0  0  0  0  0  0  0  0  0  0  0  0  # atno 6907 bound_to 6896
  152.0877  134.9426  160.0581 H   0  0  0  0  0  0  0  0  0  0  0  0  # atno 6908 bound_to 6896
  152.0754  133.4092  159.4514 H   0  0  0  0  0  0  0  0  0  0  0  0  # atno 6909 bound_to 6896
  144.7276  140.2847  143.6230 H   0  0  0  0  0  0  0  0  0  0  0  0  # atno 7974 bound_to 7965
  154.7319  140.2732  155.6448 H   0  0  0  0  0  0  0  0  0  0  0  0  # atno 8008 bound_to 7997
  156.2852  140.2714  156.1947 H   0  0  0  0  0  0  0  0  0  0  0  0  # atno 8009 bound_to 7997
  155.0370  140.0371  157.2485 H   0  0  0  0  0  0  0  0  0  0  0  0  # atno 8010 bound_to 7997
  139.6154  144.7091  151.2752 H   0  0  0  0  0  0  0  0  0  0  0  0  # atno 10167 bound_to 10162
  156.5763  130.4762  149.6340 H   0  0  0  0  0  0  0  0  0  0  0  0  # atno 10718 bound_to 10713
  154.7927  135.4760  154.0089 H   0  0  0  0  0  0  0  0  0  0  0  0  # atno 10763 bound_to 10752
  153.1655  135.6816  153.8688 H   0  0  0  0  0  0  0  0  0  0  0  0  # atno 10764 bound_to 10752
  153.8287  135.3194  155.3395 H   0  0  0  0  0  0  0  0  0  0  0  0  # atno 10765 bound_to 10752
  139.9019  134.8172  156.2360 H   0  0  0  0  0  0  0  0  0  0  0  0  # atno 11005 bound_to 11000
  145.7915  139.1929  143.2100 LP  0  0  0  0  0  0  0  0  0  0  0  0  # atno 17320 bound_to 7965
  146.0752  140.7825  142.9668 LP  0  0  0  0  0  0  0  0  0  0  0  0  # atno 17321 bound_to 7965
  140.7347  143.6758  150.8043 LP  0  0  0  0  0  0  0  0  0  0  0  0  # atno 17342 bound_to 10162
  140.0360  143.5395  152.2739 LP  0  0  0  0  0  0  0  0  0  0  0  0  # atno 17343 bound_to 10162
  156.2670  130.6995  151.1781 LP  0  0  0  0  0  0  0  0  0  0  0  0  # atno 17370 bound_to 10713
  157.7337  131.0589  150.5564 LP  0  0  0  0  0  0  0  0  0  0  0  0  # atno 17371 bound_to 10713
  141.0315  133.6986  156.1438 LP  0  0  0  0  0  0  0  0  0  0  0  0  # atno 17394 bound_to 11000
  140.7089  134.4483  157.5582 LP  0  0  0  0  0  0  0  0  0  0  0  0  # atno 17395 bound_to 11000

$$$$
