AV-unprocessed.smi:1230|AV-procd|sdf|5154|dock5
  -GOLD-   22720 4223D 1   1.00000     0.00000
 Structure written by MMmdl.
 38 39  0  0  0  0  0  0  0  0  2 V2000
  153.7490  140.7738  160.2539 C   0  0  0  0  0  0  0  0  0  0  0  0
  153.2813  142.2373  160.2490 C   0  0  2  0  0  0  0  0  0  0  0  0
  152.6216  142.6260  161.5876 C   0  0  0  0  0  0  0  0  0  0  0  0
  152.2030  144.1047  161.6000 C   0  0  0  0  0  0  0  0  0  0  0  0
  151.2736  144.4297  160.4212 C   0  0  0  0  0  0  0  0  0  0  0  0
  151.9172  144.0414  159.0790 C   0  0  0  0  0  0  0  0  0  0  0  0
  152.3534  142.5648  159.0546 C   0  0  2  0  0  0  0  0  0  0  0  0
  151.1806  141.7641  159.1253 O   0  0  0  0  0  0  0  0  0  0  0  0
  150.3287  141.8553  157.9935 C   0  0  0  0  0  0  0  0  0  0  0  0
  151.1594  141.5729  156.7327 C   0  0  0  0  0  0  0  0  0  0  0  0
  151.3274  140.1275  156.5286 N   0  0  0  0  0  0  0  0  0  0  0  0
  151.8610  139.3820  157.5938 C   0  0  0  0  0  0  0  0  0  0  0  0
  152.0984  138.0618  157.4827 C   0  0  0  0  0  0  0  0  0  0  0  0
  152.6545  137.2870  158.5426 C   0  0  0  0  0  0  0  0  0  0  0  0
  153.0770  136.6551  159.4159 N   0  0  0  0  0  0  0  0  0  0  0  0
  151.7838  137.3980  156.2201 C   0  0  0  0  0  0  0  0  0  0  0  0
  151.9859  136.1911  156.0924 O   0  0  0  0  0  0  0  0  0  0  0  0
  151.2685  138.1704  155.2186 N   0  5  0  0  0  0  0  0  0  0  0  0
  151.0417  139.5158  155.3400 C   0  0  0  0  0  0  0  0  0  0  0  0
  150.5972  140.1939  154.4136 O   0  0  0  0  0  0  0  0  0  0  0  0
  152.9182  140.0912  160.4299 H   0  0  0  0  0  0  0  0  0  0  0  0
  154.4856  140.6008  161.0387 H   0  0  0  0  0  0  0  0  0  0  0  0
  154.2093  140.5026  159.3036 H   0  0  0  0  0  0  0  0  0  0  0  0
  154.1765  142.8508  160.1372 H   0  0  0  0  0  0  0  0  0  0  0  0
  151.7480  141.9975  161.7675 H   0  0  0  0  0  0  0  0  0  0  0  0
  153.3098  142.4360  162.4118 H   0  0  0  0  0  0  0  0  0  0  0  0
  151.7066  144.3422  162.5413 H   0  0  0  0  0  0  0  0  0  0  0  0
  153.0906  144.7365  161.5498 H   0  0  0  0  0  0  0  0  0  0  0  0
  150.3299  143.8973  160.5443 H   0  0  0  0  0  0  0  0  0  0  0  0
  151.0299  145.4922  160.4220 H   0  0  0  0  0  0  0  0  0  0  0  0
  151.2213  144.2369  158.2626 H   0  0  0  0  0  0  0  0  0  0  0  0
  152.7856  144.6765  158.9001 H   0  0  0  0  0  0  0  0  0  0  0  0
  152.8903  142.3875  158.1204 H   0  0  0  0  0  0  0  0  0  0  0  0
  149.5232  141.1264  158.0892 H   0  0  0  0  0  0  0  0  0  0  0  0
  149.8680  142.8418  157.9254 H   0  0  0  0  0  0  0  0  0  0  0  0
  150.6813  142.0275  155.8640 H   0  0  0  0  0  0  0  0  0  0  0  0
  152.1308  142.0632  156.8123 H   0  0  0  0  0  0  0  0  0  0  0  0
  152.0777  139.9483  158.4880 H   0  0  0  0  0  0  0  0  0  0  0  0
  1  2  1  0  0  0  0
  1 21  1  0  0  0  0
  1 22  1  0  0  0  0
  1 23  1  0  0  0  0
  2  7  1  0  0  0  0
  2  3  1  0  0  0  0
  2 24  1  0  0  0  0
  3  4  1  0  0  0  0
  3 25  1  0  0  0  0
  3 26  1  0  0  0  0
  4  5  1  0  0  0  0
  4 27  1  0  0  0  0
  4 28  1  0  0  0  0
  5  6  1  0  0  0  0
  5 29  1  0  0  0  0
  5 30  1  0  0  0  0
  6  7  1  0  0  0  0
  6 31  1  0  0  0  0
  6 32  1  0  0  0  0
  7  8  1  0  0  0  0
  7 33  1  0  0  0  0
  8  9  1  0  0  0  0
  9 10  1  0  0  0  0
  9 34  1  0  0  0  0
  9 35  1  0  0  0  0
 10 11  1  0  0  0  0
 10 36  1  0  0  0  0
 10 37  1  0  0  0  0
 11 19  1  0  0  0  0
 11 12  1  0  0  0  0
 12 13  2  0  0  0  0
 12 38  1  0  0  0  0
 13 14  1  0  0  0  0
 13 16  1  0  0  0  0
 14 15  3  0  0  0  0
 16 17  2  0  0  0  0
 16 18  1  0  0  0  0
 18 19  1  0  0  0  0
 19 20  2  0  0  0  0
M  CHG  1  18  -1
M  END
> <s_m_source_file>
AV-unprocessed.smi

> <i_m_source_file_index>
1230

> <i_lp_mmshare_version>
43012

> <i_f3d_flags>
0

> <s_epik_input>
W0NIM11bQ0BASF0xW0NIMl1bQ0gyXVtDSDJdW0NIMl1bQ0BIXTFPW0NIMl1bQ0gyXW4yW2NIXWMoQyNOKWMoPU8pW25IXWMyPU8=

> <s_epik_cmdline>
J2VwaWtfcHl0aG9uJywgJy1waCcsICc3LjAnLCAnLXRuJywgJzgnLCAnLW1hJywgJzIwMCcsICctbWV0YWxfYmluZGluZycsICctaW1hZScsICc8aW5maWxlLm1hZT4nLCAnLW9tYWUnLCAnPG91dGZpbGUubWFlPic=

> <r_epik_Ionization_Penalty>
0.400014

> <r_epik_Ionization_Penalty_Charging>
4.81474e-10

> <r_epik_Ionization_Penalty_Neutral>
0.400014

> <r_epik_State_Penalty>
0.399305

> <r_epik_Charging_Adjusted_Penalty>
0.399305

> <i_epik_Tot_Q>
-1

> <i_epik_Tot_abs_Q>
1

> <r_epik_Metal_State_Penalty>
0.00056968

> <b_epik_Metal_Only>
0

> <s_lp_Force_Field>
OPLS_2005

> <r_lp_Energy>
23.6977

> <b_lp_Chiralities_Consistent>
1

> <s_lp_Variant>
AV-unprocessed.smi:1230-3

> <Gold.Version>
5.8.1

> <Gold.Id.Protein>
6NUR|6NUR_protein|mol2

> <Gold.PLP.Fitness>
52.0508

> <Gold.PLP.PLP>
-43.4033

> <Gold.PLP.part.hbond>
-2.9620

> <Gold.PLP.part.metal>
0.0000

> <Gold.PLP.part.buried>
-7.0023

> <Gold.PLP.part.nonpolar>
-33.9383

> <Gold.PLP.part.repulsive>
0.1893

> <Gold.PLP.ligand.clash>
0.0000

> <Gold.PLP.ligand.torsion>
0.1907

> <Gold.PLP.Chemscore.Hbond>
3.0000

> <Gold.PLP.Chemscore.CHOScore>
0.0000

> <Gold.PLP.Chemscore.Metal>
0.0000

> <Gold.Chemscore.Hbonds>
donor molecule, donor type, donor heavy atom, donor atom, acceptor molecule, acceptor atom, score
      P1  H  6896  6907       L1    15  1.00
      P1  H  7989  7998       L1    20  1.00
      P1  H 10752 10763       L1    17  1.00

> <Gold.PLP.Chemscore.Internal.Correction>
0.0290

> <Gold.Rescore>
     Score         DG    S(hbond)    S(metal)    S(lipo)     H(rot)  DE(clash)    DE(int)     intcor
     20.68     -22.10       2.91        0.00     100.61       1.90       0.00       1.42       ----

> <Gold.Chemscore.Fitness>
20.6752

> <Gold.Chemscore.DG>
-22.0954

> <Gold.Chemscore.ZeroCoef>
-5.4800

> <Gold.Chemscore.Hbond>
2.9054

> <Gold.Chemscore.Metal>
0.0000

> <Gold.Chemscore.Lipo>
100.6069

> <Gold.Chemscore.Internal_Hbond>
0.0000

> <Gold.Chemscore.DEClash>
0.0000

> <Gold.Chemscore.DEInternal>
1.4202

> <Gold.Chemscore.Rot>
1.8984

> <Gold.Chemscore.Internal.Correction>
   9.000000E+99

> <Gold.Chemscore.Hbonds>
donor molecule, donor type, donor heavy atom, donor atom, acceptor molecule, acceptor atom, score
      P1  H  6896  6907       L1    15  0.92
      P1  H  7989  7998       L1    20  0.88
      P1  H 10752 10763       L1    17  1.00

> <Gold.Chemscore.Hbond.Weighted>
-9.7042

> <Gold.Chemscore.Metal.Weighted>
-0.0000

> <Gold.Chemscore.Lipo.Weighted>
-11.7710

> <Gold.Chemscore.Internal_Hbond.Weighted>
0.0000

> <Gold.Chemscore.DEClash.Weighted>
0.0000

> <Gold.Chemscore.DEInternal.Weighted>
1.4202

> <Gold.Chemscore.Rot.Weighted>
4.8598

> <Gold.Chemscore.Internal.Correction.Weighted>
   9.000000E+99

> <Gold.Protein.RotatedTorsions>
[ 6907 6896 6895 6894 ] final   34.49 input  -60.11 | X-H torsion
[ 7974 7965 7964 7962 ] final  -74.44 input  175.53 | X-H torsion
[ 8008 7997 7996 7995 ] final  -24.85 input   59.86 | X-H torsion
[ 10167 10162 10161 10158 ] final  -60.79 input  -65.29 | X-H torsion
[ 10718 10713 10712 10709 ] final    3.18 input   66.30 | X-H torsion
[ 10763 10752 10751 10750 ] final   85.05 input  -60.55 | X-H torsion
[ 11005 11000 10999 10996 ] final   16.11 input  -57.11 | X-H torsion

> <Gold.Protein.ActiveResidues>
 VAL166  LYS551  ARG553  GLY616  TRP617  ASP618  TYR619  PRO620  LYS621  CYS622 
 ASP623  PHE694  ASN695  SER759  ASP760  ASP761  ALA762  ILE779  LEU786  VAL792 
 PHE793  MET794  SER795  GLU796  ALA797  LYS798  CYS799  TRP800  GLU811  SER814 

> <Gold.Protein.RotatedAtoms>
  152.1031  134.9327  160.0568 H   0  0  0  0  0  0  0  0  0  0  0  0  # atno 6907 bound_to 6896
  152.0534  133.4024  159.4395 H   0  0  0  0  0  0  0  0  0  0  0  0  # atno 6908 bound_to 6896
  150.6840  134.3203  159.4827 H   0  0  0  0  0  0  0  0  0  0  0  0  # atno 6909 bound_to 6896
  145.6391  140.9316  143.1046 H   0  0  0  0  0  0  0  0  0  0  0  0  # atno 7974 bound_to 7965
  154.4507  140.1942  156.0527 H   0  0  0  0  0  0  0  0  0  0  0  0  # atno 8008 bound_to 7997
  156.0642  140.3293  155.7470 H   0  0  0  0  0  0  0  0  0  0  0  0  # atno 8009 bound_to 7997
  155.5365  140.0582  157.2869 H   0  0  0  0  0  0  0  0  0  0  0  0  # atno 8010 bound_to 7997
  140.6048  143.2371  151.5845 H   0  0  0  0  0  0  0  0  0  0  0  0  # atno 10167 bound_to 10162
  156.8740  130.5630  149.5656 H   0  0  0  0  0  0  0  0  0  0  0  0  # atno 10718 bound_to 10713
  153.1438  135.4631  154.9536 H   0  0  0  0  0  0  0  0  0  0  0  0  # atno 10763 bound_to 10752
  154.7769  135.3176  154.8074 H   0  0  0  0  0  0  0  0  0  0  0  0  # atno 10764 bound_to 10752
  153.8592  135.6914  153.4838 H   0  0  0  0  0  0  0  0  0  0  0  0  # atno 10765 bound_to 10752
  140.4507  134.1227  155.7702 H   0  0  0  0  0  0  0  0  0  0  0  0  # atno 11005 bound_to 11000
  144.7164  139.8181  143.7397 LP  0  0  0  0  0  0  0  0  0  0  0  0  # atno 17320 bound_to 7965
  146.1296  139.4328  143.0177 LP  0  0  0  0  0  0  0  0  0  0  0  0  # atno 17321 bound_to 7965
  139.5317  144.2896  152.1163 LP  0  0  0  0  0  0  0  0  0  0  0  0  # atno 17342 bound_to 10162
  140.2084  144.4587  150.6397 LP  0  0  0  0  0  0  0  0  0  0  0  0  # atno 17343 bound_to 10162
  156.0711  130.5744  150.9386 LP  0  0  0  0  0  0  0  0  0  0  0  0  # atno 17370 bound_to 10713
  157.6179  131.0932  150.8676 LP  0  0  0  0  0  0  0  0  0  0  0  0  # atno 17371 bound_to 10713
  141.1665  133.8692  157.1699 LP  0  0  0  0  0  0  0  0  0  0  0  0  # atno 17394 bound_to 11000
  140.0008  135.0028  157.0186 LP  0  0  0  0  0  0  0  0  0  0  0  0  # atno 17395 bound_to 11000

$$$$
