AV-unprocessed.smi:175|AV-procd|sdf|1431|dock7
  -GOLD-   2262019213D 1   1.00000     0.00000
 Structure written by MMmdl.
 47 50  0  0  0  0  0  0  0  0  1 V2000
  143.9621  131.9439  149.2588 C   0  0  0  0  0  0  0  0  0  0  0  0
  144.3801  132.9931  150.3021 C   0  0  2  0  0  0  0  0  0  0  0  0
  144.3127  134.2989  149.7459 O   0  0  0  0  0  0  0  0  0  0  0  0
  145.0958  135.1451  150.5678 C   0  0  0  0  0  0  0  0  0  0  0  0
  146.3437  134.3066  150.8117 C   0  0  0  0  0  0  0  0  0  0  0  0
  145.8127  132.8722  150.8889 C   0  0  2  0  0  0  0  0  0  0  0  0
  146.6449  132.0490  150.0884 O   0  0  0  0  0  0  0  0  0  0  0  0
  145.8324  132.3258  152.3384 C   0  0  0  0  0  0  0  0  0  0  0  0
  147.1652  132.2601  152.9191 N   0  0  0  0  0  0  0  0  0  0  0  0
  148.0611  133.2978  153.0551 C   0  0  0  0  0  0  0  0  0  0  0  0
  149.1967  132.9851  153.6179 N   0  0  0  0  0  0  0  0  0  0  0  0
  149.0778  131.6264  153.8782 C   0  0  0  0  0  0  0  0  0  0  0  0
  149.9299  130.6580  154.4681 C   0  0  0  0  0  0  0  0  0  0  0  0
  151.1617  130.9740  154.9254 N   0  0  0  0  0  0  0  0  0  0  0  0
  151.2017  131.9483  156.0163 C   0  0  0  0  0  0  0  0  0  0  0  0
  152.1466  131.3031  157.0103 C   0  0  0  0  0  0  0  0  0  0  0  0
  152.4631  131.8254  158.0779 O   0  0  0  0  0  0  0  0  0  0  0  0
  152.5645  130.1241  156.5464 N   0  0  0  0  0  0  0  0  0  0  0  0
  153.4922  129.2041  157.2006 C   0  0  0  0  0  0  0  0  0  0  0  0
  154.7670  128.9682  156.3710 C   0  0  0  0  0  0  0  0  0  0  0  0
  155.6841  128.3857  157.1424 F   0  0  0  0  0  0  0  0  0  0  0  0
  154.5248  128.1731  155.3292 F   0  0  0  0  0  0  0  0  0  0  0  0
  155.2558  130.1285  155.9329 F   0  0  0  0  0  0  0  0  0  0  0  0
  152.0173  129.8276  155.2333 C   0  0  0  0  0  0  0  0  0  0  0  0
  149.4788  129.3787  154.5557 N   0  0  0  0  0  0  0  0  0  0  0  0
  148.2623  129.0694  154.0964 C   0  0  0  0  0  0  0  0  0  0  0  0
  147.3567  129.8678  153.5257 N   0  0  0  0  0  0  0  0  0  0  0  0
  147.8111  131.1516  153.4385 C   0  0  0  0  0  0  0  0  0  0  0  0
  144.0207  130.9356  149.6695 H   0  0  0  0  0  0  0  0  0  0  0  0
  144.5959  131.9859  148.3727 H   0  0  0  0  0  0  0  0  0  0  0  0
  142.9346  132.1102  148.9348 H   0  0  0  0  0  0  0  0  0  0  0  0
  143.6539  132.9794  151.1158 H   0  0  0  0  0  0  0  0  0  0  0  0
  145.3140  136.0948  150.0792 H   0  0  0  0  0  0  0  0  0  0  0  0
  144.5687  135.3476  151.5015 H   0  0  0  0  0  0  0  0  0  0  0  0
  147.0167  134.4297  149.9611 H   0  0  0  0  0  0  0  0  0  0  0  0
  146.8871  134.6202  151.7037 H   0  0  0  0  0  0  0  0  0  0  0  0
  147.4844  131.9649  150.5139 H   0  0  0  0  0  0  0  0  0  0  0  0
  145.2088  132.9448  152.9849 H   0  0  0  0  0  0  0  0  0  0  0  0
  145.3992  131.3250  152.3683 H   0  0  0  0  0  0  0  0  0  0  0  0
  147.8436  134.3036  152.7268 H   0  0  0  0  0  0  0  0  0  0  0  0
  151.6109  132.8947  155.6621 H   0  0  0  0  0  0  0  0  0  0  0  0
  150.2315  132.1377  156.4784 H   0  0  0  0  0  0  0  0  0  0  0  0
  153.7607  129.6073  158.1780 H   0  0  0  0  0  0  0  0  0  0  0  0
  152.9894  128.2546  157.3917 H   0  0  0  0  0  0  0  0  0  0  0  0
  151.4791  128.8778  155.2514 H   0  0  0  0  0  0  0  0  0  0  0  0
  152.8173  129.7543  154.4957 H   0  0  0  0  0  0  0  0  0  0  0  0
  147.9730  128.0341  154.2012 H   0  0  0  0  0  0  0  0  0  0  0  0
  1  2  1  0  0  0  0
  1 29  1  0  0  0  0
  1 30  1  0  0  0  0
  1 31  1  0  0  0  0
  2  6  1  0  0  0  0
  2  3  1  0  0  0  0
  2 32  1  0  0  0  0
  3  4  1  0  0  0  0
  4  5  1  0  0  0  0
  4 33  1  0  0  0  0
  4 34  1  0  0  0  0
  5  6  1  0  0  0  0
  5 35  1  0  0  0  0
  5 36  1  0  0  0  0
  6  7  1  0  0  0  0
  6  8  1  0  0  0  0
  7 37  1  0  0  0  0
  8  9  1  0  0  0  0
  8 38  1  0  0  0  0
  8 39  1  0  0  0  0
  9 28  1  0  0  0  0
  9 10  1  0  0  0  0
 10 11  2  0  0  0  0
 10 40  1  0  0  0  0
 11 12  1  0  0  0  0
 12 28  2  0  0  0  0
 12 13  1  0  0  0  0
 13 14  1  0  0  0  0
 13 25  2  0  0  0  0
 14 24  1  0  0  0  0
 14 15  1  0  0  0  0
 15 16  1  0  0  0  0
 15 41  1  0  0  0  0
 15 42  1  0  0  0  0
 16 17  2  0  0  0  0
 16 18  1  0  0  0  0
 18 19  1  0  0  0  0
 18 24  1  0  0  0  0
 19 20  1  0  0  0  0
 19 43  1  0  0  0  0
 19 44  1  0  0  0  0
 20 21  1  0  0  0  0
 20 22  1  0  0  0  0
 20 23  1  0  0  0  0
 24 45  1  0  0  0  0
 24 46  1  0  0  0  0
 25 26  1  0  0  0  0
 26 27  2  0  0  0  0
 26 47  1  0  0  0  0
 27 28  1  0  0  0  0
M  END
> <s_m_source_file>
AV-unprocessed.smi

> <i_m_source_file_index>
175

> <i_lp_mmshare_version>
43012

> <i_f3d_flags>
0

> <s_epik_input>
W0NIMl0xW0NIMl1PW0NAQEhdKFtDSDNdKVtDQEBdMShbT0hdKVtDSDJdbihbY0hdbjIpYyhjMjMpbltjSF1uYzNONFtDSDJdQyg9TylOKFtDSDJdNClbQ0gyXUMoRikoRilG

> <s_epik_cmdline>
J2VwaWtfcHl0aG9uJywgJy1waCcsICc3LjAnLCAnLXRuJywgJzgnLCAnLW1hJywgJzIwMCcsICctbWV0YWxfYmluZGluZycsICctaW1hZScsICc8aW5maWxlLm1hZT4nLCAnLW9tYWUnLCAnPG91dGZpbGUubWFlPic=

> <r_lp_tautomer_probability>
1

> <r_epik_Ionization_Penalty>
0.000307802

> <r_epik_Ionization_Penalty_Charging>
0

> <r_epik_Ionization_Penalty_Neutral>
0.000307802

> <r_epik_State_Penalty>
-0

> <r_epik_Charging_Adjusted_Penalty>
0

> <i_epik_Tot_Q>
0

> <i_epik_Tot_abs_Q>
0

> <r_epik_Metal_State_Penalty>
-0

> <b_epik_Metal_Only>
0

> <s_epik_Chemistry_Notes>
This compound contains an acetal/aminal-like group ( X-CH(R)-Y where X, Y are N, S, or O) that may be acid/base labile, releasing an aldehyde.

> <s_lp_Force_Field>
OPLS_2005

> <r_lp_Energy>
38.2687

> <b_lp_Chiralities_Consistent>
1

> <s_lp_Variant>
AV-unprocessed.smi:175-3

> <Gold.Version>
5.8.1

> <Gold.Id.Protein>
6NUR|6NUR_protein|mol2

> <Gold.PLP.Fitness>
44.7566

> <Gold.PLP.PLP>
-37.4475

> <Gold.PLP.part.hbond>
-1.9897

> <Gold.PLP.part.metal>
0.0000

> <Gold.PLP.part.buried>
-3.3414

> <Gold.PLP.part.nonpolar>
-33.5710

> <Gold.PLP.part.repulsive>
0.8680

> <Gold.PLP.ligand.clash>
0.0007

> <Gold.PLP.ligand.torsion>
0.3014

> <Gold.PLP.Chemscore.Hbond>
1.5756

> <Gold.PLP.Chemscore.CHOScore>
1.0000

> <Gold.PLP.Chemscore.Metal>
0.0000

> <Gold.Chemscore.Hbonds>
donor molecule, donor type, donor heavy atom, donor atom, acceptor molecule, acceptor atom, score
      L1  H     7    37       P1 10747  0.69
      P1  H  6896  6907       L1    17  1.00
      L1  C    10    40       P1  7948  1.00

> <Gold.PLP.Chemscore.Internal.Correction>
0.1857

> <Gold.Rescore>
     Score         DG    S(hbond)    S(metal)    S(lipo)     H(rot)  DE(clash)    DE(int)     intcor
      7.49      -8.20       1.22        0.00      55.13       3.05       0.26       0.45       ----

> <Gold.Chemscore.Fitness>
7.4929

> <Gold.Chemscore.DG>
-8.1998

> <Gold.Chemscore.ZeroCoef>
-5.4800

> <Gold.Chemscore.Hbond>
1.2199

> <Gold.Chemscore.Metal>
0.0000

> <Gold.Chemscore.Lipo>
55.1277

> <Gold.Chemscore.Internal_Hbond>
0.0000

> <Gold.Chemscore.DEClash>
0.2609

> <Gold.Chemscore.DEInternal>
0.4461

> <Gold.Chemscore.Rot>
3.0487

> <Gold.Chemscore.Internal.Correction>
   9.000000E+99

> <Gold.Chemscore.Hbonds>
donor molecule, donor type, donor heavy atom, donor atom, acceptor molecule, acceptor atom, score
      L1  H     7    37       P1 10747  0.68
      P1  H  6896  6907       L1    17  0.94

> <Gold.Chemscore.Hbond.Weighted>
-4.0745

> <Gold.Chemscore.Metal.Weighted>
-0.0000

> <Gold.Chemscore.Lipo.Weighted>
-6.4499

> <Gold.Chemscore.Internal_Hbond.Weighted>
0.0000

> <Gold.Chemscore.DEClash.Weighted>
0.2609

> <Gold.Chemscore.DEInternal.Weighted>
0.4461

> <Gold.Chemscore.Rot.Weighted>
7.8046

> <Gold.Chemscore.Internal.Correction.Weighted>
   9.000000E+99

> <Gold.Protein.RotatedTorsions>
[ 6907 6896 6895 6894 ] final  163.11 input  -60.11 | X-H torsion
[ 7974 7965 7964 7962 ] final   14.70 input  175.53 | X-H torsion
[ 8008 7997 7996 7995 ] final   70.83 input   59.86 | X-H torsion
[ 10167 10162 10161 10158 ] final  -13.78 input  -65.29 | X-H torsion
[ 10718 10713 10712 10709 ] final -179.77 input   66.30 | X-H torsion
[ 10763 10752 10751 10750 ] final  -76.41 input  -60.55 | X-H torsion
[ 11005 11000 10999 10996 ] final  149.87 input  -57.11 | X-H torsion

> <Gold.Protein.ActiveResidues>
 VAL166  LYS551  ARG553  GLY616  TRP617  ASP618  TYR619  PRO620  LYS621  CYS622 
 ASP623  PHE694  ASN695  SER759  ASP760  ASP761  ALA762  ILE779  LEU786  VAL792 
 PHE793  MET794  SER795  GLU796  ALA797  LYS798  CYS799  TRP800  GLU811  SER814 

> <Gold.Protein.RotatedAtoms>
  151.9302  133.3609  159.3927 H   0  0  0  0  0  0  0  0  0  0  0  0  # atno 6907 bound_to 6896
  150.7019  134.4546  159.5361 H   0  0  0  0  0  0  0  0  0  0  0  0  # atno 6908 bound_to 6896
  152.2185  134.8435  160.0539 H   0  0  0  0  0  0  0  0  0  0  0  0  # atno 6909 bound_to 6896
  146.2298  139.9002  142.8540 H   0  0  0  0  0  0  0  0  0  0  0  0  # atno 7974 bound_to 7965
  155.7447  140.3489  155.5121 H   0  0  0  0  0  0  0  0  0  0  0  0  # atno 8008 bound_to 7997
  155.9061  140.1042  157.1335 H   0  0  0  0  0  0  0  0  0  0  0  0  # atno 8009 bound_to 7997
  154.4050  140.1277  156.4485 H   0  0  0  0  0  0  0  0  0  0  0  0  # atno 8010 bound_to 7997
  140.7189  143.5390  150.9431 H   0  0  0  0  0  0  0  0  0  0  0  0  # atno 10167 bound_to 10162
  156.8640  130.9761  151.3080 H   0  0  0  0  0  0  0  0  0  0  0  0  # atno 10718 bound_to 10713
  154.4995  135.5798  153.6520 H   0  0  0  0  0  0  0  0  0  0  0  0  # atno 10763 bound_to 10752
  152.9876  135.6132  154.3021 H   0  0  0  0  0  0  0  0  0  0  0  0  # atno 10764 bound_to 10752
  154.2928  135.2848  155.2626 H   0  0  0  0  0  0  0  0  0  0  0  0  # atno 10765 bound_to 10752
  140.1082  134.8941  157.1897 H   0  0  0  0  0  0  0  0  0  0  0  0  # atno 11005 bound_to 11000
  145.2331  140.9980  143.3979 LP  0  0  0  0  0  0  0  0  0  0  0  0  # atno 17320 bound_to 7965
  144.9514  139.4079  143.6400 LP  0  0  0  0  0  0  0  0  0  0  0  0  # atno 17321 bound_to 7965
  139.9112  143.6718  152.3115 LP  0  0  0  0  0  0  0  0  0  0  0  0  # atno 17342 bound_to 10162
  139.7102  144.7621  151.1125 LP  0  0  0  0  0  0  0  0  0  0  0  0  # atno 17343 bound_to 10162
  157.6234  130.8672  149.9147 LP  0  0  0  0  0  0  0  0  0  0  0  0  # atno 17370 bound_to 10713
  156.0761  130.3678  150.0674 LP  0  0  0  0  0  0  0  0  0  0  0  0  # atno 17371 bound_to 10713
  140.3127  134.3005  155.7263 LP  0  0  0  0  0  0  0  0  0  0  0  0  # atno 17394 bound_to 11000
  141.2123  133.7661  156.9800 LP  0  0  0  0  0  0  0  0  0  0  0  0  # atno 17395 bound_to 11000

$$$$
