AV-unprocessed.smi:1056|AV-procd|sdf|4648|dock7
  -GOLD-   22720 3153D 1   1.00000     0.00000
 Structure written by MMmdl.
 45 47  0  0  0  0  0  0  0  0  4 V2000
  152.1484  144.7696  160.2150 C   0  0  0  0  0  0  0  0  0  0  0  0
  151.9518  143.5783  159.2927 C   0  0  0  0  0  0  0  0  0  0  0  0
  151.1229  143.7327  158.1587 C   0  0  0  0  0  0  0  0  0  0  0  0
  150.9622  142.6251  157.3347 C   0  0  0  0  0  0  0  0  0  0  0  0
  150.2211  142.4576  156.1632 N   0  3  0  0  0  0  0  0  0  0  0  0
  150.3726  141.1833  155.7075 C   0  0  0  0  0  0  0  0  0  0  0  0
  151.2004  140.5335  156.5704 N   0  0  0  0  0  0  0  0  0  0  0  0
  151.6909  139.1472  156.5362 C   0  0  0  0  0  0  0  0  0  0  0  0
  152.1524  138.7027  155.1335 C   0  0  2  0  0  0  0  0  0  0  0  0
  153.0816  139.6406  154.6240 O   0  0  0  0  0  0  0  0  0  0  0  0
  150.9623  138.5968  154.1577 C   0  0  0  0  0  0  0  0  0  0  0  0
  150.0876  137.4308  154.4397 N   0  3  1  0  0  0  0  0  0  0  0  0
  150.8137  136.2608  154.9999 C   0  0  0  0  0  0  0  0  0  0  0  0
  149.9132  135.0110  154.9698 C   0  0  0  0  0  0  0  0  0  0  0  0
  148.5833  135.3274  155.5046 N   0  5  0  0  0  0  0  0  0  0  0  0
  148.0085  136.5686  155.5777 C   0  0  0  0  0  0  0  0  0  0  0  0
  146.8462  136.7980  155.9048 O   0  0  0  0  0  0  0  0  0  0  0  0
  148.9082  137.7965  155.2722 C   0  0  0  0  0  0  0  0  0  0  0  0
  151.5935  141.3947  157.6028 C   0  0  0  0  0  0  0  0  0  0  0  0
  152.4135  141.2265  158.7165 C   0  0  0  0  0  0  0  0  0  0  0  0
  152.5887  142.3407  159.5680 C   0  0  0  0  0  0  0  0  0  0  0  0
  153.4769  142.1855  160.7908 C   0  0  0  0  0  0  0  0  0  0  0  0
  151.5671  145.6307  159.8841 H   0  0  0  0  0  0  0  0  0  0  0  0
  153.1976  145.0648  160.2388 H   0  0  0  0  0  0  0  0  0  0  0  0
  151.8334  144.5262  161.2299 H   0  0  0  0  0  0  0  0  0  0  0  0
  150.6349  144.6720  157.9430 H   0  0  0  0  0  0  0  0  0  0  0  0
  149.9196  140.7658  154.8197 H   0  0  0  0  0  0  0  0  0  0  0  0
  152.5271  139.0898  157.2343 H   0  0  0  0  0  0  0  0  0  0  0  0
  150.9213  138.4833  156.9310 H   0  0  0  0  0  0  0  0  0  0  0  0
  152.6586  137.7423  155.2278 H   0  0  0  0  0  0  0  0  0  0  0  0
  153.0495  139.6232  153.6796 H   0  0  0  0  0  0  0  0  0  0  0  0
  150.3587  139.5053  154.1872 H   0  0  0  0  0  0  0  0  0  0  0  0
  151.3538  138.5274  153.1413 H   0  0  0  0  0  0  0  0  0  0  0  0
  151.7227  136.0549  154.4363 H   0  0  0  0  0  0  0  0  0  0  0  0
  151.1240  136.4820  156.0226 H   0  0  0  0  0  0  0  0  0  0  0  0
  149.8413  134.6621  153.9395 H   0  0  0  0  0  0  0  0  0  0  0  0
  150.3951  134.2058  155.5237 H   0  0  0  0  0  0  0  0  0  0  0  0
  149.2397  138.2320  156.2161 H   0  0  0  0  0  0  0  0  0  0  0  0
  148.3151  138.5517  154.7547 H   0  0  0  0  0  0  0  0  0  0  0  0
  152.8945  140.2838  158.9311 H   0  0  0  0  0  0  0  0  0  0  0  0
  153.9061  141.1848  160.8481 H   0  0  0  0  0  0  0  0  0  0  0  0
  152.9049  142.3554  161.7032 H   0  0  0  0  0  0  0  0  0  0  0  0
  154.3004  142.8991  160.7590 H   0  0  0  0  0  0  0  0  0  0  0  0
  149.7078  137.1288  153.5544 H   0  0  0  0  0  0  0  0  0  0  0  0
  149.6547  143.1606  155.7054 H   0  0  0  0  0  0  0  0  0  0  0  0
  1  2  1  0  0  0  0
  1 23  1  0  0  0  0
  1 24  1  0  0  0  0
  1 25  1  0  0  0  0
  2 21  1  0  0  0  0
  2  3  2  0  0  0  0
  3  4  1  0  0  0  0
  3 26  1  0  0  0  0
  4 19  2  0  0  0  0
  4  5  1  0  0  0  0
  5  6  2  0  0  0  0
  5 45  1  0  0  0  0
  6  7  1  0  0  0  0
  6 27  1  0  0  0  0
  7  8  1  0  0  0  0
  7 19  1  0  0  0  0
  8  9  1  0  0  0  0
  8 28  1  0  0  0  0
  8 29  1  0  0  0  0
  9 10  1  0  0  0  0
  9 11  1  0  0  0  0
  9 30  1  0  0  0  0
 10 31  1  0  0  0  0
 11 12  1  0  0  0  0
 11 32  1  0  0  0  0
 11 33  1  0  0  0  0
 12 18  1  0  0  0  0
 12 13  1  0  0  0  0
 12 44  1  0  0  0  0
 13 14  1  0  0  0  0
 13 34  1  0  0  0  0
 13 35  1  0  0  0  0
 14 15  1  0  0  0  0
 14 36  1  0  0  0  0
 14 37  1  0  0  0  0
 15 16  1  0  0  0  0
 16 17  2  0  0  0  0
 16 18  1  0  0  0  0
 18 38  1  0  0  0  0
 18 39  1  0  0  0  0
 19 20  1  0  0  0  0
 20 21  2  0  0  0  0
 20 40  1  0  0  0  0
 21 22  1  0  0  0  0
 22 41  1  0  0  0  0
 22 42  1  0  0  0  0
 22 43  1  0  0  0  0
M  CHG  1   5   1
M  CHG  1  12   1
M  CHG  1  15  -1
M  END
> <s_m_source_file>
AV-unprocessed.smi

> <i_m_source_file_index>
1056

> <i_lp_mmshare_version>
43012

> <i_f3d_flags>
0

> <s_epik_input>
W0NIM11jKFtjSF0xKWMoW0NIM10pW2NIXWMoYzEyKW4oW2NIXW4yKVtDSDJdW0NASF0oW09IXSlbQ0gyXU4zW0NIMl1bQ0gyXVtOSF1DKD1PKVtDSDJdMw==

> <s_epik_cmdline>
J2VwaWtfcHl0aG9uJywgJy1waCcsICc3LjAnLCAnLXRuJywgJzgnLCAnLW1hJywgJzIwMCcsICctbWV0YWxfYmluZGluZycsICctaW1hZScsICc8aW5maWxlLm1hZT4nLCAnLW9tYWUnLCAnPG91dGZpbGUubWFlPic=

> <r_epik_Ionization_Penalty>
6.22415

> <r_epik_Ionization_Penalty_Charging>
6.22415

> <r_epik_Ionization_Penalty_Neutral>
4.02797e-07

> <r_epik_State_Penalty>
6.37716

> <r_epik_Charging_Adjusted_Penalty>
12.6013

> <i_epik_Tot_Q>
1

> <i_epik_Tot_abs_Q>
3

> <r_epik_Metal_State_Penalty>
2.53509

> <b_epik_Metal_Only>
1

> <s_lp_Force_Field>
OPLS_2005

> <r_lp_Energy>
27.8537

> <b_lp_Chiralities_Consistent>
1

> <s_lp_Variant>
AV-unprocessed.smi:1056-19

> <Gold.Version>
5.8.1

> <Gold.Id.Protein>
6NUR|6NUR_protein|mol2

> <Gold.PLP.Fitness>
59.3811

> <Gold.PLP.PLP>
-45.7892

> <Gold.PLP.part.hbond>
-4.0000

> <Gold.PLP.part.metal>
0.0000

> <Gold.PLP.part.buried>
-6.8089

> <Gold.PLP.part.nonpolar>
-36.0946

> <Gold.PLP.part.repulsive>
0.2375

> <Gold.PLP.ligand.clash>
0.0000

> <Gold.PLP.ligand.torsion>
0.7226

> <Gold.PLP.Chemscore.Hbond>
5.0000

> <Gold.PLP.Chemscore.CHOScore>
0.0000

> <Gold.PLP.Chemscore.Metal>
0.0000

> <Gold.Chemscore.Hbonds>
donor molecule, donor type, donor heavy atom, donor atom, acceptor molecule, acceptor atom, score
      L1  H     5    45       P1  8028  2.00
      L1  H    12    44       P1  7948  2.00
      P1  H  7997  8009       L1    10  1.00

> <Gold.PLP.Chemscore.Internal.Correction>
0.0370

> <Gold.Rescore>
     Score         DG    S(hbond)    S(metal)    S(lipo)     H(rot)  DE(clash)    DE(int)     intcor
     21.46     -22.16       2.81        0.00     114.24       2.37       0.13       0.57       ----

> <Gold.Chemscore.Fitness>
21.4566

> <Gold.Chemscore.DG>
-22.1567

> <Gold.Chemscore.ZeroCoef>
-5.4800

> <Gold.Chemscore.Hbond>
2.8096

> <Gold.Chemscore.Metal>
0.0000

> <Gold.Chemscore.Lipo>
114.2389

> <Gold.Chemscore.Internal_Hbond>
0.0000

> <Gold.Chemscore.DEClash>
0.1282

> <Gold.Chemscore.DEInternal>
0.5719

> <Gold.Chemscore.Rot>
2.3724

> <Gold.Chemscore.Internal.Correction>
   9.000000E+99

> <Gold.Chemscore.Hbonds>
donor molecule, donor type, donor heavy atom, donor atom, acceptor molecule, acceptor atom, score
      L1  H     5    45       P1  8028  0.96
      L1  H    12    44       P1  7948  0.65
      P1  H  7997  8009       L1    10  0.94

> <Gold.Chemscore.Hbond.Weighted>
-9.3841

> <Gold.Chemscore.Metal.Weighted>
-0.0000

> <Gold.Chemscore.Lipo.Weighted>
-13.3659

> <Gold.Chemscore.Internal_Hbond.Weighted>
0.0000

> <Gold.Chemscore.DEClash.Weighted>
0.1282

> <Gold.Chemscore.DEInternal.Weighted>
0.5719

> <Gold.Chemscore.Rot.Weighted>
6.0734

> <Gold.Chemscore.Internal.Correction.Weighted>
   9.000000E+99

> <Gold.Protein.RotatedTorsions>
[ 6907 6896 6895 6894 ] final   53.78 input  -60.11 | X-H torsion
[ 7974 7965 7964 7962 ] final  128.15 input  175.53 | X-H torsion
[ 8008 7997 7996 7995 ] final -132.29 input   59.86 | X-H torsion
[ 10167 10162 10161 10158 ] final  138.29 input  -65.29 | X-H torsion
[ 10718 10713 10712 10709 ] final   78.65 input   66.30 | X-H torsion
[ 10763 10752 10751 10750 ] final  107.03 input  -60.55 | X-H torsion
[ 11005 11000 10999 10996 ] final  134.20 input  -57.11 | X-H torsion

> <Gold.Protein.ActiveResidues>
 VAL166  LYS551  ARG553  GLY616  TRP617  ASP618  TYR619  PRO620  LYS621  CYS622 
 ASP623  PHE694  ASN695  SER759  ASP760  ASP761  ALA762  ILE779  LEU786  VAL792 
 PHE793  MET794  SER795  GLU796  ALA797  LYS798  CYS799  TRP800  GLU811  SER814 

> <Gold.Protein.RotatedAtoms>
  152.3372  134.7182  160.0273 H   0  0  0  0  0  0  0  0  0  0  0  0  # atno 6907 bound_to 6896
  151.7579  133.3326  159.3418 H   0  0  0  0  0  0  0  0  0  0  0  0  # atno 6908 bound_to 6896
  150.7458  134.6064  159.6108 H   0  0  0  0  0  0  0  0  0  0  0  0  # atno 6909 bound_to 6896
  145.0427  139.3950  143.5094 H   0  0  0  0  0  0  0  0  0  0  0  0  # atno 7974 bound_to 7965
  155.3265  140.0465  157.3041 H   0  0  0  0  0  0  0  0  0  0  0  0  # atno 8008 bound_to 7997
  154.5352  140.2270  155.8701 H   0  0  0  0  0  0  0  0  0  0  0  0  # atno 8009 bound_to 7997
  156.1827  140.3070  155.9186 H   0  0  0  0  0  0  0  0  0  0  0  0  # atno 8010 bound_to 7997
  139.5115  144.6361  151.5691 H   0  0  0  0  0  0  0  0  0  0  0  0  # atno 10167 bound_to 10162
  157.6752  130.9878  150.1818 H   0  0  0  0  0  0  0  0  0  0  0  0  # atno 10718 bound_to 10713
  153.4011  135.3857  155.1988 H   0  0  0  0  0  0  0  0  0  0  0  0  # atno 10763 bound_to 10752
  154.8729  135.3771  154.4617 H   0  0  0  0  0  0  0  0  0  0  0  0  # atno 10764 bound_to 10752
  153.5114  135.7087  153.5840 H   0  0  0  0  0  0  0  0  0  0  0  0  # atno 10765 bound_to 10752
  139.9900  134.9518  156.9833 H   0  0  0  0  0  0  0  0  0  0  0  0  # atno 11005 bound_to 11000
  146.3511  140.0036  142.8674 LP  0  0  0  0  0  0  0  0  0  0  0  0  # atno 17320 bound_to 7965
  145.1627  140.9681  143.4367 LP  0  0  0  0  0  0  0  0  0  0  0  0  # atno 17321 bound_to 7965
  140.6111  143.9434  150.6454 LP  0  0  0  0  0  0  0  0  0  0  0  0  # atno 17342 bound_to 10162
  140.2677  143.3478  152.1266 LP  0  0  0  0  0  0  0  0  0  0  0  0  # atno 17343 bound_to 10162
  156.2549  130.3704  149.8192 LP  0  0  0  0  0  0  0  0  0  0  0  0  # atno 17370 bound_to 10713
  156.5955  130.8524  151.3419 LP  0  0  0  0  0  0  0  0  0  0  0  0  # atno 17371 bound_to 10713
  140.4927  134.1176  155.7236 LP  0  0  0  0  0  0  0  0  0  0  0  0  # atno 17394 bound_to 11000
  141.1557  133.8886  157.1982 LP  0  0  0  0  0  0  0  0  0  0  0  0  # atno 17395 bound_to 11000

$$$$
