AV-unprocessed.smi:341|AV-procd|sdf|2383|dock8
  -GOLD-   2262022313D 1   1.00000     0.00000
 Structure written by MMmdl.
 44 46  0  0  0  0  0  0  0  0  1 V2000
  150.4559  140.4923  155.0851 C   0  0  0  0  0  0  0  0  0  0  0  0
  150.0449  141.2657  156.3444 C   0  0  0  0  0  0  0  0  0  0  0  0
  150.9387  140.9699  157.4613 N   0  0  0  0  0  0  0  0  0  0  0  0
  151.3585  139.7451  157.8571 C   0  0  0  0  0  0  0  0  0  0  0  0
  151.0674  138.6737  157.3257 O   0  0  0  0  0  0  0  0  0  0  0  0
  152.1532  139.9030  158.9420 N   0  0  0  0  0  0  0  0  0  0  0  0
  152.8257  138.8416  159.6906 C   0  0  0  0  0  0  0  0  0  0  0  0
  153.5019  137.8208  158.7528 C   0  0  1  0  0  0  0  0  0  0  0  0
  154.3033  138.5403  157.8365 O   0  0  0  0  0  0  0  0  0  0  0  0
  154.4324  136.8669  159.5206 C   0  0  0  0  0  0  0  0  0  0  0  0
  153.7241  136.3310  160.6307 O   0  0  0  0  0  0  0  0  0  0  0  0
  154.0598  136.7684  161.8940 C   0  0  0  0  0  0  0  0  0  0  0  0
  154.6217  138.0577  161.9955 C   0  0  0  0  0  0  0  0  0  0  0  0
  154.9953  138.5866  163.2459 C   0  0  0  0  0  0  0  0  0  0  0  0
  154.8096  137.8257  164.4166 C   0  0  0  0  0  0  0  0  0  0  0  0
  155.1941  138.3683  165.7088 C   0  0  0  0  0  0  0  0  0  0  0  0
  155.5005  138.8003  166.7376 N   0  0  0  0  0  0  0  0  0  0  0  0
  154.2491  136.5362  164.3290 C   0  0  0  0  0  0  0  0  0  0  0  0
  153.8761  136.0088  163.0771 C   0  0  0  0  0  0  0  0  0  0  0  0
  152.2417  141.2681  159.2512 C   0  0  0  0  0  0  0  0  0  0  0  0
  152.9348  141.9439  160.2710 C   0  0  0  0  0  0  0  0  0  0  0  0
  152.8147  143.3527  160.3111 C   0  0  0  0  0  0  0  0  0  0  0  0
  152.0236  144.0424  159.3559 C   0  0  0  0  0  0  0  0  0  0  0  0
  151.3372  143.3379  158.3393 C   0  0  0  0  0  0  0  0  0  0  0  0
  151.4758  141.9390  158.3208 C   0  0  0  0  0  0  0  0  0  0  0  0
  149.7867  140.7186  154.2551 H   0  0  0  0  0  0  0  0  0  0  0  0
  150.4221  139.4156  155.2549 H   0  0  0  0  0  0  0  0  0  0  0  0
  151.4688  140.7517  154.7754 H   0  0  0  0  0  0  0  0  0  0  0  0
  150.0490  142.3371  156.1386 H   0  0  0  0  0  0  0  0  0  0  0  0
  149.0200  141.0154  156.6194 H   0  0  0  0  0  0  0  0  0  0  0  0
  153.5402  139.2567  160.4025 H   0  0  0  0  0  0  0  0  0  0  0  0
  152.0704  138.3391  160.2969 H   0  0  0  0  0  0  0  0  0  0  0  0
  152.7472  137.2425  158.2178 H   0  0  0  0  0  0  0  0  0  0  0  0
  154.3917  138.0270  157.0481 H   0  0  0  0  0  0  0  0  0  0  0  0
  154.8110  136.0815  158.8636 H   0  0  0  0  0  0  0  0  0  0  0  0
  155.2895  137.4238  159.9025 H   0  0  0  0  0  0  0  0  0  0  0  0
  154.7678  138.6489  161.1033 H   0  0  0  0  0  0  0  0  0  0  0  0
  155.4238  139.5773  163.2993 H   0  0  0  0  0  0  0  0  0  0  0  0
  154.1017  135.9436  165.2208 H   0  0  0  0  0  0  0  0  0  0  0  0
  153.4505  135.0173  163.0520 H   0  0  0  0  0  0  0  0  0  0  0  0
  153.5356  141.4151  160.9958 H   0  0  0  0  0  0  0  0  0  0  0  0
  153.3310  143.9097  161.0788 H   0  0  0  0  0  0  0  0  0  0  0  0
  151.9445  145.1182  159.4054 H   0  0  0  0  0  0  0  0  0  0  0  0
  150.7330  143.8575  157.6106 H   0  0  0  0  0  0  0  0  0  0  0  0
  1  2  1  0  0  0  0
  1 26  1  0  0  0  0
  1 27  1  0  0  0  0
  1 28  1  0  0  0  0
  2  3  1  0  0  0  0
  2 29  1  0  0  0  0
  2 30  1  0  0  0  0
  3 25  1  0  0  0  0
  3  4  1  0  0  0  0
  4  5  2  0  0  0  0
  4  6  1  0  0  0  0
  6  7  1  0  0  0  0
  6 20  1  0  0  0  0
  7  8  1  0  0  0  0
  7 31  1  0  0  0  0
  7 32  1  0  0  0  0
  8  9  1  0  0  0  0
  8 10  1  0  0  0  0
  8 33  1  0  0  0  0
  9 34  1  0  0  0  0
 10 11  1  0  0  0  0
 10 35  1  0  0  0  0
 10 36  1  0  0  0  0
 11 12  1  0  0  0  0
 12 19  1  0  0  0  0
 12 13  2  0  0  0  0
 13 14  1  0  0  0  0
 13 37  1  0  0  0  0
 14 15  2  0  0  0  0
 14 38  1  0  0  0  0
 15 16  1  0  0  0  0
 15 18  1  0  0  0  0
 16 17  3  0  0  0  0
 18 19  2  0  0  0  0
 18 39  1  0  0  0  0
 19 40  1  0  0  0  0
 20 25  2  0  0  0  0
 20 21  1  0  0  0  0
 21 22  2  0  0  0  0
 21 41  1  0  0  0  0
 22 23  1  0  0  0  0
 22 42  1  0  0  0  0
 23 24  2  0  0  0  0
 23 43  1  0  0  0  0
 24 25  1  0  0  0  0
 24 44  1  0  0  0  0
M  END
> <s_m_source_file>
AV-unprocessed.smi

> <i_m_source_file_index>
341

> <i_lp_mmshare_version>
43012

> <i_f3d_flags>
0

> <s_epik_input>
W2NIXTFbY0hdW2NIXVtjSF1jKGMxMiluKFtDSDJdW0NIM10pYyg9TyluMltDSDJdW0NASF0oW09IXSlbQ0gyXU9jM1tjSF1bY0hdYyhDI04pW2NIXVtjSF0z

> <s_epik_cmdline>
J2VwaWtfcHl0aG9uJywgJy1waCcsICc3LjAnLCAnLXRuJywgJzgnLCAnLW1hJywgJzIwMCcsICctbWV0YWxfYmluZGluZycsICctaW1hZScsICc8aW5maWxlLm1hZT4nLCAnLW9tYWUnLCAnPG91dGZpbGUubWFlPic=

> <r_lp_tautomer_probability>
1

> <r_epik_Ionization_Penalty>
2.40146e-06

> <r_epik_Ionization_Penalty_Charging>
2.16099e-09

> <r_epik_Ionization_Penalty_Neutral>
2.3993e-06

> <r_epik_State_Penalty>
-0

> <r_epik_Charging_Adjusted_Penalty>
2.16099e-09

> <i_epik_Tot_Q>
0

> <i_epik_Tot_abs_Q>
0

> <r_epik_Metal_State_Penalty>
-0

> <b_epik_Metal_Only>
0

> <s_lp_Force_Field>
OPLS_2005

> <r_lp_Energy>
47.9836

> <b_lp_Chiralities_Consistent>
1

> <s_lp_Variant>
AV-unprocessed.smi:341-2

> <Gold.Version>
5.8.1

> <Gold.Id.Protein>
6NUR|6NUR_protein|mol2

> <Gold.PLP.Fitness>
54.0837

> <Gold.PLP.PLP>
-50.8235

> <Gold.PLP.part.hbond>
-2.4944

> <Gold.PLP.part.metal>
0.0000

> <Gold.PLP.part.buried>
-5.9396

> <Gold.PLP.part.nonpolar>
-43.1558

> <Gold.PLP.part.repulsive>
0.1010

> <Gold.PLP.ligand.clash>
0.0000

> <Gold.PLP.ligand.torsion>
1.1721

> <Gold.PLP.Chemscore.Hbond>
1.8378

> <Gold.PLP.Chemscore.CHOScore>
0.0000

> <Gold.PLP.Chemscore.Metal>
0.0000

> <Gold.Chemscore.Hbonds>
donor molecule, donor type, donor heavy atom, donor atom, acceptor molecule, acceptor atom, score
      P1  H  6896  6908       L1    11  0.76
      P1  H  7997  8010       L1     9  0.65

> <Gold.PLP.Chemscore.Internal.Correction>
0.0911

> <Gold.Rescore>
     Score         DG    S(hbond)    S(metal)    S(lipo)     H(rot)  DE(clash)    DE(int)     intcor
     15.81     -20.37       1.74        0.00     131.87       2.48       0.00       4.56       ----

> <Gold.Chemscore.Fitness>
15.8124

> <Gold.Chemscore.DG>
-20.3732

> <Gold.Chemscore.ZeroCoef>
-5.4800

> <Gold.Chemscore.Hbond>
1.7379

> <Gold.Chemscore.Metal>
0.0000

> <Gold.Chemscore.Lipo>
131.8735

> <Gold.Chemscore.Internal_Hbond>
0.0000

> <Gold.Chemscore.DEClash>
0.0000

> <Gold.Chemscore.DEInternal>
4.5608

> <Gold.Chemscore.Rot>
2.4768

> <Gold.Chemscore.Internal.Correction>
   9.000000E+99

> <Gold.Chemscore.Hbonds>
donor molecule, donor type, donor heavy atom, donor atom, acceptor molecule, acceptor atom, score
      P1  H  6896  6908       L1    11  0.64
      P1  H  7997  8010       L1     9  0.07

> <Gold.Chemscore.Hbond.Weighted>
-5.8047

> <Gold.Chemscore.Metal.Weighted>
-0.0000

> <Gold.Chemscore.Lipo.Weighted>
-15.4292

> <Gold.Chemscore.Internal_Hbond.Weighted>
0.0000

> <Gold.Chemscore.DEClash.Weighted>
0.0000

> <Gold.Chemscore.DEInternal.Weighted>
4.5608

> <Gold.Chemscore.Rot.Weighted>
6.3407

> <Gold.Chemscore.Internal.Correction.Weighted>
   9.000000E+99

> <Gold.Protein.RotatedTorsions>
[ 6907 6896 6895 6894 ] final  -77.29 input  -60.11 | X-H torsion
[ 7974 7965 7964 7962 ] final -163.54 input  175.53 | X-H torsion
[ 8008 7997 7996 7995 ] final   28.25 input   59.86 | X-H torsion
[ 10167 10162 10161 10158 ] final -161.33 input  -65.29 | X-H torsion
[ 10718 10713 10712 10709 ] final -164.29 input   66.30 | X-H torsion
[ 10763 10752 10751 10750 ] final -146.82 input  -60.55 | X-H torsion
[ 11005 11000 10999 10996 ] final   15.00 input  -57.11 | X-H torsion

> <Gold.Protein.ActiveResidues>
 VAL166  LYS551  ARG553  GLY616  TRP617  ASP618  TYR619  PRO620  LYS621  CYS622 
 ASP623  PHE694  ASN695  SER759  ASP760  ASP761  ALA762  ILE779  LEU786  VAL792 
 PHE793  MET794  SER795  GLU796  ALA797  LYS798  CYS799  TRP800  GLU811  SER814 

> <Gold.Protein.RotatedAtoms>
  150.7003  134.4445  159.5307 H   0  0  0  0  0  0  0  0  0  0  0  0  # atno 6907 bound_to 6896
  152.2149  134.8464  160.0502 H   0  0  0  0  0  0  0  0  0  0  0  0  # atno 6908 bound_to 6896
  151.9336  133.3583  159.3976 H   0  0  0  0  0  0  0  0  0  0  0  0  # atno 6909 bound_to 6896
  144.7323  140.3091  143.6191 H   0  0  0  0  0  0  0  0  0  0  0  0  # atno 7974 bound_to 7965
  155.0557  140.3184  155.4677 H   0  0  0  0  0  0  0  0  0  0  0  0  # atno 8008 bound_to 7997
  156.2824  140.2138  156.5627 H   0  0  0  0  0  0  0  0  0  0  0  0  # atno 8009 bound_to 7997
  154.7174  140.0492  157.0595 H   0  0  0  0  0  0  0  0  0  0  0  0  # atno 8010 bound_to 7997
  139.6473  144.0149  152.2136 H   0  0  0  0  0  0  0  0  0  0  0  0  # atno 10167 bound_to 10162
  156.6369  130.8953  151.2988 H   0  0  0  0  0  0  0  0  0  0  0  0  # atno 10718 bound_to 10713
  154.8317  135.3376  154.6722 H   0  0  0  0  0  0  0  0  0  0  0  0  # atno 10763 bound_to 10752
  153.7341  135.6950  153.4987 H   0  0  0  0  0  0  0  0  0  0  0  0  # atno 10764 bound_to 10752
  153.2291  135.4422  155.0527 H   0  0  0  0  0  0  0  0  0  0  0  0  # atno 10765 bound_to 10752
  140.4632  134.1106  155.7720 H   0  0  0  0  0  0  0  0  0  0  0  0  # atno 11005 bound_to 11000
  145.7683  139.1848  143.2227 LP  0  0  0  0  0  0  0  0  0  0  0  0  # atno 17320 bound_to 7965
  146.0931  140.7632  142.9585 LP  0  0  0  0  0  0  0  0  0  0  0  0  # atno 17321 bound_to 7965
  139.9854  144.6399  150.7862 LP  0  0  0  0  0  0  0  0  0  0  0  0  # atno 17342 bound_to 10162
  140.7520  143.2983  151.3146 LP  0  0  0  0  0  0  0  0  0  0  0  0  # atno 17343 bound_to 10162
  157.7183  130.9525  150.1338 LP  0  0  0  0  0  0  0  0  0  0  0  0  # atno 17370 bound_to 10713
  156.2190  130.3672  149.8579 LP  0  0  0  0  0  0  0  0  0  0  0  0  # atno 17371 bound_to 10713
  141.1611  133.8790  157.1844 LP  0  0  0  0  0  0  0  0  0  0  0  0  # atno 17394 bound_to 11000
  139.9932  135.0057  157.0022 LP  0  0  0  0  0  0  0  0  0  0  0  0  # atno 17395 bound_to 11000

$$$$
