AV-unprocessed.smi:2712|AV-procd|sdf|10475|dock2
  -GOLD-   2272014513D 1   1.00000     0.00000
 Structure written by MMmdl.
 52 53  0  0  0  0  0  0  0  0  1 V2000
  151.5700  137.8694  159.3030 C   0  0  0  0  0  0  0  0  0  0  0  0
  151.3674  138.5537  157.9836 C   0  0  0  0  0  0  0  0  0  0  0  0
  151.2220  139.9910  157.8546 C   0  0  0  0  0  0  0  0  0  0  0  0
  151.0408  140.5305  156.6301 C   0  0  0  0  0  0  0  0  0  0  0  0
  150.9863  139.7033  155.4264 C   0  0  0  0  0  0  0  0  0  0  0  0
  150.8206  140.1645  154.2972 O   0  0  0  0  0  0  0  0  0  0  0  0
  151.1324  138.3670  155.6711 N   0  0  0  0  0  0  0  0  0  0  0  0
  151.0808  137.3800  154.5827 C   0  0  0  0  0  0  0  0  0  0  0  0
  150.7132  135.9640  155.0519 C   0  0  0  0  0  0  0  0  0  0  0  0
  151.3670  135.3914  155.9253 O   0  0  0  0  0  0  0  0  0  0  0  0
  149.6530  135.4061  154.4468 N   0  0  0  0  0  0  0  0  0  0  0  0
  149.1217  134.0722  154.7216 C   0  0  1  0  0  0  0  0  0  0  0  0
  147.7599  134.2148  155.4263 C   0  0  0  0  0  0  0  0  0  0  0  0
  146.9099  132.9354  155.4389 C   0  0  0  0  0  0  0  0  0  0  0  0
  145.9975  132.8019  154.2043 C   0  0  0  0  0  0  0  0  0  0  0  0
  146.6938  132.4273  152.8655 C   0  0  1  0  0  0  0  0  0  0  0  0
  145.6861  132.2503  151.6691 C   0  0  0  0  0  0  0  0  0  0  0  0
  145.0750  130.8324  151.6359 C   0  0  0  0  0  0  0  0  0  0  0  0
  146.3805  132.5113  150.3121 C   0  0  0  0  0  0  0  0  0  0  0  0
  144.5347  133.2798  151.7666 C   0  0  0  0  0  0  0  0  0  0  0  0
  147.8675  133.3947  152.5383 C   0  0  0  0  0  0  0  0  0  0  0  0
  149.0981  133.2052  153.4431 C   0  0  0  0  0  0  0  0  0  0  0  0
  151.3219  137.8118  156.9261 N   0  0  0  0  0  0  0  0  0  0  0  0
  151.6612  138.5927  160.1134 H   0  0  0  0  0  0  0  0  0  0  0  0
  152.4771  137.2642  159.2927 H   0  0  0  0  0  0  0  0  0  0  0  0
  150.7287  137.2145  159.5322 H   0  0  0  0  0  0  0  0  0  0  0  0
  151.2580  140.6162  158.7345 H   0  0  0  0  0  0  0  0  0  0  0  0
  150.9309  141.6008  156.5356 H   0  0  0  0  0  0  0  0  0  0  0  0
  150.3704  137.6929  153.8157 H   0  0  0  0  0  0  0  0  0  0  0  0
  152.0493  137.3360  154.0806 H   0  0  0  0  0  0  0  0  0  0  0  0
  149.1741  135.9474  153.7418 H   0  0  0  0  0  0  0  0  0  0  0  0
  149.7981  133.5829  155.4251 H   0  0  0  0  0  0  0  0  0  0  0  0
  147.9446  134.5265  156.4552 H   0  0  0  0  0  0  0  0  0  0  0  0
  147.1806  135.0253  154.9810 H   0  0  0  0  0  0  0  0  0  0  0  0
  147.5303  132.0484  155.5710 H   0  0  0  0  0  0  0  0  0  0  0  0
  146.2653  132.9751  156.3177 H   0  0  0  0  0  0  0  0  0  0  0  0
  145.2720  132.0309  154.4586 H   0  0  0  0  0  0  0  0  0  0  0  0
  145.4237  133.7208  154.0875 H   0  0  0  0  0  0  0  0  0  0  0  0
  147.1334  131.4415  153.0247 H   0  0  0  0  0  0  0  0  0  0  0  0
  144.3877  130.7223  150.7962 H   0  0  0  0  0  0  0  0  0  0  0  0
  144.5081  130.6112  152.5401 H   0  0  0  0  0  0  0  0  0  0  0  0
  145.8373  130.0616  151.5264 H   0  0  0  0  0  0  0  0  0  0  0  0
  147.0993  131.7320  150.0594 H   0  0  0  0  0  0  0  0  0  0  0  0
  146.9047  133.4676  150.3097 H   0  0  0  0  0  0  0  0  0  0  0  0
  145.6603  132.5346  149.4933 H   0  0  0  0  0  0  0  0  0  0  0  0
  143.9112  133.2620  150.8721 H   0  0  0  0  0  0  0  0  0  0  0  0
  144.9158  134.2961  151.8730 H   0  0  0  0  0  0  0  0  0  0  0  0
  143.8627  133.0871  152.6012 H   0  0  0  0  0  0  0  0  0  0  0  0
  148.2188  133.2220  151.5245 H   0  0  0  0  0  0  0  0  0  0  0  0
  147.5371  134.4338  152.5526 H   0  0  0  0  0  0  0  0  0  0  0  0
  149.9979  133.4047  152.8596 H   0  0  0  0  0  0  0  0  0  0  0  0
  149.1858  132.1540  153.7185 H   0  0  0  0  0  0  0  0  0  0  0  0
  1  2  1  0  0  0  0
  1 24  1  0  0  0  0
  1 25  1  0  0  0  0
  1 26  1  0  0  0  0
  2 23  2  0  0  0  0
  2  3  1  0  0  0  0
  3  4  2  0  0  0  0
  3 27  1  0  0  0  0
  4  5  1  0  0  0  0
  4 28  1  0  0  0  0
  5  6  2  0  0  0  0
  5  7  1  0  0  0  0
  7  8  1  0  0  0  0
  7 23  1  0  0  0  0
  8  9  1  0  0  0  0
  8 29  1  0  0  0  0
  8 30  1  0  0  0  0
  9 10  2  0  0  0  0
  9 11  1  0  0  0  0
 11 12  1  0  0  0  0
 11 31  1  0  0  0  0
 12 22  1  0  0  0  0
 12 13  1  0  0  0  0
 12 32  1  0  0  0  0
 13 14  1  0  0  0  0
 13 33  1  0  0  0  0
 13 34  1  0  0  0  0
 14 15  1  0  0  0  0
 14 35  1  0  0  0  0
 14 36  1  0  0  0  0
 15 16  1  0  0  0  0
 15 37  1  0  0  0  0
 15 38  1  0  0  0  0
 16 17  1  0  0  0  0
 16 21  1  0  0  0  0
 16 39  1  0  0  0  0
 17 18  1  0  0  0  0
 17 19  1  0  0  0  0
 17 20  1  0  0  0  0
 18 40  1  0  0  0  0
 18 41  1  0  0  0  0
 18 42  1  0  0  0  0
 19 43  1  0  0  0  0
 19 44  1  0  0  0  0
 19 45  1  0  0  0  0
 20 46  1  0  0  0  0
 20 47  1  0  0  0  0
 20 48  1  0  0  0  0
 21 22  1  0  0  0  0
 21 49  1  0  0  0  0
 21 50  1  0  0  0  0
 22 51  1  0  0  0  0
 22 52  1  0  0  0  0
M  END
> <s_m_source_file>
AV-unprocessed.smi

> <i_m_source_file_index>
2712

> <i_lp_mmshare_version>
43012

> <i_f3d_flags>
0

> <s_epik_input>
W0NIM11jMVtjSF1bY0hdYyg9TyluKG4xKVtDSDJdQyg9TylbTkhdW0NAQEhdMltDSDJdW0NIMl1bQ0gyXVtDQEBIXShDKFtDSDNdKShbQ0gzXSlbQ0gzXSlbQ0gyXVtDSDJdMg==

> <s_epik_cmdline>
J2VwaWtfcHl0aG9uJywgJy1waCcsICc3LjAnLCAnLXRuJywgJzgnLCAnLW1hJywgJzIwMCcsICctbWV0YWxfYmluZGluZycsICctaW1hZScsICc8aW5maWxlLm1hZT4nLCAnLW9tYWUnLCAnPG91dGZpbGUubWFlPic=

> <r_lp_tautomer_probability>
1

> <r_epik_Ionization_Penalty>
8.71758e-07

> <r_epik_Ionization_Penalty_Charging>
8.50442e-07

> <r_epik_Ionization_Penalty_Neutral>
2.13165e-08

> <r_epik_State_Penalty>
-0

> <r_epik_Charging_Adjusted_Penalty>
8.50442e-07

> <i_epik_Tot_Q>
0

> <i_epik_Tot_abs_Q>
0

> <r_epik_Metal_State_Penalty>
-0

> <b_epik_Metal_Only>
0

> <s_lp_Force_Field>
OPLS_2005

> <r_lp_Energy>
40.0092

> <b_lp_Chiralities_Consistent>
1

> <s_lp_Variant>
AV-unprocessed.smi:2712-2

> <Gold.Version>
5.8.1

> <Gold.Id.Protein>
6NUR|6NUR_protein|mol2

> <Gold.PLP.Fitness>
42.2900

> <Gold.PLP.PLP>
-36.5839

> <Gold.PLP.part.hbond>
-2.9257

> <Gold.PLP.part.metal>
0.0000

> <Gold.PLP.part.buried>
-2.7132

> <Gold.PLP.part.nonpolar>
-30.9465

> <Gold.PLP.part.repulsive>
0.1991

> <Gold.PLP.ligand.clash>
0.0000

> <Gold.PLP.ligand.torsion>
1.4245

> <Gold.PLP.Chemscore.Hbond>
2.8233

> <Gold.PLP.Chemscore.CHOScore>
0.0000

> <Gold.PLP.Chemscore.Metal>
0.0000

> <Gold.Chemscore.Hbonds>
donor molecule, donor type, donor heavy atom, donor atom, acceptor molecule, acceptor atom, score
      L1  H    11    31       P1  7948  0.88
      P1  H  7989  7998       L1     6  0.52
      P1  H 10752 10764       L1    10  1.00

> <Gold.PLP.Chemscore.Internal.Correction>
0.0853

> <Gold.Rescore>
     Score         DG    S(hbond)    S(metal)    S(lipo)     H(rot)  DE(clash)    DE(int)     intcor
     16.75     -20.18       2.32        0.00      92.51       1.52       0.23       3.20       ----

> <Gold.Chemscore.Fitness>
16.7510

> <Gold.Chemscore.DG>
-20.1797

> <Gold.Chemscore.ZeroCoef>
-5.4800

> <Gold.Chemscore.Hbond>
2.3225

> <Gold.Chemscore.Metal>
0.0000

> <Gold.Chemscore.Lipo>
92.5132

> <Gold.Chemscore.Internal_Hbond>
0.0000

> <Gold.Chemscore.DEClash>
0.2275

> <Gold.Chemscore.DEInternal>
3.2012

> <Gold.Chemscore.Rot>
1.5162

> <Gold.Chemscore.Internal.Correction>
   9.000000E+99

> <Gold.Chemscore.Hbonds>
donor molecule, donor type, donor heavy atom, donor atom, acceptor molecule, acceptor atom, score
      L1  H    11    31       P1  7948  0.74
      P1  H  7989  7998       L1     6  0.52
      P1  H 10752 10764       L1    10  0.24

> <Gold.Chemscore.Hbond.Weighted>
-7.7571

> <Gold.Chemscore.Metal.Weighted>
-0.0000

> <Gold.Chemscore.Lipo.Weighted>
-10.8240

> <Gold.Chemscore.Internal_Hbond.Weighted>
0.0000

> <Gold.Chemscore.DEClash.Weighted>
0.2275

> <Gold.Chemscore.DEInternal.Weighted>
3.2012

> <Gold.Chemscore.Rot.Weighted>
3.8814

> <Gold.Chemscore.Internal.Correction.Weighted>
   9.000000E+99

> <Gold.Protein.RotatedTorsions>
[ 6907 6896 6895 6894 ] final   75.27 input  -60.11 | X-H torsion
[ 7974 7965 7964 7962 ] final   19.61 input  175.53 | X-H torsion
[ 8008 7997 7996 7995 ] final -163.13 input   59.86 | X-H torsion
[ 10167 10162 10161 10158 ] final  -85.56 input  -65.29 | X-H torsion
[ 10718 10713 10712 10709 ] final -171.47 input   66.30 | X-H torsion
[ 10763 10752 10751 10750 ] final  -26.54 input  -60.55 | X-H torsion
[ 11005 11000 10999 10996 ] final -165.97 input  -57.11 | X-H torsion

> <Gold.Protein.ActiveResidues>
 VAL166  LYS551  ARG553  GLY616  TRP617  ASP618  TYR619  PRO620  LYS621  CYS622 
 ASP623  PHE694  ASN695  SER759  ASP760  ASP761  ALA762  ILE779  LEU786  VAL792 
 PHE793  MET794  SER795  GLU796  ALA797  LYS798  CYS799  TRP800  GLU811  SER814 

> <Gold.Protein.RotatedAtoms>
  152.5017  134.4146  159.9459 H   0  0  0  0  0  0  0  0  0  0  0  0  # atno 6907 bound_to 6896
  151.4116  133.3719  159.2752 H   0  0  0  0  0  0  0  0  0  0  0  0  # atno 6908 bound_to 6896
  150.9288  134.8725  159.7596 H   0  0  0  0  0  0  0  0  0  0  0  0  # atno 6909 bound_to 6896
  146.2143  139.8288  142.8664 H   0  0  0  0  0  0  0  0  0  0  0  0  # atno 7974 bound_to 7965
  155.8169  140.0914  157.1872 H   0  0  0  0  0  0  0  0  0  0  0  0  # atno 8008 bound_to 7997
  154.3979  140.1444  156.3513 H   0  0  0  0  0  0  0  0  0  0  0  0  # atno 8009 bound_to 7997
  155.8307  140.3443  155.5573 H   0  0  0  0  0  0  0  0  0  0  0  0  # atno 8010 bound_to 7997
  140.4025  143.2656  151.9123 H   0  0  0  0  0  0  0  0  0  0  0  0  # atno 10167 bound_to 10162
  156.7414  130.9344  151.3110 H   0  0  0  0  0  0  0  0  0  0  0  0  # atno 10718 bound_to 10713
  153.7175  135.6947  153.5021 H   0  0  0  0  0  0  0  0  0  0  0  0  # atno 10763 bound_to 10752
  153.2227  135.4364  155.0507 H   0  0  0  0  0  0  0  0  0  0  0  0  # atno 10764 bound_to 10752
  154.8295  135.3464  154.6710 H   0  0  0  0  0  0  0  0  0  0  0  0  # atno 10765 bound_to 10752
  140.5697  134.5250  157.5159 H   0  0  0  0  0  0  0  0  0  0  0  0  # atno 11005 bound_to 11000
  145.3019  141.0196  143.3604 LP  0  0  0  0  0  0  0  0  0  0  0  0  # atno 17320 bound_to 7965
  144.9000  139.4662  143.6637 LP  0  0  0  0  0  0  0  0  0  0  0  0  # atno 17321 bound_to 7965
  139.4784  144.5619  151.8226 LP  0  0  0  0  0  0  0  0  0  0  0  0  # atno 17342 bound_to 10162
  140.4724  144.1567  150.5920 LP  0  0  0  0  0  0  0  0  0  0  0  0  # atno 17343 bound_to 10162
  157.6817  130.9146  150.0283 LP  0  0  0  0  0  0  0  0  0  0  0  0  # atno 17370 bound_to 10713
  156.1462  130.3642  149.9507 LP  0  0  0  0  0  0  0  0  0  0  0  0  # atno 17371 bound_to 10713
  139.9368  134.7861  156.0783 LP  0  0  0  0  0  0  0  0  0  0  0  0  # atno 17394 bound_to 11000
  141.1064  133.6658  156.2873 LP  0  0  0  0  0  0  0  0  0  0  0  0  # atno 17395 bound_to 11000

$$$$
