AV-unprocessed.smi:3354|AV-procd|sdf|12957|dock6
  -GOLD-   2272019393D 1   1.00000     0.00000
 Structure written by MMmdl.
 38 40  0  0  0  0  0  0  0  0  1 V2000
  154.9539  138.0542  165.4722 C   0  0  0  0  0  0  0  0  0  0  0  0
  154.1424  136.8915  164.9344 C   0  0  2  0  0  0  0  0  0  0  0  0
  154.8251  135.6943  164.3154 C   0  0  0  0  0  0  0  0  0  0  0  0
  153.9988  136.6249  163.4485 C   0  0  2  0  0  0  0  0  0  0  0  0
  154.6244  137.5088  162.5072 N   0  0  0  0  0  0  0  0  0  0  0  0
  153.8569  138.4311  161.6810 C   0  0  0  0  0  0  0  0  0  0  0  0
  154.8952  139.2106  160.8549 C   0  0  1  0  0  0  0  0  0  0  0  0
  154.6094  140.6429  160.8714 N   0  0  0  0  0  0  0  0  0  0  0  0
  153.6063  141.2295  160.2036 C   0  0  0  0  0  0  0  0  0  0  0  0
  152.8100  140.6106  159.4980 O   0  0  0  0  0  0  0  0  0  0  0  0
  153.6082  142.5603  160.3927 N   0  0  0  0  0  0  0  0  0  0  0  0
  152.7110  143.5294  159.8676 C   0  0  0  0  0  0  0  0  0  0  0  0
  152.3943  144.7524  160.5076 C   0  0  0  0  0  0  0  0  0  0  0  0
  151.5023  145.6391  159.8747 C   0  0  0  0  0  0  0  0  0  0  0  0
  150.9654  145.2757  158.6245 C   0  0  0  0  0  0  0  0  0  0  0  0
  151.2691  144.1202  157.9967 N   0  0  0  0  0  0  0  0  0  0  0  0
  152.1259  143.2753  158.6089 C   0  0  0  0  0  0  0  0  0  0  0  0
  156.2573  138.8757  161.4819 C   0  0  0  0  0  0  0  0  0  0  0  0
  155.9360  137.7706  162.4726 C   0  0  0  0  0  0  0  0  0  0  0  0
  156.8009  137.2152  163.1485 O   0  0  0  0  0  0  0  0  0  0  0  0
  155.8735  138.1912  164.9029 H   0  0  0  0  0  0  0  0  0  0  0  0
  155.2183  137.8732  166.5143 H   0  0  0  0  0  0  0  0  0  0  0  0
  154.3698  138.9731  165.4167 H   0  0  0  0  0  0  0  0  0  0  0  0
  153.2562  136.6794  165.5297 H   0  0  0  0  0  0  0  0  0  0  0  0
  155.9103  135.7213  164.2486 H   0  0  0  0  0  0  0  0  0  0  0  0
  154.4061  134.7149  164.5369 H   0  0  0  0  0  0  0  0  0  0  0  0
  153.0373  136.2224  163.1329 H   0  0  0  0  0  0  0  0  0  0  0  0
  153.1678  137.9008  161.0235 H   0  0  0  0  0  0  0  0  0  0  0  0
  153.2707  139.0853  162.3288 H   0  0  0  0  0  0  0  0  0  0  0  0
  154.8729  138.8417  159.8273 H   0  0  0  0  0  0  0  0  0  0  0  0
  155.2220  141.2256  161.4232 H   0  0  0  0  0  0  0  0  0  0  0  0
  154.3767  142.9310  160.9323 H   0  0  0  0  0  0  0  0  0  0  0  0
  152.8241  145.0340  161.4560 H   0  0  0  0  0  0  0  0  0  0  0  0
  151.2388  146.5793  160.3361 H   0  0  0  0  0  0  0  0  0  0  0  0
  150.2793  145.9336  158.1123 H   0  0  0  0  0  0  0  0  0  0  0  0
  152.3477  142.3622  158.0756 H   0  0  0  0  0  0  0  0  0  0  0  0
  156.9751  138.5339  160.7356 H   0  0  0  0  0  0  0  0  0  0  0  0
  156.6903  139.7222  162.0165 H   0  0  0  0  0  0  0  0  0  0  0  0
  1  2  1  0  0  0  0
  1 21  1  0  0  0  0
  1 22  1  0  0  0  0
  1 23  1  0  0  0  0
  2  4  1  0  0  0  0
  2  3  1  0  0  0  0
  2 24  1  0  0  0  0
  3  4  1  0  0  0  0
  3 25  1  0  0  0  0
  3 26  1  0  0  0  0
  4  5  1  0  0  0  0
  4 27  1  0  0  0  0
  5 19  1  0  0  0  0
  5  6  1  0  0  0  0
  6  7  1  0  0  0  0
  6 28  1  0  0  0  0
  6 29  1  0  0  0  0
  7  8  1  0  0  0  0
  7 18  1  0  0  0  0
  7 30  1  0  0  0  0
  8  9  1  0  0  0  0
  8 31  1  0  0  0  0
  9 10  2  0  0  0  0
  9 11  1  0  0  0  0
 11 12  1  0  0  0  0
 11 32  1  0  0  0  0
 12 17  1  0  0  0  0
 12 13  2  0  0  0  0
 13 14  1  0  0  0  0
 13 33  1  0  0  0  0
 14 15  2  0  0  0  0
 14 34  1  0  0  0  0
 15 16  1  0  0  0  0
 15 35  1  0  0  0  0
 16 17  2  0  0  0  0
 17 36  1  0  0  0  0
 18 19  1  0  0  0  0
 18 37  1  0  0  0  0
 18 38  1  0  0  0  0
 19 20  2  0  0  0  0
M  END
> <s_m_source_file>
AV-unprocessed.smi

> <i_m_source_file_index>
3354

> <i_lp_mmshare_version>
43012

> <i_f3d_flags>
0

> <s_epik_input>
W0NIM11bQ0BASF0xW0NIMl1bQ0BIXTFOMltDSDJdW0NASF0oW0NIMl1DMj1PKVtOSF1DKD1PKVtOSF1jM1tjSF1bY0hdW2NIXW5bY0hdMw==

> <s_epik_cmdline>
J2VwaWtfcHl0aG9uJywgJy1waCcsICc3LjAnLCAnLXRuJywgJzgnLCAnLW1hJywgJzIwMCcsICctbWV0YWxfYmluZGluZycsICctaW1hZScsICc8aW5maWxlLm1hZT4nLCAnLW9tYWUnLCAnPG91dGZpbGUubWFlPic=

> <r_epik_Ionization_Penalty>
0.00456191

> <r_epik_Ionization_Penalty_Charging>
0

> <r_epik_Ionization_Penalty_Neutral>
0.00456191

> <r_epik_State_Penalty>
0.00327094

> <r_epik_Charging_Adjusted_Penalty>
0.00327094

> <i_epik_Tot_Q>
0

> <i_epik_Tot_abs_Q>
0

> <r_epik_Metal_State_Penalty>
-0

> <b_epik_Metal_Only>
0

> <s_lp_Force_Field>
OPLS_2005

> <r_lp_Energy>
41.3899

> <b_lp_Chiralities_Consistent>
1

> <s_lp_Variant>
AV-unprocessed.smi:3354-3

> <Gold.Version>
5.8.1

> <Gold.Id.Protein>
6NUR|6NUR_protein|mol2

> <Gold.PLP.Fitness>
42.5065

> <Gold.PLP.PLP>
-40.1440

> <Gold.PLP.part.hbond>
0.0000

> <Gold.PLP.part.metal>
0.0000

> <Gold.PLP.part.buried>
-5.1210

> <Gold.PLP.part.nonpolar>
-34.6127

> <Gold.PLP.part.repulsive>
0.1929

> <Gold.PLP.ligand.clash>
0.0000

> <Gold.PLP.ligand.torsion>
0.4534

> <Gold.PLP.Chemscore.Hbond>
0.0000

> <Gold.PLP.Chemscore.CHOScore>
1.0000

> <Gold.PLP.Chemscore.Metal>
0.0000

> <Gold.Chemscore.Hbonds>
donor molecule, donor type, donor heavy atom, donor atom, acceptor molecule, acceptor atom, score
      L1  C    15    35       P1  8029  1.00

> <Gold.PLP.Chemscore.Internal.Correction>
0.2693

> <Gold.Rescore>
     Score         DG    S(hbond)    S(metal)    S(lipo)     H(rot)  DE(clash)    DE(int)     intcor
     12.83     -16.37       0.32        0.00     110.99       1.24       0.35       3.19       ----

> <Gold.Chemscore.Fitness>
12.8335

> <Gold.Chemscore.DG>
-16.3731

> <Gold.Chemscore.ZeroCoef>
-5.4800

> <Gold.Chemscore.Hbond>
0.3208

> <Gold.Chemscore.Metal>
0.0000

> <Gold.Chemscore.Lipo>
110.9908

> <Gold.Chemscore.Internal_Hbond>
0.0000

> <Gold.Chemscore.DEClash>
0.3531

> <Gold.Chemscore.DEInternal>
3.1865

> <Gold.Chemscore.Rot>
1.2361

> <Gold.Chemscore.Internal.Correction>
   9.000000E+99

> <Gold.Chemscore.Hbond.Weighted>
-1.0715

> <Gold.Chemscore.Metal.Weighted>
-0.0000

> <Gold.Chemscore.Lipo.Weighted>
-12.9859

> <Gold.Chemscore.Internal_Hbond.Weighted>
0.0000

> <Gold.Chemscore.DEClash.Weighted>
0.3531

> <Gold.Chemscore.DEInternal.Weighted>
3.1865

> <Gold.Chemscore.Rot.Weighted>
3.1643

> <Gold.Chemscore.Internal.Correction.Weighted>
   9.000000E+99

> <Gold.Protein.RotatedTorsions>
[ 6907 6896 6895 6894 ] final -142.64 input  -60.11 | X-H torsion
[ 7974 7965 7964 7962 ] final -101.96 input  175.53 | X-H torsion
[ 8008 7997 7996 7995 ] final  150.03 input   59.86 | X-H torsion
[ 10167 10162 10161 10158 ] final  108.92 input  -65.29 | X-H torsion
[ 10718 10713 10712 10709 ] final   92.25 input   66.30 | X-H torsion
[ 10763 10752 10751 10750 ] final   -0.40 input  -60.55 | X-H torsion
[ 11005 11000 10999 10996 ] final -162.03 input  -57.11 | X-H torsion

> <Gold.Protein.ActiveResidues>
 VAL166  LYS551  ARG553  GLY616  TRP617  ASP618  TYR619  PRO620  LYS621  CYS622 
 ASP623  PHE694  ASN695  SER759  ASP760  ASP761  ALA762  ILE779  LEU786  VAL792 
 PHE793  MET794  SER795  GLU796  ALA797  LYS798  CYS799  TRP800  GLU811  SER814 

> <Gold.Protein.RotatedAtoms>
  151.0898  133.5325  159.2615 H   0  0  0  0  0  0  0  0  0  0  0  0  # atno 6907 bound_to 6896
  151.2197  135.0513  159.8954 H   0  0  0  0  0  0  0  0  0  0  0  0  # atno 6908 bound_to 6896
  152.5433  134.0702  159.8244 H   0  0  0  0  0  0  0  0  0  0  0  0  # atno 6909 bound_to 6896
  145.2748  140.9309  143.2965 H   0  0  0  0  0  0  0  0  0  0  0  0  # atno 7974 bound_to 7965
  156.2732  140.2086  156.5952 H   0  0  0  0  0  0  0  0  0  0  0  0  # atno 8008 bound_to 7997
  154.6950  140.0526  157.0425 H   0  0  0  0  0  0  0  0  0  0  0  0  # atno 8009 bound_to 7997
  155.0813  140.3187  155.4603 H   0  0  0  0  0  0  0  0  0  0  0  0  # atno 8010 bound_to 7997
  139.6807  144.7118  151.1520 H   0  0  0  0  0  0  0  0  0  0  0  0  # atno 10167 bound_to 10162
  157.6959  131.0436  150.3853 H   0  0  0  0  0  0  0  0  0  0  0  0  # atno 10718 bound_to 10713
  153.3313  135.6975  153.6945 H   0  0  0  0  0  0  0  0  0  0  0  0  # atno 10763 bound_to 10752
  153.5746  135.3509  155.2852 H   0  0  0  0  0  0  0  0  0  0  0  0  # atno 10764 bound_to 10752
  154.8618  135.4280  154.2503 H   0  0  0  0  0  0  0  0  0  0  0  0  # atno 10765 bound_to 10752
  140.6138  134.4821  157.5218 H   0  0  0  0  0  0  0  0  0  0  0  0  # atno 11005 bound_to 11000
  144.9303  139.4306  143.6498 LP  0  0  0  0  0  0  0  0  0  0  0  0  # atno 17320 bound_to 7965
  146.3235  139.8211  142.8926 LP  0  0  0  0  0  0  0  0  0  0  0  0  # atno 17321 bound_to 7965
  140.7651  143.5703  150.9003 LP  0  0  0  0  0  0  0  0  0  0  0  0  # atno 17342 bound_to 10162
  139.9375  143.6421  152.3062 LP  0  0  0  0  0  0  0  0  0  0  0  0  # atno 17343 bound_to 10162
  156.4262  130.3963  149.6791 LP  0  0  0  0  0  0  0  0  0  0  0  0  # atno 17370 bound_to 10713
  156.4024  130.7681  151.2690 LP  0  0  0  0  0  0  0  0  0  0  0  0  # atno 17371 bound_to 10713
  139.9181  134.8205  156.1300 LP  0  0  0  0  0  0  0  0  0  0  0  0  # atno 17394 bound_to 11000
  141.0789  133.6763  156.2295 LP  0  0  0  0  0  0  0  0  0  0  0  0  # atno 17395 bound_to 11000

$$$$
