AV-unprocessed.smi:283|AV-procd|sdf|2130|dock8
  -GOLD-   2262021443D 1   1.00000     0.00000
 Structure written by MMmdl.
 48 51  0  0  0  0  0  0  0  0  1 V2000
  151.2343  139.4202  158.5702 C   0  0  0  0  0  0  0  0  0  0  0  0
  152.3852  140.2038  157.9133 C   0  0  1  0  0  0  0  0  0  0  0  0
  152.3382  140.0929  156.4558 N   0  0  0  0  0  0  0  0  0  0  0  0
  151.2977  139.5112  155.8188 C   0  0  0  0  0  0  0  0  0  0  0  0
  151.2848  138.1787  155.5539 N   0  0  0  0  0  0  0  0  0  0  0  0
  150.2444  137.6334  154.9169 C   0  0  0  0  0  0  0  0  0  0  0  0
  149.1371  138.2278  154.4660 N   0  0  0  0  0  0  0  0  0  0  0  0
  149.1469  139.5675  154.7267 C   0  0  0  0  0  0  0  0  0  0  0  0
  150.1845  140.2791  155.3899 C   0  0  0  0  0  0  0  0  0  0  0  0
  149.8556  141.6251  155.4657 N   0  0  0  0  0  0  0  0  0  0  0  0
  148.6946  141.7002  154.8725 C   0  0  0  0  0  0  0  0  0  0  0  0
  148.1826  140.5020  154.4128 N   0  0  0  0  0  0  0  0  0  0  0  0
  146.9110  140.2161  153.6651 C   0  0  2  0  0  0  0  0  0  0  0  0
  145.9799  139.7482  154.5908 O   0  0  0  0  0  0  0  0  0  0  0  0
  146.0072  138.3269  154.6143 C   0  0  1  0  0  0  0  0  0  0  0  0
  144.7484  137.7572  155.2937 C   0  0  0  0  0  0  0  0  0  0  0  0
  143.5906  138.1948  154.6148 O   0  0  0  0  0  0  0  0  0  0  0  0
  146.1782  137.9873  153.1255 C   0  0  1  0  0  0  0  0  0  0  0  0
  144.9196  137.9641  152.4710 O   0  0  0  0  0  0  0  0  0  0  0  0
  147.0946  139.1053  152.6113 C   0  0  1  0  0  0  0  0  0  0  0  0
  146.7686  139.5326  151.3017 O   0  0  0  0  0  0  0  0  0  0  0  0
  152.3653  141.6551  158.3905 C   0  0  0  0  0  0  0  0  0  0  0  0
  151.3965  142.5521  157.8814 C   0  0  0  0  0  0  0  0  0  0  0  0
  151.3590  143.8909  158.3140 C   0  0  0  0  0  0  0  0  0  0  0  0
  152.2866  144.3478  159.2670 C   0  0  0  0  0  0  0  0  0  0  0  0
  153.2464  143.4621  159.7903 C   0  0  0  0  0  0  0  0  0  0  0  0
  153.2883  142.1200  159.3618 C   0  0  0  0  0  0  0  0  0  0  0  0
  154.4775  141.0741  160.0564 Cl  0  0  0  0  0  0  0  0  0  0  0  0
  146.6001  141.1738  153.2466 H   0  0  0  0  0  0  0  0  0  0  0  0
  146.8950  137.9905  155.1511 H   0  0  0  0  0  0  0  0  0  0  0  0
  146.6367  137.0065  152.9953 H   0  0  0  0  0  0  0  0  0  0  0  0
  148.1293  138.7652  152.5952 H   0  0  0  0  0  0  0  0  0  0  0  0
  151.3017  139.4674  159.6573 H   0  0  0  0  0  0  0  0  0  0  0  0
  151.2472  138.3667  158.2921 H   0  0  0  0  0  0  0  0  0  0  0  0
  150.2644  139.8260  158.2810 H   0  0  0  0  0  0  0  0  0  0  0  0
  153.3306  139.7665  158.2316 H   0  0  0  0  0  0  0  0  0  0  0  0
  153.1021  140.5314  155.9621 H   0  0  0  0  0  0  0  0  0  0  0  0
  150.3083  136.5693  154.7436 H   0  0  0  0  0  0  0  0  0  0  0  0
  148.1847  142.6453  154.7597 H   0  0  0  0  0  0  0  0  0  0  0  0
  144.7721  136.6676  155.3304 H   0  0  0  0  0  0  0  0  0  0  0  0
  144.6796  138.1170  156.3208 H   0  0  0  0  0  0  0  0  0  0  0  0
  143.8504  138.7895  153.9280 H   0  0  0  0  0  0  0  0  0  0  0  0
  144.6337  138.8556  152.3422 H   0  0  0  0  0  0  0  0  0  0  0  0
  147.5688  139.7505  150.8485 H   0  0  0  0  0  0  0  0  0  0  0  0
  150.6690  142.2191  157.1559 H   0  0  0  0  0  0  0  0  0  0  0  0
  150.6160  144.5666  157.9162 H   0  0  0  0  0  0  0  0  0  0  0  0
  152.2588  145.3746  159.6007 H   0  0  0  0  0  0  0  0  0  0  0  0
  153.9519  143.8144  160.5284 H   0  0  0  0  0  0  0  0  0  0  0  0
  1  2  1  0  0  0  0
  1 33  1  0  0  0  0
  1 34  1  0  0  0  0
  1 35  1  0  0  0  0
  2  3  1  0  0  0  0
  2 22  1  0  0  0  0
  2 36  1  0  0  0  0
  3  4  1  0  0  0  0
  3 37  1  0  0  0  0
  4  9  1  0  0  0  0
  4  5  2  0  0  0  0
  5  6  1  0  0  0  0
  6  7  2  0  0  0  0
  6 38  1  0  0  0  0
  7  8  1  0  0  0  0
  8 12  1  0  0  0  0
  8  9  2  0  0  0  0
  9 10  1  0  0  0  0
 10 11  2  0  0  0  0
 11 12  1  0  0  0  0
 11 39  1  0  0  0  0
 12 13  1  0  0  0  0
 13 29  1  0  0  0  0
 13 20  1  0  0  0  0
 13 14  1  0  0  0  0
 14 15  1  0  0  0  0
 15 30  1  0  0  0  0
 15 16  1  0  0  0  0
 15 18  1  0  0  0  0
 16 17  1  0  0  0  0
 16 40  1  0  0  0  0
 16 41  1  0  0  0  0
 17 42  1  0  0  0  0
 18 31  1  0  0  0  0
 18 19  1  0  0  0  0
 18 20  1  0  0  0  0
 19 43  1  0  0  0  0
 20 32  1  0  0  0  0
 20 21  1  0  0  0  0
 21 44  1  0  0  0  0
 22 27  1  0  0  0  0
 22 23  2  0  0  0  0
 23 24  1  0  0  0  0
 23 45  1  0  0  0  0
 24 25  2  0  0  0  0
 24 46  1  0  0  0  0
 25 26  1  0  0  0  0
 25 47  1  0  0  0  0
 26 27  2  0  0  0  0
 26 48  1  0  0  0  0
 27 28  1  0  0  0  0
M  END
> <s_m_source_file>
AV-unprocessed.smi

> <i_m_source_file_index>
283

> <i_lp_mmshare_version>
43012

> <i_f3d_flags>
0

> <s_epik_input>
Q2xjMVtjSF1bY0hdW2NIXVtjSF1jMVtDQEhdKFtDSDNdKVtOSF1jKG5bY0hdbjIpYyhjMjMpbltjSF1uM1tDQEBIXTRPW0NASF0oW0NIMl1bT0hdKVtDQEBIXShbT0hdKVtDQEhdNFtPSF0=

> <s_epik_cmdline>
J2VwaWtfcHl0aG9uJywgJy1waCcsICc3LjAnLCAnLXRuJywgJzgnLCAnLW1hJywgJzIwMCcsICctbWV0YWxfYmluZGluZycsICctaW1hZScsICc8aW5maWxlLm1hZT4nLCAnLW9tYWUnLCAnPG91dGZpbGUubWFlPic=

> <r_lp_tautomer_probability>
1

> <r_epik_Ionization_Penalty>
0.000266407

> <r_epik_Ionization_Penalty_Charging>
0

> <r_epik_Ionization_Penalty_Neutral>
0.000266407

> <r_epik_State_Penalty>
-0

> <r_epik_Charging_Adjusted_Penalty>
0

> <i_epik_Tot_Q>
0

> <i_epik_Tot_abs_Q>
0

> <r_epik_Metal_State_Penalty>
-0

> <b_epik_Metal_Only>
0

> <s_epik_Chemistry_Notes>
This compound contains an acetal/aminal-like group ( X-CH(R)-Y where X, Y are N, S, or O) that may be acid/base labile, releasing an aldehyde.

> <s_lp_Force_Field>
OPLS_2005

> <r_lp_Energy>
48.0921

> <b_lp_Chiralities_Consistent>
1

> <s_lp_Variant>
AV-unprocessed.smi:283-6

> <Gold.Version>
5.8.1

> <Gold.Id.Protein>
6NUR|6NUR_protein|mol2

> <Gold.PLP.Fitness>
57.2647

> <Gold.PLP.PLP>
-49.8255

> <Gold.PLP.part.hbond>
-5.2581

> <Gold.PLP.part.metal>
0.0000

> <Gold.PLP.part.buried>
-3.5215

> <Gold.PLP.part.nonpolar>
-41.7206

> <Gold.PLP.part.repulsive>
1.8706

> <Gold.PLP.ligand.clash>
0.0000

> <Gold.PLP.ligand.torsion>
1.7764

> <Gold.PLP.Chemscore.Hbond>
2.8160

> <Gold.PLP.Chemscore.CHOScore>
0.8154

> <Gold.PLP.Chemscore.Metal>
0.0000

> <Gold.Chemscore.Hbonds>
donor molecule, donor type, donor heavy atom, donor atom, acceptor molecule, acceptor atom, score
      L1  H    17    42       P1 10175  0.55
      L1  H    19    43       P1 10175  1.00
      L1  H    21    44       P1  7957  0.88
      L1  C    11    39       P1  8028  0.94

> <Gold.PLP.Chemscore.Internal.Correction>
0.0978

> <Gold.Rescore>
     Score         DG    S(hbond)    S(metal)    S(lipo)     H(rot)  DE(clash)    DE(int)     intcor
     12.09     -16.15       2.49        0.00     109.84       4.10       1.33       2.73       ----

> <Gold.Chemscore.Fitness>
12.0900

> <Gold.Chemscore.DG>
-16.1505

> <Gold.Chemscore.ZeroCoef>
-5.4800

> <Gold.Chemscore.Hbond>
2.4871

> <Gold.Chemscore.Metal>
0.0000

> <Gold.Chemscore.Lipo>
109.8416

> <Gold.Chemscore.Internal_Hbond>
0.0000

> <Gold.Chemscore.DEClash>
1.3304

> <Gold.Chemscore.DEInternal>
2.7302

> <Gold.Chemscore.Rot>
4.0968

> <Gold.Chemscore.Internal.Correction>
   9.000000E+99

> <Gold.Chemscore.Hbonds>
donor molecule, donor type, donor heavy atom, donor atom, acceptor molecule, acceptor atom, score
      L1  H    17    42       P1 10175  0.56
      L1  H    19    43       P1 10175  1.00
      L1  H    21    44       P1  7957  0.61

> <Gold.Chemscore.Hbond.Weighted>
-8.3070

> <Gold.Chemscore.Metal.Weighted>
-0.0000

> <Gold.Chemscore.Lipo.Weighted>
-12.8515

> <Gold.Chemscore.Internal_Hbond.Weighted>
0.0000

> <Gold.Chemscore.DEClash.Weighted>
1.3304

> <Gold.Chemscore.DEInternal.Weighted>
2.7302

> <Gold.Chemscore.Rot.Weighted>
10.4879

> <Gold.Chemscore.Internal.Correction.Weighted>
   9.000000E+99

> <Gold.Protein.RotatedTorsions>
[ 6907 6896 6895 6894 ] final   84.23 input  -60.11 | X-H torsion
[ 7974 7965 7964 7962 ] final  -36.41 input  175.53 | X-H torsion
[ 8008 7997 7996 7995 ] final  -66.81 input   59.86 | X-H torsion
[ 10167 10162 10161 10158 ] final  -27.54 input  -65.29 | X-H torsion
[ 10718 10713 10712 10709 ] final -142.77 input   66.30 | X-H torsion
[ 10763 10752 10751 10750 ] final  105.34 input  -60.55 | X-H torsion
[ 11005 11000 10999 10996 ] final  -66.32 input  -57.11 | X-H torsion

> <Gold.Protein.ActiveResidues>
 VAL166  LYS551  ARG553  GLY616  TRP617  ASP618  TYR619  PRO620  LYS621  CYS622 
 ASP623  PHE694  ASN695  SER759  ASP760  ASP761  ALA762  ILE779  LEU786  VAL792 
 PHE793  MET794  SER795  GLU796  ALA797  LYS798  CYS799  TRP800  GLU811  SER814 

> <Gold.Protein.RotatedAtoms>
  152.5347  134.2772  159.8993 H   0  0  0  0  0  0  0  0  0  0  0  0  # atno 6907 bound_to 6896
  151.2728  133.4240  159.2630 H   0  0  0  0  0  0  0  0  0  0  0  0  # atno 6908 bound_to 6896
  151.0353  134.9583  159.8189 H   0  0  0  0  0  0  0  0  0  0  0  0  # atno 6909 bound_to 6896
  146.0664  140.6275  142.8973 H   0  0  0  0  0  0  0  0  0  0  0  0  # atno 7974 bound_to 7965
  154.4758  140.0905  156.7259 H   0  0  0  0  0  0  0  0  0  0  0  0  # atno 8008 bound_to 7997
  155.4600  140.3460  155.4293 H   0  0  0  0  0  0  0  0  0  0  0  0  # atno 8009 bound_to 7997
  156.1114  140.1449  156.9321 H   0  0  0  0  0  0  0  0  0  0  0  0  # atno 8010 bound_to 7997
  140.7276  143.4085  151.1145 H   0  0  0  0  0  0  0  0  0  0  0  0  # atno 10167 bound_to 10162
  156.3499  130.7682  151.1833 H   0  0  0  0  0  0  0  0  0  0  0  0  # atno 10718 bound_to 10713
  153.3781  135.3913  155.1837 H   0  0  0  0  0  0  0  0  0  0  0  0  # atno 10763 bound_to 10752
  154.8704  135.3719  154.4892 H   0  0  0  0  0  0  0  0  0  0  0  0  # atno 10764 bound_to 10752
  153.5366  135.7085  153.5718 H   0  0  0  0  0  0  0  0  0  0  0  0  # atno 10765 bound_to 10752
  141.1479  133.6697  156.6121 H   0  0  0  0  0  0  0  0  0  0  0  0  # atno 11005 bound_to 11000
  144.7205  140.4356  143.7012 LP  0  0  0  0  0  0  0  0  0  0  0  0  # atno 17320 bound_to 7965
  145.6470  139.1559  143.2883 LP  0  0  0  0  0  0  0  0  0  0  0  0  # atno 17321 bound_to 7965
  139.7715  143.8488  152.3121 LP  0  0  0  0  0  0  0  0  0  0  0  0  # atno 17342 bound_to 10162
  139.8408  144.7211  150.9334 LP  0  0  0  0  0  0  0  0  0  0  0  0  # atno 17343 bound_to 10162
  157.7459  131.0430  150.4724 LP  0  0  0  0  0  0  0  0  0  0  0  0  # atno 17370 bound_to 10713
  156.4918  130.4097  149.6402 LP  0  0  0  0  0  0  0  0  0  0  0  0  # atno 17371 bound_to 10713
  140.3606  134.7691  157.4531 LP  0  0  0  0  0  0  0  0  0  0  0  0  # atno 17394 bound_to 11000
  140.0788  134.5760  155.8562 LP  0  0  0  0  0  0  0  0  0  0  0  0  # atno 17395 bound_to 11000

$$$$
