AV-unprocessed.smi:2931|AV-procd|sdf|11248|dock2
  -GOLD-   2272016143D 1   1.00000     0.00000
 Structure written by MMmdl.
 43 44  0  0  0  0  0  0  0  0  3 V2000
  147.5141  133.1622  152.0407 C   0  0  0  0  0  0  0  0  0  0  0  0
  147.7247  134.1873  153.0851 N   0  3  1  0  0  0  0  0  0  0  0  0
  146.4499  134.6496  153.6886 C   0  0  0  0  0  0  0  0  0  0  0  0
  146.6927  135.8085  154.6702 C   0  0  0  0  0  0  0  0  0  0  0  0
  147.7194  135.4201  155.7475 C   0  0  0  0  0  0  0  0  0  0  0  0
  149.0174  134.8909  155.1108 C   0  0  2  0  0  0  0  0  0  0  0  0
  149.7407  135.9875  154.4665 N   0  0  0  0  0  0  0  0  0  0  0  0
  150.9184  136.4791  154.8759 C   0  0  0  0  0  0  0  0  0  0  0  0
  151.5602  136.0280  155.8238 O   0  0  0  0  0  0  0  0  0  0  0  0
  151.3122  137.5198  154.1291 N   0  0  0  0  0  0  0  0  0  0  0  0
  152.5238  138.3035  154.3563 C   0  0  0  0  0  0  0  0  0  0  0  0
  152.5501  139.0083  155.7279 C   0  0  0  0  0  0  0  0  0  0  0  0
  151.5932  140.1837  155.8301 C   0  0  0  0  0  0  0  0  0  0  0  0
  150.5429  140.3392  154.8978 C   0  0  0  0  0  0  0  0  0  0  0  0
  149.6746  141.4434  155.0180 C   0  0  0  0  0  0  0  0  0  0  0  0
  149.8528  142.3339  156.0184 N   0  3  0  0  0  0  0  0  0  0  0  0
  150.8429  142.2214  156.9309 C   0  0  0  0  0  0  0  0  0  0  0  0
  151.7433  141.1390  156.8595 C   0  0  0  0  0  0  0  0  0  0  0  0
  148.6971  133.7506  154.1188 C   0  0  0  0  0  0  0  0  0  0  0  0
  147.0713  132.2590  152.4625 H   0  0  0  0  0  0  0  0  0  0  0  0
  148.4598  132.8925  151.5695 H   0  0  0  0  0  0  0  0  0  0  0  0
  146.8500  133.5375  151.2616 H   0  0  0  0  0  0  0  0  0  0  0  0
  145.7678  134.9759  152.9023 H   0  0  0  0  0  0  0  0  0  0  0  0
  145.9659  133.8172  154.2021 H   0  0  0  0  0  0  0  0  0  0  0  0
  147.0433  136.6839  154.1222 H   0  0  0  0  0  0  0  0  0  0  0  0
  145.7533  136.0989  155.1415 H   0  0  0  0  0  0  0  0  0  0  0  0
  147.9286  136.2715  156.3965 H   0  0  0  0  0  0  0  0  0  0  0  0
  147.2916  134.6471  156.3873 H   0  0  0  0  0  0  0  0  0  0  0  0
  149.6481  134.4953  155.9092 H   0  0  0  0  0  0  0  0  0  0  0  0
  149.2872  136.4335  153.6824 H   0  0  0  0  0  0  0  0  0  0  0  0
  150.7130  137.8193  153.3736 H   0  0  0  0  0  0  0  0  0  0  0  0
  153.3696  137.6194  154.2840 H   0  0  0  0  0  0  0  0  0  0  0  0
  152.6522  139.0325  153.5547 H   0  0  0  0  0  0  0  0  0  0  0  0
  152.3044  138.2902  156.5111 H   0  0  0  0  0  0  0  0  0  0  0  0
  153.5621  139.3506  155.9471 H   0  0  0  0  0  0  0  0  0  0  0  0
  150.4054  139.6244  154.0993 H   0  0  0  0  0  0  0  0  0  0  0  0
  148.8508  141.6414  154.3478 H   0  0  0  0  0  0  0  0  0  0  0  0
  150.8860  142.9954  157.6834 H   0  0  0  0  0  0  0  0  0  0  0  0
  152.5384  141.0450  157.5849 H   0  0  0  0  0  0  0  0  0  0  0  0
  148.2872  132.8946  154.6576 H   0  0  0  0  0  0  0  0  0  0  0  0
  149.6120  133.4015  153.6383 H   0  0  0  0  0  0  0  0  0  0  0  0
  148.1344  134.9872  152.6249 H   0  0  0  0  0  0  0  0  0  0  0  0
  149.2151  143.1278  156.0862 H   0  0  0  0  0  0  0  0  0  0  0  0
  1  2  1  0  0  0  0
  1 20  1  0  0  0  0
  1 21  1  0  0  0  0
  1 22  1  0  0  0  0
  2 19  1  0  0  0  0
  2  3  1  0  0  0  0
  2 42  1  0  0  0  0
  3  4  1  0  0  0  0
  3 23  1  0  0  0  0
  3 24  1  0  0  0  0
  4  5  1  0  0  0  0
  4 25  1  0  0  0  0
  4 26  1  0  0  0  0
  5  6  1  0  0  0  0
  5 27  1  0  0  0  0
  5 28  1  0  0  0  0
  6  7  1  0  0  0  0
  6 19  1  0  0  0  0
  6 29  1  0  0  0  0
  7  8  1  0  0  0  0
  7 30  1  0  0  0  0
  8  9  2  0  0  0  0
  8 10  1  0  0  0  0
 10 11  1  0  0  0  0
 10 31  1  0  0  0  0
 11 12  1  0  0  0  0
 11 32  1  0  0  0  0
 11 33  1  0  0  0  0
 12 13  1  0  0  0  0
 12 34  1  0  0  0  0
 12 35  1  0  0  0  0
 13 18  1  0  0  0  0
 13 14  2  0  0  0  0
 14 15  1  0  0  0  0
 14 36  1  0  0  0  0
 15 16  2  0  0  0  0
 15 37  1  0  0  0  0
 16 17  1  0  0  0  0
 16 43  1  0  0  0  0
 17 18  2  0  0  0  0
 17 38  1  0  0  0  0
 18 39  1  0  0  0  0
 19 40  1  0  0  0  0
 19 41  1  0  0  0  0
M  CHG  1   2   1
M  CHG  1  16   1
M  END
> <s_m_source_file>
AV-unprocessed.smi

> <i_m_source_file_index>
2931

> <i_lp_mmshare_version>
43012

> <i_f3d_flags>
0

> <s_epik_input>
W0NIM11OMVtDSDJdW0NIMl1bQ0gyXVtDQEhdKFtDSDJdMSlbTkhdQyg9TylbTkhdW0NIMl1bQ0gyXWMyW2NIXVtjSF1uW2NIXVtjSF0y

> <s_epik_cmdline>
J2VwaWtfcHl0aG9uJywgJy1waCcsICc3LjAnLCAnLXRuJywgJzgnLCAnLW1hJywgJzIwMCcsICctbWV0YWxfYmluZGluZycsICctaW1hZScsICc8aW5maWxlLm1hZT4nLCAnLW9tYWUnLCAnPG91dGZpbGUubWFlPic=

> <r_epik_Ionization_Penalty>
1.43754

> <r_epik_Ionization_Penalty_Charging>
1.4375

> <r_epik_Ionization_Penalty_Neutral>
3.7629e-05

> <r_epik_State_Penalty>
1.52008

> <r_epik_Charging_Adjusted_Penalty>
2.95758

> <i_epik_Tot_Q>
2

> <i_epik_Tot_abs_Q>
2

> <r_epik_Metal_State_Penalty>
1.57105

> <b_epik_Metal_Only>
0

> <s_lp_Force_Field>
OPLS_2005

> <r_lp_Energy>
32.3729

> <b_lp_Chiralities_Consistent>
1

> <s_lp_Variant>
AV-unprocessed.smi:2931-7

> <Gold.Version>
5.8.1

> <Gold.Id.Protein>
6NUR|6NUR_protein|mol2

> <Gold.PLP.Fitness>
48.1125

> <Gold.PLP.PLP>
-31.9683

> <Gold.PLP.part.hbond>
-4.8373

> <Gold.PLP.part.metal>
0.0000

> <Gold.PLP.part.buried>
-1.6033

> <Gold.PLP.part.nonpolar>
-25.3606

> <Gold.PLP.part.repulsive>
0.3111

> <Gold.PLP.ligand.clash>
0.0000

> <Gold.PLP.ligand.torsion>
0.3015

> <Gold.PLP.Chemscore.Hbond>
5.5760

> <Gold.PLP.Chemscore.CHOScore>
0.0000

> <Gold.PLP.Chemscore.Metal>
0.0000

> <Gold.Chemscore.Hbonds>
donor molecule, donor type, donor heavy atom, donor atom, acceptor molecule, acceptor atom, score
      L1  H     2    42       P1  7948  2.00
      L1  H     7    30       P1  7948  0.83
      L1  H    16    43       P1  8028  1.92
      P1  H 10752 10765       L1     9  1.00

> <Gold.PLP.Chemscore.Internal.Correction>
0.0191

> <Gold.Rescore>
     Score         DG    S(hbond)    S(metal)    S(lipo)     H(rot)  DE(clash)    DE(int)     intcor
     18.69     -21.03       3.33        0.00      73.99       1.65       1.50       0.85       ----

> <Gold.Chemscore.Fitness>
18.6866

> <Gold.Chemscore.DG>
-21.0318

> <Gold.Chemscore.ZeroCoef>
-5.4800

> <Gold.Chemscore.Hbond>
3.3262

> <Gold.Chemscore.Metal>
0.0000

> <Gold.Chemscore.Lipo>
73.9928

> <Gold.Chemscore.Internal_Hbond>
0.0000

> <Gold.Chemscore.DEClash>
1.4970

> <Gold.Chemscore.DEInternal>
0.8483

> <Gold.Chemscore.Rot>
1.6464

> <Gold.Chemscore.Internal.Correction>
   9.000000E+99

> <Gold.Chemscore.Hbonds>
donor molecule, donor type, donor heavy atom, donor atom, acceptor molecule, acceptor atom, score
      L1  H     2    42       P1  7948  0.82
      L1  H     7    30       P1  7948  0.75
      L1  H    16    43       P1  8028  0.92
      P1  H 10752 10765       L1     9  0.54

> <Gold.Chemscore.Hbond.Weighted>
-11.1094

> <Gold.Chemscore.Metal.Weighted>
-0.0000

> <Gold.Chemscore.Lipo.Weighted>
-8.6572

> <Gold.Chemscore.Internal_Hbond.Weighted>
0.0000

> <Gold.Chemscore.DEClash.Weighted>
1.4970

> <Gold.Chemscore.DEInternal.Weighted>
0.8483

> <Gold.Chemscore.Rot.Weighted>
4.2148

> <Gold.Chemscore.Internal.Correction.Weighted>
   9.000000E+99

> <Gold.Protein.RotatedTorsions>
[ 6907 6896 6895 6894 ] final -116.22 input  -60.11 | X-H torsion
[ 7974 7965 7964 7962 ] final   94.93 input  175.53 | X-H torsion
[ 8008 7997 7996 7995 ] final -166.55 input   59.86 | X-H torsion
[ 10167 10162 10161 10158 ] final   11.13 input  -65.29 | X-H torsion
[ 10718 10713 10712 10709 ] final  154.84 input   66.30 | X-H torsion
[ 10763 10752 10751 10750 ] final -144.36 input  -60.55 | X-H torsion
[ 11005 11000 10999 10996 ] final  143.39 input  -57.11 | X-H torsion

> <Gold.Protein.ActiveResidues>
 VAL166  LYS551  ARG553  GLY616  TRP617  ASP618  TYR619  PRO620  LYS621  CYS622 
 ASP623  PHE694  ASN695  SER759  ASP760  ASP761  ALA762  ILE779  LEU786  VAL792 
 PHE793  MET794  SER795  GLU796  ALA797  LYS798  CYS799  TRP800  GLU811  SER814 

> <Gold.Protein.RotatedAtoms>
  150.8038  133.8548  159.3215 H   0  0  0  0  0  0  0  0  0  0  0  0  # atno 6907 bound_to 6896
  151.6353  135.1017  160.0139 H   0  0  0  0  0  0  0  0  0  0  0  0  # atno 6908 bound_to 6896
  152.4128  133.6950  159.6447 H   0  0  0  0  0  0  0  0  0  0  0  0  # atno 6909 bound_to 6896
  145.4589  139.2288  143.2998 H   0  0  0  0  0  0  0  0  0  0  0  0  # atno 7974 bound_to 7965
  155.8654  140.0985  157.1586 H   0  0  0  0  0  0  0  0  0  0  0  0  # atno 8008 bound_to 7997
  154.3993  140.1357  156.4075 H   0  0  0  0  0  0  0  0  0  0  0  0  # atno 8009 bound_to 7997
  155.7810  140.3458  155.5300 H   0  0  0  0  0  0  0  0  0  0  0  0  # atno 8010 bound_to 7997
  140.6151  143.8324  150.7109 H   0  0  0  0  0  0  0  0  0  0  0  0  # atno 10167 bound_to 10162
  157.2262  131.0729  151.1881 H   0  0  0  0  0  0  0  0  0  0  0  0  # atno 10718 bound_to 10713
  154.8431  135.3442  154.6334 H   0  0  0  0  0  0  0  0  0  0  0  0  # atno 10763 bound_to 10752
  153.6944  135.6973  153.5085 H   0  0  0  0  0  0  0  0  0  0  0  0  # atno 10764 bound_to 10752
  153.2571  135.4335  155.0811 H   0  0  0  0  0  0  0  0  0  0  0  0  # atno 10765 bound_to 10752
  140.0550  134.9235  157.1084 H   0  0  0  0  0  0  0  0  0  0  0  0  # atno 11005 bound_to 11000
  146.2462  140.5356  142.8913 LP  0  0  0  0  0  0  0  0  0  0  0  0  # atno 17320 bound_to 7965
  144.8015  140.6221  143.6475 LP  0  0  0  0  0  0  0  0  0  0  0  0  # atno 17321 bound_to 7965
  140.1902  143.4043  152.1869 LP  0  0  0  0  0  0  0  0  0  0  0  0  # atno 17342 bound_to 10162
  139.5392  144.7240  151.4790 LP  0  0  0  0  0  0  0  0  0  0  0  0  # atno 17343 bound_to 10162
  157.3525  130.7089  149.6450 LP  0  0  0  0  0  0  0  0  0  0  0  0  # atno 17370 bound_to 10713
  155.9678  130.4248  150.4627 LP  0  0  0  0  0  0  0  0  0  0  0  0  # atno 17371 bound_to 10713
  140.3858  134.2238  155.7168 LP  0  0  0  0  0  0  0  0  0  0  0  0  # atno 17394 bound_to 11000
  141.1948  133.8120  157.0743 LP  0  0  0  0  0  0  0  0  0  0  0  0  # atno 17395 bound_to 11000

$$$$
