AV-unprocessed.smi:66|AV-procd|sdf|626|dock9
  -GOLD-   2262016523D 1   1.00000     0.00000
 Structure written by MMmdl.
 27 29  0  0  0  0  0  0  0  0  3 V2000
  153.4481  141.4136  160.7236 O   0  0  0  0  0  0  0  0  0  0  0  0
  153.2164  140.8076  159.6545 C   0  0  0  0  0  0  0  0  0  0  0  0
  153.9892  139.9925  159.1027 O   0  5  0  0  0  0  0  0  0  0  0  0
  151.8787  141.1118  158.9640 C   0  0  1  0  0  0  0  0  0  0  0  0
  151.6981  142.6120  158.6894 C   0  0  0  0  0  0  0  0  0  0  0  0
  150.7535  142.6151  157.4914 C   0  0  1  0  0  0  0  0  0  0  0  0
  150.8074  143.8200  156.7563 O   0  0  0  0  0  0  0  0  0  0  0  0
  151.2118  141.4026  156.6779 C   0  0  0  0  0  0  0  0  0  0  0  0
  151.7555  140.4656  157.6543 N   0  0  0  0  0  0  0  0  0  0  0  0
  151.4811  139.0853  157.5265 C   0  0  0  0  0  0  0  0  0  0  0  0
  151.2907  138.3592  158.6582 N   0  0  0  0  0  0  0  0  0  0  0  0
  151.0264  137.0545  158.5295 C   0  0  0  0  0  0  0  0  0  0  0  0
  150.9209  136.3630  157.3910 N   0  0  0  0  0  0  0  0  0  0  0  0
  151.1121  137.0679  156.2572 C   0  0  0  0  0  0  0  0  0  0  0  0
  151.0933  136.7184  154.9810 N   0  5  0  0  0  0  0  0  0  0  0  0
  151.3630  137.8321  154.2531 C   0  0  0  0  0  0  0  0  0  0  0  0
  151.5635  138.9324  155.0067 N   0  0  0  0  0  0  0  0  0  0  0  0
  151.3952  138.4335  156.2679 C   0  0  0  0  0  0  0  0  0  0  0  0
  151.0583  140.7752  159.5998 H   0  0  0  0  0  0  0  0  0  0  0  0
  151.2923  143.1509  159.5459 H   0  0  0  0  0  0  0  0  0  0  0  0
  152.6471  143.0781  158.4166 H   0  0  0  0  0  0  0  0  0  0  0  0
  149.7323  142.4532  157.8396 H   0  0  0  0  0  0  0  0  0  0  0  0
  149.9710  143.9503  156.3371 H   0  0  0  0  0  0  0  0  0  0  0  0
  150.3820  140.9889  156.1033 H   0  0  0  0  0  0  0  0  0  0  0  0
  152.0091  141.6698  155.9830 H   0  0  0  0  0  0  0  0  0  0  0  0
  150.8757  136.5014  159.4447 H   0  0  0  0  0  0  0  0  0  0  0  0
  151.3996  137.7728  153.1725 H   0  0  0  0  0  0  0  0  0  0  0  0
  1  2  2  0  0  0  0
  2  3  1  0  0  0  0
  2  4  1  0  0  0  0
  4  5  1  0  0  0  0
  4 19  1  0  0  0  0
  4  9  1  0  0  0  0
  5  6  1  0  0  0  0
  5 20  1  0  0  0  0
  5 21  1  0  0  0  0
  6  7  1  0  0  0  0
  6  8  1  0  0  0  0
  6 22  1  0  0  0  0
  7 23  1  0  0  0  0
  8 24  1  0  0  0  0
  8 25  1  0  0  0  0
  8  9  1  0  0  0  0
  9 10  1  0  0  0  0
 10 11  1  0  0  0  0
 10 18  2  0  0  0  0
 11 12  2  0  0  0  0
 12 26  1  0  0  0  0
 12 13  1  0  0  0  0
 13 14  2  0  0  0  0
 14 15  1  0  0  0  0
 14 18  1  0  0  0  0
 15 16  1  0  0  0  0
 16 17  2  0  0  0  0
 16 27  1  0  0  0  0
 17 18  1  0  0  0  0
M  CHG  1   3  -1
M  CHG  1  15  -1
M  END
> <s_m_source_file>
AV-unprocessed.smi

> <i_m_source_file_index>
66

> <i_lp_mmshare_version>
43012

> <i_f3d_flags>
0

> <s_epik_input>
Tz1DKFtPSF0pW0NAQEhdMVtDSDJdW0NAQEhdKFtPSF0pW0NIMl1OMWMobltjSF1uMiljKGMyMylbbkhdW2NIXW4z

> <s_epik_cmdline>
J2VwaWtfcHl0aG9uJywgJy1waCcsICc3LjAnLCAnLXRuJywgJzgnLCAnLW1hJywgJzIwMCcsICctbWV0YWxfYmluZGluZycsICctaW1hZScsICc8aW5maWxlLm1hZT4nLCAnLW9tYWUnLCAnPG91dGZpbGUubWFlPic=

> <r_lp_tautomer_probability>
0.955585

> <r_epik_Ionization_Penalty>
7.65809

> <r_epik_Ionization_Penalty_Charging>
3.4974

> <r_epik_Ionization_Penalty_Neutral>
4.16069

> <r_epik_State_Penalty>
3.51624

> <r_epik_Charging_Adjusted_Penalty>
7.01364

> <i_epik_Tot_Q>
-2

> <i_epik_Tot_abs_Q>
2

> <r_epik_Metal_State_Penalty>
0.522662

> <b_epik_Metal_Only>
1

> <s_lp_Force_Field>
OPLS_2005

> <r_lp_Energy>
45.116

> <b_lp_Chiralities_Consistent>
1

> <s_lp_Variant>
AV-unprocessed.smi:66-10

> <Gold.Version>
5.8.1

> <Gold.Id.Protein>
6NUR|6NUR_protein|mol2

> <Gold.PLP.Fitness>
42.2257

> <Gold.PLP.PLP>
-24.5822

> <Gold.PLP.part.hbond>
-3.2380

> <Gold.PLP.part.metal>
0.0000

> <Gold.PLP.part.buried>
-5.2621

> <Gold.PLP.part.nonpolar>
-16.9715

> <Gold.PLP.part.repulsive>
0.1527

> <Gold.PLP.ligand.clash>
0.0000

> <Gold.PLP.ligand.torsion>
0.3127

> <Gold.PLP.Chemscore.Hbond>
5.0000

> <Gold.PLP.Chemscore.CHOScore>
1.0000

> <Gold.PLP.Chemscore.Metal>
0.0000

> <Gold.Chemscore.Hbonds>
donor molecule, donor type, donor heavy atom, donor atom, acceptor molecule, acceptor atom, score
      L1  H     7    23       P1  8028  0.88
      P1  H  7997  8009       L1     3  1.92
      P1  H 10752 10765       L1    15  1.04
      L1  C    16    27       P1  7949  1.00

> <Gold.PLP.Chemscore.Internal.Correction>
0.2689

> <Gold.Rescore>
     Score         DG    S(hbond)    S(metal)    S(lipo)     H(rot)  DE(clash)    DE(int)     intcor
     12.39     -13.77       2.50        0.00      38.27       1.78       0.11       1.27       ----

> <Gold.Chemscore.Fitness>
12.3897

> <Gold.Chemscore.DG>
-13.7714

> <Gold.Chemscore.ZeroCoef>
-5.4800

> <Gold.Chemscore.Hbond>
2.5026

> <Gold.Chemscore.Metal>
0.0000

> <Gold.Chemscore.Lipo>
38.2704

> <Gold.Chemscore.Internal_Hbond>
0.0000

> <Gold.Chemscore.DEClash>
0.1120

> <Gold.Chemscore.DEInternal>
1.2696

> <Gold.Chemscore.Rot>
1.7754

> <Gold.Chemscore.Internal.Correction>
   9.000000E+99

> <Gold.Chemscore.Hbonds>
donor molecule, donor type, donor heavy atom, donor atom, acceptor molecule, acceptor atom, score
      L1  H     7    23       P1  8028  0.84
      P1  H  7989  7998       L1    17  0.03
      P1  H  7997  8009       L1     3  0.87
      P1  H 10752 10765       L1    15  0.07

> <Gold.Chemscore.Hbond.Weighted>
-8.3588

> <Gold.Chemscore.Metal.Weighted>
-0.0000

> <Gold.Chemscore.Lipo.Weighted>
-4.4776

> <Gold.Chemscore.Internal_Hbond.Weighted>
0.0000

> <Gold.Chemscore.DEClash.Weighted>
0.1120

> <Gold.Chemscore.DEInternal.Weighted>
1.2696

> <Gold.Chemscore.Rot.Weighted>
4.5451

> <Gold.Chemscore.Internal.Correction.Weighted>
   9.000000E+99

> <Gold.Protein.RotatedTorsions>
[ 6907 6896 6895 6894 ] final -179.36 input  -60.11 | X-H torsion
[ 7974 7965 7964 7962 ] final   71.95 input  175.53 | X-H torsion
[ 8008 7997 7996 7995 ] final  135.03 input   59.86 | X-H torsion
[ 10167 10162 10161 10158 ] final  -79.17 input  -65.29 | X-H torsion
[ 10718 10713 10712 10709 ] final  138.48 input   66.30 | X-H torsion
[ 10763 10752 10751 10750 ] final -169.35 input  -60.55 | X-H torsion
[ 11005 11000 10999 10996 ] final  -14.67 input  -57.11 | X-H torsion

> <Gold.Protein.ActiveResidues>
 VAL166  LYS551  ARG553  GLY616  TRP617  ASP618  TYR619  PRO620  LYS621  CYS622 
 ASP623  PHE694  ASN695  SER759  ASP760  ASP761  ALA762  ILE779  LEU786  VAL792 
 PHE793  MET794  SER795  GLU796  ALA797  LYS798  CYS799  TRP800  GLU811  SER814 

> <Gold.Protein.RotatedAtoms>
  151.6523  133.3320  159.3154 H   0  0  0  0  0  0  0  0  0  0  0  0  # atno 6907 bound_to 6896
  150.7954  134.7014  159.6561 H   0  0  0  0  0  0  0  0  0  0  0  0  # atno 6908 bound_to 6896
  152.4040  134.6242  160.0110 H   0  0  0  0  0  0  0  0  0  0  0  0  # atno 6909 bound_to 6896
  145.7595  139.2794  143.1384 H   0  0  0  0  0  0  0  0  0  0  0  0  # atno 7974 bound_to 7965
  156.3001  140.2481  156.3514 H   0  0  0  0  0  0  0  0  0  0  0  0  # atno 8008 bound_to 7997
  154.8962  140.0407  157.1886 H   0  0  0  0  0  0  0  0  0  0  0  0  # atno 8009 bound_to 7997
  154.8547  140.2911  155.5580 H   0  0  0  0  0  0  0  0  0  0  0  0  # atno 8010 bound_to 7997
  140.4617  143.2451  151.8338 H   0  0  0  0  0  0  0  0  0  0  0  0  # atno 10167 bound_to 10162
  157.4248  131.1042  151.0314 H   0  0  0  0  0  0  0  0  0  0  0  0  # atno 10718 bound_to 10713
  154.6533  135.2914  154.9960 H   0  0  0  0  0  0  0  0  0  0  0  0  # atno 10763 bound_to 10752
  154.1045  135.6572  153.4878 H   0  0  0  0  0  0  0  0  0  0  0  0  # atno 10764 bound_to 10752
  153.0388  135.5250  154.7450 H   0  0  0  0  0  0  0  0  0  0  0  0  # atno 10765 bound_to 10752
  140.7888  133.8304  155.9360 H   0  0  0  0  0  0  0  0  0  0  0  0  # atno 11005 bound_to 11000
  146.0278  140.8287  142.9891 LP  0  0  0  0  0  0  0  0  0  0  0  0  # atno 17320 bound_to 7965
  144.6833  140.2724  143.7304 LP  0  0  0  0  0  0  0  0  0  0  0  0  # atno 17321 bound_to 7965
  139.4807  144.4999  151.9074 LP  0  0  0  0  0  0  0  0  0  0  0  0  # atno 17342 bound_to 10162
  140.4085  144.2400  150.5890 LP  0  0  0  0  0  0  0  0  0  0  0  0  # atno 17343 bound_to 10162
  157.1232  130.6070  149.5510 LP  0  0  0  0  0  0  0  0  0  0  0  0  # atno 17370 bound_to 10713
  155.9893  130.4939  150.7206 LP  0  0  0  0  0  0  0  0  0  0  0  0  # atno 17371 bound_to 10713
  140.9410  134.1901  157.4798 LP  0  0  0  0  0  0  0  0  0  0  0  0  # atno 17394 bound_to 11000
  139.8733  134.9872  156.5356 LP  0  0  0  0  0  0  0  0  0  0  0  0  # atno 17395 bound_to 11000

$$$$
