AV-unprocessed.smi:1005|AV-procd|sdf|4375|dock10
  -GOLD-   22720 2293D 1   1.00000     0.00000
 Structure written by MMmdl.
 57 59  0  0  0  0  0  0  0  0  3 V2000
  152.5217  144.0997  161.6509 C   0  0  0  0  0  0  0  0  0  0  0  0
  152.3051  143.2134  160.4361 C   0  0  0  0  0  0  0  0  0  0  0  0
  151.4881  143.6937  159.3874 C   0  0  0  0  0  0  0  0  0  0  0  0
  151.3088  142.8602  158.2898 C   0  0  0  0  0  0  0  0  0  0  0  0
  150.5738  143.0361  157.1152 N   0  3  0  0  0  0  0  0  0  0  0  0
  150.7008  141.9308  156.3294 C   0  0  0  0  0  0  0  0  0  0  0  0
  151.5058  141.0522  156.9861 N   0  0  0  0  0  0  0  0  0  0  0  0
  151.9655  139.7136  156.5923 C   0  0  0  0  0  0  0  0  0  0  0  0
  150.9389  138.9581  155.7261 C   0  0  1  0  0  0  0  0  0  0  0  0
  150.9996  139.4512  154.4026 O   0  0  0  0  0  0  0  0  0  0  0  0
  151.2204  137.4419  155.6975 C   0  0  0  0  0  0  0  0  0  0  0  0
  150.2153  136.6085  156.3599 N   0  0  0  0  0  0  0  0  0  0  0  0
  150.5630  135.1954  156.2600 C   0  0  0  0  0  0  0  0  0  0  0  0
  149.5283  134.2983  156.9587 C   0  0  0  0  0  0  0  0  0  0  0  0
  149.3905  134.7030  158.3172 O   0  0  0  0  0  0  0  0  0  0  0  0
  148.9847  136.0623  158.4604 C   0  0  1  0  0  0  0  0  0  0  0  0
  148.8366  136.3554  159.9691 C   0  0  0  0  0  0  0  0  0  0  0  0
  147.9490  135.3990  160.6814 N   0  3  0  0  0  0  0  0  0  0  0  0
  146.6458  135.1767  160.0143 C   0  0  0  0  0  0  0  0  0  0  0  0
  147.7730  135.7683  162.1037 C   0  0  0  0  0  0  0  0  0  0  0  0
  150.0490  136.9469  157.7730 C   0  0  0  0  0  0  0  0  0  0  0  0
  151.9115  141.5902  158.2116 C   0  0  0  0  0  0  0  0  0  0  0  0
  152.7221  141.1023  159.2336 C   0  0  0  0  0  0  0  0  0  0  0  0
  152.9120  141.9327  160.3611 C   0  0  0  0  0  0  0  0  0  0  0  0
  153.7830  141.4229  161.4969 C   0  0  0  0  0  0  0  0  0  0  0  0
  152.0077  145.0554  161.5447 H   0  0  0  0  0  0  0  0  0  0  0  0
  153.5832  144.3075  161.7893 H   0  0  0  0  0  0  0  0  0  0  0  0
  152.1424  143.6153  162.5511 H   0  0  0  0  0  0  0  0  0  0  0  0
  151.0223  144.6671  159.4379 H   0  0  0  0  0  0  0  0  0  0  0  0
  150.2432  141.7781  155.3623 H   0  0  0  0  0  0  0  0  0  0  0  0
  152.9056  139.8333  156.0519 H   0  0  0  0  0  0  0  0  0  0  0  0
  152.1971  139.1542  157.4996 H   0  0  0  0  0  0  0  0  0  0  0  0
  149.9424  139.1623  156.1121 H   0  0  0  0  0  0  0  0  0  0  0  0
  150.1791  139.2598  153.9740 H   0  0  0  0  0  0  0  0  0  0  0  0
  151.3265  137.1348  154.6556 H   0  0  0  0  0  0  0  0  0  0  0  0
  152.1913  137.2471  156.1560 H   0  0  0  0  0  0  0  0  0  0  0  0
  150.6390  134.9053  155.2112 H   0  0  0  0  0  0  0  0  0  0  0  0
  151.5456  135.0235  156.7028 H   0  0  0  0  0  0  0  0  0  0  0  0
  148.5627  134.3539  156.4537 H   0  0  0  0  0  0  0  0  0  0  0  0
  149.8468  133.2563  156.9275 H   0  0  0  0  0  0  0  0  0  0  0  0
  148.0176  136.1777  157.9673 H   0  0  0  0  0  0  0  0  0  0  0  0
  149.8244  136.2701  160.4250 H   0  0  0  0  0  0  0  0  0  0  0  0
  148.5158  137.3836  160.1437 H   0  0  0  0  0  0  0  0  0  0  0  0
  146.1144  136.1176  159.8644 H   0  0  0  0  0  0  0  0  0  0  0  0
  146.0122  134.5210  160.6129 H   0  0  0  0  0  0  0  0  0  0  0  0
  146.7779  134.6908  159.0483 H   0  0  0  0  0  0  0  0  0  0  0  0
  147.2613  136.7271  162.1974 H   0  0  0  0  0  0  0  0  0  0  0  0
  148.7364  135.8434  162.6092 H   0  0  0  0  0  0  0  0  0  0  0  0
  147.1861  135.0144  162.6293 H   0  0  0  0  0  0  0  0  0  0  0  0
  151.0023  136.8308  158.2912 H   0  0  0  0  0  0  0  0  0  0  0  0
  149.7724  137.9922  157.8818 H   0  0  0  0  0  0  0  0  0  0  0  0
  153.1865  140.1294  159.1727 H   0  0  0  0  0  0  0  0  0  0  0  0
  154.1579  140.4193  161.2942 H   0  0  0  0  0  0  0  0  0  0  0  0
  153.2152  141.3843  162.4268 H   0  0  0  0  0  0  0  0  0  0  0  0
  154.6432  142.0767  161.6420 H   0  0  0  0  0  0  0  0  0  0  0  0
  148.4270  134.5088  160.6835 H   0  0  0  0  0  0  0  0  0  0  0  0
  150.0250  143.8489  156.8652 H   0  0  0  0  0  0  0  0  0  0  0  0
  1  2  1  0  0  0  0
  1 26  1  0  0  0  0
  1 27  1  0  0  0  0
  1 28  1  0  0  0  0
  2 24  1  0  0  0  0
  2  3  2  0  0  0  0
  3  4  1  0  0  0  0
  3 29  1  0  0  0  0
  4 22  2  0  0  0  0
  4  5  1  0  0  0  0
  5  6  2  0  0  0  0
  5 57  1  0  0  0  0
  6  7  1  0  0  0  0
  6 30  1  0  0  0  0
  7  8  1  0  0  0  0
  7 22  1  0  0  0  0
  8  9  1  0  0  0  0
  8 31  1  0  0  0  0
  8 32  1  0  0  0  0
  9 10  1  0  0  0  0
  9 11  1  0  0  0  0
  9 33  1  0  0  0  0
 10 34  1  0  0  0  0
 11 12  1  0  0  0  0
 11 35  1  0  0  0  0
 11 36  1  0  0  0  0
 12 21  1  0  0  0  0
 12 13  1  0  0  0  0
 13 14  1  0  0  0  0
 13 37  1  0  0  0  0
 13 38  1  0  0  0  0
 14 15  1  0  0  0  0
 14 39  1  0  0  0  0
 14 40  1  0  0  0  0
 15 16  1  0  0  0  0
 16 17  1  0  0  0  0
 16 21  1  0  0  0  0
 16 41  1  0  0  0  0
 17 18  1  0  0  0  0
 17 42  1  0  0  0  0
 17 43  1  0  0  0  0
 18 19  1  0  0  0  0
 18 20  1  0  0  0  0
 18 56  1  0  0  0  0
 19 44  1  0  0  0  0
 19 45  1  0  0  0  0
 19 46  1  0  0  0  0
 20 47  1  0  0  0  0
 20 48  1  0  0  0  0
 20 49  1  0  0  0  0
 21 50  1  0  0  0  0
 21 51  1  0  0  0  0
 22 23  1  0  0  0  0
 23 24  2  0  0  0  0
 23 52  1  0  0  0  0
 24 25  1  0  0  0  0
 25 53  1  0  0  0  0
 25 54  1  0  0  0  0
 25 55  1  0  0  0  0
M  CHG  1   5   1
M  CHG  1  18   1
M  END
> <s_m_source_file>
AV-unprocessed.smi

> <i_m_source_file_index>
1005

> <i_lp_mmshare_version>
43012

> <i_f3d_flags>
0

> <s_epik_input>
W0NIM11jKFtjSF0xKWMoW0NIM10pW2NIXWMoYzEyKW4oW2NIXW4yKVtDSDJdW0NASF0oW09IXSlbQ0gyXU4zW0NIMl1bQ0gyXU9bQ0BIXShbQ0gyXTMpW0NIMl1OKFtDSDNdKVtDSDNd

> <s_epik_cmdline>
J2VwaWtfcHl0aG9uJywgJy1waCcsICc3LjAnLCAnLXRuJywgJzgnLCAnLW1hJywgJzIwMCcsICctbWV0YWxfYmluZGluZycsICctaW1hZScsICc8aW5maWxlLm1hZT4nLCAnLW9tYWUnLCAnPG91dGZpbGUubWFlPic=

> <r_epik_Ionization_Penalty>
1.3281

> <r_epik_Ionization_Penalty_Charging>
1.21988

> <r_epik_Ionization_Penalty_Neutral>
0.10822

> <r_epik_State_Penalty>
1.32886

> <r_epik_Charging_Adjusted_Penalty>
2.54875

> <i_epik_Tot_Q>
2

> <i_epik_Tot_abs_Q>
2

> <r_epik_Metal_State_Penalty>
5.33912

> <b_epik_Metal_Only>
0

> <s_lp_Force_Field>
OPLS_2005

> <r_lp_Energy>
45.907

> <b_lp_Chiralities_Consistent>
1

> <s_lp_Variant>
AV-unprocessed.smi:1005-14

> <Gold.Version>
5.8.1

> <Gold.Id.Protein>
6NUR|6NUR_protein|mol2

> <Gold.PLP.Fitness>
56.7562

> <Gold.PLP.PLP>
-47.2185

> <Gold.PLP.part.hbond>
-3.0000

> <Gold.PLP.part.metal>
0.0000

> <Gold.PLP.part.buried>
-7.5909

> <Gold.PLP.part.nonpolar>
-36.0253

> <Gold.PLP.part.repulsive>
0.1428

> <Gold.PLP.ligand.clash>
0.0000

> <Gold.PLP.ligand.torsion>
1.3112

> <Gold.PLP.Chemscore.Hbond>
4.0000

> <Gold.PLP.Chemscore.CHOScore>
0.0000

> <Gold.PLP.Chemscore.Metal>
0.0000

> <Gold.Chemscore.Hbonds>
donor molecule, donor type, donor heavy atom, donor atom, acceptor molecule, acceptor atom, score
      L1  H     5    57       P1  8028  2.00
      P1  H  6896  6909       L1    15  1.00
      P1  H  7989  7998       L1    10  1.00

> <Gold.PLP.Chemscore.Internal.Correction>
0.1600

> <Gold.Rescore>
     Score         DG    S(hbond)    S(metal)    S(lipo)     H(rot)  DE(clash)    DE(int)     intcor
     21.99     -23.39       2.73        0.00     129.53       2.49       0.07       1.33       ----

> <Gold.Chemscore.Fitness>
21.9902

> <Gold.Chemscore.DG>
-23.3862

> <Gold.Chemscore.ZeroCoef>
-5.4800

> <Gold.Chemscore.Hbond>
2.7320

> <Gold.Chemscore.Metal>
0.0000

> <Gold.Chemscore.Lipo>
129.5307

> <Gold.Chemscore.Internal_Hbond>
0.0000

> <Gold.Chemscore.DEClash>
0.0680

> <Gold.Chemscore.DEInternal>
1.3280

> <Gold.Chemscore.Rot>
2.4897

> <Gold.Chemscore.Internal.Correction>
   9.000000E+99

> <Gold.Chemscore.Hbonds>
donor molecule, donor type, donor heavy atom, donor atom, acceptor molecule, acceptor atom, score
      L1  H     5    57       P1  8028  0.94
      P1  H  6896  6909       L1    15  0.79
      P1  H  7989  7998       L1    10  0.45

> <Gold.Chemscore.Hbond.Weighted>
-9.1248

> <Gold.Chemscore.Metal.Weighted>
-0.0000

> <Gold.Chemscore.Lipo.Weighted>
-15.1551

> <Gold.Chemscore.Internal_Hbond.Weighted>
0.0000

> <Gold.Chemscore.DEClash.Weighted>
0.0680

> <Gold.Chemscore.DEInternal.Weighted>
1.3280

> <Gold.Chemscore.Rot.Weighted>
6.3737

> <Gold.Chemscore.Internal.Correction.Weighted>
   9.000000E+99

> <Gold.Protein.RotatedTorsions>
[ 6907 6896 6895 6894 ] final   30.38 input  -60.11 | X-H torsion
[ 7974 7965 7964 7962 ] final  119.17 input  175.53 | X-H torsion
[ 8008 7997 7996 7995 ] final   -2.50 input   59.86 | X-H torsion
[ 10167 10162 10161 10158 ] final -156.70 input  -65.29 | X-H torsion
[ 10718 10713 10712 10709 ] final  116.36 input   66.30 | X-H torsion
[ 10763 10752 10751 10750 ] final -163.95 input  -60.55 | X-H torsion
[ 11005 11000 10999 10996 ] final  -17.15 input  -57.11 | X-H torsion

> <Gold.Protein.ActiveResidues>
 VAL166  LYS551  ARG553  GLY616  TRP617  ASP618  TYR619  PRO620  LYS621  CYS622 
 ASP623  PHE694  ASN695  SER759  ASP760  ASP761  ALA762  ILE779  LEU786  VAL792 
 PHE793  MET794  SER795  GLU796  ALA797  LYS798  CYS799  TRP800  GLU811  SER814 

> <Gold.Protein.RotatedAtoms>
  152.0451  134.9688  160.0574 H   0  0  0  0  0  0  0  0  0  0  0  0  # atno 6907 bound_to 6896
  152.1111  133.4296  159.4640 H   0  0  0  0  0  0  0  0  0  0  0  0  # atno 6908 bound_to 6896
  150.6843  134.2566  159.4575 H   0  0  0  0  0  0  0  0  0  0  0  0  # atno 6909 bound_to 6896
  145.1463  139.3237  143.4590 H   0  0  0  0  0  0  0  0  0  0  0  0  # atno 7974 bound_to 7965
  154.6351  140.2533  155.7388 H   0  0  0  0  0  0  0  0  0  0  0  0  # atno 8008 bound_to 7997
  156.2500  140.2899  156.0640 H   0  0  0  0  0  0  0  0  0  0  0  0  # atno 8009 bound_to 7997
  155.1684  140.0386  157.2848 H   0  0  0  0  0  0  0  0  0  0  0  0  # atno 8010 bound_to 7997
  139.6829  143.9550  152.2346 H   0  0  0  0  0  0  0  0  0  0  0  0  # atno 10167 bound_to 10162
  157.6165  131.1024  150.7462 H   0  0  0  0  0  0  0  0  0  0  0  0  # atno 10718 bound_to 10713
  154.7075  135.2999  154.9248 H   0  0  0  0  0  0  0  0  0  0  0  0  # atno 10763 bound_to 10752
  154.0161  135.6688  153.4773 H   0  0  0  0  0  0  0  0  0  0  0  0  # atno 10764 bound_to 10752
  153.0728  135.5051  154.8254 H   0  0  0  0  0  0  0  0  0  0  0  0  # atno 10765 bound_to 10752
  140.8140  133.8119  155.9591 H   0  0  0  0  0  0  0  0  0  0  0  0  # atno 11005 bound_to 11000
  146.3499  140.1520  142.8592 LP  0  0  0  0  0  0  0  0  0  0  0  0  # atno 17320 bound_to 7965
  145.0478  140.8995  143.5014 LP  0  0  0  0  0  0  0  0  0  0  0  0  # atno 17321 bound_to 7965
  139.9345  144.6720  150.8329 LP  0  0  0  0  0  0  0  0  0  0  0  0  # atno 17342 bound_to 10162
  140.7658  143.3286  151.2461 LP  0  0  0  0  0  0  0  0  0  0  0  0  # atno 17343 bound_to 10162
  156.7829  130.4865  149.5398 LP  0  0  0  0  0  0  0  0  0  0  0  0  # atno 17370 bound_to 10713
  156.1289  130.6164  151.0305 LP  0  0  0  0  0  0  0  0  0  0  0  0  # atno 17371 bound_to 10713
  140.9168  134.2191  157.4951 LP  0  0  0  0  0  0  0  0  0  0  0  0  # atno 17394 bound_to 11000
  139.8712  134.9775  156.4961 LP  0  0  0  0  0  0  0  0  0  0  0  0  # atno 17395 bound_to 11000

$$$$
