AV-unprocessed.smi:2222|AV-procd|sdf|8988|dock9
  -GOLD-   2272012203D 1   1.00000     0.00000
 Structure written by MMmdl.
 34 35  0  0  0  0  0  0  0  0  1 V2000
  146.2521  142.3510  154.0959 C   0  0  0  0  0  0  0  0  0  0  0  0
  147.5472  142.3093  154.6770 O   0  0  0  0  0  0  0  0  0  0  0  0
  148.2819  141.1460  154.5541 C   0  0  0  0  0  0  0  0  0  0  0  0
  147.8226  139.9971  153.8610 C   0  0  0  0  0  0  0  0  0  0  0  0
  148.6433  138.8580  153.7914 C   0  0  0  0  0  0  0  0  0  0  0  0
  149.9012  138.9063  154.4179 C   0  0  0  0  0  0  0  0  0  0  0  0
  150.8377  137.7169  154.3837 C   0  0  0  0  0  0  0  0  0  0  0  0
  150.3485  139.9921  155.0798 N   0  0  0  0  0  0  0  0  0  0  0  0
  149.5664  141.0973  155.1548 C   0  0  0  0  0  0  0  0  0  0  0  0
  149.9645  142.2799  155.8360 N   0  0  0  0  0  0  0  0  0  0  0  0
  150.8985  142.4275  156.7965 C   0  0  0  0  0  0  0  0  0  0  0  0
  151.6157  141.5231  157.2210 O   0  0  0  0  0  0  0  0  0  0  0  0
  151.0286  143.6867  157.2516 N   0  0  0  0  0  0  0  0  0  0  0  0
  151.9237  144.1690  158.2604 C   0  0  1  0  0  0  0  0  0  0  0  0
  151.3346  145.1027  159.2950 C   0  0  0  0  0  0  0  0  0  0  0  0
  151.7190  143.7012  159.6866 C   0  0  2  0  0  0  0  0  0  0  0  0
  152.8987  143.4699  160.6054 C   0  0  0  0  0  0  0  0  0  0  0  0
  145.8062  143.3279  154.2825 H   0  0  0  0  0  0  0  0  0  0  0  0
  145.5938  141.5995  154.5340 H   0  0  0  0  0  0  0  0  0  0  0  0
  146.2946  142.2093  153.0152 H   0  0  0  0  0  0  0  0  0  0  0  0
  146.8565  139.9654  153.3809 H   0  0  0  0  0  0  0  0  0  0  0  0
  148.3118  137.9725  153.2695 H   0  0  0  0  0  0  0  0  0  0  0  0
  150.4524  136.9285  153.7367 H   0  0  0  0  0  0  0  0  0  0  0  0
  150.9632  137.3064  155.3859 H   0  0  0  0  0  0  0  0  0  0  0  0
  151.8174  138.0147  154.0085 H   0  0  0  0  0  0  0  0  0  0  0  0
  149.4689  143.1166  155.5655 H   0  0  0  0  0  0  0  0  0  0  0  0
  150.4741  144.3904  156.7857 H   0  0  0  0  0  0  0  0  0  0  0  0
  152.9431  144.4076  157.9607 H   0  0  0  0  0  0  0  0  0  0  0  0
  151.9628  145.9187  159.6469 H   0  0  0  0  0  0  0  0  0  0  0  0
  150.2722  145.3303  159.2331 H   0  0  0  0  0  0  0  0  0  0  0  0
  150.8950  143.0096  159.8529 H   0  0  0  0  0  0  0  0  0  0  0  0
  153.6965  144.1843  160.4002 H   0  0  0  0  0  0  0  0  0  0  0  0
  153.2900  142.4626  160.4641 H   0  0  0  0  0  0  0  0  0  0  0  0
  152.5908  143.5814  161.6451 H   0  0  0  0  0  0  0  0  0  0  0  0
  1  2  1  0  0  0  0
  1 18  1  0  0  0  0
  1 19  1  0  0  0  0
  1 20  1  0  0  0  0
  2  3  1  0  0  0  0
  3  9  1  0  0  0  0
  3  4  2  0  0  0  0
  4  5  1  0  0  0  0
  4 21  1  0  0  0  0
  5  6  2  0  0  0  0
  5 22  1  0  0  0  0
  6  7  1  0  0  0  0
  6  8  1  0  0  0  0
  7 23  1  0  0  0  0
  7 24  1  0  0  0  0
  7 25  1  0  0  0  0
  8  9  2  0  0  0  0
  9 10  1  0  0  0  0
 10 11  1  0  0  0  0
 10 26  1  0  0  0  0
 11 12  2  0  0  0  0
 11 13  1  0  0  0  0
 13 14  1  0  0  0  0
 13 27  1  0  0  0  0
 14 16  1  0  0  0  0
 14 15  1  0  0  0  0
 14 28  1  0  0  0  0
 15 16  1  0  0  0  0
 15 29  1  0  0  0  0
 15 30  1  0  0  0  0
 16 17  1  0  0  0  0
 16 31  1  0  0  0  0
 17 32  1  0  0  0  0
 17 33  1  0  0  0  0
 17 34  1  0  0  0  0
M  END
> <s_m_source_file>
AV-unprocessed.smi

> <i_m_source_file_index>
2222

> <i_lp_mmshare_version>
43012

> <i_f3d_flags>
0

> <s_epik_input>
W0NIM11PYzFbY0hdW2NIXWMoW0NIM10pbmMxW05IXUMoPU8pW05IXVtDQEBIXTJbQ0gyXVtDQEhdMltDSDNd

> <s_epik_cmdline>
J2VwaWtfcHl0aG9uJywgJy1waCcsICc3LjAnLCAnLXRuJywgJzgnLCAnLW1hJywgJzIwMCcsICctbWV0YWxfYmluZGluZycsICctaW1hZScsICc8aW5maWxlLm1hZT4nLCAnLW9tYWUnLCAnPG91dGZpbGUubWFlPic=

> <r_lp_tautomer_probability>
1

> <r_epik_Ionization_Penalty>
6.59103e-05

> <r_epik_Ionization_Penalty_Charging>
0

> <r_epik_Ionization_Penalty_Neutral>
6.59103e-05

> <r_epik_State_Penalty>
-0

> <r_epik_Charging_Adjusted_Penalty>
0

> <i_epik_Tot_Q>
0

> <i_epik_Tot_abs_Q>
0

> <r_epik_Metal_State_Penalty>
-0

> <b_epik_Metal_Only>
0

> <s_lp_Force_Field>
OPLS_2005

> <r_lp_Energy>
33.3795

> <b_lp_Chiralities_Consistent>
1

> <s_lp_Variant>
AV-unprocessed.smi:2222-4

> <Gold.Version>
5.8.1

> <Gold.Id.Protein>
6NUR|6NUR_protein|mol2

> <Gold.PLP.Fitness>
43.7119

> <Gold.PLP.PLP>
-37.3463

> <Gold.PLP.part.hbond>
-2.5022

> <Gold.PLP.part.metal>
0.0000

> <Gold.PLP.part.buried>
-3.3763

> <Gold.PLP.part.nonpolar>
-34.0542

> <Gold.PLP.part.repulsive>
1.9655

> <Gold.PLP.ligand.clash>
0.0000

> <Gold.PLP.ligand.torsion>
0.2121

> <Gold.PLP.Chemscore.Hbond>
2.2522

> <Gold.PLP.Chemscore.CHOScore>
0.0000

> <Gold.PLP.Chemscore.Metal>
0.0000

> <Gold.Chemscore.Hbonds>
donor molecule, donor type, donor heavy atom, donor atom, acceptor molecule, acceptor atom, score
      L1  H    10    26       P1  8028  1.00
      L1  H    13    27       P1  8028  0.94
      P1  H  7989  7998       L1     8  0.33

> <Gold.PLP.Chemscore.Internal.Correction>
0.0333

> <Gold.Rescore>
     Score         DG    S(hbond)    S(metal)    S(lipo)     H(rot)  DE(clash)    DE(int)     intcor
     17.39     -19.22       1.90        0.00      89.79       1.22       0.43       1.40       ----

> <Gold.Chemscore.Fitness>
17.3882

> <Gold.Chemscore.DG>
-19.2201

> <Gold.Chemscore.ZeroCoef>
-5.4800

> <Gold.Chemscore.Hbond>
1.9009

> <Gold.Chemscore.Metal>
0.0000

> <Gold.Chemscore.Lipo>
89.7947

> <Gold.Chemscore.Internal_Hbond>
0.0000

> <Gold.Chemscore.DEClash>
0.4323

> <Gold.Chemscore.DEInternal>
1.3997

> <Gold.Chemscore.Rot>
1.2168

> <Gold.Chemscore.Internal.Correction>
   9.000000E+99

> <Gold.Chemscore.Hbonds>
donor molecule, donor type, donor heavy atom, donor atom, acceptor molecule, acceptor atom, score
      L1  H    10    26       P1  8028  0.99
      L1  H    13    27       P1  8028  0.86
      P1  H  7989  7998       L1     8  0.01

> <Gold.Chemscore.Hbond.Weighted>
-6.3491

> <Gold.Chemscore.Metal.Weighted>
-0.0000

> <Gold.Chemscore.Lipo.Weighted>
-10.5060

> <Gold.Chemscore.Internal_Hbond.Weighted>
0.0000

> <Gold.Chemscore.DEClash.Weighted>
0.4323

> <Gold.Chemscore.DEInternal.Weighted>
1.3997

> <Gold.Chemscore.Rot.Weighted>
3.1150

> <Gold.Chemscore.Internal.Correction.Weighted>
   9.000000E+99

> <Gold.Protein.RotatedTorsions>
[ 6907 6896 6895 6894 ] final  164.21 input  -60.11 | X-H torsion
[ 7974 7965 7964 7962 ] final   21.85 input  175.53 | X-H torsion
[ 8008 7997 7996 7995 ] final  -19.34 input   59.86 | X-H torsion
[ 10167 10162 10161 10158 ] final  -11.88 input  -65.29 | X-H torsion
[ 10718 10713 10712 10709 ] final -121.59 input   66.30 | X-H torsion
[ 10763 10752 10751 10750 ] final -105.77 input  -60.55 | X-H torsion
[ 11005 11000 10999 10996 ] final  -46.08 input  -57.11 | X-H torsion

> <Gold.Protein.ActiveResidues>
 VAL166  LYS551  ARG553  GLY616  TRP617  ASP618  TYR619  PRO620  LYS621  CYS622 
 ASP623  PHE694  ASN695  SER759  ASP760  ASP761  ALA762  ILE779  LEU786  VAL792 
 PHE793  MET794  SER795  GLU796  ALA797  LYS798  CYS799  TRP800  GLU811  SER814 

> <Gold.Protein.RotatedAtoms>
  151.9133  133.3566  159.3870 H   0  0  0  0  0  0  0  0  0  0  0  0  # atno 6907 bound_to 6896
  150.7053  134.4710  159.5434 H   0  0  0  0  0  0  0  0  0  0  0  0  # atno 6908 bound_to 6896
  152.2320  134.8313  160.0523 H   0  0  0  0  0  0  0  0  0  0  0  0  # atno 6909 bound_to 6896
  146.2054  139.7969  142.8730 H   0  0  0  0  0  0  0  0  0  0  0  0  # atno 7974 bound_to 7965
  154.4844  140.2091  155.9690 H   0  0  0  0  0  0  0  0  0  0  0  0  # atno 8008 bound_to 7997
  156.1213  140.3213  155.8182 H   0  0  0  0  0  0  0  0  0  0  0  0  # atno 8009 bound_to 7997
  155.4462  140.0513  157.2996 H   0  0  0  0  0  0  0  0  0  0  0  0  # atno 8010 bound_to 7997
  140.7148  143.5592  150.9214 H   0  0  0  0  0  0  0  0  0  0  0  0  # atno 10167 bound_to 10162
  156.1349  130.6423  150.9681 H   0  0  0  0  0  0  0  0  0  0  0  0  # atno 10718 bound_to 10713
  154.7968  135.4737  154.0181 H   0  0  0  0  0  0  0  0  0  0  0  0  # atno 10763 bound_to 10752
  153.1717  135.6826  153.8606 H   0  0  0  0  0  0  0  0  0  0  0  0  # atno 10764 bound_to 10752
  153.8186  135.3207  155.3386 H   0  0  0  0  0  0  0  0  0  0  0  0  # atno 10765 bound_to 10752
  141.0556  133.6727  156.3103 H   0  0  0  0  0  0  0  0  0  0  0  0  # atno 11005 bound_to 11000
  145.3338  141.0272  143.3431 LP  0  0  0  0  0  0  0  0  0  0  0  0  # atno 17320 bound_to 7965
  144.8780  139.4943  143.6736 LP  0  0  0  0  0  0  0  0  0  0  0  0  # atno 17321 bound_to 7965
  139.9318  143.6485  152.3074 LP  0  0  0  0  0  0  0  0  0  0  0  0  # atno 17342 bound_to 10162
  139.6938  144.7644  151.1392 LP  0  0  0  0  0  0  0  0  0  0  0  0  # atno 17343 bound_to 10162
  157.6523  131.0895  150.8023 LP  0  0  0  0  0  0  0  0  0  0  0  0  # atno 17370 bound_to 10713
  156.8104  130.4950  149.5356 LP  0  0  0  0  0  0  0  0  0  0  0  0  # atno 17371 bound_to 10713
  140.5970  134.5593  157.5510 LP  0  0  0  0  0  0  0  0  0  0  0  0  # atno 17394 bound_to 11000
  139.9387  134.7827  156.0734 LP  0  0  0  0  0  0  0  0  0  0  0  0  # atno 17395 bound_to 11000

$$$$
