AV-unprocessed.smi:2877|AV-procd|sdf|11044|dock4
  -GOLD-   2272015513D 1   1.00000     0.00000
 Structure written by MMmdl.
 40 41  0  0  0  0  0  0  0  0  2 V2000
  152.3989  140.0615  159.3054 O   0  0  0  0  0  0  0  0  0  0  0  0
  152.0446  141.2236  159.0758 C   0  0  0  0  0  0  0  0  0  0  0  0
  150.9000  141.5345  158.0712 C   0  0  0  0  0  0  0  0  0  0  0  0
  151.0959  141.1306  156.5870 C   0  0  0  0  0  0  0  0  0  0  0  0
  149.8274  141.2396  155.8693 N   0  5  0  0  0  0  0  0  0  0  0  0
  149.4613  140.4324  154.8313 C   0  0  0  0  0  0  0  0  0  0  0  0
  150.1333  140.0066  153.8844 O   0  0  0  0  0  0  0  0  0  0  0  0
  147.9746  140.0262  154.9194 C   0  0  0  0  0  0  0  0  0  0  0  0
  147.6749  139.2332  153.8868 F   0  0  0  0  0  0  0  0  0  0  0  0
  147.7786  139.3159  156.0345 F   0  0  0  0  0  0  0  0  0  0  0  0
  147.0629  141.2535  154.8933 C   0  0  0  0  0  0  0  0  0  0  0  0
  147.0415  142.1225  153.7778 C   0  0  0  0  0  0  0  0  0  0  0  0
  146.1759  143.2325  153.8010 C   0  0  0  0  0  0  0  0  0  0  0  0
  145.3668  143.4386  154.9340 C   0  0  0  0  0  0  0  0  0  0  0  0
  145.4576  142.5182  155.9966 C   0  0  0  0  0  0  0  0  0  0  0  0
  146.2837  141.4507  155.9847 N   0  0  0  0  0  0  0  0  0  0  0  0
  152.6482  142.2705  159.6953 N   0  0  0  0  0  0  0  0  0  0  0  0
  152.1932  143.6589  159.5345 C   0  0  0  0  0  0  0  0  0  0  0  0
  151.5391  144.1209  160.8499 C   0  0  0  0  0  0  0  0  0  0  0  0
  152.5117  143.9648  162.0346 C   0  0  0  0  0  0  0  0  0  0  0  0
  153.1379  142.5578  162.0757 C   0  0  0  0  0  0  0  0  0  0  0  0
  153.7167  142.1756  160.7014 C   0  0  0  0  0  0  0  0  0  0  0  0
  149.9970  141.0486  158.4438 H   0  0  0  0  0  0  0  0  0  0  0  0
  150.7162  142.6094  158.0998 H   0  0  0  0  0  0  0  0  0  0  0  0
  151.8484  141.7812  156.1402 H   0  0  0  0  0  0  0  0  0  0  0  0
  151.5185  140.1258  156.5382 H   0  0  0  0  0  0  0  0  0  0  0  0
  147.6654  141.9376  152.9161 H   0  0  0  0  0  0  0  0  0  0  0  0
  146.1324  143.9128  152.9635 H   0  0  0  0  0  0  0  0  0  0  0  0
  144.6916  144.2796  154.9866 H   0  0  0  0  0  0  0  0  0  0  0  0
  144.8505  142.6437  156.8808 H   0  0  0  0  0  0  0  0  0  0  0  0
  153.0469  144.2949  159.2961 H   0  0  0  0  0  0  0  0  0  0  0  0
  151.4923  143.7870  158.7086 H   0  0  0  0  0  0  0  0  0  0  0  0
  151.2163  145.1589  160.7658 H   0  0  0  0  0  0  0  0  0  0  0  0
  150.6405  143.5307  161.0351 H   0  0  0  0  0  0  0  0  0  0  0  0
  153.3070  144.7054  161.9406 H   0  0  0  0  0  0  0  0  0  0  0  0
  152.0009  144.1786  162.9739 H   0  0  0  0  0  0  0  0  0  0  0  0
  153.9180  142.5192  162.8363 H   0  0  0  0  0  0  0  0  0  0  0  0
  152.3819  141.8276  162.3682 H   0  0  0  0  0  0  0  0  0  0  0  0
  154.1901  141.1970  160.7556 H   0  0  0  0  0  0  0  0  0  0  0  0
  154.5199  142.8639  160.4341 H   0  0  0  0  0  0  0  0  0  0  0  0
  1  2  2  0  0  0  0
  2  3  1  0  0  0  0
  2 17  1  0  0  0  0
  3  4  1  0  0  0  0
  3 23  1  0  0  0  0
  3 24  1  0  0  0  0
  4  5  1  0  0  0  0
  4 25  1  0  0  0  0
  4 26  1  0  0  0  0
  5  6  1  0  0  0  0
  6  7  2  0  0  0  0
  6  8  1  0  0  0  0
  8  9  1  0  0  0  0
  8 10  1  0  0  0  0
  8 11  1  0  0  0  0
 11 16  1  0  0  0  0
 11 12  2  0  0  0  0
 12 13  1  0  0  0  0
 12 27  1  0  0  0  0
 13 14  2  0  0  0  0
 13 28  1  0  0  0  0
 14 15  1  0  0  0  0
 14 29  1  0  0  0  0
 15 16  2  0  0  0  0
 15 30  1  0  0  0  0
 17 22  1  0  0  0  0
 17 18  1  0  0  0  0
 18 19  1  0  0  0  0
 18 31  1  0  0  0  0
 18 32  1  0  0  0  0
 19 20  1  0  0  0  0
 19 33  1  0  0  0  0
 19 34  1  0  0  0  0
 20 21  1  0  0  0  0
 20 35  1  0  0  0  0
 20 36  1  0  0  0  0
 21 22  1  0  0  0  0
 21 37  1  0  0  0  0
 21 38  1  0  0  0  0
 22 39  1  0  0  0  0
 22 40  1  0  0  0  0
M  CHG  1   5  -1
M  END
> <s_m_source_file>
AV-unprocessed.smi

> <i_m_source_file_index>
2877

> <i_lp_mmshare_version>
43012

> <i_f3d_flags>
0

> <s_epik_input>
W0NIMl0xW0NIMl1bQ0gyXVtDSDJdW0NIMl1OMUMoPU8pW0NIMl1bQ0gyXVtOSF1DKD1PKUMoRikoRiljMltjSF1bY0hdW2NIXVtjSF1uMg==

> <s_epik_cmdline>
J2VwaWtfcHl0aG9uJywgJy1waCcsICc3LjAnLCAnLXRuJywgJzgnLCAnLW1hJywgJzIwMCcsICctbWV0YWxfYmluZGluZycsICctaW1hZScsICc8aW5maWxlLm1hZT4nLCAnLW9tYWUnLCAnPG91dGZpbGUubWFlPic=

> <r_lp_tautomer_probability>
1

> <r_epik_Ionization_Penalty>
5.30743

> <r_epik_Ionization_Penalty_Charging>
5.30743

> <r_epik_Ionization_Penalty_Neutral>
2.29237e-06

> <r_epik_State_Penalty>
5.30735

> <r_epik_Charging_Adjusted_Penalty>
10.6148

> <i_epik_Tot_Q>
-1

> <i_epik_Tot_abs_Q>
1

> <r_epik_Metal_State_Penalty>
1.35027

> <b_epik_Metal_Only>
1

> <s_lp_Force_Field>
OPLS_2005

> <r_lp_Energy>
42.7236

> <b_lp_Chiralities_Consistent>
1

> <s_lp_Variant>
AV-unprocessed.smi:2877-2

> <Gold.Version>
5.8.1

> <Gold.Id.Protein>
6NUR|6NUR_protein|mol2

> <Gold.PLP.Fitness>
47.7548

> <Gold.PLP.PLP>
-46.0358

> <Gold.PLP.part.hbond>
-1.0000

> <Gold.PLP.part.metal>
0.0000

> <Gold.PLP.part.buried>
-8.7058

> <Gold.PLP.part.nonpolar>
-38.0037

> <Gold.PLP.part.repulsive>
2.3609

> <Gold.PLP.ligand.clash>
0.0000

> <Gold.PLP.ligand.torsion>
0.5755

> <Gold.PLP.Chemscore.Hbond>
0.9280

> <Gold.PLP.Chemscore.CHOScore>
0.0000

> <Gold.PLP.Chemscore.Metal>
0.0000

> <Gold.Chemscore.Hbonds>
donor molecule, donor type, donor heavy atom, donor atom, acceptor molecule, acceptor atom, score
      P1  H  7989  7998       L1     7  0.90

> <Gold.PLP.Chemscore.Internal.Correction>
0.0859

> <Gold.Rescore>
     Score         DG    S(hbond)    S(metal)    S(lipo)     H(rot)  DE(clash)    DE(int)     intcor
     14.81     -15.59       0.94        0.00     100.74       1.89       0.22       0.56       ----

> <Gold.Chemscore.Fitness>
14.8062

> <Gold.Chemscore.DG>
-15.5867

> <Gold.Chemscore.ZeroCoef>
-5.4800

> <Gold.Chemscore.Hbond>
0.9434

> <Gold.Chemscore.Metal>
0.0000

> <Gold.Chemscore.Lipo>
100.7420

> <Gold.Chemscore.Internal_Hbond>
0.0000

> <Gold.Chemscore.DEClash>
0.2178

> <Gold.Chemscore.DEInternal>
0.5627

> <Gold.Chemscore.Rot>
1.8871

> <Gold.Chemscore.Internal.Correction>
   9.000000E+99

> <Gold.Chemscore.Hbonds>
donor molecule, donor type, donor heavy atom, donor atom, acceptor molecule, acceptor atom, score
      P1  H  7989  7998       L1     7  0.84

> <Gold.Chemscore.Hbond.Weighted>
-3.1509

> <Gold.Chemscore.Metal.Weighted>
-0.0000

> <Gold.Chemscore.Lipo.Weighted>
-11.7868

> <Gold.Chemscore.Internal_Hbond.Weighted>
0.0000

> <Gold.Chemscore.DEClash.Weighted>
0.2178

> <Gold.Chemscore.DEInternal.Weighted>
0.5627

> <Gold.Chemscore.Rot.Weighted>
4.8309

> <Gold.Chemscore.Internal.Correction.Weighted>
   9.000000E+99

> <Gold.Protein.RotatedTorsions>
[ 6907 6896 6895 6894 ] final   -4.30 input  -60.11 | X-H torsion
[ 7974 7965 7964 7962 ] final   74.58 input  175.53 | X-H torsion
[ 8008 7997 7996 7995 ] final   61.04 input   59.86 | X-H torsion
[ 10167 10162 10161 10158 ] final -111.30 input  -65.29 | X-H torsion
[ 10718 10713 10712 10709 ] final -147.92 input   66.30 | X-H torsion
[ 10763 10752 10751 10750 ] final   44.58 input  -60.55 | X-H torsion
[ 11005 11000 10999 10996 ] final  -65.80 input  -57.11 | X-H torsion

> <Gold.Protein.ActiveResidues>
 VAL166  LYS551  ARG553  GLY616  TRP617  ASP618  TYR619  PRO620  LYS621  CYS622 
 ASP623  PHE694  ASN695  SER759  ASP760  ASP761  ALA762  ILE779  LEU786  VAL792 
 PHE793  MET794  SER795  GLU796  ALA797  LYS798  CYS799  TRP800  GLU811  SER814 

> <Gold.Protein.RotatedAtoms>
  151.4998  135.1061  159.9825 H   0  0  0  0  0  0  0  0  0  0  0  0  # atno 6907 bound_to 6896
  152.4706  133.8018  159.6967 H   0  0  0  0  0  0  0  0  0  0  0  0  # atno 6908 bound_to 6896
  150.8713  133.7438  159.2986 H   0  0  0  0  0  0  0  0  0  0  0  0  # atno 6909 bound_to 6896
  145.7265  139.2667  143.1566 H   0  0  0  0  0  0  0  0  0  0  0  0  # atno 7974 bound_to 7965
  155.5919  140.3493  155.4569 H   0  0  0  0  0  0  0  0  0  0  0  0  # atno 8008 bound_to 7997
  156.0294  140.1271  157.0298 H   0  0  0  0  0  0  0  0  0  0  0  0  # atno 8009 bound_to 7997
  154.4346  140.1046  156.6064 H   0  0  0  0  0  0  0  0  0  0  0  0  # atno 8010 bound_to 7997
  140.1351  143.4327  152.1600 H   0  0  0  0  0  0  0  0  0  0  0  0  # atno 10167 bound_to 10162
  156.4136  130.7994  151.2213 H   0  0  0  0  0  0  0  0  0  0  0  0  # atno 10718 bound_to 10713
  152.9839  135.6066  154.3296 H   0  0  0  0  0  0  0  0  0  0  0  0  # atno 10763 bound_to 10752
  154.3001  135.2773  155.2617 H   0  0  0  0  0  0  0  0  0  0  0  0  # atno 10764 bound_to 10752
  154.4873  135.5901  153.6489 H   0  0  0  0  0  0  0  0  0  0  0  0  # atno 10765 bound_to 10752
  141.1464  133.6688  156.6041 H   0  0  0  0  0  0  0  0  0  0  0  0  # atno 11005 bound_to 11000
  146.0577  140.8003  142.9750 LP  0  0  0  0  0  0  0  0  0  0  0  0  # atno 17320 bound_to 7965
  144.6903  140.3149  143.7242 LP  0  0  0  0  0  0  0  0  0  0  0  0  # atno 17321 bound_to 7965
  139.5500  144.7330  151.4465 LP  0  0  0  0  0  0  0  0  0  0  0  0  # atno 17342 bound_to 10162
  140.6794  143.8117  150.7101 LP  0  0  0  0  0  0  0  0  0  0  0  0  # atno 17343 bound_to 10162
  157.7507  131.0250  150.3900 LP  0  0  0  0  0  0  0  0  0  0  0  0  # atno 17370 bound_to 10713
  156.4203  130.3951  149.6830 LP  0  0  0  0  0  0  0  0  0  0  0  0  # atno 17371 bound_to 10713
  140.3666  134.7642  157.4570 LP  0  0  0  0  0  0  0  0  0  0  0  0  # atno 17394 bound_to 11000
  140.0743  134.5818  155.8607 LP  0  0  0  0  0  0  0  0  0  0  0  0  # atno 17395 bound_to 11000

$$$$
