AV-unprocessed.smi:2600|AV-procd|sdf|10181|dock4
  -GOLD-   2272014193D 1   1.00000     0.00000
 Structure written by MMmdl.
 44 45  0  0  0  0  0  0  0  0  1 V2000
  146.6546  138.8931  151.0965 C   0  0  0  0  0  0  0  0  0  0  0  0
  146.6732  138.2156  152.4766 C   0  0  0  0  0  0  0  0  0  0  0  0
  147.1690  139.0986  153.6465 C   0  0  1  0  0  0  0  0  0  0  0  0
  147.7147  138.1687  154.7555 C   0  0  0  0  0  0  0  0  0  0  0  0
  148.2382  140.1232  153.1807 C   0  0  0  0  0  0  0  0  0  0  0  0
  148.5315  141.0617  154.2736 N   0  0  0  0  0  0  0  0  0  0  0  0
  149.6818  141.1542  154.9860 C   0  0  0  0  0  0  0  0  0  0  0  0
  150.6580  140.4290  154.7896 O   0  0  0  0  0  0  0  0  0  0  0  0
  149.6788  142.1072  155.9334 N   0  0  0  0  0  0  0  0  0  0  0  0
  150.8048  142.4351  156.7990 C   0  0  0  0  0  0  0  0  0  0  0  0
  150.5686  141.9426  158.2365 C   0  0  0  0  0  0  0  0  0  0  0  0
  151.8157  141.9064  159.0614 C   0  0  0  0  0  0  0  0  0  0  0  0
  152.4992  140.8368  159.5682 C   0  0  0  0  0  0  0  0  0  0  0  0
  153.5984  141.4214  160.2551 C   0  0  0  0  0  0  0  0  0  0  0  0
  153.5987  142.7411  160.1818 N   0  0  0  0  0  0  0  0  0  0  0  0
  152.5037  143.0431  159.4520 N   0  0  0  0  0  0  0  0  0  0  0  0
  152.2071  144.4366  159.1767 C   0  0  0  0  0  0  0  0  0  0  0  0
  147.3221  141.8088  154.6225 C   0  0  0  0  0  0  0  0  0  0  0  0
  146.2666  140.8095  155.1235 C   0  0  0  0  0  0  0  0  0  0  0  0
  146.0208  139.8062  154.1351 O   0  0  0  0  0  0  0  0  0  0  0  0
  146.1973  138.2362  150.3565 H   0  0  0  0  0  0  0  0  0  0  0  0
  147.6587  139.1226  150.7416 H   0  0  0  0  0  0  0  0  0  0  0  0
  146.0798  139.8193  151.1116 H   0  0  0  0  0  0  0  0  0  0  0  0
  145.6600  137.8758  152.6960 H   0  0  0  0  0  0  0  0  0  0  0  0
  147.2827  137.3130  152.4153 H   0  0  0  0  0  0  0  0  0  0  0  0
  148.5448  137.5666  154.3850 H   0  0  0  0  0  0  0  0  0  0  0  0
  146.9433  137.4833  155.1072 H   0  0  0  0  0  0  0  0  0  0  0  0
  148.0826  138.7128  155.6245 H   0  0  0  0  0  0  0  0  0  0  0  0
  149.1141  139.5978  152.7999 H   0  0  0  0  0  0  0  0  0  0  0  0
  147.8725  140.7114  152.3395 H   0  0  0  0  0  0  0  0  0  0  0  0
  148.8406  142.6587  156.0457 H   0  0  0  0  0  0  0  0  0  0  0  0
  151.6976  141.9635  156.3875 H   0  0  0  0  0  0  0  0  0  0  0  0
  150.9865  143.5105  156.7803 H   0  0  0  0  0  0  0  0  0  0  0  0
  149.8262  142.5698  158.7310 H   0  0  0  0  0  0  0  0  0  0  0  0
  150.1335  140.9431  158.2057 H   0  0  0  0  0  0  0  0  0  0  0  0
  152.2507  139.7912  159.4622 H   0  0  0  0  0  0  0  0  0  0  0  0
  154.3901  140.9295  160.8005 H   0  0  0  0  0  0  0  0  0  0  0  0
  151.1297  144.6007  159.1740 H   0  0  0  0  0  0  0  0  0  0  0  0
  152.6124  144.7109  158.2026 H   0  0  0  0  0  0  0  0  0  0  0  0
  152.6523  145.0776  159.9387 H   0  0  0  0  0  0  0  0  0  0  0  0
  147.4985  142.5739  155.3797 H   0  0  0  0  0  0  0  0  0  0  0  0
  146.9524  142.3373  153.7424 H   0  0  0  0  0  0  0  0  0  0  0  0
  146.5788  140.3539  156.0633 H   0  0  0  0  0  0  0  0  0  0  0  0
  145.3301  141.3279  155.3291 H   0  0  0  0  0  0  0  0  0  0  0  0
  1  2  1  0  0  0  0
  1 21  1  0  0  0  0
  1 22  1  0  0  0  0
  1 23  1  0  0  0  0
  2  3  1  0  0  0  0
  2 24  1  0  0  0  0
  2 25  1  0  0  0  0
  3 20  1  0  0  0  0
  3  4  1  0  0  0  0
  3  5  1  0  0  0  0
  4 26  1  0  0  0  0
  4 27  1  0  0  0  0
  4 28  1  0  0  0  0
  5  6  1  0  0  0  0
  5 29  1  0  0  0  0
  5 30  1  0  0  0  0
  6  7  1  0  0  0  0
  6 18  1  0  0  0  0
  7  8  2  0  0  0  0
  7  9  1  0  0  0  0
  9 10  1  0  0  0  0
  9 31  1  0  0  0  0
 10 11  1  0  0  0  0
 10 32  1  0  0  0  0
 10 33  1  0  0  0  0
 11 12  1  0  0  0  0
 11 34  1  0  0  0  0
 11 35  1  0  0  0  0
 12 16  1  0  0  0  0
 12 13  2  0  0  0  0
 13 14  1  0  0  0  0
 13 36  1  0  0  0  0
 14 15  2  0  0  0  0
 14 37  1  0  0  0  0
 15 16  1  0  0  0  0
 16 17  1  0  0  0  0
 17 38  1  0  0  0  0
 17 39  1  0  0  0  0
 17 40  1  0  0  0  0
 18 19  1  0  0  0  0
 18 41  1  0  0  0  0
 18 42  1  0  0  0  0
 19 20  1  0  0  0  0
 19 43  1  0  0  0  0
 19 44  1  0  0  0  0
M  END
> <s_m_source_file>
AV-unprocessed.smi

> <i_m_source_file_index>
2600

> <i_lp_mmshare_version>
43012

> <i_f3d_flags>
0

> <s_epik_input>
W0NIM11bQ0gyXVtDQEBdMShbQ0gzXSlbQ0gyXU4oW0NIMl1bQ0gyXU8xKUMoPU8pW05IXVtDSDJdW0NIMl1jMltjSF1bY0hdbm4yW0NIM10=

> <s_epik_cmdline>
J2VwaWtfcHl0aG9uJywgJy1waCcsICc3LjAnLCAnLXRuJywgJzgnLCAnLW1hJywgJzIwMCcsICctbWV0YWxfYmluZGluZycsICctaW1hZScsICc8aW5maWxlLm1hZT4nLCAnLW9tYWUnLCAnPG91dGZpbGUubWFlPic=

> <r_lp_tautomer_probability>
1

> <r_epik_Ionization_Penalty>
0.00252014

> <r_epik_Ionization_Penalty_Charging>
0

> <r_epik_Ionization_Penalty_Neutral>
0.00252014

> <r_epik_State_Penalty>
0.00172506

> <r_epik_Charging_Adjusted_Penalty>
0.00172506

> <i_epik_Tot_Q>
0

> <i_epik_Tot_abs_Q>
0

> <r_epik_Metal_State_Penalty>
-0

> <b_epik_Metal_Only>
0

> <s_lp_Force_Field>
OPLS_2005

> <r_lp_Energy>
28.913

> <b_lp_Chiralities_Consistent>
1

> <s_lp_Variant>
AV-unprocessed.smi:2600-1

> <Gold.Version>
5.8.1

> <Gold.Id.Protein>
6NUR|6NUR_protein|mol2

> <Gold.PLP.Fitness>
40.8016

> <Gold.PLP.PLP>
-38.9135

> <Gold.PLP.part.hbond>
-2.0000

> <Gold.PLP.part.metal>
0.0000

> <Gold.PLP.part.buried>
3.2630

> <Gold.PLP.part.nonpolar>
-41.5533

> <Gold.PLP.part.repulsive>
2.0725

> <Gold.PLP.ligand.clash>
1.3293

> <Gold.PLP.ligand.torsion>
0.6742

> <Gold.PLP.Chemscore.Hbond>
1.4960

> <Gold.PLP.Chemscore.CHOScore>
0.0000

> <Gold.PLP.Chemscore.Metal>
0.0000

> <Gold.Chemscore.Hbonds>
donor molecule, donor type, donor heavy atom, donor atom, acceptor molecule, acceptor atom, score
      L1  H     9    31       P1  8028  0.35
      P1  H  7989  7998       L1     8  1.00

> <Gold.PLP.Chemscore.Internal.Correction>
0.0778

> <Gold.Rescore>
     Score         DG    S(hbond)    S(metal)    S(lipo)     H(rot)  DE(clash)    DE(int)     intcor
     14.14     -17.08       1.30        0.00      94.24       1.47       1.96       0.99       ----

> <Gold.Chemscore.Fitness>
14.1367

> <Gold.Chemscore.DG>
-17.0837

> <Gold.Chemscore.ZeroCoef>
-5.4800

> <Gold.Chemscore.Hbond>
1.3025

> <Gold.Chemscore.Metal>
0.0000

> <Gold.Chemscore.Lipo>
94.2355

> <Gold.Chemscore.Internal_Hbond>
0.0000

> <Gold.Chemscore.DEClash>
1.9582

> <Gold.Chemscore.DEInternal>
0.9888

> <Gold.Chemscore.Rot>
1.4735

> <Gold.Chemscore.Internal.Correction>
   9.000000E+99

> <Gold.Chemscore.Hbonds>
donor molecule, donor type, donor heavy atom, donor atom, acceptor molecule, acceptor atom, score
      L1  H     9    31       P1  8028  0.33
      P1  H  7989  7998       L1     8  0.88

> <Gold.Chemscore.Hbond.Weighted>
-4.3502

> <Gold.Chemscore.Metal.Weighted>
-0.0000

> <Gold.Chemscore.Lipo.Weighted>
-11.0256

> <Gold.Chemscore.Internal_Hbond.Weighted>
0.0000

> <Gold.Chemscore.DEClash.Weighted>
1.9582

> <Gold.Chemscore.DEInternal.Weighted>
0.9888

> <Gold.Chemscore.Rot.Weighted>
3.7721

> <Gold.Chemscore.Internal.Correction.Weighted>
   9.000000E+99

> <Gold.Protein.RotatedTorsions>
[ 6907 6896 6895 6894 ] final  103.09 input  -60.11 | X-H torsion
[ 7974 7965 7964 7962 ] final  -56.91 input  175.53 | X-H torsion
[ 8008 7997 7996 7995 ] final  -55.98 input   59.86 | X-H torsion
[ 10167 10162 10161 10158 ] final  121.85 input  -65.29 | X-H torsion
[ 10718 10713 10712 10709 ] final  -80.46 input   66.30 | X-H torsion
[ 10763 10752 10751 10750 ] final  -79.32 input  -60.55 | X-H torsion
[ 11005 11000 10999 10996 ] final  167.63 input  -57.11 | X-H torsion

> <Gold.Protein.ActiveResidues>
 VAL166  LYS551  ARG553  GLY616  TRP617  ASP618  TYR619  PRO620  LYS621  CYS622 
 ASP623  PHE694  ASN695  SER759  ASP760  ASP761  ALA762  ILE779  LEU786  VAL792 
 PHE793  MET794  SER795  GLU796  ALA797  LYS798  CYS799  TRP800  GLU811  SER814 

> <Gold.Protein.RotatedAtoms>
  152.5305  133.9878  159.7836 H   0  0  0  0  0  0  0  0  0  0  0  0  # atno 6907 bound_to 6896
  151.0119  133.5949  159.2688 H   0  0  0  0  0  0  0  0  0  0  0  0  # atno 6908 bound_to 6896
  151.3020  135.0778  159.9295 H   0  0  0  0  0  0  0  0  0  0  0  0  # atno 6909 bound_to 6896
  145.8572  140.8311  142.9955 H   0  0  0  0  0  0  0  0  0  0  0  0  # atno 7974 bound_to 7965
  154.4214  140.1140  156.5564 H   0  0  0  0  0  0  0  0  0  0  0  0  # atno 8008 bound_to 7997
  155.6357  140.3496  155.4678 H   0  0  0  0  0  0  0  0  0  0  0  0  # atno 8009 bound_to 7997
  155.9912  140.1180  157.0626 H   0  0  0  0  0  0  0  0  0  0  0  0  # atno 8010 bound_to 7997
  139.5894  144.7019  151.3327 H   0  0  0  0  0  0  0  0  0  0  0  0  # atno 10167 bound_to 10162
  156.0070  130.4575  150.3803 H   0  0  0  0  0  0  0  0  0  0  0  0  # atno 10718 bound_to 10713
  154.5371  135.5700  153.6807 H   0  0  0  0  0  0  0  0  0  0  0  0  # atno 10763 bound_to 10752
  152.9954  135.6218  154.2552 H   0  0  0  0  0  0  0  0  0  0  0  0  # atno 10764 bound_to 10752
  154.2481  135.2860  155.2807 H   0  0  0  0  0  0  0  0  0  0  0  0  # atno 10765 bound_to 10752
  140.2788  134.7767  157.3740 H   0  0  0  0  0  0  0  0  0  0  0  0  # atno 11005 bound_to 11000
  144.6727  140.1041  143.7459 LP  0  0  0  0  0  0  0  0  0  0  0  0  # atno 17320 bound_to 7965
  145.9290  139.2594  143.1336 LP  0  0  0  0  0  0  0  0  0  0  0  0  # atno 17321 bound_to 7965
  140.7160  143.7264  150.7656 LP  0  0  0  0  0  0  0  0  0  0  0  0  # atno 17342 bound_to 10162
  140.0817  143.4963  152.2527 LP  0  0  0  0  0  0  0  0  0  0  0  0  # atno 17343 bound_to 10162
  157.1883  131.0409  151.2713 LP  0  0  0  0  0  0  0  0  0  0  0  0  # atno 17370 bound_to 10713
  157.4084  130.7371  149.6820 LP  0  0  0  0  0  0  0  0  0  0  0  0  # atno 17371 bound_to 10713
  140.1303  134.5104  155.8111 LP  0  0  0  0  0  0  0  0  0  0  0  0  # atno 17394 bound_to 11000
  141.2166  133.6787  156.7027 LP  0  0  0  0  0  0  0  0  0  0  0  0  # atno 17395 bound_to 11000

$$$$
