AV-unprocessed.smi:1561|AV-procd|sdf|6283|dock2
  -GOLD-   22720 6483D 1   1.00000     0.00000
 Structure written by MMmdl.
 33 34  0  0  0  0  0  0  0  0  1 V2000
  153.9488  141.7355  160.9728 C   0  0  0  0  0  0  0  0  0  0  0  0
  152.7293  141.4229  160.0814 C   0  0  2  0  0  0  0  0  0  0  0  0
  152.9314  140.1703  159.2154 C   0  0  0  0  0  0  0  0  0  0  0  0
  154.0604  139.8196  158.8700 O   0  0  0  0  0  0  0  0  0  0  0  0
  151.8157  139.5169  158.8529 N   0  0  0  0  0  0  0  0  0  0  0  0
  151.7610  138.3689  157.9545 C   0  0  0  0  0  0  0  0  0  0  0  0
  150.9951  138.7029  156.6604 C   0  0  2  0  0  0  0  0  0  0  0  0
  150.9112  137.5445  155.6747 C   0  0  0  0  0  0  0  0  0  0  0  0
  150.9825  138.2118  154.2965 C   0  0  0  0  0  0  0  0  0  0  0  0
  150.9978  139.6109  154.5459 O   0  0  0  0  0  0  0  0  0  0  0  0
  151.6073  139.8143  155.8086 C   0  0  0  0  0  0  0  0  0  0  0  0
  152.3519  142.5530  159.2393 N   0  0  0  0  0  0  0  0  0  0  0  0
  152.9380  143.8016  159.1842 C   0  0  0  0  0  0  0  0  0  0  0  0
  152.2247  144.5524  158.2944 C   0  0  0  0  0  0  0  0  0  0  0  0
  151.1957  143.6725  157.8591 C   0  0  0  0  0  0  0  0  0  0  0  0
  151.2682  142.4822  158.4312 N   0  0  0  0  0  0  0  0  0  0  0  0
  154.1789  140.8965  161.6304 H   0  0  0  0  0  0  0  0  0  0  0  0
  153.7545  142.6018  161.6057 H   0  0  0  0  0  0  0  0  0  0  0  0
  154.8436  141.9493  160.3867 H   0  0  0  0  0  0  0  0  0  0  0  0
  151.8882  141.2253  160.7480 H   0  0  0  0  0  0  0  0  0  0  0  0
  150.9318  139.8721  159.1877 H   0  0  0  0  0  0  0  0  0  0  0  0
  152.7632  138.0023  157.7253 H   0  0  0  0  0  0  0  0  0  0  0  0
  151.2536  137.5592  158.4794 H   0  0  0  0  0  0  0  0  0  0  0  0
  149.9770  139.0013  156.9160 H   0  0  0  0  0  0  0  0  0  0  0  0
  151.7459  136.8527  155.7954 H   0  0  0  0  0  0  0  0  0  0  0  0
  149.9888  136.9784  155.8080 H   0  0  0  0  0  0  0  0  0  0  0  0
  151.9010  137.9279  153.7810 H   0  0  0  0  0  0  0  0  0  0  0  0
  150.1391  137.9435  153.6599 H   0  0  0  0  0  0  0  0  0  0  0  0
  151.3967  140.8110  156.1977 H   0  0  0  0  0  0  0  0  0  0  0  0
  152.6888  139.6988  155.7180 H   0  0  0  0  0  0  0  0  0  0  0  0
  153.8048  144.0505  159.7785 H   0  0  0  0  0  0  0  0  0  0  0  0
  152.4061  145.5765  158.0038 H   0  0  0  0  0  0  0  0  0  0  0  0
  150.4007  143.8636  157.1533 H   0  0  0  0  0  0  0  0  0  0  0  0
  1  2  1  0  0  0  0
  1 17  1  0  0  0  0
  1 18  1  0  0  0  0
  1 19  1  0  0  0  0
  2  3  1  0  0  0  0
  2 12  1  0  0  0  0
  2 20  1  0  0  0  0
  3  4  2  0  0  0  0
  3  5  1  0  0  0  0
  5  6  1  0  0  0  0
  5 21  1  0  0  0  0
  6  7  1  0  0  0  0
  6 22  1  0  0  0  0
  6 23  1  0  0  0  0
  7 11  1  0  0  0  0
  7  8  1  0  0  0  0
  7 24  1  0  0  0  0
  8  9  1  0  0  0  0
  8 25  1  0  0  0  0
  8 26  1  0  0  0  0
  9 10  1  0  0  0  0
  9 27  1  0  0  0  0
  9 28  1  0  0  0  0
 10 11  1  0  0  0  0
 11 29  1  0  0  0  0
 11 30  1  0  0  0  0
 12 16  1  0  0  0  0
 12 13  1  0  0  0  0
 13 14  2  0  0  0  0
 13 31  1  0  0  0  0
 14 15  1  0  0  0  0
 14 32  1  0  0  0  0
 15 16  2  0  0  0  0
 15 33  1  0  0  0  0
M  END
> <s_m_source_file>
AV-unprocessed.smi

> <i_m_source_file_index>
1561

> <i_lp_mmshare_version>
43012

> <i_f3d_flags>
0

> <s_epik_input>
bjFbY0hdW2NIXVtjSF1uMVtDQEhdKFtDSDNdKUMoPU8pW05IXVtDSDJdW0NAQEhdMltDSDJdW0NIMl1PW0NIMl0y

> <s_epik_cmdline>
J2VwaWtfcHl0aG9uJywgJy1waCcsICc3LjAnLCAnLXRuJywgJzgnLCAnLW1hJywgJzIwMCcsICctbWV0YWxfYmluZGluZycsICctaW1hZScsICc8aW5maWxlLm1hZT4nLCAnLW9tYWUnLCAnPG91dGZpbGUubWFlPic=

> <r_lp_tautomer_probability>
1

> <r_epik_Ionization_Penalty>
3.82077e-05

> <r_epik_Ionization_Penalty_Charging>
0

> <r_epik_Ionization_Penalty_Neutral>
3.82077e-05

> <r_epik_State_Penalty>
-0

> <r_epik_Charging_Adjusted_Penalty>
0

> <i_epik_Tot_Q>
0

> <i_epik_Tot_abs_Q>
0

> <r_epik_Metal_State_Penalty>
-0

> <b_epik_Metal_Only>
0

> <s_lp_Force_Field>
OPLS_2005

> <r_lp_Energy>
22.2594

> <b_lp_Chiralities_Consistent>
1

> <s_lp_Variant>
AV-unprocessed.smi:1561-1

> <Gold.Version>
5.8.1

> <Gold.Id.Protein>
6NUR|6NUR_protein|mol2

> <Gold.PLP.Fitness>
43.3349

> <Gold.PLP.PLP>
-35.6317

> <Gold.PLP.part.hbond>
-2.0000

> <Gold.PLP.part.metal>
0.0000

> <Gold.PLP.part.buried>
-4.3370

> <Gold.PLP.part.nonpolar>
-29.8825

> <Gold.PLP.part.repulsive>
0.2683

> <Gold.PLP.ligand.clash>
0.0000

> <Gold.PLP.ligand.torsion>
0.7099

> <Gold.PLP.Chemscore.Hbond>
2.0000

> <Gold.PLP.Chemscore.CHOScore>
1.0000

> <Gold.PLP.Chemscore.Metal>
0.0000

> <Gold.Chemscore.Hbonds>
donor molecule, donor type, donor heavy atom, donor atom, acceptor molecule, acceptor atom, score
      P1  H  7989  7998       L1    10  1.00
      P1  H  7997  8008       L1     4  1.00
      L1  C    15    33       P1  8028  1.00

> <Gold.PLP.Chemscore.Internal.Correction>
0.1229

> <Gold.Rescore>
     Score         DG    S(hbond)    S(metal)    S(lipo)     H(rot)  DE(clash)    DE(int)     intcor
     17.71     -18.58       1.97        0.00      90.99       1.61       0.03       0.84       ----

> <Gold.Chemscore.Fitness>
17.7100

> <Gold.Chemscore.DG>
-18.5795

> <Gold.Chemscore.ZeroCoef>
-5.4800

> <Gold.Chemscore.Hbond>
1.9682

> <Gold.Chemscore.Metal>
0.0000

> <Gold.Chemscore.Lipo>
90.9887

> <Gold.Chemscore.Internal_Hbond>
0.0000

> <Gold.Chemscore.DEClash>
0.0300

> <Gold.Chemscore.DEInternal>
0.8395

> <Gold.Chemscore.Rot>
1.6094

> <Gold.Chemscore.Internal.Correction>
   9.000000E+99

> <Gold.Chemscore.Hbonds>
donor molecule, donor type, donor heavy atom, donor atom, acceptor molecule, acceptor atom, score
      P1  H  7989  7998       L1    10  0.55
      P1  H  7997  8008       L1     4  0.95

> <Gold.Chemscore.Hbond.Weighted>
-6.5739

> <Gold.Chemscore.Metal.Weighted>
-0.0000

> <Gold.Chemscore.Lipo.Weighted>
-10.6457

> <Gold.Chemscore.Internal_Hbond.Weighted>
0.0000

> <Gold.Chemscore.DEClash.Weighted>
0.0300

> <Gold.Chemscore.DEInternal.Weighted>
0.8395

> <Gold.Chemscore.Rot.Weighted>
4.1201

> <Gold.Chemscore.Internal.Correction.Weighted>
   9.000000E+99

> <Gold.Protein.RotatedTorsions>
[ 6907 6896 6895 6894 ] final -126.72 input  -60.11 | X-H torsion
[ 7974 7965 7964 7962 ] final  -61.31 input  175.53 | X-H torsion
[ 8008 7997 7996 7995 ] final  -93.43 input   59.86 | X-H torsion
[ 10167 10162 10161 10158 ] final -168.71 input  -65.29 | X-H torsion
[ 10718 10713 10712 10709 ] final -108.16 input   66.30 | X-H torsion
[ 10763 10752 10751 10750 ] final  -59.07 input  -60.55 | X-H torsion
[ 11005 11000 10999 10996 ] final  154.65 input  -57.11 | X-H torsion

> <Gold.Protein.ActiveResidues>
 VAL166  LYS551  ARG553  GLY616  TRP617  ASP618  TYR619  PRO620  LYS621  CYS622 
 ASP623  PHE694  ASN695  SER759  ASP760  ASP761  ALA762  ILE779  LEU786  VAL792 
 PHE793  MET794  SER795  GLU796  ALA797  LYS798  CYS799  TRP800  GLU811  SER814 

> <Gold.Protein.RotatedAtoms>
  150.8999  133.7132  159.2881 H   0  0  0  0  0  0  0  0  0  0  0  0  # atno 6907 bound_to 6896
  151.4654  135.1040  159.9746 H   0  0  0  0  0  0  0  0  0  0  0  0  # atno 6908 bound_to 6896
  152.4870  133.8352  159.7179 H   0  0  0  0  0  0  0  0  0  0  0  0  # atno 6909 bound_to 6896
  145.8050  140.8633  143.0212 H   0  0  0  0  0  0  0  0  0  0  0  0  # atno 7974 bound_to 7965
  154.7356  140.0499  157.0765 H   0  0  0  0  0  0  0  0  0  0  0  0  # atno 8008 bound_to 7997
  155.0245  140.3151  155.4762 H   0  0  0  0  0  0  0  0  0  0  0  0  # atno 8009 bound_to 7997
  156.2852  140.2161  156.5364 H   0  0  0  0  0  0  0  0  0  0  0  0  # atno 8010 bound_to 7997
  139.5968  144.1095  152.1698 H   0  0  0  0  0  0  0  0  0  0  0  0  # atno 10167 bound_to 10162
  156.0472  130.5699  150.7923 H   0  0  0  0  0  0  0  0  0  0  0  0  # atno 10718 bound_to 10713
  154.2480  135.6331  153.5230 H   0  0  0  0  0  0  0  0  0  0  0  0  # atno 10763 bound_to 10752
  152.9917  135.5558  154.5839 H   0  0  0  0  0  0  0  0  0  0  0  0  # atno 10764 bound_to 10752
  154.5359  135.2891  155.1113 H   0  0  0  0  0  0  0  0  0  0  0  0  # atno 10765 bound_to 10752
  140.1509  134.8675  157.2453 H   0  0  0  0  0  0  0  0  0  0  0  0  # atno 11005 bound_to 11000
  144.6764  140.0313  143.7482 LP  0  0  0  0  0  0  0  0  0  0  0  0  # atno 17320 bound_to 7965
  145.9838  139.2961  143.1026 LP  0  0  0  0  0  0  0  0  0  0  0  0  # atno 17321 bound_to 7965
  140.0682  144.5801  150.7211 LP  0  0  0  0  0  0  0  0  0  0  0  0  # atno 17342 bound_to 10162
  140.7218  143.2596  151.4253 LP  0  0  0  0  0  0  0  0  0  0  0  0  # atno 17343 bound_to 10162
  157.5360  131.0939  150.9892 LP  0  0  0  0  0  0  0  0  0  0  0  0  # atno 17370 bound_to 10713
  157.0186  130.5665  149.5329 LP  0  0  0  0  0  0  0  0  0  0  0  0  # atno 17371 bound_to 10713
  140.2606  134.3575  155.7408 LP  0  0  0  0  0  0  0  0  0  0  0  0  # atno 17394 bound_to 11000
  141.2199  133.7367  156.9074 LP  0  0  0  0  0  0  0  0  0  0  0  0  # atno 17395 bound_to 11000

$$$$
