AV-unprocessed.smi:2501|AV-procd|sdf|9843|dock9
  -GOLD-   2272013473D 1   1.00000     0.00000
 Structure written by MMmdl.
 43 44  0  0  0  0  0  0  0  0  1 V2000
  154.3075  142.6295  162.7163 C   0  0  0  0  0  0  0  0  0  0  0  0
  153.3777  142.9386  161.5563 C   0  0  0  0  0  0  0  0  0  0  0  0
  152.5965  144.1147  161.5792 C   0  0  0  0  0  0  0  0  0  0  0  0
  151.7469  144.4675  160.5916 N   0  0  0  0  0  0  0  0  0  0  0  0
  151.6426  143.6456  159.5272 C   0  0  0  0  0  0  0  0  0  0  0  0
  152.3735  142.4485  159.4004 C   0  0  0  0  0  0  0  0  0  0  0  0
  153.2626  142.0823  160.4327 C   0  0  0  0  0  0  0  0  0  0  0  0
  154.0576  140.7919  160.3098 C   0  0  0  0  0  0  0  0  0  0  0  0
  153.1534  139.5660  160.1202 C   0  0  0  0  0  0  0  0  0  0  0  0
  153.9465  138.3441  160.1109 N   0  0  0  0  0  0  0  0  0  0  0  0
  153.4426  137.0994  160.1244 C   0  0  0  0  0  0  0  0  0  0  0  0
  152.2295  136.8863  160.1370 O   0  0  0  0  0  0  0  0  0  0  0  0
  154.3713  136.1094  160.1206 N   0  0  0  0  0  0  0  0  0  0  0  0
  155.7739  136.2217  160.5530 C   0  0  0  0  0  0  0  0  0  0  0  0
  155.9368  135.4998  161.9044 C   0  0  0  0  0  0  0  0  0  0  0  0
  155.4671  134.0225  161.8449 C   0  0  0  0  0  0  0  0  0  0  0  0
  156.4030  133.3041  161.0598 O   0  0  0  0  0  0  0  0  0  0  0  0
  155.4569  133.3707  163.2487 C   0  0  0  0  0  0  0  0  0  0  0  0
  154.9190  132.1521  163.1858 F   0  0  0  0  0  0  0  0  0  0  0  0
  156.6976  133.2532  163.7239 F   0  0  0  0  0  0  0  0  0  0  0  0
  154.7323  134.1008  164.0982 F   0  0  0  0  0  0  0  0  0  0  0  0
  154.0852  133.9088  161.1506 C   0  0  0  0  0  0  0  0  0  0  0  0
  154.0203  134.7133  159.8377 C   0  0  0  0  0  0  0  0  0  0  0  0
  154.1815  143.3501  163.5250 H   0  0  0  0  0  0  0  0  0  0  0  0
  155.3474  142.6691  162.3914 H   0  0  0  0  0  0  0  0  0  0  0  0
  154.1075  141.6382  163.1222 H   0  0  0  0  0  0  0  0  0  0  0  0
  152.6541  144.7966  162.4149 H   0  0  0  0  0  0  0  0  0  0  0  0
  150.9550  143.9505  158.7521 H   0  0  0  0  0  0  0  0  0  0  0  0
  152.2508  141.8256  158.5265 H   0  0  0  0  0  0  0  0  0  0  0  0
  154.7376  140.8802  159.4612 H   0  0  0  0  0  0  0  0  0  0  0  0
  154.6939  140.6624  161.1855 H   0  0  0  0  0  0  0  0  0  0  0  0
  152.4106  139.5241  160.9180 H   0  0  0  0  0  0  0  0  0  0  0  0
  152.6080  139.6403  159.1785 H   0  0  0  0  0  0  0  0  0  0  0  0
  154.9506  138.4490  160.0972 H   0  0  0  0  0  0  0  0  0  0  0  0
  156.4170  135.7609  159.8018 H   0  0  0  0  0  0  0  0  0  0  0  0
  156.1301  137.2484  160.6378 H   0  0  0  0  0  0  0  0  0  0  0  0
  156.9757  135.5562  162.2317 H   0  0  0  0  0  0  0  0  0  0  0  0
  155.3549  136.0371  162.6542 H   0  0  0  0  0  0  0  0  0  0  0  0
  157.1385  133.8696  160.8798 H   0  0  0  0  0  0  0  0  0  0  0  0
  153.8419  132.8634  160.9567 H   0  0  0  0  0  0  0  0  0  0  0  0
  153.3096  134.2796  161.8217 H   0  0  0  0  0  0  0  0  0  0  0  0
  153.0318  134.6093  159.3882 H   0  0  0  0  0  0  0  0  0  0  0  0
  154.7175  134.3032  159.1058 H   0  0  0  0  0  0  0  0  0  0  0  0
  1  2  1  0  0  0  0
  1 24  1  0  0  0  0
  1 25  1  0  0  0  0
  1 26  1  0  0  0  0
  2  7  1  0  0  0  0
  2  3  2  0  0  0  0
  3  4  1  0  0  0  0
  3 27  1  0  0  0  0
  4  5  2  0  0  0  0
  5  6  1  0  0  0  0
  5 28  1  0  0  0  0
  6  7  2  0  0  0  0
  6 29  1  0  0  0  0
  7  8  1  0  0  0  0
  8  9  1  0  0  0  0
  8 30  1  0  0  0  0
  8 31  1  0  0  0  0
  9 10  1  0  0  0  0
  9 32  1  0  0  0  0
  9 33  1  0  0  0  0
 10 11  1  0  0  0  0
 10 34  1  0  0  0  0
 11 12  2  0  0  0  0
 11 13  1  0  0  0  0
 13 23  1  0  0  0  0
 13 14  1  0  0  0  0
 14 15  1  0  0  0  0
 14 35  1  0  0  0  0
 14 36  1  0  0  0  0
 15 16  1  0  0  0  0
 15 37  1  0  0  0  0
 15 38  1  0  0  0  0
 16 17  1  0  0  0  0
 16 18  1  0  0  0  0
 16 22  1  0  0  0  0
 17 39  1  0  0  0  0
 18 19  1  0  0  0  0
 18 20  1  0  0  0  0
 18 21  1  0  0  0  0
 22 23  1  0  0  0  0
 22 40  1  0  0  0  0
 22 41  1  0  0  0  0
 23 42  1  0  0  0  0
 23 43  1  0  0  0  0
M  END
> <s_m_source_file>
AV-unprocessed.smi

> <i_m_source_file_index>
2501

> <i_lp_mmshare_version>
43012

> <i_f3d_flags>
0

> <s_epik_input>
W0NIM11jMVtjSF1uW2NIXVtjSF1jMVtDSDJdW0NIMl1bTkhdQyg9TylOKFtDSDJdW0NIMl0yKVtDSDJdW0NIMl1DMihbT0hdKUMoRikoRilG

> <s_epik_cmdline>
J2VwaWtfcHl0aG9uJywgJy1waCcsICc3LjAnLCAnLXRuJywgJzgnLCAnLW1hJywgJzIwMCcsICctbWV0YWxfYmluZGluZycsICctaW1hZScsICc8aW5maWxlLm1hZT4nLCAnLW9tYWUnLCAnPG91dGZpbGUubWFlPic=

> <r_epik_Ionization_Penalty>
0.105852

> <r_epik_Ionization_Penalty_Charging>
0

> <r_epik_Ionization_Penalty_Neutral>
0.105852

> <r_epik_State_Penalty>
0.0956543

> <r_epik_Charging_Adjusted_Penalty>
0.0956543

> <i_epik_Tot_Q>
0

> <i_epik_Tot_abs_Q>
0

> <r_epik_Metal_State_Penalty>
0.0810448

> <b_epik_Metal_Only>
0

> <s_lp_Force_Field>
OPLS_2005

> <r_lp_Energy>
37.1862

> <b_lp_Chiralities_Consistent>
1

> <s_lp_Variant>
AV-unprocessed.smi:2501-1

> <Gold.Version>
5.8.1

> <Gold.Id.Protein>
6NUR|6NUR_protein|mol2

> <Gold.PLP.Fitness>
45.5433

> <Gold.PLP.PLP>
-43.2728

> <Gold.PLP.part.hbond>
-1.0000

> <Gold.PLP.part.metal>
0.0000

> <Gold.PLP.part.buried>
-4.5227

> <Gold.PLP.part.nonpolar>
-37.4447

> <Gold.PLP.part.repulsive>
0.0669

> <Gold.PLP.ligand.clash>
0.0000

> <Gold.PLP.ligand.torsion>
0.3843

> <Gold.PLP.Chemscore.Hbond>
0.9913

> <Gold.PLP.Chemscore.CHOScore>
0.0000

> <Gold.PLP.Chemscore.Metal>
0.0000

> <Gold.Chemscore.Hbonds>
donor molecule, donor type, donor heavy atom, donor atom, acceptor molecule, acceptor atom, score
      P1  H  6896  6907       L1    12  1.00

> <Gold.PLP.Chemscore.Internal.Correction>
0.0654

> <Gold.Rescore>
     Score         DG    S(hbond)    S(metal)    S(lipo)     H(rot)  DE(clash)    DE(int)     intcor
     16.77     -16.96       0.97        0.00     113.02       1.95       0.02       0.18       ----

> <Gold.Chemscore.Fitness>
16.7660

> <Gold.Chemscore.DG>
-16.9630

> <Gold.Chemscore.ZeroCoef>
-5.4800

> <Gold.Chemscore.Hbond>
0.9731

> <Gold.Chemscore.Metal>
0.0000

> <Gold.Chemscore.Lipo>
113.0220

> <Gold.Chemscore.Internal_Hbond>
0.0000

> <Gold.Chemscore.DEClash>
0.0210

> <Gold.Chemscore.DEInternal>
0.1760

> <Gold.Chemscore.Rot>
1.9495

> <Gold.Chemscore.Internal.Correction>
   9.000000E+99

> <Gold.Chemscore.Hbonds>
donor molecule, donor type, donor heavy atom, donor atom, acceptor molecule, acceptor atom, score
      P1  H  6896  6907       L1    12  0.78

> <Gold.Chemscore.Hbond.Weighted>
-3.2501

> <Gold.Chemscore.Metal.Weighted>
-0.0000

> <Gold.Chemscore.Lipo.Weighted>
-13.2236

> <Gold.Chemscore.Internal_Hbond.Weighted>
0.0000

> <Gold.Chemscore.DEClash.Weighted>
0.0210

> <Gold.Chemscore.DEInternal.Weighted>
0.1760

> <Gold.Chemscore.Rot.Weighted>
4.9907

> <Gold.Chemscore.Internal.Correction.Weighted>
   9.000000E+99

> <Gold.Protein.RotatedTorsions>
[ 6907 6896 6895 6894 ] final   19.47 input  -60.11 | X-H torsion
[ 7974 7965 7964 7962 ] final    1.30 input  175.53 | X-H torsion
[ 8008 7997 7996 7995 ] final  107.46 input   59.86 | X-H torsion
[ 10167 10162 10161 10158 ] final  -65.73 input  -65.29 | X-H torsion
[ 10718 10713 10712 10709 ] final  -45.79 input   66.30 | X-H torsion
[ 10763 10752 10751 10750 ] final  146.39 input  -60.55 | X-H torsion
[ 11005 11000 10999 10996 ] final  126.19 input  -57.11 | X-H torsion

> <Gold.Protein.ActiveResidues>
 VAL166  LYS551  ARG553  GLY616  TRP617  ASP618  TYR619  PRO620  LYS621  CYS622 
 ASP623  PHE694  ASN695  SER759  ASP760  ASP761  ALA762  ILE779  LEU786  VAL792 
 PHE793  MET794  SER795  GLU796  ALA797  LYS798  CYS799  TRP800  GLU811  SER814 

> <Gold.Protein.RotatedAtoms>
  151.8814  135.0452  160.0488 H   0  0  0  0  0  0  0  0  0  0  0  0  # atno 6907 bound_to 6896
  152.2510  133.5210  159.5333 H   0  0  0  0  0  0  0  0  0  0  0  0  # atno 6908 bound_to 6896
  150.7084  134.0877  159.3963 H   0  0  0  0  0  0  0  0  0  0  0  0  # atno 6909 bound_to 6896
  146.2439  140.1008  142.8348 H   0  0  0  0  0  0  0  0  0  0  0  0  # atno 7974 bound_to 7965
  156.1826  140.3094  155.9177 H   0  0  0  0  0  0  0  0  0  0  0  0  # atno 8008 bound_to 7997
  155.3351  140.0463  157.3060 H   0  0  0  0  0  0  0  0  0  0  0  0  # atno 8009 bound_to 7997
  154.5359  140.2246  155.8733 H   0  0  0  0  0  0  0  0  0  0  0  0  # atno 8010 bound_to 7997
  140.5708  143.2318  151.6542 H   0  0  0  0  0  0  0  0  0  0  0  0  # atno 10167 bound_to 10162
  156.2248  130.4168  149.8948 H   0  0  0  0  0  0  0  0  0  0  0  0  # atno 10718 bound_to 10713
  154.0211  135.2906  155.3381 H   0  0  0  0  0  0  0  0  0  0  0  0  # atno 10763 bound_to 10752
  154.7046  135.5174  153.8579 H   0  0  0  0  0  0  0  0  0  0  0  0  # atno 10764 bound_to 10752
  153.0681  135.6638  154.0432 H   0  0  0  0  0  0  0  0  0  0  0  0  # atno 10765 bound_to 10752
  139.9444  134.9631  156.8671 H   0  0  0  0  0  0  0  0  0  0  0  0  # atno 11005 bound_to 11000
  145.0570  140.9060  143.4961 LP  0  0  0  0  0  0  0  0  0  0  0  0  # atno 17320 bound_to 7965
  145.1116  139.2753  143.5634 LP  0  0  0  0  0  0  0  0  0  0  0  0  # atno 17321 bound_to 7965
  139.5116  144.3502  152.0659 LP  0  0  0  0  0  0  0  0  0  0  0  0  # atno 17342 bound_to 10162
  140.2639  144.4037  150.6175 LP  0  0  0  0  0  0  0  0  0  0  0  0  # atno 17343 bound_to 10162
  156.6582  130.8771  151.3543 LP  0  0  0  0  0  0  0  0  0  0  0  0  # atno 17370 bound_to 10713
  157.7105  130.9435  150.1073 LP  0  0  0  0  0  0  0  0  0  0  0  0  # atno 17371 bound_to 10713
  140.5872  134.0296  155.7486 LP  0  0  0  0  0  0  0  0  0  0  0  0  # atno 17394 bound_to 11000
  141.1089  133.9648  157.2946 LP  0  0  0  0  0  0  0  0  0  0  0  0  # atno 17395 bound_to 11000

$$$$
