AV-unprocessed.smi:1236|AV-procd|sdf|5182|dock2
  -GOLD-   22720 4263D 1   1.00000     0.00000
 Structure written by MMmdl.
 40 41  0  0  0  0  0  0  0  0  2 V2000
  145.2070  143.6922  160.4540 C   0  0  0  0  0  0  0  0  0  0  0  0
  145.5092  144.6628  159.3043 C   0  0  1  0  0  0  0  0  0  0  0  0
  145.2449  146.1279  159.7244 C   0  0  0  0  0  0  0  0  0  0  0  0
  145.4099  147.0934  158.6082 N   0  3  0  0  0  0  0  0  0  0  0  0
  144.3998  146.9363  157.5341 C   0  0  0  0  0  0  0  0  0  0  0  0
  144.6996  147.9084  156.3815 C   0  0  0  0  0  0  0  0  0  0  0  0
  144.7138  149.2413  156.8786 O   0  0  0  0  0  0  0  0  0  0  0  0
  145.7248  149.4340  157.8607 C   0  0  0  0  0  0  0  0  0  0  0  0
  145.4705  148.5031  159.0591 C   0  0  0  0  0  0  0  0  0  0  0  0
  146.8944  144.4701  158.8716 N   0  0  0  0  0  0  0  0  0  0  0  0
  147.9523  144.2834  159.6759 C   0  0  0  0  0  0  0  0  0  0  0  0
  147.8676  144.2278  160.9029 O   0  0  0  0  0  0  0  0  0  0  0  0
  149.0881  144.1554  158.9681 N   0  0  0  0  0  0  0  0  0  0  0  0
  150.3965  143.8899  159.4532 C   0  0  0  0  0  0  0  0  0  0  0  0
  151.3993  143.8103  158.4606 C   0  0  0  0  0  0  0  0  0  0  0  0
  152.7302  143.5477  158.8397 C   0  0  0  0  0  0  0  0  0  0  0  0
  153.0240  143.3700  160.2034 C   0  0  0  0  0  0  0  0  0  0  0  0
  151.9669  143.4636  161.1272 C   0  0  0  0  0  0  0  0  0  0  0  0
  150.6905  143.7142  160.7659 N   0  0  0  0  0  0  0  0  0  0  0  0
  144.1696  143.7797  160.7786 H   0  0  0  0  0  0  0  0  0  0  0  0
  145.8425  143.8873  161.3186 H   0  0  0  0  0  0  0  0  0  0  0  0
  145.3683  142.6578  160.1485 H   0  0  0  0  0  0  0  0  0  0  0  0
  144.8396  144.3971  158.4852 H   0  0  0  0  0  0  0  0  0  0  0  0
  144.2471  146.2337  160.1529 H   0  0  0  0  0  0  0  0  0  0  0  0
  145.9444  146.3817  160.5224 H   0  0  0  0  0  0  0  0  0  0  0  0
  144.4013  145.9145  157.1557 H   0  0  0  0  0  0  0  0  0  0  0  0
  143.4028  147.1271  157.9344 H   0  0  0  0  0  0  0  0  0  0  0  0
  145.6544  147.6705  155.9094 H   0  0  0  0  0  0  0  0  0  0  0  0
  143.9334  147.8262  155.6105 H   0  0  0  0  0  0  0  0  0  0  0  0
  146.7091  149.2496  157.4268 H   0  0  0  0  0  0  0  0  0  0  0  0
  145.7089  150.4751  158.1838 H   0  0  0  0  0  0  0  0  0  0  0  0
  144.5354  148.7709  159.5534 H   0  0  0  0  0  0  0  0  0  0  0  0
  146.2697  148.6255  159.7914 H   0  0  0  0  0  0  0  0  0  0  0  0
  147.0612  144.5014  157.8762 H   0  0  0  0  0  0  0  0  0  0  0  0
  149.0076  144.2442  157.9659 H   0  0  0  0  0  0  0  0  0  0  0  0
  151.1570  143.9495  157.4169 H   0  0  0  0  0  0  0  0  0  0  0  0
  153.5111  143.4843  158.0962 H   0  0  0  0  0  0  0  0  0  0  0  0
  154.0325  143.1671  160.5326 H   0  0  0  0  0  0  0  0  0  0  0  0
  152.1492  143.3327  162.1837 H   0  0  0  0  0  0  0  0  0  0  0  0
  146.3086  146.8927  158.1924 H   0  0  0  0  0  0  0  0  0  0  0  0
  1  2  1  0  0  0  0
  1 20  1  0  0  0  0
  1 21  1  0  0  0  0
  1 22  1  0  0  0  0
  2  3  1  0  0  0  0
  2 10  1  0  0  0  0
  2 23  1  0  0  0  0
  3  4  1  0  0  0  0
  3 24  1  0  0  0  0
  3 25  1  0  0  0  0
  4  9  1  0  0  0  0
  4  5  1  0  0  0  0
  4 40  1  0  0  0  0
  5  6  1  0  0  0  0
  5 26  1  0  0  0  0
  5 27  1  0  0  0  0
  6  7  1  0  0  0  0
  6 28  1  0  0  0  0
  6 29  1  0  0  0  0
  7  8  1  0  0  0  0
  8  9  1  0  0  0  0
  8 30  1  0  0  0  0
  8 31  1  0  0  0  0
  9 32  1  0  0  0  0
  9 33  1  0  0  0  0
 10 11  1  0  0  0  0
 10 34  1  0  0  0  0
 11 12  2  0  0  0  0
 11 13  1  0  0  0  0
 13 14  1  0  0  0  0
 13 35  1  0  0  0  0
 14 19  1  0  0  0  0
 14 15  2  0  0  0  0
 15 16  1  0  0  0  0
 15 36  1  0  0  0  0
 16 17  2  0  0  0  0
 16 37  1  0  0  0  0
 17 18  1  0  0  0  0
 17 38  1  0  0  0  0
 18 19  2  0  0  0  0
 18 39  1  0  0  0  0
M  CHG  1   4   1
M  END
> <s_m_source_file>
AV-unprocessed.smi

> <i_m_source_file_index>
1236

> <i_lp_mmshare_version>
43012

> <i_f3d_flags>
0

> <s_epik_input>
W0NIMl0xW0NIMl1PW0NIMl1bQ0gyXU4xW0NIMl1bQ0BASF0oW0NIM10pW05IXUMoPU8pW05IXWMyW2NIXVtjSF1bY0hdW2NIXW4y

> <s_epik_cmdline>
J2VwaWtfcHl0aG9uJywgJy1waCcsICc3LjAnLCAnLXRuJywgJzgnLCAnLW1hJywgJzIwMCcsICctbWV0YWxfYmluZGluZycsICctaW1hZScsICc8aW5maWxlLm1hZT4nLCAnLW9tYWUnLCAnPG91dGZpbGUubWFlPic=

> <r_epik_Ionization_Penalty>
0.602564

> <r_epik_Ionization_Penalty_Charging>
0.602531

> <r_epik_Ionization_Penalty_Neutral>
3.36306e-05

> <r_epik_State_Penalty>
0.617039

> <r_epik_Charging_Adjusted_Penalty>
1.21957

> <i_epik_Tot_Q>
1

> <i_epik_Tot_abs_Q>
1

> <r_epik_Metal_State_Penalty>
0.617041

> <b_epik_Metal_Only>
0

> <s_lp_Force_Field>
OPLS_2005

> <r_lp_Energy>
24.274

> <b_lp_Chiralities_Consistent>
1

> <s_lp_Variant>
AV-unprocessed.smi:1236-4

> <Gold.Version>
5.8.1

> <Gold.Id.Protein>
6NUR|6NUR_protein|mol2

> <Gold.PLP.Fitness>
47.0421

> <Gold.PLP.PLP>
-36.8321

> <Gold.PLP.part.hbond>
-5.4509

> <Gold.PLP.part.metal>
0.0000

> <Gold.PLP.part.buried>
-4.1414

> <Gold.PLP.part.nonpolar>
-27.2225

> <Gold.PLP.part.repulsive>
0.6481

> <Gold.PLP.ligand.clash>
0.0000

> <Gold.PLP.ligand.torsion>
0.3410

> <Gold.PLP.Chemscore.Hbond>
3.6213

> <Gold.PLP.Chemscore.CHOScore>
0.0000

> <Gold.PLP.Chemscore.Metal>
0.0000

> <Gold.Chemscore.Hbonds>
donor molecule, donor type, donor heavy atom, donor atom, acceptor molecule, acceptor atom, score
      L1  H     4    40       P1  8029  2.00
      L1  H    10    34       P1  8029  0.34
      L1  H    13    35       P1  8029  0.14
      P1  H  6933  6944       L1    12  0.98

> <Gold.PLP.Chemscore.Internal.Correction>
0.0281

> <Gold.Rescore>
     Score         DG    S(hbond)    S(metal)    S(lipo)     H(rot)  DE(clash)    DE(int)     intcor
     15.23     -18.65       2.05        0.00      88.03       1.56       0.32       3.09       ----

> <Gold.Chemscore.Fitness>
15.2316

> <Gold.Chemscore.DG>
-18.6507

> <Gold.Chemscore.ZeroCoef>
-5.4800

> <Gold.Chemscore.Hbond>
2.0541

> <Gold.Chemscore.Metal>
0.0000

> <Gold.Chemscore.Lipo>
88.0316

> <Gold.Chemscore.Internal_Hbond>
0.0000

> <Gold.Chemscore.DEClash>
0.3245

> <Gold.Chemscore.DEInternal>
3.0946

> <Gold.Chemscore.Rot>
1.5584

> <Gold.Chemscore.Internal.Correction>
   9.000000E+99

> <Gold.Chemscore.Hbonds>
donor molecule, donor type, donor heavy atom, donor atom, acceptor molecule, acceptor atom, score
      L1  H     4    40       P1  8029  0.97
      L1  H    10    34       P1  8029  0.10
      L1  H    13    35       P1  8029  0.01
      P1  H  6933  6944       L1    12  0.56

> <Gold.Chemscore.Hbond.Weighted>
-6.8606

> <Gold.Chemscore.Metal.Weighted>
-0.0000

> <Gold.Chemscore.Lipo.Weighted>
-10.2997

> <Gold.Chemscore.Internal_Hbond.Weighted>
0.0000

> <Gold.Chemscore.DEClash.Weighted>
0.3245

> <Gold.Chemscore.DEInternal.Weighted>
3.0946

> <Gold.Chemscore.Rot.Weighted>
3.9896

> <Gold.Chemscore.Internal.Correction.Weighted>
   9.000000E+99

> <Gold.Protein.RotatedTorsions>
[ 6907 6896 6895 6894 ] final    5.68 input  -60.11 | X-H torsion
[ 7974 7965 7964 7962 ] final  138.79 input  175.53 | X-H torsion
[ 8008 7997 7996 7995 ] final   38.57 input   59.86 | X-H torsion
[ 10167 10162 10161 10158 ] final  -35.59 input  -65.29 | X-H torsion
[ 10718 10713 10712 10709 ] final   35.11 input   66.30 | X-H torsion
[ 10763 10752 10751 10750 ] final  115.43 input  -60.55 | X-H torsion
[ 11005 11000 10999 10996 ] final  -66.43 input  -57.11 | X-H torsion

> <Gold.Protein.ActiveResidues>
 VAL166  LYS551  ARG553  GLY616  TRP617  ASP618  TYR619  PRO620  LYS621  CYS622 
 ASP623  PHE694  ASN695  SER759  ASP760  ASP761  ALA762  ILE779  LEU786  VAL792 
 PHE793  MET794  SER795  GLU796  ALA797  LYS798  CYS799  TRP800  GLU811  SER814 

> <Gold.Protein.RotatedAtoms>
  151.6614  135.0989  160.0179 H   0  0  0  0  0  0  0  0  0  0  0  0  # atno 6907 bound_to 6896
  152.3944  133.6722  159.6273 H   0  0  0  0  0  0  0  0  0  0  0  0  # atno 6908 bound_to 6896
  150.7854  133.8815  159.3328 H   0  0  0  0  0  0  0  0  0  0  0  0  # atno 6909 bound_to 6896
  144.9339  139.5013  143.5604 H   0  0  0  0  0  0  0  0  0  0  0  0  # atno 7974 bound_to 7965
  155.2224  140.3332  155.4314 H   0  0  0  0  0  0  0  0  0  0  0  0  # atno 8008 bound_to 7997
  156.2328  140.1858  156.7246 H   0  0  0  0  0  0  0  0  0  0  0  0  # atno 8009 bound_to 7997
  154.6007  140.0623  156.9349 H   0  0  0  0  0  0  0  0  0  0  0  0  # atno 8010 bound_to 7997
  140.7162  143.3467  151.2242 H   0  0  0  0  0  0  0  0  0  0  0  0  # atno 10167 bound_to 10162
  157.3186  130.7436  149.6771 H   0  0  0  0  0  0  0  0  0  0  0  0  # atno 10718 bound_to 10713
  153.5221  135.3595  155.2637 H   0  0  0  0  0  0  0  0  0  0  0  0  # atno 10763 bound_to 10752
  154.8734  135.4048  154.3248 H   0  0  0  0  0  0  0  0  0  0  0  0  # atno 10764 bound_to 10752
  153.3920  135.7072  153.6555 H   0  0  0  0  0  0  0  0  0  0  0  0  # atno 10765 bound_to 10752
  141.1482  133.6699  156.6138 H   0  0  0  0  0  0  0  0  0  0  0  0  # atno 11005 bound_to 11000
  146.3258  139.8310  142.8908 LP  0  0  0  0  0  0  0  0  0  0  0  0  # atno 17320 bound_to 7965
  145.3098  141.0216  143.3561 LP  0  0  0  0  0  0  0  0  0  0  0  0  # atno 17321 bound_to 7965
  139.6988  143.9568  152.2895 LP  0  0  0  0  0  0  0  0  0  0  0  0  # atno 17342 bound_to 10162
  139.9254  144.6774  150.8417 LP  0  0  0  0  0  0  0  0  0  0  0  0  # atno 17343 bound_to 10162
  155.9684  130.4230  150.4541 LP  0  0  0  0  0  0  0  0  0  0  0  0  # atno 17370 bound_to 10713
  157.2552  131.0555  151.2354 LP  0  0  0  0  0  0  0  0  0  0  0  0  # atno 17371 bound_to 10713
  140.3594  134.7701  157.4523 LP  0  0  0  0  0  0  0  0  0  0  0  0  # atno 17394 bound_to 11000
  140.0797  134.5748  155.8553 LP  0  0  0  0  0  0  0  0  0  0  0  0  # atno 17395 bound_to 11000

$$$$
