AV-unprocessed.smi:2661|AV-procd|sdf|10316|dock4
  -GOLD-   2272014333D 1   1.00000     0.00000
 Structure written by MMmdl.
 44 46  0  0  0  0  0  0  0  0  1 V2000
  150.8369  141.5139  156.9601 C   0  0  0  0  0  0  0  0  0  0  0  0
  151.1313  140.0991  156.7771 N   0  0  0  0  0  0  0  0  0  0  0  0
  151.3526  139.2252  157.9118 C   0  0  0  0  0  0  0  0  0  0  0  0
  151.2937  137.8135  157.3166 C   0  0  0  0  0  0  0  0  0  0  0  0
  151.5351  137.9763  155.8050 C   0  0  1  0  0  0  0  0  0  0  0  0
  150.6260  137.1137  155.0526 N   0  0  0  0  0  0  0  0  0  0  0  0
  150.6283  135.7733  155.0871 C   0  0  0  0  0  0  0  0  0  0  0  0
  151.3942  135.1143  155.7896 O   0  0  0  0  0  0  0  0  0  0  0  0
  149.6832  135.2663  154.2770 N   0  0  0  0  0  0  0  0  0  0  0  0
  149.3636  133.9030  154.0338 C   0  0  0  0  0  0  0  0  0  0  0  0
  150.0394  132.9217  154.7840 C   0  0  0  0  0  0  0  0  0  0  0  0
  149.7363  131.5633  154.5745 C   0  0  0  0  0  0  0  0  0  0  0  0
  148.7526  131.2150  153.6192 C   0  0  0  0  0  0  0  0  0  0  0  0
  148.4365  129.8587  153.3859 N   0  0  0  0  0  0  0  0  0  0  0  0
  147.0136  129.5271  153.4067 C   0  0  0  0  0  0  0  0  0  0  0  0
  146.7833  128.1140  152.8435 C   0  0  0  0  0  0  0  0  0  0  0  0
  147.5807  127.1741  153.5559 O   0  0  0  0  0  0  0  0  0  0  0  0
  148.9706  127.4534  153.4245 C   0  0  0  0  0  0  0  0  0  0  0  0
  149.2776  128.8407  154.0134 C   0  0  0  0  0  0  0  0  0  0  0  0
  148.0852  132.1615  152.9147 N   0  0  0  0  0  0  0  0  0  0  0  0
  148.3805  133.4633  153.1160 C   0  0  0  0  0  0  0  0  0  0  0  0
  151.1896  139.4531  155.6082 C   0  0  0  0  0  0  0  0  0  0  0  0
  151.0125  139.9607  154.5007 O   0  0  0  0  0  0  0  0  0  0  0  0
  149.7996  141.7224  156.6966 H   0  0  0  0  0  0  0  0  0  0  0  0
  151.4821  142.1274  156.3302 H   0  0  0  0  0  0  0  0  0  0  0  0
  150.9925  141.8160  157.9963 H   0  0  0  0  0  0  0  0  0  0  0  0
  152.3359  139.4319  158.3371 H   0  0  0  0  0  0  0  0  0  0  0  0
  150.6018  139.3716  158.6893 H   0  0  0  0  0  0  0  0  0  0  0  0
  152.0239  137.1473  157.7773 H   0  0  0  0  0  0  0  0  0  0  0  0
  150.3064  137.3887  157.5079 H   0  0  0  0  0  0  0  0  0  0  0  0
  152.5832  137.8057  155.5528 H   0  0  0  0  0  0  0  0  0  0  0  0
  149.9602  137.5727  154.4489 H   0  0  0  0  0  0  0  0  0  0  0  0
  149.0832  135.9381  153.8214 H   0  0  0  0  0  0  0  0  0  0  0  0
  150.7857  133.2027  155.5127 H   0  0  0  0  0  0  0  0  0  0  0  0
  150.2485  130.8110  155.1557 H   0  0  0  0  0  0  0  0  0  0  0  0
  146.6554  129.5805  154.4357 H   0  0  0  0  0  0  0  0  0  0  0  0
  146.4237  130.2373  152.8292 H   0  0  0  0  0  0  0  0  0  0  0  0
  145.7340  127.8367  152.9445 H   0  0  0  0  0  0  0  0  0  0  0  0
  147.0210  128.0769  151.7790 H   0  0  0  0  0  0  0  0  0  0  0  0
  149.5389  126.6876  153.9526 H   0  0  0  0  0  0  0  0  0  0  0  0
  149.2656  127.4019  152.3750 H   0  0  0  0  0  0  0  0  0  0  0  0
  150.3320  129.0728  153.8582 H   0  0  0  0  0  0  0  0  0  0  0  0
  149.0988  128.8370  155.0896 H   0  0  0  0  0  0  0  0  0  0  0  0
  147.7905  134.1525  152.5330 H   0  0  0  0  0  0  0  0  0  0  0  0
  1  2  1  0  0  0  0
  1 24  1  0  0  0  0
  1 25  1  0  0  0  0
  1 26  1  0  0  0  0
  2 22  1  0  0  0  0
  2  3  1  0  0  0  0
  3  4  1  0  0  0  0
  3 27  1  0  0  0  0
  3 28  1  0  0  0  0
  4  5  1  0  0  0  0
  4 29  1  0  0  0  0
  4 30  1  0  0  0  0
  5  6  1  0  0  0  0
  5 22  1  0  0  0  0
  5 31  1  0  0  0  0
  6  7  1  0  0  0  0
  6 32  1  0  0  0  0
  7  8  2  0  0  0  0
  7  9  1  0  0  0  0
  9 10  1  0  0  0  0
  9 33  1  0  0  0  0
 10 21  1  0  0  0  0
 10 11  2  0  0  0  0
 11 12  1  0  0  0  0
 11 34  1  0  0  0  0
 12 13  2  0  0  0  0
 12 35  1  0  0  0  0
 13 14  1  0  0  0  0
 13 20  1  0  0  0  0
 14 19  1  0  0  0  0
 14 15  1  0  0  0  0
 15 16  1  0  0  0  0
 15 36  1  0  0  0  0
 15 37  1  0  0  0  0
 16 17  1  0  0  0  0
 16 38  1  0  0  0  0
 16 39  1  0  0  0  0
 17 18  1  0  0  0  0
 18 19  1  0  0  0  0
 18 40  1  0  0  0  0
 18 41  1  0  0  0  0
 19 42  1  0  0  0  0
 19 43  1  0  0  0  0
 20 21  2  0  0  0  0
 21 44  1  0  0  0  0
 22 23  2  0  0  0  0
M  END
> <s_m_source_file>
AV-unprocessed.smi

> <i_m_source_file_index>
2661

> <i_lp_mmshare_version>
43012

> <i_f3d_flags>
0

> <s_epik_input>
W0NIM11OMVtDSDJdW0NIMl1bQ0BIXShDMT1PKVtOSF1DKD1PKVtOSF1jMltjSF1bY0hdYyhuW2NIXTIpTjNbQ0gyXVtDSDJdT1tDSDJdW0NIMl0z

> <s_epik_cmdline>
J2VwaWtfcHl0aG9uJywgJy1waCcsICc3LjAnLCAnLXRuJywgJzgnLCAnLW1hJywgJzIwMCcsICctbWV0YWxfYmluZGluZycsICctaW1hZScsICc8aW5maWxlLm1hZT4nLCAnLW9tYWUnLCAnPG91dGZpbGUubWFlPic=

> <r_lp_tautomer_probability>
1

> <r_epik_Ionization_Penalty>
0.00172037

> <r_epik_Ionization_Penalty_Charging>
0

> <r_epik_Ionization_Penalty_Neutral>
0.00172037

> <r_epik_State_Penalty>
0.00114015

> <r_epik_Charging_Adjusted_Penalty>
0.00114015

> <i_epik_Tot_Q>
0

> <i_epik_Tot_abs_Q>
0

> <r_epik_Metal_State_Penalty>
-0

> <b_epik_Metal_Only>
0

> <s_lp_Force_Field>
OPLS_2005

> <r_lp_Energy>
30.3032

> <b_lp_Chiralities_Consistent>
1

> <s_lp_Variant>
AV-unprocessed.smi:2661-1

> <Gold.Version>
5.8.1

> <Gold.Id.Protein>
6NUR|6NUR_protein|mol2

> <Gold.PLP.Fitness>
42.3604

> <Gold.PLP.PLP>
-32.6058

> <Gold.PLP.part.hbond>
-3.1932

> <Gold.PLP.part.metal>
0.0000

> <Gold.PLP.part.buried>
-3.4034

> <Gold.PLP.part.nonpolar>
-25.8027

> <Gold.PLP.part.repulsive>
0.6119

> <Gold.PLP.ligand.clash>
0.0000

> <Gold.PLP.ligand.torsion>
0.1928

> <Gold.PLP.Chemscore.Hbond>
2.4982

> <Gold.PLP.Chemscore.CHOScore>
0.7561

> <Gold.PLP.Chemscore.Metal>
0.0000

> <Gold.Chemscore.Hbonds>
donor molecule, donor type, donor heavy atom, donor atom, acceptor molecule, acceptor atom, score
      L1  H     9    33       P1  7948  0.48
      P1  H  7989  7998       L1    23  0.89
      P1  H 10752 10764       L1     8  0.96
      L1  C    21    44       P1  7948  0.70

> <Gold.PLP.Chemscore.Internal.Correction>
0.3772

> <Gold.Rescore>
     Score         DG    S(hbond)    S(metal)    S(lipo)     H(rot)  DE(clash)    DE(int)     intcor
     14.86     -16.54       2.13        0.00      61.26       1.26       0.01       1.67       ----

> <Gold.Chemscore.Fitness>
14.8615

> <Gold.Chemscore.DG>
-16.5396

> <Gold.Chemscore.ZeroCoef>
-5.4800

> <Gold.Chemscore.Hbond>
2.1339

> <Gold.Chemscore.Metal>
0.0000

> <Gold.Chemscore.Lipo>
61.2590

> <Gold.Chemscore.Internal_Hbond>
0.0000

> <Gold.Chemscore.DEClash>
0.0094

> <Gold.Chemscore.DEInternal>
1.6687

> <Gold.Chemscore.Rot>
1.2636

> <Gold.Chemscore.Internal.Correction>
   9.000000E+99

> <Gold.Chemscore.Hbonds>
donor molecule, donor type, donor heavy atom, donor atom, acceptor molecule, acceptor atom, score
      L1  H     9    33       P1  7948  0.43
      P1  H  7989  7998       L1    23  0.87
      P1  H 10752 10764       L1     8  0.41

> <Gold.Chemscore.Hbond.Weighted>
-7.1271

> <Gold.Chemscore.Metal.Weighted>
-0.0000

> <Gold.Chemscore.Lipo.Weighted>
-7.1673

> <Gold.Chemscore.Internal_Hbond.Weighted>
0.0000

> <Gold.Chemscore.DEClash.Weighted>
0.0094

> <Gold.Chemscore.DEInternal.Weighted>
1.6687

> <Gold.Chemscore.Rot.Weighted>
3.2348

> <Gold.Chemscore.Internal.Correction.Weighted>
   9.000000E+99

> <Gold.Protein.RotatedTorsions>
[ 6907 6896 6895 6894 ] final  171.86 input  -60.11 | X-H torsion
[ 7974 7965 7964 7962 ] final   41.47 input  175.53 | X-H torsion
[ 8008 7997 7996 7995 ] final  120.77 input   59.86 | X-H torsion
[ 10167 10162 10161 10158 ] final  -45.20 input  -65.29 | X-H torsion
[ 10718 10713 10712 10709 ] final  -88.87 input   66.30 | X-H torsion
[ 10763 10752 10751 10750 ] final  -31.56 input  -60.55 | X-H torsion
[ 11005 11000 10999 10996 ] final  115.95 input  -57.11 | X-H torsion

> <Gold.Protein.ActiveResidues>
 VAL166  LYS551  ARG553  GLY616  TRP617  ASP618  TYR619  PRO620  LYS621  CYS622 
 ASP623  PHE694  ASN695  SER759  ASP760  ASP761  ALA762  ILE779  LEU786  VAL792 
 PHE793  MET794  SER795  GLU796  ALA797  LYS798  CYS799  TRP800  GLU811  SER814 

> <Gold.Protein.RotatedAtoms>
  151.7935  133.3362  159.3505 H   0  0  0  0  0  0  0  0  0  0  0  0  # atno 6907 bound_to 6896
  150.7383  134.5820  159.5953 H   0  0  0  0  0  0  0  0  0  0  0  0  # atno 6908 bound_to 6896
  152.3193  134.7401  160.0369 H   0  0  0  0  0  0  0  0  0  0  0  0  # atno 6909 bound_to 6896
  146.0820  139.5412  142.9530 H   0  0  0  0  0  0  0  0  0  0  0  0  # atno 7974 bound_to 7965
  156.2657  140.2823  156.1202 H   0  0  0  0  0  0  0  0  0  0  0  0  # atno 8008 bound_to 7997
  155.1164  140.0391  157.2755 H   0  0  0  0  0  0  0  0  0  0  0  0  # atno 8009 bound_to 7997
  154.6704  140.2586  155.7019 H   0  0  0  0  0  0  0  0  0  0  0  0  # atno 8010 bound_to 7997
  140.6867  143.2891  151.3605 H   0  0  0  0  0  0  0  0  0  0  0  0  # atno 10167 bound_to 10162
  155.9984  130.4851  150.5085 H   0  0  0  0  0  0  0  0  0  0  0  0  # atno 10718 bound_to 10713
  153.7994  135.6891  153.4858 H   0  0  0  0  0  0  0  0  0  0  0  0  # atno 10763 bound_to 10752
  153.1698  135.4547  154.9885 H   0  0  0  0  0  0  0  0  0  0  0  0  # atno 10764 bound_to 10752
  154.8012  135.3338  154.7484 H   0  0  0  0  0  0  0  0  0  0  0  0  # atno 10765 bound_to 10752
  139.9026  134.9591  156.7124 H   0  0  0  0  0  0  0  0  0  0  0  0  # atno 11005 bound_to 11000
  145.6199  141.0324  143.1920 LP  0  0  0  0  0  0  0  0  0  0  0  0  # atno 17320 bound_to 7965
  144.7300  139.7755  143.7351 LP  0  0  0  0  0  0  0  0  0  0  0  0  # atno 17321 bound_to 7965
  139.6232  144.0866  152.2410 LP  0  0  0  0  0  0  0  0  0  0  0  0  # atno 17342 bound_to 10162
  140.0317  144.6076  150.7483 LP  0  0  0  0  0  0  0  0  0  0  0  0  # atno 17343 bound_to 10162
  157.3061  131.0655  151.2034 LP  0  0  0  0  0  0  0  0  0  0  0  0  # atno 17370 bound_to 10713
  157.2996  130.6836  149.6157 LP  0  0  0  0  0  0  0  0  0  0  0  0  # atno 17371 bound_to 10713
  140.7065  133.9260  155.8057 LP  0  0  0  0  0  0  0  0  0  0  0  0  # atno 17394 bound_to 11000
  141.0332  134.0726  157.3989 LP  0  0  0  0  0  0  0  0  0  0  0  0  # atno 17395 bound_to 11000

$$$$
