AV-unprocessed.smi:3331|AV-procd|sdf|12817|dock5
  -GOLD-   2272019193D 1   1.00000     0.00000
 Structure written by MMmdl.
 47 48  0  0  0  0  0  0  0  0  2 V2000
  146.2723  139.8759  157.8128 C   0  0  0  0  0  0  0  0  0  0  0  0
  146.9297  140.1030  156.4444 C   0  0  2  0  0  0  0  0  0  0  0  0
  147.6589  141.4650  156.3875 C   0  0  0  0  0  0  0  0  0  0  0  0
  148.2150  141.7937  154.9836 C   0  0  1  0  0  0  0  0  0  0  0  0
  149.5057  141.0151  154.6716 C   0  0  0  0  0  0  0  0  0  0  0  0
  147.1147  141.5811  153.9207 C   0  0  0  0  0  0  0  0  0  0  0  0
  146.5916  140.2102  154.0165 N   0  0  0  0  0  0  0  0  0  0  0  0
  146.7807  139.2109  153.1172 C   0  0  0  0  0  0  0  0  0  0  0  0
  147.4373  139.3779  152.0875 O   0  0  0  0  0  0  0  0  0  0  0  0
  146.1672  137.8183  153.3670 C   0  0  2  0  0  0  0  0  0  0  0  0
  146.7593  137.1903  154.6424 C   0  0  0  0  0  0  0  0  0  0  0  0
  146.3885  136.9424  152.1936 N   0  3  0  0  0  0  0  0  0  0  0  0
  145.7439  135.6130  152.2543 C   0  0  0  0  0  0  0  0  0  0  0  0
  144.9744  135.3062  150.9599 C   0  0  0  0  0  0  0  0  0  0  0  0
  144.9718  133.8871  150.6505 N   0  0  0  0  0  0  0  0  0  0  0  0
  143.9001  133.0201  150.6113 C   0  0  0  0  0  0  0  0  0  0  0  0
  144.3838  131.7923  150.2610 C   0  0  0  0  0  0  0  0  0  0  0  0
  145.7814  132.0101  150.1059 C   0  0  0  0  0  0  0  0  0  0  0  0
  146.1298  133.2657  150.3374 N   0  0  0  0  0  0  0  0  0  0  0  0
  145.9029  139.9972  155.2971 C   0  0  0  0  0  0  0  0  0  0  0  0
  145.5111  140.6295  158.0174 H   0  0  0  0  0  0  0  0  0  0  0  0
  147.0098  139.9206  158.6145 H   0  0  0  0  0  0  0  0  0  0  0  0
  145.7931  138.8976  157.8608 H   0  0  0  0  0  0  0  0  0  0  0  0
  147.6705  139.3140  156.3063 H   0  0  0  0  0  0  0  0  0  0  0  0
  146.9548  142.2490  156.6700 H   0  0  0  0  0  0  0  0  0  0  0  0
  148.4579  141.4996  157.1293 H   0  0  0  0  0  0  0  0  0  0  0  0
  148.4813  142.8514  154.9765 H   0  0  0  0  0  0  0  0  0  0  0  0
  149.3406  139.9379  154.6530 H   0  0  0  0  0  0  0  0  0  0  0  0
  150.2730  141.2167  155.4194 H   0  0  0  0  0  0  0  0  0  0  0  0
  149.9118  141.3051  153.7025 H   0  0  0  0  0  0  0  0  0  0  0  0
  146.2949  142.2769  154.1069 H   0  0  0  0  0  0  0  0  0  0  0  0
  147.4796  141.8521  152.9321 H   0  0  0  0  0  0  0  0  0  0  0  0
  145.0881  137.9201  153.4666 H   0  0  0  0  0  0  0  0  0  0  0  0
  146.6415  137.8455  155.5061 H   0  0  0  0  0  0  0  0  0  0  0  0
  147.8251  136.9885  154.5273 H   0  0  0  0  0  0  0  0  0  0  0  0
  146.2687  136.2488  154.8890 H   0  0  0  0  0  0  0  0  0  0  0  0
  146.0041  137.4198  151.3899 H   0  0  0  0  0  0  0  0  0  0  0  0
  146.5064  134.8511  152.4157 H   0  0  0  0  0  0  0  0  0  0  0  0
  145.0611  135.5679  153.1041 H   0  0  0  0  0  0  0  0  0  0  0  0
  143.9446  135.6609  151.0267 H   0  0  0  0  0  0  0  0  0  0  0  0
  145.4327  135.8349  150.1233 H   0  0  0  0  0  0  0  0  0  0  0  0
  142.8939  133.3452  150.8317 H   0  0  0  0  0  0  0  0  0  0  0  0
  143.8247  130.8767  150.1355 H   0  0  0  0  0  0  0  0  0  0  0  0
  146.5471  131.2990  149.8324 H   0  0  0  0  0  0  0  0  0  0  0  0
  145.3911  139.0351  155.3466 H   0  0  0  0  0  0  0  0  0  0  0  0
  145.1218  140.7491  155.4180 H   0  0  0  0  0  0  0  0  0  0  0  0
  147.3815  136.8324  152.0448 H   0  0  0  0  0  0  0  0  0  0  0  0
  1  2  1  0  0  0  0
  1 21  1  0  0  0  0
  1 22  1  0  0  0  0
  1 23  1  0  0  0  0
  2 20  1  0  0  0  0
  2  3  1  0  0  0  0
  2 24  1  0  0  0  0
  3  4  1  0  0  0  0
  3 25  1  0  0  0  0
  3 26  1  0  0  0  0
  4  5  1  0  0  0  0
  4  6  1  0  0  0  0
  4 27  1  0  0  0  0
  5 28  1  0  0  0  0
  5 29  1  0  0  0  0
  5 30  1  0  0  0  0
  6  7  1  0  0  0  0
  6 31  1  0  0  0  0
  6 32  1  0  0  0  0
  7  8  1  0  0  0  0
  7 20  1  0  0  0  0
  8  9  2  0  0  0  0
  8 10  1  0  0  0  0
 10 11  1  0  0  0  0
 10 12  1  0  0  0  0
 10 33  1  0  0  0  0
 11 34  1  0  0  0  0
 11 35  1  0  0  0  0
 11 36  1  0  0  0  0
 12 13  1  0  0  0  0
 12 37  1  0  0  0  0
 12 47  1  0  0  0  0
 13 14  1  0  0  0  0
 13 38  1  0  0  0  0
 13 39  1  0  0  0  0
 14 15  1  0  0  0  0
 14 40  1  0  0  0  0
 14 41  1  0  0  0  0
 15 19  1  0  0  0  0
 15 16  1  0  0  0  0
 16 17  2  0  0  0  0
 16 42  1  0  0  0  0
 17 18  1  0  0  0  0
 17 43  1  0  0  0  0
 18 19  2  0  0  0  0
 18 44  1  0  0  0  0
 20 45  1  0  0  0  0
 20 46  1  0  0  0  0
M  CHG  1  12   1
M  END
> <s_m_source_file>
AV-unprocessed.smi

> <i_m_source_file_index>
3331

> <i_lp_mmshare_version>
43012

> <i_f3d_flags>
0

> <s_epik_input>
W0NIM11bQ0BASF0xW0NIMl1bQ0BASF0oW0NIM10pW0NIMl1OKFtDSDJdMSlDKD1PKVtDQEhdKFtDSDNdKVtOSF1bQ0gyXVtDSDJdbjJbY0hdW2NIXVtjSF1uMg==

> <s_epik_cmdline>
J2VwaWtfcHl0aG9uJywgJy1waCcsICc3LjAnLCAnLXRuJywgJzgnLCAnLW1hJywgJzIwMCcsICctbWV0YWxfYmluZGluZycsICctaW1hZScsICc8aW5maWxlLm1hZT4nLCAnLW9tYWUnLCAnPG91dGZpbGUubWFlPic=

> <r_lp_tautomer_probability>
1

> <r_epik_Ionization_Penalty>
0.189706

> <r_epik_Ionization_Penalty_Charging>
0.189703

> <r_epik_Ionization_Penalty_Neutral>
2.45875e-06

> <r_epik_State_Penalty>
0.179341

> <r_epik_Charging_Adjusted_Penalty>
0.369044

> <i_epik_Tot_Q>
1

> <i_epik_Tot_abs_Q>
1

> <r_epik_Metal_State_Penalty>
0.179578

> <b_epik_Metal_Only>
0

> <s_lp_Force_Field>
OPLS_2005

> <r_lp_Energy>
28.246

> <b_lp_Chiralities_Consistent>
1

> <s_lp_Variant>
AV-unprocessed.smi:3331-1

> <Gold.Version>
5.8.1

> <Gold.Id.Protein>
6NUR|6NUR_protein|mol2

> <Gold.PLP.Fitness>
39.4400

> <Gold.PLP.PLP>
-28.6547

> <Gold.PLP.part.hbond>
-1.0000

> <Gold.PLP.part.metal>
0.0000

> <Gold.PLP.part.buried>
-4.2121

> <Gold.PLP.part.nonpolar>
-28.9280

> <Gold.PLP.part.repulsive>
5.2470

> <Gold.PLP.ligand.clash>
0.0000

> <Gold.PLP.ligand.torsion>
0.6370

> <Gold.PLP.Chemscore.Hbond>
2.0000

> <Gold.PLP.Chemscore.CHOScore>
1.9999

> <Gold.PLP.Chemscore.Metal>
0.0000

> <Gold.Chemscore.Hbonds>
donor molecule, donor type, donor heavy atom, donor atom, acceptor molecule, acceptor atom, score
      L1  H    12    47       P1  7948  2.00
      L1  C    16    42       P1 10186  1.00
      L1  C    18    44       P1 10747  1.00

> <Gold.PLP.Chemscore.Internal.Correction>
0.0598

> <Gold.Rescore>
     Score         DG    S(hbond)    S(metal)    S(lipo)     H(rot)  DE(clash)    DE(int)     intcor
      9.71     -13.60       1.13        0.00      74.88       1.73       2.19       1.70       ----

> <Gold.Chemscore.Fitness>
9.7125

> <Gold.Chemscore.DG>
-13.6034

> <Gold.Chemscore.ZeroCoef>
-5.4800

> <Gold.Chemscore.Hbond>
1.1316

> <Gold.Chemscore.Metal>
0.0000

> <Gold.Chemscore.Lipo>
74.8796

> <Gold.Chemscore.Internal_Hbond>
0.0000

> <Gold.Chemscore.DEClash>
2.1923

> <Gold.Chemscore.DEInternal>
1.6986

> <Gold.Chemscore.Rot>
1.7254

> <Gold.Chemscore.Internal.Correction>
   9.000000E+99

> <Gold.Chemscore.Hbonds>
donor molecule, donor type, donor heavy atom, donor atom, acceptor molecule, acceptor atom, score
      L1  H    12    47       P1  7948  1.00

> <Gold.Chemscore.Hbond.Weighted>
-3.7795

> <Gold.Chemscore.Metal.Weighted>
-0.0000

> <Gold.Chemscore.Lipo.Weighted>
-8.7609

> <Gold.Chemscore.Internal_Hbond.Weighted>
0.0000

> <Gold.Chemscore.DEClash.Weighted>
2.1923

> <Gold.Chemscore.DEInternal.Weighted>
1.6986

> <Gold.Chemscore.Rot.Weighted>
4.4170

> <Gold.Chemscore.Internal.Correction.Weighted>
   9.000000E+99

> <Gold.Protein.RotatedTorsions>
[ 6907 6896 6895 6894 ] final  -48.27 input  -60.11 | X-H torsion
[ 7974 7965 7964 7962 ] final   81.75 input  175.53 | X-H torsion
[ 8008 7997 7996 7995 ] final  -41.95 input   59.86 | X-H torsion
[ 10167 10162 10161 10158 ] final  137.24 input  -65.29 | X-H torsion
[ 10718 10713 10712 10709 ] final  -62.01 input   66.30 | X-H torsion
[ 10763 10752 10751 10750 ] final  -31.72 input  -60.55 | X-H torsion
[ 11005 11000 10999 10996 ] final  -91.31 input  -57.11 | X-H torsion

> <Gold.Protein.ActiveResidues>
 VAL166  LYS551  ARG553  GLY616  TRP617  ASP618  TYR619  PRO620  LYS621  CYS622 
 ASP623  PHE694  ASN695  SER759  ASP760  ASP761  ALA762  ILE779  LEU786  VAL792 
 PHE793  MET794  SER795  GLU796  ALA797  LYS798  CYS799  TRP800  GLU811  SER814 

> <Gold.Protein.RotatedAtoms>
  150.8922  134.8327  159.7301 H   0  0  0  0  0  0  0  0  0  0  0  0  # atno 6907 bound_to 6896
  152.4844  134.4630  159.9621 H   0  0  0  0  0  0  0  0  0  0  0  0  # atno 6908 bound_to 6896
  151.4692  133.3534  159.2856 H   0  0  0  0  0  0  0  0  0  0  0  0  # atno 6909 bound_to 6896
  145.6341  139.2411  143.2068 H   0  0  0  0  0  0  0  0  0  0  0  0  # atno 7974 bound_to 7965
  154.4001  140.1486  156.3275 H   0  0  0  0  0  0  0  0  0  0  0  0  # atno 8008 bound_to 7997
  155.8474  140.3459  155.5649 H   0  0  0  0  0  0  0  0  0  0  0  0  # atno 8009 bound_to 7997
  155.8022  140.0872  157.1941 H   0  0  0  0  0  0  0  0  0  0  0  0  # atno 8010 bound_to 7997
  139.5151  144.6421  151.5541 H   0  0  0  0  0  0  0  0  0  0  0  0  # atno 10167 bound_to 10162
  156.0883  130.4204  150.1075 H   0  0  0  0  0  0  0  0  0  0  0  0  # atno 10718 bound_to 10713
  153.8019  135.6889  153.4854 H   0  0  0  0  0  0  0  0  0  0  0  0  # atno 10763 bound_to 10752
  153.1683  135.4552  154.9866 H   0  0  0  0  0  0  0  0  0  0  0  0  # atno 10764 bound_to 10752
  154.8003  135.3335  154.7507 H   0  0  0  0  0  0  0  0  0  0  0  0  # atno 10765 bound_to 10752
  141.1547  133.7747  156.9860 H   0  0  0  0  0  0  0  0  0  0  0  0  # atno 11005 bound_to 11000
  146.1333  140.7156  142.9401 LP  0  0  0  0  0  0  0  0  0  0  0  0  # atno 17320 bound_to 7965
  144.7182  140.4284  143.7028 LP  0  0  0  0  0  0  0  0  0  0  0  0  # atno 17321 bound_to 7965
  140.6191  143.9292  150.6512 LP  0  0  0  0  0  0  0  0  0  0  0  0  # atno 17342 bound_to 10162
  140.2560  143.3558  152.1365 LP  0  0  0  0  0  0  0  0  0  0  0  0  # atno 17343 bound_to 10162
  156.9090  130.9645  151.3565 LP  0  0  0  0  0  0  0  0  0  0  0  0  # atno 17370 bound_to 10713
  157.6025  130.8523  149.8824 LP  0  0  0  0  0  0  0  0  0  0  0  0  # atno 17371 bound_to 10713
  140.1034  134.9521  157.1957 LP  0  0  0  0  0  0  0  0  0  0  0  0  # atno 17394 bound_to 11000
  140.3288  134.2833  155.7232 LP  0  0  0  0  0  0  0  0  0  0  0  0  # atno 17395 bound_to 11000

$$$$
