AV-unprocessed.smi:111|AV-procd|sdf|1080|dock6
  -GOLD-   2262018173D 1   1.00000     0.00000
 Structure written by MMmdl.
 46 48  0  0  0  0  0  0  0  0  1 V2000
  152.3483  136.0579  156.6813 O   0  0  0  0  0  0  0  0  0  0  0  0
  151.7345  136.9994  156.1758 C   0  0  0  0  0  0  0  0  0  0  0  0
  150.6635  136.8244  155.2016 C   0  0  0  0  0  0  0  0  0  0  0  0
  150.3197  135.5869  154.8065 F   0  0  0  0  0  0  0  0  0  0  0  0
  150.0132  137.8876  154.6828 C   0  0  0  0  0  0  0  0  0  0  0  0
  150.3051  139.1949  155.0314 N   0  0  0  0  0  0  0  0  0  0  0  0
  149.5424  140.3513  154.4254 C   0  0  1  0  0  0  0  0  0  0  0  0
  148.6119  139.8530  153.3139 C   0  0  0  0  0  0  0  0  0  0  0  0
  147.2867  139.7430  154.0369 C   0  0  0  0  0  0  0  0  0  0  0  0
  147.3799  140.8996  155.0242 C   0  0  0  0  0  0  0  0  0  0  0  0
  148.7486  140.9390  155.4158 O   0  0  0  0  0  0  0  0  0  0  0  0
  151.3463  139.4617  155.9473 C   0  0  0  0  0  0  0  0  0  0  0  0
  151.6452  140.6224  156.2367 O   0  0  0  0  0  0  0  0  0  0  0  0
  152.0274  138.3482  156.4985 N   0  0  0  0  0  0  0  0  0  0  0  0
  153.1100  138.5868  157.4453 C   0  0  0  0  0  0  0  0  0  0  0  0
  152.6446  138.7655  158.9096 C   0  0  2  0  0  0  0  0  0  0  0  0
  151.5870  137.8611  159.1531 O   0  0  0  0  0  0  0  0  0  0  0  0
  152.1807  140.1966  159.2721 C   0  0  0  0  0  0  0  0  0  0  0  0
  153.3024  141.2468  159.1963 C   0  0  0  0  0  0  0  0  0  0  0  0
  152.8336  142.6336  159.6047 C   0  0  0  0  0  0  0  0  0  0  0  0
  152.5570  142.9265  160.9571 C   0  0  0  0  0  0  0  0  0  0  0  0
  152.1448  144.2202  161.3316 C   0  0  0  0  0  0  0  0  0  0  0  0
  152.0007  145.2243  160.3550 C   0  0  0  0  0  0  0  0  0  0  0  0
  152.2678  144.9338  159.0036 C   0  0  0  0  0  0  0  0  0  0  0  0
  152.6844  143.6419  158.6294 C   0  0  0  0  0  0  0  0  0  0  0  0
  149.2341  137.6956  153.9603 H   0  0  0  0  0  0  0  0  0  0  0  0
  150.2868  141.0728  154.0855 H   0  0  0  0  0  0  0  0  0  0  0  0
  148.5596  140.6163  152.5367 H   0  0  0  0  0  0  0  0  0  0  0  0
  148.9578  138.9201  152.8684 H   0  0  0  0  0  0  0  0  0  0  0  0
  146.4275  139.8179  153.3700 H   0  0  0  0  0  0  0  0  0  0  0  0
  147.2232  138.7959  154.5727 H   0  0  0  0  0  0  0  0  0  0  0  0
  147.1266  141.8405  154.5338 H   0  0  0  0  0  0  0  0  0  0  0  0
  146.7213  140.7741  155.8838 H   0  0  0  0  0  0  0  0  0  0  0  0
  153.8493  137.7904  157.3565 H   0  0  0  0  0  0  0  0  0  0  0  0
  153.6229  139.4816  157.0864 H   0  0  0  0  0  0  0  0  0  0  0  0
  153.4491  138.4561  159.5745 H   0  0  0  0  0  0  0  0  0  0  0  0
  151.0086  137.8670  158.4058 H   0  0  0  0  0  0  0  0  0  0  0  0
  151.3703  140.5189  158.6217 H   0  0  0  0  0  0  0  0  0  0  0  0
  151.7488  140.2042  160.2741 H   0  0  0  0  0  0  0  0  0  0  0  0
  154.1187  140.9548  159.8576 H   0  0  0  0  0  0  0  0  0  0  0  0
  153.7221  141.2758  158.1899 H   0  0  0  0  0  0  0  0  0  0  0  0
  152.6708  142.1636  161.7133 H   0  0  0  0  0  0  0  0  0  0  0  0
  151.9412  144.4424  162.3687 H   0  0  0  0  0  0  0  0  0  0  0  0
  151.6859  146.2165  160.6428 H   0  0  0  0  0  0  0  0  0  0  0  0
  152.1551  145.7022  158.2540 H   0  0  0  0  0  0  0  0  0  0  0  0
  152.8945  143.4269  157.5920 H   0  0  0  0  0  0  0  0  0  0  0  0
  1  2  2  0  0  0  0
  2 14  1  0  0  0  0
  2  3  1  0  0  0  0
  3  4  1  0  0  0  0
  3  5  2  0  0  0  0
  5  6  1  0  0  0  0
  5 26  1  0  0  0  0
  6  7  1  0  0  0  0
  6 12  1  0  0  0  0
  7 11  1  0  0  0  0
  7  8  1  0  0  0  0
  7 27  1  0  0  0  0
  8  9  1  0  0  0  0
  8 28  1  0  0  0  0
  8 29  1  0  0  0  0
  9 10  1  0  0  0  0
  9 30  1  0  0  0  0
  9 31  1  0  0  0  0
 10 11  1  0  0  0  0
 10 32  1  0  0  0  0
 10 33  1  0  0  0  0
 12 13  2  0  0  0  0
 12 14  1  0  0  0  0
 14 15  1  0  0  0  0
 15 16  1  0  0  0  0
 15 34  1  0  0  0  0
 15 35  1  0  0  0  0
 16 17  1  0  0  0  0
 16 18  1  0  0  0  0
 16 36  1  0  0  0  0
 17 37  1  0  0  0  0
 18 19  1  0  0  0  0
 18 38  1  0  0  0  0
 18 39  1  0  0  0  0
 19 20  1  0  0  0  0
 19 40  1  0  0  0  0
 19 41  1  0  0  0  0
 20 25  1  0  0  0  0
 20 21  2  0  0  0  0
 21 22  1  0  0  0  0
 21 42  1  0  0  0  0
 22 23  2  0  0  0  0
 22 43  1  0  0  0  0
 23 24  1  0  0  0  0
 23 44  1  0  0  0  0
 24 25  2  0  0  0  0
 24 45  1  0  0  0  0
 25 46  1  0  0  0  0
M  END
> <s_m_source_file>
AV-unprocessed.smi

> <i_m_source_file_index>
111

> <i_lp_mmshare_version>
43012

> <i_f3d_flags>
0

> <s_epik_input>
TzFbQ0gyXVtDSDJdW0NIMl1bQ0BIXTFuKFtjSF1jKEYpYzI9TyljKD1PKW4yW0NIMl1bQ0BIXShbT0hdKVtDSDJdW0NIMl1jM1tjSF1bY0hdW2NIXVtjSF1bY0hdMw==

> <s_epik_cmdline>
J2VwaWtfcHl0aG9uJywgJy1waCcsICc3LjAnLCAnLXRuJywgJzgnLCAnLW1hJywgJzIwMCcsICctbWV0YWxfYmluZGluZycsICctaW1hZScsICc8aW5maWxlLm1hZT4nLCAnLW9tYWUnLCAnPG91dGZpbGUubWFlPic=

> <r_lp_tautomer_probability>
1

> <r_epik_Ionization_Penalty>
1.88248e-07

> <r_epik_Ionization_Penalty_Charging>
4.03974e-08

> <r_epik_Ionization_Penalty_Neutral>
1.47851e-07

> <r_epik_State_Penalty>
-0

> <r_epik_Charging_Adjusted_Penalty>
4.03974e-08

> <i_epik_Tot_Q>
0

> <i_epik_Tot_abs_Q>
0

> <r_epik_Metal_State_Penalty>
-0

> <b_epik_Metal_Only>
0

> <s_epik_Chemistry_Notes>
This compound contains an acetal/aminal-like group ( X-CH(R)-Y where X, Y are N, S, or O) that may be acid/base labile, releasing an aldehyde.

> <s_lp_Force_Field>
OPLS_2005

> <r_lp_Energy>
34.7798

> <b_lp_Chiralities_Consistent>
1

> <s_lp_Variant>
AV-unprocessed.smi:111-2

> <Gold.Version>
5.8.1

> <Gold.Id.Protein>
6NUR|6NUR_protein|mol2

> <Gold.PLP.Fitness>
51.6365

> <Gold.PLP.PLP>
-47.3392

> <Gold.PLP.part.hbond>
-1.0000

> <Gold.PLP.part.metal>
0.0000

> <Gold.PLP.part.buried>
1.4147

> <Gold.PLP.part.nonpolar>
-46.8949

> <Gold.PLP.part.repulsive>
0.0914

> <Gold.PLP.ligand.clash>
0.0000

> <Gold.PLP.ligand.torsion>
0.8779

> <Gold.PLP.Chemscore.Hbond>
1.0000

> <Gold.PLP.Chemscore.CHOScore>
1.0000

> <Gold.PLP.Chemscore.Metal>
0.0000

> <Gold.Chemscore.Hbonds>
donor molecule, donor type, donor heavy atom, donor atom, acceptor molecule, acceptor atom, score
      P1  H 10752 10764       L1     1  1.00
      L1  C     5    26       P1  7948  0.95

> <Gold.PLP.Chemscore.Internal.Correction>
0.0531

> <Gold.Rescore>
     Score         DG    S(hbond)    S(metal)    S(lipo)     H(rot)  DE(clash)    DE(int)     intcor
     12.75     -16.48       0.88        0.00     127.54       2.67       1.83       1.91       ----

> <Gold.Chemscore.Fitness>
12.7455

> <Gold.Chemscore.DG>
-16.4785

> <Gold.Chemscore.ZeroCoef>
-5.4800

> <Gold.Chemscore.Hbond>
0.8752

> <Gold.Chemscore.Metal>
0.0000

> <Gold.Chemscore.Lipo>
127.5360

> <Gold.Chemscore.Internal_Hbond>
0.0000

> <Gold.Chemscore.DEClash>
1.8275

> <Gold.Chemscore.DEInternal>
1.9056

> <Gold.Chemscore.Rot>
2.6743

> <Gold.Chemscore.Internal.Correction>
   9.000000E+99

> <Gold.Chemscore.Hbonds>
donor molecule, donor type, donor heavy atom, donor atom, acceptor molecule, acceptor atom, score
      P1  H 10752 10764       L1     1  0.55

> <Gold.Chemscore.Hbond.Weighted>
-2.9231

> <Gold.Chemscore.Metal.Weighted>
-0.0000

> <Gold.Chemscore.Lipo.Weighted>
-14.9217

> <Gold.Chemscore.Internal_Hbond.Weighted>
0.0000

> <Gold.Chemscore.DEClash.Weighted>
1.8275

> <Gold.Chemscore.DEInternal.Weighted>
1.9056

> <Gold.Chemscore.Rot.Weighted>
6.8463

> <Gold.Chemscore.Internal.Correction.Weighted>
   9.000000E+99

> <Gold.Protein.RotatedTorsions>
[ 6907 6896 6895 6894 ] final  -95.27 input  -60.11 | X-H torsion
[ 7974 7965 7964 7962 ] final  129.75 input  175.53 | X-H torsion
[ 8008 7997 7996 7995 ] final -134.46 input   59.86 | X-H torsion
[ 10167 10162 10161 10158 ] final -134.86 input  -65.29 | X-H torsion
[ 10718 10713 10712 10709 ] final  -38.36 input   66.30 | X-H torsion
[ 10763 10752 10751 10750 ] final   -4.70 input  -60.55 | X-H torsion
[ 11005 11000 10999 10996 ] final  -85.43 input  -57.11 | X-H torsion

> <Gold.Protein.ActiveResidues>
 VAL166  LYS551  ARG553  GLY616  TRP617  ASP618  TYR619  PRO620  LYS621  CYS622 
 ASP623  PHE694  ASN695  SER759  ASP760  ASP761  ALA762  ILE779  LEU786  VAL792 
 PHE793  MET794  SER795  GLU796  ALA797  LYS798  CYS799  TRP800  GLU811  SER814 

> <Gold.Protein.RotatedAtoms>
  150.6960  134.1683  159.4202 H   0  0  0  0  0  0  0  0  0  0  0  0  # atno 6907 bound_to 6896
  151.9661  135.0097  160.0559 H   0  0  0  0  0  0  0  0  0  0  0  0  # atno 6908 bound_to 6896
  152.1883  133.4720  159.5031 H   0  0  0  0  0  0  0  0  0  0  0  0  # atno 6909 bound_to 6896
  145.0253  139.4095  143.5177 H   0  0  0  0  0  0  0  0  0  0  0  0  # atno 7974 bound_to 7965
  155.3624  140.0483  157.3046 H   0  0  0  0  0  0  0  0  0  0  0  0  # atno 8008 bound_to 7997
  154.5171  140.2212  155.9008 H   0  0  0  0  0  0  0  0  0  0  0  0  # atno 8009 bound_to 7997
  156.1649  140.3108  155.8876 H   0  0  0  0  0  0  0  0  0  0  0  0  # atno 8010 bound_to 7997
  139.8837  143.6807  152.2623 H   0  0  0  0  0  0  0  0  0  0  0  0  # atno 10167 bound_to 10162
  156.3046  130.4244  149.8109 H   0  0  0  0  0  0  0  0  0  0  0  0  # atno 10718 bound_to 10713
  153.3884  135.7001  153.6513 H   0  0  0  0  0  0  0  0  0  0  0  0  # atno 10763 bound_to 10752
  153.5095  135.3635  155.2580 H   0  0  0  0  0  0  0  0  0  0  0  0  # atno 10764 bound_to 10752
  154.8700  135.4131  154.3196 H   0  0  0  0  0  0  0  0  0  0  0  0  # atno 10765 bound_to 10752
  141.1641  133.7399  156.9014 H   0  0  0  0  0  0  0  0  0  0  0  0  # atno 11005 bound_to 11000
  146.3491  139.9773  142.8699 LP  0  0  0  0  0  0  0  0  0  0  0  0  # atno 17320 bound_to 7965
  145.1842  140.9781  143.4248 LP  0  0  0  0  0  0  0  0  0  0  0  0  # atno 17321 bound_to 7965
  139.7172  144.7609  151.1014 LP  0  0  0  0  0  0  0  0  0  0  0  0  # atno 17342 bound_to 10162
  140.7740  143.5253  150.9487 LP  0  0  0  0  0  0  0  0  0  0  0  0  # atno 17343 bound_to 10162
  156.5475  130.8327  151.3289 LP  0  0  0  0  0  0  0  0  0  0  0  0  # atno 17370 bound_to 10713
  157.7376  130.9799  150.2205 LP  0  0  0  0  0  0  0  0  0  0  0  0  # atno 17371 bound_to 10713
  140.1580  134.9185  157.2678 LP  0  0  0  0  0  0  0  0  0  0  0  0  # atno 17394 bound_to 11000
  140.2644  134.3533  155.7395 LP  0  0  0  0  0  0  0  0  0  0  0  0  # atno 17395 bound_to 11000

$$$$
