AV-unprocessed.smi:1749|AV-procd|sdf|7049|dock9
  -GOLD-   22720 8263D 1   1.00000     0.00000
 Structure written by MMmdl.
 31 32  0  0  0  0  0  0  0  0  2 V2000
  151.9642  145.5980  159.5804 C   0  0  0  0  0  0  0  0  0  0  0  0
  152.1959  144.2665  158.8523 C   0  0  1  0  0  0  0  0  0  0  0  0
  152.3632  143.1012  159.8462 C   0  0  0  0  0  0  0  0  0  0  0  0
  152.5990  141.7697  159.1166 C   0  0  0  0  0  0  0  0  0  0  0  0
  151.4702  141.4753  158.1174 C   0  0  0  0  0  0  0  0  0  0  0  0
  151.2948  142.6291  157.1135 C   0  0  1  0  0  0  0  0  0  0  0  0
  150.1799  142.3262  156.2208 N   0  0  0  0  0  0  0  0  0  0  0  0
  150.0936  141.2839  155.3708 C   0  0  0  0  0  0  0  0  0  0  0  0
  151.0377  140.4989  155.2926 O   0  0  0  0  0  0  0  0  0  0  0  0
  148.9561  141.1554  154.6376 N   0  5  0  0  0  0  0  0  0  0  0  0
  147.7891  141.7172  155.0041 C   0  0  0  0  0  0  0  0  0  0  0  0
  147.4139  141.8288  156.2885 N   0  0  0  0  0  0  0  0  0  0  0  0
  146.1740  142.4336  156.4444 N   0  0  0  0  0  0  0  0  0  0  0  0
  145.6484  142.7744  155.2681 C   0  0  0  0  0  0  0  0  0  0  0  0
  146.6198  142.3876  153.8638 S   0  0  0  0  0  0  0  0  0  0  0  0
  151.0627  143.9642  157.8519 C   0  0  0  0  0  0  0  0  0  0  0  0
  151.0474  145.5742  160.1701 H   0  0  0  0  0  0  0  0  0  0  0  0
  151.8833  146.4228  158.8719 H   0  0  0  0  0  0  0  0  0  0  0  0
  152.7893  145.8242  160.2561 H   0  0  0  0  0  0  0  0  0  0  0  0
  153.1239  144.3608  158.2864 H   0  0  0  0  0  0  0  0  0  0  0  0
  153.1972  143.3011  160.5197 H   0  0  0  0  0  0  0  0  0  0  0  0
  151.4734  143.0194  160.4722 H   0  0  0  0  0  0  0  0  0  0  0  0
  153.5532  141.8048  158.5894 H   0  0  0  0  0  0  0  0  0  0  0  0
  152.6751  140.9577  159.8402 H   0  0  0  0  0  0  0  0  0  0  0  0
  151.6820  140.5463  157.5865 H   0  0  0  0  0  0  0  0  0  0  0  0
  150.5383  141.3143  158.6621 H   0  0  0  0  0  0  0  0  0  0  0  0
  152.2093  142.7050  156.5221 H   0  0  0  0  0  0  0  0  0  0  0  0
  149.3939  142.9587  156.2536 H   0  0  0  0  0  0  0  0  0  0  0  0
  144.6837  143.2575  155.2267 H   0  0  0  0  0  0  0  0  0  0  0  0
  150.1079  143.9307  158.3792 H   0  0  0  0  0  0  0  0  0  0  0  0
  150.9862  144.7788  157.1305 H   0  0  0  0  0  0  0  0  0  0  0  0
  1  2  1  0  0  0  0
  1 17  1  0  0  0  0
  1 18  1  0  0  0  0
  1 19  1  0  0  0  0
  2 16  1  0  0  0  0
  2  3  1  0  0  0  0
  2 20  1  0  0  0  0
  3  4  1  0  0  0  0
  3 21  1  0  0  0  0
  3 22  1  0  0  0  0
  4  5  1  0  0  0  0
  4 23  1  0  0  0  0
  4 24  1  0  0  0  0
  5  6  1  0  0  0  0
  5 25  1  0  0  0  0
  5 26  1  0  0  0  0
  6  7  1  0  0  0  0
  6 16  1  0  0  0  0
  6 27  1  0  0  0  0
  7  8  1  0  0  0  0
  7 28  1  0  0  0  0
  8  9  2  0  0  0  0
  8 10  1  0  0  0  0
 10 11  1  0  0  0  0
 11 15  1  0  0  0  0
 11 12  2  0  0  0  0
 12 13  1  0  0  0  0
 13 14  2  0  0  0  0
 14 15  1  0  0  0  0
 14 29  1  0  0  0  0
 16 30  1  0  0  0  0
 16 31  1  0  0  0  0
M  CHG  1  10  -1
M  END
> <s_m_source_file>
AV-unprocessed.smi

> <i_m_source_file_index>
1749

> <i_lp_mmshare_version>
43012

> <i_f3d_flags>
0

> <s_epik_input>
W0NIM11bQ0BASF0xW0NIMl1bQ0gyXVtDSDJdW0NASF0oW0NIMl0xKVtOSF1DKD1PKVtOSF1jMm5uW2NIXXMy

> <s_epik_cmdline>
J2VwaWtfcHl0aG9uJywgJy1waCcsICc3LjAnLCAnLXRuJywgJzgnLCAnLW1hJywgJzIwMCcsICctbWV0YWxfYmluZGluZycsICctaW1hZScsICc8aW5maWxlLm1hZT4nLCAnLW9tYWUnLCAnPG91dGZpbGUubWFlPic=

> <r_lp_tautomer_probability>
1

> <r_epik_Ionization_Penalty>
4.55442

> <r_epik_Ionization_Penalty_Charging>
4.5081

> <r_epik_Ionization_Penalty_Neutral>
0.0463156

> <r_epik_State_Penalty>
4.50781

> <r_epik_Charging_Adjusted_Penalty>
9.01591

> <i_epik_Tot_Q>
-1

> <i_epik_Tot_abs_Q>
1

> <r_epik_Metal_State_Penalty>
0.823335

> <b_epik_Metal_Only>
1

> <s_lp_Force_Field>
OPLS_2005

> <r_lp_Energy>
8.86437

> <b_lp_Chiralities_Consistent>
1

> <s_lp_Variant>
AV-unprocessed.smi:1749-6

> <Gold.Version>
5.8.1

> <Gold.Id.Protein>
6NUR|6NUR_protein|mol2

> <Gold.PLP.Fitness>
40.9470

> <Gold.PLP.PLP>
-36.3540

> <Gold.PLP.part.hbond>
-2.0000

> <Gold.PLP.part.metal>
0.0000

> <Gold.PLP.part.buried>
-3.6209

> <Gold.PLP.part.nonpolar>
-29.7945

> <Gold.PLP.part.repulsive>
0.5384

> <Gold.PLP.ligand.clash>
0.0000

> <Gold.PLP.ligand.torsion>
0.3714

> <Gold.PLP.Chemscore.Hbond>
1.7760

> <Gold.PLP.Chemscore.CHOScore>
0.0000

> <Gold.PLP.Chemscore.Metal>
0.0000

> <Gold.Chemscore.Hbonds>
donor molecule, donor type, donor heavy atom, donor atom, acceptor molecule, acceptor atom, score
      L1  H     7    28       P1  8028  0.80
      P1  H  7989  7998       L1     9  0.96

> <Gold.PLP.Chemscore.Internal.Correction>
0.0078

> <Gold.Rescore>
     Score         DG    S(hbond)    S(metal)    S(lipo)     H(rot)  DE(clash)    DE(int)     intcor
     15.43     -17.55       1.37        0.00      85.88       1.00       0.34       1.78       ----

> <Gold.Chemscore.Fitness>
15.4334

> <Gold.Chemscore.DG>
-17.5530

> <Gold.Chemscore.ZeroCoef>
-5.4800

> <Gold.Chemscore.Hbond>
1.3729

> <Gold.Chemscore.Metal>
0.0000

> <Gold.Chemscore.Lipo>
85.8760

> <Gold.Chemscore.Internal_Hbond>
0.0000

> <Gold.Chemscore.DEClash>
0.3426

> <Gold.Chemscore.DEInternal>
1.7770

> <Gold.Chemscore.Rot>
1.0000

> <Gold.Chemscore.Internal.Correction>
   9.000000E+99

> <Gold.Chemscore.Hbonds>
donor molecule, donor type, donor heavy atom, donor atom, acceptor molecule, acceptor atom, score
      L1  H     7    28       P1  8028  0.79
      P1  H  7989  7998       L1     9  0.23

> <Gold.Chemscore.Hbond.Weighted>
-4.5855

> <Gold.Chemscore.Metal.Weighted>
-0.0000

> <Gold.Chemscore.Lipo.Weighted>
-10.0475

> <Gold.Chemscore.Internal_Hbond.Weighted>
0.0000

> <Gold.Chemscore.DEClash.Weighted>
0.3426

> <Gold.Chemscore.DEInternal.Weighted>
1.7770

> <Gold.Chemscore.Rot.Weighted>
2.5600

> <Gold.Chemscore.Internal.Correction.Weighted>
   9.000000E+99

> <Gold.Protein.RotatedTorsions>
[ 6907 6896 6895 6894 ] final  -36.13 input  -60.11 | X-H torsion
[ 7974 7965 7964 7962 ] final -133.74 input  175.53 | X-H torsion
[ 8008 7997 7996 7995 ] final   33.76 input   59.86 | X-H torsion
[ 10167 10162 10161 10158 ] final  156.87 input  -65.29 | X-H torsion
[ 10718 10713 10712 10709 ] final  -51.70 input   66.30 | X-H torsion
[ 10763 10752 10751 10750 ] final -109.35 input  -60.55 | X-H torsion
[ 11005 11000 10999 10996 ] final  -48.75 input  -57.11 | X-H torsion

> <Gold.Protein.ActiveResidues>
 VAL166  LYS551  ARG553  GLY616  TRP617  ASP618  TYR619  PRO620  LYS621  CYS622 
 ASP623  PHE694  ASN695  SER759  ASP760  ASP761  ALA762  ILE779  LEU786  VAL792 
 PHE793  MET794  SER795  GLU796  ALA797  LYS798  CYS799  TRP800  GLU811  SER814 

> <Gold.Protein.RotatedAtoms>
  151.0310  134.9539  159.8110 H   0  0  0  0  0  0  0  0  0  0  0  0  # atno 6907 bound_to 6896
  152.5345  134.2780  159.9006 H   0  0  0  0  0  0  0  0  0  0  0  0  # atno 6908 bound_to 6896
  151.2789  133.4177  159.2660 H   0  0  0  0  0  0  0  0  0  0  0  0  # atno 6909 bound_to 6896
  144.9166  140.6962  143.4991 H   0  0  0  0  0  0  0  0  0  0  0  0  # atno 7974 bound_to 7965
  155.1438  140.3268  155.4446 H   0  0  0  0  0  0  0  0  0  0  0  0  # atno 8008 bound_to 7997
  156.2596  140.1989  156.6502 H   0  0  0  0  0  0  0  0  0  0  0  0  # atno 8009 bound_to 7997
  154.6523  140.0557  156.9956 H   0  0  0  0  0  0  0  0  0  0  0  0  # atno 8010 bound_to 7997
  139.4822  144.4969  151.8226 H   0  0  0  0  0  0  0  0  0  0  0  0  # atno 10167 bound_to 10162
  156.1686  130.4149  149.9681 H   0  0  0  0  0  0  0  0  0  0  0  0  # atno 10718 bound_to 10713
  154.8188  135.4604  154.0719 H   0  0  0  0  0  0  0  0  0  0  0  0  # atno 10763 bound_to 10752
  153.2090  135.6879  153.8144 H   0  0  0  0  0  0  0  0  0  0  0  0  # atno 10764 bound_to 10752
  153.7602  135.3285  155.3312 H   0  0  0  0  0  0  0  0  0  0  0  0  # atno 10765 bound_to 10752
  141.0719  133.6676  156.3486 H   0  0  0  0  0  0  0  0  0  0  0  0  # atno 11005 bound_to 11000
  145.3365  139.1744  143.4508 LP  0  0  0  0  0  0  0  0  0  0  0  0  # atno 17320 bound_to 7965
  146.3185  140.3401  142.8647 LP  0  0  0  0  0  0  0  0  0  0  0  0  # atno 17321 bound_to 7965
  140.4459  144.1923  150.5894 LP  0  0  0  0  0  0  0  0  0  0  0  0  # atno 17342 bound_to 10162
  140.4635  143.2439  151.9187 LP  0  0  0  0  0  0  0  0  0  0  0  0  # atno 17343 bound_to 10162
  156.7488  130.9107  151.3636 LP  0  0  0  0  0  0  0  0  0  0  0  0  # atno 17370 bound_to 10713
  157.6786  130.9118  150.0212 LP  0  0  0  0  0  0  0  0  0  0  0  0  # atno 17371 bound_to 10713
  140.5655  134.5892  157.5444 LP  0  0  0  0  0  0  0  0  0  0  0  0  # atno 17394 bound_to 11000
  139.9532  134.7580  156.0400 LP  0  0  0  0  0  0  0  0  0  0  0  0  # atno 17395 bound_to 11000

$$$$
