AV-unprocessed.smi:2922|AV-procd|sdf|11198|dock2
  -GOLD-   2272016 93D 1   1.00000     0.00000
 Structure written by MMmdl.
 30 31  0  0  0  0  0  0  0  0  1 V2000
  145.3638  143.1087  153.5241 N   0  0  0  0  0  0  0  0  0  0  0  0
  146.1469  142.2812  154.2224 C   0  0  0  0  0  0  0  0  0  0  0  0
  145.8930  141.9793  155.3870 O   0  0  0  0  0  0  0  0  0  0  0  0
  147.3764  141.6892  153.5082 C   0  0  2  0  0  0  0  0  0  0  0  0
  147.4016  140.1468  153.4863 C   0  0  0  0  0  0  0  0  0  0  0  0
  148.6712  139.7822  154.2384 C   0  0  0  0  0  0  0  0  0  0  0  0
  148.9289  141.0184  155.0911 C   0  0  1  0  0  0  0  0  0  0  0  0
  150.3887  141.1696  155.5448 C   0  0  0  0  0  0  0  0  0  0  0  0
  150.6108  142.4159  156.2650 N   0  0  0  0  0  0  0  0  0  0  0  0
  151.1502  142.5064  157.5354 C   0  0  0  0  0  0  0  0  0  0  0  0
  151.4739  143.7180  158.0052 N   0  0  0  0  0  0  0  0  0  0  0  0
  152.0041  143.7753  159.2466 C   0  0  0  0  0  0  0  0  0  0  0  0
  152.2071  142.6121  160.0152 C   0  0  0  0  0  0  0  0  0  0  0  0
  152.8851  142.6777  161.6001 Cl  0  0  0  0  0  0  0  0  0  0  0  0
  151.8276  141.3921  159.4208 C   0  0  0  0  0  0  0  0  0  0  0  0
  151.2984  141.3447  158.1782 N   0  0  0  0  0  0  0  0  0  0  0  0
  148.5713  142.0617  154.1963 O   0  0  0  0  0  0  0  0  0  0  0  0
  144.5492  143.5175  153.9584 H   0  0  0  0  0  0  0  0  0  0  0  0
  145.5929  143.3215  152.5636 H   0  0  0  0  0  0  0  0  0  0  0  0
  147.4147  142.0930  152.4960 H   0  0  0  0  0  0  0  0  0  0  0  0
  146.5374  139.7103  153.9891 H   0  0  0  0  0  0  0  0  0  0  0  0
  147.4172  139.7550  152.4691 H   0  0  0  0  0  0  0  0  0  0  0  0
  148.5694  138.8725  154.8305 H   0  0  0  0  0  0  0  0  0  0  0  0
  149.4883  139.6361  153.5305 H   0  0  0  0  0  0  0  0  0  0  0  0
  148.2499  141.0198  155.9457 H   0  0  0  0  0  0  0  0  0  0  0  0
  150.6723  140.3321  156.1830 H   0  0  0  0  0  0  0  0  0  0  0  0
  151.0549  141.1404  154.6824 H   0  0  0  0  0  0  0  0  0  0  0  0
  150.2039  143.2567  155.8819 H   0  0  0  0  0  0  0  0  0  0  0  0
  152.2664  144.7521  159.6253 H   0  0  0  0  0  0  0  0  0  0  0  0
  151.9486  140.4529  159.9404 H   0  0  0  0  0  0  0  0  0  0  0  0
  1  2  1  0  0  0  0
  1 18  1  0  0  0  0
  1 19  1  0  0  0  0
  2  3  2  0  0  0  0
  2  4  1  0  0  0  0
  4 17  1  0  0  0  0
  4  5  1  0  0  0  0
  4 20  1  0  0  0  0
  5  6  1  0  0  0  0
  5 21  1  0  0  0  0
  5 22  1  0  0  0  0
  6  7  1  0  0  0  0
  6 23  1  0  0  0  0
  6 24  1  0  0  0  0
  7  8  1  0  0  0  0
  7 17  1  0  0  0  0
  7 25  1  0  0  0  0
  8  9  1  0  0  0  0
  8 26  1  0  0  0  0
  8 27  1  0  0  0  0
  9 10  1  0  0  0  0
  9 28  1  0  0  0  0
 10 16  1  0  0  0  0
 10 11  2  0  0  0  0
 11 12  1  0  0  0  0
 12 13  2  0  0  0  0
 12 29  1  0  0  0  0
 13 14  1  0  0  0  0
 13 15  1  0  0  0  0
 15 16  2  0  0  0  0
 15 30  1  0  0  0  0
M  END
> <s_m_source_file>
AV-unprocessed.smi

> <i_m_source_file_index>
2922

> <i_lp_mmshare_version>
43012

> <i_f3d_flags>
0

> <s_epik_input>
W05IMl1DKD1PKVtDQEBIXTFbQ0gyXVtDSDJdW0NASF0oTzEpW0NIMl1bTkhdYzJuW2NIXWMoQ2wpW2NIXW4y

> <s_epik_cmdline>
J2VwaWtfcHl0aG9uJywgJy1waCcsICc3LjAnLCAnLXRuJywgJzgnLCAnLW1hJywgJzIwMCcsICctbWV0YWxfYmluZGluZycsICctaW1hZScsICc8aW5maWxlLm1hZT4nLCAnLW9tYWUnLCAnPG91dGZpbGUubWFlPic=

> <r_lp_tautomer_probability>
1

> <r_epik_Ionization_Penalty>
6.13883e-06

> <r_epik_Ionization_Penalty_Charging>
0

> <r_epik_Ionization_Penalty_Neutral>
6.13883e-06

> <r_epik_State_Penalty>
-0

> <r_epik_Charging_Adjusted_Penalty>
0

> <i_epik_Tot_Q>
0

> <i_epik_Tot_abs_Q>
0

> <r_epik_Metal_State_Penalty>
-0

> <b_epik_Metal_Only>
0

> <s_lp_Force_Field>
OPLS_2005

> <r_lp_Energy>
9.74106

> <b_lp_Chiralities_Consistent>
1

> <s_lp_Variant>
AV-unprocessed.smi:2922-1

> <Gold.Version>
5.8.1

> <Gold.Id.Protein>
6NUR|6NUR_protein|mol2

> <Gold.PLP.Fitness>
37.8499

> <Gold.PLP.PLP>
-34.4302

> <Gold.PLP.part.hbond>
-2.7359

> <Gold.PLP.part.metal>
0.0000

> <Gold.PLP.part.buried>
-4.5391

> <Gold.PLP.part.nonpolar>
-27.1255

> <Gold.PLP.part.repulsive>
1.2318

> <Gold.PLP.ligand.clash>
0.0000

> <Gold.PLP.ligand.torsion>
0.0462

> <Gold.PLP.Chemscore.Hbond>
1.1627

> <Gold.PLP.Chemscore.CHOScore>
0.0000

> <Gold.PLP.Chemscore.Metal>
0.0000

> <Gold.Chemscore.Hbonds>
donor molecule, donor type, donor heavy atom, donor atom, acceptor molecule, acceptor atom, score
      L1  H     9    28       P1  8028  1.00
      P1  H  8011  8017       L1    17  0.13

> <Gold.PLP.Chemscore.Internal.Correction>
0.0241

> <Gold.Rescore>
     Score         DG    S(hbond)    S(metal)    S(lipo)     H(rot)  DE(clash)    DE(int)     intcor
     12.54     -12.58       1.00        0.00      74.07       1.91       0.02       0.02       ----

> <Gold.Chemscore.Fitness>
12.5409

> <Gold.Chemscore.DG>
-12.5828

> <Gold.Chemscore.ZeroCoef>
-5.4800

> <Gold.Chemscore.Hbond>
0.9992

> <Gold.Chemscore.Metal>
0.0000

> <Gold.Chemscore.Lipo>
74.0653

> <Gold.Chemscore.Internal_Hbond>
0.0000

> <Gold.Chemscore.DEClash>
0.0178

> <Gold.Chemscore.DEInternal>
0.0241

> <Gold.Chemscore.Rot>
1.9142

> <Gold.Chemscore.Internal.Correction>
   9.000000E+99

> <Gold.Chemscore.Hbonds>
donor molecule, donor type, donor heavy atom, donor atom, acceptor molecule, acceptor atom, score
      L1  H     9    28       P1  8028  0.97
      P1  H  8011  8017       L1    17  0.02

> <Gold.Chemscore.Hbond.Weighted>
-3.3374

> <Gold.Chemscore.Metal.Weighted>
-0.0000

> <Gold.Chemscore.Lipo.Weighted>
-8.6656

> <Gold.Chemscore.Internal_Hbond.Weighted>
0.0000

> <Gold.Chemscore.DEClash.Weighted>
0.0178

> <Gold.Chemscore.DEInternal.Weighted>
0.0241

> <Gold.Chemscore.Rot.Weighted>
4.9002

> <Gold.Chemscore.Internal.Correction.Weighted>
   9.000000E+99

> <Gold.Protein.RotatedTorsions>
[ 6907 6896 6895 6894 ] final   60.19 input  -60.11 | X-H torsion
[ 7974 7965 7964 7962 ] final  -59.51 input  175.53 | X-H torsion
[ 8008 7997 7996 7995 ] final -132.05 input   59.86 | X-H torsion
[ 10167 10162 10161 10158 ] final -157.02 input  -65.29 | X-H torsion
[ 10718 10713 10712 10709 ] final  -70.33 input   66.30 | X-H torsion
[ 10763 10752 10751 10750 ] final -166.11 input  -60.55 | X-H torsion
[ 11005 11000 10999 10996 ] final -105.42 input  -57.11 | X-H torsion

> <Gold.Protein.ActiveResidues>
 VAL166  LYS551  ARG553  GLY616  TRP617  ASP618  TYR619  PRO620  LYS621  CYS622 
 ASP623  PHE694  ASN695  SER759  ASP760  ASP761  ALA762  ILE779  LEU786  VAL792 
 PHE793  MET794  SER795  GLU796  ALA797  LYS798  CYS799  TRP800  GLU811  SER814 

> <Gold.Protein.RotatedAtoms>
  152.3981  134.6331  160.0080 H   0  0  0  0  0  0  0  0  0  0  0  0  # atno 6907 bound_to 6896
  151.6545  133.3314  159.3167 H   0  0  0  0  0  0  0  0  0  0  0  0  # atno 6908 bound_to 6896
  150.7886  134.6934  159.6554 H   0  0  0  0  0  0  0  0  0  0  0  0  # atno 6909 bound_to 6896
  145.8266  140.8506  143.0105 H   0  0  0  0  0  0  0  0  0  0  0  0  # atno 7974 bound_to 7965
  155.3224  140.0463  157.3040 H   0  0  0  0  0  0  0  0  0  0  0  0  # atno 8008 bound_to 7997
  154.5373  140.2276  155.8667 H   0  0  0  0  0  0  0  0  0  0  0  0  # atno 8009 bound_to 7997
  156.1847  140.3065  155.9221 H   0  0  0  0  0  0  0  0  0  0  0  0  # atno 8010 bound_to 7997
  139.6804  143.9591  152.2333 H   0  0  0  0  0  0  0  0  0  0  0  0  # atno 10167 bound_to 10162
  156.0413  130.4329  150.2280 H   0  0  0  0  0  0  0  0  0  0  0  0  # atno 10718 bound_to 10713
  154.6865  135.2963  154.9539 H   0  0  0  0  0  0  0  0  0  0  0  0  # atno 10763 bound_to 10752
  154.0517  135.6643  153.4805 H   0  0  0  0  0  0  0  0  0  0  0  0  # atno 10764 bound_to 10752
  153.0583  135.5131  154.7936 H   0  0  0  0  0  0  0  0  0  0  0  0  # atno 10765 bound_to 10752
  141.1054  133.8807  157.1732 H   0  0  0  0  0  0  0  0  0  0  0  0  # atno 11005 bound_to 11000
  144.6743  140.0611  143.7476 LP  0  0  0  0  0  0  0  0  0  0  0  0  # atno 17320 bound_to 7965
  145.9617  139.2805  143.1152 LP  0  0  0  0  0  0  0  0  0  0  0  0  # atno 17321 bound_to 7965
  139.9379  144.6700  150.8296 LP  0  0  0  0  0  0  0  0  0  0  0  0  # atno 17342 bound_to 10162
  140.7650  143.3264  151.2507 LP  0  0  0  0  0  0  0  0  0  0  0  0  # atno 17343 bound_to 10162
  157.0375  131.0025  151.3294 LP  0  0  0  0  0  0  0  0  0  0  0  0  # atno 17370 bound_to 10713
  157.5233  130.8012  149.7834 LP  0  0  0  0  0  0  0  0  0  0  0  0  # atno 17371 bound_to 10713
  139.9922  135.0060  157.0001 LP  0  0  0  0  0  0  0  0  0  0  0  0  # atno 17394 bound_to 11000
  140.4916  134.1188  155.7234 LP  0  0  0  0  0  0  0  0  0  0  0  0  # atno 17395 bound_to 11000

$$$$
