AV-unprocessed.smi:712|AV-procd|sdf|3470|dock10
  -GOLD-   22720 0463D 1   1.00000     0.00000
 Structure written by MMmdl.
 51 52  0  0  0  0  0  0  0  0  2 V2000
  152.9510  142.9054  162.1088 C   0  0  0  0  0  0  0  0  0  0  0  0
  152.4983  142.5933  160.6972 C   0  0  0  0  0  0  0  0  0  0  0  0
  151.5368  143.4411  160.0234 C   0  0  0  0  0  0  0  0  0  0  0  0
  151.1600  143.1358  158.7720 C   0  0  0  0  0  0  0  0  0  0  0  0
  151.6710  142.0138  158.0947 N   0  0  0  0  0  0  0  0  0  0  0  0
  151.1851  141.7729  156.7257 C   0  0  0  0  0  0  0  0  0  0  0  0
  150.6555  140.3468  156.5223 C   0  0  0  0  0  0  0  0  0  0  0  0
  151.3450  139.4960  155.9588 O   0  0  0  0  0  0  0  0  0  0  0  0
  149.4253  140.0997  156.9968 N   0  0  0  0  0  0  0  0  0  0  0  0
  148.7144  138.8323  156.8654 C   0  0  0  0  0  0  0  0  0  0  0  0
  147.7231  138.8609  155.6877 C   0  0  2  0  0  0  0  0  0  0  0  0
  147.9955  137.7188  154.6834 C   0  0  0  0  0  0  0  0  0  0  0  0
  147.1083  137.8047  153.4939 N   0  3  1  0  0  0  0  0  0  0  0  0
  145.7165  137.3237  153.7113 C   0  0  0  0  0  0  0  0  0  0  0  0
  144.8877  137.2554  152.4098 C   0  0  0  0  0  0  0  0  0  0  0  0
  143.4111  136.9252  152.6853 C   0  0  0  0  0  0  0  0  0  0  0  0
  145.4931  136.2308  151.4388 C   0  0  0  0  0  0  0  0  0  0  0  0
  147.1800  139.1580  152.8910 C   0  0  0  0  0  0  0  0  0  0  0  0
  146.9194  140.2490  153.9442 C   0  0  0  0  0  0  0  0  0  0  0  0
  147.8537  140.1044  155.0052 O   0  0  0  0  0  0  0  0  0  0  0  0
  152.5747  141.1685  158.6769 C   0  0  0  0  0  0  0  0  0  0  0  0
  153.0169  140.1784  158.0924 O   0  0  0  0  0  0  0  0  0  0  0  0
  152.9826  141.5142  160.0436 C   0  0  0  0  0  0  0  0  0  0  0  0
  152.5451  143.8574  162.4518 H   0  0  0  0  0  0  0  0  0  0  0  0
  154.0389  142.9634  162.1561 H   0  0  0  0  0  0  0  0  0  0  0  0
  152.6176  142.1258  162.7941 H   0  0  0  0  0  0  0  0  0  0  0  0
  151.1227  144.3070  160.5189 H   0  0  0  0  0  0  0  0  0  0  0  0
  150.4424  143.7227  158.2173 H   0  0  0  0  0  0  0  0  0  0  0  0
  150.3868  142.4704  156.4688 H   0  0  0  0  0  0  0  0  0  0  0  0
  151.9847  141.9754  156.0102 H   0  0  0  0  0  0  0  0  0  0  0  0
  148.9354  140.8532  157.4574 H   0  0  0  0  0  0  0  0  0  0  0  0
  149.4141  138.0008  156.7637 H   0  0  0  0  0  0  0  0  0  0  0  0
  148.1726  138.6652  157.7967 H   0  0  0  0  0  0  0  0  0  0  0  0
  146.7121  138.7730  156.0883 H   0  0  0  0  0  0  0  0  0  0  0  0
  149.0274  137.7859  154.3354 H   0  0  0  0  0  0  0  0  0  0  0  0
  147.9061  136.7489  155.1706 H   0  0  0  0  0  0  0  0  0  0  0  0
  145.7298  136.3519  154.2044 H   0  0  0  0  0  0  0  0  0  0  0  0
  145.2058  137.9991  154.3994 H   0  0  0  0  0  0  0  0  0  0  0  0
  144.9265  138.2213  151.9074 H   0  0  0  0  0  0  0  0  0  0  0  0
  143.3066  135.9630  153.1877 H   0  0  0  0  0  0  0  0  0  0  0  0
  142.8409  136.8779  151.7569 H   0  0  0  0  0  0  0  0  0  0  0  0
  142.9418  137.6823  153.3141 H   0  0  0  0  0  0  0  0  0  0  0  0
  145.4830  135.2260  151.8631 H   0  0  0  0  0  0  0  0  0  0  0  0
  146.5270  136.4797  151.1974 H   0  0  0  0  0  0  0  0  0  0  0  0
  144.9368  136.2009  150.5013 H   0  0  0  0  0  0  0  0  0  0  0  0
  148.1783  139.2942  152.4730 H   0  0  0  0  0  0  0  0  0  0  0  0
  146.4852  139.2485  152.0553 H   0  0  0  0  0  0  0  0  0  0  0  0
  147.0442  141.2364  153.4997 H   0  0  0  0  0  0  0  0  0  0  0  0
  145.8989  140.2003  154.3266 H   0  0  0  0  0  0  0  0  0  0  0  0
  153.6989  140.8768  160.5416 H   0  0  0  0  0  0  0  0  0  0  0  0
  147.4935  137.1774  152.8017 H   0  0  0  0  0  0  0  0  0  0  0  0
  1  2  1  0  0  0  0
  1 24  1  0  0  0  0
  1 25  1  0  0  0  0
  1 26  1  0  0  0  0
  2 23  2  0  0  0  0
  2  3  1  0  0  0  0
  3  4  2  0  0  0  0
  3 27  1  0  0  0  0
  4  5  1  0  0  0  0
  4 28  1  0  0  0  0
  5  6  1  0  0  0  0
  5 21  1  0  0  0  0
  6  7  1  0  0  0  0
  6 29  1  0  0  0  0
  6 30  1  0  0  0  0
  7  8  2  0  0  0  0
  7  9  1  0  0  0  0
  9 10  1  0  0  0  0
  9 31  1  0  0  0  0
 10 11  1  0  0  0  0
 10 32  1  0  0  0  0
 10 33  1  0  0  0  0
 11 20  1  0  0  0  0
 11 12  1  0  0  0  0
 11 34  1  0  0  0  0
 12 13  1  0  0  0  0
 12 35  1  0  0  0  0
 12 36  1  0  0  0  0
 13 14  1  0  0  0  0
 13 18  1  0  0  0  0
 13 51  1  0  0  0  0
 14 15  1  0  0  0  0
 14 37  1  0  0  0  0
 14 38  1  0  0  0  0
 15 16  1  0  0  0  0
 15 17  1  0  0  0  0
 15 39  1  0  0  0  0
 16 40  1  0  0  0  0
 16 41  1  0  0  0  0
 16 42  1  0  0  0  0
 17 43  1  0  0  0  0
 17 44  1  0  0  0  0
 17 45  1  0  0  0  0
 18 19  1  0  0  0  0
 18 46  1  0  0  0  0
 18 47  1  0  0  0  0
 19 20  1  0  0  0  0
 19 48  1  0  0  0  0
 19 49  1  0  0  0  0
 21 22  2  0  0  0  0
 21 23  1  0  0  0  0
 23 50  1  0  0  0  0
M  CHG  1  13   1
M  END
> <s_m_source_file>
AV-unprocessed.smi

> <i_m_source_file_index>
712

> <i_lp_mmshare_version>
43012

> <i_f3d_flags>
0

> <s_epik_input>
W0NIM11jMVtjSF1bY0hdbihjKD1PKVtjSF0xKVtDSDJdQyg9TylbTkhdW0NIMl1bQ0BASF0yW0NIMl1OKFtDSDJdW0NIMl1PMilbQ0gyXVtDSF0oW0NIM10pW0NIM10=

> <s_epik_cmdline>
J2VwaWtfcHl0aG9uJywgJy1waCcsICc3LjAnLCAnLXRuJywgJzgnLCAnLW1hJywgJzIwMCcsICctbWV0YWxfYmluZGluZycsICctaW1hZScsICc8aW5maWxlLm1hZT4nLCAnLW9tYWUnLCAnPG91dGZpbGUubWFlPic=

> <r_lp_tautomer_probability>
1

> <r_epik_Ionization_Penalty>
0.0975935

> <r_epik_Ionization_Penalty_Charging>
0.0975934

> <r_epik_Ionization_Penalty_Neutral>
6.27044e-08

> <r_epik_State_Penalty>
0.0877056

> <r_epik_Charging_Adjusted_Penalty>
0.185299

> <i_epik_Tot_Q>
1

> <i_epik_Tot_abs_Q>
1

> <r_epik_Metal_State_Penalty>
0.0877109

> <b_epik_Metal_Only>
0

> <s_lp_Force_Field>
OPLS_2005

> <r_lp_Energy>
30.0943

> <b_lp_Chiralities_Consistent>
1

> <s_lp_Variant>
AV-unprocessed.smi:712-3

> <Gold.Version>
5.8.1

> <Gold.Id.Protein>
6NUR|6NUR_protein|mol2

> <Gold.PLP.Fitness>
43.8527

> <Gold.PLP.PLP>
-37.3252

> <Gold.PLP.part.hbond>
-2.0000

> <Gold.PLP.part.metal>
0.0000

> <Gold.PLP.part.buried>
-4.1324

> <Gold.PLP.part.nonpolar>
-30.6709

> <Gold.PLP.part.repulsive>
0.0921

> <Gold.PLP.ligand.clash>
0.0000

> <Gold.PLP.ligand.torsion>
1.2454

> <Gold.PLP.Chemscore.Hbond>
2.9920

> <Gold.PLP.Chemscore.CHOScore>
0.0000

> <Gold.PLP.Chemscore.Metal>
0.0000

> <Gold.Chemscore.Hbonds>
donor molecule, donor type, donor heavy atom, donor atom, acceptor molecule, acceptor atom, score
      L1  H    13    51       P1  7948  2.00
      P1  H  7997  8008       L1    22  0.96

> <Gold.PLP.Chemscore.Internal.Correction>
0.0423

> <Gold.Rescore>
     Score         DG    S(hbond)    S(metal)    S(lipo)     H(rot)  DE(clash)    DE(int)     intcor
     13.73     -17.45       1.84        0.00      91.21       1.89       0.07       3.65       ----

> <Gold.Chemscore.Fitness>
13.7286

> <Gold.Chemscore.DG>
-17.4505

> <Gold.Chemscore.ZeroCoef>
-5.4800

> <Gold.Chemscore.Hbond>
1.8352

> <Gold.Chemscore.Metal>
0.0000

> <Gold.Chemscore.Lipo>
91.2109

> <Gold.Chemscore.Internal_Hbond>
0.0000

> <Gold.Chemscore.DEClash>
0.0727

> <Gold.Chemscore.DEInternal>
3.6491

> <Gold.Chemscore.Rot>
1.8871

> <Gold.Chemscore.Internal.Correction>
   9.000000E+99

> <Gold.Chemscore.Hbonds>
donor molecule, donor type, donor heavy atom, donor atom, acceptor molecule, acceptor atom, score
      L1  H    13    51       P1  7948  0.96
      P1  H  7997  8008       L1    22  0.92

> <Gold.Chemscore.Hbond.Weighted>
-6.1297

> <Gold.Chemscore.Metal.Weighted>
-0.0000

> <Gold.Chemscore.Lipo.Weighted>
-10.6717

> <Gold.Chemscore.Internal_Hbond.Weighted>
0.0000

> <Gold.Chemscore.DEClash.Weighted>
0.0727

> <Gold.Chemscore.DEInternal.Weighted>
3.6491

> <Gold.Chemscore.Rot.Weighted>
4.8309

> <Gold.Chemscore.Internal.Correction.Weighted>
   9.000000E+99

> <Gold.Protein.RotatedTorsions>
[ 6907 6896 6895 6894 ] final  -54.29 input  -60.11 | X-H torsion
[ 7974 7965 7964 7962 ] final   51.40 input  175.53 | X-H torsion
[ 8008 7997 7996 7995 ] final  -87.04 input   59.86 | X-H torsion
[ 10167 10162 10161 10158 ] final  162.00 input  -65.29 | X-H torsion
[ 10718 10713 10712 10709 ] final  -50.07 input   66.30 | X-H torsion
[ 10763 10752 10751 10750 ] final -151.93 input  -60.55 | X-H torsion
[ 11005 11000 10999 10996 ] final  -19.90 input  -57.11 | X-H torsion

> <Gold.Protein.ActiveResidues>
 VAL166  LYS551  ARG553  GLY616  TRP617  ASP618  TYR619  PRO620  LYS621  CYS622 
 ASP623  PHE694  ASN695  SER759  ASP760  ASP761  ALA762  ILE779  LEU786  VAL792 
 PHE793  MET794  SER795  GLU796  ALA797  LYS798  CYS799  TRP800  GLU811  SER814 

> <Gold.Protein.RotatedAtoms>
  150.8351  134.7621  159.6885 H   0  0  0  0  0  0  0  0  0  0  0  0  # atno 6907 bound_to 6896
  152.4449  134.5512  159.9877 H   0  0  0  0  0  0  0  0  0  0  0  0  # atno 6908 bound_to 6896
  151.5664  133.3358  159.3017 H   0  0  0  0  0  0  0  0  0  0  0  0  # atno 6909 bound_to 6896
  145.9917  139.4345  143.0070 H   0  0  0  0  0  0  0  0  0  0  0  0  # atno 7974 bound_to 7965
  154.6587  140.0571  157.0038 H   0  0  0  0  0  0  0  0  0  0  0  0  # atno 8008 bound_to 7997
  155.1261  140.3252  155.4467 H   0  0  0  0  0  0  0  0  0  0  0  0  # atno 8009 bound_to 7997
  156.2608  140.1989  156.6382 H   0  0  0  0  0  0  0  0  0  0  0  0  # atno 8010 bound_to 7997
  139.4855  144.4481  151.8865 H   0  0  0  0  0  0  0  0  0  0  0  0  # atno 10167 bound_to 10162
  156.1834  130.4151  149.9474 H   0  0  0  0  0  0  0  0  0  0  0  0  # atno 10718 bound_to 10713
  154.8027  135.3248  154.7511 H   0  0  0  0  0  0  0  0  0  0  0  0  # atno 10763 bound_to 10752
  153.8175  135.6890  153.4836 H   0  0  0  0  0  0  0  0  0  0  0  0  # atno 10764 bound_to 10752
  153.1752  135.4607  154.9900 H   0  0  0  0  0  0  0  0  0  0  0  0  # atno 10765 bound_to 10752
  140.8412  133.7925  155.9862 H   0  0  0  0  0  0  0  0  0  0  0  0  # atno 11005 bound_to 11000
  145.7620  140.9931  143.1194 LP  0  0  0  0  0  0  0  0  0  0  0  0  # atno 17320 bound_to 7965
  144.6891  139.9342  143.7473 LP  0  0  0  0  0  0  0  0  0  0  0  0  # atno 17321 bound_to 7965
  140.3936  144.2583  150.5898 LP  0  0  0  0  0  0  0  0  0  0  0  0  # atno 17342 bound_to 10162
  140.5123  143.2287  151.8517 LP  0  0  0  0  0  0  0  0  0  0  0  0  # atno 17343 bound_to 10162
  156.7237  130.9016  151.3620 LP  0  0  0  0  0  0  0  0  0  0  0  0  # atno 17370 bound_to 10713
  157.6883  130.9208  150.0445 LP  0  0  0  0  0  0  0  0  0  0  0  0  # atno 17371 bound_to 10713
  140.8893  134.2515  157.5103 LP  0  0  0  0  0  0  0  0  0  0  0  0  # atno 17394 bound_to 11000
  139.8703  134.9654  156.4526 LP  0  0  0  0  0  0  0  0  0  0  0  0  # atno 17395 bound_to 11000

$$$$
