AV-unprocessed.smi:657|AV-procd|sdf|3229|dock1
  -GOLD-   22720 0173D 1   1.00000     0.00000
 Structure written by MMmdl.
 46 47  0  0  0  0  0  0  0  0  3 V2000
  145.2564  135.0172  150.6070 C   0  0  0  0  0  0  0  0  0  0  0  0
  145.2879  135.2735  152.1234 C   0  0  0  0  0  0  0  0  0  0  0  0
  143.8676  135.3334  152.7195 C   0  0  0  0  0  0  0  0  0  0  0  0
  146.1382  136.4611  152.4742 N   0  3  1  0  0  0  0  0  0  0  0  0
  145.7884  137.6856  151.6947 C   0  0  0  0  0  0  0  0  0  0  0  0
  146.7994  138.8178  151.9178 C   0  0  0  0  0  0  0  0  0  0  0  0
  146.8767  139.1739  153.4024 C   0  0  0  0  0  0  0  0  0  0  0  0
  147.2471  137.9219  154.2007 C   0  0  0  0  0  0  0  0  0  0  0  0
  146.2663  136.7511  153.9431 C   0  0  2  0  0  0  0  0  0  0  0  0
  146.7624  135.5358  154.7531 C   0  0  0  0  0  0  0  0  0  0  0  0
  147.1045  134.5212  154.1350 O   0  0  0  0  0  0  0  0  0  0  0  0
  146.7225  135.7823  156.0916 N   0  5  0  0  0  0  0  0  0  0  0  0
  146.9258  134.7569  157.1159 C   0  0  0  0  0  0  0  0  0  0  0  0
  148.2416  135.0052  157.8884 C   0  0  0  0  0  0  0  0  0  0  0  0
  148.0603  135.5735  159.2809 C   0  0  0  0  0  0  0  0  0  0  0  0
  148.1726  136.9398  159.6684 C   0  0  0  0  0  0  0  0  0  0  0  0
  147.9476  137.1349  160.9576 N   0  0  0  0  0  0  0  0  0  0  0  0
  147.6945  135.9028  161.4424 N   0  0  0  0  0  0  0  0  0  0  0  0
  147.3939  135.7365  162.8477 C   0  0  0  0  0  0  0  0  0  0  0  0
  147.7707  134.9398  160.4600 C   0  0  0  0  0  0  0  0  0  0  0  0
  144.7898  134.0552  150.3921 H   0  0  0  0  0  0  0  0  0  0  0  0
  146.2643  134.9882  150.1924 H   0  0  0  0  0  0  0  0  0  0  0  0
  144.6885  135.7742  150.0674 H   0  0  0  0  0  0  0  0  0  0  0  0
  145.7575  134.3785  152.5246 H   0  0  0  0  0  0  0  0  0  0  0  0
  143.3215  134.4163  152.4985 H   0  0  0  0  0  0  0  0  0  0  0  0
  143.2822  136.1568  152.3112 H   0  0  0  0  0  0  0  0  0  0  0  0
  143.8904  135.4364  153.8041 H   0  0  0  0  0  0  0  0  0  0  0  0
  145.7525  137.4680  150.6287 H   0  0  0  0  0  0  0  0  0  0  0  0
  144.7959  138.0361  151.9793 H   0  0  0  0  0  0  0  0  0  0  0  0
  147.7826  138.5163  151.5535 H   0  0  0  0  0  0  0  0  0  0  0  0
  146.5086  139.6958  151.3404 H   0  0  0  0  0  0  0  0  0  0  0  0
  147.6156  139.9588  153.5659 H   0  0  0  0  0  0  0  0  0  0  0  0
  145.9183  139.5660  153.7452 H   0  0  0  0  0  0  0  0  0  0  0  0
  148.2643  137.6272  153.9371 H   0  0  0  0  0  0  0  0  0  0  0  0
  147.2664  138.1664  155.2640 H   0  0  0  0  0  0  0  0  0  0  0  0
  145.2818  137.0634  154.2979 H   0  0  0  0  0  0  0  0  0  0  0  0
  146.1031  134.7033  157.8305 H   0  0  0  0  0  0  0  0  0  0  0  0
  146.9733  133.7665  156.6632 H   0  0  0  0  0  0  0  0  0  0  0  0
  148.7862  134.0625  157.9445 H   0  0  0  0  0  0  0  0  0  0  0  0
  148.8764  135.6627  157.2930 H   0  0  0  0  0  0  0  0  0  0  0  0
  148.3983  137.7945  159.0480 H   0  0  0  0  0  0  0  0  0  0  0  0
  147.0177  134.7298  163.0316 H   0  0  0  0  0  0  0  0  0  0  0  0
  146.6355  136.4580  163.1532 H   0  0  0  0  0  0  0  0  0  0  0  0
  148.2974  135.8925  163.4376 H   0  0  0  0  0  0  0  0  0  0  0  0
  147.5986  133.8950  160.6723 H   0  0  0  0  0  0  0  0  0  0  0  0
  147.0716  136.2053  152.1863 H   0  0  0  0  0  0  0  0  0  0  0  0
  1  2  1  0  0  0  0
  1 21  1  0  0  0  0
  1 22  1  0  0  0  0
  1 23  1  0  0  0  0
  2  3  1  0  0  0  0
  2  4  1  0  0  0  0
  2 24  1  0  0  0  0
  3 25  1  0  0  0  0
  3 26  1  0  0  0  0
  3 27  1  0  0  0  0
  4  9  1  0  0  0  0
  4  5  1  0  0  0  0
  4 46  1  0  0  0  0
  5  6  1  0  0  0  0
  5 28  1  0  0  0  0
  5 29  1  0  0  0  0
  6  7  1  0  0  0  0
  6 30  1  0  0  0  0
  6 31  1  0  0  0  0
  7  8  1  0  0  0  0
  7 32  1  0  0  0  0
  7 33  1  0  0  0  0
  8  9  1  0  0  0  0
  8 34  1  0  0  0  0
  8 35  1  0  0  0  0
  9 10  1  0  0  0  0
  9 36  1  0  0  0  0
 10 11  2  0  0  0  0
 10 12  1  0  0  0  0
 12 13  1  0  0  0  0
 13 14  1  0  0  0  0
 13 37  1  0  0  0  0
 13 38  1  0  0  0  0
 14 15  1  0  0  0  0
 14 39  1  0  0  0  0
 14 40  1  0  0  0  0
 15 20  2  0  0  0  0
 15 16  1  0  0  0  0
 16 17  2  0  0  0  0
 16 41  1  0  0  0  0
 17 18  1  0  0  0  0
 18 19  1  0  0  0  0
 18 20  1  0  0  0  0
 19 42  1  0  0  0  0
 19 43  1  0  0  0  0
 19 44  1  0  0  0  0
 20 45  1  0  0  0  0
M  CHG  1   4   1
M  CHG  1  12  -1
M  END
> <s_m_source_file>
AV-unprocessed.smi

> <i_m_source_file_index>
657

> <i_lp_mmshare_version>
43012

> <i_f3d_flags>
0

> <s_epik_input>
W0NIM11bQ0hdKFtDSDNdKU4xW0NIMl1bQ0gyXVtDSDJdW0NIMl1bQ0BIXTFDKD1PKVtOSF1bQ0gyXVtDSDJdYzJbY0hdbm4oW0NIM10pW2NIXTI=

> <s_epik_cmdline>
J2VwaWtfcHl0aG9uJywgJy1waCcsICc3LjAnLCAnLXRuJywgJzgnLCAnLW1hJywgJzIwMCcsICctbWV0YWxfYmluZGluZycsICctaW1hZScsICc8aW5maWxlLm1hZT4nLCAnLW9tYWUnLCAnPG91dGZpbGUubWFlPic=

> <r_lp_tautomer_probability>
1

> <r_epik_Ionization_Penalty>
6.1622

> <r_epik_Ionization_Penalty_Charging>
6.16146

> <r_epik_Ionization_Penalty_Neutral>
0.00073675

> <r_epik_State_Penalty>
6.18018

> <r_epik_Charging_Adjusted_Penalty>
12.3416

> <i_epik_Tot_Q>
0

> <i_epik_Tot_abs_Q>
2

> <r_epik_Metal_State_Penalty>
2.12232

> <b_epik_Metal_Only>
1

> <s_lp_Force_Field>
OPLS_2005

> <r_lp_Energy>
9.74682

> <b_lp_Chiralities_Consistent>
1

> <s_lp_Variant>
AV-unprocessed.smi:657-10

> <Gold.Version>
5.8.1

> <Gold.Id.Protein>
6NUR|6NUR_protein|mol2

> <Gold.PLP.Fitness>
38.6793

> <Gold.PLP.PLP>
-28.9082

> <Gold.PLP.part.hbond>
-3.0000

> <Gold.PLP.part.metal>
0.0000

> <Gold.PLP.part.buried>
0.5656

> <Gold.PLP.part.nonpolar>
-27.2867

> <Gold.PLP.part.repulsive>
0.1155

> <Gold.PLP.ligand.clash>
0.0000

> <Gold.PLP.ligand.torsion>
0.8175

> <Gold.PLP.Chemscore.Hbond>
3.7280

> <Gold.PLP.Chemscore.CHOScore>
0.0000

> <Gold.PLP.Chemscore.Metal>
0.0000

> <Gold.Chemscore.Hbonds>
donor molecule, donor type, donor heavy atom, donor atom, acceptor molecule, acceptor atom, score
      L1  H     4    46       P1  7948  2.00
      P1  H  6931  6943       L1    17  0.94
      P1  H  6934  6947       L1    17  0.78

> <Gold.PLP.Chemscore.Internal.Correction>
0.2220

> <Gold.Rescore>
     Score         DG    S(hbond)    S(metal)    S(lipo)     H(rot)  DE(clash)    DE(int)     intcor
     13.23     -16.47       2.09        0.00      68.76       1.57       1.12       2.13       ----

> <Gold.Chemscore.Fitness>
13.2273

> <Gold.Chemscore.DG>
-16.4721

> <Gold.Chemscore.ZeroCoef>
-5.4800

> <Gold.Chemscore.Hbond>
2.0889

> <Gold.Chemscore.Metal>
0.0000

> <Gold.Chemscore.Lipo>
68.7595

> <Gold.Chemscore.Internal_Hbond>
0.0000

> <Gold.Chemscore.DEClash>
1.1170

> <Gold.Chemscore.DEInternal>
2.1278

> <Gold.Chemscore.Rot>
1.5741

> <Gold.Chemscore.Internal.Correction>
   9.000000E+99

> <Gold.Chemscore.Hbonds>
donor molecule, donor type, donor heavy atom, donor atom, acceptor molecule, acceptor atom, score
      L1  H     4    46       P1  7948  1.00
      P1  H  6931  6943       L1    17  0.85
      P1  H  6934  6947       L1    17  0.22

> <Gold.Chemscore.Hbond.Weighted>
-6.9769

> <Gold.Chemscore.Metal.Weighted>
-0.0000

> <Gold.Chemscore.Lipo.Weighted>
-8.0449

> <Gold.Chemscore.Internal_Hbond.Weighted>
0.0000

> <Gold.Chemscore.DEClash.Weighted>
1.1170

> <Gold.Chemscore.DEInternal.Weighted>
2.1278

> <Gold.Chemscore.Rot.Weighted>
4.0297

> <Gold.Chemscore.Internal.Correction.Weighted>
   9.000000E+99

> <Gold.Protein.RotatedTorsions>
[ 6907 6896 6895 6894 ] final   -2.63 input  -60.11 | X-H torsion
[ 7974 7965 7964 7962 ] final  -96.90 input  175.53 | X-H torsion
[ 8008 7997 7996 7995 ] final  -80.66 input   59.86 | X-H torsion
[ 10167 10162 10161 10158 ] final  -21.54 input  -65.29 | X-H torsion
[ 10718 10713 10712 10709 ] final -165.84 input   66.30 | X-H torsion
[ 10763 10752 10751 10750 ] final   46.11 input  -60.55 | X-H torsion
[ 11005 11000 10999 10996 ] final  -16.01 input  -57.11 | X-H torsion

> <Gold.Protein.ActiveResidues>
 VAL166  LYS551  ARG553  GLY616  TRP617  ASP618  TYR619  PRO620  LYS621  CYS622 
 ASP623  PHE694  ASN695  SER759  ASP760  ASP761  ALA762  ILE779  LEU786  VAL792 
 PHE793  MET794  SER795  GLU796  ALA797  LYS798  CYS799  TRP800  GLU811  SER814 

> <Gold.Protein.RotatedAtoms>
  151.5268  135.1068  159.9892 H   0  0  0  0  0  0  0  0  0  0  0  0  # atno 6907 bound_to 6896
  152.4596  133.7791  159.6851 H   0  0  0  0  0  0  0  0  0  0  0  0  # atno 6908 bound_to 6896
  150.8553  133.7660  159.3036 H   0  0  0  0  0  0  0  0  0  0  0  0  # atno 6909 bound_to 6896
  145.3408  140.9459  143.2609 H   0  0  0  0  0  0  0  0  0  0  0  0  # atno 7974 bound_to 7965
  154.5906  140.0659  156.9233 H   0  0  0  0  0  0  0  0  0  0  0  0  # atno 8008 bound_to 7997
  155.2303  140.3337  155.4286 H   0  0  0  0  0  0  0  0  0  0  0  0  # atno 8009 bound_to 7997
  156.2253  140.1816  156.7363 H   0  0  0  0  0  0  0  0  0  0  0  0  # atno 8010 bound_to 7997
  140.7282  143.4619  151.0368 H   0  0  0  0  0  0  0  0  0  0  0  0  # atno 10167 bound_to 10162
  156.6593  130.9039  151.3026 H   0  0  0  0  0  0  0  0  0  0  0  0  # atno 10718 bound_to 10713
  152.9815  135.6018  154.3546 H   0  0  0  0  0  0  0  0  0  0  0  0  # atno 10763 bound_to 10752
  154.3232  135.2769  155.2511 H   0  0  0  0  0  0  0  0  0  0  0  0  # atno 10764 bound_to 10752
  154.4668  135.5952  153.6349 H   0  0  0  0  0  0  0  0  0  0  0  0  # atno 10765 bound_to 10752
  140.8024  133.8203  155.9483 H   0  0  0  0  0  0  0  0  0  0  0  0  # atno 11005 bound_to 11000
  144.8792  139.4928  143.6731 LP  0  0  0  0  0  0  0  0  0  0  0  0  # atno 17320 bound_to 7965
  146.3008  139.7421  142.9093 LP  0  0  0  0  0  0  0  0  0  0  0  0  # atno 17321 bound_to 7965
  139.8304  143.7699  152.3179 LP  0  0  0  0  0  0  0  0  0  0  0  0  # atno 17342 bound_to 10162
  139.7813  144.7443  151.0085 LP  0  0  0  0  0  0  0  0  0  0  0  0  # atno 17343 bound_to 10162
  157.7115  130.9446  150.1106 LP  0  0  0  0  0  0  0  0  0  0  0  0  # atno 17370 bound_to 10713
  156.2024  130.3661  149.8772 LP  0  0  0  0  0  0  0  0  0  0  0  0  # atno 17371 bound_to 10713
  140.9281  134.2057  157.4882 LP  0  0  0  0  0  0  0  0  0  0  0  0  # atno 17394 bound_to 11000
  139.8720  134.9821  156.5143 LP  0  0  0  0  0  0  0  0  0  0  0  0  # atno 17395 bound_to 11000

$$$$
