AV-unprocessed.smi:1619|AV-procd|sdf|6489|dock10
  -GOLD-   22720 7153D 1   1.00000     0.00000
 Structure written by MMmdl.
 45 47  0  0  0  0  0  0  0  0  3 V2000
  151.8368  144.2955  160.8571 C   0  0  0  0  0  0  0  0  0  0  0  0
  151.7757  143.3007  159.7102 C   0  0  0  0  0  0  0  0  0  0  0  0
  150.9060  143.5705  158.6292 C   0  0  0  0  0  0  0  0  0  0  0  0
  150.8751  142.6441  157.5936 C   0  0  0  0  0  0  0  0  0  0  0  0
  150.1392  142.6213  156.4069 N   0  3  0  0  0  0  0  0  0  0  0  0
  150.4496  141.4987  155.7008 C   0  0  0  0  0  0  0  0  0  0  0  0
  151.3754  140.8055  156.4188 N   0  0  0  0  0  0  0  0  0  0  0  0
  152.0474  139.5334  156.1200 C   0  0  0  0  0  0  0  0  0  0  0  0
  151.0628  138.3589  155.9531 C   0  0  2  0  0  0  0  0  0  0  0  0
  151.4854  137.2792  156.7642 O   0  0  0  0  0  0  0  0  0  0  0  0
  150.9777  137.8853  154.4890 C   0  0  0  0  0  0  0  0  0  0  0  0
  150.0149  136.7721  154.3044 N   0  3  0  0  0  0  0  0  0  0  0  0
  150.5382  135.4227  154.5991 C   0  0  0  0  0  0  0  0  0  0  0  0
  149.3072  134.5415  154.8350 C   0  0  0  0  0  0  0  0  0  0  0  0
  148.1529  135.5108  155.1175 C   0  0  0  0  0  0  0  0  0  0  0  0
  148.7813  136.9058  155.1008 C   0  0  0  0  0  0  0  0  0  0  0  0
  151.6690  141.4810  157.6081 C   0  0  0  0  0  0  0  0  0  0  0  0
  152.5295  141.1983  158.6659 C   0  0  0  0  0  0  0  0  0  0  0  0
  152.5776  142.1300  159.7277 C   0  0  0  0  0  0  0  0  0  0  0  0
  153.5109  141.8517  160.8938 C   0  0  0  0  0  0  0  0  0  0  0  0
  151.1357  145.1177  160.7096 H   0  0  0  0  0  0  0  0  0  0  0  0
  152.8371  144.7208  160.9409 H   0  0  0  0  0  0  0  0  0  0  0  0
  151.5860  143.8107  161.8009 H   0  0  0  0  0  0  0  0  0  0  0  0
  150.2927  144.4597  158.6091 H   0  0  0  0  0  0  0  0  0  0  0  0
  150.0383  141.2135  154.7432 H   0  0  0  0  0  0  0  0  0  0  0  0
  152.6513  139.6683  155.2217 H   0  0  0  0  0  0  0  0  0  0  0  0
  152.7451  139.3323  156.9342 H   0  0  0  0  0  0  0  0  0  0  0  0
  150.0784  138.6763  156.2966 H   0  0  0  0  0  0  0  0  0  0  0  0
  150.9455  137.2520  157.5397 H   0  0  0  0  0  0  0  0  0  0  0  0
  150.6926  138.7151  153.8403 H   0  0  0  0  0  0  0  0  0  0  0  0
  151.9646  137.5596  154.1560 H   0  0  0  0  0  0  0  0  0  0  0  0
  151.1647  135.0439  153.7910 H   0  0  0  0  0  0  0  0  0  0  0  0
  151.1422  135.4542  155.5076 H   0  0  0  0  0  0  0  0  0  0  0  0
  149.0851  133.9497  153.9460 H   0  0  0  0  0  0  0  0  0  0  0  0
  149.4698  133.8466  155.6596 H   0  0  0  0  0  0  0  0  0  0  0  0
  147.4017  135.4280  154.3311 H   0  0  0  0  0  0  0  0  0  0  0  0
  147.6594  135.3019  156.0673 H   0  0  0  0  0  0  0  0  0  0  0  0
  149.0375  137.2030  156.1192 H   0  0  0  0  0  0  0  0  0  0  0  0
  148.1122  137.6611  154.6870 H   0  0  0  0  0  0  0  0  0  0  0  0
  153.1386  140.3068  158.6798 H   0  0  0  0  0  0  0  0  0  0  0  0
  154.0725  140.9292  160.7448 H   0  0  0  0  0  0  0  0  0  0  0  0
  152.9461  141.7516  161.8208 H   0  0  0  0  0  0  0  0  0  0  0  0
  154.2292  142.6633  161.0113 H   0  0  0  0  0  0  0  0  0  0  0  0
  149.7298  136.7713  153.3351 H   0  0  0  0  0  0  0  0  0  0  0  0
  149.4741  143.3194  156.0990 H   0  0  0  0  0  0  0  0  0  0  0  0
  1  2  1  0  0  0  0
  1 21  1  0  0  0  0
  1 22  1  0  0  0  0
  1 23  1  0  0  0  0
  2 19  1  0  0  0  0
  2  3  2  0  0  0  0
  3  4  1  0  0  0  0
  3 24  1  0  0  0  0
  4 17  2  0  0  0  0
  4  5  1  0  0  0  0
  5  6  2  0  0  0  0
  5 45  1  0  0  0  0
  6  7  1  0  0  0  0
  6 25  1  0  0  0  0
  7  8  1  0  0  0  0
  7 17  1  0  0  0  0
  8  9  1  0  0  0  0
  8 26  1  0  0  0  0
  8 27  1  0  0  0  0
  9 10  1  0  0  0  0
  9 11  1  0  0  0  0
  9 28  1  0  0  0  0
 10 29  1  0  0  0  0
 11 12  1  0  0  0  0
 11 30  1  0  0  0  0
 11 31  1  0  0  0  0
 12 16  1  0  0  0  0
 12 13  1  0  0  0  0
 12 44  1  0  0  0  0
 13 14  1  0  0  0  0
 13 32  1  0  0  0  0
 13 33  1  0  0  0  0
 14 15  1  0  0  0  0
 14 34  1  0  0  0  0
 14 35  1  0  0  0  0
 15 16  1  0  0  0  0
 15 36  1  0  0  0  0
 15 37  1  0  0  0  0
 16 38  1  0  0  0  0
 16 39  1  0  0  0  0
 17 18  1  0  0  0  0
 18 19  2  0  0  0  0
 18 40  1  0  0  0  0
 19 20  1  0  0  0  0
 20 41  1  0  0  0  0
 20 42  1  0  0  0  0
 20 43  1  0  0  0  0
M  CHG  1   5   1
M  CHG  1  12   1
M  END
> <s_m_source_file>
AV-unprocessed.smi

> <i_m_source_file_index>
1619

> <i_lp_mmshare_version>
43012

> <i_f3d_flags>
0

> <s_epik_input>
W0NIM11jKFtjSF0xKWMoW0NIM10pW2NIXWMoYzEyKW4oW2NIXW4yKVtDSDJdW0NASF0oW09IXSlbQ0gyXU4zW0NIMl1bQ0gyXVtDSDJdW0NIMl0z

> <s_epik_cmdline>
J2VwaWtfcHl0aG9uJywgJy1waCcsICc3LjAnLCAnLXRuJywgJzgnLCAnLW1hJywgJzIwMCcsICctbWV0YWxfYmluZGluZycsICctaW1hZScsICc8aW5maWxlLm1hZT4nLCAnLW9tYWUnLCAnPG91dGZpbGUubWFlPic=

> <r_epik_Ionization_Penalty>
1.18067

> <r_epik_Ionization_Penalty_Charging>
1.18067

> <r_epik_Ionization_Penalty_Neutral>
1.08888e-06

> <r_epik_State_Penalty>
1.26407

> <r_epik_Charging_Adjusted_Penalty>
2.44473

> <i_epik_Tot_Q>
2

> <i_epik_Tot_abs_Q>
2

> <r_epik_Metal_State_Penalty>
5.27628

> <b_epik_Metal_Only>
0

> <s_lp_Force_Field>
OPLS_2005

> <r_lp_Energy>
41.212

> <b_lp_Chiralities_Consistent>
1

> <s_lp_Variant>
AV-unprocessed.smi:1619-3

> <Gold.Version>
5.8.1

> <Gold.Id.Protein>
6NUR|6NUR_protein|mol2

> <Gold.PLP.Fitness>
51.2758

> <Gold.PLP.PLP>
-41.1167

> <Gold.PLP.part.hbond>
-2.2630

> <Gold.PLP.part.metal>
0.0000

> <Gold.PLP.part.buried>
-5.2853

> <Gold.PLP.part.nonpolar>
-33.6951

> <Gold.PLP.part.repulsive>
0.1228

> <Gold.PLP.ligand.clash>
0.0000

> <Gold.PLP.ligand.torsion>
0.9257

> <Gold.PLP.Chemscore.Hbond>
4.0000

> <Gold.PLP.Chemscore.CHOScore>
0.0000

> <Gold.PLP.Chemscore.Metal>
0.0000

> <Gold.Chemscore.Hbonds>
donor molecule, donor type, donor heavy atom, donor atom, acceptor molecule, acceptor atom, score
      L1  H     5    45       P1  8028  2.00
      L1  H    12    44       P1  7948  2.00

> <Gold.PLP.Chemscore.Internal.Correction>
0.0105

> <Gold.Rescore>
     Score         DG    S(hbond)    S(metal)    S(lipo)     H(rot)  DE(clash)    DE(int)     intcor
     18.51     -19.60       1.93        0.00     111.02       2.08       0.03       1.06       ----

> <Gold.Chemscore.Fitness>
18.5104

> <Gold.Chemscore.DG>
-19.6033

> <Gold.Chemscore.ZeroCoef>
-5.4800

> <Gold.Chemscore.Hbond>
1.9345

> <Gold.Chemscore.Metal>
0.0000

> <Gold.Chemscore.Lipo>
111.0210

> <Gold.Chemscore.Internal_Hbond>
0.0000

> <Gold.Chemscore.DEClash>
0.0318

> <Gold.Chemscore.DEInternal>
1.0611

> <Gold.Chemscore.Rot>
2.0811

> <Gold.Chemscore.Internal.Correction>
   9.000000E+99

> <Gold.Chemscore.Hbonds>
donor molecule, donor type, donor heavy atom, donor atom, acceptor molecule, acceptor atom, score
      L1  H     5    45       P1  8028  0.97
      L1  H    12    44       P1  7948  0.45

> <Gold.Chemscore.Hbond.Weighted>
-6.4613

> <Gold.Chemscore.Metal.Weighted>
-0.0000

> <Gold.Chemscore.Lipo.Weighted>
-12.9895

> <Gold.Chemscore.Internal_Hbond.Weighted>
0.0000

> <Gold.Chemscore.DEClash.Weighted>
0.0318

> <Gold.Chemscore.DEInternal.Weighted>
1.0611

> <Gold.Chemscore.Rot.Weighted>
5.3275

> <Gold.Chemscore.Internal.Correction.Weighted>
   9.000000E+99

> <Gold.Protein.RotatedTorsions>
[ 6907 6896 6895 6894 ] final   38.92 input  -60.11 | X-H torsion
[ 7974 7965 7964 7962 ] final  -43.25 input  175.53 | X-H torsion
[ 8008 7997 7996 7995 ] final   30.75 input   59.86 | X-H torsion
[ 10167 10162 10161 10158 ] final   -4.50 input  -65.29 | X-H torsion
[ 10718 10713 10712 10709 ] final  144.83 input   66.30 | X-H torsion
[ 10763 10752 10751 10750 ] final  -34.81 input  -60.55 | X-H torsion
[ 11005 11000 10999 10996 ] final  130.91 input  -57.11 | X-H torsion

> <Gold.Protein.ActiveResidues>
 VAL166  LYS551  ARG553  GLY616  TRP617  ASP618  TYR619  PRO620  LYS621  CYS622 
 ASP623  PHE694  ASN695  SER759  ASP760  ASP761  ALA762  ILE779  LEU786  VAL792 
 PHE793  MET794  SER795  GLU796  ALA797  LYS798  CYS799  TRP800  GLU811  SER814 

> <Gold.Protein.RotatedAtoms>
  152.1628  134.8898  160.0540 H   0  0  0  0  0  0  0  0  0  0  0  0  # atno 6907 bound_to 6896
  151.9887  133.3778  159.4144 H   0  0  0  0  0  0  0  0  0  0  0  0  # atno 6908 bound_to 6896
  150.6890  134.3883  159.5108 H   0  0  0  0  0  0  0  0  0  0  0  0  # atno 6909 bound_to 6896
  146.0037  140.7045  142.9258 H   0  0  0  0  0  0  0  0  0  0  0  0  # atno 7974 bound_to 7965
  155.0954  140.3224  155.4562 H   0  0  0  0  0  0  0  0  0  0  0  0  # atno 8008 bound_to 7997
  156.2731  140.2070  156.6027 H   0  0  0  0  0  0  0  0  0  0  0  0  # atno 8009 bound_to 7997
  154.6871  140.0520  157.0312 H   0  0  0  0  0  0  0  0  0  0  0  0  # atno 8010 bound_to 7997
  140.6929  143.6417  150.8430 H   0  0  0  0  0  0  0  0  0  0  0  0  # atno 10167 bound_to 10162
  157.3526  131.0953  151.0987 H   0  0  0  0  0  0  0  0  0  0  0  0  # atno 10718 bound_to 10713
  153.8529  135.6847  153.4790 H   0  0  0  0  0  0  0  0  0  0  0  0  # atno 10763 bound_to 10752
  153.1386  135.4667  154.9459 H   0  0  0  0  0  0  0  0  0  0  0  0  # atno 10764 bound_to 10752
  154.7794  135.3264  154.7971 H   0  0  0  0  0  0  0  0  0  0  0  0  # atno 10765 bound_to 10752
  139.9699  134.9580  156.9362 H   0  0  0  0  0  0  0  0  0  0  0  0  # atno 11005 bound_to 11000
  144.6928  140.3277  143.7221 LP  0  0  0  0  0  0  0  0  0  0  0  0  # atno 17320 bound_to 7965
  145.7449  139.1775  143.2355 LP  0  0  0  0  0  0  0  0  0  0  0  0  # atno 17321 bound_to 7965
  140.0132  143.5621  152.2831 LP  0  0  0  0  0  0  0  0  0  0  0  0  # atno 17342 bound_to 10162
  139.6352  144.7649  151.2453 LP  0  0  0  0  0  0  0  0  0  0  0  0  # atno 17343 bound_to 10162
  157.2157  130.6458  149.5791 LP  0  0  0  0  0  0  0  0  0  0  0  0  # atno 17370 bound_to 10713
  155.9724  130.4645  150.6221 LP  0  0  0  0  0  0  0  0  0  0  0  0  # atno 17371 bound_to 10713
  140.5315  134.0808  155.7317 LP  0  0  0  0  0  0  0  0  0  0  0  0  # atno 17394 bound_to 11000
  141.1379  133.9189  157.2392 LP  0  0  0  0  0  0  0  0  0  0  0  0  # atno 17395 bound_to 11000

$$$$
