AV-unprocessed.smi:1328|AV-procd|sdf|5481|dock3
  -GOLD-   22720 5 53D 1   1.00000     0.00000
 Structure written by MMmdl.
 38 39  0  0  0  0  0  0  0  0  1 V2000
  145.7802  143.8074  153.4352 C   0  0  0  0  0  0  0  0  0  0  0  0
  146.0057  142.9214  154.6267 C   0  0  0  0  0  0  0  0  0  0  0  0
  145.0948  142.8654  155.5840 N   0  0  0  0  0  0  0  0  0  0  0  0
  145.5941  141.9708  156.5356 O   0  0  0  0  0  0  0  0  0  0  0  0
  146.8005  141.5187  156.1086 C   0  0  0  0  0  0  0  0  0  0  0  0
  147.5054  140.5507  156.9974 C   0  0  0  0  0  0  0  0  0  0  0  0
  147.1197  142.0780  154.9017 C   0  0  0  0  0  0  0  0  0  0  0  0
  148.3527  141.8641  154.0592 C   0  0  0  0  0  0  0  0  0  0  0  0
  149.5254  141.3566  154.9061 C   0  0  0  0  0  0  0  0  0  0  0  0
  150.1240  140.3236  154.6018 O   0  0  0  0  0  0  0  0  0  0  0  0
  149.8515  142.1111  155.9673 N   0  0  0  0  0  0  0  0  0  0  0  0
  150.9428  141.8430  156.9014 C   0  0  2  0  0  0  0  0  0  0  0  0
  150.7188  140.4569  157.5252 C   0  0  0  0  0  0  0  0  0  0  0  0
  151.0131  142.9592  157.9656 C   0  0  1  0  0  0  0  0  0  0  0  0
  151.9161  142.6508  159.1585 C   0  0  0  0  0  0  0  0  0  0  0  0
  152.2026  144.0289  159.7233 C   0  0  0  0  0  0  0  0  0  0  0  0
  152.0509  144.9551  158.5135 C   0  0  0  0  0  0  0  0  0  0  0  0
  151.6241  144.1278  157.4372 O   0  0  0  0  0  0  0  0  0  0  0  0
  145.6627  143.2156  152.5275 H   0  0  0  0  0  0  0  0  0  0  0  0
  146.6242  144.4808  153.2856 H   0  0  0  0  0  0  0  0  0  0  0  0
  144.8850  144.4203  153.5490 H   0  0  0  0  0  0  0  0  0  0  0  0
  148.5844  140.6034  156.8513 H   0  0  0  0  0  0  0  0  0  0  0  0
  147.1840  139.5307  156.7873 H   0  0  0  0  0  0  0  0  0  0  0  0
  147.2989  140.7630  158.0465 H   0  0  0  0  0  0  0  0  0  0  0  0
  148.1675  141.1375  153.2675 H   0  0  0  0  0  0  0  0  0  0  0  0
  148.6439  142.7887  153.5589 H   0  0  0  0  0  0  0  0  0  0  0  0
  149.3077  142.9449  156.1356 H   0  0  0  0  0  0  0  0  0  0  0  0
  151.8891  141.8113  156.3581 H   0  0  0  0  0  0  0  0  0  0  0  0
  151.5450  140.1762  158.1783 H   0  0  0  0  0  0  0  0  0  0  0  0
  150.6403  139.6884  156.7554 H   0  0  0  0  0  0  0  0  0  0  0  0
  149.8030  140.4305  158.1166 H   0  0  0  0  0  0  0  0  0  0  0  0
  150.0118  143.2157  158.3175 H   0  0  0  0  0  0  0  0  0  0  0  0
  151.4510  141.9859  159.8868 H   0  0  0  0  0  0  0  0  0  0  0  0
  152.8449  142.1896  158.8202 H   0  0  0  0  0  0  0  0  0  0  0  0
  151.4662  144.2870  160.4853 H   0  0  0  0  0  0  0  0  0  0  0  0
  153.1924  144.0895  160.1767 H   0  0  0  0  0  0  0  0  0  0  0  0
  151.3044  145.7265  158.7060 H   0  0  0  0  0  0  0  0  0  0  0  0
  152.9885  145.4470  158.2530 H   0  0  0  0  0  0  0  0  0  0  0  0
  1  2  1  0  0  0  0
  1 19  1  0  0  0  0
  1 20  1  0  0  0  0
  1 21  1  0  0  0  0
  2  7  1  0  0  0  0
  2  3  2  0  0  0  0
  3  4  1  0  0  0  0
  4  5  1  0  0  0  0
  5  6  1  0  0  0  0
  5  7  2  0  0  0  0
  6 22  1  0  0  0  0
  6 23  1  0  0  0  0
  6 24  1  0  0  0  0
  7  8  1  0  0  0  0
  8  9  1  0  0  0  0
  8 25  1  0  0  0  0
  8 26  1  0  0  0  0
  9 10  2  0  0  0  0
  9 11  1  0  0  0  0
 11 12  1  0  0  0  0
 11 27  1  0  0  0  0
 12 13  1  0  0  0  0
 12 14  1  0  0  0  0
 12 28  1  0  0  0  0
 13 29  1  0  0  0  0
 13 30  1  0  0  0  0
 13 31  1  0  0  0  0
 14 18  1  0  0  0  0
 14 15  1  0  0  0  0
 14 32  1  0  0  0  0
 15 16  1  0  0  0  0
 15 33  1  0  0  0  0
 15 34  1  0  0  0  0
 16 17  1  0  0  0  0
 16 35  1  0  0  0  0
 16 36  1  0  0  0  0
 17 18  1  0  0  0  0
 17 37  1  0  0  0  0
 17 38  1  0  0  0  0
M  END
> <s_m_source_file>
AV-unprocessed.smi

> <i_m_source_file_index>
1328

> <i_lp_mmshare_version>
43012

> <i_f3d_flags>
0

> <s_epik_input>
W0NIM11jMW5vYyhbQ0gzXSljMVtDSDJdQyg9TylbTkhdW0NASF0oW0NIM10pW0NAQEhdMltDSDJdW0NIMl1bQ0gyXU8y

> <s_epik_cmdline>
J2VwaWtfcHl0aG9uJywgJy1waCcsICc3LjAnLCAnLXRuJywgJzgnLCAnLW1hJywgJzIwMCcsICctbWV0YWxfYmluZGluZycsICctaW1hZScsICc8aW5maWxlLm1hZT4nLCAnLW9tYWUnLCAnPG91dGZpbGUubWFlPic=

> <r_lp_tautomer_probability>
1

> <r_epik_Ionization_Penalty>
2.66156e-08

> <r_epik_Ionization_Penalty_Charging>
0

> <r_epik_Ionization_Penalty_Neutral>
2.66156e-08

> <r_epik_State_Penalty>
-0

> <r_epik_Charging_Adjusted_Penalty>
0

> <i_epik_Tot_Q>
0

> <i_epik_Tot_abs_Q>
0

> <r_epik_Metal_State_Penalty>
-0

> <b_epik_Metal_Only>
0

> <s_lp_Force_Field>
OPLS_2005

> <r_lp_Energy>
12.7116

> <b_lp_Chiralities_Consistent>
1

> <s_lp_Variant>
AV-unprocessed.smi:1328-3

> <Gold.Version>
5.8.1

> <Gold.Id.Protein>
6NUR|6NUR_protein|mol2

> <Gold.PLP.Fitness>
42.5643

> <Gold.PLP.PLP>
-37.8907

> <Gold.PLP.part.hbond>
-2.0000

> <Gold.PLP.part.metal>
0.0000

> <Gold.PLP.part.buried>
-6.1088

> <Gold.PLP.part.nonpolar>
-30.8835

> <Gold.PLP.part.repulsive>
0.5369

> <Gold.PLP.ligand.clash>
0.0000

> <Gold.PLP.ligand.torsion>
0.5845

> <Gold.PLP.Chemscore.Hbond>
1.9280

> <Gold.PLP.Chemscore.CHOScore>
0.0000

> <Gold.PLP.Chemscore.Metal>
0.0000

> <Gold.Chemscore.Hbonds>
donor molecule, donor type, donor heavy atom, donor atom, acceptor molecule, acceptor atom, score
      L1  H    11    27       P1  8028  0.98
      P1  H  7989  7998       L1    10  0.99

> <Gold.PLP.Chemscore.Internal.Correction>
0.0586

> <Gold.Rescore>
     Score         DG    S(hbond)    S(metal)    S(lipo)     H(rot)  DE(clash)    DE(int)     intcor
     14.70     -16.85       1.56        0.00      85.77       1.52       0.09       2.06       ----

> <Gold.Chemscore.Fitness>
14.6994

> <Gold.Chemscore.DG>
-16.8463

> <Gold.Chemscore.ZeroCoef>
-5.4800

> <Gold.Chemscore.Hbond>
1.5606

> <Gold.Chemscore.Metal>
0.0000

> <Gold.Chemscore.Lipo>
85.7673

> <Gold.Chemscore.Internal_Hbond>
0.0000

> <Gold.Chemscore.DEClash>
0.0904

> <Gold.Chemscore.DEInternal>
2.0565

> <Gold.Chemscore.Rot>
1.5159

> <Gold.Chemscore.Internal.Correction>
   9.000000E+99

> <Gold.Chemscore.Hbonds>
donor molecule, donor type, donor heavy atom, donor atom, acceptor molecule, acceptor atom, score
      L1  H    11    27       P1  8028  0.93
      P1  H  7989  7998       L1    10  0.52

> <Gold.Chemscore.Hbond.Weighted>
-5.2123

> <Gold.Chemscore.Metal.Weighted>
-0.0000

> <Gold.Chemscore.Lipo.Weighted>
-10.0348

> <Gold.Chemscore.Internal_Hbond.Weighted>
0.0000

> <Gold.Chemscore.DEClash.Weighted>
0.0904

> <Gold.Chemscore.DEInternal.Weighted>
2.0565

> <Gold.Chemscore.Rot.Weighted>
3.8807

> <Gold.Chemscore.Internal.Correction.Weighted>
   9.000000E+99

> <Gold.Protein.RotatedTorsions>
[ 6907 6896 6895 6894 ] final  -51.52 input  -60.11 | X-H torsion
[ 7974 7965 7964 7962 ] final -175.89 input  175.53 | X-H torsion
[ 8008 7997 7996 7995 ] final   22.47 input   59.86 | X-H torsion
[ 10167 10162 10161 10158 ] final  -74.19 input  -65.29 | X-H torsion
[ 10718 10713 10712 10709 ] final -158.54 input   66.30 | X-H torsion
[ 10763 10752 10751 10750 ] final  -28.85 input  -60.55 | X-H torsion
[ 11005 11000 10999 10996 ] final   39.32 input  -57.11 | X-H torsion

> <Gold.Protein.ActiveResidues>
 VAL166  LYS551  ARG553  GLY616  TRP617  ASP618  TYR619  PRO620  LYS621  CYS622 
 ASP623  PHE694  ASN695  SER759  ASP760  ASP761  ALA762  ILE779  LEU786  VAL792 
 PHE793  MET794  SER795  GLU796  ALA797  LYS798  CYS799  TRP800  GLU811  SER814 

> <Gold.Protein.RotatedAtoms>
  150.8604  134.7954  159.7077 H   0  0  0  0  0  0  0  0  0  0  0  0  # atno 6907 bound_to 6896
  152.4642  134.5110  159.9763 H   0  0  0  0  0  0  0  0  0  0  0  0  # atno 6908 bound_to 6896
  151.5215  133.3427  159.2938 H   0  0  0  0  0  0  0  0  0  0  0  0  # atno 6909 bound_to 6896
  144.7127  140.1253  143.6402 H   0  0  0  0  0  0  0  0  0  0  0  0  # atno 7974 bound_to 7965
  154.9662  140.3084  155.5008 H   0  0  0  0  0  0  0  0  0  0  0  0  # atno 8008 bound_to 7997
  156.2971  140.2292  156.4690 H   0  0  0  0  0  0  0  0  0  0  0  0  # atno 8009 bound_to 7997
  154.7919  140.0439  157.1196 H   0  0  0  0  0  0  0  0  0  0  0  0  # atno 8010 bound_to 7997
  140.5048  143.2355  151.7693 H   0  0  0  0  0  0  0  0  0  0  0  0  # atno 10167 bound_to 10162
  156.5556  130.8624  151.2793 H   0  0  0  0  0  0  0  0  0  0  0  0  # atno 10718 bound_to 10713
  153.7551  135.6923  153.4937 H   0  0  0  0  0  0  0  0  0  0  0  0  # atno 10763 bound_to 10752
  153.1977  135.4448  155.0226 H   0  0  0  0  0  0  0  0  0  0  0  0  # atno 10764 bound_to 10752
  154.8173  135.3405  154.7069 H   0  0  0  0  0  0  0  0  0  0  0  0  # atno 10765 bound_to 10752
  140.2040  134.3836  155.8082 H   0  0  0  0  0  0  0  0  0  0  0  0  # atno 11005 bound_to 11000
  145.9335  139.2621  143.1311 LP  0  0  0  0  0  0  0  0  0  0  0  0  # atno 17320 bound_to 7965
  145.9498  140.8917  143.0265 LP  0  0  0  0  0  0  0  0  0  0  0  0  # atno 17321 bound_to 7965
  139.4881  144.4473  151.9695 LP  0  0  0  0  0  0  0  0  0  0  0  0  # atno 17342 bound_to 10162
  140.3563  144.3028  150.5941 LP  0  0  0  0  0  0  0  0  0  0  0  0  # atno 17343 bound_to 10162
  157.7379  130.9803  150.2219 LP  0  0  0  0  0  0  0  0  0  0  0  0  # atno 17370 bound_to 10713
  156.2845  130.3737  149.7902 LP  0  0  0  0  0  0  0  0  0  0  0  0  # atno 17371 bound_to 10713
  141.2227  133.7108  156.8305 LP  0  0  0  0  0  0  0  0  0  0  0  0  # atno 17394 bound_to 11000
  140.2023  134.8888  157.3183 LP  0  0  0  0  0  0  0  0  0  0  0  0  # atno 17395 bound_to 11000

$$$$
