AV-unprocessed.smi:1410|AV-procd|sdf|5732|dock4
  -GOLD-   22720 5363D 1   1.00000     0.00000
 Structure written by MMmdl.
 40 41  0  0  0  0  0  0  0  0  2 V2000
  143.2166  132.4687  147.8733 N   0  0  0  0  0  0  0  0  0  0  0  0
  144.0243  132.1486  148.8873 C   0  0  0  0  0  0  0  0  0  0  0  0
  145.0619  131.5099  148.7242 O   0  0  0  0  0  0  0  0  0  0  0  0
  143.6119  132.6187  150.2876 C   0  0  0  0  0  0  0  0  0  0  0  0
  143.9363  134.0335  150.5810 N   0  0  0  0  0  0  0  0  0  0  0  0
  145.3686  134.1480  150.8746 C   0  0  0  0  0  0  0  0  0  0  0  0
  145.7694  135.6226  151.0521 C   0  0  0  0  0  0  0  0  0  0  0  0
  144.9628  136.2823  152.1789 C   0  0  0  0  0  0  0  0  0  0  0  0
  145.2821  137.7050  152.2515 N   0  0  0  0  0  0  0  0  0  0  0  0
  146.0894  138.2694  153.1609 C   0  0  0  0  0  0  0  0  0  0  0  0
  146.6515  137.6374  154.0551 O   0  0  0  0  0  0  0  0  0  0  0  0
  146.1791  139.5978  152.9741 N   0  0  0  0  0  0  0  0  0  0  0  0
  146.9402  140.5478  153.7086 C   0  0  0  0  0  0  0  0  0  0  0  0
  146.6494  141.9153  153.5050 C   0  0  0  0  0  0  0  0  0  0  0  0
  147.3886  142.8951  154.1987 C   0  0  0  0  0  0  0  0  0  0  0  0
  148.3734  142.5215  155.0436 N   0  3  0  0  0  0  0  0  0  0  0  0
  148.6975  141.2288  155.2604 C   0  0  0  0  0  0  0  0  0  0  0  0
  147.9933  140.2045  154.5950 C   0  0  0  0  0  0  0  0  0  0  0  0
  143.4643  136.0666  151.9104 C   0  0  0  0  0  0  0  0  0  0  0  0
  143.1439  134.5770  151.6942 C   0  0  0  0  0  0  0  0  0  0  0  0
  143.4536  132.1801  146.9352 H   0  0  0  0  0  0  0  0  0  0  0  0
  142.3747  132.9988  148.0456 H   0  0  0  0  0  0  0  0  0  0  0  0
  142.5434  132.4483  150.4351 H   0  0  0  0  0  0  0  0  0  0  0  0
  144.1277  131.9749  151.0016 H   0  0  0  0  0  0  0  0  0  0  0  0
  145.6205  133.5772  151.7706 H   0  0  0  0  0  0  0  0  0  0  0  0
  145.9496  133.7231  150.0547 H   0  0  0  0  0  0  0  0  0  0  0  0
  146.8365  135.6903  151.2672 H   0  0  0  0  0  0  0  0  0  0  0  0
  145.6082  136.1563  150.1138 H   0  0  0  0  0  0  0  0  0  0  0  0
  145.2316  135.8018  153.1216 H   0  0  0  0  0  0  0  0  0  0  0  0
  144.8556  138.2998  151.5561 H   0  0  0  0  0  0  0  0  0  0  0  0
  145.5912  139.9815  152.2487 H   0  0  0  0  0  0  0  0  0  0  0  0
  145.8627  142.2149  152.8275 H   0  0  0  0  0  0  0  0  0  0  0  0
  147.2239  143.9583  154.1018 H   0  0  0  0  0  0  0  0  0  0  0  0
  149.5095  141.0525  155.9507 H   0  0  0  0  0  0  0  0  0  0  0  0
  148.2838  139.1798  154.7689 H   0  0  0  0  0  0  0  0  0  0  0  0
  142.8737  136.4494  152.7434 H   0  0  0  0  0  0  0  0  0  0  0  0
  143.1578  136.6329  151.0293 H   0  0  0  0  0  0  0  0  0  0  0  0
  142.0762  134.4896  151.4929 H   0  0  0  0  0  0  0  0  0  0  0  0
  143.3398  134.0114  152.6070 H   0  0  0  0  0  0  0  0  0  0  0  0
  148.8974  143.2461  155.5351 H   0  0  0  0  0  0  0  0  0  0  0  0
  1  2  1  0  0  0  0
  1 21  1  0  0  0  0
  1 22  1  0  0  0  0
  2  3  2  0  0  0  0
  2  4  1  0  0  0  0
  4  5  1  0  0  0  0
  4 23  1  0  0  0  0
  4 24  1  0  0  0  0
  5 20  1  0  0  0  0
  5  6  1  0  0  0  0
  6  7  1  0  0  0  0
  6 25  1  0  0  0  0
  6 26  1  0  0  0  0
  7  8  1  0  0  0  0
  7 27  1  0  0  0  0
  7 28  1  0  0  0  0
  8  9  1  0  0  0  0
  8 19  1  0  0  0  0
  8 29  1  0  0  0  0
  9 10  1  0  0  0  0
  9 30  1  0  0  0  0
 10 11  2  0  0  0  0
 10 12  1  0  0  0  0
 12 13  1  0  0  0  0
 12 31  1  0  0  0  0
 13 18  1  0  0  0  0
 13 14  2  0  0  0  0
 14 15  1  0  0  0  0
 14 32  1  0  0  0  0
 15 16  2  0  0  0  0
 15 33  1  0  0  0  0
 16 17  1  0  0  0  0
 16 40  1  0  0  0  0
 17 18  2  0  0  0  0
 17 34  1  0  0  0  0
 18 35  1  0  0  0  0
 19 20  1  0  0  0  0
 19 36  1  0  0  0  0
 19 37  1  0  0  0  0
 20 38  1  0  0  0  0
 20 39  1  0  0  0  0
M  CHG  1  16   1
M  END
> <s_m_source_file>
AV-unprocessed.smi

> <i_m_source_file_index>
1410

> <i_lp_mmshare_version>
43012

> <i_f3d_flags>
0

> <s_epik_input>
W05IMl1DKD1PKVtDSDJdTjFbQ0gyXVtDSDJdW0NIXShbQ0gyXVtDSDJdMSlbTkhdQyg9TylbTkhdYzJbY0hdW2NIXW5bY0hdW2NIXTI=

> <s_epik_cmdline>
J2VwaWtfcHl0aG9uJywgJy1waCcsICc3LjAnLCAnLXRuJywgJzgnLCAnLW1hJywgJzIwMCcsICctbWV0YWxfYmluZGluZycsICctaW1hZScsICc8aW5maWxlLm1hZT4nLCAnLW9tYWUnLCAnPG91dGZpbGUubWFlPic=

> <r_epik_Ionization_Penalty>
1.15133

> <r_epik_Ionization_Penalty_Charging>
0.995513

> <r_epik_Ionization_Penalty_Neutral>
0.155816

> <r_epik_State_Penalty>
1.22158

> <r_epik_Charging_Adjusted_Penalty>
2.2171

> <i_epik_Tot_Q>
1

> <i_epik_Tot_abs_Q>
1

> <r_epik_Metal_State_Penalty>
1.3359

> <b_epik_Metal_Only>
0

> <s_lp_Force_Field>
OPLS_2005

> <r_lp_Energy>
21.9587

> <b_lp_Chiralities_Consistent>
1

> <s_lp_Variant>
AV-unprocessed.smi:1410-4

> <Gold.Version>
5.8.1

> <Gold.Id.Protein>
6NUR|6NUR_protein|mol2

> <Gold.PLP.Fitness>
47.1433

> <Gold.PLP.PLP>
-34.9868

> <Gold.PLP.part.hbond>
-7.5444

> <Gold.PLP.part.metal>
0.0000

> <Gold.PLP.part.buried>
0.6082

> <Gold.PLP.part.nonpolar>
-31.9028

> <Gold.PLP.part.repulsive>
3.4428

> <Gold.PLP.ligand.clash>
0.0000

> <Gold.PLP.ligand.torsion>
0.7244

> <Gold.PLP.Chemscore.Hbond>
4.5330

> <Gold.PLP.Chemscore.CHOScore>
0.0000

> <Gold.PLP.Chemscore.Metal>
0.0000

> <Gold.Chemscore.Hbonds>
donor molecule, donor type, donor heavy atom, donor atom, acceptor molecule, acceptor atom, score
      L1  H     1    21       P1 10195  0.01
      L1  H     9    30       P1 10171  1.00
      L1  H    12    31       P1 10175  0.53
      L1  H    16    40       P1  8028  1.27

> <Gold.PLP.Chemscore.Internal.Correction>
0.0062

> <Gold.Rescore>
     Score         DG    S(hbond)    S(metal)    S(lipo)     H(rot)  DE(clash)    DE(int)     intcor
     19.40     -22.12       4.13        0.00      67.26       1.96       1.09       1.63       ----

> <Gold.Chemscore.Fitness>
19.3951

> <Gold.Chemscore.DG>
-22.1153

> <Gold.Chemscore.ZeroCoef>
-5.4800

> <Gold.Chemscore.Hbond>
4.1305

> <Gold.Chemscore.Metal>
0.0000

> <Gold.Chemscore.Lipo>
67.2618

> <Gold.Chemscore.Internal_Hbond>
0.0000

> <Gold.Chemscore.DEClash>
1.0892

> <Gold.Chemscore.DEInternal>
1.6310

> <Gold.Chemscore.Rot>
1.9650

> <Gold.Chemscore.Internal.Correction>
   9.000000E+99

> <Gold.Chemscore.Hbonds>
donor molecule, donor type, donor heavy atom, donor atom, acceptor molecule, acceptor atom, score
      L1  H     1    21       P1 10195  0.02
      L1  H     1    22       P1 10186  0.04
      L1  H     9    30       P1 10171  0.92
      L1  H    12    31       P1 10175  0.42
      L1  H    16    40       P1  8028  0.62

> <Gold.Chemscore.Hbond.Weighted>
-13.7960

> <Gold.Chemscore.Metal.Weighted>
-0.0000

> <Gold.Chemscore.Lipo.Weighted>
-7.8696

> <Gold.Chemscore.Internal_Hbond.Weighted>
0.0000

> <Gold.Chemscore.DEClash.Weighted>
1.0892

> <Gold.Chemscore.DEInternal.Weighted>
1.6310

> <Gold.Chemscore.Rot.Weighted>
5.0303

> <Gold.Chemscore.Internal.Correction.Weighted>
   9.000000E+99

> <Gold.Protein.RotatedTorsions>
[ 6907 6896 6895 6894 ] final -160.53 input  -60.11 | X-H torsion
[ 7974 7965 7964 7962 ] final  -14.47 input  175.53 | X-H torsion
[ 8008 7997 7996 7995 ] final  -10.86 input   59.86 | X-H torsion
[ 10167 10162 10161 10158 ] final  148.09 input  -65.29 | X-H torsion
[ 10718 10713 10712 10709 ] final  -41.70 input   66.30 | X-H torsion
[ 10763 10752 10751 10750 ] final  171.14 input  -60.55 | X-H torsion
[ 11005 11000 10999 10996 ] final  -91.20 input  -57.11 | X-H torsion

> <Gold.Protein.ActiveResidues>
 VAL166  LYS551  ARG553  GLY616  TRP617  ASP618  TYR619  PRO620  LYS621  CYS622 
 ASP623  PHE694  ASN695  SER759  ASP760  ASP761  ALA762  ILE779  LEU786  VAL792 
 PHE793  MET794  SER795  GLU796  ALA797  LYS798  CYS799  TRP800  GLU811  SER814 

> <Gold.Protein.RotatedAtoms>
  151.3506  133.3927  159.2679 H   0  0  0  0  0  0  0  0  0  0  0  0  # atno 6907 bound_to 6896
  150.9804  134.9161  159.7851 H   0  0  0  0  0  0  0  0  0  0  0  0  # atno 6908 bound_to 6896
  152.5215  134.3470  159.9289 H   0  0  0  0  0  0  0  0  0  0  0  0  # atno 6909 bound_to 6896
  146.2073  140.3353  142.8403 H   0  0  0  0  0  0  0  0  0  0  0  0  # atno 7974 bound_to 7965
  154.5517  140.2318  155.8475 H   0  0  0  0  0  0  0  0  0  0  0  0  # atno 8008 bound_to 7997
  156.1952  140.3067  155.9374 H   0  0  0  0  0  0  0  0  0  0  0  0  # atno 8009 bound_to 7997
  155.3058  140.0433  157.3023 H   0  0  0  0  0  0  0  0  0  0  0  0  # atno 8010 bound_to 7997
  139.4880  144.5706  151.7062 H   0  0  0  0  0  0  0  0  0  0  0  0  # atno 10167 bound_to 10162
  156.2675  130.4203  149.8474 H   0  0  0  0  0  0  0  0  0  0  0  0  # atno 10718 bound_to 10713
  154.4076  135.2756  155.2057 H   0  0  0  0  0  0  0  0  0  0  0  0  # atno 10763 bound_to 10752
  154.4056  135.6034  153.5926 H   0  0  0  0  0  0  0  0  0  0  0  0  # atno 10764 bound_to 10752
  152.9831  135.5937  154.4353 H   0  0  0  0  0  0  0  0  0  0  0  0  # atno 10765 bound_to 10752
  141.1550  133.7741  156.9846 H   0  0  0  0  0  0  0  0  0  0  0  0  # atno 11005 bound_to 11000
  144.8824  140.7417  143.5978 LP  0  0  0  0  0  0  0  0  0  0  0  0  # atno 17320 bound_to 7965
  145.3273  139.1770  143.4555 LP  0  0  0  0  0  0  0  0  0  0  0  0  # atno 17321 bound_to 7965
  140.5292  144.0757  150.6048 LP  0  0  0  0  0  0  0  0  0  0  0  0  # atno 17342 bound_to 10162
  140.3741  143.2838  152.0245 LP  0  0  0  0  0  0  0  0  0  0  0  0  # atno 17343 bound_to 10162
  156.5967  130.8529  151.3422 LP  0  0  0  0  0  0  0  0  0  0  0  0  # atno 17370 bound_to 10713
  157.7272  130.9640  150.1690 LP  0  0  0  0  0  0  0  0  0  0  0  0  # atno 17371 bound_to 10713
  140.1043  134.9516  157.1970 LP  0  0  0  0  0  0  0  0  0  0  0  0  # atno 17394 bound_to 11000
  140.3277  134.2845  155.7234 LP  0  0  0  0  0  0  0  0  0  0  0  0  # atno 17395 bound_to 11000

$$$$
