AV-unprocessed.smi:624|AV-procd|sdf|3100|dock1
  -GOLD-   22720 0 23D 1   1.00000     0.00000
 Structure written by MMmdl.
 29 31  0  0  0  0  0  0  0  0  2 V2000
  150.7939  141.0044  157.5561 O   0  0  0  0  0  0  0  0  0  0  0  0
  151.9178  140.5592  157.7958 C   0  0  0  0  0  0  0  0  0  0  0  0
  152.5426  139.5237  157.1786 N   0  5  0  0  0  0  0  0  0  0  0  0
  151.9943  138.7237  156.2365 C   0  0  0  0  0  0  0  0  0  0  0  0
  152.4917  137.5499  155.7972 N   0  0  0  0  0  0  0  0  0  0  0  0
  151.7129  136.9438  154.8222 N   0  0  0  0  0  0  0  0  0  0  0  0
  150.6356  137.6733  154.5417 C   0  0  0  0  0  0  0  0  0  0  0  0
  150.4792  139.1645  155.4432 S   0  0  0  0  0  0  0  0  0  0  0  0
  152.6624  141.1146  158.7640 N   0  0  0  0  0  0  0  0  0  0  0  0
  152.3017  142.2419  159.6203 C   0  0  0  0  0  0  0  0  0  0  0  0
  151.8987  143.4586  158.8070 C   0  0  0  0  0  0  0  0  0  0  0  0
  152.9266  144.3058  158.0951 C   0  0  0  0  0  0  0  0  0  0  0  0
  152.1946  144.8546  159.2993 C   0  0  0  0  0  0  0  0  0  0  0  0
  153.4176  142.5930  160.5875 C   0  0  0  0  0  0  0  0  0  0  0  0
  153.7242  141.7104  161.7731 C   0  0  0  0  0  0  0  0  0  0  0  0
  153.1227  143.0816  161.9860 C   0  0  0  0  0  0  0  0  0  0  0  0
  149.9290  137.3320  153.8000 H   0  0  0  0  0  0  0  0  0  0  0  0
  153.5743  140.7111  158.9196 H   0  0  0  0  0  0  0  0  0  0  0  0
  151.4359  141.9735  160.2281 H   0  0  0  0  0  0  0  0  0  0  0  0
  150.9496  143.3367  158.2878 H   0  0  0  0  0  0  0  0  0  0  0  0
  153.9767  144.0519  158.2240 H   0  0  0  0  0  0  0  0  0  0  0  0
  152.6596  144.7045  157.1186 H   0  0  0  0  0  0  0  0  0  0  0  0
  151.4388  145.6179  159.1263 H   0  0  0  0  0  0  0  0  0  0  0  0
  152.7540  144.9538  160.2275 H   0  0  0  0  0  0  0  0  0  0  0  0
  154.2821  143.0454  160.1048 H   0  0  0  0  0  0  0  0  0  0  0  0
  153.0824  140.8470  161.9383 H   0  0  0  0  0  0  0  0  0  0  0  0
  154.7704  141.5715  162.0376 H   0  0  0  0  0  0  0  0  0  0  0  0
  153.7680  143.8571  162.3935 H   0  0  0  0  0  0  0  0  0  0  0  0
  152.0830  143.1253  162.3039 H   0  0  0  0  0  0  0  0  0  0  0  0
  1  2  2  0  0  0  0
  2  3  1  0  0  0  0
  2  9  1  0  0  0  0
  3  4  1  0  0  0  0
  4  8  1  0  0  0  0
  4  5  2  0  0  0  0
  5  6  1  0  0  0  0
  6  7  2  0  0  0  0
  7  8  1  0  0  0  0
  7 17  1  0  0  0  0
  9 10  1  0  0  0  0
  9 18  1  0  0  0  0
 10 11  1  0  0  0  0
 10 14  1  0  0  0  0
 10 19  1  0  0  0  0
 11 13  1  0  0  0  0
 11 12  1  0  0  0  0
 11 20  1  0  0  0  0
 12 13  1  0  0  0  0
 12 21  1  0  0  0  0
 12 22  1  0  0  0  0
 13 23  1  0  0  0  0
 13 24  1  0  0  0  0
 14 16  1  0  0  0  0
 14 15  1  0  0  0  0
 14 25  1  0  0  0  0
 15 16  1  0  0  0  0
 15 26  1  0  0  0  0
 15 27  1  0  0  0  0
 16 28  1  0  0  0  0
 16 29  1  0  0  0  0
M  CHG  1   3  -1
M  END
> <s_m_source_file>
AV-unprocessed.smi

> <i_m_source_file_index>
624

> <i_lp_mmshare_version>
43012

> <i_f3d_flags>
0

> <s_epik_input>
W0NIMl0xW0NIMl1bQ0hdMVtDSF0oW0NIXTJbQ0gyXVtDSDJdMilbTkhdQyg9TylbTkhdYzNubltjSF1zMw==

> <s_epik_cmdline>
J2VwaWtfcHl0aG9uJywgJy1waCcsICc3LjAnLCAnLXRuJywgJzgnLCAnLW1hJywgJzIwMCcsICctbWV0YWxfYmluZGluZycsICctaW1hZScsICc8aW5maWxlLm1hZT4nLCAnLW9tYWUnLCAnPG91dGZpbGUubWFlPic=

> <r_lp_tautomer_probability>
1

> <r_epik_Ionization_Penalty>
4.58207

> <r_epik_Ionization_Penalty_Charging>
4.53574

> <r_epik_Ionization_Penalty_Neutral>
0.0463302

> <r_epik_State_Penalty>
4.53546

> <r_epik_Charging_Adjusted_Penalty>
9.07119

> <i_epik_Tot_Q>
-1

> <i_epik_Tot_abs_Q>
1

> <r_epik_Metal_State_Penalty>
0.837379

> <b_epik_Metal_Only>
1

> <s_lp_Force_Field>
OPLS_2005

> <r_lp_Energy>
26.5564

> <b_lp_Chiralities_Consistent>
1

> <s_lp_Variant>
AV-unprocessed.smi:624-2

> <Gold.Version>
5.8.1

> <Gold.Id.Protein>
6NUR|6NUR_protein|mol2

> <Gold.PLP.Fitness>
54.8256

> <Gold.PLP.PLP>
-42.9425

> <Gold.PLP.part.hbond>
-2.3498

> <Gold.PLP.part.metal>
0.0000

> <Gold.PLP.part.buried>
-5.7018

> <Gold.PLP.part.nonpolar>
-34.9753

> <Gold.PLP.part.repulsive>
0.2885

> <Gold.PLP.ligand.clash>
0.0000

> <Gold.PLP.ligand.torsion>
1.1748

> <Gold.PLP.Chemscore.Hbond>
2.9440

> <Gold.PLP.Chemscore.CHOScore>
1.0630

> <Gold.PLP.Chemscore.Metal>
0.0000

> <Gold.Chemscore.Hbonds>
donor molecule, donor type, donor heavy atom, donor atom, acceptor molecule, acceptor atom, score
      P1  H  7997  8008       L1     3  2.00
      P1  H 10752 10765       L1     6  0.85
      L1  C     7    17       P1  7948  1.00

> <Gold.PLP.Chemscore.Internal.Correction>
2.2115

> <Gold.Rescore>
     Score         DG    S(hbond)    S(metal)    S(lipo)     H(rot)  DE(clash)    DE(int)     intcor
     15.66     -18.37       1.60        0.00      97.34       1.50       0.04       2.67       ----

> <Gold.Chemscore.Fitness>
15.6618

> <Gold.Chemscore.DG>
-18.3716

> <Gold.Chemscore.ZeroCoef>
-5.4800

> <Gold.Chemscore.Hbond>
1.5970

> <Gold.Chemscore.Metal>
0.0000

> <Gold.Chemscore.Lipo>
97.3372

> <Gold.Chemscore.Internal_Hbond>
0.0000

> <Gold.Chemscore.DEClash>
0.0398

> <Gold.Chemscore.DEInternal>
2.6699

> <Gold.Chemscore.Rot>
1.4964

> <Gold.Chemscore.Internal.Correction>
   9.000000E+99

> <Gold.Chemscore.Hbonds>
donor molecule, donor type, donor heavy atom, donor atom, acceptor molecule, acceptor atom, score
      P1  H  7997  8008       L1     3  0.43
      P1  H 10752 10765       L1     6  0.14

> <Gold.Chemscore.Hbond.Weighted>
-5.3339

> <Gold.Chemscore.Metal.Weighted>
-0.0000

> <Gold.Chemscore.Lipo.Weighted>
-11.3884

> <Gold.Chemscore.Internal_Hbond.Weighted>
0.0000

> <Gold.Chemscore.DEClash.Weighted>
0.0398

> <Gold.Chemscore.DEInternal.Weighted>
2.6699

> <Gold.Chemscore.Rot.Weighted>
3.8308

> <Gold.Chemscore.Internal.Correction.Weighted>
   9.000000E+99

> <Gold.Protein.RotatedTorsions>
[ 6907 6896 6895 6894 ] final  122.26 input  -60.11 | X-H torsion
[ 7974 7965 7964 7962 ] final  -79.19 input  175.53 | X-H torsion
[ 8008 7997 7996 7995 ] final  -50.95 input   59.86 | X-H torsion
[ 10167 10162 10161 10158 ] final  -56.88 input  -65.29 | X-H torsion
[ 10718 10713 10712 10709 ] final  -93.12 input   66.30 | X-H torsion
[ 10763 10752 10751 10750 ] final  160.73 input  -60.55 | X-H torsion
[ 11005 11000 10999 10996 ] final -146.17 input  -57.11 | X-H torsion

> <Gold.Protein.ActiveResidues>
 VAL166  LYS551  ARG553  GLY616  TRP617  ASP618  TYR619  PRO620  LYS621  CYS622 
 ASP623  PHE694  ASN695  SER759  ASP760  ASP761  ALA762  ILE779  LEU786  VAL792 
 PHE793  MET794  SER795  GLU796  ALA797  LYS798  CYS799  TRP800  GLU811  SER814 

> <Gold.Protein.RotatedAtoms>
  152.4257  133.7190  159.6522 H   0  0  0  0  0  0  0  0  0  0  0  0  # atno 6907 bound_to 6896
  150.8133  133.8371  159.3178 H   0  0  0  0  0  0  0  0  0  0  0  0  # atno 6908 bound_to 6896
  151.6075  135.1045  160.0125 H   0  0  0  0  0  0  0  0  0  0  0  0  # atno 6909 bound_to 6896
  145.5765  140.9456  143.1367 H   0  0  0  0  0  0  0  0  0  0  0  0  # atno 7974 bound_to 7965
  154.4072  140.1259  156.4750 H   0  0  0  0  0  0  0  0  0  0  0  0  # atno 8008 bound_to 7997
  155.7141  140.3493  155.4967 H   0  0  0  0  0  0  0  0  0  0  0  0  # atno 8009 bound_to 7997
  155.9273  140.1063  157.1150 H   0  0  0  0  0  0  0  0  0  0  0  0  # atno 8010 bound_to 7997
  140.6291  143.2451  151.5287 H   0  0  0  0  0  0  0  0  0  0  0  0  # atno 10167 bound_to 10162
  156.0009  130.5014  150.5728 H   0  0  0  0  0  0  0  0  0  0  0  0  # atno 10718 bound_to 10713
  154.2520  135.2771  155.2813 H   0  0  0  0  0  0  0  0  0  0  0  0  # atno 10763 bound_to 10752
  154.5457  135.5690  153.6881 H   0  0  0  0  0  0  0  0  0  0  0  0  # atno 10764 bound_to 10752
  152.9978  135.6262  154.2667 H   0  0  0  0  0  0  0  0  0  0  0  0  # atno 10765 bound_to 10752
  140.7847  134.3038  157.5034 H   0  0  0  0  0  0  0  0  0  0  0  0  # atno 11005 bound_to 11000
  144.7414  139.7440  143.7309 LP  0  0  0  0  0  0  0  0  0  0  0  0  # atno 17320 bound_to 7965
  146.1747  139.4913  142.9905 LP  0  0  0  0  0  0  0  0  0  0  0  0  # atno 17321 bound_to 7965
  139.5507  144.2402  152.1525 LP  0  0  0  0  0  0  0  0  0  0  0  0  # atno 17342 bound_to 10162
  140.1641  144.4998  150.6616 LP  0  0  0  0  0  0  0  0  0  0  0  0  # atno 17343 bound_to 10162
  157.3621  131.0751  151.1628 LP  0  0  0  0  0  0  0  0  0  0  0  0  # atno 17370 bound_to 10713
  157.2410  130.6569  149.5889 LP  0  0  0  0  0  0  0  0  0  0  0  0  # atno 17371 bound_to 10713
  139.8738  134.9339  156.3593 LP  0  0  0  0  0  0  0  0  0  0  0  0  # atno 17394 bound_to 11000
  140.9448  133.7490  156.0194 LP  0  0  0  0  0  0  0  0  0  0  0  0  # atno 17395 bound_to 11000

$$$$
