AV-unprocessed.smi:87|AV-procd|sdf|822|dock2
  -GOLD-   2262017233D 1   1.00000     0.00000
 Structure written by MMmdl.
 58 60  0  0  0  0  0  0  0  0  1 V2000
  145.9968  133.1612  150.3554 C   0  0  0  0  0  0  0  0  0  0  0  0
  144.7031  133.9613  150.5692 C   0  0  0  0  0  0  0  0  0  0  0  0
  144.6498  134.7292  151.9096 C   0  0  0  0  0  0  0  0  0  0  0  0
  145.0923  133.8343  153.0912 C   0  0  0  0  0  0  0  0  0  0  0  0
  146.6137  133.7397  153.2770 C   0  0  0  0  0  0  0  0  0  0  0  0
  143.2299  135.3011  152.1599 C   0  0  0  0  0  0  0  0  0  0  0  0
  143.1718  136.3477  153.1823 N   0  0  0  0  0  0  0  0  0  0  0  0
  142.3490  137.5202  152.8993 C   0  0  0  0  0  0  0  0  0  0  0  0
  140.8554  137.2721  153.1577 C   0  0  0  0  0  0  0  0  0  0  0  0
  140.0633  138.5093  153.0990 C   0  0  0  0  0  0  0  0  0  0  0  0
  139.4399  139.4829  153.0527 N   0  0  0  0  0  0  0  0  0  0  0  0
  144.2864  136.6245  153.9032 C   0  0  0  0  0  0  0  0  0  0  0  0
  144.3699  136.0770  155.1421 N   0  0  0  0  0  0  0  0  0  0  0  0
  145.4455  136.2949  155.9041 C   0  0  0  0  0  0  0  0  0  0  0  0
  146.5304  137.0209  155.6278 N   0  0  0  0  0  0  0  0  0  0  0  0
  146.4456  137.5863  154.3900 C   0  0  0  0  0  0  0  0  0  0  0  0
  145.3683  137.4460  153.4692 C   0  0  0  0  0  0  0  0  0  0  0  0
  145.6377  138.1803  152.3194 N   0  0  0  0  0  0  0  0  0  0  0  0
  146.8099  138.7081  152.5399 C   0  0  0  0  0  0  0  0  0  0  0  0
  147.3682  138.4018  153.7591 N   0  0  0  0  0  0  0  0  0  0  0  0
  148.6554  138.8515  154.2596 C   0  0  0  0  0  0  0  0  0  0  0  0
  148.6918  140.3723  154.5083 C   0  0  2  0  0  0  0  0  0  0  0  0
  149.2184  141.0231  153.3666 O   0  0  0  0  0  0  0  0  0  0  0  0
  149.5199  140.7318  155.7592 C   0  0  1  0  0  0  0  0  0  0  0  0
  149.1256  140.0428  157.0786 C   0  0  0  0  0  0  0  0  0  0  0  0
  150.4288  139.4398  157.5769 C   0  0  0  0  0  0  0  0  0  0  0  0
  151.4896  140.2283  156.8184 C   0  0  0  0  0  0  0  0  0  0  0  0
  150.8933  140.4263  155.5473 O   0  0  0  0  0  0  0  0  0  0  0  0
  145.9334  132.5662  149.4442 H   0  0  0  0  0  0  0  0  0  0  0  0
  146.1781  132.4764  151.1843 H   0  0  0  0  0  0  0  0  0  0  0  0
  146.8674  133.8089  150.2573 H   0  0  0  0  0  0  0  0  0  0  0  0
  144.5573  134.6521  149.7380 H   0  0  0  0  0  0  0  0  0  0  0  0
  143.8772  133.2535  150.5164 H   0  0  0  0  0  0  0  0  0  0  0  0
  145.3596  135.5530  151.8355 H   0  0  0  0  0  0  0  0  0  0  0  0
  144.6813  134.2268  154.0216 H   0  0  0  0  0  0  0  0  0  0  0  0
  144.6707  132.8347  152.9796 H   0  0  0  0  0  0  0  0  0  0  0  0
  146.8544  133.1708  154.1753 H   0  0  0  0  0  0  0  0  0  0  0  0
  147.0591  134.7291  153.3851 H   0  0  0  0  0  0  0  0  0  0  0  0
  147.0994  133.2404  152.4397 H   0  0  0  0  0  0  0  0  0  0  0  0
  142.7990  135.6956  151.2422 H   0  0  0  0  0  0  0  0  0  0  0  0
  142.5713  134.4863  152.4630 H   0  0  0  0  0  0  0  0  0  0  0  0
  142.6952  138.3445  153.5235 H   0  0  0  0  0  0  0  0  0  0  0  0
  142.4982  137.8427  151.8680 H   0  0  0  0  0  0  0  0  0  0  0  0
  140.4440  136.5817  152.4209 H   0  0  0  0  0  0  0  0  0  0  0  0
  140.7005  136.8283  154.1412 H   0  0  0  0  0  0  0  0  0  0  0  0
  145.4365  135.8176  156.8728 H   0  0  0  0  0  0  0  0  0  0  0  0
  147.3030  139.3390  151.8146 H   0  0  0  0  0  0  0  0  0  0  0  0
  148.8641  138.3133  155.1850 H   0  0  0  0  0  0  0  0  0  0  0  0
  149.4304  138.5587  153.5501 H   0  0  0  0  0  0  0  0  0  0  0  0
  147.6695  140.7242  154.6543 H   0  0  0  0  0  0  0  0  0  0  0  0
  149.3913  140.3729  152.7031 H   0  0  0  0  0  0  0  0  0  0  0  0
  149.4757  141.8121  155.9096 H   0  0  0  0  0  0  0  0  0  0  0  0
  148.7468  140.7822  157.7854 H   0  0  0  0  0  0  0  0  0  0  0  0
  148.3560  139.2795  156.9637 H   0  0  0  0  0  0  0  0  0  0  0  0
  150.5442  139.5043  158.6592 H   0  0  0  0  0  0  0  0  0  0  0  0
  150.4805  138.3880  157.2923 H   0  0  0  0  0  0  0  0  0  0  0  0
  151.6727  141.1941  157.2925 H   0  0  0  0  0  0  0  0  0  0  0  0
  152.4372  139.6946  156.7412 H   0  0  0  0  0  0  0  0  0  0  0  0
  1  2  1  0  0  0  0
  1 29  1  0  0  0  0
  1 30  1  0  0  0  0
  1 31  1  0  0  0  0
  2  3  1  0  0  0  0
  2 32  1  0  0  0  0
  2 33  1  0  0  0  0
  3  4  1  0  0  0  0
  3  6  1  0  0  0  0
  3 34  1  0  0  0  0
  4  5  1  0  0  0  0
  4 35  1  0  0  0  0
  4 36  1  0  0  0  0
  5 37  1  0  0  0  0
  5 38  1  0  0  0  0
  5 39  1  0  0  0  0
  6  7  1  0  0  0  0
  6 40  1  0  0  0  0
  6 41  1  0  0  0  0
  7  8  1  0  0  0  0
  7 12  1  0  0  0  0
  8  9  1  0  0  0  0
  8 42  1  0  0  0  0
  8 43  1  0  0  0  0
  9 10  1  0  0  0  0
  9 44  1  0  0  0  0
  9 45  1  0  0  0  0
 10 11  3  0  0  0  0
 12 17  1  0  0  0  0
 12 13  2  0  0  0  0
 13 14  1  0  0  0  0
 14 15  2  0  0  0  0
 14 46  1  0  0  0  0
 15 16  1  0  0  0  0
 16 20  1  0  0  0  0
 16 17  2  0  0  0  0
 17 18  1  0  0  0  0
 18 19  2  0  0  0  0
 19 20  1  0  0  0  0
 19 47  1  0  0  0  0
 20 21  1  0  0  0  0
 21 22  1  0  0  0  0
 21 48  1  0  0  0  0
 21 49  1  0  0  0  0
 22 23  1  0  0  0  0
 22 24  1  0  0  0  0
 22 50  1  0  0  0  0
 23 51  1  0  0  0  0
 24 28  1  0  0  0  0
 24 25  1  0  0  0  0
 24 52  1  0  0  0  0
 25 26  1  0  0  0  0
 25 53  1  0  0  0  0
 25 54  1  0  0  0  0
 26 27  1  0  0  0  0
 26 55  1  0  0  0  0
 26 56  1  0  0  0  0
 27 28  1  0  0  0  0
 27 57  1  0  0  0  0
 27 58  1  0  0  0  0
M  END
> <s_m_source_file>
AV-unprocessed.smi

> <i_m_source_file_index>
87

> <i_lp_mmshare_version>
43012

> <i_f3d_flags>
0

> <s_epik_input>
W0NIM11bQ0gyXVtDSF0oW0NIMl1bQ0gzXSlbQ0gyXU4oW0NIMl1bQ0gyXUMjTiljKG5bY0hdbjEpYyhjMTIpbltjSF1uMltDSDJdW0NASF0oW09IXSlbQ0BASF0zW0NIMl1bQ0gyXVtDSDJdTzM=

> <s_epik_cmdline>
J2VwaWtfcHl0aG9uJywgJy1waCcsICc3LjAnLCAnLXRuJywgJzgnLCAnLW1hJywgJzIwMCcsICctbWV0YWxfYmluZGluZycsICctaW1hZScsICc8aW5maWxlLm1hZT4nLCAnLW9tYWUnLCAnPG91dGZpbGUubWFlPic=

> <r_lp_tautomer_probability>
1

> <r_epik_Ionization_Penalty>
0.000348566

> <r_epik_Ionization_Penalty_Charging>
0

> <r_epik_Ionization_Penalty_Neutral>
0.000348566

> <r_epik_State_Penalty>
-0

> <r_epik_Charging_Adjusted_Penalty>
0

> <i_epik_Tot_Q>
0

> <i_epik_Tot_abs_Q>
0

> <r_epik_Metal_State_Penalty>
-0

> <b_epik_Metal_Only>
0

> <s_lp_Force_Field>
OPLS_2005

> <r_lp_Energy>
36.8585

> <b_lp_Chiralities_Consistent>
1

> <s_lp_Variant>
AV-unprocessed.smi:87-3

> <Gold.Version>
5.8.1

> <Gold.Id.Protein>
6NUR|6NUR_protein|mol2

> <Gold.PLP.Fitness>
45.2963

> <Gold.PLP.PLP>
-38.0004

> <Gold.PLP.part.hbond>
-3.2890

> <Gold.PLP.part.metal>
0.0000

> <Gold.PLP.part.buried>
-8.4744

> <Gold.PLP.part.nonpolar>
-28.6094

> <Gold.PLP.part.repulsive>
1.6652

> <Gold.PLP.ligand.clash>
0.0000

> <Gold.PLP.ligand.torsion>
2.7273

> <Gold.PLP.Chemscore.Hbond>
2.5900

> <Gold.PLP.Chemscore.CHOScore>
1.0000

> <Gold.PLP.Chemscore.Metal>
0.0000

> <Gold.Chemscore.Hbonds>
donor molecule, donor type, donor heavy atom, donor atom, acceptor molecule, acceptor atom, score
      L1  H    23    51       P1  7957  0.94
      P1  H  7989  7998       L1    28  0.52
      P1  H  8011  8017       L1    23  0.70
      L1  C    19    47       P1  7957  1.00

> <Gold.PLP.Chemscore.Internal.Correction>
1.9804

> <Gold.Rescore>
     Score         DG    S(hbond)    S(metal)    S(lipo)     H(rot)  DE(clash)    DE(int)     intcor
      8.37     -11.56       1.87        0.00      72.25       3.37       0.15       3.04       ----

> <Gold.Chemscore.Fitness>
8.3702

> <Gold.Chemscore.DG>
-11.5638

> <Gold.Chemscore.ZeroCoef>
-5.4800

> <Gold.Chemscore.Hbond>
1.8714

> <Gold.Chemscore.Metal>
0.0000

> <Gold.Chemscore.Lipo>
72.2512

> <Gold.Chemscore.Internal_Hbond>
0.0000

> <Gold.Chemscore.DEClash>
0.1549

> <Gold.Chemscore.DEInternal>
3.0387

> <Gold.Chemscore.Rot>
3.3672

> <Gold.Chemscore.Internal.Correction>
   9.000000E+99

> <Gold.Chemscore.Hbonds>
donor molecule, donor type, donor heavy atom, donor atom, acceptor molecule, acceptor atom, score
      L1  H    23    51       P1  7957  0.91
      P1  H  7989  7998       L1    28  0.46
      P1  H  8011  8017       L1    23  0.07

> <Gold.Chemscore.Hbond.Weighted>
-6.2505

> <Gold.Chemscore.Metal.Weighted>
-0.0000

> <Gold.Chemscore.Lipo.Weighted>
-8.4534

> <Gold.Chemscore.Internal_Hbond.Weighted>
0.0000

> <Gold.Chemscore.DEClash.Weighted>
0.1549

> <Gold.Chemscore.DEInternal.Weighted>
3.0387

> <Gold.Chemscore.Rot.Weighted>
8.6201

> <Gold.Chemscore.Internal.Correction.Weighted>
   9.000000E+99

> <Gold.Protein.RotatedTorsions>
[ 6907 6896 6895 6894 ] final -130.62 input  -60.11 | X-H torsion
[ 7974 7965 7964 7962 ] final  -27.33 input  175.53 | X-H torsion
[ 8008 7997 7996 7995 ] final  -99.03 input   59.86 | X-H torsion
[ 10167 10162 10161 10158 ] final   99.52 input  -65.29 | X-H torsion
[ 10718 10713 10712 10709 ] final   31.93 input   66.30 | X-H torsion
[ 10763 10752 10751 10750 ] final  -34.35 input  -60.55 | X-H torsion
[ 11005 11000 10999 10996 ] final  -71.10 input  -57.11 | X-H torsion

> <Gold.Protein.ActiveResidues>
 VAL166  LYS551  ARG553  GLY616  TRP617  ASP618  TYR619  PRO620  LYS621  CYS622 
 ASP623  PHE694  ASN695  SER759  ASP760  ASP761  ALA762  ILE779  LEU786  VAL792 
 PHE793  MET794  SER795  GLU796  ALA797  LYS798  CYS799  TRP800  GLU811  SER814 

> <Gold.Protein.RotatedAtoms>
  150.9418  133.6648  159.2789 H   0  0  0  0  0  0  0  0  0  0  0  0  # atno 6907 bound_to 6896
  151.4035  135.0973  159.9573 H   0  0  0  0  0  0  0  0  0  0  0  0  # atno 6908 bound_to 6896
  152.5072  133.8907  159.7447 H   0  0  0  0  0  0  0  0  0  0  0  0  # atno 6909 bound_to 6896
  146.1365  140.5137  142.8670 H   0  0  0  0  0  0  0  0  0  0  0  0  # atno 7974 bound_to 7965
  154.8093  140.0451  157.1331 H   0  0  0  0  0  0  0  0  0  0  0  0  # atno 8008 bound_to 7997
  154.9387  140.3049  155.5111 H   0  0  0  0  0  0  0  0  0  0  0  0  # atno 8009 bound_to 7997
  156.2970  140.2309  156.4454 H   0  0  0  0  0  0  0  0  0  0  0  0  # atno 8010 bound_to 7997
  139.7610  144.6954  151.0292 H   0  0  0  0  0  0  0  0  0  0  0  0  # atno 10167 bound_to 10162
  157.2787  130.7244  149.6544 H   0  0  0  0  0  0  0  0  0  0  0  0  # atno 10718 bound_to 10713
  153.8453  135.6854  153.4798 H   0  0  0  0  0  0  0  0  0  0  0  0  # atno 10763 bound_to 10752
  153.1429  135.4650  154.9521 H   0  0  0  0  0  0  0  0  0  0  0  0  # atno 10764 bound_to 10752
  154.7827  135.3274  154.7902 H   0  0  0  0  0  0  0  0  0  0  0  0  # atno 10765 bound_to 10752
  141.1586  133.6808  156.6854 H   0  0  0  0  0  0  0  0  0  0  0  0  # atno 11005 bound_to 11000
  144.7746  140.5711  143.6647 LP  0  0  0  0  0  0  0  0  0  0  0  0  # atno 17320 bound_to 7965
  145.5144  139.1478  143.3587 LP  0  0  0  0  0  0  0  0  0  0  0  0  # atno 17321 bound_to 7965
  140.7807  143.4697  151.0163 LP  0  0  0  0  0  0  0  0  0  0  0  0  # atno 17342 bound_to 10162
  139.8383  143.7598  152.3180 LP  0  0  0  0  0  0  0  0  0  0  0  0  # atno 17343 bound_to 10162
  155.9664  130.4345  150.5050 LP  0  0  0  0  0  0  0  0  0  0  0  0  # atno 17370 bound_to 10713
  157.2990  131.0641  151.2082 LP  0  0  0  0  0  0  0  0  0  0  0  0  # atno 17371 bound_to 10713
  140.3071  134.8117  157.4145 LP  0  0  0  0  0  0  0  0  0  0  0  0  # atno 17394 bound_to 11000
  140.1211  134.5218  155.8183 LP  0  0  0  0  0  0  0  0  0  0  0  0  # atno 17395 bound_to 11000

$$$$
