AV-unprocessed.smi:3345|AV-procd|sdf|12900|dock6
  -GOLD-   2272019313D 1   1.00000     0.00000
 Structure written by MMmdl.
 40 41  0  0  0  0  0  0  0  0  1 V2000
  148.1900  135.9646  157.7499 C   0  0  0  0  0  0  0  0  0  0  0  0
  147.9541  137.2682  158.5282 C   0  0  1  0  0  0  0  0  0  0  0  0
  147.9398  137.0232  160.0531 C   0  0  0  0  0  0  0  0  0  0  0  0
  146.7485  136.3441  160.5638 N   0  0  0  0  0  0  0  0  0  0  0  0
  146.5586  136.5398  161.9995 C   0  0  0  0  0  0  0  0  0  0  0  0
  145.3184  135.7947  162.5235 C   0  0  0  0  0  0  0  0  0  0  0  0
  145.4200  134.4107  162.2057 O   0  0  0  0  0  0  0  0  0  0  0  0
  145.5541  134.1781  160.8075 C   0  0  0  0  0  0  0  0  0  0  0  0
  146.7994  134.9133  160.2824 C   0  0  0  0  0  0  0  0  0  0  0  0
  149.0144  138.2138  158.1864 N   0  0  0  0  0  0  0  0  0  0  0  0
  150.2898  138.1403  158.5993 C   0  0  0  0  0  0  0  0  0  0  0  0
  150.7166  137.2362  159.3181 O   0  0  0  0  0  0  0  0  0  0  0  0
  151.2210  139.2693  158.1359 C   0  0  2  0  0  0  0  0  0  0  0  0
  150.7928  140.6375  158.7041 C   0  0  0  0  0  0  0  0  0  0  0  0
  151.3159  139.2678  156.6806 N   0  0  0  0  0  0  0  0  0  0  0  0
  150.5160  139.8297  155.7714 C   0  0  0  0  0  0  0  0  0  0  0  0
  150.9297  139.6788  154.5211 N   0  0  0  0  0  0  0  0  0  0  0  0
  152.0805  138.9783  154.7453 C   0  0  0  0  0  0  0  0  0  0  0  0
  152.3650  138.7157  156.0205 N   0  0  0  0  0  0  0  0  0  0  0  0
  147.4053  135.2364  157.9571 H   0  0  0  0  0  0  0  0  0  0  0  0
  149.1452  135.5098  158.0154 H   0  0  0  0  0  0  0  0  0  0  0  0
  148.1932  136.1430  156.6739 H   0  0  0  0  0  0  0  0  0  0  0  0
  146.9797  137.6579  158.2272 H   0  0  0  0  0  0  0  0  0  0  0  0
  148.8008  136.3979  160.2927 H   0  0  0  0  0  0  0  0  0  0  0  0
  148.1058  137.9572  160.5927 H   0  0  0  0  0  0  0  0  0  0  0  0
  147.4420  136.1967  162.5400 H   0  0  0  0  0  0  0  0  0  0  0  0
  146.4454  137.5999  162.2239 H   0  0  0  0  0  0  0  0  0  0  0  0
  145.2367  135.9079  163.6045 H   0  0  0  0  0  0  0  0  0  0  0  0
  144.4075  136.2087  162.0882 H   0  0  0  0  0  0  0  0  0  0  0  0
  145.6427  133.1063  160.6302 H   0  0  0  0  0  0  0  0  0  0  0  0
  144.6566  134.5165  160.2869 H   0  0  0  0  0  0  0  0  0  0  0  0
  146.8850  134.7499  159.2075 H   0  0  0  0  0  0  0  0  0  0  0  0
  147.6917  134.4785  160.7358 H   0  0  0  0  0  0  0  0  0  0  0  0
  148.7545  138.9898  157.5950 H   0  0  0  0  0  0  0  0  0  0  0  0
  152.2224  139.0617  158.5176 H   0  0  0  0  0  0  0  0  0  0  0  0
  150.7902  140.6238  159.7945 H   0  0  0  0  0  0  0  0  0  0  0  0
  149.7927  140.9258  158.3774 H   0  0  0  0  0  0  0  0  0  0  0  0
  151.4824  141.4214  158.3895 H   0  0  0  0  0  0  0  0  0  0  0  0
  149.6145  140.3654  156.0303 H   0  0  0  0  0  0  0  0  0  0  0  0
  152.7315  138.6576  153.9452 H   0  0  0  0  0  0  0  0  0  0  0  0
  1  2  1  0  0  0  0
  1 20  1  0  0  0  0
  1 21  1  0  0  0  0
  1 22  1  0  0  0  0
  2  3  1  0  0  0  0
  2 10  1  0  0  0  0
  2 23  1  0  0  0  0
  3  4  1  0  0  0  0
  3 24  1  0  0  0  0
  3 25  1  0  0  0  0
  4  9  1  0  0  0  0
  4  5  1  0  0  0  0
  5  6  1  0  0  0  0
  5 26  1  0  0  0  0
  5 27  1  0  0  0  0
  6  7  1  0  0  0  0
  6 28  1  0  0  0  0
  6 29  1  0  0  0  0
  7  8  1  0  0  0  0
  8  9  1  0  0  0  0
  8 30  1  0  0  0  0
  8 31  1  0  0  0  0
  9 32  1  0  0  0  0
  9 33  1  0  0  0  0
 10 11  1  0  0  0  0
 10 34  1  0  0  0  0
 11 12  2  0  0  0  0
 11 13  1  0  0  0  0
 13 14  1  0  0  0  0
 13 15  1  0  0  0  0
 13 35  1  0  0  0  0
 14 36  1  0  0  0  0
 14 37  1  0  0  0  0
 14 38  1  0  0  0  0
 15 19  1  0  0  0  0
 15 16  1  0  0  0  0
 16 17  2  0  0  0  0
 16 39  1  0  0  0  0
 17 18  1  0  0  0  0
 18 19  2  0  0  0  0
 18 40  1  0  0  0  0
M  END
> <s_m_source_file>
AV-unprocessed.smi

> <i_m_source_file_index>
3345

> <i_lp_mmshare_version>
43012

> <i_f3d_flags>
0

> <s_epik_input>
W0NIMl0xW0NIMl1PW0NIMl1bQ0gyXU4xW0NIMl1bQ0BASF0oW0NIM10pW05IXUMoPU8pW0NASF0oW0NIM10pbjJbY0hdbltjSF1uMg==

> <s_epik_cmdline>
J2VwaWtfcHl0aG9uJywgJy1waCcsICc3LjAnLCAnLXRuJywgJzgnLCAnLW1hJywgJzIwMCcsICctbWV0YWxfYmluZGluZycsICctaW1hZScsICc8aW5maWxlLm1hZT4nLCAnLW9tYWUnLCAnPG91dGZpbGUubWFlPic=

> <r_lp_tautomer_probability>
1

> <r_epik_Ionization_Penalty>
0.211373

> <r_epik_Ionization_Penalty_Charging>
0

> <r_epik_Ionization_Penalty_Neutral>
0.211373

> <r_epik_State_Penalty>
0.201459

> <r_epik_Charging_Adjusted_Penalty>
0.201459

> <i_epik_Tot_Q>
0

> <i_epik_Tot_abs_Q>
0

> <r_epik_Metal_State_Penalty>
0.201458

> <b_epik_Metal_Only>
0

> <s_lp_Force_Field>
OPLS_2005

> <r_lp_Energy>
31.9378

> <b_lp_Chiralities_Consistent>
1

> <s_lp_Variant>
AV-unprocessed.smi:3345-2

> <Gold.Version>
5.8.1

> <Gold.Id.Protein>
6NUR|6NUR_protein|mol2

> <Gold.PLP.Fitness>
39.2592

> <Gold.PLP.PLP>
-32.0318

> <Gold.PLP.part.hbond>
-3.0000

> <Gold.PLP.part.metal>
0.0000

> <Gold.PLP.part.buried>
-5.2461

> <Gold.PLP.part.nonpolar>
-24.4069

> <Gold.PLP.part.repulsive>
0.2096

> <Gold.PLP.ligand.clash>
0.0000

> <Gold.PLP.ligand.torsion>
0.9390

> <Gold.PLP.Chemscore.Hbond>
2.9920

> <Gold.PLP.Chemscore.CHOScore>
0.0000

> <Gold.PLP.Chemscore.Metal>
0.0000

> <Gold.Chemscore.Hbonds>
donor molecule, donor type, donor heavy atom, donor atom, acceptor molecule, acceptor atom, score
      P1  H  6896  6907       L1    12  0.46
      P1  H  7989  7998       L1    17  0.80

> <Gold.PLP.Chemscore.Internal.Correction>
0.1294

> <Gold.Rescore>
     Score         DG    S(hbond)    S(metal)    S(lipo)     H(rot)  DE(clash)    DE(int)     intcor
      9.02     -11.57       1.91        0.00      53.11       2.54       0.08       2.48       ----

> <Gold.Chemscore.Fitness>
9.0163

> <Gold.Chemscore.DG>
-11.5746

> <Gold.Chemscore.ZeroCoef>
-5.4800

> <Gold.Chemscore.Hbond>
1.9076

> <Gold.Chemscore.Metal>
0.0000

> <Gold.Chemscore.Lipo>
53.1085

> <Gold.Chemscore.Internal_Hbond>
0.0000

> <Gold.Chemscore.DEClash>
0.0782

> <Gold.Chemscore.DEInternal>
2.4801

> <Gold.Chemscore.Rot>
2.5353

> <Gold.Chemscore.Internal.Correction>
   9.000000E+99

> <Gold.Chemscore.Hbonds>
donor molecule, donor type, donor heavy atom, donor atom, acceptor molecule, acceptor atom, score
      P1  H  6896  6907       L1    12  0.46
      P1  H  7989  7998       L1    17  0.12
      P1  H  7997  8009       L1    19  0.01

> <Gold.Chemscore.Hbond.Weighted>
-6.3714

> <Gold.Chemscore.Metal.Weighted>
-0.0000

> <Gold.Chemscore.Lipo.Weighted>
-6.2137

> <Gold.Chemscore.Internal_Hbond.Weighted>
0.0000

> <Gold.Chemscore.DEClash.Weighted>
0.0782

> <Gold.Chemscore.DEInternal.Weighted>
2.4801

> <Gold.Chemscore.Rot.Weighted>
6.4905

> <Gold.Chemscore.Internal.Correction.Weighted>
   9.000000E+99

> <Gold.Protein.RotatedTorsions>
[ 6907 6896 6895 6894 ] final  -16.09 input  -60.11 | X-H torsion
[ 7974 7965 7964 7962 ] final  -99.56 input  175.53 | X-H torsion
[ 8008 7997 7996 7995 ] final -175.73 input   59.86 | X-H torsion
[ 10167 10162 10161 10158 ] final  -47.38 input  -65.29 | X-H torsion
[ 10718 10713 10712 10709 ] final -139.73 input   66.30 | X-H torsion
[ 10763 10752 10751 10750 ] final  173.23 input  -60.55 | X-H torsion
[ 11005 11000 10999 10996 ] final   55.57 input  -57.11 | X-H torsion

> <Gold.Protein.ActiveResidues>
 VAL166  LYS551  ARG553  GLY616  TRP617  ASP618  TYR619  PRO620  LYS621  CYS622 
 ASP623  PHE694  ASN695  SER759  ASP760  ASP761  ALA762  ILE779  LEU786  VAL792 
 PHE793  MET794  SER795  GLU796  ALA797  LYS798  CYS799  TRP800  GLU811  SER814 

> <Gold.Protein.RotatedAtoms>
  151.3139  135.0801  159.9281 H   0  0  0  0  0  0  0  0  0  0  0  0  # atno 6907 bound_to 6896
  152.5272  133.9708  159.7771 H   0  0  0  0  0  0  0  0  0  0  0  0  # atno 6908 bound_to 6896
  151.0016  133.5998  159.2724 H   0  0  0  0  0  0  0  0  0  0  0  0  # atno 6909 bound_to 6896
  145.3060  140.9389  143.2796 H   0  0  0  0  0  0  0  0  0  0  0  0  # atno 7974 bound_to 7965
  155.9862  140.1191  157.0681 H   0  0  0  0  0  0  0  0  0  0  0  0  # atno 8008 bound_to 7997
  154.4197  140.1135  156.5570 H   0  0  0  0  0  0  0  0  0  0  0  0  # atno 8009 bound_to 7997
  155.6405  140.3473  155.4715 H   0  0  0  0  0  0  0  0  0  0  0  0  # atno 8010 bound_to 7997
  140.6777  143.2787  151.3918 H   0  0  0  0  0  0  0  0  0  0  0  0  # atno 10167 bound_to 10162
  156.3141  130.7498  151.1580 H   0  0  0  0  0  0  0  0  0  0  0  0  # atno 10718 bound_to 10713
  154.4372  135.2761  155.1872 H   0  0  0  0  0  0  0  0  0  0  0  0  # atno 10763 bound_to 10752
  154.3754  135.6099  153.5766 H   0  0  0  0  0  0  0  0  0  0  0  0  # atno 10764 bound_to 10752
  152.9839  135.5867  154.4693 H   0  0  0  0  0  0  0  0  0  0  0  0  # atno 10765 bound_to 10752
  140.0597  134.5620  155.9167 H   0  0  0  0  0  0  0  0  0  0  0  0  # atno 11005 bound_to 11000
  144.9054  139.4595  143.6612 LP  0  0  0  0  0  0  0  0  0  0  0  0  # atno 17320 bound_to 7965
  146.3135  139.7832  142.9001 LP  0  0  0  0  0  0  0  0  0  0  0  0  # atno 17321 bound_to 7965
  139.6080  144.1157  152.2269 LP  0  0  0  0  0  0  0  0  0  0  0  0  # atno 17342 bound_to 10162
  140.0562  144.5893  150.7298 LP  0  0  0  0  0  0  0  0  0  0  0  0  # atno 17343 bound_to 10162
  157.7397  131.0525  150.5211 LP  0  0  0  0  0  0  0  0  0  0  0  0  # atno 17370 bound_to 10713
  156.5355  130.4195  149.6180 LP  0  0  0  0  0  0  0  0  0  0  0  0  # atno 17371 bound_to 10713
  141.1967  133.6593  156.5707 LP  0  0  0  0  0  0  0  0  0  0  0  0  # atno 17394 bound_to 11000
  140.3790  134.7540  157.4648 LP  0  0  0  0  0  0  0  0  0  0  0  0  # atno 17395 bound_to 11000

$$$$
