AV-unprocessed.smi:1224|AV-procd|sdf|5129|dock9
  -GOLD-   22720 4183D 1   1.00000     0.00000
 Structure written by MMmdl.
 44 46  0  0  0  0  0  0  0  0  2 V2000
  153.1576  142.6675  161.0255 C   0  0  0  0  0  0  0  0  0  0  0  0
  152.4926  142.3707  159.6930 C   0  0  0  0  0  0  0  0  0  0  0  0
  152.8341  141.1856  159.0034 C   0  0  0  0  0  0  0  0  0  0  0  0
  152.2356  140.8709  157.7638 C   0  0  0  0  0  0  0  0  0  0  0  0
  152.4156  139.7817  156.9285 N   0  0  0  0  0  0  0  0  0  0  0  0
  151.5780  140.0639  155.9350 C   0  0  0  0  0  0  0  0  0  0  0  0
  150.8766  141.2103  156.0270 N   0  0  0  0  0  0  0  0  0  0  0  0
  149.9102  141.7296  155.0763 C   0  0  0  0  0  0  0  0  0  0  0  0
  148.7988  140.7123  154.7548 C   0  0  1  0  0  0  0  0  0  0  0  0
  147.6428  141.4037  154.3209 O   0  0  0  0  0  0  0  0  0  0  0  0
  149.2255  139.7184  153.6631 C   0  0  0  0  0  0  0  0  0  0  0  0
  148.2456  138.6192  153.5277 N   0  3  0  0  0  0  0  0  0  0  0  0
  147.0554  138.9393  152.7122 C   0  0  0  0  0  0  0  0  0  0  0  0
  146.3701  137.7185  152.1893 C   0  0  0  0  0  0  0  0  0  0  0  0
  145.8428  136.6777  152.9112 C   0  0  0  0  0  0  0  0  0  0  0  0
  145.2632  135.6647  152.0928 C   0  0  0  0  0  0  0  0  0  0  0  0
  145.3555  135.9458  150.7559 C   0  0  0  0  0  0  0  0  0  0  0  0
  146.1604  137.4653  150.4749 S   0  0  0  0  0  0  0  0  0  0  0  0
  151.2789  141.7822  157.2287 C   0  0  0  0  0  0  0  0  0  0  0  0
  150.9317  142.9652  157.9045 C   0  0  0  0  0  0  0  0  0  0  0  0
  151.5386  143.2638  159.1422 C   0  0  0  0  0  0  0  0  0  0  0  0
  151.1556  144.5426  159.8660 C   0  0  0  0  0  0  0  0  0  0  0  0
  153.8843  141.8984  161.2887 H   0  0  0  0  0  0  0  0  0  0  0  0
  152.4132  142.7111  161.8209 H   0  0  0  0  0  0  0  0  0  0  0  0
  153.6819  143.6225  160.9881 H   0  0  0  0  0  0  0  0  0  0  0  0
  153.5603  140.5050  159.4231 H   0  0  0  0  0  0  0  0  0  0  0  0
  151.4699  139.3999  155.0898 H   0  0  0  0  0  0  0  0  0  0  0  0
  149.4848  142.6518  155.4756 H   0  0  0  0  0  0  0  0  0  0  0  0
  150.4465  142.0028  154.1668 H   0  0  0  0  0  0  0  0  0  0  0  0
  148.5473  140.1621  155.6629 H   0  0  0  0  0  0  0  0  0  0  0  0
  147.6396  142.2654  154.7100 H   0  0  0  0  0  0  0  0  0  0  0  0
  149.3518  140.2346  152.7105 H   0  0  0  0  0  0  0  0  0  0  0  0
  150.1924  139.2843  153.9217 H   0  0  0  0  0  0  0  0  0  0  0  0
  148.7159  137.8343  153.1003 H   0  0  0  0  0  0  0  0  0  0  0  0
  146.3628  139.5419  153.3010 H   0  0  0  0  0  0  0  0  0  0  0  0
  147.3737  139.5630  151.8764 H   0  0  0  0  0  0  0  0  0  0  0  0
  145.8532  136.6074  153.9890 H   0  0  0  0  0  0  0  0  0  0  0  0
  144.8051  134.7786  152.5071 H   0  0  0  0  0  0  0  0  0  0  0  0
  145.0007  135.3565  149.9230 H   0  0  0  0  0  0  0  0  0  0  0  0
  150.2033  143.6363  157.4740 H   0  0  0  0  0  0  0  0  0  0  0  0
  150.3976  145.0998  159.3148 H   0  0  0  0  0  0  0  0  0  0  0  0
  152.0254  145.1888  159.9853 H   0  0  0  0  0  0  0  0  0  0  0  0
  150.7527  144.3174  160.8536 H   0  0  0  0  0  0  0  0  0  0  0  0
  147.9416  138.3442  154.4510 H   0  0  0  0  0  0  0  0  0  0  0  0
  1  2  1  0  0  0  0
  1 23  1  0  0  0  0
  1 24  1  0  0  0  0
  1 25  1  0  0  0  0
  2 21  1  0  0  0  0
  2  3  2  0  0  0  0
  3  4  1  0  0  0  0
  3 26  1  0  0  0  0
  4 19  2  0  0  0  0
  4  5  1  0  0  0  0
  5  6  2  0  0  0  0
  6  7  1  0  0  0  0
  6 27  1  0  0  0  0
  7  8  1  0  0  0  0
  7 19  1  0  0  0  0
  8  9  1  0  0  0  0
  8 28  1  0  0  0  0
  8 29  1  0  0  0  0
  9 10  1  0  0  0  0
  9 11  1  0  0  0  0
  9 30  1  0  0  0  0
 10 31  1  0  0  0  0
 11 12  1  0  0  0  0
 11 32  1  0  0  0  0
 11 33  1  0  0  0  0
 12 13  1  0  0  0  0
 12 34  1  0  0  0  0
 12 44  1  0  0  0  0
 13 14  1  0  0  0  0
 13 35  1  0  0  0  0
 13 36  1  0  0  0  0
 14 18  1  0  0  0  0
 14 15  2  0  0  0  0
 15 16  1  0  0  0  0
 15 37  1  0  0  0  0
 16 17  2  0  0  0  0
 16 38  1  0  0  0  0
 17 18  1  0  0  0  0
 17 39  1  0  0  0  0
 19 20  1  0  0  0  0
 20 21  2  0  0  0  0
 20 40  1  0  0  0  0
 21 22  1  0  0  0  0
 22 41  1  0  0  0  0
 22 42  1  0  0  0  0
 22 43  1  0  0  0  0
M  CHG  1  12   1
M  END
> <s_m_source_file>
AV-unprocessed.smi

> <i_m_source_file_index>
1224

> <i_lp_mmshare_version>
43012

> <i_f3d_flags>
0

> <s_epik_input>
W0NIM11jKFtjSF0xKWMoW0NIM10pW2NIXWMoYzEyKW4oW2NIXW4yKVtDSDJdW0NASF0oW09IXSlbQ0gyXVtOSF1bQ0gyXWMzW2NIXVtjSF1bY0hdczM=

> <s_epik_cmdline>
J2VwaWtfcHl0aG9uJywgJy1waCcsICc3LjAnLCAnLXRuJywgJzgnLCAnLW1hJywgJzIwMCcsICctbWV0YWxfYmluZGluZycsICctaW1hZScsICc8aW5maWxlLm1hZT4nLCAnLW9tYWUnLCAnPG91dGZpbGUubWFlPic=

> <r_epik_Ionization_Penalty>
0.145091

> <r_epik_Ionization_Penalty_Charging>
0.0551904

> <r_epik_Ionization_Penalty_Neutral>
0.0899003

> <r_epik_State_Penalty>
0.131364

> <r_epik_Charging_Adjusted_Penalty>
0.186554

> <i_epik_Tot_Q>
1

> <i_epik_Tot_abs_Q>
1

> <r_epik_Metal_State_Penalty>
0.0472291

> <b_epik_Metal_Only>
0

> <s_lp_Force_Field>
OPLS_2005

> <r_lp_Energy>
7.75101

> <b_lp_Chiralities_Consistent>
1

> <s_lp_Variant>
AV-unprocessed.smi:1224-2

> <Gold.Version>
5.8.1

> <Gold.Id.Protein>
6NUR|6NUR_protein|mol2

> <Gold.PLP.Fitness>
53.5950

> <Gold.PLP.PLP>
-42.6147

> <Gold.PLP.part.hbond>
-2.9296

> <Gold.PLP.part.metal>
0.0000

> <Gold.PLP.part.buried>
9.0262

> <Gold.PLP.part.nonpolar>
-47.9417

> <Gold.PLP.part.repulsive>
0.0307

> <Gold.PLP.ligand.clash>
0.0000

> <Gold.PLP.ligand.torsion>
0.5492

> <Gold.PLP.Chemscore.Hbond>
3.0000

> <Gold.PLP.Chemscore.CHOScore>
1.0000

> <Gold.PLP.Chemscore.Metal>
0.0000

> <Gold.Chemscore.Hbonds>
donor molecule, donor type, donor heavy atom, donor atom, acceptor molecule, acceptor atom, score
      L1  H    12    34       P1  7948  2.00
      P1  H  7997  8009       L1     5  0.95
      L1  C    17    39       P1  7921  0.81

> <Gold.PLP.Chemscore.Internal.Correction>
0.0786

> <Gold.Rescore>
     Score         DG    S(hbond)    S(metal)    S(lipo)     H(rot)  DE(clash)    DE(int)     intcor
     13.90     -18.72       1.04        0.00     136.58       2.42       3.18       1.63       ----

> <Gold.Chemscore.Fitness>
13.9002

> <Gold.Chemscore.DG>
-18.7162

> <Gold.Chemscore.ZeroCoef>
-5.4800

> <Gold.Chemscore.Hbond>
1.0364

> <Gold.Chemscore.Metal>
0.0000

> <Gold.Chemscore.Lipo>
136.5812

> <Gold.Chemscore.Internal_Hbond>
0.0000

> <Gold.Chemscore.DEClash>
3.1846

> <Gold.Chemscore.DEInternal>
1.6314

> <Gold.Chemscore.Rot>
2.4240

> <Gold.Chemscore.Internal.Correction>
   9.000000E+99

> <Gold.Chemscore.Hbonds>
donor molecule, donor type, donor heavy atom, donor atom, acceptor molecule, acceptor atom, score
      L1  H    12    34       P1  7948  0.94
      P1  H  7997  8009       L1     5  0.15

> <Gold.Chemscore.Hbond.Weighted>
-3.4616

> <Gold.Chemscore.Metal.Weighted>
-0.0000

> <Gold.Chemscore.Lipo.Weighted>
-15.9800

> <Gold.Chemscore.Internal_Hbond.Weighted>
0.0000

> <Gold.Chemscore.DEClash.Weighted>
3.1846

> <Gold.Chemscore.DEInternal.Weighted>
1.6314

> <Gold.Chemscore.Rot.Weighted>
6.2055

> <Gold.Chemscore.Internal.Correction.Weighted>
   9.000000E+99

> <Gold.Protein.RotatedTorsions>
[ 6907 6896 6895 6894 ] final   45.17 input  -60.11 | X-H torsion
[ 7974 7965 7964 7962 ] final  -77.73 input  175.53 | X-H torsion
[ 8008 7997 7996 7995 ] final -162.69 input   59.86 | X-H torsion
[ 10167 10162 10161 10158 ] final  120.78 input  -65.29 | X-H torsion
[ 10718 10713 10712 10709 ] final    5.61 input   66.30 | X-H torsion
[ 10763 10752 10751 10750 ] final -118.52 input  -60.55 | X-H torsion
[ 11005 11000 10999 10996 ] final  -49.55 input  -57.11 | X-H torsion

> <Gold.Protein.ActiveResidues>
 VAL166  LYS551  ARG553  GLY616  TRP617  ASP618  TYR619  PRO620  LYS621  CYS622 
 ASP623  PHE694  ASN695  SER759  ASP760  ASP761  ALA762  ILE779  LEU786  VAL792 
 PHE793  MET794  SER795  GLU796  ALA797  LYS798  CYS799  TRP800  GLU811  SER814 

> <Gold.Protein.RotatedAtoms>
  152.2414  134.8225  160.0459 H   0  0  0  0  0  0  0  0  0  0  0  0  # atno 6907 bound_to 6896
  151.8938  133.3517  159.3815 H   0  0  0  0  0  0  0  0  0  0  0  0  # atno 6908 bound_to 6896
  150.7055  134.4823  159.5520 H   0  0  0  0  0  0  0  0  0  0  0  0  # atno 6909 bound_to 6896
  145.5958  140.9419  143.1267 H   0  0  0  0  0  0  0  0  0  0  0  0  # atno 7974 bound_to 7965
  155.8105  140.0905  157.1906 H   0  0  0  0  0  0  0  0  0  0  0  0  # atno 8008 bound_to 7997
  154.3980  140.1455  156.3441 H   0  0  0  0  0  0  0  0  0  0  0  0  # atno 8009 bound_to 7997
  155.8370  140.3440  155.5610 H   0  0  0  0  0  0  0  0  0  0  0  0  # atno 8010 bound_to 7997
  139.5960  144.7042  151.3175 H   0  0  0  0  0  0  0  0  0  0  0  0  # atno 10167 bound_to 10162
  156.9099  130.5752  149.5647 H   0  0  0  0  0  0  0  0  0  0  0  0  # atno 10718 bound_to 10713
  154.8590  135.4271  154.2152 H   0  0  0  0  0  0  0  0  0  0  0  0  # atno 10763 bound_to 10752
  153.3169  135.6979  153.7071 H   0  0  0  0  0  0  0  0  0  0  0  0  # atno 10764 bound_to 10752
  153.6141  135.3514  155.2963 H   0  0  0  0  0  0  0  0  0  0  0  0  # atno 10765 bound_to 10752
  141.0766  133.6664  156.3602 H   0  0  0  0  0  0  0  0  0  0  0  0  # atno 11005 bound_to 11000
  144.7331  139.7665  143.7339 LP  0  0  0  0  0  0  0  0  0  0  0  0  # atno 17320 bound_to 7965
  146.1613  139.4728  142.9986 LP  0  0  0  0  0  0  0  0  0  0  0  0  # atno 17321 bound_to 7965
  140.7212  143.7130  150.7755 LP  0  0  0  0  0  0  0  0  0  0  0  0  # atno 17342 bound_to 10162
  140.0696  143.5074  152.2586 LP  0  0  0  0  0  0  0  0  0  0  0  0  # atno 17343 bound_to 10162
  156.0541  130.5605  150.9053 LP  0  0  0  0  0  0  0  0  0  0  0  0  # atno 17370 bound_to 10713
  157.5974  131.0942  150.9018 LP  0  0  0  0  0  0  0  0  0  0  0  0  # atno 17371 bound_to 10713
  140.5561  134.5980  157.5421 LP  0  0  0  0  0  0  0  0  0  0  0  0  # atno 17394 bound_to 11000
  139.9578  134.7505  156.0303 LP  0  0  0  0  0  0  0  0  0  0  0  0  # atno 17395 bound_to 11000

$$$$
