AV-unprocessed.smi:274|AV-procd|sdf|2058|dock4
  -GOLD-   2262021303D 1   1.00000     0.00000
 Structure written by MMmdl.
 50 53  0  0  0  0  0  0  0  0  1 V2000
  149.0980  141.2600  157.0292 C   0  0  0  0  0  0  0  0  0  0  0  0
  149.5418  139.7909  157.1791 C   0  0  0  0  0  0  0  0  0  0  0  0
  151.0083  139.7610  157.6530 C   0  0  0  0  0  0  0  0  0  0  0  0
  149.3091  138.9409  155.8890 C   0  0  2  0  0  0  0  0  0  0  0  0
  150.0160  139.5450  154.6519 C   0  0  0  0  0  0  0  0  0  0  0  0
  151.2181  139.3531  154.4798 O   0  0  0  0  0  0  0  0  0  0  0  0
  149.2928  140.2491  153.7625 N   0  0  0  0  0  0  0  0  0  0  0  0
  147.8510  140.4942  153.8174 C   0  0  0  0  0  0  0  0  0  0  0  0
  147.1806  139.9669  155.1021 C   0  0  0  0  0  0  0  0  0  0  0  0
  147.8697  138.7834  155.6209 N   0  0  0  0  0  0  0  0  0  0  0  0
  147.4647  137.5577  155.1850 C   0  0  0  0  0  0  0  0  0  0  0  0
  148.1077  136.4393  155.6170 N   0  0  0  0  0  0  0  0  0  0  0  0
  147.7159  135.2289  155.2102 C   0  0  0  0  0  0  0  0  0  0  0  0
  146.7216  134.9100  154.3809 N   0  0  0  0  0  0  0  0  0  0  0  0
  146.0774  136.0244  153.9318 C   0  0  0  0  0  0  0  0  0  0  0  0
  146.3800  137.3721  154.2795 C   0  0  0  0  0  0  0  0  0  0  0  0
  145.5127  138.2324  153.6166 N   0  0  0  0  0  0  0  0  0  0  0  0
  144.7372  137.4410  152.9280 C   0  0  0  0  0  0  0  0  0  0  0  0
  145.0099  136.0981  153.0540 N   0  0  0  0  0  0  0  0  0  0  0  0
  144.3089  135.0031  152.4013 C   0  0  0  0  0  0  0  0  0  0  0  0
  145.1076  134.3684  151.2395 C   0  0  1  0  0  0  0  0  0  0  0  0
  145.5225  135.3933  150.3525 O   0  0  0  0  0  0  0  0  0  0  0  0
  146.3382  133.5827  151.6836 C   0  0  0  0  0  0  0  0  0  0  0  0
  146.4375  132.4851  150.6341 C   0  0  0  0  0  0  0  0  0  0  0  0
  145.0800  132.1375  150.4215 O   0  0  0  0  0  0  0  0  0  0  0  0
  144.2988  133.3282  150.4387 C   0  0  0  0  0  0  0  0  0  0  0  0
  149.5974  141.7401  156.1868 H   0  0  0  0  0  0  0  0  0  0  0  0
  149.3365  141.8346  157.9246 H   0  0  0  0  0  0  0  0  0  0  0  0
  148.0228  141.3515  156.8796 H   0  0  0  0  0  0  0  0  0  0  0  0
  148.9409  139.3679  157.9849 H   0  0  0  0  0  0  0  0  0  0  0  0
  151.6728  140.1962  156.9070 H   0  0  0  0  0  0  0  0  0  0  0  0
  151.3539  138.7486  157.8610 H   0  0  0  0  0  0  0  0  0  0  0  0
  151.1326  140.3317  158.5735 H   0  0  0  0  0  0  0  0  0  0  0  0
  149.7721  137.9672  156.0503 H   0  0  0  0  0  0  0  0  0  0  0  0
  149.7818  140.6270  152.9642 H   0  0  0  0  0  0  0  0  0  0  0  0
  147.6532  141.5592  153.6940 H   0  0  0  0  0  0  0  0  0  0  0  0
  147.4131  139.9981  152.9511 H   0  0  0  0  0  0  0  0  0  0  0  0
  147.2173  140.7404  155.8685 H   0  0  0  0  0  0  0  0  0  0  0  0
  146.1175  139.7820  154.9403 H   0  0  0  0  0  0  0  0  0  0  0  0
  148.2791  134.3972  155.6068 H   0  0  0  0  0  0  0  0  0  0  0  0
  143.9434  137.8175  152.2993 H   0  0  0  0  0  0  0  0  0  0  0  0
  144.0805  134.2481  153.1546 H   0  0  0  0  0  0  0  0  0  0  0  0
  143.3484  135.3756  152.0425 H   0  0  0  0  0  0  0  0  0  0  0  0
  145.4459  135.0720  149.4670 H   0  0  0  0  0  0  0  0  0  0  0  0
  147.2431  134.1863  151.7657 H   0  0  0  0  0  0  0  0  0  0  0  0
  146.1600  133.1187  152.6542 H   0  0  0  0  0  0  0  0  0  0  0  0
  146.8724  132.8636  149.7079 H   0  0  0  0  0  0  0  0  0  0  0  0
  147.0245  131.6300  150.9704 H   0  0  0  0  0  0  0  0  0  0  0  0
  143.3331  133.1116  150.8968 H   0  0  0  0  0  0  0  0  0  0  0  0
  144.1070  133.6547  149.4153 H   0  0  0  0  0  0  0  0  0  0  0  0
  1  2  1  0  0  0  0
  1 27  1  0  0  0  0
  1 28  1  0  0  0  0
  1 29  1  0  0  0  0
  2  3  1  0  0  0  0
  2  4  1  0  0  0  0
  2 30  1  0  0  0  0
  3 31  1  0  0  0  0
  3 32  1  0  0  0  0
  3 33  1  0  0  0  0
  4 10  1  0  0  0  0
  4  5  1  0  0  0  0
  4 34  1  0  0  0  0
  5  6  2  0  0  0  0
  5  7  1  0  0  0  0
  7  8  1  0  0  0  0
  7 35  1  0  0  0  0
  8  9  1  0  0  0  0
  8 36  1  0  0  0  0
  8 37  1  0  0  0  0
  9 10  1  0  0  0  0
  9 38  1  0  0  0  0
  9 39  1  0  0  0  0
 10 11  1  0  0  0  0
 11 16  1  0  0  0  0
 11 12  2  0  0  0  0
 12 13  1  0  0  0  0
 13 14  2  0  0  0  0
 13 40  1  0  0  0  0
 14 15  1  0  0  0  0
 15 19  1  0  0  0  0
 15 16  2  0  0  0  0
 16 17  1  0  0  0  0
 17 18  2  0  0  0  0
 18 19  1  0  0  0  0
 18 41  1  0  0  0  0
 19 20  1  0  0  0  0
 20 21  1  0  0  0  0
 20 42  1  0  0  0  0
 20 43  1  0  0  0  0
 21 26  1  0  0  0  0
 21 22  1  0  0  0  0
 21 23  1  0  0  0  0
 22 44  1  0  0  0  0
 23 24  1  0  0  0  0
 23 45  1  0  0  0  0
 23 46  1  0  0  0  0
 24 25  1  0  0  0  0
 24 47  1  0  0  0  0
 24 48  1  0  0  0  0
 25 26  1  0  0  0  0
 26 49  1  0  0  0  0
 26 50  1  0  0  0  0
M  END
> <s_m_source_file>
AV-unprocessed.smi

> <i_m_source_file_index>
274

> <i_lp_mmshare_version>
43012

> <i_f3d_flags>
0

> <s_epik_input>
W0NIM11bQ0hdKFtDSDNdKVtDQEBIXTFDKD1PKVtOSF1bQ0gyXVtDSDJdTjFjKG5bY0hdbjIpYyhjMjMpbltjSF1uM1tDSDJdW0NAQF00KFtPSF0pW0NIMl1bQ0gyXU9bQ0gyXTQ=

> <s_epik_cmdline>
J2VwaWtfcHl0aG9uJywgJy1waCcsICc3LjAnLCAnLXRuJywgJzgnLCAnLW1hJywgJzIwMCcsICctbWV0YWxfYmluZGluZycsICctaW1hZScsICc8aW5maWxlLm1hZT4nLCAnLW9tYWUnLCAnPG91dGZpbGUubWFlPic=

> <r_lp_tautomer_probability>
1

> <r_epik_Ionization_Penalty>
0.000690079

> <r_epik_Ionization_Penalty_Charging>
0

> <r_epik_Ionization_Penalty_Neutral>
0.000690079

> <r_epik_State_Penalty>
0.000321372

> <r_epik_Charging_Adjusted_Penalty>
0.000321372

> <i_epik_Tot_Q>
0

> <i_epik_Tot_abs_Q>
0

> <r_epik_Metal_State_Penalty>
-0

> <b_epik_Metal_Only>
0

> <s_lp_Force_Field>
OPLS_2005

> <r_lp_Energy>
40.3696

> <b_lp_Chiralities_Consistent>
1

> <s_lp_Variant>
AV-unprocessed.smi:274-1

> <Gold.Version>
5.8.1

> <Gold.Id.Protein>
6NUR|6NUR_protein|mol2

> <Gold.PLP.Fitness>
39.0186

> <Gold.PLP.PLP>
-27.1573

> <Gold.PLP.part.hbond>
-3.0000

> <Gold.PLP.part.metal>
0.0000

> <Gold.PLP.part.buried>
-4.9037

> <Gold.PLP.part.nonpolar>
-20.3688

> <Gold.PLP.part.repulsive>
1.0269

> <Gold.PLP.ligand.clash>
0.0000

> <Gold.PLP.ligand.torsion>
0.5121

> <Gold.PLP.Chemscore.Hbond>
2.4720

> <Gold.PLP.Chemscore.CHOScore>
1.7160

> <Gold.PLP.Chemscore.Metal>
0.0000

> <Gold.Chemscore.Hbonds>
donor molecule, donor type, donor heavy atom, donor atom, acceptor molecule, acceptor atom, score
      L1  H     7    35       P1  7957  0.54
      L1  H    22    44       P1  7921  1.00
      P1  H  7989  7998       L1     6  1.00
      L1  C    18    41       P1 10171  0.84
      L1  C    18    41       P1 10175  0.49

> <Gold.PLP.Chemscore.Internal.Correction>
0.3216

> <Gold.Rescore>
     Score         DG    S(hbond)    S(metal)    S(lipo)     H(rot)  DE(clash)    DE(int)     intcor
     12.21     -14.62       2.46        0.00      54.81       2.14       0.17       2.24       ----

> <Gold.Chemscore.Fitness>
12.2127

> <Gold.Chemscore.DG>
-14.6229

> <Gold.Chemscore.ZeroCoef>
-5.4800

> <Gold.Chemscore.Hbond>
2.4600

> <Gold.Chemscore.Metal>
0.0000

> <Gold.Chemscore.Lipo>
54.8098

> <Gold.Chemscore.Internal_Hbond>
0.0000

> <Gold.Chemscore.DEClash>
0.1668

> <Gold.Chemscore.DEInternal>
2.2434

> <Gold.Chemscore.Rot>
2.1431

> <Gold.Chemscore.Internal.Correction>
   9.000000E+99

> <Gold.Chemscore.Hbonds>
donor molecule, donor type, donor heavy atom, donor atom, acceptor molecule, acceptor atom, score
      L1  H     7    35       P1  7957  0.54
      L1  H    22    44       P1  7921  0.94
      P1  H  7989  7998       L1     6  0.26

> <Gold.Chemscore.Hbond.Weighted>
-8.2164

> <Gold.Chemscore.Metal.Weighted>
-0.0000

> <Gold.Chemscore.Lipo.Weighted>
-6.4127

> <Gold.Chemscore.Internal_Hbond.Weighted>
0.0000

> <Gold.Chemscore.DEClash.Weighted>
0.1668

> <Gold.Chemscore.DEInternal.Weighted>
2.2434

> <Gold.Chemscore.Rot.Weighted>
5.4863

> <Gold.Chemscore.Internal.Correction.Weighted>
   9.000000E+99

> <Gold.Protein.RotatedTorsions>
[ 6907 6896 6895 6894 ] final  176.20 input  -60.11 | X-H torsion
[ 7974 7965 7964 7962 ] final -152.63 input  175.53 | X-H torsion
[ 8008 7997 7996 7995 ] final   98.39 input   59.86 | X-H torsion
[ 10167 10162 10161 10158 ] final -164.94 input  -65.29 | X-H torsion
[ 10718 10713 10712 10709 ] final  122.84 input   66.30 | X-H torsion
[ 10763 10752 10751 10750 ] final -106.06 input  -60.55 | X-H torsion
[ 11005 11000 10999 10996 ] final  -53.38 input  -57.11 | X-H torsion

> <Gold.Protein.ActiveResidues>
 VAL166  LYS551  ARG553  GLY616  TRP617  ASP618  TYR619  PRO620  LYS621  CYS622 
 ASP623  PHE694  ASN695  SER759  ASP760  ASP761  ALA762  ILE779  LEU786  VAL792 
 PHE793  MET794  SER795  GLU796  ALA797  LYS798  CYS799  TRP800  GLU811  SER814 

> <Gold.Protein.RotatedAtoms>
  151.7239  133.3315  159.3322 H   0  0  0  0  0  0  0  0  0  0  0  0  # atno 6907 bound_to 6896
  150.7641  134.6424  159.6253 H   0  0  0  0  0  0  0  0  0  0  0  0  # atno 6908 bound_to 6896
  152.3635  134.6841  160.0251 H   0  0  0  0  0  0  0  0  0  0  0  0  # atno 6909 bound_to 6896
  144.7784  140.4636  143.5857 H   0  0  0  0  0  0  0  0  0  0  0  0  # atno 7974 bound_to 7965
  156.0999  140.3244  155.7928 H   0  0  0  0  0  0  0  0  0  0  0  0  # atno 8008 bound_to 7997
  155.4854  140.0557  157.2978 H   0  0  0  0  0  0  0  0  0  0  0  0  # atno 8009 bound_to 7997
  154.4690  140.2002  156.0058 H   0  0  0  0  0  0  0  0  0  0  0  0  # atno 8010 bound_to 7997
  139.6216  144.0613  152.1938 H   0  0  0  0  0  0  0  0  0  0  0  0  # atno 10167 bound_to 10162
  157.5711  131.1083  150.8364 H   0  0  0  0  0  0  0  0  0  0  0  0  # atno 10718 bound_to 10713
  154.7988  135.4726  154.0225 H   0  0  0  0  0  0  0  0  0  0  0  0  # atno 10763 bound_to 10752
  153.1746  135.6831  153.8567 H   0  0  0  0  0  0  0  0  0  0  0  0  # atno 10764 bound_to 10752
  153.8138  135.3213  155.3381 H   0  0  0  0  0  0  0  0  0  0  0  0  # atno 10765 bound_to 10752
  141.0973  133.6623  156.4164 H   0  0  0  0  0  0  0  0  0  0  0  0  # atno 11005 bound_to 11000
  145.6120  139.1514  143.3070 LP  0  0  0  0  0  0  0  0  0  0  0  0  # atno 17320 bound_to 7965
  146.1977  140.6236  142.9116 LP  0  0  0  0  0  0  0  0  0  0  0  0  # atno 17321 bound_to 7965
  140.0257  144.6119  150.7530 LP  0  0  0  0  0  0  0  0  0  0  0  0  # atno 17342 bound_to 10162
  140.7385  143.2779  151.3685 LP  0  0  0  0  0  0  0  0  0  0  0  0  # atno 17343 bound_to 10162
  156.8836  130.5188  149.5289 LP  0  0  0  0  0  0  0  0  0  0  0  0  # atno 17370 bound_to 10713
  156.0757  130.5779  150.9468 LP  0  0  0  0  0  0  0  0  0  0  0  0  # atno 17371 bound_to 10713
  140.5109  134.6396  157.5284 LP  0  0  0  0  0  0  0  0  0  0  0  0  # atno 17394 bound_to 11000
  139.9813  134.7132  155.9854 LP  0  0  0  0  0  0  0  0  0  0  0  0  # atno 17395 bound_to 11000

$$$$
