AV-unprocessed.smi:657|AV-procd|sdf|3221|dock1
  -GOLD-   22720 0163D 1   1.00000     0.00000
 Structure written by MMmdl.
 47 48  0  0  0  0  0  0  0  0  2 V2000
  147.7259  141.6831  153.5897 C   0  0  0  0  0  0  0  0  0  0  0  0
  147.4592  141.4504  155.0927 C   0  0  0  0  0  0  0  0  0  0  0  0
  146.0860  142.0633  155.4383 C   0  0  0  0  0  0  0  0  0  0  0  0
  148.5562  141.9850  155.9715 N   0  3  1  0  0  0  0  0  0  0  0  0
  148.3066  141.7994  157.4360 C   0  0  0  0  0  0  0  0  0  0  0  0
  149.3548  142.5153  158.3041 C   0  0  0  0  0  0  0  0  0  0  0  0
  150.7745  142.0806  157.9392 C   0  0  0  0  0  0  0  0  0  0  0  0
  151.0041  142.3355  156.4465 C   0  0  0  0  0  0  0  0  0  0  0  0
  149.9581  141.6171  155.5621 C   0  0  1  0  0  0  0  0  0  0  0  0
  150.2529  140.1030  155.4733 C   0  0  0  0  0  0  0  0  0  0  0  0
  150.6284  139.5807  154.4242 O   0  0  0  0  0  0  0  0  0  0  0  0
  150.0426  139.4030  156.5985 N   0  0  0  0  0  0  0  0  0  0  0  0
  150.1594  137.9531  156.7318 C   0  0  0  0  0  0  0  0  0  0  0  0
  149.5175  137.1814  155.5586 C   0  0  0  0  0  0  0  0  0  0  0  0
  149.8713  135.7166  155.5518 C   0  0  0  0  0  0  0  0  0  0  0  0
  150.6802  135.0007  156.4800 C   0  0  0  0  0  0  0  0  0  0  0  0
  150.7535  133.7082  156.2075 N   0  0  0  0  0  0  0  0  0  0  0  0
  150.0083  133.5566  155.0935 N   0  0  0  0  0  0  0  0  0  0  0  0
  149.8572  132.2422  154.5078 C   0  0  0  0  0  0  0  0  0  0  0  0
  149.4714  134.7524  154.6704 C   0  0  0  0  0  0  0  0  0  0  0  0
  146.8713  141.3727  152.9874 H   0  0  0  0  0  0  0  0  0  0  0  0
  148.5751  141.1059  153.2248 H   0  0  0  0  0  0  0  0  0  0  0  0
  147.9112  142.7363  153.3761 H   0  0  0  0  0  0  0  0  0  0  0  0
  147.3819  140.3743  155.2503 H   0  0  0  0  0  0  0  0  0  0  0  0
  145.3307  141.7704  154.7081 H   0  0  0  0  0  0  0  0  0  0  0  0
  146.1268  143.1531  155.4472 H   0  0  0  0  0  0  0  0  0  0  0  0
  145.7109  141.7268  156.4041 H   0  0  0  0  0  0  0  0  0  0  0  0
  147.3399  142.2119  157.7160 H   0  0  0  0  0  0  0  0  0  0  0  0
  148.2679  140.7402  157.6882 H   0  0  0  0  0  0  0  0  0  0  0  0
  149.2589  143.5945  158.1764 H   0  0  0  0  0  0  0  0  0  0  0  0
  149.1642  142.3125  159.3585 H   0  0  0  0  0  0  0  0  0  0  0  0
  151.5038  142.6331  158.5322 H   0  0  0  0  0  0  0  0  0  0  0  0
  150.9154  141.0253  158.1745 H   0  0  0  0  0  0  0  0  0  0  0  0
  150.9575  143.4086  156.2560 H   0  0  0  0  0  0  0  0  0  0  0  0
  152.0165  142.0320  156.1738 H   0  0  0  0  0  0  0  0  0  0  0  0
  150.1175  142.0204  154.5622 H   0  0  0  0  0  0  0  0  0  0  0  0
  149.7313  139.9059  157.4170 H   0  0  0  0  0  0  0  0  0  0  0  0
  151.2031  137.6627  156.8602 H   0  0  0  0  0  0  0  0  0  0  0  0
  149.6490  137.6826  157.6566 H   0  0  0  0  0  0  0  0  0  0  0  0
  148.4351  137.3025  155.6129 H   0  0  0  0  0  0  0  0  0  0  0  0
  149.8110  137.6526  154.6205 H   0  0  0  0  0  0  0  0  0  0  0  0
  151.1986  135.3781  157.3491 H   0  0  0  0  0  0  0  0  0  0  0  0
  149.3457  132.3177  153.5479 H   0  0  0  0  0  0  0  0  0  0  0  0
  149.2705  131.6087  155.1736 H   0  0  0  0  0  0  0  0  0  0  0  0
  150.8373  131.7902  154.3518 H   0  0  0  0  0  0  0  0  0  0  0  0
  148.8416  134.8163  153.7952 H   0  0  0  0  0  0  0  0  0  0  0  0
  148.5187  142.9852  155.8372 H   0  0  0  0  0  0  0  0  0  0  0  0
  1  2  1  0  0  0  0
  1 21  1  0  0  0  0
  1 22  1  0  0  0  0
  1 23  1  0  0  0  0
  2  3  1  0  0  0  0
  2  4  1  0  0  0  0
  2 24  1  0  0  0  0
  3 25  1  0  0  0  0
  3 26  1  0  0  0  0
  3 27  1  0  0  0  0
  4  9  1  0  0  0  0
  4  5  1  0  0  0  0
  4 47  1  0  0  0  0
  5  6  1  0  0  0  0
  5 28  1  0  0  0  0
  5 29  1  0  0  0  0
  6  7  1  0  0  0  0
  6 30  1  0  0  0  0
  6 31  1  0  0  0  0
  7  8  1  0  0  0  0
  7 32  1  0  0  0  0
  7 33  1  0  0  0  0
  8  9  1  0  0  0  0
  8 34  1  0  0  0  0
  8 35  1  0  0  0  0
  9 10  1  0  0  0  0
  9 36  1  0  0  0  0
 10 11  2  0  0  0  0
 10 12  1  0  0  0  0
 12 13  1  0  0  0  0
 12 37  1  0  0  0  0
 13 14  1  0  0  0  0
 13 38  1  0  0  0  0
 13 39  1  0  0  0  0
 14 15  1  0  0  0  0
 14 40  1  0  0  0  0
 14 41  1  0  0  0  0
 15 20  2  0  0  0  0
 15 16  1  0  0  0  0
 16 17  2  0  0  0  0
 16 42  1  0  0  0  0
 17 18  1  0  0  0  0
 18 19  1  0  0  0  0
 18 20  1  0  0  0  0
 19 43  1  0  0  0  0
 19 44  1  0  0  0  0
 19 45  1  0  0  0  0
 20 46  1  0  0  0  0
M  CHG  1   4   1
M  END
> <s_m_source_file>
AV-unprocessed.smi

> <i_m_source_file_index>
657

> <i_lp_mmshare_version>
43012

> <i_f3d_flags>
0

> <s_epik_input>
W0NIM11bQ0hdKFtDSDNdKU4xW0NIMl1bQ0gyXVtDSDJdW0NIMl1bQ0BIXTFDKD1PKVtOSF1bQ0gyXVtDSDJdYzJbY0hdbm4oW0NIM10pW2NIXTI=

> <s_epik_cmdline>
J2VwaWtfcHl0aG9uJywgJy1waCcsICc3LjAnLCAnLXRuJywgJzgnLCAnLW1hJywgJzIwMCcsICctbWV0YWxfYmluZGluZycsICctaW1hZScsICc8aW5maWxlLm1hZT4nLCAnLW9tYWUnLCAnPG91dGZpbGUubWFlPic=

> <r_lp_tautomer_probability>
1

> <r_epik_Ionization_Penalty>
0.0244317

> <r_epik_Ionization_Penalty_Charging>
0.0240236

> <r_epik_Ionization_Penalty_Neutral>
0.00040815

> <r_epik_State_Penalty>
0.0194773

> <r_epik_Charging_Adjusted_Penalty>
0.0435009

> <i_epik_Tot_Q>
1

> <i_epik_Tot_abs_Q>
1

> <r_epik_Metal_State_Penalty>
0.0361957

> <b_epik_Metal_Only>
0

> <s_lp_Force_Field>
OPLS_2005

> <r_lp_Energy>
18.2294

> <b_lp_Chiralities_Consistent>
1

> <s_lp_Variant>
AV-unprocessed.smi:657-2

> <Gold.Version>
5.8.1

> <Gold.Id.Protein>
6NUR|6NUR_protein|mol2

> <Gold.PLP.Fitness>
42.1679

> <Gold.PLP.PLP>
-30.5210

> <Gold.PLP.part.hbond>
-2.0000

> <Gold.PLP.part.metal>
0.0000

> <Gold.PLP.part.buried>
-5.0595

> <Gold.PLP.part.nonpolar>
-22.8595

> <Gold.PLP.part.repulsive>
0.1977

> <Gold.PLP.ligand.clash>
0.0000

> <Gold.PLP.ligand.torsion>
0.2896

> <Gold.PLP.Chemscore.Hbond>
3.0000

> <Gold.PLP.Chemscore.CHOScore>
1.0000

> <Gold.PLP.Chemscore.Metal>
0.0000

> <Gold.Chemscore.Hbonds>
donor molecule, donor type, donor heavy atom, donor atom, acceptor molecule, acceptor atom, score
      L1  H     4    47       P1  8028  2.00
      P1  H  7989  7998       L1    11  1.00
      L1  C    20    46       P1  7948  1.00

> <Gold.PLP.Chemscore.Internal.Correction>
0.2261

> <Gold.Rescore>
     Score         DG    S(hbond)    S(metal)    S(lipo)     H(rot)  DE(clash)    DE(int)     intcor
     13.23     -15.93       1.93        0.00      69.92       1.63       0.18       2.52       ----

> <Gold.Chemscore.Fitness>
13.2295

> <Gold.Chemscore.DG>
-15.9345

> <Gold.Chemscore.ZeroCoef>
-5.4800

> <Gold.Chemscore.Hbond>
1.9285

> <Gold.Chemscore.Metal>
0.0000

> <Gold.Chemscore.Lipo>
69.9189

> <Gold.Chemscore.Internal_Hbond>
0.0000

> <Gold.Chemscore.DEClash>
0.1835

> <Gold.Chemscore.DEInternal>
2.5215

> <Gold.Chemscore.Rot>
1.6279

> <Gold.Chemscore.Internal.Correction>
   9.000000E+99

> <Gold.Chemscore.Hbonds>
donor molecule, donor type, donor heavy atom, donor atom, acceptor molecule, acceptor atom, score
      L1  H     4    47       P1  8028  0.99
      P1  H  7989  7998       L1    11  0.65

> <Gold.Chemscore.Hbond.Weighted>
-6.4413

> <Gold.Chemscore.Metal.Weighted>
-0.0000

> <Gold.Chemscore.Lipo.Weighted>
-8.1805

> <Gold.Chemscore.Internal_Hbond.Weighted>
0.0000

> <Gold.Chemscore.DEClash.Weighted>
0.1835

> <Gold.Chemscore.DEInternal.Weighted>
2.5215

> <Gold.Chemscore.Rot.Weighted>
4.1673

> <Gold.Chemscore.Internal.Correction.Weighted>
   9.000000E+99

> <Gold.Protein.RotatedTorsions>
[ 6907 6896 6895 6894 ] final  129.41 input  -60.11 | X-H torsion
[ 7974 7965 7964 7962 ] final  113.61 input  175.53 | X-H torsion
[ 8008 7997 7996 7995 ] final   34.38 input   59.86 | X-H torsion
[ 10167 10162 10161 10158 ] final  117.10 input  -65.29 | X-H torsion
[ 10718 10713 10712 10709 ] final   49.83 input   66.30 | X-H torsion
[ 10763 10752 10751 10750 ] final   22.69 input  -60.55 | X-H torsion
[ 11005 11000 10999 10996 ] final -129.97 input  -57.11 | X-H torsion

> <Gold.Protein.ActiveResidues>
 VAL166  LYS551  ARG553  GLY616  TRP617  ASP618  TYR619  PRO620  LYS621  CYS622 
 ASP623  PHE694  ASN695  SER759  ASP760  ASP761  ALA762  ILE779  LEU786  VAL792 
 PHE793  MET794  SER795  GLU796  ALA797  LYS798  CYS799  TRP800  GLU811  SER814 

> <Gold.Protein.RotatedAtoms>
  152.3627  133.6317  159.6026 H   0  0  0  0  0  0  0  0  0  0  0  0  # atno 6907 bound_to 6896
  150.7612  133.9398  159.3461 H   0  0  0  0  0  0  0  0  0  0  0  0  # atno 6908 bound_to 6896
  151.7234  135.0891  160.0339 H   0  0  0  0  0  0  0  0  0  0  0  0  # atno 6909 bound_to 6896
  145.2148  139.2889  143.4249 H   0  0  0  0  0  0  0  0  0  0  0  0  # atno 7974 bound_to 7965
  155.1538  140.3277  155.4425 H   0  0  0  0  0  0  0  0  0  0  0  0  # atno 8008 bound_to 7997
  156.2565  140.1972  156.6599 H   0  0  0  0  0  0  0  0  0  0  0  0  # atno 8009 bound_to 7997
  154.6454  140.0565  156.9880 H   0  0  0  0  0  0  0  0  0  0  0  0  # atno 8010 bound_to 7997
  139.6201  144.7099  151.2652 H   0  0  0  0  0  0  0  0  0  0  0  0  # atno 10167 bound_to 10162
  157.4825  130.8324  149.8109 H   0  0  0  0  0  0  0  0  0  0  0  0  # atno 10718 bound_to 10713
  153.0896  135.6643  153.9880 H   0  0  0  0  0  0  0  0  0  0  0  0  # atno 10763 bound_to 10752
  153.9481  135.2987  155.3441 H   0  0  0  0  0  0  0  0  0  0  0  0  # atno 10764 bound_to 10752
  154.7309  135.5123  153.9035 H   0  0  0  0  0  0  0  0  0  0  0  0  # atno 10765 bound_to 10752
  140.9385  134.1224  157.4171 H   0  0  0  0  0  0  0  0  0  0  0  0  # atno 11005 bound_to 11000
  146.3389  140.2435  142.8596 LP  0  0  0  0  0  0  0  0  0  0  0  0  # atno 17320 bound_to 7965
  144.9822  140.8469  143.5390 LP  0  0  0  0  0  0  0  0  0  0  0  0  # atno 17321 bound_to 7965
  140.7377  143.6671  150.8114 LP  0  0  0  0  0  0  0  0  0  0  0  0  # atno 17342 bound_to 10162
  140.0280  143.5473  152.2772 LP  0  0  0  0  0  0  0  0  0  0  0  0  # atno 17343 bound_to 10162
  156.0129  130.3825  150.2205 LP  0  0  0  0  0  0  0  0  0  0  0  0  # atno 17370 bound_to 10713
  157.0392  131.0030  151.3289 LP  0  0  0  0  0  0  0  0  0  0  0  0  # atno 17371 bound_to 10713
  139.8814  135.0029  156.6154 LP  0  0  0  0  0  0  0  0  0  0  0  0  # atno 17394 bound_to 11000
  140.7766  133.8695  155.8534 LP  0  0  0  0  0  0  0  0  0  0  0  0  # atno 17395 bound_to 11000

$$$$
