AV-unprocessed.smi:3285|AV-procd|sdf|12581|dock3
  -GOLD-   2272018503D 1   1.00000     0.00000
 Structure written by MMmdl.
 45 46  0  0  0  0  0  0  0  0  2 V2000
  145.0374  140.1403  157.7773 C   0  0  0  0  0  0  0  0  0  0  0  0
  145.9383  140.3794  156.5996 C   0  0  0  0  0  0  0  0  0  0  0  0
  145.7800  139.6584  155.5028 N   0  0  0  0  0  0  0  0  0  0  0  0
  146.7559  140.1041  154.6064 O   0  0  0  0  0  0  0  0  0  0  0  0
  147.4741  141.0864  155.2072 C   0  0  0  0  0  0  0  0  0  0  0  0
  148.5772  141.6955  154.4092 C   0  0  0  0  0  0  0  0  0  0  0  0
  147.0096  141.3103  156.4739 C   0  0  0  0  0  0  0  0  0  0  0  0
  147.5083  142.2961  157.4956 C   0  0  0  0  0  0  0  0  0  0  0  0
  148.9128  141.9281  157.9909 C   0  0  0  0  0  0  0  0  0  0  0  0
  149.9463  142.3932  157.0427 N   0  3  0  0  0  0  0  0  0  0  0  0
  151.2075  142.8607  157.6596 C   0  0  1  0  0  0  0  0  0  0  0  0
  151.0004  144.2601  158.2661 C   0  0  0  0  0  0  0  0  0  0  0  0
  152.2768  144.7740  158.9534 C   0  0  0  0  0  0  0  0  0  0  0  0
  152.7919  143.8018  160.0341 C   0  0  1  0  0  0  0  0  0  0  0  0
  151.8994  143.8242  161.2918 C   0  0  0  0  0  0  0  0  0  0  0  0
  152.9957  142.3914  159.4241 C   0  0  1  0  0  0  0  0  0  0  0  0
  153.5543  141.3693  160.4282 C   0  0  0  0  0  0  0  0  0  0  0  0
  151.7160  141.8754  158.7342 C   0  0  0  0  0  0  0  0  0  0  0  0
  145.4901  139.4366  158.4759 H   0  0  0  0  0  0  0  0  0  0  0  0
  144.0748  139.7304  157.4690 H   0  0  0  0  0  0  0  0  0  0  0  0
  144.8407  141.0659  158.3181 H   0  0  0  0  0  0  0  0  0  0  0  0
  149.5394  141.5314  154.8940 H   0  0  0  0  0  0  0  0  0  0  0  0
  148.4296  142.7704  154.3052 H   0  0  0  0  0  0  0  0  0  0  0  0
  148.6253  141.2638  153.4093 H   0  0  0  0  0  0  0  0  0  0  0  0
  147.5269  143.3035  157.0777 H   0  0  0  0  0  0  0  0  0  0  0  0
  146.8258  142.3434  158.3448 H   0  0  0  0  0  0  0  0  0  0  0  0
  149.0838  142.3731  158.9711 H   0  0  0  0  0  0  0  0  0  0  0  0
  148.9916  140.8463  158.1076 H   0  0  0  0  0  0  0  0  0  0  0  0
  150.1726  141.6135  156.4419 H   0  0  0  0  0  0  0  0  0  0  0  0
  151.9588  142.9461  156.8728 H   0  0  0  0  0  0  0  0  0  0  0  0
  150.7035  144.9620  157.4858 H   0  0  0  0  0  0  0  0  0  0  0  0
  150.1789  144.2389  158.9832 H   0  0  0  0  0  0  0  0  0  0  0  0
  153.0528  144.9159  158.1999 H   0  0  0  0  0  0  0  0  0  0  0  0
  152.0965  145.7587  159.3861 H   0  0  0  0  0  0  0  0  0  0  0  0
  153.7709  144.1668  160.3481 H   0  0  0  0  0  0  0  0  0  0  0  0
  150.9064  143.4187  161.1010 H   0  0  0  0  0  0  0  0  0  0  0  0
  151.7719  144.8430  161.6586 H   0  0  0  0  0  0  0  0  0  0  0  0
  152.3409  143.2493  162.1057 H   0  0  0  0  0  0  0  0  0  0  0  0
  153.7536  142.4947  158.6458 H   0  0  0  0  0  0  0  0  0  0  0  0
  152.8296  141.1279  161.2061 H   0  0  0  0  0  0  0  0  0  0  0  0
  154.4553  141.7459  160.9131 H   0  0  0  0  0  0  0  0  0  0  0  0
  153.8171  140.4366  159.9284 H   0  0  0  0  0  0  0  0  0  0  0  0
  150.9368  141.6992  159.4767 H   0  0  0  0  0  0  0  0  0  0  0  0
  151.9282  140.9065  158.2823 H   0  0  0  0  0  0  0  0  0  0  0  0
  149.5663  143.1354  156.4729 H   0  0  0  0  0  0  0  0  0  0  0  0
  1  2  1  0  0  0  0
  1 19  1  0  0  0  0
  1 20  1  0  0  0  0
  1 21  1  0  0  0  0
  2  7  1  0  0  0  0
  2  3  2  0  0  0  0
  3  4  1  0  0  0  0
  4  5  1  0  0  0  0
  5  6  1  0  0  0  0
  5  7  2  0  0  0  0
  6 22  1  0  0  0  0
  6 23  1  0  0  0  0
  6 24  1  0  0  0  0
  7  8  1  0  0  0  0
  8  9  1  0  0  0  0
  8 25  1  0  0  0  0
  8 26  1  0  0  0  0
  9 10  1  0  0  0  0
  9 27  1  0  0  0  0
  9 28  1  0  0  0  0
 10 11  1  0  0  0  0
 10 29  1  0  0  0  0
 10 45  1  0  0  0  0
 11 18  1  0  0  0  0
 11 12  1  0  0  0  0
 11 30  1  0  0  0  0
 12 13  1  0  0  0  0
 12 31  1  0  0  0  0
 12 32  1  0  0  0  0
 13 14  1  0  0  0  0
 13 33  1  0  0  0  0
 13 34  1  0  0  0  0
 14 15  1  0  0  0  0
 14 16  1  0  0  0  0
 14 35  1  0  0  0  0
 15 36  1  0  0  0  0
 15 37  1  0  0  0  0
 15 38  1  0  0  0  0
 16 17  1  0  0  0  0
 16 18  1  0  0  0  0
 16 39  1  0  0  0  0
 17 40  1  0  0  0  0
 17 41  1  0  0  0  0
 17 42  1  0  0  0  0
 18 43  1  0  0  0  0
 18 44  1  0  0  0  0
M  CHG  1  10   1
M  END
> <s_m_source_file>
AV-unprocessed.smi

> <i_m_source_file_index>
3285

> <i_lp_mmshare_version>
43012

> <i_f3d_flags>
0

> <s_epik_input>
W0NIM11jMW5vYyhbQ0gzXSljMVtDSDJdW0NIMl1bTkhdW0NAQEhdMltDSDJdW0NIMl1bQ0BASF0oW0NIM10pW0NAQEhdKFtDSDNdKVtDSDJdMg==

> <s_epik_cmdline>
J2VwaWtfcHl0aG9uJywgJy1waCcsICc3LjAnLCAnLXRuJywgJzgnLCAnLW1hJywgJzIwMCcsICctbWV0YWxfYmluZGluZycsICctaW1hZScsICc8aW5maWxlLm1hZT4nLCAnLW9tYWUnLCAnPG91dGZpbGUubWFlPic=

> <r_lp_tautomer_probability>
1

> <r_epik_Ionization_Penalty>
0.000204615

> <r_epik_Ionization_Penalty_Charging>
0.000204615

> <r_epik_Ionization_Penalty_Neutral>
9.28663e-11

> <r_epik_State_Penalty>
-0

> <r_epik_Charging_Adjusted_Penalty>
0.000204615

> <i_epik_Tot_Q>
1

> <i_epik_Tot_abs_Q>
1

> <r_epik_Metal_State_Penalty>
-0

> <b_epik_Metal_Only>
0

> <s_lp_Force_Field>
OPLS_2005

> <r_lp_Energy>
12.3416

> <b_lp_Chiralities_Consistent>
1

> <s_lp_Variant>
AV-unprocessed.smi:3285-2

> <Gold.Version>
5.8.1

> <Gold.Id.Protein>
6NUR|6NUR_protein|mol2

> <Gold.PLP.Fitness>
41.2440

> <Gold.PLP.PLP>
-36.2365

> <Gold.PLP.part.hbond>
-1.0000

> <Gold.PLP.part.metal>
0.0000

> <Gold.PLP.part.buried>
-4.2609

> <Gold.PLP.part.nonpolar>
-31.3019

> <Gold.PLP.part.repulsive>
0.1734

> <Gold.PLP.ligand.clash>
0.0000

> <Gold.PLP.ligand.torsion>
0.5104

> <Gold.PLP.Chemscore.Hbond>
2.0000

> <Gold.PLP.Chemscore.CHOScore>
0.0000

> <Gold.PLP.Chemscore.Metal>
0.0000

> <Gold.Chemscore.Hbonds>
donor molecule, donor type, donor heavy atom, donor atom, acceptor molecule, acceptor atom, score
      L1  H    10    45       P1  8028  2.00

> <Gold.PLP.Chemscore.Internal.Correction>
0.0284

> <Gold.Rescore>
     Score         DG    S(hbond)    S(metal)    S(lipo)     H(rot)  DE(clash)    DE(int)     intcor
     17.75     -18.38       1.00        0.00     111.19       1.35       0.05       0.59       ----

> <Gold.Chemscore.Fitness>
17.7459

> <Gold.Chemscore.DG>
-18.3825

> <Gold.Chemscore.ZeroCoef>
-5.4800

> <Gold.Chemscore.Hbond>
1.0000

> <Gold.Chemscore.Metal>
0.0000

> <Gold.Chemscore.Lipo>
111.1924

> <Gold.Chemscore.Internal_Hbond>
0.0000

> <Gold.Chemscore.DEClash>
0.0495

> <Gold.Chemscore.DEInternal>
0.5872

> <Gold.Chemscore.Rot>
1.3465

> <Gold.Chemscore.Internal.Correction>
   9.000000E+99

> <Gold.Chemscore.Hbonds>
donor molecule, donor type, donor heavy atom, donor atom, acceptor molecule, acceptor atom, score
      L1  H    10    45       P1  8028  1.00

> <Gold.Chemscore.Hbond.Weighted>
-3.3400

> <Gold.Chemscore.Metal.Weighted>
-0.0000

> <Gold.Chemscore.Lipo.Weighted>
-13.0095

> <Gold.Chemscore.Internal_Hbond.Weighted>
0.0000

> <Gold.Chemscore.DEClash.Weighted>
0.0495

> <Gold.Chemscore.DEInternal.Weighted>
0.5872

> <Gold.Chemscore.Rot.Weighted>
3.4470

> <Gold.Chemscore.Internal.Correction.Weighted>
   9.000000E+99

> <Gold.Protein.RotatedTorsions>
[ 6907 6896 6895 6894 ] final  172.95 input  -60.11 | X-H torsion
[ 7974 7965 7964 7962 ] final  -72.12 input  175.53 | X-H torsion
[ 8008 7997 7996 7995 ] final  161.19 input   59.86 | X-H torsion
[ 10167 10162 10161 10158 ] final -174.51 input  -65.29 | X-H torsion
[ 10718 10713 10712 10709 ] final   90.37 input   66.30 | X-H torsion
[ 10763 10752 10751 10750 ] final   75.00 input  -60.55 | X-H torsion
[ 11005 11000 10999 10996 ] final  136.94 input  -57.11 | X-H torsion

> <Gold.Protein.ActiveResidues>
 VAL166  LYS551  ARG553  GLY616  TRP617  ASP618  TYR619  PRO620  LYS621  CYS622 
 ASP623  PHE694  ASN695  SER759  ASP760  ASP761  ALA762  ILE779  LEU786  VAL792 
 PHE793  MET794  SER795  GLU796  ALA797  LYS798  CYS799  TRP800  GLU811  SER814 

> <Gold.Protein.RotatedAtoms>
  151.7761  133.3345  159.3457 H   0  0  0  0  0  0  0  0  0  0  0  0  # atno 6907 bound_to 6896
  150.7443  134.5974  159.6028 H   0  0  0  0  0  0  0  0  0  0  0  0  # atno 6908 bound_to 6896
  152.3308  134.7263  160.0341 H   0  0  0  0  0  0  0  0  0  0  0  0  # atno 6909 bound_to 6896
  145.6693  140.9226  143.0892 H   0  0  0  0  0  0  0  0  0  0  0  0  # atno 7974 bound_to 7965
  156.2120  140.1784  156.7673 H   0  0  0  0  0  0  0  0  0  0  0  0  # atno 8008 bound_to 7997
  154.5736  140.0678  156.9031 H   0  0  0  0  0  0  0  0  0  0  0  0  # atno 8009 bound_to 7997
  155.2628  140.3337  155.4274 H   0  0  0  0  0  0  0  0  0  0  0  0  # atno 8010 bound_to 7997
  139.5630  144.1823  152.1269 H   0  0  0  0  0  0  0  0  0  0  0  0  # atno 10167 bound_to 10162
  157.6959  131.0368  150.3567 H   0  0  0  0  0  0  0  0  0  0  0  0  # atno 10718 bound_to 10713
  153.0625  135.5005  154.8125 H   0  0  0  0  0  0  0  0  0  0  0  0  # atno 10763 bound_to 10752
  154.6904  135.2983  154.9490 H   0  0  0  0  0  0  0  0  0  0  0  0  # atno 10764 bound_to 10752
  154.0247  135.6737  153.4828 H   0  0  0  0  0  0  0  0  0  0  0  0  # atno 10765 bound_to 10752
  140.0080  134.9451  157.0216 H   0  0  0  0  0  0  0  0  0  0  0  0  # atno 11005 bound_to 11000
  144.7062  139.8551  143.7429 LP  0  0  0  0  0  0  0  0  0  0  0  0  # atno 17320 bound_to 7965
  146.1059  139.4059  143.0318 LP  0  0  0  0  0  0  0  0  0  0  0  0  # atno 17321 bound_to 7965
  140.1340  144.5262  150.6784 LP  0  0  0  0  0  0  0  0  0  0  0  0  # atno 17342 bound_to 10162
  140.6912  143.2377  151.5127 LP  0  0  0  0  0  0  0  0  0  0  0  0  # atno 17343 bound_to 10162
  156.4008  130.3915  149.6961 LP  0  0  0  0  0  0  0  0  0  0  0  0  # atno 17370 bound_to 10713
  156.4279  130.7800  151.2819 LP  0  0  0  0  0  0  0  0  0  0  0  0  # atno 17371 bound_to 10713
  140.4606  134.1488  155.7191 LP  0  0  0  0  0  0  0  0  0  0  0  0  # atno 17394 bound_to 11000
  141.1691  133.8645  157.1627 LP  0  0  0  0  0  0  0  0  0  0  0  0  # atno 17395 bound_to 11000

$$$$
