AV-unprocessed.smi:1363|AV-procd|sdf|5564|dock3
  -GOLD-   22720 5153D 1   1.00000     0.00000
 Structure written by MMmdl.
 44 45  0  0  0  0  0  0  0  0  1 V2000
  146.5715  138.4918  151.9912 C   0  0  0  0  0  0  0  0  0  0  0  0
  146.8258  139.2940  153.2498 C   0  0  0  0  0  0  0  0  0  0  0  0
  146.0636  139.2590  154.2931 N   0  0  0  0  0  0  0  0  0  0  0  0
  146.3994  140.0518  155.3993 C   0  0  0  0  0  0  0  0  0  0  0  0
  145.4510  139.9624  156.5829 C   0  0  0  0  0  0  0  0  0  0  0  0
  147.5071  140.8503  155.3982 C   0  0  0  0  0  0  0  0  0  0  0  0
  147.8943  141.7301  156.5862 C   0  0  0  0  0  0  0  0  0  0  0  0
  149.3627  141.6621  157.0129 C   0  0  0  0  0  0  0  0  0  0  0  0
  149.8122  140.6425  157.5369 O   0  0  0  0  0  0  0  0  0  0  0  0
  150.1030  142.7549  156.7733 N   0  0  0  0  0  0  0  0  0  0  0  0
  151.5239  142.8848  157.0727 C   0  0  0  0  0  0  0  0  0  0  0  0
  151.7888  144.0576  158.0375 C   0  0  0  0  0  0  0  0  0  0  0  0
  152.2154  143.6720  159.4504 C   0  0  0  0  0  0  0  0  0  0  0  0
  152.0643  144.4632  160.5344 C   0  0  0  0  0  0  0  0  0  0  0  0
  152.4584  144.0636  161.9458 C   0  0  0  0  0  0  0  0  0  0  0  0
  152.7105  142.5533  162.0798 C   0  0  0  0  0  0  0  0  0  0  0  0
  153.5359  142.0277  160.9003 C   0  0  0  0  0  0  0  0  0  0  0  0
  152.8207  142.2773  159.5606 C   0  0  0  0  0  0  0  0  0  0  0  0
  148.3708  140.8815  154.2019 C   0  0  0  0  0  0  0  0  0  0  0  0
  149.3858  141.5673  154.0914 O   0  0  0  0  0  0  0  0  0  0  0  0
  147.9704  140.0870  153.1841 N   0  0  0  0  0  0  0  0  0  0  0  0
  148.5270  140.0751  152.3418 H   0  0  0  0  0  0  0  0  0  0  0  0
  145.6018  138.7554  151.5684 H   0  0  0  0  0  0  0  0  0  0  0  0
  146.5681  137.4260  152.2201 H   0  0  0  0  0  0  0  0  0  0  0  0
  147.3349  138.6763  151.2341 H   0  0  0  0  0  0  0  0  0  0  0  0
  145.9638  139.5561  157.4547 H   0  0  0  0  0  0  0  0  0  0  0  0
  144.6029  139.3132  156.3621 H   0  0  0  0  0  0  0  0  0  0  0  0
  145.0581  140.9466  156.8378 H   0  0  0  0  0  0  0  0  0  0  0  0
  147.6476  142.7641  156.3422 H   0  0  0  0  0  0  0  0  0  0  0  0
  147.2776  141.4962  157.4545 H   0  0  0  0  0  0  0  0  0  0  0  0
  149.6525  143.5489  156.3413 H   0  0  0  0  0  0  0  0  0  0  0  0
  151.8539  141.9474  157.5212 H   0  0  0  0  0  0  0  0  0  0  0  0
  152.0864  143.0091  156.1456 H   0  0  0  0  0  0  0  0  0  0  0  0
  152.5661  144.7005  157.6229 H   0  0  0  0  0  0  0  0  0  0  0  0
  150.8896  144.6702  158.1123 H   0  0  0  0  0  0  0  0  0  0  0  0
  151.6462  145.4539  160.4431 H   0  0  0  0  0  0  0  0  0  0  0  0
  153.3552  144.6218  162.2162 H   0  0  0  0  0  0  0  0  0  0  0  0
  151.6734  144.3697  162.6380 H   0  0  0  0  0  0  0  0  0  0  0  0
  153.2149  142.3410  163.0227 H   0  0  0  0  0  0  0  0  0  0  0  0
  151.7565  142.0251  162.1130 H   0  0  0  0  0  0  0  0  0  0  0  0
  154.5063  142.5258  160.8932 H   0  0  0  0  0  0  0  0  0  0  0  0
  153.7369  140.9631  161.0220 H   0  0  0  0  0  0  0  0  0  0  0  0
  152.0169  141.5523  159.4284 H   0  0  0  0  0  0  0  0  0  0  0  0
  153.5242  142.1184  158.7425 H   0  0  0  0  0  0  0  0  0  0  0  0
  1  2  1  0  0  0  0
  1 23  1  0  0  0  0
  1 24  1  0  0  0  0
  1 25  1  0  0  0  0
  2 21  1  0  0  0  0
  2  3  2  0  0  0  0
  3  4  1  0  0  0  0
  4  5  1  0  0  0  0
  4  6  2  0  0  0  0
  5 26  1  0  0  0  0
  5 27  1  0  0  0  0
  5 28  1  0  0  0  0
  6  7  1  0  0  0  0
  6 19  1  0  0  0  0
  7  8  1  0  0  0  0
  7 29  1  0  0  0  0
  7 30  1  0  0  0  0
  8  9  2  0  0  0  0
  8 10  1  0  0  0  0
 10 11  1  0  0  0  0
 10 31  1  0  0  0  0
 11 12  1  0  0  0  0
 11 32  1  0  0  0  0
 11 33  1  0  0  0  0
 12 13  1  0  0  0  0
 12 34  1  0  0  0  0
 12 35  1  0  0  0  0
 13 18  1  0  0  0  0
 13 14  2  0  0  0  0
 14 15  1  0  0  0  0
 14 36  1  0  0  0  0
 15 16  1  0  0  0  0
 15 37  1  0  0  0  0
 15 38  1  0  0  0  0
 16 17  1  0  0  0  0
 16 39  1  0  0  0  0
 16 40  1  0  0  0  0
 17 18  1  0  0  0  0
 17 41  1  0  0  0  0
 17 42  1  0  0  0  0
 18 43  1  0  0  0  0
 18 44  1  0  0  0  0
 19 20  2  0  0  0  0
 19 21  1  0  0  0  0
 21 22  1  0  0  0  0
M  END
> <s_m_source_file>
AV-unprocessed.smi

> <i_m_source_file_index>
1363

> <i_lp_mmshare_version>
43012

> <i_f3d_flags>
0

> <s_epik_input>
W0NIM11jMW5jKFtDSDNdKWMoYyg9TylbbkhdMSlbQ0gyXUMoPU8pW05IXVtDSDJdW0NIMl1DMj1bQ0hdW0NIMl1bQ0gyXVtDSDJdW0NIMl0y

> <s_epik_cmdline>
J2VwaWtfcHl0aG9uJywgJy1waCcsICc3LjAnLCAnLXRuJywgJzgnLCAnLW1hJywgJzIwMCcsICctbWV0YWxfYmluZGluZycsICctaW1hZScsICc8aW5maWxlLm1hZT4nLCAnLW9tYWUnLCAnPG91dGZpbGUubWFlPic=

> <r_lp_tautomer_probability>
0.839158

> <r_epik_Ionization_Penalty>
0.000390001

> <r_epik_Ionization_Penalty_Charging>
0.000357609

> <r_epik_Ionization_Penalty_Neutral>
3.23917e-05

> <r_epik_State_Penalty>
0.0470088

> <r_epik_Charging_Adjusted_Penalty>
0.0473664

> <i_epik_Tot_Q>
0

> <i_epik_Tot_abs_Q>
0

> <r_epik_Metal_State_Penalty>
0.223611

> <b_epik_Metal_Only>
0

> <s_lp_Force_Field>
OPLS_2005

> <r_lp_Energy>
9.33337

> <b_lp_Chiralities_Consistent>
1

> <s_lp_Variant>
AV-unprocessed.smi:1363-1

> <Gold.Version>
5.8.1

> <Gold.Id.Protein>
6NUR|6NUR_protein|mol2

> <Gold.PLP.Fitness>
52.3122

> <Gold.PLP.PLP>
-46.2848

> <Gold.PLP.part.hbond>
-4.0000

> <Gold.PLP.part.metal>
0.0000

> <Gold.PLP.part.buried>
-5.5496

> <Gold.PLP.part.nonpolar>
-37.3401

> <Gold.PLP.part.repulsive>
0.4880

> <Gold.PLP.ligand.clash>
0.0000

> <Gold.PLP.ligand.torsion>
0.9033

> <Gold.PLP.Chemscore.Hbond>
2.6076

> <Gold.PLP.Chemscore.CHOScore>
0.0000

> <Gold.PLP.Chemscore.Metal>
0.0000

> <Gold.Chemscore.Hbonds>
donor molecule, donor type, donor heavy atom, donor atom, acceptor molecule, acceptor atom, score
      L1  H    10    31       P1  8028  1.00
      L1  H    21    22       P1  7957  1.00
      P1  H  7989  7998       L1    20  0.02
      P1  H  8011  8017       L1    20  0.62

> <Gold.PLP.Chemscore.Internal.Correction>
0.0112

> <Gold.Rescore>
     Score         DG    S(hbond)    S(metal)    S(lipo)     H(rot)  DE(clash)    DE(int)     intcor
     19.82     -22.04       2.63        0.00     107.36       1.86       0.25       1.97       ----

> <Gold.Chemscore.Fitness>
19.8154

> <Gold.Chemscore.DG>
-22.0401

> <Gold.Chemscore.ZeroCoef>
-5.4800

> <Gold.Chemscore.Hbond>
2.6255

> <Gold.Chemscore.Metal>
0.0000

> <Gold.Chemscore.Lipo>
107.3567

> <Gold.Chemscore.Internal_Hbond>
0.0000

> <Gold.Chemscore.DEClash>
0.2530

> <Gold.Chemscore.DEInternal>
1.9717

> <Gold.Chemscore.Rot>
1.8631

> <Gold.Chemscore.Internal.Correction>
   9.000000E+99

> <Gold.Chemscore.Hbonds>
donor molecule, donor type, donor heavy atom, donor atom, acceptor molecule, acceptor atom, score
      L1  H    10    31       P1  8028  0.95
      L1  H    21    22       P1  7957  0.98
      P1  H  7989  7998       L1    20  0.03
      P1  H  8011  8017       L1    20  0.59

> <Gold.Chemscore.Hbond.Weighted>
-8.7690

> <Gold.Chemscore.Metal.Weighted>
-0.0000

> <Gold.Chemscore.Lipo.Weighted>
-12.5607

> <Gold.Chemscore.Internal_Hbond.Weighted>
0.0000

> <Gold.Chemscore.DEClash.Weighted>
0.2530

> <Gold.Chemscore.DEInternal.Weighted>
1.9717

> <Gold.Chemscore.Rot.Weighted>
4.7697

> <Gold.Chemscore.Internal.Correction.Weighted>
   9.000000E+99

> <Gold.Protein.RotatedTorsions>
[ 6907 6896 6895 6894 ] final  -81.51 input  -60.11 | X-H torsion
[ 7974 7965 7964 7962 ] final -127.74 input  175.53 | X-H torsion
[ 8008 7997 7996 7995 ] final   -7.89 input   59.86 | X-H torsion
[ 10167 10162 10161 10158 ] final  -57.50 input  -65.29 | X-H torsion
[ 10718 10713 10712 10709 ] final  -70.41 input   66.30 | X-H torsion
[ 10763 10752 10751 10750 ] final -137.23 input  -60.55 | X-H torsion
[ 11005 11000 10999 10996 ] final   -1.65 input  -57.11 | X-H torsion

> <Gold.Protein.ActiveResidues>
 VAL166  LYS551  ARG553  GLY616  TRP617  ASP618  TYR619  PRO620  LYS621  CYS622 
 ASP623  PHE694  ASN695  SER759  ASP760  ASP761  ALA762  ILE779  LEU786  VAL792 
 PHE793  MET794  SER795  GLU796  ALA797  LYS798  CYS799  TRP800  GLU811  SER814 

> <Gold.Protein.RotatedAtoms>
  150.6911  134.3807  159.5032 H   0  0  0  0  0  0  0  0  0  0  0  0  # atno 6907 bound_to 6896
  152.1609  134.8910  160.0551 H   0  0  0  0  0  0  0  0  0  0  0  0  # atno 6908 bound_to 6896
  151.9972  133.3777  159.4204 H   0  0  0  0  0  0  0  0  0  0  0  0  # atno 6909 bound_to 6896
  144.9741  140.7575  143.4652 H   0  0  0  0  0  0  0  0  0  0  0  0  # atno 7974 bound_to 7965
  154.5794  140.2395  155.8076 H   0  0  0  0  0  0  0  0  0  0  0  0  # atno 8008 bound_to 7997
  156.2167  140.3010  155.9813 H   0  0  0  0  0  0  0  0  0  0  0  0  # atno 8009 bound_to 7997
  155.2569  140.0413  157.2983 H   0  0  0  0  0  0  0  0  0  0  0  0  # atno 8010 bound_to 7997
  140.6254  143.2436  151.5376 H   0  0  0  0  0  0  0  0  0  0  0  0  # atno 10167 bound_to 10162
  156.0409  130.4331  150.2291 H   0  0  0  0  0  0  0  0  0  0  0  0  # atno 10718 bound_to 10713
  154.8666  135.3648  154.5190 H   0  0  0  0  0  0  0  0  0  0  0  0  # atno 10763 bound_to 10752
  153.5821  135.7018  153.5463 H   0  0  0  0  0  0  0  0  0  0  0  0  # atno 10764 bound_to 10752
  153.3448  135.4088  155.1562 H   0  0  0  0  0  0  0  0  0  0  0  0  # atno 10765 bound_to 10752
  140.6496  133.9416  155.8372 H   0  0  0  0  0  0  0  0  0  0  0  0  # atno 11005 bound_to 11000
  145.2516  139.2029  143.4939 LP  0  0  0  0  0  0  0  0  0  0  0  0  # atno 17320 bound_to 7965
  146.3390  140.2430  142.8596 LP  0  0  0  0  0  0  0  0  0  0  0  0  # atno 17321 bound_to 7965
  139.5475  144.2482  152.1470 LP  0  0  0  0  0  0  0  0  0  0  0  0  # atno 17342 bound_to 10162
  140.1712  144.4934  150.6578 LP  0  0  0  0  0  0  0  0  0  0  0  0  # atno 17343 bound_to 10162
  157.0386  131.0028  151.3290 LP  0  0  0  0  0  0  0  0  0  0  0  0  # atno 17370 bound_to 10713
  157.5226  130.8007  149.7826 LP  0  0  0  0  0  0  0  0  0  0  0  0  # atno 17371 bound_to 10713
  141.0546  134.0435  157.3739 LP  0  0  0  0  0  0  0  0  0  0  0  0  # atno 17394 bound_to 11000
  139.9050  135.0177  156.7446 LP  0  0  0  0  0  0  0  0  0  0  0  0  # atno 17395 bound_to 11000

$$$$
