AV-unprocessed.smi:1010|AV-procd|sdf|4416|dock5
  -GOLD-   22720 2363D 1   1.00000     0.00000
 Structure written by MMmdl.
 56 58  0  0  0  0  0  0  0  0  3 V2000
  145.4230  135.2490  150.9157 C   0  0  0  0  0  0  0  0  0  0  0  0
  145.6379  134.7169  152.2856 N   0  3  0  0  0  0  0  0  0  0  0  0
  145.5583  133.2323  152.2748 C   0  0  0  0  0  0  0  0  0  0  0  0
  144.8800  135.3939  153.4045 C   0  0  0  0  0  0  0  0  0  0  0  0
  145.1837  136.9264  153.3448 C   0  0  0  0  0  0  0  0  0  0  0  0
  146.6126  137.2414  153.3296 N   0  0  0  0  0  0  0  0  0  0  0  0
  147.2518  138.0487  154.1878 C   0  0  0  0  0  0  0  0  0  0  0  0
  146.6997  138.6088  155.1337 O   0  0  0  0  0  0  0  0  0  0  0  0
  148.5516  138.1648  153.8701 N   0  0  0  0  0  0  0  0  0  0  0  0
  149.5539  138.9385  154.5225 C   0  0  0  0  0  0  0  0  0  0  0  0
  150.8824  138.4757  154.7054 C   0  0  0  0  0  0  0  0  0  0  0  0
  151.8297  139.3039  155.3392 C   0  0  0  0  0  0  0  0  0  0  0  0
  151.4398  140.5848  155.7713 C   0  0  0  0  0  0  0  0  0  0  0  0
  150.1724  141.0015  155.5697 N   0  3  0  0  0  0  0  0  0  0  0  0
  149.2229  140.2441  154.9675 C   0  0  0  0  0  0  0  0  0  0  0  0
  147.9307  140.7737  154.8057 N   0  0  0  0  0  0  0  0  0  0  0  0
  147.3087  141.2871  156.0150 C   0  0  0  0  0  0  0  0  0  0  0  0
  146.1273  142.1351  155.5369 C   0  0  0  0  0  0  0  0  0  0  0  0
  146.4619  142.4950  154.0839 C   0  0  0  0  0  0  0  0  0  0  0  0
  147.8145  141.8303  153.8148 C   0  0  0  0  0  0  0  0  0  0  0  0
  143.3401  135.1660  153.2846 C   0  0  0  0  0  0  0  0  0  0  0  0
  142.5580  135.6838  154.5044 C   0  0  0  0  0  0  0  0  0  0  0  0
  143.0385  135.0403  155.6769 O   0  0  0  0  0  0  0  0  0  0  0  0
  144.4065  135.3189  155.9433 C   0  0  0  0  0  0  0  0  0  0  0  0
  145.2963  134.8197  154.7873 C   0  0  0  0  0  0  0  0  0  0  0  0
  144.3687  135.2209  150.6384 H   0  0  0  0  0  0  0  0  0  0  0  0
  145.9748  134.6600  150.1823 H   0  0  0  0  0  0  0  0  0  0  0  0
  145.7902  136.2706  150.8185 H   0  0  0  0  0  0  0  0  0  0  0  0
  144.5828  132.8881  151.9288 H   0  0  0  0  0  0  0  0  0  0  0  0
  145.7461  132.7944  153.2532 H   0  0  0  0  0  0  0  0  0  0  0  0
  146.3091  132.8218  151.5989 H   0  0  0  0  0  0  0  0  0  0  0  0
  144.7675  137.3764  152.4460 H   0  0  0  0  0  0  0  0  0  0  0  0
  144.6921  137.4617  154.1568 H   0  0  0  0  0  0  0  0  0  0  0  0
  147.1520  136.8307  152.5808 H   0  0  0  0  0  0  0  0  0  0  0  0
  148.8408  137.7188  153.0116 H   0  0  0  0  0  0  0  0  0  0  0  0
  151.1980  137.5039  154.3582 H   0  0  0  0  0  0  0  0  0  0  0  0
  152.8442  138.9624  155.4862 H   0  0  0  0  0  0  0  0  0  0  0  0
  152.0994  141.2859  156.2623 H   0  0  0  0  0  0  0  0  0  0  0  0
  146.9825  140.4746  156.6649 H   0  0  0  0  0  0  0  0  0  0  0  0
  148.0105  141.9063  156.5756 H   0  0  0  0  0  0  0  0  0  0  0  0
  145.2044  141.5550  155.5723 H   0  0  0  0  0  0  0  0  0  0  0  0
  145.9885  143.0176  156.1622 H   0  0  0  0  0  0  0  0  0  0  0  0
  145.7001  142.0897  153.4169 H   0  0  0  0  0  0  0  0  0  0  0  0
  146.5053  143.5724  153.9223 H   0  0  0  0  0  0  0  0  0  0  0  0
  148.6201  142.5563  153.9337 H   0  0  0  0  0  0  0  0  0  0  0  0
  147.8697  141.4287  152.8025 H   0  0  0  0  0  0  0  0  0  0  0  0
  142.9440  135.6084  152.3701 H   0  0  0  0  0  0  0  0  0  0  0  0
  143.1075  134.1028  153.2323 H   0  0  0  0  0  0  0  0  0  0  0  0
  142.6186  136.7673  154.6062 H   0  0  0  0  0  0  0  0  0  0  0  0
  141.5004  135.4451  154.3920 H   0  0  0  0  0  0  0  0  0  0  0  0
  144.5435  136.3851  156.1250 H   0  0  0  0  0  0  0  0  0  0  0  0
  144.6868  134.8131  156.8673 H   0  0  0  0  0  0  0  0  0  0  0  0
  145.2412  133.7307  154.7640 H   0  0  0  0  0  0  0  0  0  0  0  0
  146.3322  135.0685  155.0185 H   0  0  0  0  0  0  0  0  0  0  0  0
  146.6072  134.9211  152.4834 H   0  0  0  0  0  0  0  0  0  0  0  0
  149.9163  141.9365  155.8876 H   0  0  0  0  0  0  0  0  0  0  0  0
  1  2  1  0  0  0  0
  1 26  1  0  0  0  0
  1 27  1  0  0  0  0
  1 28  1  0  0  0  0
  2  3  1  0  0  0  0
  2  4  1  0  0  0  0
  2 55  1  0  0  0  0
  3 29  1  0  0  0  0
  3 30  1  0  0  0  0
  3 31  1  0  0  0  0
  4 25  1  0  0  0  0
  4  5  1  0  0  0  0
  4 21  1  0  0  0  0
  5  6  1  0  0  0  0
  5 32  1  0  0  0  0
  5 33  1  0  0  0  0
  6  7  1  0  0  0  0
  6 34  1  0  0  0  0
  7  8  2  0  0  0  0
  7  9  1  0  0  0  0
  9 10  1  0  0  0  0
  9 35  1  0  0  0  0
 10 15  1  0  0  0  0
 10 11  2  0  0  0  0
 11 12  1  0  0  0  0
 11 36  1  0  0  0  0
 12 13  2  0  0  0  0
 12 37  1  0  0  0  0
 13 14  1  0  0  0  0
 13 38  1  0  0  0  0
 14 15  2  0  0  0  0
 14 56  1  0  0  0  0
 15 16  1  0  0  0  0
 16 20  1  0  0  0  0
 16 17  1  0  0  0  0
 17 18  1  0  0  0  0
 17 39  1  0  0  0  0
 17 40  1  0  0  0  0
 18 19  1  0  0  0  0
 18 41  1  0  0  0  0
 18 42  1  0  0  0  0
 19 20  1  0  0  0  0
 19 43  1  0  0  0  0
 19 44  1  0  0  0  0
 20 45  1  0  0  0  0
 20 46  1  0  0  0  0
 21 22  1  0  0  0  0
 21 47  1  0  0  0  0
 21 48  1  0  0  0  0
 22 23  1  0  0  0  0
 22 49  1  0  0  0  0
 22 50  1  0  0  0  0
 23 24  1  0  0  0  0
 24 25  1  0  0  0  0
 24 51  1  0  0  0  0
 24 52  1  0  0  0  0
 25 53  1  0  0  0  0
 25 54  1  0  0  0  0
M  CHG  1   2   1
M  CHG  1  14   1
M  END
> <s_m_source_file>
AV-unprocessed.smi

> <i_m_source_file_index>
1010

> <i_lp_mmshare_version>
43012

> <i_f3d_flags>
0

> <s_epik_input>
W0NIMl0xW0NIMl1PW0NIMl1bQ0gyXUMxKE4oW0NIM10pW0NIM10pW0NIMl1bTkhdQyg9TylbTkhdYzJbY0hdW2NIXVtjSF1uYzJOM1tDSDJdW0NIMl1bQ0gyXVtDSDJdMw==

> <s_epik_cmdline>
J2VwaWtfcHl0aG9uJywgJy1waCcsICc3LjAnLCAnLXRuJywgJzgnLCAnLW1hJywgJzIwMCcsICctbWV0YWxfYmluZGluZycsICctaW1hZScsICc8aW5maWxlLm1hZT4nLCAnLW9tYWUnLCAnPG91dGZpbGUubWFlPic=

> <r_lp_tautomer_probability>
0.999994

> <r_epik_Ionization_Penalty>
1.20932

> <r_epik_Ionization_Penalty_Charging>
1.2093

> <r_epik_Ionization_Penalty_Neutral>
2.0507e-05

> <r_epik_State_Penalty>
1.27047

> <r_epik_Charging_Adjusted_Penalty>
2.47977

> <i_epik_Tot_Q>
2

> <i_epik_Tot_abs_Q>
2

> <r_epik_Metal_State_Penalty>
1.34666

> <b_epik_Metal_Only>
0

> <s_lp_Force_Field>
OPLS_2005

> <r_lp_Energy>
72.2457

> <b_lp_Chiralities_Consistent>
1

> <s_lp_Variant>
AV-unprocessed.smi:1010-2

> <Gold.Version>
5.8.1

> <Gold.Id.Protein>
6NUR|6NUR_protein|mol2

> <Gold.PLP.Fitness>
40.9505

> <Gold.PLP.PLP>
-36.1299

> <Gold.PLP.part.hbond>
-3.0000

> <Gold.PLP.part.metal>
0.0000

> <Gold.PLP.part.buried>
-6.1359

> <Gold.PLP.part.nonpolar>
-27.3674

> <Gold.PLP.part.repulsive>
0.3876

> <Gold.PLP.ligand.clash>
0.0000

> <Gold.PLP.ligand.torsion>
0.5741

> <Gold.PLP.Chemscore.Hbond>
1.9440

> <Gold.PLP.Chemscore.CHOScore>
0.0000

> <Gold.PLP.Chemscore.Metal>
0.0000

> <Gold.Chemscore.Hbonds>
donor molecule, donor type, donor heavy atom, donor atom, acceptor molecule, acceptor atom, score
      L1  H     6    34       P1  7948  0.99
      L1  H     9    35       P1  7948  1.00

> <Gold.PLP.Chemscore.Internal.Correction>
0.1369

> <Gold.Rescore>
     Score         DG    S(hbond)    S(metal)    S(lipo)     H(rot)  DE(clash)    DE(int)     intcor
     12.69     -19.15       2.68        0.00      76.08       1.63       0.20       6.25       ----

> <Gold.Chemscore.Fitness>
12.6914

> <Gold.Chemscore.DG>
-19.1468

> <Gold.Chemscore.ZeroCoef>
-5.4800

> <Gold.Chemscore.Hbond>
2.6786

> <Gold.Chemscore.Metal>
0.0000

> <Gold.Chemscore.Lipo>
76.0803

> <Gold.Chemscore.Internal_Hbond>
0.0000

> <Gold.Chemscore.DEClash>
0.2042

> <Gold.Chemscore.DEInternal>
6.2512

> <Gold.Chemscore.Rot>
1.6332

> <Gold.Chemscore.Internal.Correction>
   9.000000E+99

> <Gold.Chemscore.Hbonds>
donor molecule, donor type, donor heavy atom, donor atom, acceptor molecule, acceptor atom, score
      L1  H     6    34       P1  7948  0.89
      L1  H     9    35       P1  7948  0.98

> <Gold.Chemscore.Hbond.Weighted>
-8.9465

> <Gold.Chemscore.Metal.Weighted>
-0.0000

> <Gold.Chemscore.Lipo.Weighted>
-8.9014

> <Gold.Chemscore.Internal_Hbond.Weighted>
0.0000

> <Gold.Chemscore.DEClash.Weighted>
0.2042

> <Gold.Chemscore.DEInternal.Weighted>
6.2512

> <Gold.Chemscore.Rot.Weighted>
4.1810

> <Gold.Chemscore.Internal.Correction.Weighted>
   9.000000E+99

> <Gold.Protein.RotatedTorsions>
[ 6907 6896 6895 6894 ] final   57.11 input  -60.11 | X-H torsion
[ 7974 7965 7964 7962 ] final   35.82 input  175.53 | X-H torsion
[ 8008 7997 7996 7995 ] final  -71.11 input   59.86 | X-H torsion
[ 10167 10162 10161 10158 ] final  145.54 input  -65.29 | X-H torsion
[ 10718 10713 10712 10709 ] final  -13.85 input   66.30 | X-H torsion
[ 10763 10752 10751 10750 ] final  171.97 input  -60.55 | X-H torsion
[ 11005 11000 10999 10996 ] final   71.32 input  -57.11 | X-H torsion

> <Gold.Protein.ActiveResidues>
 VAL166  LYS551  ARG553  GLY616  TRP617  ASP618  TYR619  PRO620  LYS621  CYS622 
 ASP623  PHE694  ASN695  SER759  ASP760  ASP761  ALA762  ILE779  LEU786  VAL792 
 PHE793  MET794  SER795  GLU796  ALA797  LYS798  CYS799  TRP800  GLU811  SER814 

> <Gold.Protein.RotatedAtoms>
  152.3700  134.6748  160.0178 H   0  0  0  0  0  0  0  0  0  0  0  0  # atno 6907 bound_to 6896
  151.7044  133.3306  159.3283 H   0  0  0  0  0  0  0  0  0  0  0  0  # atno 6908 bound_to 6896
  150.7666  134.6522  159.6339 H   0  0  0  0  0  0  0  0  0  0  0  0  # atno 6909 bound_to 6896
  146.1256  139.6094  142.9261 H   0  0  0  0  0  0  0  0  0  0  0  0  # atno 7974 bound_to 7965
  154.5063  140.0822  156.7900 H   0  0  0  0  0  0  0  0  0  0  0  0  # atno 8008 bound_to 7997
  155.3887  140.3431  155.4232 H   0  0  0  0  0  0  0  0  0  0  0  0  # atno 8009 bound_to 7997
  156.1519  140.1561  156.8743 H   0  0  0  0  0  0  0  0  0  0  0  0  # atno 8010 bound_to 7997
  139.4924  144.5894  151.6712 H   0  0  0  0  0  0  0  0  0  0  0  0  # atno 10167 bound_to 10162
  156.6243  130.4884  149.6153 H   0  0  0  0  0  0  0  0  0  0  0  0  # atno 10718 bound_to 10713
  154.4195  135.2757  155.1985 H   0  0  0  0  0  0  0  0  0  0  0  0  # atno 10763 bound_to 10752
  154.3936  135.6060  153.5861 H   0  0  0  0  0  0  0  0  0  0  0  0  # atno 10764 bound_to 10752
  152.9832  135.5909  154.4489 H   0  0  0  0  0  0  0  0  0  0  0  0  # atno 10765 bound_to 10752
  139.9550  134.7160  156.0774 H   0  0  0  0  0  0  0  0  0  0  0  0  # atno 11005 bound_to 11000
  145.5373  141.0423  143.2350 LP  0  0  0  0  0  0  0  0  0  0  0  0  # atno 17320 bound_to 7965
  144.7639  139.6892  143.7223 LP  0  0  0  0  0  0  0  0  0  0  0  0  # atno 17321 bound_to 7965
  140.5517  144.0414  150.6130 LP  0  0  0  0  0  0  0  0  0  0  0  0  # atno 17342 bound_to 10162
  140.3470  143.2985  152.0528 LP  0  0  0  0  0  0  0  0  0  0  0  0  # atno 17343 bound_to 10162
  156.2286  130.6781  151.1441 LP  0  0  0  0  0  0  0  0  0  0  0  0  # atno 17370 bound_to 10713
  157.7218  131.0676  150.6101 LP  0  0  0  0  0  0  0  0  0  0  0  0  # atno 17371 bound_to 10713
  141.1220  133.6610  156.3239 LP  0  0  0  0  0  0  0  0  0  0  0  0  # atno 17394 bound_to 11000
  140.5630  134.5915  157.5438 LP  0  0  0  0  0  0  0  0  0  0  0  0  # atno 17395 bound_to 11000

$$$$
