AV-unprocessed.smi:3329|AV-procd|sdf|12796|dock4
  -GOLD-   2272019153D 1   1.00000     0.00000
 Structure written by MMmdl.
 42 43  0  0  0  0  0  0  0  0  2 V2000
  148.0970  131.8675  153.2026 C   0  0  0  0  0  0  0  0  0  0  0  0
  146.9618  132.5677  152.5127 C   0  0  0  0  0  0  0  0  0  0  0  0
  145.7227  132.0099  152.0877 C   0  0  0  0  0  0  0  0  0  0  0  0
  144.9323  132.8981  151.5072 N   0  0  0  0  0  0  0  0  0  0  0  0
  145.6331  134.0515  151.5445 N   0  0  0  0  0  0  0  0  0  0  0  0
  145.0692  135.2628  150.9731 C   0  0  0  0  0  0  0  0  0  0  0  0
  145.3936  136.5185  151.8005 C   0  0  0  0  0  0  0  0  0  0  0  0
  146.3325  137.4052  151.0856 N   0  3  0  0  0  0  0  0  0  0  0  0
  146.5842  138.6942  151.7603 C   0  0  0  0  0  0  0  0  0  0  0  0
  147.1442  138.5016  153.1703 C   0  0  0  0  0  0  0  0  0  0  0  0
  146.4486  137.9964  154.0512 O   0  0  0  0  0  0  0  0  0  0  0  0
  148.4105  138.9113  153.3592 N   0  0  0  0  0  0  0  0  0  0  0  0
  149.2162  138.8525  154.5870 C   0  0  2  0  0  0  0  0  0  0  0  0
  149.1166  137.4036  155.0919 C   0  0  0  0  0  0  0  0  0  0  0  0
  148.6717  139.7316  155.6406 C   0  0  0  0  0  0  0  0  0  0  0  0
  148.2443  140.4192  156.4677 N   0  0  0  0  0  0  0  0  0  0  0  0
  150.6959  139.2035  154.4125 C   0  0  0  0  0  0  0  0  0  0  0  0
  151.8159  138.1861  154.4027 C   0  0  0  0  0  0  0  0  0  0  0  0
  151.6800  139.1513  155.5595 C   0  0  0  0  0  0  0  0  0  0  0  0
  146.8670  133.8774  152.1353 C   0  0  0  0  0  0  0  0  0  0  0  0
  148.7057  131.3002  152.4984 H   0  0  0  0  0  0  0  0  0  0  0  0
  147.7389  131.1659  153.9564 H   0  0  0  0  0  0  0  0  0  0  0  0
  148.7601  132.5698  153.7082 H   0  0  0  0  0  0  0  0  0  0  0  0
  145.3767  130.9911  152.1830 H   0  0  0  0  0  0  0  0  0  0  0  0
  145.4434  135.3764  149.9545 H   0  0  0  0  0  0  0  0  0  0  0  0
  143.9890  135.1326  150.8980 H   0  0  0  0  0  0  0  0  0  0  0  0
  144.4753  137.0682  152.0093 H   0  0  0  0  0  0  0  0  0  0  0  0
  145.8191  136.2376  152.7648 H   0  0  0  0  0  0  0  0  0  0  0  0
  147.2149  136.9226  150.9891 H   0  0  0  0  0  0  0  0  0  0  0  0
  147.2937  139.2802  151.1750 H   0  0  0  0  0  0  0  0  0  0  0  0
  145.6529  139.2602  151.8138 H   0  0  0  0  0  0  0  0  0  0  0  0
  148.8791  139.3103  152.5587 H   0  0  0  0  0  0  0  0  0  0  0  0
  149.6608  137.2713  156.0279 H   0  0  0  0  0  0  0  0  0  0  0  0
  149.5313  136.6999  154.3687 H   0  0  0  0  0  0  0  0  0  0  0  0
  148.0801  137.1173  155.2764 H   0  0  0  0  0  0  0  0  0  0  0  0
  150.8426  140.0299  153.7187 H   0  0  0  0  0  0  0  0  0  0  0  0
  151.5897  137.1425  154.6007 H   0  0  0  0  0  0  0  0  0  0  0  0
  152.6347  138.3537  153.7060 H   0  0  0  0  0  0  0  0  0  0  0  0
  152.4081  139.9567  155.6304 H   0  0  0  0  0  0  0  0  0  0  0  0
  151.3433  138.7464  156.5114 H   0  0  0  0  0  0  0  0  0  0  0  0
  147.5684  134.6920  152.2410 H   0  0  0  0  0  0  0  0  0  0  0  0
  145.9678  137.5926  150.1623 H   0  0  0  0  0  0  0  0  0  0  0  0
  1  2  1  0  0  0  0
  1 21  1  0  0  0  0
  1 22  1  0  0  0  0
  1 23  1  0  0  0  0
  2 20  2  0  0  0  0
  2  3  1  0  0  0  0
  3  4  2  0  0  0  0
  3 24  1  0  0  0  0
  4  5  1  0  0  0  0
  5  6  1  0  0  0  0
  5 20  1  0  0  0  0
  6  7  1  0  0  0  0
  6 25  1  0  0  0  0
  6 26  1  0  0  0  0
  7  8  1  0  0  0  0
  7 27  1  0  0  0  0
  7 28  1  0  0  0  0
  8  9  1  0  0  0  0
  8 29  1  0  0  0  0
  8 42  1  0  0  0  0
  9 10  1  0  0  0  0
  9 30  1  0  0  0  0
  9 31  1  0  0  0  0
 10 11  2  0  0  0  0
 10 12  1  0  0  0  0
 12 13  1  0  0  0  0
 12 32  1  0  0  0  0
 13 14  1  0  0  0  0
 13 15  1  0  0  0  0
 13 17  1  0  0  0  0
 14 33  1  0  0  0  0
 14 34  1  0  0  0  0
 14 35  1  0  0  0  0
 15 16  3  0  0  0  0
 17 19  1  0  0  0  0
 17 18  1  0  0  0  0
 17 36  1  0  0  0  0
 18 19  1  0  0  0  0
 18 37  1  0  0  0  0
 18 38  1  0  0  0  0
 19 39  1  0  0  0  0
 19 40  1  0  0  0  0
 20 41  1  0  0  0  0
M  CHG  1   8   1
M  END
> <s_m_source_file>
AV-unprocessed.smi

> <i_m_source_file_index>
3329

> <i_lp_mmshare_version>
43012

> <i_f3d_flags>
0

> <s_epik_input>
W0NIM11jMVtjSF1ubihbY0hdMSlbQ0gyXVtDSDJdW05IXVtDSDJdQyg9TylbTkhdW0NAQF0oW0NIM10pKEMjTilbQ0hdMltDSDJdW0NIMl0y

> <s_epik_cmdline>
J2VwaWtfcHl0aG9uJywgJy1waCcsICc3LjAnLCAnLXRuJywgJzgnLCAnLW1hJywgJzIwMCcsICctbWV0YWxfYmluZGluZycsICctaW1hZScsICc8aW5maWxlLm1hZT4nLCAnLW9tYWUnLCAnPG91dGZpbGUubWFlPic=

> <r_lp_tautomer_probability>
1

> <r_epik_Ionization_Penalty>
0.350291

> <r_epik_Ionization_Penalty_Charging>
0.350239

> <r_epik_Ionization_Penalty_Neutral>
5.12768e-05

> <r_epik_State_Penalty>
0.347656

> <r_epik_Charging_Adjusted_Penalty>
0.697895

> <i_epik_Tot_Q>
1

> <i_epik_Tot_abs_Q>
1

> <r_epik_Metal_State_Penalty>
0.371739

> <b_epik_Metal_Only>
0

> <s_lp_Force_Field>
OPLS_2005

> <r_lp_Energy>
13.221

> <b_lp_Chiralities_Consistent>
1

> <s_lp_Variant>
AV-unprocessed.smi:3329-2

> <Gold.Version>
5.8.1

> <Gold.Id.Protein>
6NUR|6NUR_protein|mol2

> <Gold.PLP.Fitness>
46.3039

> <Gold.PLP.PLP>
-35.9738

> <Gold.PLP.part.hbond>
-3.8865

> <Gold.PLP.part.metal>
0.0000

> <Gold.PLP.part.buried>
-3.1594

> <Gold.PLP.part.nonpolar>
-30.7731

> <Gold.PLP.part.repulsive>
0.4240

> <Gold.PLP.ligand.clash>
0.0000

> <Gold.PLP.ligand.torsion>
1.8005

> <Gold.PLP.Chemscore.Hbond>
3.1282

> <Gold.PLP.Chemscore.CHOScore>
1.0000

> <Gold.PLP.Chemscore.Metal>
0.0000

> <Gold.Chemscore.Hbonds>
donor molecule, donor type, donor heavy atom, donor atom, acceptor molecule, acceptor atom, score
      L1  H     8    29       P1  7948  2.00
      L1  H     8    42       P1 10171  0.11
      L1  H    12    32       P1  7957  1.00
      L1  C    20    41       P1  7948  1.00

> <Gold.PLP.Chemscore.Internal.Correction>
1.5466

> <Gold.Rescore>
     Score         DG    S(hbond)    S(metal)    S(lipo)     H(rot)  DE(clash)    DE(int)     intcor
     11.06     -15.44       2.12        0.00      77.03       2.40       0.02       4.35       ----

> <Gold.Chemscore.Fitness>
11.0599

> <Gold.Chemscore.DG>
-15.4390

> <Gold.Chemscore.ZeroCoef>
-5.4800

> <Gold.Chemscore.Hbond>
2.1206

> <Gold.Chemscore.Metal>
0.0000

> <Gold.Chemscore.Lipo>
77.0339

> <Gold.Chemscore.Internal_Hbond>
0.0000

> <Gold.Chemscore.DEClash>
0.0245

> <Gold.Chemscore.DEInternal>
4.3545

> <Gold.Chemscore.Rot>
2.3972

> <Gold.Chemscore.Internal.Correction>
   9.000000E+99

> <Gold.Chemscore.Hbonds>
donor molecule, donor type, donor heavy atom, donor atom, acceptor molecule, acceptor atom, score
      L1  H     8    29       P1  7948  0.90
      L1  H     8    42       P1 10171  0.12
      L1  H    12    32       P1  7957  1.00

> <Gold.Chemscore.Hbond.Weighted>
-7.0829

> <Gold.Chemscore.Metal.Weighted>
-0.0000

> <Gold.Chemscore.Lipo.Weighted>
-9.0130

> <Gold.Chemscore.Internal_Hbond.Weighted>
0.0000

> <Gold.Chemscore.DEClash.Weighted>
0.0245

> <Gold.Chemscore.DEInternal.Weighted>
4.3545

> <Gold.Chemscore.Rot.Weighted>
6.1369

> <Gold.Chemscore.Internal.Correction.Weighted>
   9.000000E+99

> <Gold.Protein.RotatedTorsions>
[ 6907 6896 6895 6894 ] final  -21.64 input  -60.11 | X-H torsion
[ 7974 7965 7964 7962 ] final  -47.23 input  175.53 | X-H torsion
[ 8008 7997 7996 7995 ] final  113.16 input   59.86 | X-H torsion
[ 10167 10162 10161 10158 ] final   21.44 input  -65.29 | X-H torsion
[ 10718 10713 10712 10709 ] final   71.88 input   66.30 | X-H torsion
[ 10763 10752 10751 10750 ] final -100.10 input  -60.55 | X-H torsion
[ 11005 11000 10999 10996 ] final  -85.17 input  -57.11 | X-H torsion

> <Gold.Protein.ActiveResidues>
 VAL166  LYS551  ARG553  GLY616  TRP617  ASP618  TYR619  PRO620  LYS621  CYS622 
 ASP623  PHE694  ASN695  SER759  ASP760  ASP761  ALA762  ILE779  LEU786  VAL792 
 PHE793  MET794  SER795  GLU796  ALA797  LYS798  CYS799  TRP800  GLU811  SER814 

> <Gold.Protein.RotatedAtoms>
  151.2303  135.0552  159.8984 H   0  0  0  0  0  0  0  0  0  0  0  0  # atno 6907 bound_to 6896
  152.5405  134.0544  159.8134 H   0  0  0  0  0  0  0  0  0  0  0  0  # atno 6908 bound_to 6896
  151.0723  133.5408  159.2658 H   0  0  0  0  0  0  0  0  0  0  0  0  # atno 6909 bound_to 6896
  145.9638  140.7453  142.9444 H   0  0  0  0  0  0  0  0  0  0  0  0  # atno 7974 bound_to 7965
  156.2240  140.2985  156.0020 H   0  0  0  0  0  0  0  0  0  0  0  0  # atno 8008 bound_to 7997
  155.2407  140.0422  157.2991 H   0  0  0  0  0  0  0  0  0  0  0  0  # atno 8009 bound_to 7997
  154.5885  140.2395  155.7961 H   0  0  0  0  0  0  0  0  0  0  0  0  # atno 8010 bound_to 7997
  140.5426  143.9650  150.6528 H   0  0  0  0  0  0  0  0  0  0  0  0  # atno 10167 bound_to 10162
  157.6473  130.9550  150.0851 H   0  0  0  0  0  0  0  0  0  0  0  0  # atno 10718 bound_to 10713
  154.7552  135.4947  153.9362 H   0  0  0  0  0  0  0  0  0  0  0  0  # atno 10763 bound_to 10752
  153.1188  135.6727  153.9379 H   0  0  0  0  0  0  0  0  0  0  0  0  # atno 10764 bound_to 10752
  153.9117  135.3098  155.3427 H   0  0  0  0  0  0  0  0  0  0  0  0  # atno 10765 bound_to 10752
  141.1644  133.7385  156.8976 H   0  0  0  0  0  0  0  0  0  0  0  0  # atno 11005 bound_to 11000
  144.6821  140.2634  143.7316 LP  0  0  0  0  0  0  0  0  0  0  0  0  # atno 17320 bound_to 7965
  145.8003  139.1961  143.2052 LP  0  0  0  0  0  0  0  0  0  0  0  0  # atno 17321 bound_to 7965
  140.3055  143.3232  152.0930 LP  0  0  0  0  0  0  0  0  0  0  0  0  # atno 17342 bound_to 10162
  139.4995  144.6670  151.6333 LP  0  0  0  0  0  0  0  0  0  0  0  0  # atno 17343 bound_to 10162
  156.1816  130.3650  149.9028 LP  0  0  0  0  0  0  0  0  0  0  0  0  # atno 17370 bound_to 10713
  156.6979  130.8921  151.3596 LP  0  0  0  0  0  0  0  0  0  0  0  0  # atno 17371 bound_to 10713
  140.1605  134.9169  157.2708 LP  0  0  0  0  0  0  0  0  0  0  0  0  # atno 17394 bound_to 11000
  140.2617  134.3564  155.7404 LP  0  0  0  0  0  0  0  0  0  0  0  0  # atno 17395 bound_to 11000

$$$$
