AV-unprocessed.smi:2243|AV-procd|sdf|9070|dock1
  -GOLD-   2272012273D 1   1.00000     0.00000
 Structure written by MMmdl.
 33 34  0  0  0  0  0  0  0  0  2 V2000
  149.5684  134.8607  155.9527 C   0  0  0  0  0  0  0  0  0  0  0  0
  150.4058  135.9753  156.6031 C   0  0  2  0  0  0  0  0  0  0  0  0
  149.5934  136.5870  157.6569 N   0  0  0  0  0  0  0  0  0  0  0  0
  148.9427  135.9541  158.6458 C   0  0  0  0  0  0  0  0  0  0  0  0
  149.0062  134.7266  158.7435 O   0  0  0  0  0  0  0  0  0  0  0  0
  148.2637  136.7870  159.4663 N   0  5  0  0  0  0  0  0  0  0  0  0
  147.9134  136.3751  160.6954 C   0  0  0  0  0  0  0  0  0  0  0  0
  147.6578  137.1543  161.7480 N   0  0  0  0  0  0  0  0  0  0  0  0
  147.3471  136.2939  162.7897 C   0  0  0  0  0  0  0  0  0  0  0  0
  147.4368  135.0131  162.3171 C   0  0  0  0  0  0  0  0  0  0  0  0
  147.7966  135.0510  160.9983 O   0  0  0  0  0  0  0  0  0  0  0  0
  150.8911  137.0479  155.5901 C   0  0  0  0  0  0  0  0  0  0  0  0
  151.9274  138.0137  156.2006 C   0  0  0  0  0  0  0  0  0  0  0  0
  152.3335  139.1072  155.1992 C   0  0  0  0  0  0  0  0  0  0  0  0
  151.1841  139.8207  154.7611 O   0  0  0  0  0  0  0  0  0  0  0  0
  150.2553  138.9910  154.0745 C   0  0  0  0  0  0  0  0  0  0  0  0
  149.7341  137.8928  155.0147 C   0  0  0  0  0  0  0  0  0  0  0  0
  150.1565  134.2670  155.2537 H   0  0  0  0  0  0  0  0  0  0  0  0
  148.7140  135.2695  155.4122 H   0  0  0  0  0  0  0  0  0  0  0  0
  149.1848  134.1718  156.7061 H   0  0  0  0  0  0  0  0  0  0  0  0
  151.2844  135.5003  157.0425 H   0  0  0  0  0  0  0  0  0  0  0  0
  149.5091  137.5925  157.6305 H   0  0  0  0  0  0  0  0  0  0  0  0
  147.0907  136.6574  163.7737 H   0  0  0  0  0  0  0  0  0  0  0  0
  147.2885  134.0369  162.7537 H   0  0  0  0  0  0  0  0  0  0  0  0
  151.3682  136.5309  154.7559 H   0  0  0  0  0  0  0  0  0  0  0  0
  151.5146  138.4792  157.0965 H   0  0  0  0  0  0  0  0  0  0  0  0
  152.8227  137.4760  156.5109 H   0  0  0  0  0  0  0  0  0  0  0  0
  153.0220  139.8083  155.6712 H   0  0  0  0  0  0  0  0  0  0  0  0
  152.8565  138.6771  154.3437 H   0  0  0  0  0  0  0  0  0  0  0  0
  149.4267  139.6062  153.7238 H   0  0  0  0  0  0  0  0  0  0  0  0
  150.7236  138.5556  153.1905 H   0  0  0  0  0  0  0  0  0  0  0  0
  149.0319  137.2660  154.4649 H   0  0  0  0  0  0  0  0  0  0  0  0
  149.1705  138.3499  155.8290 H   0  0  0  0  0  0  0  0  0  0  0  0
  1  2  1  0  0  0  0
  1 18  1  0  0  0  0
  1 19  1  0  0  0  0
  1 20  1  0  0  0  0
  2  3  1  0  0  0  0
  2 12  1  0  0  0  0
  2 21  1  0  0  0  0
  3 22  1  0  0  0  0
  3  4  1  0  0  0  0
  4  6  1  0  0  0  0
  4  5  2  0  0  0  0
  6  7  1  0  0  0  0
  7 11  1  0  0  0  0
  7  8  2  0  0  0  0
  8  9  1  0  0  0  0
  9 23  1  0  0  0  0
  9 10  2  0  0  0  0
 10 24  1  0  0  0  0
 10 11  1  0  0  0  0
 12 17  1  0  0  0  0
 12 13  1  0  0  0  0
 12 25  1  0  0  0  0
 13 14  1  0  0  0  0
 13 26  1  0  0  0  0
 13 27  1  0  0  0  0
 14 15  1  0  0  0  0
 14 28  1  0  0  0  0
 14 29  1  0  0  0  0
 15 16  1  0  0  0  0
 16 17  1  0  0  0  0
 16 30  1  0  0  0  0
 16 31  1  0  0  0  0
 17 32  1  0  0  0  0
 17 33  1  0  0  0  0
M  CHG  1   6  -1
M  END
> <s_m_source_file>
AV-unprocessed.smi

> <i_m_source_file_index>
2243

> <i_lp_mmshare_version>
43012

> <i_f3d_flags>
0

> <s_epik_input>
W0NIMl0xW0NIMl1PW0NIMl1bQ0gyXVtDSF0xW0NASF0oW0NIM10pW05IXUMoPU8pW05IXWMybltjSF1bY0hdbzI=

> <s_epik_cmdline>
J2VwaWtfcHl0aG9uJywgJy1waCcsICc3LjAnLCAnLXRuJywgJzgnLCAnLW1hJywgJzIwMCcsICctbWV0YWxfYmluZGluZycsICctaW1hZScsICc8aW5maWxlLm1hZT4nLCAnLW9tYWUnLCAnPG91dGZpbGUubWFlPic=

> <r_lp_tautomer_probability>
0.107061

> <r_epik_Ionization_Penalty>
11.1403

> <r_epik_Ionization_Penalty_Charging>
7.81312

> <r_epik_Ionization_Penalty_Neutral>
3.32719

> <r_epik_State_Penalty>
5.94317

> <r_epik_Charging_Adjusted_Penalty>
13.7563

> <i_epik_Tot_Q>
-1

> <i_epik_Tot_abs_Q>
1

> <r_epik_Metal_State_Penalty>
1.86619

> <b_epik_Metal_Only>
1

> <s_lp_Force_Field>
OPLS_2005

> <r_lp_Energy>
6.48942

> <b_lp_Chiralities_Consistent>
1

> <s_lp_Variant>
AV-unprocessed.smi:2243-9

> <Gold.Version>
5.8.1

> <Gold.Id.Protein>
6NUR|6NUR_protein|mol2

> <Gold.PLP.Fitness>
39.6478

> <Gold.PLP.PLP>
-29.1342

> <Gold.PLP.part.hbond>
-4.0000

> <Gold.PLP.part.metal>
0.0000

> <Gold.PLP.part.buried>
-4.2803

> <Gold.PLP.part.nonpolar>
-20.8512

> <Gold.PLP.part.repulsive>
0.1245

> <Gold.PLP.ligand.clash>
0.0000

> <Gold.PLP.ligand.torsion>
0.3240

> <Gold.PLP.Chemscore.Hbond>
3.7057

> <Gold.PLP.Chemscore.CHOScore>
0.0000

> <Gold.PLP.Chemscore.Metal>
0.0000

> <Gold.Chemscore.Hbonds>
donor molecule, donor type, donor heavy atom, donor atom, acceptor molecule, acceptor atom, score
      P1  H  6896  6908       L1     5  1.00
      P1  H  6931  6943       L1     8  1.00
      P1  H  6934  6947       L1     8  0.62
      P1  H  7989  7998       L1    15  1.00

> <Gold.PLP.Chemscore.Internal.Correction>
0.0445

> <Gold.Rescore>
     Score         DG    S(hbond)    S(metal)    S(lipo)     H(rot)  DE(clash)    DE(int)     intcor
     16.53     -19.84       3.21        0.00      59.55       1.31       0.07       3.24       ----

> <Gold.Chemscore.Fitness>
16.5326

> <Gold.Chemscore.DG>
-19.8400

> <Gold.Chemscore.ZeroCoef>
-5.4800

> <Gold.Chemscore.Hbond>
3.2146

> <Gold.Chemscore.Metal>
0.0000

> <Gold.Chemscore.Lipo>
59.5508

> <Gold.Chemscore.Internal_Hbond>
0.0000

> <Gold.Chemscore.DEClash>
0.0696

> <Gold.Chemscore.DEInternal>
3.2378

> <Gold.Chemscore.Rot>
1.3063

> <Gold.Chemscore.Internal.Correction>
   9.000000E+99

> <Gold.Chemscore.Hbonds>
donor molecule, donor type, donor heavy atom, donor atom, acceptor molecule, acceptor atom, score
      P1  H  6896  6908       L1     5  0.86
      P1  H  6931  6943       L1     8  0.56
      P1  H  6934  6947       L1     8  0.33
      P1  H  7989  7998       L1    15  0.17

> <Gold.Chemscore.Hbond.Weighted>
-10.7368

> <Gold.Chemscore.Metal.Weighted>
-0.0000

> <Gold.Chemscore.Lipo.Weighted>
-6.9674

> <Gold.Chemscore.Internal_Hbond.Weighted>
0.0000

> <Gold.Chemscore.DEClash.Weighted>
0.0696

> <Gold.Chemscore.DEInternal.Weighted>
3.2378

> <Gold.Chemscore.Rot.Weighted>
3.3443

> <Gold.Chemscore.Internal.Correction.Weighted>
   9.000000E+99

> <Gold.Protein.RotatedTorsions>
[ 6907 6896 6895 6894 ] final  138.78 input  -60.11 | X-H torsion
[ 7974 7965 7964 7962 ] final -152.17 input  175.53 | X-H torsion
[ 8008 7997 7996 7995 ] final  173.19 input   59.86 | X-H torsion
[ 10167 10162 10161 10158 ] final   41.83 input  -65.29 | X-H torsion
[ 10718 10713 10712 10709 ] final  152.60 input   66.30 | X-H torsion
[ 10763 10752 10751 10750 ] final  -16.93 input  -60.55 | X-H torsion
[ 11005 11000 10999 10996 ] final  -79.12 input  -57.11 | X-H torsion

> <Gold.Protein.ActiveResidues>
 VAL166  LYS551  ARG553  GLY616  TRP617  ASP618  TYR619  PRO620  LYS621  CYS622 
 ASP623  PHE694  ASN695  SER759  ASP760  ASP761  ALA762  ILE779  LEU786  VAL792 
 PHE793  MET794  SER795  GLU796  ALA797  LYS798  CYS799  TRP800  GLU811  SER814 

> <Gold.Protein.RotatedAtoms>
  152.2626  133.5311  159.5390 H   0  0  0  0  0  0  0  0  0  0  0  0  # atno 6907 bound_to 6896
  150.7130  134.0809  159.3906 H   0  0  0  0  0  0  0  0  0  0  0  0  # atno 6908 bound_to 6896
  151.8726  135.0484  160.0531 H   0  0  0  0  0  0  0  0  0  0  0  0  # atno 6909 bound_to 6896
  144.7809  140.4699  143.5840 H   0  0  0  0  0  0  0  0  0  0  0  0  # atno 7974 bound_to 7965
  156.1100  140.1466  156.9351 H   0  0  0  0  0  0  0  0  0  0  0  0  # atno 8008 bound_to 7997
  154.4761  140.0894  156.7308 H   0  0  0  0  0  0  0  0  0  0  0  0  # atno 8009 bound_to 7997
  155.4612  140.3438  155.4315 H   0  0  0  0  0  0  0  0  0  0  0  0  # atno 8010 bound_to 7997
  140.3604  144.2236  150.6138 H   0  0  0  0  0  0  0  0  0  0  0  0  # atno 10167 bound_to 10162
  157.2557  131.0788  151.1700 H   0  0  0  0  0  0  0  0  0  0  0  0  # atno 10718 bound_to 10713
  153.5660  135.7008  153.5526 H   0  0  0  0  0  0  0  0  0  0  0  0  # atno 10763 bound_to 10752
  153.3387  135.4027  155.1554 H   0  0  0  0  0  0  0  0  0  0  0  0  # atno 10764 bound_to 10752
  154.8640  135.3736  154.5180 H   0  0  0  0  0  0  0  0  0  0  0  0  # atno 10765 bound_to 10752
  141.1666  133.7092  156.8075 H   0  0  0  0  0  0  0  0  0  0  0  0  # atno 11005 bound_to 11000
  145.6053  139.1508  143.3106 LP  0  0  0  0  0  0  0  0  0  0  0  0  # atno 17320 bound_to 7965
  146.2016  140.6172  142.9100 LP  0  0  0  0  0  0  0  0  0  0  0  0  # atno 17321 bound_to 7965
  140.5132  143.2285  151.8502 LP  0  0  0  0  0  0  0  0  0  0  0  0  # atno 17342 bound_to 10162
  139.4815  144.4924  151.9167 LP  0  0  0  0  0  0  0  0  0  0  0  0  # atno 17343 bound_to 10162
  157.3230  130.6947  149.6280 LP  0  0  0  0  0  0  0  0  0  0  0  0  # atno 17370 bound_to 10713
  155.9665  130.4330  150.4986 LP  0  0  0  0  0  0  0  0  0  0  0  0  # atno 17371 bound_to 10713
  140.2211  134.8756  157.3378 LP  0  0  0  0  0  0  0  0  0  0  0  0  # atno 17394 bound_to 11000
  140.1987  134.4282  155.7675 LP  0  0  0  0  0  0  0  0  0  0  0  0  # atno 17395 bound_to 11000

$$$$
