AV-unprocessed.smi:3234|AV-procd|sdf|12353|dock1
  -GOLD-   2272018213D 1   1.00000     0.00000
 Structure written by MMmdl.
 38 40  0  0  0  0  0  0  0  0  3 V2000
  145.3856  137.8536  154.2603 O   0  0  0  0  0  0  0  0  0  0  0  0
  146.4048  137.3452  153.7949 C   0  0  0  0  0  0  0  0  0  0  0  0
  147.5908  137.9610  153.6431 N   0  0  0  0  0  0  0  0  0  0  0  0
  147.9693  139.2930  153.9736 C   0  0  0  0  0  0  0  0  0  0  0  0
  146.9917  140.2992  153.8036 C   0  0  0  0  0  0  0  0  0  0  0  0
  147.3088  141.6395  154.1042 C   0  0  0  0  0  0  0  0  0  0  0  0
  148.5439  141.9544  154.5485 N   0  3  0  0  0  0  0  0  0  0  0  0
  149.5138  141.0314  154.7210 C   0  0  0  0  0  0  0  0  0  0  0  0
  149.2561  139.6748  154.4353 C   0  0  0  0  0  0  0  0  0  0  0  0
  146.4585  136.0773  153.3622 N   0  0  0  0  0  0  0  0  0  0  0  0
  145.3395  135.1403  153.3882 C   0  0  1  0  0  0  0  0  0  0  0  0
  144.2093  135.5126  152.4295 C   0  0  0  0  0  0  0  0  0  0  0  0
  143.5492  134.1688  152.0757 C   0  0  0  0  0  0  0  0  0  0  0  0
  144.4430  133.1010  152.5837 N   0  3  1  0  0  0  0  0  0  0  0  0
  144.5638  131.9317  151.6876 C   0  0  0  0  0  0  0  0  0  0  0  0
  145.6997  132.0436  150.6994 C   0  0  0  0  0  0  0  0  0  0  0  0
  144.2720  132.2470  150.2401 C   0  0  0  0  0  0  0  0  0  0  0  0
  145.7291  133.7416  152.9107 C   0  0  0  0  0  0  0  0  0  0  0  0
  148.3150  137.4091  153.2073 H   0  0  0  0  0  0  0  0  0  0  0  0
  146.0026  140.0504  153.4467 H   0  0  0  0  0  0  0  0  0  0  0  0
  146.6168  142.4628  154.0017 H   0  0  0  0  0  0  0  0  0  0  0  0
  150.4639  141.4033  155.0761 H   0  0  0  0  0  0  0  0  0  0  0  0
  150.0570  138.9657  154.5717 H   0  0  0  0  0  0  0  0  0  0  0  0
  147.3309  135.7368  152.9844 H   0  0  0  0  0  0  0  0  0  0  0  0
  144.9341  135.0776  154.4005 H   0  0  0  0  0  0  0  0  0  0  0  0
  143.5070  136.2213  152.8697 H   0  0  0  0  0  0  0  0  0  0  0  0
  144.6141  135.9664  151.5233 H   0  0  0  0  0  0  0  0  0  0  0  0
  142.5720  134.0683  152.5487 H   0  0  0  0  0  0  0  0  0  0  0  0
  143.4035  134.0917  150.9969 H   0  0  0  0  0  0  0  0  0  0  0  0
  144.2913  130.9655  152.1091 H   0  0  0  0  0  0  0  0  0  0  0  0
  146.3416  132.9214  150.7491 H   0  0  0  0  0  0  0  0  0  0  0  0
  146.1943  131.1225  150.3975 H   0  0  0  0  0  0  0  0  0  0  0  0
  143.8260  131.4601  149.6350 H   0  0  0  0  0  0  0  0  0  0  0  0
  143.9667  133.2602  149.9840 H   0  0  0  0  0  0  0  0  0  0  0  0
  146.3502  133.8032  152.0149 H   0  0  0  0  0  0  0  0  0  0  0  0
  146.2751  133.1746  153.6656 H   0  0  0  0  0  0  0  0  0  0  0  0
  144.0474  132.7839  153.4574 H   0  0  0  0  0  0  0  0  0  0  0  0
  148.7543  142.9305  154.7596 H   0  0  0  0  0  0  0  0  0  0  0  0
  1  2  2  0  0  0  0
  2  3  1  0  0  0  0
  2 10  1  0  0  0  0
  3  4  1  0  0  0  0
  3 19  1  0  0  0  0
  4  9  1  0  0  0  0
  4  5  2  0  0  0  0
  5  6  1  0  0  0  0
  5 20  1  0  0  0  0
  6  7  2  0  0  0  0
  6 21  1  0  0  0  0
  7  8  1  0  0  0  0
  7 38  1  0  0  0  0
  8  9  2  0  0  0  0
  8 22  1  0  0  0  0
  9 23  1  0  0  0  0
 10 11  1  0  0  0  0
 10 24  1  0  0  0  0
 11 18  1  0  0  0  0
 11 12  1  0  0  0  0
 11 25  1  0  0  0  0
 12 13  1  0  0  0  0
 12 26  1  0  0  0  0
 12 27  1  0  0  0  0
 13 14  1  0  0  0  0
 13 28  1  0  0  0  0
 13 29  1  0  0  0  0
 14 15  1  0  0  0  0
 14 18  1  0  0  0  0
 14 37  1  0  0  0  0
 15 17  1  0  0  0  0
 15 16  1  0  0  0  0
 15 30  1  0  0  0  0
 16 17  1  0  0  0  0
 16 31  1  0  0  0  0
 16 32  1  0  0  0  0
 17 33  1  0  0  0  0
 17 34  1  0  0  0  0
 18 35  1  0  0  0  0
 18 36  1  0  0  0  0
M  CHG  1   7   1
M  CHG  1  14   1
M  END
> <s_m_source_file>
AV-unprocessed.smi

> <i_m_source_file_index>
3234

> <i_lp_mmshare_version>
43012

> <i_f3d_flags>
0

> <s_epik_input>
W2NIXTFbY0hdbltjSF1bY0hdYzFbTkhdQyg9TylbTkhdW0NAQEhdMltDSDJdW0NIMl1OKFtDSDJdMilbQ0hdM1tDSDJdW0NIMl0z

> <s_epik_cmdline>
J2VwaWtfcHl0aG9uJywgJy1waCcsICc3LjAnLCAnLXRuJywgJzgnLCAnLW1hJywgJzIwMCcsICctbWV0YWxfYmluZGluZycsICctaW1hZScsICc8aW5maWxlLm1hZT4nLCAnLW9tYWUnLCAnPG91dGZpbGUubWFlPic=

> <r_epik_Ionization_Penalty>
1.14489

> <r_epik_Ionization_Penalty_Charging>
1.14487

> <r_epik_Ionization_Penalty_Neutral>
1.95212e-05

> <r_epik_State_Penalty>
1.205

> <r_epik_Charging_Adjusted_Penalty>
2.34987

> <i_epik_Tot_Q>
2

> <i_epik_Tot_abs_Q>
2

> <r_epik_Metal_State_Penalty>
1.28709

> <b_epik_Metal_Only>
0

> <s_lp_Force_Field>
OPLS_2005

> <r_lp_Energy>
48.5757

> <b_lp_Chiralities_Consistent>
1

> <s_lp_Variant>
AV-unprocessed.smi:3234-6

> <Gold.Version>
5.8.1

> <Gold.Id.Protein>
6NUR|6NUR_protein|mol2

> <Gold.PLP.Fitness>
45.3810

> <Gold.PLP.PLP>
-30.6601

> <Gold.PLP.part.hbond>
-3.7057

> <Gold.PLP.part.metal>
0.0000

> <Gold.PLP.part.buried>
-5.4020

> <Gold.PLP.part.nonpolar>
-23.1785

> <Gold.PLP.part.repulsive>
0.5332

> <Gold.PLP.ligand.clash>
0.0000

> <Gold.PLP.ligand.torsion>
1.1520

> <Gold.PLP.Chemscore.Hbond>
5.2532

> <Gold.PLP.Chemscore.CHOScore>
0.0000

> <Gold.PLP.Chemscore.Metal>
0.0000

> <Gold.Chemscore.Hbonds>
donor molecule, donor type, donor heavy atom, donor atom, acceptor molecule, acceptor atom, score
      L1  H     3    19       P1  7948  1.00
      L1  H     7    38       P1  8028  2.00
      L1  H    10    24       P1  7948  0.90
      L1  H    14    37       P1 10957  1.37

> <Gold.PLP.Chemscore.Internal.Correction>
1.2655

> <Gold.Rescore>
     Score         DG    S(hbond)    S(metal)    S(lipo)     H(rot)  DE(clash)    DE(int)     intcor
     19.80     -22.30       3.43        0.00      72.72       1.22       0.14       2.36       ----

> <Gold.Chemscore.Fitness>
19.8027

> <Gold.Chemscore.DG>
-22.3045

> <Gold.Chemscore.ZeroCoef>
-5.4800

> <Gold.Chemscore.Hbond>
3.4285

> <Gold.Chemscore.Metal>
0.0000

> <Gold.Chemscore.Lipo>
72.7231

> <Gold.Chemscore.Internal_Hbond>
0.0000

> <Gold.Chemscore.DEClash>
0.1416

> <Gold.Chemscore.DEInternal>
2.3602

> <Gold.Chemscore.Rot>
1.2248

> <Gold.Chemscore.Internal.Correction>
   9.000000E+99

> <Gold.Chemscore.Hbonds>
donor molecule, donor type, donor heavy atom, donor atom, acceptor molecule, acceptor atom, score
      L1  H     3    19       P1  7948  0.97
      L1  H     7    38       P1  8028  0.97
      L1  H    10    24       P1  7948  0.82
      L1  H    14    37       P1 10957  0.40

> <Gold.Chemscore.Hbond.Weighted>
-11.4513

> <Gold.Chemscore.Metal.Weighted>
-0.0000

> <Gold.Chemscore.Lipo.Weighted>
-8.5086

> <Gold.Chemscore.Internal_Hbond.Weighted>
0.0000

> <Gold.Chemscore.DEClash.Weighted>
0.1416

> <Gold.Chemscore.DEInternal.Weighted>
2.3602

> <Gold.Chemscore.Rot.Weighted>
3.1355

> <Gold.Chemscore.Internal.Correction.Weighted>
   9.000000E+99

> <Gold.Protein.RotatedTorsions>
[ 6907 6896 6895 6894 ] final  -73.80 input  -60.11 | X-H torsion
[ 7974 7965 7964 7962 ] final  -74.73 input  175.53 | X-H torsion
[ 8008 7997 7996 7995 ] final -134.95 input   59.86 | X-H torsion
[ 10167 10162 10161 10158 ] final  151.38 input  -65.29 | X-H torsion
[ 10718 10713 10712 10709 ] final -179.30 input   66.30 | X-H torsion
[ 10763 10752 10751 10750 ] final   89.84 input  -60.55 | X-H torsion
[ 11005 11000 10999 10996 ] final   73.21 input  -57.11 | X-H torsion

> <Gold.Protein.ActiveResidues>
 VAL166  LYS551  ARG553  GLY616  TRP617  ASP618  TYR619  PRO620  LYS621  CYS622 
 ASP623  PHE694  ASN695  SER759  ASP760  ASP761  ALA762  ILE779  LEU786  VAL792 
 PHE793  MET794  SER795  GLU796  ALA797  LYS798  CYS799  TRP800  GLU811  SER814 

> <Gold.Protein.RotatedAtoms>
  150.7116  134.4963  159.5539 H   0  0  0  0  0  0  0  0  0  0  0  0  # atno 6907 bound_to 6896
  152.2570  134.8071  160.0446 H   0  0  0  0  0  0  0  0  0  0  0  0  # atno 6908 bound_to 6896
  151.8798  133.3457  159.3799 H   0  0  0  0  0  0  0  0  0  0  0  0  # atno 6909 bound_to 6896
  145.6352  140.9326  143.1065 H   0  0  0  0  0  0  0  0  0  0  0  0  # atno 7974 bound_to 7965
  155.3707  140.0488  157.3045 H   0  0  0  0  0  0  0  0  0  0  0  0  # atno 8008 bound_to 7997
  154.5131  140.2199  155.9080 H   0  0  0  0  0  0  0  0  0  0  0  0  # atno 8009 bound_to 7997
  156.1606  140.3117  155.8806 H   0  0  0  0  0  0  0  0  0  0  0  0  # atno 8010 bound_to 7997
  139.4841  144.5446  151.7507 H   0  0  0  0  0  0  0  0  0  0  0  0  # atno 10167 bound_to 10162
  156.8571  130.9739  151.3087 H   0  0  0  0  0  0  0  0  0  0  0  0  # atno 10718 bound_to 10713
  153.1913  135.4455  155.0152 H   0  0  0  0  0  0  0  0  0  0  0  0  # atno 10763 bound_to 10752
  154.8092  135.3287  154.7353 H   0  0  0  0  0  0  0  0  0  0  0  0  # atno 10764 bound_to 10752
  153.7807  135.6977  153.4944 H   0  0  0  0  0  0  0  0  0  0  0  0  # atno 10765 bound_to 10752
  139.9451  134.7327  156.0999 H   0  0  0  0  0  0  0  0  0  0  0  0  # atno 11005 bound_to 11000
  144.7178  139.8135  143.7392 LP  0  0  0  0  0  0  0  0  0  0  0  0  # atno 17320 bound_to 7965
  146.1325  139.4363  143.0160 LP  0  0  0  0  0  0  0  0  0  0  0  0  # atno 17321 bound_to 7965
  140.4990  144.1197  150.5967 LP  0  0  0  0  0  0  0  0  0  0  0  0  # atno 17342 bound_to 10162
  140.4084  143.2669  151.9863 LP  0  0  0  0  0  0  0  0  0  0  0  0  # atno 17343 bound_to 10162
  157.6271  130.8700  149.9208 LP  0  0  0  0  0  0  0  0  0  0  0  0  # atno 17370 bound_to 10713
  156.0797  130.3674  150.0606 LP  0  0  0  0  0  0  0  0  0  0  0  0  # atno 17371 bound_to 10713
  141.1099  133.6647  156.2954 LP  0  0  0  0  0  0  0  0  0  0  0  0  # atno 17394 bound_to 11000
  140.5854  134.5704  157.5488 LP  0  0  0  0  0  0  0  0  0  0  0  0  # atno 17395 bound_to 11000

$$$$
