AV-unprocessed.smi:1|AV-procd|sdf|22|dock10
  -GOLD-   2262015133D 1   1.00000     0.00000
 Structure written by MMmdl.
 56 61  0  0  0  0  0  0  0  0  2 V2000
  152.7703  139.8683  158.4556 O   0  0  0  0  0  0  0  0  0  0  0  0
  152.0437  140.6766  157.8738 C   0  0  0  0  0  0  0  0  0  0  0  0
  151.3694  140.5034  156.7088 N   0  5  0  0  0  0  0  0  0  0  0  0
  151.4242  139.3265  156.0668 C   0  0  0  0  0  0  0  0  0  0  0  0
  151.7273  139.2811  154.7446 N   0  0  0  0  0  0  0  0  0  0  0  0
  151.7588  138.1101  154.0982 C   0  0  0  0  0  0  0  0  0  0  0  0
  151.5160  136.8834  154.5695 N   0  0  0  0  0  0  0  0  0  0  0  0
  151.2089  136.9145  155.8995 C   0  0  0  0  0  0  0  0  0  0  0  0
  151.1422  138.0879  156.7062 C   0  0  0  0  0  0  0  0  0  0  0  0
  150.7983  137.7697  158.0118 N   0  0  0  0  0  0  0  0  0  0  0  0
  150.6788  136.4461  157.9430 C   0  0  0  0  0  0  0  0  0  0  0  0
  150.8990  135.8627  156.7483 N   0  0  0  0  0  0  0  0  0  0  0  0
  150.8248  134.4038  156.4299 C   0  0  1  0  0  0  0  0  0  0  0  0
  150.3280  133.7280  157.5418 O   0  0  0  0  0  0  0  0  0  0  0  0
  149.6332  132.5748  157.0963 C   0  0  1  0  0  0  0  0  0  0  0  0
  148.7080  132.0327  158.1935 C   0  0  0  0  0  0  0  0  0  0  0  0
  148.3936  133.0857  159.0947 O   0  0  0  0  0  0  0  0  0  0  0  0
  147.8050  132.8351  160.2834 C   0  0  0  0  0  0  0  0  0  0  0  0
  147.6006  131.7027  160.7249 O   0  0  0  0  0  0  0  0  0  0  0  0
  147.4219  134.0799  161.0108 C   0  0  0  0  0  0  0  0  0  0  0  0
  147.7020  135.3377  160.4272 C   0  0  0  0  0  0  0  0  0  0  0  0
  147.3501  136.5303  161.0887 C   0  0  0  0  0  0  0  0  0  0  0  0
  146.7115  136.4798  162.3414 C   0  0  0  0  0  0  0  0  0  0  0  0
  146.4264  135.2352  162.9323 C   0  0  0  0  0  0  0  0  0  0  0  0
  146.7791  134.0414  162.2729 C   0  0  0  0  0  0  0  0  0  0  0  0
  148.9316  133.0446  155.8199 C   0  0  1  0  0  0  0  0  0  0  0  0
  147.6893  133.6636  156.1050 O   0  0  0  0  0  0  0  0  0  0  0  0
  147.5434  135.0091  155.1309 S   0  0  0  0  0  0  0  0  0  0  0  0
  146.8786  134.5978  153.8848 O   0  0  0  0  0  0  0  0  0  0  0  0
  147.0625  136.1338  155.9469 O   0  0  0  0  0  0  0  0  0  0  0  0
  149.1637  135.2387  154.7986 O   0  0  0  0  0  0  0  0  0  0  0  0
  149.8901  134.1002  155.2422 C   0  0  1  0  0  0  0  0  0  0  0  0
  151.8960  142.0624  158.4442 C   0  0  0  0  0  0  0  0  0  0  0  0
  152.4109  142.3504  159.7289 C   0  0  0  0  0  0  0  0  0  0  0  0
  152.2611  143.6337  160.2901 C   0  0  0  0  0  0  0  0  0  0  0  0
  151.5865  144.6415  159.5761 C   0  0  0  0  0  0  0  0  0  0  0  0
  151.0569  144.3633  158.3024 C   0  0  0  0  0  0  0  0  0  0  0  0
  151.2062  143.0803  157.7405 C   0  0  0  0  0  0  0  0  0  0  0  0
  152.0107  138.1643  153.0496 H   0  0  0  0  0  0  0  0  0  0  0  0
  150.4160  135.8644  158.8144 H   0  0  0  0  0  0  0  0  0  0  0  0
  151.8566  134.1033  156.2425 H   0  0  0  0  0  0  0  0  0  0  0  0
  150.3806  131.8218  156.8394 H   0  0  0  0  0  0  0  0  0  0  0  0
  147.7807  131.6662  157.7527 H   0  0  0  0  0  0  0  0  0  0  0  0
  149.1800  131.1823  158.6872 H   0  0  0  0  0  0  0  0  0  0  0  0
  148.1914  135.4018  159.4660 H   0  0  0  0  0  0  0  0  0  0  0  0
  147.5705  137.4848  160.6337 H   0  0  0  0  0  0  0  0  0  0  0  0
  146.4408  137.3944  162.8481 H   0  0  0  0  0  0  0  0  0  0  0  0
  145.9358  135.1952  163.8938 H   0  0  0  0  0  0  0  0  0  0  0  0
  146.5435  133.1035  162.7541 H   0  0  0  0  0  0  0  0  0  0  0  0
  148.7583  132.2219  155.1255 H   0  0  0  0  0  0  0  0  0  0  0  0
  150.4857  133.6925  154.4250 H   0  0  0  0  0  0  0  0  0  0  0  0
  152.9304  141.5878  160.2911 H   0  0  0  0  0  0  0  0  0  0  0  0
  152.6641  143.8441  161.2697 H   0  0  0  0  0  0  0  0  0  0  0  0
  151.4716  145.6253  160.0063 H   0  0  0  0  0  0  0  0  0  0  0  0
  150.5330  145.1332  157.7555 H   0  0  0  0  0  0  0  0  0  0  0  0
  150.7830  142.8851  156.7657 H   0  0  0  0  0  0  0  0  0  0  0  0
  1  2  2  0  0  0  0
  2  3  1  0  0  0  0
  2 33  1  0  0  0  0
  3  4  1  0  0  0  0
  4  9  1  0  0  0  0
  4  5  2  0  0  0  0
  5  6  1  0  0  0  0
  6  7  2  0  0  0  0
  6 39  1  0  0  0  0
  7  8  1  0  0  0  0
  8 12  1  0  0  0  0
  8  9  2  0  0  0  0
  9 10  1  0  0  0  0
 10 11  2  0  0  0  0
 11 12  1  0  0  0  0
 11 40  1  0  0  0  0
 12 13  1  0  0  0  0
 13 32  1  0  0  0  0
 13 14  1  0  0  0  0
 13 41  1  0  0  0  0
 14 15  1  0  0  0  0
 15 16  1  0  0  0  0
 15 26  1  0  0  0  0
 15 42  1  0  0  0  0
 16 17  1  0  0  0  0
 16 43  1  0  0  0  0
 16 44  1  0  0  0  0
 17 18  1  0  0  0  0
 18 19  2  0  0  0  0
 18 20  1  0  0  0  0
 20 25  1  0  0  0  0
 20 21  2  0  0  0  0
 21 22  1  0  0  0  0
 21 45  1  0  0  0  0
 22 23  2  0  0  0  0
 22 46  1  0  0  0  0
 23 24  1  0  0  0  0
 23 47  1  0  0  0  0
 24 25  2  0  0  0  0
 24 48  1  0  0  0  0
 25 49  1  0  0  0  0
 26 32  1  0  0  0  0
 26 27  1  0  0  0  0
 26 50  1  0  0  0  0
 27 28  1  0  0  0  0
 28 29  2  0  0  0  0
 28 30  2  0  0  0  0
 28 31  1  0  0  0  0
 31 32  1  0  0  0  0
 32 51  1  0  0  0  0
 33 38  1  0  0  0  0
 33 34  2  0  0  0  0
 34 35  1  0  0  0  0
 34 52  1  0  0  0  0
 35 36  2  0  0  0  0
 35 53  1  0  0  0  0
 36 37  1  0  0  0  0
 36 54  1  0  0  0  0
 37 38  2  0  0  0  0
 37 55  1  0  0  0  0
 38 56  1  0  0  0  0
M  CHG  1   3  -1
M  END
> <s_m_source_file>
AV-unprocessed.smi

> <i_m_source_file_index>
1

> <i_lp_mmshare_version>
43012

> <i_f3d_flags>
0

> <s_epik_input>
W2NIXTFbY0hdW2NIXVtjSF1bY0hdYzFDKD1PKVtOSF1jKG5bY0hdbjIpYyhjMjMpbltjSF1uM1tDQEBIXShbQ0BIXShbQ0BIXTQ1KU9TKE81KSg9Tyk9TylPW0NASF00W0NIMl1PQyg9TyljNltjSF1bY0hdW2NIXVtjSF1bY0hdNg==

> <s_epik_cmdline>
J2VwaWtfcHl0aG9uJywgJy1waCcsICc3LjAnLCAnLXRuJywgJzgnLCAnLW1hJywgJzIwMCcsICctbWV0YWxfYmluZGluZycsICctaW1hZScsICc8aW5maWxlLm1hZT4nLCAnLW9tYWUnLCAnPG91dGZpbGUubWFlPic=

> <r_lp_tautomer_probability>
1

> <r_epik_Ionization_Penalty>
4.39121

> <r_epik_Ionization_Penalty_Charging>
3.39398

> <r_epik_Ionization_Penalty_Neutral>
0.997232

> <r_epik_State_Penalty>
3.39839

> <r_epik_Charging_Adjusted_Penalty>
6.79237

> <i_epik_Tot_Q>
-1

> <i_epik_Tot_abs_Q>
1

> <r_epik_Metal_State_Penalty>
0.497663

> <b_epik_Metal_Only>
1

> <s_epik_Chemistry_Notes>
This compound has an ester and may undergo hydrolysis at high or low pH. This compound contains an acetal/aminal-like group ( X-CH(R)-Y where X, Y are N, S, or O) that may be acid/base labile, releasing an aldehyde.

> <s_lp_Force_Field>
OPLS_2005

> <r_lp_Energy>
46.5931

> <b_lp_Chiralities_Consistent>
1

> <s_lp_Variant>
AV-unprocessed.smi:1-22

> <Gold.Version>
5.8.1

> <Gold.Id.Protein>
6NUR|6NUR_protein|mol2

> <Gold.PLP.Fitness>
68.7142

> <Gold.PLP.PLP>
-57.6632

> <Gold.PLP.part.hbond>
-4.4663

> <Gold.PLP.part.metal>
0.0000

> <Gold.PLP.part.buried>
-7.9844

> <Gold.PLP.part.nonpolar>
-47.1574

> <Gold.PLP.part.repulsive>
1.2729

> <Gold.PLP.ligand.clash>
0.0000

> <Gold.PLP.ligand.torsion>
1.1280

> <Gold.PLP.Chemscore.Hbond>
3.8800

> <Gold.PLP.Chemscore.CHOScore>
0.4538

> <Gold.PLP.Chemscore.Metal>
0.0000

> <Gold.Chemscore.Hbonds>
donor molecule, donor type, donor heavy atom, donor atom, acceptor molecule, acceptor atom, score
      P1  H  6896  6909       L1    14  0.93
      P1  H  7989  7998       L1     5  1.00
      P1  H  7997  8009       L1     1  0.23
      P1  H 10752 10764       L1     7  1.00
      L1  C     6    39       P1  7949  0.24

> <Gold.PLP.Chemscore.Internal.Correction>
0.3055

> <Gold.Rescore>
     Score         DG    S(hbond)    S(metal)    S(lipo)     H(rot)  DE(clash)    DE(int)     intcor
     15.30     -22.78       2.08        0.00     134.73       2.11       0.13       7.36       ----

> <Gold.Chemscore.Fitness>
15.2984

> <Gold.Chemscore.DG>
-22.7841

> <Gold.Chemscore.ZeroCoef>
-5.4800

> <Gold.Chemscore.Hbond>
2.0812

> <Gold.Chemscore.Metal>
0.0000

> <Gold.Chemscore.Lipo>
134.7326

> <Gold.Chemscore.Internal_Hbond>
0.0000

> <Gold.Chemscore.DEClash>
0.1259

> <Gold.Chemscore.DEInternal>
7.3599

> <Gold.Chemscore.Rot>
2.1136

> <Gold.Chemscore.Internal.Correction>
   9.000000E+99

> <Gold.Chemscore.Hbonds>
donor molecule, donor type, donor heavy atom, donor atom, acceptor molecule, acceptor atom, score
      P1  H  6896  6909       L1    14  0.85
      P1  H  7989  7998       L1     5  0.76
      P1  H  7997  8009       L1     1  0.03
      P1  H 10752 10764       L1     7  0.62

> <Gold.Chemscore.Hbond.Weighted>
-6.9512

> <Gold.Chemscore.Metal.Weighted>
-0.0000

> <Gold.Chemscore.Lipo.Weighted>
-15.7637

> <Gold.Chemscore.Internal_Hbond.Weighted>
0.0000

> <Gold.Chemscore.DEClash.Weighted>
0.1259

> <Gold.Chemscore.DEInternal.Weighted>
7.3599

> <Gold.Chemscore.Rot.Weighted>
5.4107

> <Gold.Chemscore.Internal.Correction.Weighted>
   9.000000E+99

> <Gold.Protein.RotatedTorsions>
[ 6907 6896 6895 6894 ] final   -3.54 input  -60.11 | X-H torsion
[ 7974 7965 7964 7962 ] final  -86.03 input  175.53 | X-H torsion
[ 8008 7997 7996 7995 ] final  156.66 input   59.86 | X-H torsion
[ 10167 10162 10161 10158 ] final   43.27 input  -65.29 | X-H torsion
[ 10718 10713 10712 10709 ] final  -82.18 input   66.30 | X-H torsion
[ 10763 10752 10751 10750 ] final  -77.07 input  -60.55 | X-H torsion
[ 11005 11000 10999 10996 ] final    0.06 input  -57.11 | X-H torsion

> <Gold.Protein.ActiveResidues>
 VAL166  LYS551  ARG553  GLY616  TRP617  ASP618  TYR619  PRO620  LYS621  CYS622 
 ASP623  PHE694  ASN695  SER759  ASP760  ASP761  ALA762  ILE779  LEU786  VAL792 
 PHE793  MET794  SER795  GLU796  ALA797  LYS798  CYS799  TRP800  GLU811  SER814 

> <Gold.Protein.RotatedAtoms>
  151.5121  135.1065  159.9856 H   0  0  0  0  0  0  0  0  0  0  0  0  # atno 6907 bound_to 6896
  152.4657  133.7913  159.6914 H   0  0  0  0  0  0  0  0  0  0  0  0  # atno 6908 bound_to 6896
  150.8639  133.7539  159.3008 H   0  0  0  0  0  0  0  0  0  0  0  0  # atno 6909 bound_to 6896
  145.4854  140.9555  143.1841 H   0  0  0  0  0  0  0  0  0  0  0  0  # atno 7974 bound_to 7965
  156.2409  140.1906  156.6990 H   0  0  0  0  0  0  0  0  0  0  0  0  # atno 8008 bound_to 7997
  154.6196  140.0610  156.9624 H   0  0  0  0  0  0  0  0  0  0  0  0  # atno 8009 bound_to 7997
  155.1883  140.3282  155.4365 H   0  0  0  0  0  0  0  0  0  0  0  0  # atno 8010 bound_to 7997
  140.3460  144.2410  150.6150 H   0  0  0  0  0  0  0  0  0  0  0  0  # atno 10167 bound_to 10162
  156.0037  130.4626  150.4065 H   0  0  0  0  0  0  0  0  0  0  0  0  # atno 10718 bound_to 10713
  154.5082  135.5776  153.6584 H   0  0  0  0  0  0  0  0  0  0  0  0  # atno 10763 bound_to 10752
  152.9892  135.6152  154.2914 H   0  0  0  0  0  0  0  0  0  0  0  0  # atno 10764 bound_to 10752
  154.2826  135.2850  155.2670 H   0  0  0  0  0  0  0  0  0  0  0  0  # atno 10765 bound_to 10752
  140.6307  133.9577  155.8273 H   0  0  0  0  0  0  0  0  0  0  0  0  # atno 11005 bound_to 11000
  144.7865  139.6417  143.7132 LP  0  0  0  0  0  0  0  0  0  0  0  0  # atno 17320 bound_to 7965
  146.2316  139.5825  142.9551 LP  0  0  0  0  0  0  0  0  0  0  0  0  # atno 17321 bound_to 7965
  140.5264  143.2253  151.8308 LP  0  0  0  0  0  0  0  0  0  0  0  0  # atno 17342 bound_to 10162
  139.4833  144.4774  151.9349 LP  0  0  0  0  0  0  0  0  0  0  0  0  # atno 17343 bound_to 10162
  157.2130  131.0465  151.2588 LP  0  0  0  0  0  0  0  0  0  0  0  0  # atno 17370 bound_to 10713
  157.3871  130.7262  149.6671 LP  0  0  0  0  0  0  0  0  0  0  0  0  # atno 17371 bound_to 10713
  141.0677  134.0252  157.3571 LP  0  0  0  0  0  0  0  0  0  0  0  0  # atno 17394 bound_to 11000
  139.9117  135.0191  156.7718 LP  0  0  0  0  0  0  0  0  0  0  0  0  # atno 17395 bound_to 11000

$$$$
