AV-unprocessed.smi:1177|AV-procd|sdf|4955|dock3
  -GOLD-   22720 3543D 1   1.00000     0.00000
 Structure written by MMmdl.
 31 32  0  0  0  0  0  0  0  0  2 V2000
  147.9591  139.8184  155.4237 O   0  0  0  0  0  0  0  0  0  0  0  0
  148.6538  140.1591  154.4656 C   0  0  0  0  0  0  0  0  0  0  0  0
  149.9360  140.5364  154.5695 N   0  0  0  0  0  0  0  0  0  0  0  0
  150.6853  140.5981  155.8188 C   0  0  0  0  0  0  0  0  0  0  0  0
  150.0192  141.5442  156.8322 C   0  0  0  0  0  0  0  0  0  0  0  0
  151.0301  142.2132  157.7423 C   0  0  0  0  0  0  0  0  0  0  0  0
  151.8191  141.4824  158.6571 C   0  0  0  0  0  0  0  0  0  0  0  0
  152.7381  142.1706  159.4768 C   0  0  0  0  0  0  0  0  0  0  0  0
  152.8466  143.5724  159.3663 C   0  0  0  0  0  0  0  0  0  0  0  0
  152.0326  144.2521  158.4372 C   0  0  0  0  0  0  0  0  0  0  0  0
  151.1652  143.5573  157.6688 N   0  3  0  0  0  0  0  0  0  0  0  0
  148.2232  140.2039  153.1979 N   0  0  0  0  0  0  0  0  0  0  0  0
  146.9066  139.8692  152.7602 C   0  0  0  0  0  0  0  0  0  0  0  0
  146.4638  138.4291  152.9032 C   0  0  0  0  0  0  0  0  0  0  0  0
  146.7753  138.9831  151.5403 C   0  0  0  0  0  0  0  0  0  0  0  0
  150.4274  140.7976  153.7269 H   0  0  0  0  0  0  0  0  0  0  0  0
  150.7887  139.5955  156.2375 H   0  0  0  0  0  0  0  0  0  0  0  0
  151.6938  140.9457  155.5931 H   0  0  0  0  0  0  0  0  0  0  0  0
  149.4476  142.3105  156.3067 H   0  0  0  0  0  0  0  0  0  0  0  0
  149.3042  140.9987  157.4499 H   0  0  0  0  0  0  0  0  0  0  0  0
  151.7228  140.4089  158.7323 H   0  0  0  0  0  0  0  0  0  0  0  0
  153.3513  141.6296  160.1825 H   0  0  0  0  0  0  0  0  0  0  0  0
  153.5439  144.1181  159.9853 H   0  0  0  0  0  0  0  0  0  0  0  0
  152.0486  145.3217  158.2868 H   0  0  0  0  0  0  0  0  0  0  0  0
  148.8753  140.4971  152.4852 H   0  0  0  0  0  0  0  0  0  0  0  0
  146.1298  140.6216  152.8902 H   0  0  0  0  0  0  0  0  0  0  0  0
  147.1696  137.7181  153.3289 H   0  0  0  0  0  0  0  0  0  0  0  0
  145.4185  138.2479  153.1447 H   0  0  0  0  0  0  0  0  0  0  0  0
  145.9379  139.1724  150.8716 H   0  0  0  0  0  0  0  0  0  0  0  0
  147.6886  138.6414  151.0569 H   0  0  0  0  0  0  0  0  0  0  0  0
  150.5854  144.0693  157.0030 H   0  0  0  0  0  0  0  0  0  0  0  0
  1  2  2  0  0  0  0
  2  3  1  0  0  0  0
  2 12  1  0  0  0  0
  3  4  1  0  0  0  0
  3 16  1  0  0  0  0
  4  5  1  0  0  0  0
  4 17  1  0  0  0  0
  4 18  1  0  0  0  0
  5  6  1  0  0  0  0
  5 19  1  0  0  0  0
  5 20  1  0  0  0  0
  6 11  1  0  0  0  0
  6  7  2  0  0  0  0
  7  8  1  0  0  0  0
  7 21  1  0  0  0  0
  8  9  2  0  0  0  0
  8 22  1  0  0  0  0
  9 10  1  0  0  0  0
  9 23  1  0  0  0  0
 10 11  2  0  0  0  0
 10 24  1  0  0  0  0
 11 31  1  0  0  0  0
 12 13  1  0  0  0  0
 12 25  1  0  0  0  0
 13 15  1  0  0  0  0
 13 14  1  0  0  0  0
 13 26  1  0  0  0  0
 14 15  1  0  0  0  0
 14 27  1  0  0  0  0
 14 28  1  0  0  0  0
 15 29  1  0  0  0  0
 15 30  1  0  0  0  0
M  CHG  1  11   1
M  END
> <s_m_source_file>
AV-unprocessed.smi

> <i_m_source_file_index>
1177

> <i_lp_mmshare_version>
43012

> <i_f3d_flags>
0

> <s_epik_input>
W0NIMl0xW0NIMl1bQ0hdMVtOSF1DKD1PKVtOSF1bQ0gyXVtDSDJdYzJbY0hdW2NIXVtjSF1bY0hdbjI=

> <s_epik_cmdline>
J2VwaWtfcHl0aG9uJywgJy1waCcsICc3LjAnLCAnLXRuJywgJzgnLCAnLW1hJywgJzIwMCcsICctbWV0YWxfYmluZGluZycsICctaW1hZScsICc8aW5maWxlLm1hZT4nLCAnLW9tYWUnLCAnPG91dGZpbGUubWFlPic=

> <r_epik_Ionization_Penalty>
1.56288

> <r_epik_Ionization_Penalty_Charging>
1.56282

> <r_epik_Ionization_Penalty_Neutral>
5.89877e-05

> <r_epik_State_Penalty>
1.65797

> <r_epik_Charging_Adjusted_Penalty>
3.22079

> <i_epik_Tot_Q>
1

> <i_epik_Tot_abs_Q>
1

> <r_epik_Metal_State_Penalty>
1.69932

> <b_epik_Metal_Only>
0

> <s_lp_Force_Field>
OPLS_2005

> <r_lp_Energy>
17.5296

> <b_lp_Chiralities_Consistent>
1

> <s_lp_Variant>
AV-unprocessed.smi:1177-2

> <Gold.Version>
5.8.1

> <Gold.Id.Protein>
6NUR|6NUR_protein|mol2

> <Gold.PLP.Fitness>
42.9978

> <Gold.PLP.PLP>
-34.6059

> <Gold.PLP.part.hbond>
-1.8755

> <Gold.PLP.part.metal>
0.0000

> <Gold.PLP.part.buried>
-4.1914

> <Gold.PLP.part.nonpolar>
-31.7021

> <Gold.PLP.part.repulsive>
1.8432

> <Gold.PLP.ligand.clash>
0.0000

> <Gold.PLP.ligand.torsion>
0.3235

> <Gold.PLP.Chemscore.Hbond>
3.0000

> <Gold.PLP.Chemscore.CHOScore>
0.0000

> <Gold.PLP.Chemscore.Metal>
0.0000

> <Gold.Chemscore.Hbonds>
donor molecule, donor type, donor heavy atom, donor atom, acceptor molecule, acceptor atom, score
      L1  H    11    31       P1  8028  0.98
      L1  H    12    25       P1  7957  0.88

> <Gold.PLP.Chemscore.Internal.Correction>
0.0389

> <Gold.Rescore>
     Score         DG    S(hbond)    S(metal)    S(lipo)     H(rot)  DE(clash)    DE(int)     intcor
     17.47     -17.97       1.94        0.00      88.78       1.70       0.08       0.42       ----

> <Gold.Chemscore.Fitness>
17.4704

> <Gold.Chemscore.DG>
-17.9745

> <Gold.Chemscore.ZeroCoef>
-5.4800

> <Gold.Chemscore.Hbond>
1.9353

> <Gold.Chemscore.Metal>
0.0000

> <Gold.Chemscore.Lipo>
88.7798

> <Gold.Chemscore.Internal_Hbond>
0.0000

> <Gold.Chemscore.DEClash>
0.0815

> <Gold.Chemscore.DEInternal>
0.4225

> <Gold.Chemscore.Rot>
1.7019

> <Gold.Chemscore.Internal.Correction>
   9.000000E+99

> <Gold.Chemscore.Hbonds>
donor molecule, donor type, donor heavy atom, donor atom, acceptor molecule, acceptor atom, score
      L1  H    11    31       P1  8028  0.47
      L1  H    12    25       P1  7957  0.84

> <Gold.Chemscore.Hbond.Weighted>
-6.4640

> <Gold.Chemscore.Metal.Weighted>
-0.0000

> <Gold.Chemscore.Lipo.Weighted>
-10.3872

> <Gold.Chemscore.Internal_Hbond.Weighted>
0.0000

> <Gold.Chemscore.DEClash.Weighted>
0.0815

> <Gold.Chemscore.DEInternal.Weighted>
0.4225

> <Gold.Chemscore.Rot.Weighted>
4.3568

> <Gold.Chemscore.Internal.Correction.Weighted>
   9.000000E+99

> <Gold.Protein.RotatedTorsions>
[ 6907 6896 6895 6894 ] final   18.01 input  -60.11 | X-H torsion
[ 7974 7965 7964 7962 ] final   38.40 input  175.53 | X-H torsion
[ 8008 7997 7996 7995 ] final -103.02 input   59.86 | X-H torsion
[ 10167 10162 10161 10158 ] final   43.25 input  -65.29 | X-H torsion
[ 10718 10713 10712 10709 ] final    4.70 input   66.30 | X-H torsion
[ 10763 10752 10751 10750 ] final   42.47 input  -60.55 | X-H torsion
[ 11005 11000 10999 10996 ] final   46.55 input  -57.11 | X-H torsion

> <Gold.Protein.ActiveResidues>
 VAL166  LYS551  ARG553  GLY616  TRP617  ASP618  TYR619  PRO620  LYS621  CYS622 
 ASP623  PHE694  ASN695  SER759  ASP760  ASP761  ALA762  ILE779  LEU786  VAL792 
 PHE793  MET794  SER795  GLU796  ALA797  LYS798  CYS799  TRP800  GLU811  SER814 

> <Gold.Protein.RotatedAtoms>
  151.8587  135.0532  160.0466 H   0  0  0  0  0  0  0  0  0  0  0  0  # atno 6907 bound_to 6896
  152.2680  133.5352  159.5430 H   0  0  0  0  0  0  0  0  0  0  0  0  # atno 6908 bound_to 6896
  150.7141  134.0654  159.3888 H   0  0  0  0  0  0  0  0  0  0  0  0  # atno 6909 bound_to 6896
  146.1065  139.5777  142.9380 H   0  0  0  0  0  0  0  0  0  0  0  0  # atno 7974 bound_to 7965
  154.8650  140.0425  157.1689 H   0  0  0  0  0  0  0  0  0  0  0  0  # atno 8008 bound_to 7997
  154.8800  140.2971  155.5410 H   0  0  0  0  0  0  0  0  0  0  0  0  # atno 8009 bound_to 7997
  156.2999  140.2413  156.3801 H   0  0  0  0  0  0  0  0  0  0  0  0  # atno 8010 bound_to 7997
  140.3462  144.2407  150.6150 H   0  0  0  0  0  0  0  0  0  0  0  0  # atno 10167 bound_to 10162
  156.8966  130.5706  149.5649 H   0  0  0  0  0  0  0  0  0  0  0  0  # atno 10718 bound_to 10713
  152.9882  135.6131  154.2955 H   0  0  0  0  0  0  0  0  0  0  0  0  # atno 10763 bound_to 10752
  154.2678  135.2780  155.2753 H   0  0  0  0  0  0  0  0  0  0  0  0  # atno 10764 bound_to 10752
  154.5149  135.5831  153.6691 H   0  0  0  0  0  0  0  0  0  0  0  0  # atno 10765 bound_to 10752
  140.1358  134.4646  155.8486 H   0  0  0  0  0  0  0  0  0  0  0  0  # atno 11005 bound_to 11000
  145.5751  141.0389  143.2153 LP  0  0  0  0  0  0  0  0  0  0  0  0  # atno 17320 bound_to 7965
  144.7475  139.7281  143.7286 LP  0  0  0  0  0  0  0  0  0  0  0  0  # atno 17321 bound_to 7965
  140.5262  143.2254  151.8311 LP  0  0  0  0  0  0  0  0  0  0  0  0  # atno 17342 bound_to 10162
  139.4833  144.4777  151.9346 LP  0  0  0  0  0  0  0  0  0  0  0  0  # atno 17343 bound_to 10162
  156.0603  130.5657  150.9178 LP  0  0  0  0  0  0  0  0  0  0  0  0  # atno 17370 bound_to 10713
  157.6052  131.0939  150.8892 LP  0  0  0  0  0  0  0  0  0  0  0  0  # atno 17371 bound_to 10713
  141.2178  133.6814  156.7155 LP  0  0  0  0  0  0  0  0  0  0  0  0  # atno 17394 bound_to 11000
  140.2784  134.8337  157.3911 LP  0  0  0  0  0  0  0  0  0  0  0  0  # atno 17395 bound_to 11000

$$$$
