AV-unprocessed.smi:3260|AV-procd|sdf|12477|dock1
  -GOLD-   2272018373D 1   1.00000     0.00000
 Structure written by MMmdl.
 38 39  0  0  0  0  0  0  0  0  1 V2000
  151.0301  141.9035  156.6331 C   0  0  0  0  0  0  0  0  0  0  0  0
  150.2737  141.1052  155.6923 N   0  0  0  0  0  0  0  0  0  0  0  0
  148.9998  141.3184  155.2115 C   0  0  0  0  0  0  0  0  0  0  0  0
  148.7109  140.2981  154.3494 C   0  0  0  0  0  0  0  0  0  0  0  0
  147.4534  140.0565  153.5621 C   0  0  0  0  0  0  0  0  0  0  0  0
  146.7685  138.7446  153.9783 C   0  0  0  0  0  0  0  0  0  0  0  0
  146.8137  137.7541  152.9092 N   0  0  0  0  0  0  0  0  0  0  0  0
  145.7388  137.1729  152.3589 C   0  0  0  0  0  0  0  0  0  0  0  0
  144.5789  137.4089  152.6979 O   0  0  0  0  0  0  0  0  0  0  0  0
  146.0803  136.3061  151.3954 N   0  0  0  0  0  0  0  0  0  0  0  0
  145.1379  135.5426  150.5856 C   0  0  0  0  0  0  0  0  0  0  0  0
  144.9993  134.1005  151.0999 C   0  0  1  0  0  0  0  0  0  0  0  0
  144.0559  133.2371  150.2662 C   0  0  0  0  0  0  0  0  0  0  0  0
  144.5291  131.8209  150.5531 C   0  0  0  0  0  0  0  0  0  0  0  0
  145.9326  132.0076  151.1382 C   0  0  0  0  0  0  0  0  0  0  0  0
  146.2225  133.3905  150.9874 O   0  0  0  0  0  0  0  0  0  0  0  0
  149.8926  139.5035  154.3706 C   0  0  0  0  0  0  0  0  0  0  0  0
  150.8255  139.9892  155.1735 N   0  0  0  0  0  0  0  0  0  0  0  0
  150.3989  142.6894  157.0489 H   0  0  0  0  0  0  0  0  0  0  0  0
  151.8806  142.3610  156.1272 H   0  0  0  0  0  0  0  0  0  0  0  0
  151.3922  141.2738  157.4466 H   0  0  0  0  0  0  0  0  0  0  0  0
  148.4081  142.1674  155.5207 H   0  0  0  0  0  0  0  0  0  0  0  0
  146.7564  140.8845  153.6959 H   0  0  0  0  0  0  0  0  0  0  0  0
  147.6760  140.0276  152.4946 H   0  0  0  0  0  0  0  0  0  0  0  0
  147.2303  138.3417  154.8817 H   0  0  0  0  0  0  0  0  0  0  0  0
  145.7221  138.9304  154.2220 H   0  0  0  0  0  0  0  0  0  0  0  0
  147.7260  137.4970  152.5621 H   0  0  0  0  0  0  0  0  0  0  0  0
  147.0611  136.1804  151.1926 H   0  0  0  0  0  0  0  0  0  0  0  0
  144.1718  136.0445  150.6442 H   0  0  0  0  0  0  0  0  0  0  0  0
  145.4267  135.5533  149.5330 H   0  0  0  0  0  0  0  0  0  0  0  0
  144.6780  134.0962  152.1436 H   0  0  0  0  0  0  0  0  0  0  0  0
  143.0068  133.3947  150.5176 H   0  0  0  0  0  0  0  0  0  0  0  0
  144.1848  133.4556  149.2051 H   0  0  0  0  0  0  0  0  0  0  0  0
  143.8787  131.3244  151.2738 H   0  0  0  0  0  0  0  0  0  0  0  0
  144.5434  131.2193  149.6437 H   0  0  0  0  0  0  0  0  0  0  0  0
  145.9427  131.7515  152.1986 H   0  0  0  0  0  0  0  0  0  0  0  0
  146.6816  131.3967  150.6338 H   0  0  0  0  0  0  0  0  0  0  0  0
  150.0977  138.5917  153.8290 H   0  0  0  0  0  0  0  0  0  0  0  0
  1  2  1  0  0  0  0
  1 19  1  0  0  0  0
  1 20  1  0  0  0  0
  1 21  1  0  0  0  0
  2 18  1  0  0  0  0
  2  3  1  0  0  0  0
  3  4  2  0  0  0  0
  3 22  1  0  0  0  0
  4  5  1  0  0  0  0
  4 17  1  0  0  0  0
  5  6  1  0  0  0  0
  5 23  1  0  0  0  0
  5 24  1  0  0  0  0
  6  7  1  0  0  0  0
  6 25  1  0  0  0  0
  6 26  1  0  0  0  0
  7  8  1  0  0  0  0
  7 27  1  0  0  0  0
  8  9  2  0  0  0  0
  8 10  1  0  0  0  0
 10 11  1  0  0  0  0
 10 28  1  0  0  0  0
 11 12  1  0  0  0  0
 11 29  1  0  0  0  0
 11 30  1  0  0  0  0
 12 16  1  0  0  0  0
 12 13  1  0  0  0  0
 12 31  1  0  0  0  0
 13 14  1  0  0  0  0
 13 32  1  0  0  0  0
 13 33  1  0  0  0  0
 14 15  1  0  0  0  0
 14 34  1  0  0  0  0
 14 35  1  0  0  0  0
 15 16  1  0  0  0  0
 15 36  1  0  0  0  0
 15 37  1  0  0  0  0
 17 18  2  0  0  0  0
 17 38  1  0  0  0  0
M  END
> <s_m_source_file>
AV-unprocessed.smi

> <i_m_source_file_index>
3260

> <i_lp_mmshare_version>
43012

> <i_f3d_flags>
0

> <s_epik_input>
W0NIM11uMVtjSF1jKFtjSF1uMSlbQ0gyXVtDSDJdW05IXUMoPU8pW05IXVtDSDJdW0NAQEhdMltDSDJdW0NIMl1bQ0gyXU8y

> <s_epik_cmdline>
J2VwaWtfcHl0aG9uJywgJy1waCcsICc3LjAnLCAnLXRuJywgJzgnLCAnLW1hJywgJzIwMCcsICctbWV0YWxfYmluZGluZycsICctaW1hZScsICc8aW5maWxlLm1hZT4nLCAnLW9tYWUnLCAnPG91dGZpbGUubWFlPic=

> <r_lp_tautomer_probability>
1

> <r_epik_Ionization_Penalty>
0.000550106

> <r_epik_Ionization_Penalty_Charging>
0

> <r_epik_Ionization_Penalty_Neutral>
0.000550106

> <r_epik_State_Penalty>
-0

> <r_epik_Charging_Adjusted_Penalty>
0

> <i_epik_Tot_Q>
0

> <i_epik_Tot_abs_Q>
0

> <r_epik_Metal_State_Penalty>
-0

> <b_epik_Metal_Only>
0

> <s_lp_Force_Field>
OPLS_2005

> <r_lp_Energy>
10.8429

> <b_lp_Chiralities_Consistent>
1

> <s_lp_Variant>
AV-unprocessed.smi:3260-2

> <Gold.Version>
5.8.1

> <Gold.Id.Protein>
6NUR|6NUR_protein|mol2

> <Gold.PLP.Fitness>
44.7205

> <Gold.PLP.PLP>
-35.4209

> <Gold.PLP.part.hbond>
-3.0000

> <Gold.PLP.part.metal>
0.0000

> <Gold.PLP.part.buried>
-4.5520

> <Gold.PLP.part.nonpolar>
-28.5412

> <Gold.PLP.part.repulsive>
0.5702

> <Gold.PLP.ligand.clash>
0.0000

> <Gold.PLP.ligand.torsion>
0.5153

> <Gold.PLP.Chemscore.Hbond>
2.4260

> <Gold.PLP.Chemscore.CHOScore>
1.0000

> <Gold.PLP.Chemscore.Metal>
0.0000

> <Gold.Chemscore.Hbonds>
donor molecule, donor type, donor heavy atom, donor atom, acceptor molecule, acceptor atom, score
      L1  H     7    27       P1  7948  1.00
      L1  H    10    28       P1  7948  0.99
      P1  H  7989  7998       L1    18  0.28
      L1  C     3    22       P1  8028  0.85

> <Gold.PLP.Chemscore.Internal.Correction>
0.0522

> <Gold.Rescore>
     Score         DG    S(hbond)    S(metal)    S(lipo)     H(rot)  DE(clash)    DE(int)     intcor
     15.78     -16.44       1.88        0.00      80.41       1.85       0.16       0.50       ----

> <Gold.Chemscore.Fitness>
15.7827

> <Gold.Chemscore.DG>
-16.4398

> <Gold.Chemscore.ZeroCoef>
-5.4800

> <Gold.Chemscore.Hbond>
1.8849

> <Gold.Chemscore.Metal>
0.0000

> <Gold.Chemscore.Lipo>
80.4070

> <Gold.Chemscore.Internal_Hbond>
0.0000

> <Gold.Chemscore.DEClash>
0.1603

> <Gold.Chemscore.DEInternal>
0.4968

> <Gold.Chemscore.Rot>
1.8528

> <Gold.Chemscore.Internal.Correction>
   9.000000E+99

> <Gold.Chemscore.Hbonds>
donor molecule, donor type, donor heavy atom, donor atom, acceptor molecule, acceptor atom, score
      L1  H     7    27       P1  7948  0.96
      L1  H    10    28       P1  7948  0.93

> <Gold.Chemscore.Hbond.Weighted>
-6.2954

> <Gold.Chemscore.Metal.Weighted>
-0.0000

> <Gold.Chemscore.Lipo.Weighted>
-9.4076

> <Gold.Chemscore.Internal_Hbond.Weighted>
0.0000

> <Gold.Chemscore.DEClash.Weighted>
0.1603

> <Gold.Chemscore.DEInternal.Weighted>
0.4968

> <Gold.Chemscore.Rot.Weighted>
4.7433

> <Gold.Chemscore.Internal.Correction.Weighted>
   9.000000E+99

> <Gold.Protein.RotatedTorsions>
[ 6907 6896 6895 6894 ] final  103.74 input  -60.11 | X-H torsion
[ 7974 7965 7964 7962 ] final  -59.55 input  175.53 | X-H torsion
[ 8008 7997 7996 7995 ] final  -13.22 input   59.86 | X-H torsion
[ 10167 10162 10161 10158 ] final  161.27 input  -65.29 | X-H torsion
[ 10718 10713 10712 10709 ] final -101.73 input   66.30 | X-H torsion
[ 10763 10752 10751 10750 ] final -130.02 input  -60.55 | X-H torsion
[ 11005 11000 10999 10996 ] final   54.55 input  -57.11 | X-H torsion

> <Gold.Protein.ActiveResidues>
 VAL166  LYS551  ARG553  GLY616  TRP617  ASP618  TYR619  PRO620  LYS621  CYS622 
 ASP623  PHE694  ASN695  SER759  ASP760  ASP761  ALA762  ILE779  LEU786  VAL792 
 PHE793  MET794  SER795  GLU796  ALA797  LYS798  CYS799  TRP800  GLU811  SER814 

> <Gold.Protein.RotatedAtoms>
  152.5286  133.9781  159.7793 H   0  0  0  0  0  0  0  0  0  0  0  0  # atno 6907 bound_to 6896
  151.0040  133.6021  159.2698 H   0  0  0  0  0  0  0  0  0  0  0  0  # atno 6908 bound_to 6896
  151.3119  135.0803  159.9329 H   0  0  0  0  0  0  0  0  0  0  0  0  # atno 6909 bound_to 6896
  145.8261  140.8509  143.0107 H   0  0  0  0  0  0  0  0  0  0  0  0  # atno 7974 bound_to 7965
  154.5311  140.2255  155.8803 H   0  0  0  0  0  0  0  0  0  0  0  0  # atno 8008 bound_to 7997
  156.1764  140.3110  155.9031 H   0  0  0  0  0  0  0  0  0  0  0  0  # atno 8009 bound_to 7997
  155.3450  140.0452  157.3036 H   0  0  0  0  0  0  0  0  0  0  0  0  # atno 8010 bound_to 7997
  139.4848  144.4553  151.8777 H   0  0  0  0  0  0  0  0  0  0  0  0  # atno 10167 bound_to 10162
  156.0204  130.5387  150.7006 H   0  0  0  0  0  0  0  0  0  0  0  0  # atno 10718 bound_to 10713
  154.8756  135.3876  154.4016 H   0  0  0  0  0  0  0  0  0  0  0  0  # atno 10763 bound_to 10752
  153.4740  135.7030  153.5982 H   0  0  0  0  0  0  0  0  0  0  0  0  # atno 10764 bound_to 10752
  153.4427  135.3852  155.2205 H   0  0  0  0  0  0  0  0  0  0  0  0  # atno 10765 bound_to 10752
  140.0678  134.5512  155.9080 H   0  0  0  0  0  0  0  0  0  0  0  0  # atno 11005 bound_to 11000
  144.6743  140.0604  143.7476 LP  0  0  0  0  0  0  0  0  0  0  0  0  # atno 17320 bound_to 7965
  145.9622  139.2808  143.1149 LP  0  0  0  0  0  0  0  0  0  0  0  0  # atno 17321 bound_to 7965
  140.4012  144.2491  150.5893 LP  0  0  0  0  0  0  0  0  0  0  0  0  # atno 17342 bound_to 10162
  140.5055  143.2305  151.8614 LP  0  0  0  0  0  0  0  0  0  0  0  0  # atno 17343 bound_to 10162
  157.4667  131.0889  151.0687 LP  0  0  0  0  0  0  0  0  0  0  0  0  # atno 17370 bound_to 10713
  157.1159  130.6041  149.5493 LP  0  0  0  0  0  0  0  0  0  0  0  0  # atno 17371 bound_to 10713
  141.1999  133.6610  156.5871 LP  0  0  0  0  0  0  0  0  0  0  0  0  # atno 17394 bound_to 11000
  140.3673  134.7636  157.4575 LP  0  0  0  0  0  0  0  0  0  0  0  0  # atno 17395 bound_to 11000

$$$$
