AV-unprocessed.smi:1592|AV-procd|sdf|6407|dock1
  -GOLD-   22720 7 43D 1   1.00000     0.00000
 Structure written by MMmdl.
 26 27  0  0  0  0  0  0  0  0  2 V2000
  149.7879  141.5786  157.2353 O   0  0  0  0  0  0  0  0  0  0  0  0
  150.8563  142.0882  156.8934 C   0  0  0  0  0  0  0  0  0  0  0  0
  151.7456  141.5198  156.0587 N   0  0  0  0  0  0  0  0  0  0  0  0
  151.6820  140.2517  155.4174 C   0  0  0  0  0  0  0  0  0  0  0  0
  151.1694  140.0804  154.1725 N   0  0  0  0  0  0  0  0  0  0  0  0
  151.1444  138.8451  153.6316 C   0  0  0  0  0  0  0  0  0  0  0  0
  151.6262  137.7031  154.2950 C   0  0  0  0  0  0  0  0  0  0  0  0
  152.1599  137.8639  155.5852 C   0  0  0  0  0  0  0  0  0  0  0  0
  152.1901  139.1514  156.1578 C   0  0  0  0  0  0  0  0  0  0  0  0
  152.7087  139.3061  157.4152 O   0  5  0  0  0  0  0  0  0  0  0  0
  151.2375  143.4761  157.4204 C   0  0  2  0  0  0  0  0  0  0  0  0
  152.6433  143.5398  158.0473 C   0  0  0  0  0  0  0  0  0  0  0  0
  152.3743  143.7828  159.5201 C   0  0  0  0  0  0  0  0  0  0  0  0
  151.0408  144.5145  159.4806 C   0  0  0  0  0  0  0  0  0  0  0  0
  150.3317  143.8212  158.4669 O   0  0  0  0  0  0  0  0  0  0  0  0
  152.5789  142.0532  155.8561 H   0  0  0  0  0  0  0  0  0  0  0  0
  150.7264  138.7656  152.6390 H   0  0  0  0  0  0  0  0  0  0  0  0
  151.5877  136.7306  153.8274 H   0  0  0  0  0  0  0  0  0  0  0  0
  152.5397  137.0098  156.1271 H   0  0  0  0  0  0  0  0  0  0  0  0
  151.1575  144.2203  156.6258 H   0  0  0  0  0  0  0  0  0  0  0  0
  153.2445  142.6438  157.8863 H   0  0  0  0  0  0  0  0  0  0  0  0
  153.1946  144.3803  157.6236 H   0  0  0  0  0  0  0  0  0  0  0  0
  152.2612  142.8316  160.0423 H   0  0  0  0  0  0  0  0  0  0  0  0
  153.1620  144.3542  160.0116 H   0  0  0  0  0  0  0  0  0  0  0  0
  150.5126  144.4848  160.4338 H   0  0  0  0  0  0  0  0  0  0  0  0
  151.1744  145.5572  159.1885 H   0  0  0  0  0  0  0  0  0  0  0  0
  1  2  2  0  0  0  0
  2  3  1  0  0  0  0
  2 11  1  0  0  0  0
  3 16  1  0  0  0  0
  3  4  1  0  0  0  0
  4  9  2  0  0  0  0
  4  5  1  0  0  0  0
  5  6  2  0  0  0  0
  6 17  1  0  0  0  0
  6  7  1  0  0  0  0
  7 18  1  0  0  0  0
  7  8  2  0  0  0  0
  8  9  1  0  0  0  0
  8 19  1  0  0  0  0
  9 10  1  0  0  0  0
 11 15  1  0  0  0  0
 11 12  1  0  0  0  0
 11 20  1  0  0  0  0
 12 13  1  0  0  0  0
 12 21  1  0  0  0  0
 12 22  1  0  0  0  0
 13 14  1  0  0  0  0
 13 23  1  0  0  0  0
 13 24  1  0  0  0  0
 14 15  1  0  0  0  0
 14 25  1  0  0  0  0
 14 26  1  0  0  0  0
M  CHG  1  10  -1
M  END
> <s_m_source_file>
AV-unprocessed.smi

> <i_m_source_file_index>
1592

> <i_lp_mmshare_version>
43012

> <i_f3d_flags>
0

> <s_epik_input>
TzFbQ0gyXVtDSDJdW0NIMl1bQ0BIXTFDKD1PKVtOSF1jMm5bY0hdW2NIXVtjSF1jMltPSF0=

> <s_epik_cmdline>
J2VwaWtfcHl0aG9uJywgJy1waCcsICc3LjAnLCAnLXRuJywgJzgnLCAnLW1hJywgJzIwMCcsICctbWV0YWxfYmluZGluZycsICctaW1hZScsICc8aW5maWxlLm1hZT4nLCAnLW9tYWUnLCAnPG91dGZpbGUubWFlPic=

> <r_epik_Ionization_Penalty>
4.05601

> <r_epik_Ionization_Penalty_Charging>
2.06015

> <r_epik_Ionization_Penalty_Neutral>
1.99585

> <r_epik_State_Penalty>
2.62166

> <r_epik_Charging_Adjusted_Penalty>
4.68182

> <i_epik_Tot_Q>
-1

> <i_epik_Tot_abs_Q>
1

> <r_epik_Metal_State_Penalty>
0.603772

> <b_epik_Metal_Only>
0

> <s_lp_Force_Field>
OPLS_2005

> <r_lp_Energy>
18.4071

> <b_lp_Chiralities_Consistent>
1

> <s_lp_Variant>
AV-unprocessed.smi:1592-7

> <Gold.Version>
5.8.1

> <Gold.Id.Protein>
6NUR|6NUR_protein|mol2

> <Gold.PLP.Fitness>
39.4599

> <Gold.PLP.PLP>
-29.5450

> <Gold.PLP.part.hbond>
-2.4589

> <Gold.PLP.part.metal>
0.0000

> <Gold.PLP.part.buried>
-4.4868

> <Gold.PLP.part.nonpolar>
-23.5903

> <Gold.PLP.part.repulsive>
0.3177

> <Gold.PLP.ligand.clash>
0.0000

> <Gold.PLP.ligand.torsion>
0.9225

> <Gold.PLP.Chemscore.Hbond>
2.7650

> <Gold.PLP.Chemscore.CHOScore>
1.1522

> <Gold.PLP.Chemscore.Metal>
0.0000

> <Gold.Chemscore.Hbonds>
donor molecule, donor type, donor heavy atom, donor atom, acceptor molecule, acceptor atom, score
      P1  H  7989  7998       L1     5  0.02
      P1  H  7997  8010       L1    10  1.92
      L1  C     6    17       P1  7957  0.69

> <Gold.PLP.Chemscore.Internal.Correction>
0.0082

> <Gold.Rescore>
     Score         DG    S(hbond)    S(metal)    S(lipo)     H(rot)  DE(clash)    DE(int)     intcor
     13.92     -14.93       0.97        0.00      75.05       1.00       0.00       1.01       ----

> <Gold.Chemscore.Fitness>
13.9164

> <Gold.Chemscore.DG>
-14.9276

> <Gold.Chemscore.ZeroCoef>
-5.4800

> <Gold.Chemscore.Hbond>
0.9662

> <Gold.Chemscore.Metal>
0.0000

> <Gold.Chemscore.Lipo>
75.0481

> <Gold.Chemscore.Internal_Hbond>
0.0000

> <Gold.Chemscore.DEClash>
0.0000

> <Gold.Chemscore.DEInternal>
1.0113

> <Gold.Chemscore.Rot>
1.0000

> <Gold.Chemscore.Internal.Correction>
   9.000000E+99

> <Gold.Chemscore.Hbonds>
donor molecule, donor type, donor heavy atom, donor atom, acceptor molecule, acceptor atom, score
      P1  H  7989  7998       L1     5  0.04
      P1  H  7997  8010       L1    10  0.30

> <Gold.Chemscore.Hbond.Weighted>
-3.2270

> <Gold.Chemscore.Metal.Weighted>
-0.0000

> <Gold.Chemscore.Lipo.Weighted>
-8.7806

> <Gold.Chemscore.Internal_Hbond.Weighted>
0.0000

> <Gold.Chemscore.DEClash.Weighted>
0.0000

> <Gold.Chemscore.DEInternal.Weighted>
1.0113

> <Gold.Chemscore.Rot.Weighted>
2.5600

> <Gold.Chemscore.Internal.Correction.Weighted>
   9.000000E+99

> <Gold.Protein.RotatedTorsions>
[ 6907 6896 6895 6894 ] final  -36.10 input  -60.11 | X-H torsion
[ 7974 7965 7964 7962 ] final -178.64 input  175.53 | X-H torsion
[ 8008 7997 7996 7995 ] final   34.54 input   59.86 | X-H torsion
[ 10167 10162 10161 10158 ] final -170.08 input  -65.29 | X-H torsion
[ 10718 10713 10712 10709 ] final  102.64 input   66.30 | X-H torsion
[ 10763 10752 10751 10750 ] final   -1.20 input  -60.55 | X-H torsion
[ 11005 11000 10999 10996 ] final   13.39 input  -57.11 | X-H torsion

> <Gold.Protein.ActiveResidues>
 VAL166  LYS551  ARG553  GLY616  TRP617  ASP618  TYR619  PRO620  LYS621  CYS622 
 ASP623  PHE694  ASN695  SER759  ASP760  ASP761  ALA762  ILE779  LEU786  VAL792 
 PHE793  MET794  SER795  GLU796  ALA797  LYS798  CYS799  TRP800  GLU811  SER814 

> <Gold.Protein.RotatedAtoms>
  151.0315  134.9542  159.8113 H   0  0  0  0  0  0  0  0  0  0  0  0  # atno 6907 bound_to 6896
  152.5346  134.2774  159.9004 H   0  0  0  0  0  0  0  0  0  0  0  0  # atno 6908 bound_to 6896
  151.2784  133.4179  159.2659 H   0  0  0  0  0  0  0  0  0  0  0  0  # atno 6909 bound_to 6896
  144.7132  140.0838  143.6424 H   0  0  0  0  0  0  0  0  0  0  0  0  # atno 7974 bound_to 7965
  155.1564  140.3279  155.4420 H   0  0  0  0  0  0  0  0  0  0  0  0  # atno 8008 bound_to 7997
  156.2557  140.1968  156.6624 H   0  0  0  0  0  0  0  0  0  0  0  0  # atno 8009 bound_to 7997
  154.6436  140.0567  156.9861 H   0  0  0  0  0  0  0  0  0  0  0  0  # atno 8010 bound_to 7997
  139.5883  144.1268  152.1603 H   0  0  0  0  0  0  0  0  0  0  0  0  # atno 10167 bound_to 10162
  157.6796  131.0758  150.5435 H   0  0  0  0  0  0  0  0  0  0  0  0  # atno 10718 bound_to 10713
  153.3418  135.6981  153.6861 H   0  0  0  0  0  0  0  0  0  0  0  0  # atno 10763 bound_to 10752
  153.5622  135.3532  155.2804 H   0  0  0  0  0  0  0  0  0  0  0  0  # atno 10764 bound_to 10752
  154.8638  135.4252  154.2633 H   0  0  0  0  0  0  0  0  0  0  0  0  # atno 10765 bound_to 10752
  140.4813  134.0932  155.7751 H   0  0  0  0  0  0  0  0  0  0  0  0  # atno 11005 bound_to 11000
  145.9679  139.2848  143.1116 LP  0  0  0  0  0  0  0  0  0  0  0  0  # atno 17320 bound_to 7965
  145.9149  140.9155  143.0435 LP  0  0  0  0  0  0  0  0  0  0  0  0  # atno 17321 bound_to 7965
  140.0837  144.5679  150.7104 LP  0  0  0  0  0  0  0  0  0  0  0  0  # atno 17342 bound_to 10162
  140.7151  143.2538  151.4459 LP  0  0  0  0  0  0  0  0  0  0  0  0  # atno 17343 bound_to 10162
  156.5741  130.4287  149.6006 LP  0  0  0  0  0  0  0  0  0  0  0  0  # atno 17370 bound_to 10713
  156.2716  130.7020  151.1819 LP  0  0  0  0  0  0  0  0  0  0  0  0  # atno 17371 bound_to 10713
  141.1530  133.8935  157.2051 LP  0  0  0  0  0  0  0  0  0  0  0  0  # atno 17394 bound_to 11000
  139.9825  135.0093  156.9783 LP  0  0  0  0  0  0  0  0  0  0  0  0  # atno 17395 bound_to 11000

$$$$
