AV-unprocessed.smi:3250|AV-procd|sdf|12429|dock5
  -GOLD-   2272018313D 1   1.00000     0.00000
 Structure written by MMmdl.
 38 39  0  0  0  0  0  0  0  0  1 V2000
  146.9664  139.3603  153.0760 C   0  0  0  0  0  0  0  0  0  0  0  0
  147.6098  140.5715  153.7658 C   0  0  0  0  0  0  0  0  0  0  0  0
  148.7122  140.2522  154.6710 N   0  0  0  0  0  0  0  0  0  0  0  0
  149.5995  139.2239  154.1332 C   0  0  0  0  0  0  0  0  0  0  0  0
  150.7733  138.9274  155.0818 C   0  0  0  0  0  0  0  0  0  0  0  0
  151.4835  140.1314  155.3505 O   0  0  0  0  0  0  0  0  0  0  0  0
  150.6653  141.1407  155.9374 C   0  0  1  0  0  0  0  0  0  0  0  0
  151.5310  142.3829  156.1853 C   0  0  0  0  0  0  0  0  0  0  0  0
  150.8489  143.3533  157.0281 N   0  0  0  0  0  0  0  0  0  0  0  0
  151.2466  143.6791  158.3107 C   0  0  0  0  0  0  0  0  0  0  0  0
  151.0441  144.9482  158.6719 N   0  0  0  0  0  0  0  0  0  0  0  0
  151.4168  145.2965  159.9226 C   0  0  0  0  0  0  0  0  0  0  0  0
  151.9947  144.3683  160.8115 C   0  0  0  0  0  0  0  0  0  0  0  0
  152.1667  143.0564  160.3260 C   0  0  0  0  0  0  0  0  0  0  0  0
  152.7308  142.0989  161.1432 O   0  0  0  0  0  0  0  0  0  0  0  0
  152.9435  142.4268  162.5117 C   0  0  0  0  0  0  0  0  0  0  0  0
  151.7875  142.7178  159.0682 N   0  0  0  0  0  0  0  0  0  0  0  0
  149.4985  141.4429  154.9762 C   0  0  0  0  0  0  0  0  0  0  0  0
  146.0939  139.6680  152.4996 H   0  0  0  0  0  0  0  0  0  0  0  0
  146.6363  138.6211  153.8065 H   0  0  0  0  0  0  0  0  0  0  0  0
  147.6530  138.8716  152.3853 H   0  0  0  0  0  0  0  0  0  0  0  0
  147.9437  141.2852  153.0112 H   0  0  0  0  0  0  0  0  0  0  0  0
  146.8269  141.0783  154.3314 H   0  0  0  0  0  0  0  0  0  0  0  0
  149.0489  138.2997  153.9619 H   0  0  0  0  0  0  0  0  0  0  0  0
  149.9900  139.5408  153.1649 H   0  0  0  0  0  0  0  0  0  0  0  0
  150.4154  138.4912  156.0157 H   0  0  0  0  0  0  0  0  0  0  0  0
  151.4534  138.2055  154.6300 H   0  0  0  0  0  0  0  0  0  0  0  0
  150.2662  140.7804  156.8877 H   0  0  0  0  0  0  0  0  0  0  0  0
  152.4781  142.0993  156.6457 H   0  0  0  0  0  0  0  0  0  0  0  0
  151.7665  142.8604  155.2334 H   0  0  0  0  0  0  0  0  0  0  0  0
  149.9788  143.7452  156.6982 H   0  0  0  0  0  0  0  0  0  0  0  0
  151.2527  146.3226  160.2165 H   0  0  0  0  0  0  0  0  0  0  0  0
  152.2911  144.6482  161.8115 H   0  0  0  0  0  0  0  0  0  0  0  0
  153.3861  141.5723  163.0232 H   0  0  0  0  0  0  0  0  0  0  0  0
  152.0053  142.6639  163.0152 H   0  0  0  0  0  0  0  0  0  0  0  0
  153.6293  143.2683  162.6186 H   0  0  0  0  0  0  0  0  0  0  0  0
  149.8913  141.8717  154.0526 H   0  0  0  0  0  0  0  0  0  0  0  0
  148.8550  142.2027  155.4218 H   0  0  0  0  0  0  0  0  0  0  0  0
  1  2  1  0  0  0  0
  1 19  1  0  0  0  0
  1 20  1  0  0  0  0
  1 21  1  0  0  0  0
  2  3  1  0  0  0  0
  2 22  1  0  0  0  0
  2 23  1  0  0  0  0
  3 18  1  0  0  0  0
  3  4  1  0  0  0  0
  4  5  1  0  0  0  0
  4 24  1  0  0  0  0
  4 25  1  0  0  0  0
  5  6  1  0  0  0  0
  5 26  1  0  0  0  0
  5 27  1  0  0  0  0
  6  7  1  0  0  0  0
  7  8  1  0  0  0  0
  7 18  1  0  0  0  0
  7 28  1  0  0  0  0
  8  9  1  0  0  0  0
  8 29  1  0  0  0  0
  8 30  1  0  0  0  0
  9 10  1  0  0  0  0
  9 31  1  0  0  0  0
 10 17  1  0  0  0  0
 10 11  2  0  0  0  0
 11 12  1  0  0  0  0
 12 13  2  0  0  0  0
 12 32  1  0  0  0  0
 13 14  1  0  0  0  0
 13 33  1  0  0  0  0
 14 15  1  0  0  0  0
 14 17  2  0  0  0  0
 15 16  1  0  0  0  0
 16 34  1  0  0  0  0
 16 35  1  0  0  0  0
 16 36  1  0  0  0  0
 18 37  1  0  0  0  0
 18 38  1  0  0  0  0
M  END
> <s_m_source_file>
AV-unprocessed.smi

> <i_m_source_file_index>
3250

> <i_lp_mmshare_version>
43012

> <i_f3d_flags>
0

> <s_epik_input>
W0NIM11bQ0gyXU4xW0NIMl1bQ0gyXU9bQ0BIXShbQ0gyXTEpW0NIMl1bTkhdYzJuW2NIXVtjSF1jKG4yKU9bQ0gzXQ==

> <s_epik_cmdline>
J2VwaWtfcHl0aG9uJywgJy1waCcsICc3LjAnLCAnLXRuJywgJzgnLCAnLW1hJywgJzIwMCcsICctbWV0YWxfYmluZGluZycsICctaW1hZScsICc8aW5maWxlLm1hZT4nLCAnLW9tYWUnLCAnPG91dGZpbGUubWFlPic=

> <r_lp_tautomer_probability>
1

> <r_epik_Ionization_Penalty>
0.832605

> <r_epik_Ionization_Penalty_Charging>
0

> <r_epik_Ionization_Penalty_Neutral>
0.832605

> <r_epik_State_Penalty>
0.927194

> <r_epik_Charging_Adjusted_Penalty>
0.927194

> <i_epik_Tot_Q>
0

> <i_epik_Tot_abs_Q>
0

> <r_epik_Metal_State_Penalty>
0.908632

> <b_epik_Metal_Only>
0

> <s_lp_Force_Field>
OPLS_2005

> <r_lp_Energy>
15.3419

> <b_lp_Chiralities_Consistent>
1

> <s_lp_Variant>
AV-unprocessed.smi:3250-5

> <Gold.Version>
5.8.1

> <Gold.Id.Protein>
6NUR|6NUR_protein|mol2

> <Gold.PLP.Fitness>
42.4206

> <Gold.PLP.PLP>
-37.6459

> <Gold.PLP.part.hbond>
-2.0000

> <Gold.PLP.part.metal>
0.0000

> <Gold.PLP.part.buried>
-8.1753

> <Gold.PLP.part.nonpolar>
-27.9479

> <Gold.PLP.part.repulsive>
0.3104

> <Gold.PLP.ligand.clash>
0.0121

> <Gold.PLP.ligand.torsion>
0.5542

> <Gold.PLP.Chemscore.Hbond>
1.9600

> <Gold.PLP.Chemscore.CHOScore>
0.0000

> <Gold.PLP.Chemscore.Metal>
0.0000

> <Gold.Chemscore.Hbonds>
donor molecule, donor type, donor heavy atom, donor atom, acceptor molecule, acceptor atom, score
      L1  H     9    31       P1  8028  1.00
      P1  H  7989  7998       L1     6  0.95

> <Gold.PLP.Chemscore.Internal.Correction>
0.0151

> <Gold.Rescore>
     Score         DG    S(hbond)    S(metal)    S(lipo)     H(rot)  DE(clash)    DE(int)     intcor
     12.97     -14.69       1.18        0.00      81.50       1.67       1.30       0.42       ----

> <Gold.Chemscore.Fitness>
12.9724

> <Gold.Chemscore.DG>
-14.6946

> <Gold.Chemscore.ZeroCoef>
-5.4800

> <Gold.Chemscore.Hbond>
1.1807

> <Gold.Chemscore.Metal>
0.0000

> <Gold.Chemscore.Lipo>
81.4976

> <Gold.Chemscore.Internal_Hbond>
0.0000

> <Gold.Chemscore.DEClash>
1.3014

> <Gold.Chemscore.DEInternal>
0.4209

> <Gold.Chemscore.Rot>
1.6657

> <Gold.Chemscore.Internal.Correction>
   9.000000E+99

> <Gold.Chemscore.Hbonds>
donor molecule, donor type, donor heavy atom, donor atom, acceptor molecule, acceptor atom, score
      L1  H     9    31       P1  8028  0.99
      P1  H  7989  7998       L1     6  0.06

> <Gold.Chemscore.Hbond.Weighted>
-3.9436

> <Gold.Chemscore.Metal.Weighted>
-0.0000

> <Gold.Chemscore.Lipo.Weighted>
-9.5352

> <Gold.Chemscore.Internal_Hbond.Weighted>
0.0000

> <Gold.Chemscore.DEClash.Weighted>
1.3014

> <Gold.Chemscore.DEInternal.Weighted>
0.4209

> <Gold.Chemscore.Rot.Weighted>
4.2642

> <Gold.Chemscore.Internal.Correction.Weighted>
   9.000000E+99

> <Gold.Protein.RotatedTorsions>
[ 6907 6896 6895 6894 ] final  178.86 input  -60.11 | X-H torsion
[ 7974 7965 7964 7962 ] final  112.72 input  175.53 | X-H torsion
[ 8008 7997 7996 7995 ] final   88.61 input   59.86 | X-H torsion
[ 10167 10162 10161 10158 ] final -130.47 input  -65.29 | X-H torsion
[ 10718 10713 10712 10709 ] final  -34.91 input   66.30 | X-H torsion
[ 10763 10752 10751 10750 ] final  -92.63 input  -60.55 | X-H torsion
[ 11005 11000 10999 10996 ] final  -90.29 input  -57.11 | X-H torsion

> <Gold.Protein.ActiveResidues>
 VAL166  LYS551  ARG553  GLY616  TRP617  ASP618  TYR619  PRO620  LYS621  CYS622 
 ASP623  PHE694  ASN695  SER759  ASP760  ASP761  ALA762  ILE779  LEU786  VAL792 
 PHE793  MET794  SER795  GLU796  ALA797  LYS798  CYS799  TRP800  GLU811  SER814 

> <Gold.Protein.RotatedAtoms>
  151.6811  133.3312  159.3219 H   0  0  0  0  0  0  0  0  0  0  0  0  # atno 6907 bound_to 6896
  150.7822  134.6780  159.6437 H   0  0  0  0  0  0  0  0  0  0  0  0  # atno 6908 bound_to 6896
  152.3883  134.6485  160.0169 H   0  0  0  0  0  0  0  0  0  0  0  0  # atno 6909 bound_to 6896
  145.2260  139.2841  143.4193 H   0  0  0  0  0  0  0  0  0  0  0  0  # atno 7974 bound_to 7965
  155.9899  140.3369  155.6743 H   0  0  0  0  0  0  0  0  0  0  0  0  # atno 8008 bound_to 7997
  155.6435  140.0698  157.2628 H   0  0  0  0  0  0  0  0  0  0  0  0  # atno 8009 bound_to 7997
  154.4216  140.1738  156.1586 H   0  0  0  0  0  0  0  0  0  0  0  0  # atno 8010 bound_to 7997
  139.9290  143.6294  152.2534 H   0  0  0  0  0  0  0  0  0  0  0  0  # atno 10167 bound_to 10162
  156.3449  130.4299  149.7754 H   0  0  0  0  0  0  0  0  0  0  0  0  # atno 10718 bound_to 10713
  154.6880  135.5224  153.8353 H   0  0  0  0  0  0  0  0  0  0  0  0  # atno 10763 bound_to 10752
  153.0611  135.6569  154.0469 H   0  0  0  0  0  0  0  0  0  0  0  0  # atno 10764 bound_to 10752
  154.0347  135.2982  155.3343 H   0  0  0  0  0  0  0  0  0  0  0  0  # atno 10765 bound_to 10752
  141.1568  133.7683  156.9716 H   0  0  0  0  0  0  0  0  0  0  0  0  # atno 11005 bound_to 11000
  146.3364  140.2580  142.8601 LP  0  0  0  0  0  0  0  0  0  0  0  0  # atno 17320 bound_to 7965
  144.9721  140.8379  143.5449 LP  0  0  0  0  0  0  0  0  0  0  0  0  # atno 17321 bound_to 7965
  139.6798  144.7656  151.1629 LP  0  0  0  0  0  0  0  0  0  0  0  0  # atno 17342 bound_to 10162
  140.7642  143.5742  150.8964 LP  0  0  0  0  0  0  0  0  0  0  0  0  # atno 17343 bound_to 10162
  156.4977  130.8114  151.3120 LP  0  0  0  0  0  0  0  0  0  0  0  0  # atno 17370 bound_to 10713
  157.7452  130.9955  150.2745 LP  0  0  0  0  0  0  0  0  0  0  0  0  # atno 17371 bound_to 10713
  140.1125  134.9468  157.2086 LP  0  0  0  0  0  0  0  0  0  0  0  0  # atno 17394 bound_to 11000
  140.3175  134.2954  155.7253 LP  0  0  0  0  0  0  0  0  0  0  0  0  # atno 17395 bound_to 11000

$$$$
