AV-unprocessed.smi:2966|AV-procd|sdf|11325|dock8
  -GOLD-   2272016233D 1   1.00000     0.00000
 Structure written by MMmdl.
 41 43  0  0  0  0  0  0  0  0  2 V2000
  152.9002  138.7335  154.6948 C   0  0  0  0  0  0  0  0  0  0  0  0
  152.7245  139.4764  155.8879 O   0  0  0  0  0  0  0  0  0  0  0  0
  151.8061  138.8652  156.7793 C   0  0  0  0  0  0  0  0  0  0  0  0
  151.6111  139.7501  158.0179 C   0  0  0  0  0  0  0  0  0  0  0  0
  151.1850  141.1130  157.6683 N   0  0  0  0  0  0  0  0  0  0  0  0
  150.3390  141.5460  156.6936 C   0  0  0  0  0  0  0  0  0  0  0  0
  149.4941  140.5391  155.5198 S   0  0  0  0  0  0  0  0  0  0  0  0
  148.3754  141.6873  154.6696 C   0  0  0  0  0  0  0  0  0  0  0  0
  147.0372  141.8385  155.3912 C   0  0  0  0  0  0  0  0  0  0  0  0
  146.8223  141.2045  156.4240 O   0  0  0  0  0  0  0  0  0  0  0  0
  146.1628  142.6991  154.8497 N   0  0  0  0  0  0  0  0  0  0  0  0
  144.8823  143.0272  155.3859 C   0  0  0  0  0  0  0  0  0  0  0  0
  144.0943  144.1228  154.7016 C   0  0  0  0  0  0  0  0  0  0  0  0
  144.7234  144.3813  156.0429 C   0  0  0  0  0  0  0  0  0  0  0  0
  150.2821  142.9036  156.7629 N   0  3  0  0  0  0  0  0  0  0  0  0
  151.0950  143.3486  157.8068 C   0  0  0  0  0  0  0  0  0  0  0  0
  151.3586  144.6339  158.2702 C   0  0  0  0  0  0  0  0  0  0  0  0
  152.2409  144.7434  159.3649 C   0  0  0  0  0  0  0  0  0  0  0  0
  152.8231  143.6033  159.9559 C   0  0  0  0  0  0  0  0  0  0  0  0
  152.5499  142.3052  159.4769 C   0  0  0  0  0  0  0  0  0  0  0  0
  151.6773  142.2045  158.3936 C   0  0  0  0  0  0  0  0  0  0  0  0
  153.6155  139.2421  154.0487 H   0  0  0  0  0  0  0  0  0  0  0  0
  151.9611  138.6372  154.1484 H   0  0  0  0  0  0  0  0  0  0  0  0
  153.2873  137.7357  154.9051 H   0  0  0  0  0  0  0  0  0  0  0  0
  150.8474  138.7125  156.2815 H   0  0  0  0  0  0  0  0  0  0  0  0
  152.1768  137.8841  157.0809 H   0  0  0  0  0  0  0  0  0  0  0  0
  150.8884  139.3111  158.7056 H   0  0  0  0  0  0  0  0  0  0  0  0
  152.5477  139.8275  158.5698 H   0  0  0  0  0  0  0  0  0  0  0  0
  148.8582  142.6612  154.5853 H   0  0  0  0  0  0  0  0  0  0  0  0
  148.2050  141.3258  153.6548 H   0  0  0  0  0  0  0  0  0  0  0  0
  146.4330  143.1730  153.9998 H   0  0  0  0  0  0  0  0  0  0  0  0
  144.2959  142.2155  155.8145 H   0  0  0  0  0  0  0  0  0  0  0  0
  144.5415  144.6080  153.8361 H   0  0  0  0  0  0  0  0  0  0  0  0
  143.0119  144.0158  154.6672 H   0  0  0  0  0  0  0  0  0  0  0  0
  144.0626  144.4452  156.9049 H   0  0  0  0  0  0  0  0  0  0  0  0
  145.5893  145.0405  156.0708 H   0  0  0  0  0  0  0  0  0  0  0  0
  150.9130  145.5091  157.8202 H   0  0  0  0  0  0  0  0  0  0  0  0
  152.4750  145.7214  159.7602 H   0  0  0  0  0  0  0  0  0  0  0  0
  153.4927  143.7261  160.7949 H   0  0  0  0  0  0  0  0  0  0  0  0
  152.9976  141.4389  159.9409 H   0  0  0  0  0  0  0  0  0  0  0  0
  149.7279  143.4796  156.1428 H   0  0  0  0  0  0  0  0  0  0  0  0
  1  2  1  0  0  0  0
  1 22  1  0  0  0  0
  1 23  1  0  0  0  0
  1 24  1  0  0  0  0
  2  3  1  0  0  0  0
  3  4  1  0  0  0  0
  3 25  1  0  0  0  0
  3 26  1  0  0  0  0
  4  5  1  0  0  0  0
  4 27  1  0  0  0  0
  4 28  1  0  0  0  0
  5 21  1  0  0  0  0
  5  6  1  0  0  0  0
  6  7  1  0  0  0  0
  6 15  2  0  0  0  0
  7  8  1  0  0  0  0
  8  9  1  0  0  0  0
  8 29  1  0  0  0  0
  8 30  1  0  0  0  0
  9 10  2  0  0  0  0
  9 11  1  0  0  0  0
 11 12  1  0  0  0  0
 11 31  1  0  0  0  0
 12 14  1  0  0  0  0
 12 13  1  0  0  0  0
 12 32  1  0  0  0  0
 13 14  1  0  0  0  0
 13 33  1  0  0  0  0
 13 34  1  0  0  0  0
 14 35  1  0  0  0  0
 14 36  1  0  0  0  0
 15 16  1  0  0  0  0
 15 41  1  0  0  0  0
 16 21  2  0  0  0  0
 16 17  1  0  0  0  0
 17 18  2  0  0  0  0
 17 37  1  0  0  0  0
 18 19  1  0  0  0  0
 18 38  1  0  0  0  0
 19 20  2  0  0  0  0
 19 39  1  0  0  0  0
 20 21  1  0  0  0  0
 20 40  1  0  0  0  0
M  CHG  1  15   1
M  END
> <s_m_source_file>
AV-unprocessed.smi

> <i_m_source_file_index>
2966

> <i_lp_mmshare_version>
43012

> <i_f3d_flags>
0

> <s_epik_input>
W2NIXTFbY0hdW2NIXVtjSF1jKGMxMiluKFtDSDJdW0NIMl1PW0NIM10pYyhuMilTW0NIMl1DKD1PKVtOSF1bQ0hdM1tDSDJdW0NIMl0z

> <s_epik_cmdline>
J2VwaWtfcHl0aG9uJywgJy1waCcsICc3LjAnLCAnLXRuJywgJzgnLCAnLW1hJywgJzIwMCcsICctbWV0YWxfYmluZGluZycsICctaW1hZScsICc8aW5maWxlLm1hZT4nLCAnLW9tYWUnLCAnPG91dGZpbGUubWFlPic=

> <r_epik_Ionization_Penalty>
1.66257

> <r_epik_Ionization_Penalty_Charging>
1.66257

> <r_epik_Ionization_Penalty_Neutral>
8.69326e-08

> <r_epik_State_Penalty>
1.76557

> <r_epik_Charging_Adjusted_Penalty>
3.42813

> <i_epik_Tot_Q>
1

> <i_epik_Tot_abs_Q>
1

> <r_epik_Metal_State_Penalty>
1.80073

> <b_epik_Metal_Only>
0

> <s_lp_Force_Field>
OPLS_2005

> <r_lp_Energy>
20.3811

> <b_lp_Chiralities_Consistent>
1

> <s_lp_Variant>
AV-unprocessed.smi:2966-2

> <Gold.Version>
5.8.1

> <Gold.Id.Protein>
6NUR|6NUR_protein|mol2

> <Gold.PLP.Fitness>
52.5795

> <Gold.PLP.PLP>
-44.7947

> <Gold.PLP.part.hbond>
-2.0000

> <Gold.PLP.part.metal>
0.0000

> <Gold.PLP.part.buried>
-7.6022

> <Gold.PLP.part.nonpolar>
-36.8702

> <Gold.PLP.part.repulsive>
0.1444

> <Gold.PLP.ligand.clash>
0.0000

> <Gold.PLP.ligand.torsion>
0.6533

> <Gold.PLP.Chemscore.Hbond>
3.0000

> <Gold.PLP.Chemscore.CHOScore>
0.0000

> <Gold.PLP.Chemscore.Metal>
0.0000

> <Gold.Chemscore.Hbonds>
donor molecule, donor type, donor heavy atom, donor atom, acceptor molecule, acceptor atom, score
      L1  H    15    41       P1  8028  2.00
      P1  H  7997  8010       L1     2  1.00

> <Gold.PLP.Chemscore.Internal.Correction>
0.0914

> <Gold.Rescore>
     Score         DG    S(hbond)    S(metal)    S(lipo)     H(rot)  DE(clash)    DE(int)     intcor
     18.63     -19.16       1.89        0.00     111.35       2.21       0.02       0.51       ----

> <Gold.Chemscore.Fitness>
18.6321

> <Gold.Chemscore.DG>
-19.1626

> <Gold.Chemscore.ZeroCoef>
-5.4800

> <Gold.Chemscore.Hbond>
1.8936

> <Gold.Chemscore.Metal>
0.0000

> <Gold.Chemscore.Lipo>
111.3501

> <Gold.Chemscore.Internal_Hbond>
0.0000

> <Gold.Chemscore.DEClash>
0.0231

> <Gold.Chemscore.DEInternal>
0.5073

> <Gold.Chemscore.Rot>
2.2149

> <Gold.Chemscore.Internal.Correction>
   9.000000E+99

> <Gold.Chemscore.Hbonds>
donor molecule, donor type, donor heavy atom, donor atom, acceptor molecule, acceptor atom, score
      L1  H    15    41       P1  8028  0.97
      P1  H  7997  8010       L1     2  0.72

> <Gold.Chemscore.Hbond.Weighted>
-6.3247

> <Gold.Chemscore.Metal.Weighted>
-0.0000

> <Gold.Chemscore.Lipo.Weighted>
-13.0280

> <Gold.Chemscore.Internal_Hbond.Weighted>
0.0000

> <Gold.Chemscore.DEClash.Weighted>
0.0231

> <Gold.Chemscore.DEInternal.Weighted>
0.5073

> <Gold.Chemscore.Rot.Weighted>
5.6700

> <Gold.Chemscore.Internal.Correction.Weighted>
   9.000000E+99

> <Gold.Protein.RotatedTorsions>
[ 6907 6896 6895 6894 ] final  -15.02 input  -60.11 | X-H torsion
[ 7974 7965 7964 7962 ] final  128.31 input  175.53 | X-H torsion
[ 8008 7997 7996 7995 ] final   63.50 input   59.86 | X-H torsion
[ 10167 10162 10161 10158 ] final  -35.25 input  -65.29 | X-H torsion
[ 10718 10713 10712 10709 ] final -123.88 input   66.30 | X-H torsion
[ 10763 10752 10751 10750 ] final   91.94 input  -60.55 | X-H torsion
[ 11005 11000 10999 10996 ] final  162.75 input  -57.11 | X-H torsion

> <Gold.Protein.ActiveResidues>
 VAL166  LYS551  ARG553  GLY616  TRP617  ASP618  TYR619  PRO620  LYS621  CYS622 
 ASP623  PHE694  ASN695  SER759  ASP760  ASP761  ALA762  ILE779  LEU786  VAL792 
 PHE793  MET794  SER795  GLU796  ALA797  LYS798  CYS799  TRP800  GLU811  SER814 

> <Gold.Protein.RotatedAtoms>
  151.3304  135.0840  159.9336 H   0  0  0  0  0  0  0  0  0  0  0  0  # atno 6907 bound_to 6896
  152.5236  133.9548  159.7699 H   0  0  0  0  0  0  0  0  0  0  0  0  # atno 6908 bound_to 6896
  150.9886  133.6120  159.2741 H   0  0  0  0  0  0  0  0  0  0  0  0  # atno 6909 bound_to 6896
  145.0410  139.3964  143.5102 H   0  0  0  0  0  0  0  0  0  0  0  0  # atno 7974 bound_to 7965
  155.6312  140.3496  155.4683 H   0  0  0  0  0  0  0  0  0  0  0  0  # atno 8008 bound_to 7997
  156.0001  140.1211  157.0579 H   0  0  0  0  0  0  0  0  0  0  0  0  # atno 8009 bound_to 7997
  154.4246  140.1102  156.5671 H   0  0  0  0  0  0  0  0  0  0  0  0  # atno 8010 bound_to 7997
  140.7169  143.3491  151.2194 H   0  0  0  0  0  0  0  0  0  0  0  0  # atno 10167 bound_to 10162
  156.1540  130.6554  150.9954 H   0  0  0  0  0  0  0  0  0  0  0  0  # atno 10718 bound_to 10713
  153.2138  135.4379  155.0410 H   0  0  0  0  0  0  0  0  0  0  0  0  # atno 10763 bound_to 10752
  154.8214  135.3339  154.7029 H   0  0  0  0  0  0  0  0  0  0  0  0  # atno 10764 bound_to 10752
  153.7466  135.7001  153.5011 H   0  0  0  0  0  0  0  0  0  0  0  0  # atno 10765 bound_to 10752
  140.2288  134.8139  157.3296 H   0  0  0  0  0  0  0  0  0  0  0  0  # atno 11005 bound_to 11000
  146.3509  140.0010  142.8676 LP  0  0  0  0  0  0  0  0  0  0  0  0  # atno 17320 bound_to 7965
  145.1648  140.9691  143.4356 LP  0  0  0  0  0  0  0  0  0  0  0  0  # atno 17321 bound_to 7965
  139.7017  143.9522  152.2908 LP  0  0  0  0  0  0  0  0  0  0  0  0  # atno 17342 bound_to 10162
  139.9217  144.6795  150.8454 LP  0  0  0  0  0  0  0  0  0  0  0  0  # atno 17343 bound_to 10162
  157.6680  131.0867  150.7682 LP  0  0  0  0  0  0  0  0  0  0  0  0  # atno 17370 bound_to 10713
  156.7748  130.4840  149.5411 LP  0  0  0  0  0  0  0  0  0  0  0  0  # atno 17371 bound_to 10713
  140.1772  134.4535  155.7794 LP  0  0  0  0  0  0  0  0  0  0  0  0  # atno 17394 bound_to 11000
  141.2219  133.6967  156.7807 LP  0  0  0  0  0  0  0  0  0  0  0  0  # atno 17395 bound_to 11000

$$$$
