AV-unprocessed.smi:1115|AV-procd|sdf|4803|dock9
  -GOLD-   22720 3353D 1   1.00000     0.00000
 Structure written by MMmdl.
 50 51  0  0  0  0  0  0  0  0  1 V2000
  152.1679  144.5950  157.6921 C   0  0  0  0  0  0  0  0  0  0  0  0
  151.9755  144.5929  159.1388 N   0  0  0  0  0  0  0  0  0  0  0  0
  151.0670  145.5555  159.7494 C   0  0  0  0  0  0  0  0  0  0  0  0
  152.5618  143.5740  159.9242 C   0  0  0  0  0  0  0  0  0  0  0  0
  152.5065  143.6071  161.3401 C   0  0  0  0  0  0  0  0  0  0  0  0
  153.1047  142.5689  162.0796 C   0  0  0  0  0  0  0  0  0  0  0  0
  153.7541  141.5203  161.3887 C   0  0  0  0  0  0  0  0  0  0  0  0
  154.3736  140.4072  162.0184 N   0  0  0  0  0  0  0  0  0  0  0  0
  154.4438  139.1353  161.5904 C   0  0  0  0  0  0  0  0  0  0  0  0
  153.9307  138.7021  160.5587 O   0  0  0  0  0  0  0  0  0  0  0  0
  155.1297  138.3745  162.4547 N   0  0  0  0  0  0  0  0  0  0  0  0
  155.3612  136.9350  162.3337 C   0  0  0  0  0  0  0  0  0  0  0  0
  155.1573  136.1763  163.6787 C   0  0  0  0  0  0  0  0  0  0  0  0
  156.2012  136.7483  164.6716 C   0  0  0  0  0  0  0  0  0  0  0  0
  153.7591  136.5671  164.2160 C   0  0  0  0  0  0  0  0  0  0  0  0
  155.3270  134.7051  163.5107 N   0  0  0  0  0  0  0  0  0  0  0  0
  154.7925  134.1617  162.2563 C   0  0  0  0  0  0  0  0  0  0  0  0
  155.1113  132.6662  162.0911 C   0  0  0  0  0  0  0  0  0  0  0  0
  154.6028  131.9422  163.2044 O   0  0  0  0  0  0  0  0  0  0  0  0
  155.1408  132.3984  164.4394 C   0  0  0  0  0  0  0  0  0  0  0  0
  154.8242  133.8925  164.6243 C   0  0  0  0  0  0  0  0  0  0  0  0
  153.7478  141.5658  159.9813 C   0  0  0  0  0  0  0  0  0  0  0  0
  153.1771  142.5591  159.2689 N   0  0  0  0  0  0  0  0  0  0  0  0
  151.7318  143.6996  157.2481 H   0  0  0  0  0  0  0  0  0  0  0  0
  153.2295  144.6240  157.4447 H   0  0  0  0  0  0  0  0  0  0  0  0
  151.6968  145.4622  157.2292 H   0  0  0  0  0  0  0  0  0  0  0  0
  150.2341  145.0437  160.2325 H   0  0  0  0  0  0  0  0  0  0  0  0
  150.6517  146.2361  159.0062 H   0  0  0  0  0  0  0  0  0  0  0  0
  151.5891  146.1561  160.4951 H   0  0  0  0  0  0  0  0  0  0  0  0
  152.0150  144.4055  161.8750 H   0  0  0  0  0  0  0  0  0  0  0  0
  153.0394  142.5924  163.1561 H   0  0  0  0  0  0  0  0  0  0  0  0
  154.7660  140.5903  162.9304 H   0  0  0  0  0  0  0  0  0  0  0  0
  155.5013  138.8189  163.2815 H   0  0  0  0  0  0  0  0  0  0  0  0
  154.7226  136.5083  161.5581 H   0  0  0  0  0  0  0  0  0  0  0  0
  156.3732  136.7934  161.9552 H   0  0  0  0  0  0  0  0  0  0  0  0
  156.2082  137.8389  164.6605 H   0  0  0  0  0  0  0  0  0  0  0  0
  157.2113  136.4147  164.4318 H   0  0  0  0  0  0  0  0  0  0  0  0
  155.9947  136.4567  165.7014 H   0  0  0  0  0  0  0  0  0  0  0  0
  153.6765  137.6476  164.3403 H   0  0  0  0  0  0  0  0  0  0  0  0
  153.5527  136.1235  165.1897 H   0  0  0  0  0  0  0  0  0  0  0  0
  152.9590  136.2679  163.5392 H   0  0  0  0  0  0  0  0  0  0  0  0
  153.7112  134.2950  162.2185 H   0  0  0  0  0  0  0  0  0  0  0  0
  155.2063  134.6850  161.3964 H   0  0  0  0  0  0  0  0  0  0  0  0
  154.6565  132.2809  161.1784 H   0  0  0  0  0  0  0  0  0  0  0  0
  156.1874  132.5079  162.0046 H   0  0  0  0  0  0  0  0  0  0  0  0
  154.7078  131.8160  165.2528 H   0  0  0  0  0  0  0  0  0  0  0  0
  156.2182  132.2269  164.4609 H   0  0  0  0  0  0  0  0  0  0  0  0
  155.2667  134.2088  165.5672 H   0  0  0  0  0  0  0  0  0  0  0  0
  153.7454  134.0136  164.7233 H   0  0  0  0  0  0  0  0  0  0  0  0
  154.2188  140.7826  159.4047 H   0  0  0  0  0  0  0  0  0  0  0  0
  1  2  1  0  0  0  0
  1 24  1  0  0  0  0
  1 25  1  0  0  0  0
  1 26  1  0  0  0  0
  2  3  1  0  0  0  0
  2  4  1  0  0  0  0
  3 27  1  0  0  0  0
  3 28  1  0  0  0  0
  3 29  1  0  0  0  0
  4 23  1  0  0  0  0
  4  5  2  0  0  0  0
  5  6  1  0  0  0  0
  5 30  1  0  0  0  0
  6  7  2  0  0  0  0
  6 31  1  0  0  0  0
  7  8  1  0  0  0  0
  7 22  1  0  0  0  0
  8  9  1  0  0  0  0
  8 32  1  0  0  0  0
  9 10  2  0  0  0  0
  9 11  1  0  0  0  0
 11 12  1  0  0  0  0
 11 33  1  0  0  0  0
 12 13  1  0  0  0  0
 12 34  1  0  0  0  0
 12 35  1  0  0  0  0
 13 14  1  0  0  0  0
 13 15  1  0  0  0  0
 13 16  1  0  0  0  0
 14 36  1  0  0  0  0
 14 37  1  0  0  0  0
 14 38  1  0  0  0  0
 15 39  1  0  0  0  0
 15 40  1  0  0  0  0
 15 41  1  0  0  0  0
 16 21  1  0  0  0  0
 16 17  1  0  0  0  0
 17 18  1  0  0  0  0
 17 42  1  0  0  0  0
 17 43  1  0  0  0  0
 18 19  1  0  0  0  0
 18 44  1  0  0  0  0
 18 45  1  0  0  0  0
 19 20  1  0  0  0  0
 20 21  1  0  0  0  0
 20 46  1  0  0  0  0
 20 47  1  0  0  0  0
 21 48  1  0  0  0  0
 21 49  1  0  0  0  0
 22 23  2  0  0  0  0
 22 50  1  0  0  0  0
M  END
> <s_m_source_file>
AV-unprocessed.smi

> <i_m_source_file_index>
1115

> <i_lp_mmshare_version>
43012

> <i_f3d_flags>
0

> <s_epik_input>
W0NIM11OKFtDSDNdKWMxW2NIXVtjSF1jKFtjSF1uMSlbTkhdQyg9TylbTkhdW0NIMl1DKFtDSDNdKShbQ0gzXSlOMltDSDJdW0NIMl1PW0NIMl1bQ0gyXTI=

> <s_epik_cmdline>
J2VwaWtfcHl0aG9uJywgJy1waCcsICc3LjAnLCAnLXRuJywgJzgnLCAnLW1hJywgJzIwMCcsICctbWV0YWxfYmluZGluZycsICctaW1hZScsICc8aW5maWxlLm1hZT4nLCAnLW9tYWUnLCAnPG91dGZpbGUubWFlPic=

> <r_lp_tautomer_probability>
1

> <r_epik_Ionization_Penalty>
0.880664

> <r_epik_Ionization_Penalty_Charging>
0

> <r_epik_Ionization_Penalty_Neutral>
0.880664

> <r_epik_State_Penalty>
0.865003

> <r_epik_Charging_Adjusted_Penalty>
0.865003

> <i_epik_Tot_Q>
0

> <i_epik_Tot_abs_Q>
0

> <r_epik_Metal_State_Penalty>
0.539426

> <b_epik_Metal_Only>
0

> <s_lp_Force_Field>
OPLS_2005

> <r_lp_Energy>
45.7519

> <b_lp_Chiralities_Consistent>
1

> <s_lp_Variant>
AV-unprocessed.smi:1115-2

> <Gold.Version>
5.8.1

> <Gold.Id.Protein>
6NUR|6NUR_protein|mol2

> <Gold.PLP.Fitness>
49.1921

> <Gold.PLP.PLP>
-50.9759

> <Gold.PLP.part.hbond>
0.0000

> <Gold.PLP.part.metal>
0.0000

> <Gold.PLP.part.buried>
-6.2572

> <Gold.PLP.part.nonpolar>
-43.9109

> <Gold.PLP.part.repulsive>
0.0359

> <Gold.PLP.ligand.clash>
0.0000

> <Gold.PLP.ligand.torsion>
0.9257

> <Gold.PLP.Chemscore.Hbond>
0.0000

> <Gold.PLP.Chemscore.CHOScore>
0.0000

> <Gold.PLP.Chemscore.Metal>
0.0000

> <Gold.PLP.Chemscore.Internal.Correction>
0.0675

> <Gold.Rescore>
     Score         DG    S(hbond)    S(metal)    S(lipo)     H(rot)  DE(clash)    DE(int)     intcor
     14.40     -16.74       0.00        0.00     127.32       1.42       0.14       2.19       ----

> <Gold.Chemscore.Fitness>
14.4048

> <Gold.Chemscore.DG>
-16.7366

> <Gold.Chemscore.ZeroCoef>
-5.4800

> <Gold.Chemscore.Hbond>
0.0000

> <Gold.Chemscore.Metal>
0.0000

> <Gold.Chemscore.Lipo>
127.3173

> <Gold.Chemscore.Internal_Hbond>
0.0000

> <Gold.Chemscore.DEClash>
0.1441

> <Gold.Chemscore.DEInternal>
2.1877

> <Gold.Chemscore.Rot>
1.4217

> <Gold.Chemscore.Internal.Correction>
   9.000000E+99

> <Gold.Chemscore.Hbond.Weighted>
-0.0000

> <Gold.Chemscore.Metal.Weighted>
-0.0000

> <Gold.Chemscore.Lipo.Weighted>
-14.8961

> <Gold.Chemscore.Internal_Hbond.Weighted>
0.0000

> <Gold.Chemscore.DEClash.Weighted>
0.1441

> <Gold.Chemscore.DEInternal.Weighted>
2.1877

> <Gold.Chemscore.Rot.Weighted>
3.6395

> <Gold.Chemscore.Internal.Correction.Weighted>
   9.000000E+99

> <Gold.Protein.RotatedTorsions>
[ 6907 6896 6895 6894 ] final -116.88 input  -60.11 | X-H torsion
[ 7974 7965 7964 7962 ] final  -79.57 input  175.53 | X-H torsion
[ 8008 7997 7996 7995 ] final   54.27 input   59.86 | X-H torsion
[ 10167 10162 10161 10158 ] final  108.28 input  -65.29 | X-H torsion
[ 10718 10713 10712 10709 ] final   26.21 input   66.30 | X-H torsion
[ 10763 10752 10751 10750 ] final -109.63 input  -60.55 | X-H torsion
[ 11005 11000 10999 10996 ] final -170.70 input  -57.11 | X-H torsion

> <Gold.Protein.ActiveResidues>
 VAL166  LYS551  ARG553  GLY616  TRP617  ASP618  TYR619  PRO620  LYS621  CYS622 
 ASP623  PHE694  ASN695  SER759  ASP760  ASP761  ALA762  ILE779  LEU786  VAL792 
 PHE793  MET794  SER795  GLU796  ALA797  LYS798  CYS799  TRP800  GLU811  SER814 

> <Gold.Protein.RotatedAtoms>
  150.8092  133.8454  159.3190 H   0  0  0  0  0  0  0  0  0  0  0  0  # atno 6907 bound_to 6896
  151.6244  135.1027  160.0118 H   0  0  0  0  0  0  0  0  0  0  0  0  # atno 6908 bound_to 6896
  152.4183  133.7034  159.6494 H   0  0  0  0  0  0  0  0  0  0  0  0  # atno 6909 bound_to 6896
  145.5715  140.9465  143.1393 H   0  0  0  0  0  0  0  0  0  0  0  0  # atno 7974 bound_to 7965
  155.4819  140.3468  155.4341 H   0  0  0  0  0  0  0  0  0  0  0  0  # atno 8008 bound_to 7997
  156.1034  140.1441  156.9466 H   0  0  0  0  0  0  0  0  0  0  0  0  # atno 8009 bound_to 7997
  154.4708  140.0901  156.7118 H   0  0  0  0  0  0  0  0  0  0  0  0  # atno 8010 bound_to 7997
  139.6859  144.7113  151.1433 H   0  0  0  0  0  0  0  0  0  0  0  0  # atno 10167 bound_to 10162
  157.2038  130.6902  149.6199 H   0  0  0  0  0  0  0  0  0  0  0  0  # atno 10718 bound_to 10713
  154.8204  135.4594  154.0762 H   0  0  0  0  0  0  0  0  0  0  0  0  # atno 10763 bound_to 10752
  153.2120  135.6883  153.8109 H   0  0  0  0  0  0  0  0  0  0  0  0  # atno 10764 bound_to 10752
  153.7556  135.3291  155.3305 H   0  0  0  0  0  0  0  0  0  0  0  0  # atno 10765 bound_to 10752
  140.5165  134.5751  157.5035 H   0  0  0  0  0  0  0  0  0  0  0  0  # atno 11005 bound_to 11000
  144.7436  139.7382  143.7301 LP  0  0  0  0  0  0  0  0  0  0  0  0  # atno 17320 bound_to 7965
  146.1781  139.4961  142.9884 LP  0  0  0  0  0  0  0  0  0  0  0  0  # atno 17321 bound_to 7965
  140.7667  143.5630  150.9078 LP  0  0  0  0  0  0  0  0  0  0  0  0  # atno 17342 bound_to 10162
  139.9305  143.6499  152.3077 LP  0  0  0  0  0  0  0  0  0  0  0  0  # atno 17343 bound_to 10162
  155.9697  130.4574  150.5960 LP  0  0  0  0  0  0  0  0  0  0  0  0  # atno 17370 bound_to 10713
  157.3741  131.0770  151.1533 LP  0  0  0  0  0  0  0  0  0  0  0  0  # atno 17371 bound_to 10713
  139.9629  134.7421  156.0198 LP  0  0  0  0  0  0  0  0  0  0  0  0  # atno 17394 bound_to 11000
  141.1357  133.6575  156.3587 LP  0  0  0  0  0  0  0  0  0  0  0  0  # atno 17395 bound_to 11000

$$$$
