AV-unprocessed.smi:1824|AV-procd|sdf|7406|dock2
  -GOLD-   22720 9 83D 1   1.00000     0.00000
 Structure written by MMmdl.
 45 47  0  0  0  0  0  0  0  0  2 V2000
  147.4950  134.5632  153.9381 C   0  0  0  0  0  0  0  0  0  0  0  0
  146.1237  135.2529  154.0517 C   0  0  1  0  0  0  0  0  0  0  0  0
  146.2018  136.7907  153.9912 C   0  0  0  0  0  0  0  0  0  0  0  0
  146.4886  137.2540  152.6115 N   0  3  2  0  0  0  0  0  0  0  0  0
  146.6521  138.7259  152.4978 C   0  0  0  0  0  0  0  0  0  0  0  0
  147.6928  139.2779  153.4923 C   0  0  1  0  0  0  0  0  0  0  0  0
  148.9724  138.7959  153.1265 O   0  0  0  0  0  0  0  0  0  0  0  0
  147.7096  140.8186  153.5126 C   0  0  0  0  0  0  0  0  0  0  0  0
  146.7694  141.3705  154.4723 N   0  0  0  0  0  0  0  0  0  0  0  0
  146.4500  140.8598  155.6772 C   0  0  0  0  0  0  0  0  0  0  0  0
  145.5633  141.5295  156.4075 N   0  0  0  0  0  0  0  0  0  0  0  0
  145.2723  142.6012  155.5812 C   0  0  0  0  0  0  0  0  0  0  0  0
  144.3965  143.6940  155.7706 C   0  0  0  0  0  0  0  0  0  0  0  0
  144.2633  144.6843  154.7751 C   0  0  0  0  0  0  0  0  0  0  0  0
  143.4219  145.7266  154.9742 F   0  0  0  0  0  0  0  0  0  0  0  0
  145.0013  144.5957  153.5761 C   0  0  0  0  0  0  0  0  0  0  0  0
  144.8685  145.5513  152.6261 F   0  0  0  0  0  0  0  0  0  0  0  0
  145.8784  143.5149  153.3640 C   0  0  0  0  0  0  0  0  0  0  0  0
  146.0097  142.5305  154.3608 C   0  0  0  0  0  0  0  0  0  0  0  0
  145.4813  136.7138  151.6702 C   0  0  0  0  0  0  0  0  0  0  0  0
  145.4516  135.1762  151.7431 C   0  0  2  0  0  0  0  0  0  0  0  0
  144.3604  134.5784  150.8480 C   0  0  0  0  0  0  0  0  0  0  0  0
  145.1914  134.7695  153.0844 O   0  0  0  0  0  0  0  0  0  0  0  0
  148.1427  134.8527  154.7659 H   0  0  0  0  0  0  0  0  0  0  0  0
  148.0153  134.8213  153.0161 H   0  0  0  0  0  0  0  0  0  0  0  0
  147.3878  133.4786  153.9699 H   0  0  0  0  0  0  0  0  0  0  0  0
  145.7159  134.9809  155.0258 H   0  0  0  0  0  0  0  0  0  0  0  0
  145.2521  137.2171  154.3189 H   0  0  0  0  0  0  0  0  0  0  0  0
  146.9597  137.1455  154.6888 H   0  0  0  0  0  0  0  0  0  0  0  0
  146.9672  138.9861  151.4859 H   0  0  0  0  0  0  0  0  0  0  0  0
  145.6844  139.2073  152.6468 H   0  0  0  0  0  0  0  0  0  0  0  0
  147.4764  138.9247  154.5001 H   0  0  0  0  0  0  0  0  0  0  0  0
  148.8971  137.8850  152.8851 H   0  0  0  0  0  0  0  0  0  0  0  0
  148.7081  141.1912  153.7458 H   0  0  0  0  0  0  0  0  0  0  0  0
  147.4553  141.2090  152.5263 H   0  0  0  0  0  0  0  0  0  0  0  0
  146.8962  139.9452  156.0400 H   0  0  0  0  0  0  0  0  0  0  0  0
  143.8264  143.7725  156.6845 H   0  0  0  0  0  0  0  0  0  0  0  0
  146.4442  143.4464  152.4470 H   0  0  0  0  0  0  0  0  0  0  0  0
  144.4997  137.1273  151.9088 H   0  0  0  0  0  0  0  0  0  0  0  0
  145.7218  137.0247  150.6527 H   0  0  0  0  0  0  0  0  0  0  0  0
  146.4116  134.7758  151.4163 H   0  0  0  0  0  0  0  0  0  0  0  0
  144.5161  134.8496  149.8036 H   0  0  0  0  0  0  0  0  0  0  0  0
  143.3706  134.9296  151.1410 H   0  0  0  0  0  0  0  0  0  0  0  0
  144.3582  133.4897  150.9105 H   0  0  0  0  0  0  0  0  0  0  0  0
  147.3742  136.8506  152.3397 H   0  0  0  0  0  0  0  0  0  0  0  0
  1  2  1  0  0  0  0
  1 24  1  0  0  0  0
  1 25  1  0  0  0  0
  1 26  1  0  0  0  0
  2 23  1  0  0  0  0
  2  3  1  0  0  0  0
  2 27  1  0  0  0  0
  3  4  1  0  0  0  0
  3 28  1  0  0  0  0
  3 29  1  0  0  0  0
  4  5  1  0  0  0  0
  4 20  1  0  0  0  0
  4 45  1  0  0  0  0
  5  6  1  0  0  0  0
  5 30  1  0  0  0  0
  5 31  1  0  0  0  0
  6  7  1  0  0  0  0
  6  8  1  0  0  0  0
  6 32  1  0  0  0  0
  7 33  1  0  0  0  0
  8  9  1  0  0  0  0
  8 34  1  0  0  0  0
  8 35  1  0  0  0  0
  9 19  1  0  0  0  0
  9 10  1  0  0  0  0
 10 11  2  0  0  0  0
 10 36  1  0  0  0  0
 11 12  1  0  0  0  0
 12 19  2  0  0  0  0
 12 13  1  0  0  0  0
 13 14  2  0  0  0  0
 13 37  1  0  0  0  0
 14 15  1  0  0  0  0
 14 16  1  0  0  0  0
 16 17  1  0  0  0  0
 16 18  2  0  0  0  0
 18 19  1  0  0  0  0
 18 38  1  0  0  0  0
 20 21  1  0  0  0  0
 20 39  1  0  0  0  0
 20 40  1  0  0  0  0
 21 22  1  0  0  0  0
 21 23  1  0  0  0  0
 21 41  1  0  0  0  0
 22 42  1  0  0  0  0
 22 43  1  0  0  0  0
 22 44  1  0  0  0  0
M  CHG  1   4   1
M  END
> <s_m_source_file>
AV-unprocessed.smi

> <i_m_source_file_index>
1824

> <i_lp_mmshare_version>
43012

> <i_f3d_flags>
0

> <s_epik_input>
W0NIM11bQ0BASF0xW0NIMl1OKFtDSDJdW0NASF0oTzEpW0NIM10pW0NIMl1bQ0BIXShbT0hdKVtDSDJdbihbY0hdbjIpYyhjMjMpW2NIXWMoRiljKEYpW2NIXTM=

> <s_epik_cmdline>
J2VwaWtfcHl0aG9uJywgJy1waCcsICc3LjAnLCAnLXRuJywgJzgnLCAnLW1hJywgJzIwMCcsICctbWV0YWxfYmluZGluZycsICctaW1hZScsICc8aW5maWxlLm1hZT4nLCAnLW9tYWUnLCAnPG91dGZpbGUubWFlPic=

> <r_epik_Ionization_Penalty>
0.61967

> <r_epik_Ionization_Penalty_Charging>
0.608065

> <r_epik_Ionization_Penalty_Neutral>
0.0116057

> <r_epik_State_Penalty>
0.664205

> <r_epik_Charging_Adjusted_Penalty>
1.27227

> <i_epik_Tot_Q>
1

> <i_epik_Tot_abs_Q>
1

> <r_epik_Metal_State_Penalty>
0.654947

> <b_epik_Metal_Only>
0

> <s_lp_Force_Field>
OPLS_2005

> <r_lp_Energy>
22.8883

> <b_lp_Chiralities_Consistent>
1

> <s_lp_Variant>
AV-unprocessed.smi:1824-14

> <Gold.Version>
5.8.1

> <Gold.Id.Protein>
6NUR|6NUR_protein|mol2

> <Gold.PLP.Fitness>
49.3699

> <Gold.PLP.PLP>
-41.7720

> <Gold.PLP.part.hbond>
-3.0000

> <Gold.PLP.part.metal>
0.0000

> <Gold.PLP.part.buried>
-1.6384

> <Gold.PLP.part.nonpolar>
-37.8476

> <Gold.PLP.part.repulsive>
0.1736

> <Gold.PLP.ligand.clash>
0.0000

> <Gold.PLP.ligand.torsion>
0.7430

> <Gold.PLP.Chemscore.Hbond>
2.9913

> <Gold.PLP.Chemscore.CHOScore>
0.0000

> <Gold.PLP.Chemscore.Metal>
0.0000

> <Gold.Chemscore.Hbonds>
donor molecule, donor type, donor heavy atom, donor atom, acceptor molecule, acceptor atom, score
      L1  H     4    45       P1  7948  2.00
      L1  H     7    33       P1  7948  1.00

> <Gold.PLP.Chemscore.Internal.Correction>
0.1102

> <Gold.Rescore>
     Score         DG    S(hbond)    S(metal)    S(lipo)     H(rot)  DE(clash)    DE(int)     intcor
     14.32     -15.00       2.00        0.00      75.23       2.33       0.04       0.63       ----

> <Gold.Chemscore.Fitness>
14.3243

> <Gold.Chemscore.DG>
-14.9954

> <Gold.Chemscore.ZeroCoef>
-5.4800

> <Gold.Chemscore.Hbond>
1.9957

> <Gold.Chemscore.Metal>
0.0000

> <Gold.Chemscore.Lipo>
75.2301

> <Gold.Chemscore.Internal_Hbond>
0.0000

> <Gold.Chemscore.DEClash>
0.0411

> <Gold.Chemscore.DEInternal>
0.6300

> <Gold.Chemscore.Rot>
2.3251

> <Gold.Chemscore.Internal.Correction>
   9.000000E+99

> <Gold.Chemscore.Hbonds>
donor molecule, donor type, donor heavy atom, donor atom, acceptor molecule, acceptor atom, score
      L1  H     4    45       P1  7948  1.00
      L1  H     7    33       P1  7948  0.99

> <Gold.Chemscore.Hbond.Weighted>
-6.6658

> <Gold.Chemscore.Metal.Weighted>
-0.0000

> <Gold.Chemscore.Lipo.Weighted>
-8.8019

> <Gold.Chemscore.Internal_Hbond.Weighted>
0.0000

> <Gold.Chemscore.DEClash.Weighted>
0.0411

> <Gold.Chemscore.DEInternal.Weighted>
0.6300

> <Gold.Chemscore.Rot.Weighted>
5.9523

> <Gold.Chemscore.Internal.Correction.Weighted>
   9.000000E+99

> <Gold.Protein.RotatedTorsions>
[ 6907 6896 6895 6894 ] final -114.62 input  -60.11 | X-H torsion
[ 7974 7965 7964 7962 ] final  -79.31 input  175.53 | X-H torsion
[ 8008 7997 7996 7995 ] final  -56.13 input   59.86 | X-H torsion
[ 10167 10162 10161 10158 ] final  -28.84 input  -65.29 | X-H torsion
[ 10718 10713 10712 10709 ] final  145.45 input   66.30 | X-H torsion
[ 10763 10752 10751 10750 ] final -157.16 input  -60.55 | X-H torsion
[ 11005 11000 10999 10996 ] final  110.58 input  -57.11 | X-H torsion

> <Gold.Protein.ActiveResidues>
 VAL166  LYS551  ARG553  GLY616  TRP617  ASP618  TYR619  PRO620  LYS621  CYS622 
 ASP623  PHE694  ASN695  SER759  ASP760  ASP761  ALA762  ILE779  LEU786  VAL792 
 PHE793  MET794  SER795  GLU796  ALA797  LYS798  CYS799  TRP800  GLU811  SER814 

> <Gold.Protein.RotatedAtoms>
  150.7916  133.8774  159.3275 H   0  0  0  0  0  0  0  0  0  0  0  0  # atno 6907 bound_to 6896
  151.6611  135.0987  160.0189 H   0  0  0  0  0  0  0  0  0  0  0  0  # atno 6908 bound_to 6896
  152.3991  133.6752  159.6336 H   0  0  0  0  0  0  0  0  0  0  0  0  # atno 6909 bound_to 6896
  145.5749  140.9459  143.1375 H   0  0  0  0  0  0  0  0  0  0  0  0  # atno 7974 bound_to 7965
  154.4219  140.1137  156.5588 H   0  0  0  0  0  0  0  0  0  0  0  0  # atno 8008 bound_to 7997
  155.6333  140.3496  155.4671 H   0  0  0  0  0  0  0  0  0  0  0  0  # atno 8009 bound_to 7997
  155.9930  140.1183  157.0609 H   0  0  0  0  0  0  0  0  0  0  0  0  # atno 8010 bound_to 7997
  140.7266  143.3977  151.1318 H   0  0  0  0  0  0  0  0  0  0  0  0  # atno 10167 bound_to 10162
  157.3451  131.0942  151.1049 H   0  0  0  0  0  0  0  0  0  0  0  0  # atno 10718 bound_to 10713
  154.7657  135.3130  154.8290 H   0  0  0  0  0  0  0  0  0  0  0  0  # atno 10763 bound_to 10752
  153.9039  135.6813  153.4758 H   0  0  0  0  0  0  0  0  0  0  0  0  # atno 10764 bound_to 10752
  153.1263  135.4800  154.9211 H   0  0  0  0  0  0  0  0  0  0  0  0  # atno 10765 bound_to 10752
  139.8885  134.9487  156.6301 H   0  0  0  0  0  0  0  0  0  0  0  0  # atno 11005 bound_to 11000
  144.7420  139.7422  143.7307 LP  0  0  0  0  0  0  0  0  0  0  0  0  # atno 17320 bound_to 7965
  146.1758  139.4928  142.9898 LP  0  0  0  0  0  0  0  0  0  0  0  0  # atno 17321 bound_to 7965
  139.7592  143.8661  152.3096 LP  0  0  0  0  0  0  0  0  0  0  0  0  # atno 17342 bound_to 10162
  139.8541  144.7150  150.9179 LP  0  0  0  0  0  0  0  0  0  0  0  0  # atno 17343 bound_to 10162
  157.2246  130.6497  149.5825 LP  0  0  0  0  0  0  0  0  0  0  0  0  # atno 17370 bound_to 10713
  155.9713  130.4618  150.6123 LP  0  0  0  0  0  0  0  0  0  0  0  0  # atno 17371 bound_to 10713
  140.7673  133.8768  155.8464 LP  0  0  0  0  0  0  0  0  0  0  0  0  # atno 17394 bound_to 11000
  140.9872  134.1327  157.4441 LP  0  0  0  0  0  0  0  0  0  0  0  0  # atno 17395 bound_to 11000

$$$$
