AV-unprocessed.smi:830|AV-procd|sdf|3871|dock3
  -GOLD-   22720 1323D 1   1.00000     0.00000
 Structure written by MMmdl.
 52 54  0  0  0  0  0  0  0  0  1 V2000
  148.5583  137.1957  157.2915 C   0  0  0  0  0  0  0  0  0  0  0  0
  149.5612  136.8156  158.3938 C   0  0  1  0  0  0  0  0  0  0  0  0
  150.4574  137.9509  158.6050 N   0  0  0  0  0  0  0  0  0  0  0  0
  151.7126  137.8649  159.0700 C   0  0  0  0  0  0  0  0  0  0  0  0
  152.2678  136.7964  159.3254 O   0  0  0  0  0  0  0  0  0  0  0  0
  152.2638  139.0833  159.2019 N   0  0  0  0  0  0  0  0  0  0  0  0
  153.5737  139.4348  159.6412 C   0  0  0  0  0  0  0  0  0  0  0  0
  154.6120  138.4788  159.7702 C   0  0  0  0  0  0  0  0  0  0  0  0
  155.8883  138.8964  160.1848 C   0  0  0  0  0  0  0  0  0  0  0  0
  156.0847  140.2592  160.4609 C   0  0  0  0  0  0  0  0  0  0  0  0
  155.1040  141.1784  160.3643 N   0  0  0  0  0  0  0  0  0  0  0  0
  153.8636  140.7878  159.9806 C   0  0  0  0  0  0  0  0  0  0  0  0
  152.8649  141.7868  159.9303 N   0  0  0  0  0  0  0  0  0  0  0  0
  152.5611  142.4953  161.1702 C   0  0  0  0  0  0  0  0  0  0  0  0
  152.2919  143.9532  160.7826 C   0  0  0  0  0  0  0  0  0  0  0  0
  151.9291  143.8706  159.3034 C   0  0  0  0  0  0  0  0  0  0  0  0
  152.8155  142.7279  158.8161 C   0  0  0  0  0  0  0  0  0  0  0  0
  148.7737  136.5211  159.6799 C   0  0  0  0  0  0  0  0  0  0  0  0
  148.0583  137.3863  160.1878 O   0  0  0  0  0  0  0  0  0  0  0  0
  148.9072  135.2863  160.1866 N   0  0  0  0  0  0  0  0  0  0  0  0
  148.2552  134.8010  161.3997 C   0  0  0  0  0  0  0  0  0  0  0  0
  146.7746  134.4693  161.1310 C   0  0  0  0  0  0  0  0  0  0  0  0
  145.9808  135.1350  162.2563 C   0  0  0  0  0  0  0  0  0  0  0  0
  146.8156  136.3543  162.6355 C   0  0  0  0  0  0  0  0  0  0  0  0
  148.2606  135.8705  162.5104 C   0  0  0  0  0  0  0  0  0  0  0  0
  147.8537  136.3850  157.1012 H   0  0  0  0  0  0  0  0  0  0  0  0
  149.0732  137.4034  156.3530 H   0  0  0  0  0  0  0  0  0  0  0  0
  147.9807  138.0841  157.5529 H   0  0  0  0  0  0  0  0  0  0  0  0
  150.1306  135.9372  158.0829 H   0  0  0  0  0  0  0  0  0  0  0  0
  150.0793  138.8681  158.4188 H   0  0  0  0  0  0  0  0  0  0  0  0
  151.7031  139.8564  158.8746 H   0  0  0  0  0  0  0  0  0  0  0  0
  154.4558  137.4308  159.5681 H   0  0  0  0  0  0  0  0  0  0  0  0
  156.6971  138.1883  160.2861 H   0  0  0  0  0  0  0  0  0  0  0  0
  157.0523  140.6207  160.7764 H   0  0  0  0  0  0  0  0  0  0  0  0
  151.6663  142.0578  161.6136 H   0  0  0  0  0  0  0  0  0  0  0  0
  153.3709  142.4199  161.8977 H   0  0  0  0  0  0  0  0  0  0  0  0
  151.5130  144.4164  161.3886 H   0  0  0  0  0  0  0  0  0  0  0  0
  153.2042  144.5391  160.9027 H   0  0  0  0  0  0  0  0  0  0  0  0
  150.8773  143.6033  159.1914 H   0  0  0  0  0  0  0  0  0  0  0  0
  152.1029  144.8037  158.7667 H   0  0  0  0  0  0  0  0  0  0  0  0
  153.8086  143.1156  158.5862 H   0  0  0  0  0  0  0  0  0  0  0  0
  152.4144  142.2579  157.9177 H   0  0  0  0  0  0  0  0  0  0  0  0
  149.5144  134.6395  159.7045 H   0  0  0  0  0  0  0  0  0  0  0  0
  148.7657  133.9042  161.7565 H   0  0  0  0  0  0  0  0  0  0  0  0
  146.4529  134.8870  160.1754 H   0  0  0  0  0  0  0  0  0  0  0  0
  146.5956  133.3942  161.0873 H   0  0  0  0  0  0  0  0  0  0  0  0
  144.9652  135.3957  161.9569 H   0  0  0  0  0  0  0  0  0  0  0  0
  145.9138  134.4578  163.1089 H   0  0  0  0  0  0  0  0  0  0  0  0
  146.6342  137.1600  161.9228 H   0  0  0  0  0  0  0  0  0  0  0  0
  146.5832  136.7307  163.6322 H   0  0  0  0  0  0  0  0  0  0  0  0
  148.5672  135.4085  163.4496 H   0  0  0  0  0  0  0  0  0  0  0  0
  148.9517  136.6933  162.3205 H   0  0  0  0  0  0  0  0  0  0  0  0
  1  2  1  0  0  0  0
  1 26  1  0  0  0  0
  1 27  1  0  0  0  0
  1 28  1  0  0  0  0
  2  3  1  0  0  0  0
  2 18  1  0  0  0  0
  2 29  1  0  0  0  0
  3  4  1  0  0  0  0
  3 30  1  0  0  0  0
  4  5  2  0  0  0  0
  4  6  1  0  0  0  0
  6  7  1  0  0  0  0
  6 31  1  0  0  0  0
  7 12  1  0  0  0  0
  7  8  2  0  0  0  0
  8  9  1  0  0  0  0
  8 32  1  0  0  0  0
  9 10  2  0  0  0  0
  9 33  1  0  0  0  0
 10 11  1  0  0  0  0
 10 34  1  0  0  0  0
 11 12  2  0  0  0  0
 12 13  1  0  0  0  0
 13 17  1  0  0  0  0
 13 14  1  0  0  0  0
 14 15  1  0  0  0  0
 14 35  1  0  0  0  0
 14 36  1  0  0  0  0
 15 16  1  0  0  0  0
 15 37  1  0  0  0  0
 15 38  1  0  0  0  0
 16 17  1  0  0  0  0
 16 39  1  0  0  0  0
 16 40  1  0  0  0  0
 17 41  1  0  0  0  0
 17 42  1  0  0  0  0
 18 19  2  0  0  0  0
 18 20  1  0  0  0  0
 20 21  1  0  0  0  0
 20 43  1  0  0  0  0
 21 25  1  0  0  0  0
 21 22  1  0  0  0  0
 21 44  1  0  0  0  0
 22 23  1  0  0  0  0
 22 45  1  0  0  0  0
 22 46  1  0  0  0  0
 23 24  1  0  0  0  0
 23 47  1  0  0  0  0
 23 48  1  0  0  0  0
 24 25  1  0  0  0  0
 24 49  1  0  0  0  0
 24 50  1  0  0  0  0
 25 51  1  0  0  0  0
 25 52  1  0  0  0  0
M  END
> <s_m_source_file>
AV-unprocessed.smi

> <i_m_source_file_index>
830

> <i_lp_mmshare_version>
43012

> <i_f3d_flags>
0

> <s_epik_input>
W0NIMl0xW0NIMl1bQ0gyXVtDSDJdW0NIXTFbTkhdQyg9TylbQ0BIXShbQ0gzXSlbTkhdQyg9TylbTkhdYzJbY0hdW2NIXVtjSF1uYzJOM1tDSDJdW0NIMl1bQ0gyXVtDSDJdMw==

> <s_epik_cmdline>
J2VwaWtfcHl0aG9uJywgJy1waCcsICc3LjAnLCAnLXRuJywgJzgnLCAnLW1hJywgJzIwMCcsICctbWV0YWxfYmluZGluZycsICctaW1hZScsICc8aW5maWxlLm1hZT4nLCAnLW9tYWUnLCAnPG91dGZpbGUubWFlPic=

> <r_lp_tautomer_probability>
1

> <r_epik_Ionization_Penalty>
0.0827694

> <r_epik_Ionization_Penalty_Charging>
0

> <r_epik_Ionization_Penalty_Neutral>
0.0827694

> <r_epik_State_Penalty>
0.0729202

> <r_epik_Charging_Adjusted_Penalty>
0.0729202

> <i_epik_Tot_Q>
0

> <i_epik_Tot_abs_Q>
0

> <r_epik_Metal_State_Penalty>
0.0639723

> <b_epik_Metal_Only>
0

> <s_lp_Force_Field>
OPLS_2005

> <r_lp_Energy>
46.8553

> <b_lp_Chiralities_Consistent>
1

> <s_lp_Variant>
AV-unprocessed.smi:830-2

> <Gold.Version>
5.8.1

> <Gold.Id.Protein>
6NUR|6NUR_protein|mol2

> <Gold.PLP.Fitness>
47.0607

> <Gold.PLP.PLP>
-42.4209

> <Gold.PLP.part.hbond>
-3.8177

> <Gold.PLP.part.metal>
0.0000

> <Gold.PLP.part.buried>
-6.1432

> <Gold.PLP.part.nonpolar>
-34.0185

> <Gold.PLP.part.repulsive>
0.4480

> <Gold.PLP.ligand.clash>
0.0000

> <Gold.PLP.ligand.torsion>
0.8907

> <Gold.PLP.Chemscore.Hbond>
2.0074

> <Gold.PLP.Chemscore.CHOScore>
0.0000

> <Gold.PLP.Chemscore.Metal>
0.0000

> <Gold.Chemscore.Hbonds>
donor molecule, donor type, donor heavy atom, donor atom, acceptor molecule, acceptor atom, score
      P1  H  6896  6908       L1     5  0.86
      P1  H  6931  6943       L1    19  0.41
      P1  H  6934  6947       L1    19  0.67

> <Gold.PLP.Chemscore.Internal.Correction>
0.3989

> <Gold.Rescore>
     Score         DG    S(hbond)    S(metal)    S(lipo)     H(rot)  DE(clash)    DE(int)     intcor
     17.17     -22.38       2.32        0.00     114.04       1.64       0.04       5.16       ----

> <Gold.Chemscore.Fitness>
17.1739

> <Gold.Chemscore.DG>
-22.3753

> <Gold.Chemscore.ZeroCoef>
-5.4800

> <Gold.Chemscore.Hbond>
2.3192

> <Gold.Chemscore.Metal>
0.0000

> <Gold.Chemscore.Lipo>
114.0413

> <Gold.Chemscore.Internal_Hbond>
0.0000

> <Gold.Chemscore.DEClash>
0.0439

> <Gold.Chemscore.DEInternal>
5.1574

> <Gold.Chemscore.Rot>
1.6382

> <Gold.Chemscore.Internal.Correction>
   9.000000E+99

> <Gold.Chemscore.Hbonds>
donor molecule, donor type, donor heavy atom, donor atom, acceptor molecule, acceptor atom, score
      P1  H  6896  6908       L1     5  0.84
      P1  H  6931  6943       L1    19  0.31
      P1  H  6934  6947       L1    19  0.64

> <Gold.Chemscore.Hbond.Weighted>
-7.7461

> <Gold.Chemscore.Metal.Weighted>
-0.0000

> <Gold.Chemscore.Lipo.Weighted>
-13.3428

> <Gold.Chemscore.Internal_Hbond.Weighted>
0.0000

> <Gold.Chemscore.DEClash.Weighted>
0.0439

> <Gold.Chemscore.DEInternal.Weighted>
5.1574

> <Gold.Chemscore.Rot.Weighted>
4.1937

> <Gold.Chemscore.Internal.Correction.Weighted>
   9.000000E+99

> <Gold.Protein.RotatedTorsions>
[ 6907 6896 6895 6894 ] final -128.30 input  -60.11 | X-H torsion
[ 7974 7965 7964 7962 ] final  101.19 input  175.53 | X-H torsion
[ 8008 7997 7996 7995 ] final -118.92 input   59.86 | X-H torsion
[ 10167 10162 10161 10158 ] final  176.40 input  -65.29 | X-H torsion
[ 10718 10713 10712 10709 ] final  122.73 input   66.30 | X-H torsion
[ 10763 10752 10751 10750 ] final   71.44 input  -60.55 | X-H torsion
[ 11005 11000 10999 10996 ] final   -5.03 input  -57.11 | X-H torsion

> <Gold.Protein.ActiveResidues>
 VAL166  LYS551  ARG553  GLY616  TRP617  ASP618  TYR619  PRO620  LYS621  CYS622 
 ASP623  PHE694  ASN695  SER759  ASP760  ASP761  ALA762  ILE779  LEU786  VAL792 
 PHE793  MET794  SER795  GLU796  ALA797  LYS798  CYS799  TRP800  GLU811  SER814 

> <Gold.Protein.RotatedAtoms>
  150.9164  133.6934  159.2842 H   0  0  0  0  0  0  0  0  0  0  0  0  # atno 6907 bound_to 6896
  151.4403  135.1018  159.9678 H   0  0  0  0  0  0  0  0  0  0  0  0  # atno 6908 bound_to 6896
  152.4957  133.8574  159.7287 H   0  0  0  0  0  0  0  0  0  0  0  0  # atno 6909 bound_to 6896
  145.3757  139.2389  143.3431 H   0  0  0  0  0  0  0  0  0  0  0  0  # atno 7974 bound_to 7965
  155.1074  140.0397  157.2714 H   0  0  0  0  0  0  0  0  0  0  0  0  # atno 8008 bound_to 7997
  154.6711  140.2612  155.6980 H   0  0  0  0  0  0  0  0  0  0  0  0  # atno 8009 bound_to 7997
  156.2658  140.2797  156.1220 H   0  0  0  0  0  0  0  0  0  0  0  0  # atno 8010 bound_to 7997
  139.5213  144.2919  152.0456 H   0  0  0  0  0  0  0  0  0  0  0  0  # atno 10167 bound_to 10162
  157.5720  131.1082  150.8350 H   0  0  0  0  0  0  0  0  0  0  0  0  # atno 10718 bound_to 10713
  153.0399  135.5136  154.7594 H   0  0  0  0  0  0  0  0  0  0  0  0  # atno 10763 bound_to 10752
  154.6540  135.2929  154.9954 H   0  0  0  0  0  0  0  0  0  0  0  0  # atno 10764 bound_to 10752
  154.0828  135.6661  153.4893 H   0  0  0  0  0  0  0  0  0  0  0  0  # atno 10765 bound_to 10752
  140.6867  133.9106  155.8591 H   0  0  0  0  0  0  0  0  0  0  0  0  # atno 11005 bound_to 11000
  146.2865  140.4415  142.8756 LP  0  0  0  0  0  0  0  0  0  0  0  0  # atno 17320 bound_to 7965
  144.8544  140.7049  143.6147 LP  0  0  0  0  0  0  0  0  0  0  0  0  # atno 17321 bound_to 7965
  140.2370  144.4309  150.6276 LP  0  0  0  0  0  0  0  0  0  0  0  0  # atno 17342 bound_to 10162
  140.6316  143.2188  151.6483 LP  0  0  0  0  0  0  0  0  0  0  0  0  # atno 17343 bound_to 10162
  156.8819  130.5182  149.5290 LP  0  0  0  0  0  0  0  0  0  0  0  0  # atno 17370 bound_to 10713
  156.0765  130.5786  150.9483 LP  0  0  0  0  0  0  0  0  0  0  0  0  # atno 17371 bound_to 10713
  141.0274  134.0804  157.4053 LP  0  0  0  0  0  0  0  0  0  0  0  0  # atno 17394 bound_to 11000
  139.8935  135.0131  156.6904 LP  0  0  0  0  0  0  0  0  0  0  0  0  # atno 17395 bound_to 11000

$$$$
