AV-unprocessed.smi:1207|AV-procd|sdf|5060|dock7
  -GOLD-   22720 4103D 1   1.00000     0.00000
 Structure written by MMmdl.
 53 55  0  0  0  0  0  0  0  0  3 V2000
  153.0601  143.2795  161.1784 C   0  0  0  0  0  0  0  0  0  0  0  0
  152.4311  142.7379  159.9060 C   0  0  0  0  0  0  0  0  0  0  0  0
  152.2667  141.3405  159.7767 C   0  0  0  0  0  0  0  0  0  0  0  0
  151.6886  140.8756  158.6016 C   0  0  0  0  0  0  0  0  0  0  0  0
  151.3970  139.5771  158.1792 N   0  3  0  0  0  0  0  0  0  0  0  0
  150.8293  139.6175  156.9422 C   0  0  0  0  0  0  0  0  0  0  0  0
  150.7583  140.9232  156.5653 N   0  0  0  0  0  0  0  0  0  0  0  0
  150.2292  141.5114  155.3262 C   0  0  0  0  0  0  0  0  0  0  0  0
  149.2001  140.6094  154.6131 C   0  0  1  0  0  0  0  0  0  0  0  0
  148.7269  141.3291  153.4921 O   0  0  0  0  0  0  0  0  0  0  0  0
  149.7835  139.2553  154.1472 C   0  0  0  0  0  0  0  0  0  0  0  0
  148.7791  138.1574  154.0665 N   0  3  2  0  0  0  0  0  0  0  0  0
  147.4282  138.6301  153.6793 C   0  0  0  0  0  0  0  0  0  0  0  0
  148.7225  137.3233  155.2959 C   0  0  0  0  0  0  0  0  0  0  0  0
  148.0396  136.0003  155.0587 C   0  0  0  0  0  0  0  0  0  0  0  0
  146.6417  135.7432  154.9591 C   0  0  0  0  0  0  0  0  0  0  0  0
  145.5044  136.7195  155.0549 C   0  0  0  0  0  0  0  0  0  0  0  0
  146.3886  134.4609  154.7633 N   0  0  0  0  0  0  0  0  0  0  0  0
  147.6343  133.8274  154.7149 O   0  0  0  0  0  0  0  0  0  0  0  0
  148.6003  134.7639  154.8901 C   0  0  0  0  0  0  0  0  0  0  0  0
  150.0097  134.2767  154.8743 C   0  0  0  0  0  0  0  0  0  0  0  0
  151.2780  141.7464  157.5732 C   0  0  0  0  0  0  0  0  0  0  0  0
  151.4329  143.1269  157.6860 C   0  0  0  0  0  0  0  0  0  0  0  0
  152.0201  143.6196  158.8731 C   0  0  0  0  0  0  0  0  0  0  0  0
  152.2030  145.1206  159.0211 C   0  0  0  0  0  0  0  0  0  0  0  0
  153.2658  142.4815  161.8926 H   0  0  0  0  0  0  0  0  0  0  0  0
  152.3945  143.9945  161.6624 H   0  0  0  0  0  0  0  0  0  0  0  0
  154.0030  143.7792  160.9553 H   0  0  0  0  0  0  0  0  0  0  0  0
  152.5774  140.6633  160.5592 H   0  0  0  0  0  0  0  0  0  0  0  0
  150.4954  138.7668  156.3652 H   0  0  0  0  0  0  0  0  0  0  0  0
  149.7664  142.4624  155.5943 H   0  0  0  0  0  0  0  0  0  0  0  0
  151.0596  141.7588  154.6649 H   0  0  0  0  0  0  0  0  0  0  0  0
  148.3665  140.4485  155.2960 H   0  0  0  0  0  0  0  0  0  0  0  0
  149.0464  140.9183  152.7037 H   0  0  0  0  0  0  0  0  0  0  0  0
  150.2377  139.4176  153.1707 H   0  0  0  0  0  0  0  0  0  0  0  0
  150.5891  138.9363  154.8094 H   0  0  0  0  0  0  0  0  0  0  0  0
  147.0472  139.3561  154.3988 H   0  0  0  0  0  0  0  0  0  0  0  0
  146.7250  137.7979  153.6338 H   0  0  0  0  0  0  0  0  0  0  0  0
  147.4297  139.0911  152.6929 H   0  0  0  0  0  0  0  0  0  0  0  0
  149.7358  137.1842  155.6751 H   0  0  0  0  0  0  0  0  0  0  0  0
  148.1892  137.8726  156.0728 H   0  0  0  0  0  0  0  0  0  0  0  0
  145.5286  137.2558  156.0031 H   0  0  0  0  0  0  0  0  0  0  0  0
  144.5367  136.2227  154.9790 H   0  0  0  0  0  0  0  0  0  0  0  0
  145.5586  137.4583  154.2557 H   0  0  0  0  0  0  0  0  0  0  0  0
  150.7128  135.1034  154.9747 H   0  0  0  0  0  0  0  0  0  0  0  0
  150.2292  133.7596  153.9401 H   0  0  0  0  0  0  0  0  0  0  0  0
  150.1863  133.5817  155.6952 H   0  0  0  0  0  0  0  0  0  0  0  0
  151.1230  143.8037  156.9036 H   0  0  0  0  0  0  0  0  0  0  0  0
  151.9075  145.6504  158.1149 H   0  0  0  0  0  0  0  0  0  0  0  0
  153.2469  145.3633  159.2207 H   0  0  0  0  0  0  0  0  0  0  0  0
  151.5962  145.5000  159.8436 H   0  0  0  0  0  0  0  0  0  0  0  0
  149.0894  137.5402  153.3297 H   0  0  0  0  0  0  0  0  0  0  0  0
  151.5676  138.7244  158.6974 H   0  0  0  0  0  0  0  0  0  0  0  0
  1  2  1  0  0  0  0
  1 26  1  0  0  0  0
  1 27  1  0  0  0  0
  1 28  1  0  0  0  0
  2 24  1  0  0  0  0
  2  3  2  0  0  0  0
  3  4  1  0  0  0  0
  3 29  1  0  0  0  0
  4 22  2  0  0  0  0
  4  5  1  0  0  0  0
  5  6  2  0  0  0  0
  5 53  1  0  0  0  0
  6  7  1  0  0  0  0
  6 30  1  0  0  0  0
  7  8  1  0  0  0  0
  7 22  1  0  0  0  0
  8  9  1  0  0  0  0
  8 31  1  0  0  0  0
  8 32  1  0  0  0  0
  9 10  1  0  0  0  0
  9 11  1  0  0  0  0
  9 33  1  0  0  0  0
 10 34  1  0  0  0  0
 11 12  1  0  0  0  0
 11 35  1  0  0  0  0
 11 36  1  0  0  0  0
 12 13  1  0  0  0  0
 12 14  1  0  0  0  0
 12 52  1  0  0  0  0
 13 37  1  0  0  0  0
 13 38  1  0  0  0  0
 13 39  1  0  0  0  0
 14 15  1  0  0  0  0
 14 40  1  0  0  0  0
 14 41  1  0  0  0  0
 15 20  2  0  0  0  0
 15 16  1  0  0  0  0
 16 17  1  0  0  0  0
 16 18  2  0  0  0  0
 17 42  1  0  0  0  0
 17 43  1  0  0  0  0
 17 44  1  0  0  0  0
 18 19  1  0  0  0  0
 19 20  1  0  0  0  0
 20 21  1  0  0  0  0
 21 45  1  0  0  0  0
 21 46  1  0  0  0  0
 21 47  1  0  0  0  0
 22 23  1  0  0  0  0
 23 24  2  0  0  0  0
 23 48  1  0  0  0  0
 24 25  1  0  0  0  0
 25 49  1  0  0  0  0
 25 50  1  0  0  0  0
 25 51  1  0  0  0  0
M  CHG  1   5   1
M  CHG  1  12   1
M  END
> <s_m_source_file>
AV-unprocessed.smi

> <i_m_source_file_index>
1207

> <i_lp_mmshare_version>
43012

> <i_f3d_flags>
0

> <s_epik_input>
W0NIM11jKFtjSF0xKWMoW0NIM10pW2NIXWMoYzEyKW4oW2NIXW4yKVtDSDJdW0NASF0oW09IXSlbQ0gyXU4oW0NIM10pW0NIMl1jM2MoW0NIM10pbm9jM1tDSDNd

> <s_epik_cmdline>
J2VwaWtfcHl0aG9uJywgJy1waCcsICc3LjAnLCAnLXRuJywgJzgnLCAnLW1hJywgJzIwMCcsICctbWV0YWxfYmluZGluZycsICctaW1hZScsICc8aW5maWxlLm1hZT4nLCAnLW9tYWUnLCAnPG91dGZpbGUubWFlPic=

> <r_epik_Ionization_Penalty>
1.77463

> <r_epik_Ionization_Penalty_Charging>
1.77463

> <r_epik_Ionization_Penalty_Neutral>
3.70885e-06

> <r_epik_State_Penalty>
1.85225

> <r_epik_Charging_Adjusted_Penalty>
3.62688

> <i_epik_Tot_Q>
2

> <i_epik_Tot_abs_Q>
2

> <r_epik_Metal_State_Penalty>
1.92674

> <b_epik_Metal_Only>
0

> <s_lp_Force_Field>
OPLS_2005

> <r_lp_Energy>
19.6609

> <b_lp_Chiralities_Consistent>
1

> <s_lp_Variant>
AV-unprocessed.smi:1207-12

> <Gold.Version>
5.8.1

> <Gold.Id.Protein>
6NUR|6NUR_protein|mol2

> <Gold.PLP.Fitness>
49.4779

> <Gold.PLP.PLP>
-43.0988

> <Gold.PLP.part.hbond>
-3.0000

> <Gold.PLP.part.metal>
0.0000

> <Gold.PLP.part.buried>
-4.5531

> <Gold.PLP.part.nonpolar>
-36.1850

> <Gold.PLP.part.repulsive>
0.2221

> <Gold.PLP.ligand.clash>
0.0000

> <Gold.PLP.ligand.torsion>
1.4034

> <Gold.PLP.Chemscore.Hbond>
3.0000

> <Gold.PLP.Chemscore.CHOScore>
0.0000

> <Gold.PLP.Chemscore.Metal>
0.0000

> <Gold.Chemscore.Hbonds>
donor molecule, donor type, donor heavy atom, donor atom, acceptor molecule, acceptor atom, score
      L1  H    10    34       P1  7957  1.00
      L1  H    12    52       P1  7948  2.00

> <Gold.PLP.Chemscore.Internal.Correction>
0.1859

> <Gold.Rescore>
     Score         DG    S(hbond)    S(metal)    S(lipo)     H(rot)  DE(clash)    DE(int)     intcor
     17.50     -20.04       1.98        0.00     123.55       2.54       0.13       2.41       ----

> <Gold.Chemscore.Fitness>
17.5047

> <Gold.Chemscore.DG>
-20.0447

> <Gold.Chemscore.ZeroCoef>
-5.4800

> <Gold.Chemscore.Hbond>
1.9758

> <Gold.Chemscore.Metal>
0.0000

> <Gold.Chemscore.Lipo>
123.5511

> <Gold.Chemscore.Internal_Hbond>
0.0000

> <Gold.Chemscore.DEClash>
0.1317

> <Gold.Chemscore.DEInternal>
2.4084

> <Gold.Chemscore.Rot>
2.5351

> <Gold.Chemscore.Internal.Correction>
   9.000000E+99

> <Gold.Chemscore.Hbonds>
donor molecule, donor type, donor heavy atom, donor atom, acceptor molecule, acceptor atom, score
      L1  H    10    34       P1  7957  1.00
      L1  H    12    52       P1  7948  0.98

> <Gold.Chemscore.Hbond.Weighted>
-6.5992

> <Gold.Chemscore.Metal.Weighted>
-0.0000

> <Gold.Chemscore.Lipo.Weighted>
-14.4555

> <Gold.Chemscore.Internal_Hbond.Weighted>
0.0000

> <Gold.Chemscore.DEClash.Weighted>
0.1317

> <Gold.Chemscore.DEInternal.Weighted>
2.4084

> <Gold.Chemscore.Rot.Weighted>
6.4900

> <Gold.Chemscore.Internal.Correction.Weighted>
   9.000000E+99

> <Gold.Protein.RotatedTorsions>
[ 6907 6896 6895 6894 ] final -143.46 input  -60.11 | X-H torsion
[ 7974 7965 7964 7962 ] final  -27.35 input  175.53 | X-H torsion
[ 8008 7997 7996 7995 ] final  109.74 input   59.86 | X-H torsion
[ 10167 10162 10161 10158 ] final -126.79 input  -65.29 | X-H torsion
[ 10718 10713 10712 10709 ] final  -76.22 input   66.30 | X-H torsion
[ 10763 10752 10751 10750 ] final   -1.66 input  -60.55 | X-H torsion
[ 11005 11000 10999 10996 ] final  -88.58 input  -57.11 | X-H torsion

> <Gold.Protein.ActiveResidues>
 VAL166  LYS551  ARG553  GLY616  TRP617  ASP618  TYR619  PRO620  LYS621  CYS622 
 ASP623  PHE694  ASN695  SER759  ASP760  ASP761  ALA762  ILE779  LEU786  VAL792 
 PHE793  MET794  SER795  GLU796  ALA797  LYS798  CYS799  TRP800  GLU811  SER814 

> <Gold.Protein.RotatedAtoms>
  151.1008  133.5245  159.2609 H   0  0  0  0  0  0  0  0  0  0  0  0  # atno 6907 bound_to 6896
  151.2077  135.0468  159.8908 H   0  0  0  0  0  0  0  0  0  0  0  0  # atno 6908 bound_to 6896
  152.5443  134.0827  159.8296 H   0  0  0  0  0  0  0  0  0  0  0  0  # atno 6909 bound_to 6896
  146.1364  140.5140  142.8671 H   0  0  0  0  0  0  0  0  0  0  0  0  # atno 7974 bound_to 7965
  156.2001  140.3052  155.9510 H   0  0  0  0  0  0  0  0  0  0  0  0  # atno 8008 bound_to 7997
  155.2973  140.0445  157.3044 H   0  0  0  0  0  0  0  0  0  0  0  0  # atno 8009 bound_to 7997
  154.5560  140.2306  155.8418 H   0  0  0  0  0  0  0  0  0  0  0  0  # atno 8010 bound_to 7997
  139.9677  143.5880  152.2423 H   0  0  0  0  0  0  0  0  0  0  0  0  # atno 10167 bound_to 10162
  156.0182  130.4460  150.3160 H   0  0  0  0  0  0  0  0  0  0  0  0  # atno 10718 bound_to 10713
  153.3478  135.6984  153.6814 H   0  0  0  0  0  0  0  0  0  0  0  0  # atno 10763 bound_to 10752
  153.5553  135.3545  155.2777 H   0  0  0  0  0  0  0  0  0  0  0  0  # atno 10764 bound_to 10752
  154.8648  135.4236  154.2706 H   0  0  0  0  0  0  0  0  0  0  0  0  # atno 10765 bound_to 10752
  141.1599  133.7578  156.9472 H   0  0  0  0  0  0  0  0  0  0  0  0  # atno 11005 bound_to 11000
  144.7744  140.5708  143.6648 LP  0  0  0  0  0  0  0  0  0  0  0  0  # atno 17320 bound_to 7965
  145.5146  139.1478  143.3586 LP  0  0  0  0  0  0  0  0  0  0  0  0  # atno 17321 bound_to 7965
  139.6505  144.7660  151.2157 LP  0  0  0  0  0  0  0  0  0  0  0  0  # atno 17342 bound_to 10162
  140.7532  143.6169  150.8551 LP  0  0  0  0  0  0  0  0  0  0  0  0  # atno 17343 bound_to 10162
  157.1261  131.0259  151.2989 LP  0  0  0  0  0  0  0  0  0  0  0  0  # atno 17370 bound_to 10713
  157.4588  130.7641  149.7217 LP  0  0  0  0  0  0  0  0  0  0  0  0  # atno 17371 bound_to 10713
  140.1282  134.9373  157.2299 LP  0  0  0  0  0  0  0  0  0  0  0  0  # atno 17394 bound_to 11000
  140.2986  134.3157  155.7295 LP  0  0  0  0  0  0  0  0  0  0  0  0  # atno 17395 bound_to 11000

$$$$
