AV-unprocessed.smi:2229|AV-procd|sdf|9029|dock6
  -GOLD-   2272012233D 1   1.00000     0.00000
 Structure written by MMmdl.
 44 45  0  0  0  0  0  0  0  0  1 V2000
  152.4442  144.1285  160.1050 C   0  0  0  0  0  0  0  0  0  0  0  0
  152.1641  142.6857  159.6582 C   0  0  0  0  0  0  0  0  0  0  0  0
  153.4313  141.8246  159.7981 C   0  0  0  0  0  0  0  0  0  0  0  0
  151.5813  142.6614  158.2296 C   0  0  0  0  0  0  0  0  0  0  0  0
  151.5475  141.2587  157.5991 C   0  0  0  0  0  0  0  0  0  0  0  0
  150.9162  141.2188  156.1872 C   0  0  2  0  0  0  0  0  0  0  0  0
  149.3957  141.4137  156.1779 C   0  0  0  0  0  0  0  0  0  0  0  0
  148.9585  140.8798  154.8178 C   0  0  0  0  0  0  0  0  0  0  0  0
  149.8561  139.6656  154.5752 C   0  0  0  0  0  0  0  0  0  0  0  0
  151.1495  139.9158  155.3790 C   0  0  2  0  0  0  0  0  0  0  0  0
  151.4561  138.7927  156.2582 N   0  0  0  0  0  0  0  0  0  0  0  0
  151.7185  137.5295  155.8900 C   0  0  0  0  0  0  0  0  0  0  0  0
  151.6584  137.1468  154.7227 O   0  0  0  0  0  0  0  0  0  0  0  0
  152.1385  136.5402  156.9914 C   0  0  0  0  0  0  0  0  0  0  0  0
  153.2799  136.9818  157.8024 N   0  0  0  0  0  0  0  0  0  0  0  0
  154.4679  137.4237  157.2574 C   0  0  0  0  0  0  0  0  0  0  0  0
  155.2938  137.8245  158.1628 N   0  0  0  0  0  0  0  0  0  0  0  0
  154.5969  137.6223  159.3064 N   0  0  0  0  0  0  0  0  0  0  0  0
  153.3756  137.1183  159.1222 C   0  0  0  0  0  0  0  0  0  0  0  0
  152.5292  136.8639  159.9768 O   0  0  0  0  0  0  0  0  0  0  0  0
  155.0195  137.8641  160.1914 H   0  0  0  0  0  0  0  0  0  0  0  0
  153.1981  144.5995  159.4732 H   0  0  0  0  0  0  0  0  0  0  0  0
  152.8055  144.1592  161.1333 H   0  0  0  0  0  0  0  0  0  0  0  0
  151.5418  144.7388  160.0582 H   0  0  0  0  0  0  0  0  0  0  0  0
  151.4116  142.2796  160.3356 H   0  0  0  0  0  0  0  0  0  0  0  0
  154.2061  142.1440  159.1006 H   0  0  0  0  0  0  0  0  0  0  0  0
  153.2264  140.7704  159.6131 H   0  0  0  0  0  0  0  0  0  0  0  0
  153.8426  141.8956  160.8053 H   0  0  0  0  0  0  0  0  0  0  0  0
  150.5646  143.0534  158.2660 H   0  0  0  0  0  0  0  0  0  0  0  0
  152.1441  143.3397  157.5870 H   0  0  0  0  0  0  0  0  0  0  0  0
  152.5671  140.8791  157.5317 H   0  0  0  0  0  0  0  0  0  0  0  0
  151.0095  140.5826  158.2651 H   0  0  0  0  0  0  0  0  0  0  0  0
  151.3501  142.0323  155.6032 H   0  0  0  0  0  0  0  0  0  0  0  0
  148.9353  140.8210  156.9699 H   0  0  0  0  0  0  0  0  0  0  0  0
  149.1027  142.4534  156.3250 H   0  0  0  0  0  0  0  0  0  0  0  0
  147.8976  140.6298  154.7858 H   0  0  0  0  0  0  0  0  0  0  0  0
  149.1456  141.6337  154.0522 H   0  0  0  0  0  0  0  0  0  0  0  0
  149.3464  138.7681  154.9300 H   0  0  0  0  0  0  0  0  0  0  0  0
  150.0573  139.5192  153.5137 H   0  0  0  0  0  0  0  0  0  0  0  0
  151.9913  140.0682  154.7009 H   0  0  0  0  0  0  0  0  0  0  0  0
  151.5196  139.0078  157.2425 H   0  0  0  0  0  0  0  0  0  0  0  0
  151.2812  136.3704  157.6444 H   0  0  0  0  0  0  0  0  0  0  0  0
  152.3634  135.5773  156.5296 H   0  0  0  0  0  0  0  0  0  0  0  0
  154.6036  137.4082  156.1747 H   0  0  0  0  0  0  0  0  0  0  0  0
  1  2  1  0  0  0  0
  1 22  1  0  0  0  0
  1 23  1  0  0  0  0
  1 24  1  0  0  0  0
  2  3  1  0  0  0  0
  2  4  1  0  0  0  0
  2 25  1  0  0  0  0
  3 26  1  0  0  0  0
  3 27  1  0  0  0  0
  3 28  1  0  0  0  0
  4  5  1  0  0  0  0
  4 29  1  0  0  0  0
  4 30  1  0  0  0  0
  5  6  1  0  0  0  0
  5 31  1  0  0  0  0
  5 32  1  0  0  0  0
  6 10  1  0  0  0  0
  6  7  1  0  0  0  0
  6 33  1  0  0  0  0
  7  8  1  0  0  0  0
  7 34  1  0  0  0  0
  7 35  1  0  0  0  0
  8  9  1  0  0  0  0
  8 36  1  0  0  0  0
  8 37  1  0  0  0  0
  9 10  1  0  0  0  0
  9 38  1  0  0  0  0
  9 39  1  0  0  0  0
 10 11  1  0  0  0  0
 10 40  1  0  0  0  0
 11 12  1  0  0  0  0
 11 41  1  0  0  0  0
 12 13  2  0  0  0  0
 12 14  1  0  0  0  0
 14 15  1  0  0  0  0
 14 42  1  0  0  0  0
 14 43  1  0  0  0  0
 15 19  1  0  0  0  0
 15 16  1  0  0  0  0
 16 17  2  0  0  0  0
 16 44  1  0  0  0  0
 17 18  1  0  0  0  0
 18 21  1  0  0  0  0
 18 19  1  0  0  0  0
 19 20  2  0  0  0  0
M  END
> <s_m_source_file>
AV-unprocessed.smi

> <i_m_source_file_index>
2229

> <i_lp_mmshare_version>
43012

> <i_f3d_flags>
0

> <s_epik_input>
W0NIM11bQ0hdKFtDSDNdKVtDSDJdW0NIMl1bQ0BASF0xW0NIMl1bQ0gyXVtDSDJdW0NASF0xW05IXUMoPU8pW0NIMl1uMltjSF1uW25IXWMyPU8=

> <s_epik_cmdline>
J2VwaWtfcHl0aG9uJywgJy1waCcsICc3LjAnLCAnLXRuJywgJzgnLCAnLW1hJywgJzIwMCcsICctbWV0YWxfYmluZGluZycsICctaW1hZScsICc8aW5maWxlLm1hZT4nLCAnLW9tYWUnLCAnPG91dGZpbGUubWFlPic=

> <r_lp_tautomer_probability>
1

> <r_epik_Ionization_Penalty>
4.14174e-05

> <r_epik_Ionization_Penalty_Charging>
4.13165e-05

> <r_epik_Ionization_Penalty_Neutral>
1.00911e-07

> <r_epik_State_Penalty>
-0

> <r_epik_Charging_Adjusted_Penalty>
4.13165e-05

> <i_epik_Tot_Q>
0

> <i_epik_Tot_abs_Q>
0

> <r_epik_Metal_State_Penalty>
0.0399369

> <b_epik_Metal_Only>
0

> <s_lp_Force_Field>
OPLS_2005

> <r_lp_Energy>
36.2175

> <b_lp_Chiralities_Consistent>
1

> <s_lp_Variant>
AV-unprocessed.smi:2229-3

> <Gold.Version>
5.8.1

> <Gold.Id.Protein>
6NUR|6NUR_protein|mol2

> <Gold.PLP.Fitness>
42.0733

> <Gold.PLP.PLP>
-35.0325

> <Gold.PLP.part.hbond>
-2.9760

> <Gold.PLP.part.metal>
0.0000

> <Gold.PLP.part.buried>
-2.5358

> <Gold.PLP.part.nonpolar>
-29.7857

> <Gold.PLP.part.repulsive>
0.2936

> <Gold.PLP.ligand.clash>
0.0000

> <Gold.PLP.ligand.torsion>
0.2620

> <Gold.PLP.Chemscore.Hbond>
2.4967

> <Gold.PLP.Chemscore.CHOScore>
0.0000

> <Gold.PLP.Chemscore.Metal>
0.0000

> <Gold.Chemscore.Hbonds>
donor molecule, donor type, donor heavy atom, donor atom, acceptor molecule, acceptor atom, score
      P1  H  6896  6909       L1    20  1.00
      P1  H  7997  8008       L1    17  0.15
      P1  H 10752 10764       L1    13  0.99

> <Gold.PLP.Chemscore.Internal.Correction>
0.0747

> <Gold.Rescore>
     Score         DG    S(hbond)    S(metal)    S(lipo)     H(rot)  DE(clash)    DE(int)     intcor
     15.36     -15.72       2.03        0.00      87.26       2.64       0.04       0.32       ----

> <Gold.Chemscore.Fitness>
15.3580

> <Gold.Chemscore.DG>
-15.7183

> <Gold.Chemscore.ZeroCoef>
-5.4800

> <Gold.Chemscore.Hbond>
2.0296

> <Gold.Chemscore.Metal>
0.0000

> <Gold.Chemscore.Lipo>
87.2603

> <Gold.Chemscore.Internal_Hbond>
0.0000

> <Gold.Chemscore.DEClash>
0.0383

> <Gold.Chemscore.DEInternal>
0.3220

> <Gold.Chemscore.Rot>
2.6368

> <Gold.Chemscore.Internal.Correction>
   9.000000E+99

> <Gold.Chemscore.Hbonds>
donor molecule, donor type, donor heavy atom, donor atom, acceptor molecule, acceptor atom, score
      P1  H  6896  6909       L1    20  0.94
      P1  H  7997  8008       L1    17  0.02
      P1  H 10752 10764       L1    13  0.80

> <Gold.Chemscore.Hbond.Weighted>
-6.7789

> <Gold.Chemscore.Metal.Weighted>
-0.0000

> <Gold.Chemscore.Lipo.Weighted>
-10.2095

> <Gold.Chemscore.Internal_Hbond.Weighted>
0.0000

> <Gold.Chemscore.DEClash.Weighted>
0.0383

> <Gold.Chemscore.DEInternal.Weighted>
0.3220

> <Gold.Chemscore.Rot.Weighted>
6.7501

> <Gold.Chemscore.Internal.Correction.Weighted>
   9.000000E+99

> <Gold.Protein.RotatedTorsions>
[ 6907 6896 6895 6894 ] final  139.11 input  -60.11 | X-H torsion
[ 7974 7965 7964 7962 ] final -171.78 input  175.53 | X-H torsion
[ 8008 7997 7996 7995 ] final -140.10 input   59.86 | X-H torsion
[ 10167 10162 10161 10158 ] final  146.94 input  -65.29 | X-H torsion
[ 10718 10713 10712 10709 ] final   98.00 input   66.30 | X-H torsion
[ 10763 10752 10751 10750 ] final  -82.80 input  -60.55 | X-H torsion
[ 11005 11000 10999 10996 ] final  119.34 input  -57.11 | X-H torsion

> <Gold.Protein.ActiveResidues>
 VAL166  LYS551  ARG553  GLY616  TRP617  ASP618  TYR619  PRO620  LYS621  CYS622 
 ASP623  PHE694  ASN695  SER759  ASP760  ASP761  ALA762  ILE779  LEU786  VAL792 
 PHE793  MET794  SER795  GLU796  ALA797  LYS798  CYS799  TRP800  GLU811  SER814 

> <Gold.Protein.RotatedAtoms>
  152.2588  133.5279  159.5368 H   0  0  0  0  0  0  0  0  0  0  0  0  # atno 6907 bound_to 6896
  150.7118  134.0859  159.3923 H   0  0  0  0  0  0  0  0  0  0  0  0  # atno 6908 bound_to 6896
  151.8777  135.0465  160.0536 H   0  0  0  0  0  0  0  0  0  0  0  0  # atno 6909 bound_to 6896
  144.7153  140.1871  143.6352 H   0  0  0  0  0  0  0  0  0  0  0  0  # atno 7974 bound_to 7965
  155.4557  140.0542  157.2996 H   0  0  0  0  0  0  0  0  0  0  0  0  # atno 8008 bound_to 7997
  154.4758  140.2060  155.9837 H   0  0  0  0  0  0  0  0  0  0  0  0  # atno 8009 bound_to 7997
  156.1130  140.3201  155.8103 H   0  0  0  0  0  0  0  0  0  0  0  0  # atno 8010 bound_to 7997
  139.4898  144.5792  151.6905 H   0  0  0  0  0  0  0  0  0  0  0  0  # atno 10167 bound_to 10162
  157.6903  131.0627  150.4729 H   0  0  0  0  0  0  0  0  0  0  0  0  # atno 10718 bound_to 10713
  154.5801  135.5578  153.7177 H   0  0  0  0  0  0  0  0  0  0  0  0  # atno 10763 bound_to 10752
  153.0078  135.6318  154.1995 H   0  0  0  0  0  0  0  0  0  0  0  0  # atno 10764 bound_to 10752
  154.1935  135.2881  155.2994 H   0  0  0  0  0  0  0  0  0  0  0  0  # atno 10765 bound_to 10752
  139.9143  134.9627  156.7640 H   0  0  0  0  0  0  0  0  0  0  0  0  # atno 11005 bound_to 11000
  145.8803  139.2319  143.1609 LP  0  0  0  0  0  0  0  0  0  0  0  0  # atno 17320 bound_to 7965
  146.0001  140.8528  143.0023 LP  0  0  0  0  0  0  0  0  0  0  0  0  # atno 17321 bound_to 7965
  140.5395  144.0602  150.6083 LP  0  0  0  0  0  0  0  0  0  0  0  0  # atno 17342 bound_to 10162
  140.3620  143.2903  152.0374 LP  0  0  0  0  0  0  0  0  0  0  0  0  # atno 17343 bound_to 10162
  156.5066  130.4129  149.6324 LP  0  0  0  0  0  0  0  0  0  0  0  0  # atno 17370 bound_to 10713
  156.3279  130.7316  151.2240 LP  0  0  0  0  0  0  0  0  0  0  0  0  # atno 17371 bound_to 10713
  140.6675  133.9590  155.7838 LP  0  0  0  0  0  0  0  0  0  0  0  0  # atno 17394 bound_to 11000
  141.0601  134.0359  157.3670 LP  0  0  0  0  0  0  0  0  0  0  0  0  # atno 17395 bound_to 11000

$$$$
