AV-unprocessed.smi:1180|AV-procd|sdf|4960|dock7
  -GOLD-   22720 3553D 1   1.00000     0.00000
 Structure written by MMmdl.
 38 39  0  0  0  0  0  0  0  0  1 V2000
  146.5080  138.1405  152.1462 C   0  0  0  0  0  0  0  0  0  0  0  0
  147.2542  139.2226  152.8975 C   0  0  0  0  0  0  0  0  0  0  0  0
  146.7547  140.3813  153.1770 N   0  0  0  0  0  0  0  0  0  0  0  0
  147.5424  141.3030  153.8807 C   0  0  0  0  0  0  0  0  0  0  0  0
  146.8829  142.6389  154.1753 C   0  0  0  0  0  0  0  0  0  0  0  0
  148.8167  141.0052  154.2701 C   0  0  0  0  0  0  0  0  0  0  0  0
  149.7014  141.9836  155.0425 C   0  0  0  0  0  0  0  0  0  0  0  0
  149.9993  141.6244  156.5010 C   0  0  0  0  0  0  0  0  0  0  0  0
  149.0945  141.2822  157.2630 O   0  0  0  0  0  0  0  0  0  0  0  0
  151.2847  141.7059  156.8749 N   0  0  0  0  0  0  0  0  0  0  0  0
  151.7908  141.4011  158.2086 C   0  0  0  0  0  0  0  0  0  0  0  0
  152.4386  142.6286  158.8782 C   0  0  2  0  0  0  0  0  0  0  0  0
  152.4674  142.5601  160.4006 C   0  0  0  0  0  0  0  0  0  0  0  0
  152.1829  143.9964  160.8531 C   0  0  0  0  0  0  0  0  0  0  0  0
  152.1905  144.7776  159.6663 O   0  0  0  0  0  0  0  0  0  0  0  0
  151.7228  143.9523  158.6139 C   0  0  0  0  0  0  0  0  0  0  0  0
  149.3765  139.6786  153.9473 C   0  0  0  0  0  0  0  0  0  0  0  0
  150.5067  139.3046  154.2575 O   0  0  0  0  0  0  0  0  0  0  0  0
  148.5469  138.8552  153.2679 N   0  0  0  0  0  0  0  0  0  0  0  0
  148.8832  137.9349  153.0246 H   0  0  0  0  0  0  0  0  0  0  0  0
  145.6122  137.8523  152.6968 H   0  0  0  0  0  0  0  0  0  0  0  0
  147.1228  137.2507  152.0043 H   0  0  0  0  0  0  0  0  0  0  0  0
  146.2046  138.5060  151.1648 H   0  0  0  0  0  0  0  0  0  0  0  0
  147.4018  143.4440  153.6549 H   0  0  0  0  0  0  0  0  0  0  0  0
  146.8986  142.8488  155.2450 H   0  0  0  0  0  0  0  0  0  0  0  0
  145.8417  142.6473  153.8500 H   0  0  0  0  0  0  0  0  0  0  0  0
  150.6478  142.1248  154.5184 H   0  0  0  0  0  0  0  0  0  0  0  0
  149.2309  142.9668  155.0337 H   0  0  0  0  0  0  0  0  0  0  0  0
  151.9625  141.9949  156.1842 H   0  0  0  0  0  0  0  0  0  0  0  0
  150.9552  141.0436  158.8110 H   0  0  0  0  0  0  0  0  0  0  0  0
  152.5059  140.5785  158.1553 H   0  0  0  0  0  0  0  0  0  0  0  0
  153.4681  142.7300  158.5310 H   0  0  0  0  0  0  0  0  0  0  0  0
  151.7054  141.8855  160.7931 H   0  0  0  0  0  0  0  0  0  0  0  0
  153.4367  142.2083  160.7556 H   0  0  0  0  0  0  0  0  0  0  0  0
  151.1988  144.0624  161.3192 H   0  0  0  0  0  0  0  0  0  0  0  0
  152.9215  144.3642  161.5656 H   0  0  0  0  0  0  0  0  0  0  0  0
  151.9628  144.3747  157.6376 H   0  0  0  0  0  0  0  0  0  0  0  0
  150.6394  143.8425  158.6874 H   0  0  0  0  0  0  0  0  0  0  0  0
  1  2  1  0  0  0  0
  1 21  1  0  0  0  0
  1 22  1  0  0  0  0
  1 23  1  0  0  0  0
  2 19  1  0  0  0  0
  2  3  2  0  0  0  0
  3  4  1  0  0  0  0
  4  5  1  0  0  0  0
  4  6  2  0  0  0  0
  5 24  1  0  0  0  0
  5 25  1  0  0  0  0
  5 26  1  0  0  0  0
  6  7  1  0  0  0  0
  6 17  1  0  0  0  0
  7  8  1  0  0  0  0
  7 27  1  0  0  0  0
  7 28  1  0  0  0  0
  8  9  2  0  0  0  0
  8 10  1  0  0  0  0
 10 11  1  0  0  0  0
 10 29  1  0  0  0  0
 11 12  1  0  0  0  0
 11 30  1  0  0  0  0
 11 31  1  0  0  0  0
 12 16  1  0  0  0  0
 12 13  1  0  0  0  0
 12 32  1  0  0  0  0
 13 14  1  0  0  0  0
 13 33  1  0  0  0  0
 13 34  1  0  0  0  0
 14 15  1  0  0  0  0
 14 35  1  0  0  0  0
 14 36  1  0  0  0  0
 15 16  1  0  0  0  0
 16 37  1  0  0  0  0
 16 38  1  0  0  0  0
 17 18  2  0  0  0  0
 17 19  1  0  0  0  0
 19 20  1  0  0  0  0
M  END
> <s_m_source_file>
AV-unprocessed.smi

> <i_m_source_file_index>
1180

> <i_lp_mmshare_version>
43012

> <i_f3d_flags>
0

> <s_epik_input>
W0NIM11jMW5jKFtDSDNdKWMoYyg9TylbbkhdMSlbQ0gyXUMoPU8pW05IXVtDSDJdW0NAQEhdMltDSDJdW0NIMl1PW0NIMl0y

> <s_epik_cmdline>
J2VwaWtfcHl0aG9uJywgJy1waCcsICc3LjAnLCAnLXRuJywgJzgnLCAnLW1hJywgJzIwMCcsICctbWV0YWxfYmluZGluZycsICctaW1hZScsICc8aW5maWxlLm1hZT4nLCAnLW9tYWUnLCAnPG91dGZpbGUubWFlPic=

> <r_lp_tautomer_probability>
0.839158

> <r_epik_Ionization_Penalty>
0.000395459

> <r_epik_Ionization_Penalty_Charging>
0.000363703

> <r_epik_Ionization_Penalty_Neutral>
3.17556e-05

> <r_epik_State_Penalty>
0.0471244

> <r_epik_Charging_Adjusted_Penalty>
0.0474881

> <i_epik_Tot_Q>
0

> <i_epik_Tot_abs_Q>
0

> <r_epik_Metal_State_Penalty>
0.225307

> <b_epik_Metal_Only>
0

> <s_lp_Force_Field>
OPLS_2005

> <r_lp_Energy>
20.5307

> <b_lp_Chiralities_Consistent>
1

> <s_lp_Variant>
AV-unprocessed.smi:1180-1

> <Gold.Version>
5.8.1

> <Gold.Id.Protein>
6NUR|6NUR_protein|mol2

> <Gold.PLP.Fitness>
43.2180

> <Gold.PLP.PLP>
-38.1383

> <Gold.PLP.part.hbond>
-3.0000

> <Gold.PLP.part.metal>
0.0000

> <Gold.PLP.part.buried>
2.9426

> <Gold.PLP.part.nonpolar>
-37.5741

> <Gold.PLP.part.repulsive>
0.6532

> <Gold.PLP.ligand.clash>
0.0000

> <Gold.PLP.ligand.torsion>
0.4503

> <Gold.PLP.Chemscore.Hbond>
1.9913

> <Gold.PLP.Chemscore.CHOScore>
0.0000

> <Gold.PLP.Chemscore.Metal>
0.0000

> <Gold.Chemscore.Hbonds>
donor molecule, donor type, donor heavy atom, donor atom, acceptor molecule, acceptor atom, score
      L1  H    19    20       P1  7948  0.98
      P1  H  7989  7998       L1    18  0.91

> <Gold.PLP.Chemscore.Internal.Correction>
0.0066

> <Gold.Rescore>
     Score         DG    S(hbond)    S(metal)    S(lipo)     H(rot)  DE(clash)    DE(int)     intcor
     14.25     -16.32       1.55        0.00      87.89       1.81       1.43       0.64       ----

> <Gold.Chemscore.Fitness>
14.2462

> <Gold.Chemscore.DG>
-16.3224

> <Gold.Chemscore.ZeroCoef>
-5.4800

> <Gold.Chemscore.Hbond>
1.5522

> <Gold.Chemscore.Metal>
0.0000

> <Gold.Chemscore.Lipo>
87.8862

> <Gold.Chemscore.Internal_Hbond>
0.0000

> <Gold.Chemscore.DEClash>
1.4342

> <Gold.Chemscore.DEInternal>
0.6420

> <Gold.Chemscore.Rot>
1.8065

> <Gold.Chemscore.Internal.Correction>
   9.000000E+99

> <Gold.Chemscore.Hbonds>
donor molecule, donor type, donor heavy atom, donor atom, acceptor molecule, acceptor atom, score
      L1  H    19    20       P1  7948  0.90
      P1  H  7989  7998       L1    18  0.23

> <Gold.Chemscore.Hbond.Weighted>
-5.1843

> <Gold.Chemscore.Metal.Weighted>
-0.0000

> <Gold.Chemscore.Lipo.Weighted>
-10.2827

> <Gold.Chemscore.Internal_Hbond.Weighted>
0.0000

> <Gold.Chemscore.DEClash.Weighted>
1.4342

> <Gold.Chemscore.DEInternal.Weighted>
0.6420

> <Gold.Chemscore.Rot.Weighted>
4.6246

> <Gold.Chemscore.Internal.Correction.Weighted>
   9.000000E+99

> <Gold.Protein.RotatedTorsions>
[ 6907 6896 6895 6894 ] final -164.00 input  -60.11 | X-H torsion
[ 7974 7965 7964 7962 ] final -121.44 input  175.53 | X-H torsion
[ 8008 7997 7996 7995 ] final -100.67 input   59.86 | X-H torsion
[ 10167 10162 10161 10158 ] final  -28.19 input  -65.29 | X-H torsion
[ 10718 10713 10712 10709 ] final -103.80 input   66.30 | X-H torsion
[ 10763 10752 10751 10750 ] final  -57.00 input  -60.55 | X-H torsion
[ 11005 11000 10999 10996 ] final  -69.71 input  -57.11 | X-H torsion

> <Gold.Protein.ActiveResidues>
 VAL166  LYS551  ARG553  GLY616  TRP617  ASP618  TYR619  PRO620  LYS621  CYS622 
 ASP623  PHE694  ASN695  SER759  ASP760  ASP761  ALA762  ILE779  LEU786  VAL792 
 PHE793  MET794  SER795  GLU796  ALA797  LYS798  CYS799  TRP800  GLU811  SER814 

> <Gold.Protein.RotatedAtoms>
  151.4048  133.3746  159.2736 H   0  0  0  0  0  0  0  0  0  0  0  0  # atno 6907 bound_to 6896
  150.9406  134.8817  159.7620 H   0  0  0  0  0  0  0  0  0  0  0  0  # atno 6908 bound_to 6896
  152.5070  134.3999  159.9465 H   0  0  0  0  0  0  0  0  0  0  0  0  # atno 6909 bound_to 6896
  145.0403  140.8139  143.4270 H   0  0  0  0  0  0  0  0  0  0  0  0  # atno 7974 bound_to 7965
  154.8318  140.0439  157.1482 H   0  0  0  0  0  0  0  0  0  0  0  0  # atno 8008 bound_to 7997
  154.9144  140.3018  155.5229 H   0  0  0  0  0  0  0  0  0  0  0  0  # atno 8009 bound_to 7997
  156.2987  140.2352  156.4187 H   0  0  0  0  0  0  0  0  0  0  0  0  # atno 8010 bound_to 7997
  140.7272  143.4030  151.1232 H   0  0  0  0  0  0  0  0  0  0  0  0  # atno 10167 bound_to 10162
  156.0279  130.5484  150.7305 H   0  0  0  0  0  0  0  0  0  0  0  0  # atno 10718 bound_to 10713
  154.2156  135.6387  153.5128 H   0  0  0  0  0  0  0  0  0  0  0  0  # atno 10763 bound_to 10752
  152.9980  135.5484  154.6169 H   0  0  0  0  0  0  0  0  0  0  0  0  # atno 10764 bound_to 10752
  154.5616  135.2909  155.0887 H   0  0  0  0  0  0  0  0  0  0  0  0  # atno 10765 bound_to 10752
  141.1559  133.6771  156.6641 H   0  0  0  0  0  0  0  0  0  0  0  0  # atno 11005 bound_to 11000
  145.1656  139.2433  143.5369 LP  0  0  0  0  0  0  0  0  0  0  0  0  # atno 17320 bound_to 7965
  146.3508  140.1394  142.8595 LP  0  0  0  0  0  0  0  0  0  0  0  0  # atno 17321 bound_to 7965
  139.7653  143.8575  152.3109 LP  0  0  0  0  0  0  0  0  0  0  0  0  # atno 17342 bound_to 10162
  139.8475  144.7181  150.9255 LP  0  0  0  0  0  0  0  0  0  0  0  0  # atno 17343 bound_to 10162
  157.4898  131.0910  151.0440 LP  0  0  0  0  0  0  0  0  0  0  0  0  # atno 17370 bound_to 10713
  157.0849  130.5918  149.5428 LP  0  0  0  0  0  0  0  0  0  0  0  0  # atno 17371 bound_to 10713
  140.3225  134.7996  157.4263 LP  0  0  0  0  0  0  0  0  0  0  0  0  # atno 17394 bound_to 11000
  140.1085  134.5377  155.8287 LP  0  0  0  0  0  0  0  0  0  0  0  0  # atno 17395 bound_to 11000

$$$$
