AV-unprocessed.smi:2243|AV-procd|sdf|9066|dock3
  -GOLD-   2272012273D 1   1.00000     0.00000
 Structure written by MMmdl.
 34 35  0  0  0  0  0  0  0  0  1 V2000
  150.5874  135.2506  155.8082 C   0  0  0  0  0  0  0  0  0  0  0  0
  150.6446  136.2523  156.9741 C   0  0  2  0  0  0  0  0  0  0  0  0
  149.3904  136.1449  157.7213 N   0  0  0  0  0  0  0  0  0  0  0  0
  149.2038  136.4391  159.0178 C   0  0  0  0  0  0  0  0  0  0  0  0
  150.1248  136.8518  159.7296 O   0  0  0  0  0  0  0  0  0  0  0  0
  147.8799  136.2110  159.3647 N   0  0  0  0  0  0  0  0  0  0  0  0
  147.5186  136.2806  160.6086 C   0  0  0  0  0  0  0  0  0  0  0  0
  146.2504  136.0863  161.1322 N   0  0  0  0  0  0  0  0  0  0  0  0
  146.3188  136.2551  162.4876 C   0  0  0  0  0  0  0  0  0  0  0  0
  147.5775  136.5431  162.8057 C   0  0  0  0  0  0  0  0  0  0  0  0
  148.3384  136.5664  161.6762 O   0  0  0  0  0  0  0  0  0  0  0  0
  150.8797  137.7163  156.5152 C   0  0  0  0  0  0  0  0  0  0  0  0
  149.7124  138.2669  155.6709 C   0  0  0  0  0  0  0  0  0  0  0  0
  150.0066  139.6918  155.1742 C   0  0  0  0  0  0  0  0  0  0  0  0
  151.2137  139.7065  154.4230 O   0  0  0  0  0  0  0  0  0  0  0  0
  152.3445  139.3266  155.1973 C   0  0  0  0  0  0  0  0  0  0  0  0
  152.1798  137.8829  155.6988 C   0  0  0  0  0  0  0  0  0  0  0  0
  151.5445  135.1730  155.2935 H   0  0  0  0  0  0  0  0  0  0  0  0
  149.8331  135.5369  155.0747 H   0  0  0  0  0  0  0  0  0  0  0  0
  150.3396  134.2504  156.1654 H   0  0  0  0  0  0  0  0  0  0  0  0
  151.4820  135.9610  157.6103 H   0  0  0  0  0  0  0  0  0  0  0  0
  148.5895  135.8127  157.2037 H   0  0  0  0  0  0  0  0  0  0  0  0
  145.3982  135.8594  160.6403 H   0  0  0  0  0  0  0  0  0  0  0  0
  145.4336  136.1480  163.0968 H   0  0  0  0  0  0  0  0  0  0  0  0
  148.0687  136.7485  163.7451 H   0  0  0  0  0  0  0  0  0  0  0  0
  150.9683  138.3389  157.4071 H   0  0  0  0  0  0  0  0  0  0  0  0
  149.5352  137.6148  154.8146 H   0  0  0  0  0  0  0  0  0  0  0  0
  148.7891  138.2822  156.2490 H   0  0  0  0  0  0  0  0  0  0  0  0
  149.1934  140.0407  154.5377 H   0  0  0  0  0  0  0  0  0  0  0  0
  150.0765  140.3890  156.0107 H   0  0  0  0  0  0  0  0  0  0  0  0
  153.2369  139.4057  154.5764 H   0  0  0  0  0  0  0  0  0  0  0  0
  152.4765  140.0164  156.0322 H   0  0  0  0  0  0  0  0  0  0  0  0
  153.0511  137.6168  156.2974 H   0  0  0  0  0  0  0  0  0  0  0  0
  152.1697  137.2030  154.8459 H   0  0  0  0  0  0  0  0  0  0  0  0
  1  2  1  0  0  0  0
  1 18  1  0  0  0  0
  1 19  1  0  0  0  0
  1 20  1  0  0  0  0
  2  3  1  0  0  0  0
  2 12  1  0  0  0  0
  2 21  1  0  0  0  0
  3 22  1  0  0  0  0
  3  4  1  0  0  0  0
  4  6  1  0  0  0  0
  4  5  2  0  0  0  0
  6  7  2  0  0  0  0
  7 11  1  0  0  0  0
  7  8  1  0  0  0  0
  8 23  1  0  0  0  0
  8  9  1  0  0  0  0
  9 24  1  0  0  0  0
  9 10  2  0  0  0  0
 10 25  1  0  0  0  0
 10 11  1  0  0  0  0
 12 17  1  0  0  0  0
 12 13  1  0  0  0  0
 12 26  1  0  0  0  0
 13 14  1  0  0  0  0
 13 27  1  0  0  0  0
 13 28  1  0  0  0  0
 14 15  1  0  0  0  0
 14 29  1  0  0  0  0
 14 30  1  0  0  0  0
 15 16  1  0  0  0  0
 16 17  1  0  0  0  0
 16 31  1  0  0  0  0
 16 32  1  0  0  0  0
 17 33  1  0  0  0  0
 17 34  1  0  0  0  0
M  END
> <s_m_source_file>
AV-unprocessed.smi

> <i_m_source_file_index>
2243

> <i_lp_mmshare_version>
43012

> <i_f3d_flags>
0

> <s_epik_input>
W0NIMl0xW0NIMl1PW0NIMl1bQ0gyXVtDSF0xW0NASF0oW0NIM10pW05IXUMoPU8pW05IXWMybltjSF1bY0hdbzI=

> <s_epik_cmdline>
J2VwaWtfcHl0aG9uJywgJy1waCcsICc3LjAnLCAnLXRuJywgJzgnLCAnLW1hJywgJzIwMCcsICctbWV0YWxfYmluZGluZycsICctaW1hZScsICc8aW5maWxlLm1hZT4nLCAnLW9tYWUnLCAnPG91dGZpbGUubWFlPic=

> <r_lp_tautomer_probability>
0.107061

> <r_epik_Ionization_Penalty>
1.44639

> <r_epik_Ionization_Penalty_Charging>
1.44602

> <r_epik_Ionization_Penalty_Neutral>
0.000368208

> <r_epik_State_Penalty>
2.61815

> <r_epik_Charging_Adjusted_Penalty>
4.06418

> <i_epik_Tot_Q>
0

> <i_epik_Tot_abs_Q>
0

> <r_epik_Metal_State_Penalty>
3.54171

> <b_epik_Metal_Only>
0

> <s_lp_Force_Field>
OPLS_2005

> <r_lp_Energy>
34.6671

> <b_lp_Chiralities_Consistent>
1

> <s_lp_Variant>
AV-unprocessed.smi:2243-5

> <Gold.Version>
5.8.1

> <Gold.Id.Protein>
6NUR|6NUR_protein|mol2

> <Gold.PLP.Fitness>
32.2621

> <Gold.PLP.PLP>
-24.5898

> <Gold.PLP.part.hbond>
-2.9410

> <Gold.PLP.part.metal>
0.0000

> <Gold.PLP.part.buried>
-3.7693

> <Gold.PLP.part.nonpolar>
-17.7678

> <Gold.PLP.part.repulsive>
0.2584

> <Gold.PLP.ligand.clash>
0.0000

> <Gold.PLP.ligand.torsion>
0.3604

> <Gold.PLP.Chemscore.Hbond>
2.7925

> <Gold.PLP.Chemscore.CHOScore>
0.0000

> <Gold.PLP.Chemscore.Metal>
0.0000

> <Gold.Chemscore.Hbonds>
donor molecule, donor type, donor heavy atom, donor atom, acceptor molecule, acceptor atom, score
      P1  H  6896  6908       L1     5  0.84
      P1  H  6931  6943       L1    11  0.85
      P1  H  7989  7998       L1    15  1.00

> <Gold.PLP.Chemscore.Internal.Correction>
0.0156

> <Gold.Rescore>
     Score         DG    S(hbond)    S(metal)    S(lipo)     H(rot)  DE(clash)    DE(int)     intcor
     12.86     -14.80       1.96        0.00      52.45       1.32       0.00       1.93       ----

> <Gold.Chemscore.Fitness>
12.8633

> <Gold.Chemscore.DG>
-14.7974

> <Gold.Chemscore.ZeroCoef>
-5.4800

> <Gold.Chemscore.Hbond>
1.9641

> <Gold.Chemscore.Metal>
0.0000

> <Gold.Chemscore.Lipo>
52.4485

> <Gold.Chemscore.Internal_Hbond>
0.0000

> <Gold.Chemscore.DEClash>
0.0000

> <Gold.Chemscore.DEInternal>
1.9340

> <Gold.Chemscore.Rot>
1.3201

> <Gold.Chemscore.Internal.Correction>
   9.000000E+99

> <Gold.Chemscore.Hbonds>
donor molecule, donor type, donor heavy atom, donor atom, acceptor molecule, acceptor atom, score
      P1  H  6896  6908       L1     5  0.14
      P1  H  6931  6943       L1    11  0.14
      P1  H  7989  7998       L1    15  0.61

> <Gold.Chemscore.Hbond.Weighted>
-6.5603

> <Gold.Chemscore.Metal.Weighted>
-0.0000

> <Gold.Chemscore.Lipo.Weighted>
-6.1365

> <Gold.Chemscore.Internal_Hbond.Weighted>
0.0000

> <Gold.Chemscore.DEClash.Weighted>
0.0000

> <Gold.Chemscore.DEInternal.Weighted>
1.9340

> <Gold.Chemscore.Rot.Weighted>
3.3794

> <Gold.Chemscore.Internal.Correction.Weighted>
   9.000000E+99

> <Gold.Protein.RotatedTorsions>
[ 6907 6896 6895 6894 ] final -146.57 input  -60.11 | X-H torsion
[ 7974 7965 7964 7962 ] final   34.18 input  175.53 | X-H torsion
[ 8008 7997 7996 7995 ] final   93.06 input   59.86 | X-H torsion
[ 10167 10162 10161 10158 ] final   50.93 input  -65.29 | X-H torsion
[ 10718 10713 10712 10709 ] final  123.88 input   66.30 | X-H torsion
[ 10763 10752 10751 10750 ] final   90.35 input  -60.55 | X-H torsion
[ 11005 11000 10999 10996 ] final  -54.38 input  -57.11 | X-H torsion

> <Gold.Protein.ActiveResidues>
 VAL166  LYS551  ARG553  GLY616  TRP617  ASP618  TYR619  PRO620  LYS621  CYS622 
 ASP623  PHE694  ASN695  SER759  ASP760  ASP761  ALA762  ILE779  LEU786  VAL792 
 PHE793  MET794  SER795  GLU796  ALA797  LYS798  CYS799  TRP800  GLU811  SER814 

> <Gold.Protein.RotatedAtoms>
  151.1435  133.4955  159.2596 H   0  0  0  0  0  0  0  0  0  0  0  0  # atno 6907 bound_to 6896
  151.1629  135.0282  159.8728 H   0  0  0  0  0  0  0  0  0  0  0  0  # atno 6908 bound_to 6896
  152.5462  134.1307  159.8491 H   0  0  0  0  0  0  0  0  0  0  0  0  # atno 6909 bound_to 6896
  146.1370  139.6302  142.9188 H   0  0  0  0  0  0  0  0  0  0  0  0  # atno 7974 bound_to 7965
  156.0424  140.3317  155.7259 H   0  0  0  0  0  0  0  0  0  0  0  0  # atno 8008 bound_to 7997
  155.5724  140.0629  157.2821 H   0  0  0  0  0  0  0  0  0  0  0  0  # atno 8009 bound_to 7997
  154.4399  140.1858  156.0881 H   0  0  0  0  0  0  0  0  0  0  0  0  # atno 8010 bound_to 7997
  140.2673  144.3306  150.6300 H   0  0  0  0  0  0  0  0  0  0  0  0  # atno 10167 bound_to 10162
  157.5629  131.1088  150.8506 H   0  0  0  0  0  0  0  0  0  0  0  0  # atno 10718 bound_to 10713
  153.1966  135.4437  155.0215 H   0  0  0  0  0  0  0  0  0  0  0  0  # atno 10763 bound_to 10752
  154.8122  135.3299  154.7275 H   0  0  0  0  0  0  0  0  0  0  0  0  # atno 10764 bound_to 10752
  153.7724  135.6983  153.4959 H   0  0  0  0  0  0  0  0  0  0  0  0  # atno 10765 bound_to 10752
  141.1023  133.6617  156.4311 H   0  0  0  0  0  0  0  0  0  0  0  0  # atno 11005 bound_to 11000
  145.5133  141.0434  143.2476 LP  0  0  0  0  0  0  0  0  0  0  0  0  # atno 17320 bound_to 7965
  144.7751  139.6648  143.7178 LP  0  0  0  0  0  0  0  0  0  0  0  0  # atno 17321 bound_to 7965
  140.5918  143.2168  151.7238 LP  0  0  0  0  0  0  0  0  0  0  0  0  # atno 17342 bound_to 10162
  139.4999  144.3927  152.0263 LP  0  0  0  0  0  0  0  0  0  0  0  0  # atno 17343 bound_to 10162
  156.8998  130.5242  149.5283 LP  0  0  0  0  0  0  0  0  0  0  0  0  # atno 17370 bound_to 10713
  156.0680  130.5719  150.9327 LP  0  0  0  0  0  0  0  0  0  0  0  0  # atno 17371 bound_to 10713
  140.4992  134.6502  157.5241 LP  0  0  0  0  0  0  0  0  0  0  0  0  # atno 17394 bound_to 11000
  139.9879  134.7033  155.9742 LP  0  0  0  0  0  0  0  0  0  0  0  0  # atno 17395 bound_to 11000

$$$$
