AV-unprocessed.smi:198|AV-procd|sdf|1557|dock1
  -GOLD-   2262019423D 1   1.00000     0.00000
 Structure written by MMmdl.
 59 63  0  0  0  0  0  0  0  0  2 V2000
  155.6134  140.4483  160.6788 C   0  0  0  0  0  0  0  0  0  0  0  0
  154.1680  140.6932  160.4838 N   0  3  2  0  0  0  0  0  0  0  0  0
  153.5560  139.7267  159.5407 C   0  0  0  0  0  0  0  0  0  0  0  0
  152.0347  139.9300  159.4620 C   0  0  0  0  0  0  0  0  0  0  0  0
  151.6625  141.3750  159.0521 C   0  0  1  0  0  0  0  0  0  0  0  0
  152.3583  142.3625  160.0215 C   0  0  2  0  0  0  0  0  0  0  0  0
  152.0313  143.8209  159.6436 C   0  0  0  0  0  0  0  0  0  0  0  0
  152.3438  144.1023  158.1660 C   0  0  0  0  0  0  0  0  0  0  0  0
  151.6548  143.0740  157.2578 C   0  0  0  0  0  0  0  0  0  0  0  0
  151.9862  141.7065  157.6555 N   0  0  0  0  0  0  0  0  0  0  0  0
  151.5735  140.8221  156.7207 C   0  0  0  0  0  0  0  0  0  0  0  0
  152.4661  139.8819  156.3263 N   0  0  0  0  0  0  0  0  0  0  0  0
  152.1204  138.9828  155.3996 C   0  0  0  0  0  0  0  0  0  0  0  0
  150.9586  138.8517  154.7557 N   0  0  0  0  0  0  0  0  0  0  0  0
  150.0588  139.7976  155.1519 C   0  0  0  0  0  0  0  0  0  0  0  0
  150.2832  140.8164  156.1199 C   0  0  0  0  0  0  0  0  0  0  0  0
  149.1477  141.6059  156.2511 N   0  0  0  0  0  0  0  0  0  0  0  0
  148.3024  141.0885  155.4018 C   0  0  0  0  0  0  0  0  0  0  0  0
  148.7570  139.9824  154.7189 N   0  0  0  0  0  0  0  0  0  0  0  0
  148.0540  139.2579  153.7001 C   0  0  0  0  0  0  0  0  0  0  0  0
  146.6132  139.6196  153.3264 C   0  0  0  0  0  0  0  0  0  0  0  0
  146.2818  138.1273  153.1049 C   0  0  0  0  0  0  0  0  0  0  0  0
  144.9709  137.6475  153.7474 C   0  0  0  0  0  0  0  0  0  0  0  0
  143.8451  138.0925  153.0181 O   0  0  0  0  0  0  0  0  0  0  0  0
  146.2885  137.6117  151.6485 C   0  0  0  0  0  0  0  0  0  0  0  0
  146.5625  138.6207  150.6976 O   0  0  0  0  0  0  0  0  0  0  0  0
  147.5469  137.8328  153.9421 C   0  0  0  0  0  0  0  0  0  0  0  0
  153.8801  142.0980  160.1037 C   0  0  0  0  0  0  0  0  0  0  0  0
  156.1633  140.5885  159.7472 H   0  0  0  0  0  0  0  0  0  0  0  0
  155.7881  139.4304  161.0291 H   0  0  0  0  0  0  0  0  0  0  0  0
  156.0230  141.1304  161.4245 H   0  0  0  0  0  0  0  0  0  0  0  0
  154.0061  139.8375  158.5530 H   0  0  0  0  0  0  0  0  0  0  0  0
  153.7685  138.7098  159.8730 H   0  0  0  0  0  0  0  0  0  0  0  0
  151.5904  139.1941  158.7913 H   0  0  0  0  0  0  0  0  0  0  0  0
  151.6031  139.7220  160.4419 H   0  0  0  0  0  0  0  0  0  0  0  0
  150.5846  141.4925  159.1709 H   0  0  0  0  0  0  0  0  0  0  0  0
  151.9517  142.1914  161.0195 H   0  0  0  0  0  0  0  0  0  0  0  0
  150.9716  144.0078  159.8230 H   0  0  0  0  0  0  0  0  0  0  0  0
  152.5759  144.5150  160.2843 H   0  0  0  0  0  0  0  0  0  0  0  0
  152.0160  145.1080  157.9018 H   0  0  0  0  0  0  0  0  0  0  0  0
  153.4207  144.0801  157.9974 H   0  0  0  0  0  0  0  0  0  0  0  0
  150.5736  143.2114  157.3043 H   0  0  0  0  0  0  0  0  0  0  0  0
  151.9517  143.2455  156.2220 H   0  0  0  0  0  0  0  0  0  0  0  0
  152.8835  138.2652  155.1361 H   0  0  0  0  0  0  0  0  0  0  0  0
  147.3155  141.5019  155.2518 H   0  0  0  0  0  0  0  0  0  0  0  0
  148.6976  139.2905  152.8202 H   0  0  0  0  0  0  0  0  0  0  0  0
  146.0622  140.0520  154.1633 H   0  0  0  0  0  0  0  0  0  0  0  0
  146.5231  140.2447  152.4377 H   0  0  0  0  0  0  0  0  0  0  0  0
  144.9400  136.5597  153.8191 H   0  0  0  0  0  0  0  0  0  0  0  0
  144.8753  138.0252  154.7657 H   0  0  0  0  0  0  0  0  0  0  0  0
  143.8073  139.0354  153.0689 H   0  0  0  0  0  0  0  0  0  0  0  0
  147.0347  136.8267  151.5215 H   0  0  0  0  0  0  0  0  0  0  0  0
  145.3261  137.1717  151.3854 H   0  0  0  0  0  0  0  0  0  0  0  0
  145.7417  138.9575  150.3718 H   0  0  0  0  0  0  0  0  0  0  0  0
  148.1937  137.0529  153.5381 H   0  0  0  0  0  0  0  0  0  0  0  0
  147.3287  137.6465  154.9949 H   0  0  0  0  0  0  0  0  0  0  0  0
  154.3261  142.7668  160.8412 H   0  0  0  0  0  0  0  0  0  0  0  0
  154.3660  142.3113  159.1508 H   0  0  0  0  0  0  0  0  0  0  0  0
  153.7278  140.5406  161.3801 H   0  0  0  0  0  0  0  0  0  0  0  0
  1  2  1  0  0  0  0
  1 29  1  0  0  0  0
  1 30  1  0  0  0  0
  1 31  1  0  0  0  0
  2 28  1  0  0  0  0
  2  3  1  0  0  0  0
  2 59  1  0  0  0  0
  3  4  1  0  0  0  0
  3 32  1  0  0  0  0
  3 33  1  0  0  0  0
  4  5  1  0  0  0  0
  4 34  1  0  0  0  0
  4 35  1  0  0  0  0
  5 10  1  0  0  0  0
  5  6  1  0  0  0  0
  5 36  1  0  0  0  0
  6  7  1  0  0  0  0
  6 28  1  0  0  0  0
  6 37  1  0  0  0  0
  7  8  1  0  0  0  0
  7 38  1  0  0  0  0
  7 39  1  0  0  0  0
  8  9  1  0  0  0  0
  8 40  1  0  0  0  0
  8 41  1  0  0  0  0
  9 10  1  0  0  0  0
  9 42  1  0  0  0  0
  9 43  1  0  0  0  0
 10 11  1  0  0  0  0
 11 16  1  0  0  0  0
 11 12  2  0  0  0  0
 12 13  1  0  0  0  0
 13 14  2  0  0  0  0
 13 44  1  0  0  0  0
 14 15  1  0  0  0  0
 15 19  1  0  0  0  0
 15 16  2  0  0  0  0
 16 17  1  0  0  0  0
 17 18  2  0  0  0  0
 18 19  1  0  0  0  0
 18 45  1  0  0  0  0
 19 20  1  0  0  0  0
 20 27  1  0  0  0  0
 20 21  1  0  0  0  0
 20 46  1  0  0  0  0
 21 22  1  0  0  0  0
 21 47  1  0  0  0  0
 21 48  1  0  0  0  0
 22 23  1  0  0  0  0
 22 25  1  0  0  0  0
 22 27  1  0  0  0  0
 23 24  1  0  0  0  0
 23 49  1  0  0  0  0
 23 50  1  0  0  0  0
 24 51  1  0  0  0  0
 25 26  1  0  0  0  0
 25 52  1  0  0  0  0
 25 53  1  0  0  0  0
 26 54  1  0  0  0  0
 27 55  1  0  0  0  0
 27 56  1  0  0  0  0
 28 57  1  0  0  0  0
 28 58  1  0  0  0  0
M  CHG  1   2   1
M  END
> <s_m_source_file>
AV-unprocessed.smi

> <i_m_source_file_index>
198

> <i_lp_mmshare_version>
43012

> <i_f3d_flags>
0

> <s_epik_input>
W0NIMl0xW0NIMl1OKFtDSDNdKVtDSDJdW0NAQEhdKFtDQEhdMTIpW0NIMl1bQ0gyXVtDSDJdTjJjKG5bY0hdbjMpYyhjMzQpbltjSF1uNFtDSF0oW0NIMl01KVtDSDJdQzUoW0NIMl1bT0hdKVtDSDJdW09IXQ==

> <s_epik_cmdline>
J2VwaWtfcHl0aG9uJywgJy1waCcsICc3LjAnLCAnLXRuJywgJzgnLCAnLW1hJywgJzIwMCcsICctbWV0YWxfYmluZGluZycsICctaW1hZScsICc8aW5maWxlLm1hZT4nLCAnLW9tYWUnLCAnPG91dGZpbGUubWFlPic=

> <r_lp_tautomer_probability>
1

> <r_epik_Ionization_Penalty>
0.00239938

> <r_epik_Ionization_Penalty_Charging>
0.00138697

> <r_epik_Ionization_Penalty_Neutral>
0.00101241

> <r_epik_State_Penalty>
-0

> <r_epik_Charging_Adjusted_Penalty>
0.00138697

> <i_epik_Tot_Q>
1

> <i_epik_Tot_abs_Q>
1

> <r_epik_Metal_State_Penalty>
-0

> <b_epik_Metal_Only>
0

> <s_lp_Force_Field>
OPLS_2005

> <r_lp_Energy>
60.6867

> <b_lp_Chiralities_Consistent>
1

> <s_lp_Variant>
AV-unprocessed.smi:198-6

> <Gold.Version>
5.8.1

> <Gold.Id.Protein>
6NUR|6NUR_protein|mol2

> <Gold.PLP.Fitness>
53.7125

> <Gold.PLP.PLP>
-44.9557

> <Gold.PLP.part.hbond>
-4.2075

> <Gold.PLP.part.metal>
0.0000

> <Gold.PLP.part.buried>
0.5015

> <Gold.PLP.part.nonpolar>
-42.0301

> <Gold.PLP.part.repulsive>
0.2799

> <Gold.PLP.ligand.clash>
0.0000

> <Gold.PLP.ligand.torsion>
1.7209

> <Gold.PLP.Chemscore.Hbond>
3.8640

> <Gold.PLP.Chemscore.CHOScore>
0.0000

> <Gold.PLP.Chemscore.Metal>
0.0000

> <Gold.Chemscore.Hbonds>
donor molecule, donor type, donor heavy atom, donor atom, acceptor molecule, acceptor atom, score
      L1  H    24    51       P1 10175  1.00
      L1  H    26    54       P1 10171  0.99
      P1  H  7954  7966       L1    26  0.85
      P1  H  7997  8010       L1    12  1.00

> <Gold.PLP.Chemscore.Internal.Correction>
0.6066

> <Gold.Rescore>
     Score         DG    S(hbond)    S(metal)    S(lipo)     H(rot)  DE(clash)    DE(int)     intcor
     20.94     -23.65       3.69        0.00     117.18       3.08       1.08       1.63       ----

> <Gold.Chemscore.Fitness>
20.9410

> <Gold.Chemscore.DG>
-23.6471

> <Gold.Chemscore.ZeroCoef>
-5.4800

> <Gold.Chemscore.Hbond>
3.6939

> <Gold.Chemscore.Metal>
0.0000

> <Gold.Chemscore.Lipo>
117.1759

> <Gold.Chemscore.Internal_Hbond>
0.0000

> <Gold.Chemscore.DEClash>
1.0807

> <Gold.Chemscore.DEInternal>
1.6254

> <Gold.Chemscore.Rot>
3.0781

> <Gold.Chemscore.Internal.Correction>
   9.000000E+99

> <Gold.Chemscore.Hbonds>
donor molecule, donor type, donor heavy atom, donor atom, acceptor molecule, acceptor atom, score
      L1  H    24    51       P1 10175  0.91
      L1  H    26    54       P1 10171  0.92
      P1  H  7954  7966       L1    26  0.22
      P1  H  7997  8010       L1    12  0.74

> <Gold.Chemscore.Hbond.Weighted>
-12.3375

> <Gold.Chemscore.Metal.Weighted>
-0.0000

> <Gold.Chemscore.Lipo.Weighted>
-13.7096

> <Gold.Chemscore.Internal_Hbond.Weighted>
0.0000

> <Gold.Chemscore.DEClash.Weighted>
1.0807

> <Gold.Chemscore.DEInternal.Weighted>
1.6254

> <Gold.Chemscore.Rot.Weighted>
7.8800

> <Gold.Chemscore.Internal.Correction.Weighted>
   9.000000E+99

> <Gold.Protein.RotatedTorsions>
[ 6907 6896 6895 6894 ] final   60.75 input  -60.11 | X-H torsion
[ 7974 7965 7964 7962 ] final   18.33 input  175.53 | X-H torsion
[ 8008 7997 7996 7995 ] final   80.12 input   59.86 | X-H torsion
[ 10167 10162 10161 10158 ] final   85.40 input  -65.29 | X-H torsion
[ 10718 10713 10712 10709 ] final   99.53 input   66.30 | X-H torsion
[ 10763 10752 10751 10750 ] final -132.15 input  -60.55 | X-H torsion
[ 11005 11000 10999 10996 ] final  126.42 input  -57.11 | X-H torsion

> <Gold.Protein.ActiveResidues>
 VAL166  LYS551  ARG553  GLY616  TRP617  ASP618  TYR619  PRO620  LYS621  CYS622 
 ASP623  PHE694  ASN695  SER759  ASP760  ASP761  ALA762  ILE779  LEU786  VAL792 
 PHE793  MET794  SER795  GLU796  ALA797  LYS798  CYS799  TRP800  GLU811  SER814 

> <Gold.Protein.RotatedAtoms>
  152.4029  134.6255  160.0061 H   0  0  0  0  0  0  0  0  0  0  0  0  # atno 6907 bound_to 6896
  151.6455  133.3318  159.3148 H   0  0  0  0  0  0  0  0  0  0  0  0  # atno 6908 bound_to 6896
  150.7928  134.7006  159.6593 H   0  0  0  0  0  0  0  0  0  0  0  0  # atno 6909 bound_to 6896
  146.2188  139.8472  142.8629 H   0  0  0  0  0  0  0  0  0  0  0  0  # atno 7974 bound_to 7965
  155.8791  140.3445  155.5875 H   0  0  0  0  0  0  0  0  0  0  0  0  # atno 8008 bound_to 7997
  155.7740  140.0849  157.2112 H   0  0  0  0  0  0  0  0  0  0  0  0  # atno 8009 bound_to 7997
  154.4023  140.1513  156.2962 H   0  0  0  0  0  0  0  0  0  0  0  0  # atno 8010 bound_to 7997
  139.8982  144.6345  150.8666 H   0  0  0  0  0  0  0  0  0  0  0  0  # atno 10167 bound_to 10162
  157.6874  131.0672  150.4962 H   0  0  0  0  0  0  0  0  0  0  0  0  # atno 10718 bound_to 10713
  154.8745  135.3807  154.4363 H   0  0  0  0  0  0  0  0  0  0  0  0  # atno 10763 bound_to 10752
  153.5052  135.7030  153.5815 H   0  0  0  0  0  0  0  0  0  0  0  0  # atno 10764 bound_to 10752
  153.4129  135.3920  155.2028 H   0  0  0  0  0  0  0  0  0  0  0  0  # atno 10765 bound_to 10752
  139.9455  134.9630  156.8704 H   0  0  0  0  0  0  0  0  0  0  0  0  # atno 11005 bound_to 11000
  145.2838  141.0147  143.3702 LP  0  0  0  0  0  0  0  0  0  0  0  0  # atno 17320 bound_to 7965
  144.9129  139.4506  143.6578 LP  0  0  0  0  0  0  0  0  0  0  0  0  # atno 17321 bound_to 7965
  140.7712  143.3457  151.2115 LP  0  0  0  0  0  0  0  0  0  0  0  0  # atno 17342 bound_to 10162
  139.7049  143.9472  152.2922 LP  0  0  0  0  0  0  0  0  0  0  0  0  # atno 17343 bound_to 10162
  156.5286  130.4179  149.6213 LP  0  0  0  0  0  0  0  0  0  0  0  0  # atno 17370 bound_to 10713
  156.3089  130.7218  151.2107 LP  0  0  0  0  0  0  0  0  0  0  0  0  # atno 17371 bound_to 10713
  140.5845  134.0320  155.7476 LP  0  0  0  0  0  0  0  0  0  0  0  0  # atno 17394 bound_to 11000
  141.1104  133.9626  157.2920 LP  0  0  0  0  0  0  0  0  0  0  0  0  # atno 17395 bound_to 11000

$$$$
