AV-unprocessed.smi:2416|AV-procd|sdf|9545|dock3
  -GOLD-   2272013173D 1   1.00000     0.00000
 Structure written by MMmdl.
 40 41  0  0  0  0  0  0  0  0  1 V2000
  146.4741  142.9745  154.0171 C   0  0  0  0  0  0  0  0  0  0  0  0
  146.7065  141.7502  154.7024 O   0  0  0  0  0  0  0  0  0  0  0  0
  147.8263  140.9598  154.2789 C   0  0  2  0  0  0  0  0  0  0  0  0
  149.1411  141.7026  154.5477 C   0  0  0  0  0  0  0  0  0  0  0  0
  147.5636  140.3710  152.8791 C   0  0  0  0  0  0  0  0  0  0  0  0
  146.7817  139.2592  153.5757 C   0  0  1  0  0  0  0  0  0  0  0  0
  146.9681  137.9558  152.9458 N   0  0  0  0  0  0  0  0  0  0  0  0
  145.9665  137.1330  152.6049 C   0  0  0  0  0  0  0  0  0  0  0  0
  144.7793  137.3962  152.7985 O   0  0  0  0  0  0  0  0  0  0  0  0
  146.4313  136.0056  152.0373 N   0  0  0  0  0  0  0  0  0  0  0  0
  145.6870  134.9012  151.5424 C   0  0  0  0  0  0  0  0  0  0  0  0
  146.4642  133.8209  151.0657 C   0  0  0  0  0  0  0  0  0  0  0  0
  145.8212  132.6780  150.5514 C   0  0  0  0  0  0  0  0  0  0  0  0
  144.4155  132.6462  150.5288 C   0  0  0  0  0  0  0  0  0  0  0  0
  143.7529  131.5694  150.0439 F   0  0  0  0  0  0  0  0  0  0  0  0
  143.7157  133.7619  151.0237 C   0  0  0  0  0  0  0  0  0  0  0  0
  144.3310  134.8580  151.5161 N   0  0  0  0  0  0  0  0  0  0  0  0
  147.6470  139.5099  154.8379 C   0  0  0  0  0  0  0  0  0  0  0  0
  148.9347  138.6748  154.9729 C   0  0  0  0  0  0  0  0  0  0  0  0
  146.9235  139.3775  156.1827 C   0  0  0  0  0  0  0  0  0  0  0  0
  145.5111  143.3783  154.3290 H   0  0  0  0  0  0  0  0  0  0  0  0
  146.4443  142.8473  152.9355 H   0  0  0  0  0  0  0  0  0  0  0  0
  147.2301  143.7204  154.2616 H   0  0  0  0  0  0  0  0  0  0  0  0
  150.0091  141.0815  154.3294 H   0  0  0  0  0  0  0  0  0  0  0  0
  149.2148  142.0117  155.5906 H   0  0  0  0  0  0  0  0  0  0  0  0
  149.2425  142.5917  153.9258 H   0  0  0  0  0  0  0  0  0  0  0  0
  146.9650  140.9827  152.2047 H   0  0  0  0  0  0  0  0  0  0  0  0
  148.4744  140.0246  152.3875 H   0  0  0  0  0  0  0  0  0  0  0  0
  145.7338  139.5344  153.7177 H   0  0  0  0  0  0  0  0  0  0  0  0
  147.9167  137.6687  152.7543 H   0  0  0  0  0  0  0  0  0  0  0  0
  147.4332  135.9313  151.9431 H   0  0  0  0  0  0  0  0  0  0  0  0
  147.5434  133.8634  151.0907 H   0  0  0  0  0  0  0  0  0  0  0  0
  146.3967  131.8425  150.1811 H   0  0  0  0  0  0  0  0  0  0  0  0
  142.6358  133.7764  151.0245 H   0  0  0  0  0  0  0  0  0  0  0  0
  148.7152  137.6291  155.1912 H   0  0  0  0  0  0  0  0  0  0  0  0
  149.5680  139.0448  155.7799 H   0  0  0  0  0  0  0  0  0  0  0  0
  149.5336  138.6903  154.0624 H   0  0  0  0  0  0  0  0  0  0  0  0
  146.7809  138.3328  156.4604 H   0  0  0  0  0  0  0  0  0  0  0  0
  145.9322  139.8305  156.1592 H   0  0  0  0  0  0  0  0  0  0  0  0
  147.4821  139.8600  156.9852 H   0  0  0  0  0  0  0  0  0  0  0  0
  1  2  1  0  0  0  0
  1 21  1  0  0  0  0
  1 22  1  0  0  0  0
  1 23  1  0  0  0  0
  2  3  1  0  0  0  0
  3 18  1  0  0  0  0
  3  4  1  0  0  0  0
  3  5  1  0  0  0  0
  4 24  1  0  0  0  0
  4 25  1  0  0  0  0
  4 26  1  0  0  0  0
  5  6  1  0  0  0  0
  5 27  1  0  0  0  0
  5 28  1  0  0  0  0
  6  7  1  0  0  0  0
  6 18  1  0  0  0  0
  6 29  1  0  0  0  0
  7  8  1  0  0  0  0
  7 30  1  0  0  0  0
  8  9  2  0  0  0  0
  8 10  1  0  0  0  0
 10 11  1  0  0  0  0
 10 31  1  0  0  0  0
 11 17  1  0  0  0  0
 11 12  2  0  0  0  0
 12 13  1  0  0  0  0
 12 32  1  0  0  0  0
 13 14  2  0  0  0  0
 13 33  1  0  0  0  0
 14 15  1  0  0  0  0
 14 16  1  0  0  0  0
 16 17  2  0  0  0  0
 16 34  1  0  0  0  0
 18 19  1  0  0  0  0
 18 20  1  0  0  0  0
 19 35  1  0  0  0  0
 19 36  1  0  0  0  0
 19 37  1  0  0  0  0
 20 38  1  0  0  0  0
 20 39  1  0  0  0  0
 20 40  1  0  0  0  0
M  END
> <s_m_source_file>
AV-unprocessed.smi

> <i_m_source_file_index>
2416

> <i_lp_mmshare_version>
43012

> <i_f3d_flags>
0

> <s_epik_input>
W0NIM11PW0NAQF0xKFtDSDNdKVtDSDJdW0NASF0oQzEoW0NIM10pW0NIM10pW05IXUMoPU8pW05IXWMyW2NIXVtjSF1jKEYpW2NIXW4y

> <s_epik_cmdline>
J2VwaWtfcHl0aG9uJywgJy1waCcsICc3LjAnLCAnLXRuJywgJzgnLCAnLW1hJywgJzIwMCcsICctbWV0YWxfYmluZGluZycsICctaW1hZScsICc8aW5maWxlLm1hZT4nLCAnLW9tYWUnLCAnPG91dGZpbGUubWFlPic=

> <r_lp_tautomer_probability>
1

> <r_epik_Ionization_Penalty>
3.67756e-05

> <r_epik_Ionization_Penalty_Charging>
0

> <r_epik_Ionization_Penalty_Neutral>
3.67756e-05

> <r_epik_State_Penalty>
-0

> <r_epik_Charging_Adjusted_Penalty>
0

> <i_epik_Tot_Q>
0

> <i_epik_Tot_abs_Q>
0

> <r_epik_Metal_State_Penalty>
-0

> <b_epik_Metal_Only>
0

> <s_lp_Force_Field>
OPLS_2005

> <r_lp_Energy>
27.4355

> <b_lp_Chiralities_Consistent>
1

> <s_lp_Variant>
AV-unprocessed.smi:2416-2

> <Gold.Version>
5.8.1

> <Gold.Id.Protein>
6NUR|6NUR_protein|mol2

> <Gold.PLP.Fitness>
36.5324

> <Gold.PLP.PLP>
-28.0562

> <Gold.PLP.part.hbond>
-1.9494

> <Gold.PLP.part.metal>
0.0000

> <Gold.PLP.part.buried>
1.6400

> <Gold.PLP.part.nonpolar>
-28.6463

> <Gold.PLP.part.repulsive>
0.5346

> <Gold.PLP.ligand.clash>
0.0000

> <Gold.PLP.ligand.torsion>
0.2001

> <Gold.PLP.Chemscore.Hbond>
1.8393

> <Gold.PLP.Chemscore.CHOScore>
0.9952

> <Gold.PLP.Chemscore.Metal>
0.0000

> <Gold.Chemscore.Hbonds>
donor molecule, donor type, donor heavy atom, donor atom, acceptor molecule, acceptor atom, score
      L1  H     7    30       P1  7948  0.83
      L1  H    10    31       P1  7948  0.99
      L1  C    16    34       P1 10186  1.00

> <Gold.PLP.Chemscore.Internal.Correction>
0.3730

> <Gold.Rescore>
     Score         DG    S(hbond)    S(metal)    S(lipo)     H(rot)  DE(clash)    DE(int)     intcor
     13.46     -16.78       1.86        0.00      71.15       1.27       1.81       1.50       ----

> <Gold.Chemscore.Fitness>
13.4640

> <Gold.Chemscore.DG>
-16.7778

> <Gold.Chemscore.ZeroCoef>
-5.4800

> <Gold.Chemscore.Hbond>
1.8601

> <Gold.Chemscore.Metal>
0.0000

> <Gold.Chemscore.Lipo>
71.1486

> <Gold.Chemscore.Internal_Hbond>
0.0000

> <Gold.Chemscore.DEClash>
1.8104

> <Gold.Chemscore.DEInternal>
1.5034

> <Gold.Chemscore.Rot>
1.2653

> <Gold.Chemscore.Internal.Correction>
   9.000000E+99

> <Gold.Chemscore.Hbonds>
donor molecule, donor type, donor heavy atom, donor atom, acceptor molecule, acceptor atom, score
      L1  H     7    30       P1  7948  0.81
      L1  H    10    31       P1  7948  0.92

> <Gold.Chemscore.Hbond.Weighted>
-6.2126

> <Gold.Chemscore.Metal.Weighted>
-0.0000

> <Gold.Chemscore.Lipo.Weighted>
-8.3244

> <Gold.Chemscore.Internal_Hbond.Weighted>
0.0000

> <Gold.Chemscore.DEClash.Weighted>
1.8104

> <Gold.Chemscore.DEInternal.Weighted>
1.5034

> <Gold.Chemscore.Rot.Weighted>
3.2392

> <Gold.Chemscore.Internal.Correction.Weighted>
   9.000000E+99

> <Gold.Protein.RotatedTorsions>
[ 6907 6896 6895 6894 ] final   33.04 input  -60.11 | X-H torsion
[ 7974 7965 7964 7962 ] final   31.39 input  175.53 | X-H torsion
[ 8008 7997 7996 7995 ] final   51.25 input   59.86 | X-H torsion
[ 10167 10162 10161 10158 ] final -155.32 input  -65.29 | X-H torsion
[ 10718 10713 10712 10709 ] final -113.77 input   66.30 | X-H torsion
[ 10763 10752 10751 10750 ] final   19.04 input  -60.55 | X-H torsion
[ 11005 11000 10999 10996 ] final   -1.84 input  -57.11 | X-H torsion

> <Gold.Protein.ActiveResidues>
 VAL166  LYS551  ARG553  GLY616  TRP617  ASP618  TYR619  PRO620  LYS621  CYS622 
 ASP623  PHE694  ASN695  SER759  ASP760  ASP761  ALA762  ILE779  LEU786  VAL792 
 PHE793  MET794  SER795  GLU796  ALA797  LYS798  CYS799  TRP800  GLU811  SER814 

> <Gold.Protein.RotatedAtoms>
  152.0829  134.9459  160.0572 H   0  0  0  0  0  0  0  0  0  0  0  0  # atno 6907 bound_to 6896
  152.0740  133.4115  159.4480 H   0  0  0  0  0  0  0  0  0  0  0  0  # atno 6908 bound_to 6896
  150.6836  134.2979  159.4737 H   0  0  0  0  0  0  0  0  0  0  0  0  # atno 6909 bound_to 6896
  146.1553  139.6663  142.9071 H   0  0  0  0  0  0  0  0  0  0  0  0  # atno 7974 bound_to 7965
  155.4322  140.3451  155.4281 H   0  0  0  0  0  0  0  0  0  0  0  0  # atno 8008 bound_to 7997
  156.1329  140.1519  156.9068 H   0  0  0  0  0  0  0  0  0  0  0  0  # atno 8009 bound_to 7997
  154.4909  140.0841  156.7572 H   0  0  0  0  0  0  0  0  0  0  0  0  # atno 8010 bound_to 7997
  139.6941  143.9372  152.2399 H   0  0  0  0  0  0  0  0  0  0  0  0  # atno 10167 bound_to 10162
  156.0787  130.5991  150.8686 H   0  0  0  0  0  0  0  0  0  0  0  0  # atno 10718 bound_to 10713
  153.1196  135.6716  153.9358 H   0  0  0  0  0  0  0  0  0  0  0  0  # atno 10763 bound_to 10752
  153.8877  135.3050  155.3448 H   0  0  0  0  0  0  0  0  0  0  0  0  # atno 10764 bound_to 10752
  154.7609  135.4988  153.9542 H   0  0  0  0  0  0  0  0  0  0  0  0  # atno 10765 bound_to 10752
  140.6518  133.9398  155.8384 H   0  0  0  0  0  0  0  0  0  0  0  0  # atno 11005 bound_to 11000
  145.4723  141.0436  143.2691 LP  0  0  0  0  0  0  0  0  0  0  0  0  # atno 17320 bound_to 7965
  144.7955  139.6242  143.7094 LP  0  0  0  0  0  0  0  0  0  0  0  0  # atno 17321 bound_to 7965
  139.9196  144.6807  150.8475 LP  0  0  0  0  0  0  0  0  0  0  0  0  # atno 17342 bound_to 10162
  140.7691  143.3384  151.2259 LP  0  0  0  0  0  0  0  0  0  0  0  0  # atno 17343 bound_to 10162
  157.5895  131.0945  150.9142 LP  0  0  0  0  0  0  0  0  0  0  0  0  # atno 17370 bound_to 10713
  156.9321  130.5353  149.5279 LP  0  0  0  0  0  0  0  0  0  0  0  0  # atno 17371 bound_to 10713
  141.0531  134.0455  157.3757 LP  0  0  0  0  0  0  0  0  0  0  0  0  # atno 17394 bound_to 11000
  139.9043  135.0175  156.7415 LP  0  0  0  0  0  0  0  0  0  0  0  0  # atno 17395 bound_to 11000

$$$$
