AV-unprocessed.smi:2057|AV-procd|sdf|8342|dock6
  -GOLD-   2272011 13D 1   1.00000     0.00000
 Structure written by MMmdl.
 45 47  0  0  0  0  0  0  0  0  2 V2000
  150.6525  137.1190  154.7471 C   0  0  0  0  0  0  0  0  0  0  0  0
  151.3127  136.0802  155.4557 O   0  0  0  0  0  0  0  0  0  0  0  0
  150.6915  134.8523  155.5380 C   0  0  0  0  0  0  0  0  0  0  0  0
  151.3182  133.8692  156.3256 C   0  0  0  0  0  0  0  0  0  0  0  0
  150.7483  132.5921  156.4742 C   0  0  0  0  0  0  0  0  0  0  0  0
  149.5311  132.2642  155.8274 C   0  0  0  0  0  0  0  0  0  0  0  0
  148.9136  131.0354  155.9504 O   0  0  0  0  0  0  0  0  0  0  0  0
  149.5433  130.0372  156.7400 C   0  0  0  0  0  0  0  0  0  0  0  0
  148.9029  133.2424  155.0183 C   0  0  0  0  0  0  0  0  0  0  0  0
  147.5893  132.9185  154.3126 C   0  0  2  0  0  0  0  0  0  0  0  0
  146.5779  132.4786  155.1997 O   0  0  0  0  0  0  0  0  0  0  0  0
  147.8055  131.8761  153.1983 C   0  0  0  0  0  0  0  0  0  0  0  0
  146.6447  131.7462  152.3049 N   0  0  0  0  0  0  0  0  0  0  0  0
  146.0077  130.6249  151.8619 C   0  0  0  0  0  0  0  0  0  0  0  0
  146.3619  129.2117  152.2022 C   0  0  0  0  0  0  0  0  0  0  0  0
  147.6510  128.8371  151.7635 O   0  0  0  0  0  0  0  0  0  0  0  0
  144.9862  131.0353  151.0568 N   0  3  0  0  0  0  0  0  0  0  0  0
  144.9717  132.4286  150.9822 C   0  0  0  0  0  0  0  0  0  0  0  0
  144.1296  133.2954  150.2926 C   0  0  0  0  0  0  0  0  0  0  0  0
  144.3926  134.6745  150.4280 C   0  0  0  0  0  0  0  0  0  0  0  0
  145.4582  135.1439  151.2231 C   0  0  0  0  0  0  0  0  0  0  0  0
  146.3044  134.2553  151.9184 C   0  0  0  0  0  0  0  0  0  0  0  0
  146.0365  132.8933  151.7811 C   0  0  0  0  0  0  0  0  0  0  0  0
  149.4768  134.5278  154.8877 C   0  0  0  0  0  0  0  0  0  0  0  0
  151.2662  138.0194  154.7742 H   0  0  0  0  0  0  0  0  0  0  0  0
  149.6908  137.3620  155.2011 H   0  0  0  0  0  0  0  0  0  0  0  0
  150.5016  136.8551  153.6995 H   0  0  0  0  0  0  0  0  0  0  0  0
  152.2463  134.0985  156.8284 H   0  0  0  0  0  0  0  0  0  0  0  0
  151.2678  131.8802  157.0971 H   0  0  0  0  0  0  0  0  0  0  0  0
  148.9215  129.1422  156.7492 H   0  0  0  0  0  0  0  0  0  0  0  0
  149.6653  130.3636  157.7736 H   0  0  0  0  0  0  0  0  0  0  0  0
  150.5155  129.7595  156.3302 H   0  0  0  0  0  0  0  0  0  0  0  0
  147.2010  133.8350  153.8682 H   0  0  0  0  0  0  0  0  0  0  0  0
  146.4982  133.1109  155.8977 H   0  0  0  0  0  0  0  0  0  0  0  0
  148.6518  132.1703  152.5762 H   0  0  0  0  0  0  0  0  0  0  0  0
  148.0610  130.8997  153.6105 H   0  0  0  0  0  0  0  0  0  0  0  0
  146.3056  129.0764  153.2827 H   0  0  0  0  0  0  0  0  0  0  0  0
  145.6269  128.5429  151.7536 H   0  0  0  0  0  0  0  0  0  0  0  0
  148.0377  129.5705  151.3092 H   0  0  0  0  0  0  0  0  0  0  0  0
  143.3139  132.9378  149.6815 H   0  0  0  0  0  0  0  0  0  0  0  0
  143.7658  135.3862  149.9103 H   0  0  0  0  0  0  0  0  0  0  0  0
  145.6315  136.2075  151.3007 H   0  0  0  0  0  0  0  0  0  0  0  0
  147.1215  134.6261  152.5191 H   0  0  0  0  0  0  0  0  0  0  0  0
  148.9662  135.2616  154.2834 H   0  0  0  0  0  0  0  0  0  0  0  0
  144.3491  130.4006  150.5929 H   0  0  0  0  0  0  0  0  0  0  0  0
  1  2  1  0  0  0  0
  1 25  1  0  0  0  0
  1 26  1  0  0  0  0
  1 27  1  0  0  0  0
  2  3  1  0  0  0  0
  3 24  1  0  0  0  0
  3  4  2  0  0  0  0
  4  5  1  0  0  0  0
  4 28  1  0  0  0  0
  5  6  2  0  0  0  0
  5 29  1  0  0  0  0
  6  7  1  0  0  0  0
  6  9  1  0  0  0  0
  7  8  1  0  0  0  0
  8 30  1  0  0  0  0
  8 31  1  0  0  0  0
  8 32  1  0  0  0  0
  9 10  1  0  0  0  0
  9 24  2  0  0  0  0
 10 11  1  0  0  0  0
 10 12  1  0  0  0  0
 10 33  1  0  0  0  0
 11 34  1  0  0  0  0
 12 13  1  0  0  0  0
 12 35  1  0  0  0  0
 12 36  1  0  0  0  0
 13 23  1  0  0  0  0
 13 14  1  0  0  0  0
 14 15  1  0  0  0  0
 14 17  2  0  0  0  0
 15 16  1  0  0  0  0
 15 37  1  0  0  0  0
 15 38  1  0  0  0  0
 16 39  1  0  0  0  0
 17 18  1  0  0  0  0
 17 45  1  0  0  0  0
 18 23  2  0  0  0  0
 18 19  1  0  0  0  0
 19 20  2  0  0  0  0
 19 40  1  0  0  0  0
 20 21  1  0  0  0  0
 20 41  1  0  0  0  0
 21 22  2  0  0  0  0
 21 42  1  0  0  0  0
 22 23  1  0  0  0  0
 22 43  1  0  0  0  0
 24 44  1  0  0  0  0
M  CHG  1  17   1
M  END
> <s_m_source_file>
AV-unprocessed.smi

> <i_m_source_file_index>
2057

> <i_lp_mmshare_version>
43012

> <i_f3d_flags>
0

> <s_epik_input>
W0NIM11PYzFbY0hdW2NIXWMoT1tDSDNdKWMoW2NIXTEpW0NASF0oW09IXSlbQ0gyXW4oYyhuMilbQ0gyXVtPSF0pYyhjMjMpW2NIXVtjSF1bY0hdW2NIXTM=

> <s_epik_cmdline>
J2VwaWtfcHl0aG9uJywgJy1waCcsICc3LjAnLCAnLXRuJywgJzgnLCAnLW1hJywgJzIwMCcsICctbWV0YWxfYmluZGluZycsICctaW1hZScsICc8aW5maWxlLm1hZT4nLCAnLW9tYWUnLCAnPG91dGZpbGUubWFlPic=

> <r_lp_tautomer_probability>
1

> <r_epik_Ionization_Penalty>
1.35643

> <r_epik_Ionization_Penalty_Charging>
1.35557

> <r_epik_Ionization_Penalty_Neutral>
0.000857128

> <r_epik_State_Penalty>
1.43401

> <r_epik_Charging_Adjusted_Penalty>
2.78958

> <i_epik_Tot_Q>
1

> <i_epik_Tot_abs_Q>
1

> <r_epik_Metal_State_Penalty>
5.47166

> <b_epik_Metal_Only>
0

> <s_lp_Force_Field>
OPLS_2005

> <r_lp_Energy>
20.8096

> <b_lp_Chiralities_Consistent>
1

> <s_lp_Variant>
AV-unprocessed.smi:2057-3

> <Gold.Version>
5.8.1

> <Gold.Id.Protein>
6NUR|6NUR_protein|mol2

> <Gold.PLP.Fitness>
44.6145

> <Gold.PLP.PLP>
-39.1031

> <Gold.PLP.part.hbond>
-2.0000

> <Gold.PLP.part.metal>
0.0000

> <Gold.PLP.part.buried>
-5.8892

> <Gold.PLP.part.nonpolar>
-32.4238

> <Gold.PLP.part.repulsive>
0.1719

> <Gold.PLP.ligand.clash>
0.0000

> <Gold.PLP.ligand.torsion>
0.2876

> <Gold.PLP.Chemscore.Hbond>
2.0000

> <Gold.PLP.Chemscore.CHOScore>
0.0000

> <Gold.PLP.Chemscore.Metal>
0.0000

> <Gold.Chemscore.Hbonds>
donor molecule, donor type, donor heavy atom, donor atom, acceptor molecule, acceptor atom, score
      L1  H    16    39       P1 10747  1.00
      P1  H 10752 10763       L1     2  1.00

> <Gold.PLP.Chemscore.Internal.Correction>
0.0866

> <Gold.Rescore>
     Score         DG    S(hbond)    S(metal)    S(lipo)     H(rot)  DE(clash)    DE(int)     intcor
     11.90     -13.34       1.50        0.00      95.46       3.25       0.01       1.44       ----

> <Gold.Chemscore.Fitness>
11.8988

> <Gold.Chemscore.DG>
-13.3422

> <Gold.Chemscore.ZeroCoef>
-5.4800

> <Gold.Chemscore.Hbond>
1.5039

> <Gold.Chemscore.Metal>
0.0000

> <Gold.Chemscore.Lipo>
95.4582

> <Gold.Chemscore.Internal_Hbond>
0.0000

> <Gold.Chemscore.DEClash>
0.0067

> <Gold.Chemscore.DEInternal>
1.4367

> <Gold.Chemscore.Rot>
3.2537

> <Gold.Chemscore.Internal.Correction>
   9.000000E+99

> <Gold.Chemscore.Hbonds>
donor molecule, donor type, donor heavy atom, donor atom, acceptor molecule, acceptor atom, score
      L1  H    16    39       P1 10747  0.74
      P1  H 10752 10763       L1     2  0.18

> <Gold.Chemscore.Hbond.Weighted>
-5.0231

> <Gold.Chemscore.Metal.Weighted>
-0.0000

> <Gold.Chemscore.Lipo.Weighted>
-11.1686

> <Gold.Chemscore.Internal_Hbond.Weighted>
0.0000

> <Gold.Chemscore.DEClash.Weighted>
0.0067

> <Gold.Chemscore.DEInternal.Weighted>
1.4367

> <Gold.Chemscore.Rot.Weighted>
8.3295

> <Gold.Chemscore.Internal.Correction.Weighted>
   9.000000E+99

> <Gold.Protein.RotatedTorsions>
[ 6907 6896 6895 6894 ] final  147.38 input  -60.11 | X-H torsion
[ 7974 7965 7964 7962 ] final   17.22 input  175.53 | X-H torsion
[ 8008 7997 7996 7995 ] final  -87.22 input   59.86 | X-H torsion
[ 10167 10162 10161 10158 ] final  -37.15 input  -65.29 | X-H torsion
[ 10718 10713 10712 10709 ] final -168.08 input   66.30 | X-H torsion
[ 10763 10752 10751 10750 ] final   53.57 input  -60.55 | X-H torsion
[ 11005 11000 10999 10996 ] final  176.42 input  -57.11 | X-H torsion

> <Gold.Protein.ActiveResidues>
 VAL166  LYS551  ARG553  GLY616  TRP617  ASP618  TYR619  PRO620  LYS621  CYS622 
 ASP623  PHE694  ASN695  SER759  ASP760  ASP761  ALA762  ILE779  LEU786  VAL792 
 PHE793  MET794  SER795  GLU796  ALA797  LYS798  CYS799  TRP800  GLU811  SER814 

> <Gold.Protein.RotatedAtoms>
  152.1555  133.4549  159.4834 H   0  0  0  0  0  0  0  0  0  0  0  0  # atno 6907 bound_to 6896
  150.6900  134.2136  159.4378 H   0  0  0  0  0  0  0  0  0  0  0  0  # atno 6908 bound_to 6896
  152.0035  134.9915  160.0616 H   0  0  0  0  0  0  0  0  0  0  0  0  # atno 6909 bound_to 6896
  146.2225  139.8634  142.8600 H   0  0  0  0  0  0  0  0  0  0  0  0  # atno 7974 bound_to 7965
  154.6608  140.0568  157.0060 H   0  0  0  0  0  0  0  0  0  0  0  0  # atno 8008 bound_to 7997
  155.1231  140.3249  155.4474 H   0  0  0  0  0  0  0  0  0  0  0  0  # atno 8009 bound_to 7997
  156.2617  140.1994  156.6353 H   0  0  0  0  0  0  0  0  0  0  0  0  # atno 8010 bound_to 7997
  140.7125  143.3361  151.2460 H   0  0  0  0  0  0  0  0  0  0  0  0  # atno 10167 bound_to 10162
  156.6918  130.9162  151.3070 H   0  0  0  0  0  0  0  0  0  0  0  0  # atno 10718 bound_to 10713
  152.9796  135.5774  154.4762 H   0  0  0  0  0  0  0  0  0  0  0  0  # atno 10763 bound_to 10752
  154.4318  135.2774  155.1909 H   0  0  0  0  0  0  0  0  0  0  0  0  # atno 10764 bound_to 10752
  154.3614  135.6188  153.5746 H   0  0  0  0  0  0  0  0  0  0  0  0  # atno 10765 bound_to 10752
  140.3729  134.7014  157.4403 H   0  0  0  0  0  0  0  0  0  0  0  0  # atno 11005 bound_to 11000
  145.2681  141.0100  143.3787 LP  0  0  0  0  0  0  0  0  0  0  0  0  # atno 17320 bound_to 7965
  144.9245  139.4372  143.6525 LP  0  0  0  0  0  0  0  0  0  0  0  0  # atno 17321 bound_to 7965
  139.6856  143.9779  152.2832 LP  0  0  0  0  0  0  0  0  0  0  0  0  # atno 17342 bound_to 10162
  139.9424  144.6673  150.8253 LP  0  0  0  0  0  0  0  0  0  0  0  0  # atno 17343 bound_to 10162
  157.7006  130.9329  150.0774 LP  0  0  0  0  0  0  0  0  0  0  0  0  # atno 17370 bound_to 10713
  156.1792  130.3649  149.9058 LP  0  0  0  0  0  0  0  0  0  0  0  0  # atno 17371 bound_to 10713
  140.0538  134.6093  155.8830 LP  0  0  0  0  0  0  0  0  0  0  0  0  # atno 17394 bound_to 11000
  141.1949  133.6584  156.5616 LP  0  0  0  0  0  0  0  0  0  0  0  0  # atno 17395 bound_to 11000

$$$$
