AV-unprocessed.smi:87|AV-procd|sdf|822|dock6
  -GOLD-   2262017233D 1   1.00000     0.00000
 Structure written by MMmdl.
 58 60  0  0  0  0  0  0  0  0  1 V2000
  150.9589  138.5691  154.7967 C   0  0  0  0  0  0  0  0  0  0  0  0
  149.8898  139.6184  154.4569 C   0  0  0  0  0  0  0  0  0  0  0  0
  149.7328  140.7277  155.5218 C   0  0  0  0  0  0  0  0  0  0  0  0
  149.1229  142.0125  154.9133 C   0  0  0  0  0  0  0  0  0  0  0  0
  147.7722  141.8010  154.2140 C   0  0  0  0  0  0  0  0  0  0  0  0
  151.0936  141.0371  156.1988 C   0  0  0  0  0  0  0  0  0  0  0  0
  151.0784  140.9359  157.6594 N   0  0  0  0  0  0  0  0  0  0  0  0
  151.7361  141.9984  158.4146 C   0  0  0  0  0  0  0  0  0  0  0  0
  151.6677  143.3590  157.7054 C   0  0  0  0  0  0  0  0  0  0  0  0
  152.3082  144.4295  158.4834 C   0  0  0  0  0  0  0  0  0  0  0  0
  152.8125  145.2718  159.0958 N   0  0  0  0  0  0  0  0  0  0  0  0
  151.1836  139.7123  158.2344 C   0  0  0  0  0  0  0  0  0  0  0  0
  150.0483  138.9742  158.3230 N   0  0  0  0  0  0  0  0  0  0  0  0
  150.0789  137.7534  158.8650 C   0  0  0  0  0  0  0  0  0  0  0  0
  151.1198  137.0933  159.3760 N   0  0  0  0  0  0  0  0  0  0  0  0
  152.2608  137.8362  159.3038 C   0  0  0  0  0  0  0  0  0  0  0  0
  152.3833  139.1454  158.7570 C   0  0  0  0  0  0  0  0  0  0  0  0
  153.6993  139.5794  158.8738 N   0  0  0  0  0  0  0  0  0  0  0  0
  154.3201  138.5812  159.4391 C   0  0  0  0  0  0  0  0  0  0  0  0
  153.5314  137.4926  159.7304 N   0  0  0  0  0  0  0  0  0  0  0  0
  153.9614  136.2543  160.3558 C   0  0  0  0  0  0  0  0  0  0  0  0
  153.6456  136.2157  161.8640 C   0  0  2  0  0  0  0  0  0  0  0  0
  154.0999  137.4116  162.4704 O   0  0  0  0  0  0  0  0  0  0  0  0
  154.2803  134.9907  162.5543 C   0  0  1  0  0  0  0  0  0  0  0  0
  154.0545  134.8499  164.0709 C   0  0  0  0  0  0  0  0  0  0  0  0
  153.5061  133.4410  164.2271 C   0  0  0  0  0  0  0  0  0  0  0  0
  153.9299  132.7571  162.9328 C   0  0  0  0  0  0  0  0  0  0  0  0
  153.7972  133.7876  161.9680 O   0  0  0  0  0  0  0  0  0  0  0  0
  150.9537  137.7644  154.0614 H   0  0  0  0  0  0  0  0  0  0  0  0
  150.7763  138.1231  155.7748 H   0  0  0  0  0  0  0  0  0  0  0  0
  151.9623  138.9937  154.8024 H   0  0  0  0  0  0  0  0  0  0  0  0
  150.1079  140.0630  153.4852 H   0  0  0  0  0  0  0  0  0  0  0  0
  148.9472  139.0867  154.3362 H   0  0  0  0  0  0  0  0  0  0  0  0
  149.0360  140.3551  156.2724 H   0  0  0  0  0  0  0  0  0  0  0  0
  148.9625  142.7498  155.7003 H   0  0  0  0  0  0  0  0  0  0  0  0
  149.8307  142.4685  154.2201 H   0  0  0  0  0  0  0  0  0  0  0  0
  147.3569  142.7549  153.8882 H   0  0  0  0  0  0  0  0  0  0  0  0
  147.0488  141.3400  154.8870 H   0  0  0  0  0  0  0  0  0  0  0  0
  147.8615  141.1700  153.3307 H   0  0  0  0  0  0  0  0  0  0  0  0
  151.8773  140.3851  155.8192 H   0  0  0  0  0  0  0  0  0  0  0  0
  151.3998  142.0478  155.9265 H   0  0  0  0  0  0  0  0  0  0  0  0
  151.2605  142.0727  159.3930 H   0  0  0  0  0  0  0  0  0  0  0  0
  152.7764  141.7326  158.6071 H   0  0  0  0  0  0  0  0  0  0  0  0
  152.1622  143.3154  156.7347 H   0  0  0  0  0  0  0  0  0  0  0  0
  150.6329  143.6533  157.5302 H   0  0  0  0  0  0  0  0  0  0  0  0
  149.1346  137.2298  158.8910 H   0  0  0  0  0  0  0  0  0  0  0  0
  155.3772  138.6115  159.6601 H   0  0  0  0  0  0  0  0  0  0  0  0
  153.4642  135.4285  159.8455 H   0  0  0  0  0  0  0  0  0  0  0  0
  155.0307  136.1258  160.1827 H   0  0  0  0  0  0  0  0  0  0  0  0
  152.5632  136.1648  161.9903 H   0  0  0  0  0  0  0  0  0  0  0  0
  154.5327  137.9358  161.8140 H   0  0  0  0  0  0  0  0  0  0  0  0
  155.3556  135.0015  162.3670 H   0  0  0  0  0  0  0  0  0  0  0  0
  155.0027  134.9563  164.5994 H   0  0  0  0  0  0  0  0  0  0  0  0
  153.3677  135.5888  164.4842 H   0  0  0  0  0  0  0  0  0  0  0  0
  153.8778  132.9331  165.1175 H   0  0  0  0  0  0  0  0  0  0  0  0
  152.4173  133.4738  164.2848 H   0  0  0  0  0  0  0  0  0  0  0  0
  154.9711  132.4339  162.9839 H   0  0  0  0  0  0  0  0  0  0  0  0
  153.3103  131.8938  162.6893 H   0  0  0  0  0  0  0  0  0  0  0  0
  1  2  1  0  0  0  0
  1 29  1  0  0  0  0
  1 30  1  0  0  0  0
  1 31  1  0  0  0  0
  2  3  1  0  0  0  0
  2 32  1  0  0  0  0
  2 33  1  0  0  0  0
  3  4  1  0  0  0  0
  3  6  1  0  0  0  0
  3 34  1  0  0  0  0
  4  5  1  0  0  0  0
  4 35  1  0  0  0  0
  4 36  1  0  0  0  0
  5 37  1  0  0  0  0
  5 38  1  0  0  0  0
  5 39  1  0  0  0  0
  6  7  1  0  0  0  0
  6 40  1  0  0  0  0
  6 41  1  0  0  0  0
  7  8  1  0  0  0  0
  7 12  1  0  0  0  0
  8  9  1  0  0  0  0
  8 42  1  0  0  0  0
  8 43  1  0  0  0  0
  9 10  1  0  0  0  0
  9 44  1  0  0  0  0
  9 45  1  0  0  0  0
 10 11  3  0  0  0  0
 12 17  1  0  0  0  0
 12 13  2  0  0  0  0
 13 14  1  0  0  0  0
 14 15  2  0  0  0  0
 14 46  1  0  0  0  0
 15 16  1  0  0  0  0
 16 20  1  0  0  0  0
 16 17  2  0  0  0  0
 17 18  1  0  0  0  0
 18 19  2  0  0  0  0
 19 20  1  0  0  0  0
 19 47  1  0  0  0  0
 20 21  1  0  0  0  0
 21 22  1  0  0  0  0
 21 48  1  0  0  0  0
 21 49  1  0  0  0  0
 22 23  1  0  0  0  0
 22 24  1  0  0  0  0
 22 50  1  0  0  0  0
 23 51  1  0  0  0  0
 24 28  1  0  0  0  0
 24 25  1  0  0  0  0
 24 52  1  0  0  0  0
 25 26  1  0  0  0  0
 25 53  1  0  0  0  0
 25 54  1  0  0  0  0
 26 27  1  0  0  0  0
 26 55  1  0  0  0  0
 26 56  1  0  0  0  0
 27 28  1  0  0  0  0
 27 57  1  0  0  0  0
 27 58  1  0  0  0  0
M  END
> <s_m_source_file>
AV-unprocessed.smi

> <i_m_source_file_index>
87

> <i_lp_mmshare_version>
43012

> <i_f3d_flags>
0

> <s_epik_input>
W0NIM11bQ0gyXVtDSF0oW0NIMl1bQ0gzXSlbQ0gyXU4oW0NIMl1bQ0gyXUMjTiljKG5bY0hdbjEpYyhjMTIpbltjSF1uMltDSDJdW0NASF0oW09IXSlbQ0BASF0zW0NIMl1bQ0gyXVtDSDJdTzM=

> <s_epik_cmdline>
J2VwaWtfcHl0aG9uJywgJy1waCcsICc3LjAnLCAnLXRuJywgJzgnLCAnLW1hJywgJzIwMCcsICctbWV0YWxfYmluZGluZycsICctaW1hZScsICc8aW5maWxlLm1hZT4nLCAnLW9tYWUnLCAnPG91dGZpbGUubWFlPic=

> <r_lp_tautomer_probability>
1

> <r_epik_Ionization_Penalty>
0.000348566

> <r_epik_Ionization_Penalty_Charging>
0

> <r_epik_Ionization_Penalty_Neutral>
0.000348566

> <r_epik_State_Penalty>
-0

> <r_epik_Charging_Adjusted_Penalty>
0

> <i_epik_Tot_Q>
0

> <i_epik_Tot_abs_Q>
0

> <r_epik_Metal_State_Penalty>
-0

> <b_epik_Metal_Only>
0

> <s_lp_Force_Field>
OPLS_2005

> <r_lp_Energy>
36.8585

> <b_lp_Chiralities_Consistent>
1

> <s_lp_Variant>
AV-unprocessed.smi:87-3

> <Gold.Version>
5.8.1

> <Gold.Id.Protein>
6NUR|6NUR_protein|mol2

> <Gold.PLP.Fitness>
54.8593

> <Gold.PLP.PLP>
-53.3565

> <Gold.PLP.part.hbond>
-2.2154

> <Gold.PLP.part.metal>
0.0000

> <Gold.PLP.part.buried>
-5.5356

> <Gold.PLP.part.nonpolar>
-45.2290

> <Gold.PLP.part.repulsive>
0.0780

> <Gold.PLP.ligand.clash>
0.0000

> <Gold.PLP.ligand.torsion>
2.9221

> <Gold.PLP.Chemscore.Hbond>
2.0000

> <Gold.PLP.Chemscore.CHOScore>
0.0000

> <Gold.PLP.Chemscore.Metal>
0.0000

> <Gold.Chemscore.Hbonds>
donor molecule, donor type, donor heavy atom, donor atom, acceptor molecule, acceptor atom, score
      P1  H  6896  6908       L1    15  0.88
      P1  H  7997  8008       L1    18  0.96

> <Gold.PLP.Chemscore.Internal.Correction>
1.3470

> <Gold.Rescore>
     Score         DG    S(hbond)    S(metal)    S(lipo)     H(rot)  DE(clash)    DE(int)     intcor
     11.28     -14.28       1.42        0.00     108.34       3.37       0.03       2.97       ----

> <Gold.Chemscore.Fitness>
11.2790

> <Gold.Chemscore.DG>
-14.2765

> <Gold.Chemscore.ZeroCoef>
-5.4800

> <Gold.Chemscore.Hbond>
1.4194

> <Gold.Chemscore.Metal>
0.0000

> <Gold.Chemscore.Lipo>
108.3396

> <Gold.Chemscore.Internal_Hbond>
0.0000

> <Gold.Chemscore.DEClash>
0.0306

> <Gold.Chemscore.DEInternal>
2.9669

> <Gold.Chemscore.Rot>
3.3672

> <Gold.Chemscore.Internal.Correction>
   9.000000E+99

> <Gold.Chemscore.Hbonds>
donor molecule, donor type, donor heavy atom, donor atom, acceptor molecule, acceptor atom, score
      P1  H  6896  6908       L1    15  0.58
      P1  H  7997  8008       L1    18  0.49

> <Gold.Chemscore.Hbond.Weighted>
-4.7409

> <Gold.Chemscore.Metal.Weighted>
-0.0000

> <Gold.Chemscore.Lipo.Weighted>
-12.6757

> <Gold.Chemscore.Internal_Hbond.Weighted>
0.0000

> <Gold.Chemscore.DEClash.Weighted>
0.0306

> <Gold.Chemscore.DEInternal.Weighted>
2.9669

> <Gold.Chemscore.Rot.Weighted>
8.6201

> <Gold.Chemscore.Internal.Correction.Weighted>
   9.000000E+99

> <Gold.Protein.RotatedTorsions>
[ 6907 6896 6895 6894 ] final -116.96 input  -60.11 | X-H torsion
[ 7974 7965 7964 7962 ] final  148.99 input  175.53 | X-H torsion
[ 8008 7997 7996 7995 ] final  -97.74 input   59.86 | X-H torsion
[ 10167 10162 10161 10158 ] final  132.41 input  -65.29 | X-H torsion
[ 10718 10713 10712 10709 ] final   79.36 input   66.30 | X-H torsion
[ 10763 10752 10751 10750 ] final -130.49 input  -60.55 | X-H torsion
[ 11005 11000 10999 10996 ] final  -98.66 input  -57.11 | X-H torsion

> <Gold.Protein.ActiveResidues>
 VAL166  LYS551  ARG553  GLY616  TRP617  ASP618  TYR619  PRO620  LYS621  CYS622 
 ASP623  PHE694  ASN695  SER759  ASP760  ASP761  ALA762  ILE779  LEU786  VAL792 
 PHE793  MET794  SER795  GLU796  ALA797  LYS798  CYS799  TRP800  GLU811  SER814 

> <Gold.Protein.RotatedAtoms>
  150.8098  133.8444  159.3187 H   0  0  0  0  0  0  0  0  0  0  0  0  # atno 6907 bound_to 6896
  151.6233  135.1028  160.0115 H   0  0  0  0  0  0  0  0  0  0  0  0  # atno 6908 bound_to 6896
  152.4189  133.7044  159.6499 H   0  0  0  0  0  0  0  0  0  0  0  0  # atno 6909 bound_to 6896
  144.8472  139.6223  143.5990 H   0  0  0  0  0  0  0  0  0  0  0  0  # atno 7974 bound_to 7965
  154.7918  140.0460  157.1206 H   0  0  0  0  0  0  0  0  0  0  0  0  # atno 8008 bound_to 7997
  154.9582  140.3074  155.5023 H   0  0  0  0  0  0  0  0  0  0  0  0  # atno 8009 bound_to 7997
  156.2951  140.2275  156.4665 H   0  0  0  0  0  0  0  0  0  0  0  0  # atno 8010 bound_to 7997
  139.5341  144.6663  151.4848 H   0  0  0  0  0  0  0  0  0  0  0  0  # atno 10167 bound_to 10162
  157.6774  130.9910  150.1921 H   0  0  0  0  0  0  0  0  0  0  0  0  # atno 10718 bound_to 10713
  154.8755  135.3861  154.4092 H   0  0  0  0  0  0  0  0  0  0  0  0  # atno 10763 bound_to 10752
  153.4808  135.7030  153.5944 H   0  0  0  0  0  0  0  0  0  0  0  0  # atno 10764 bound_to 10752
  153.4361  135.3867  155.2167 H   0  0  0  0  0  0  0  0  0  0  0  0  # atno 10765 bound_to 10752
  141.1337  133.8262  157.0868 H   0  0  0  0  0  0  0  0  0  0  0  0  # atno 11005 bound_to 11000
  146.2754  139.6739  142.9267 LP  0  0  0  0  0  0  0  0  0  0  0  0  # atno 17320 bound_to 7965
  145.4573  141.0431  143.2771 LP  0  0  0  0  0  0  0  0  0  0  0  0  # atno 17321 bound_to 7965
  140.6537  143.8644  150.6812 LP  0  0  0  0  0  0  0  0  0  0  0  0  # atno 17342 bound_to 10162
  140.2017  143.3954  152.1786 LP  0  0  0  0  0  0  0  0  0  0  0  0  # atno 17343 bound_to 10162
  156.2630  130.3713  149.8111 LP  0  0  0  0  0  0  0  0  0  0  0  0  # atno 17370 bound_to 10713
  156.5850  130.8482  151.3393 LP  0  0  0  0  0  0  0  0  0  0  0  0  # atno 17371 bound_to 10713
  140.0417  134.9851  157.0973 LP  0  0  0  0  0  0  0  0  0  0  0  0  # atno 17394 bound_to 11000
  140.4125  134.1966  155.7163 LP  0  0  0  0  0  0  0  0  0  0  0  0  # atno 17395 bound_to 11000

$$$$
