AV-unprocessed.smi:3056|AV-procd|sdf|11660|dock4
  -GOLD-   2272017 63D 1   1.00000     0.00000
 Structure written by MMmdl.
 47 48  0  0  0  0  0  0  0  0  1 V2000
  153.1917  142.3464  161.7389 C   0  0  0  0  0  0  0  0  0  0  0  0
  153.0397  141.5997  160.4455 C   0  0  0  0  0  0  0  0  0  0  0  0
  154.0244  140.8354  159.7591 C   0  0  0  0  0  0  0  0  0  0  0  0
  153.5646  140.2847  158.6483 N   0  0  0  0  0  0  0  0  0  0  0  0
  152.2754  140.6881  158.5733 N   0  0  0  0  0  0  0  0  0  0  0  0
  151.4056  140.2282  157.4941 C   0  0  1  0  0  0  0  0  0  0  0  0
  150.4819  139.0723  157.9371 C   0  0  0  0  0  0  0  0  0  0  0  0
  150.6711  141.4198  156.8247 C   0  0  1  0  0  0  0  0  0  0  0  0
  151.4521  142.7426  156.9322 C   0  0  0  0  0  0  0  0  0  0  0  0
  150.3924  141.1191  155.4186 N   0  0  0  0  0  0  0  0  0  0  0  0
  149.1208  141.6675  154.9131 C   0  0  0  0  0  0  0  0  0  0  0  0
  147.8550  140.9350  155.4042 C   0  0  0  0  0  0  0  0  0  0  0  0
  147.9578  140.1080  156.3121 O   0  0  0  0  0  0  0  0  0  0  0  0
  146.6641  141.2147  154.8229 N   0  0  0  0  0  0  0  0  0  0  0  0
  145.3898  140.6781  155.3056 C   0  0  0  0  0  0  0  0  0  0  0  0
  144.5580  141.8544  155.8488 C   0  0  0  0  0  0  0  0  0  0  0  0
  144.3808  142.8357  154.8277 O   0  0  0  0  0  0  0  0  0  0  0  0
  145.6079  143.3436  154.3029 C   0  0  2  0  0  0  0  0  0  0  0  0
  145.2766  144.3896  153.2332 C   0  0  0  0  0  0  0  0  0  0  0  0
  146.4312  142.1699  153.7368 C   0  0  0  0  0  0  0  0  0  0  0  0
  151.9333  141.4740  159.6544 C   0  0  0  0  0  0  0  0  0  0  0  0
  154.1518  142.8590  161.7975 H   0  0  0  0  0  0  0  0  0  0  0  0
  153.1312  141.6763  162.5965 H   0  0  0  0  0  0  0  0  0  0  0  0
  152.4162  143.1020  161.8652 H   0  0  0  0  0  0  0  0  0  0  0  0
  155.0524  140.6583  160.0383 H   0  0  0  0  0  0  0  0  0  0  0  0
  152.0735  139.8074  156.7411 H   0  0  0  0  0  0  0  0  0  0  0  0
  149.9586  138.6331  157.0885 H   0  0  0  0  0  0  0  0  0  0  0  0
  149.7298  139.4003  158.6550 H   0  0  0  0  0  0  0  0  0  0  0  0
  151.0580  138.2735  158.4048 H   0  0  0  0  0  0  0  0  0  0  0  0
  149.7356  141.5521  157.3694 H   0  0  0  0  0  0  0  0  0  0  0  0
  151.7282  142.9478  157.9666 H   0  0  0  0  0  0  0  0  0  0  0  0
  150.8594  143.5888  156.5859 H   0  0  0  0  0  0  0  0  0  0  0  0
  152.3682  142.7219  156.3418 H   0  0  0  0  0  0  0  0  0  0  0  0
  150.4336  140.1187  155.2781 H   0  0  0  0  0  0  0  0  0  0  0  0
  149.0687  142.7236  155.1755 H   0  0  0  0  0  0  0  0  0  0  0  0
  149.1359  141.6128  153.8245 H   0  0  0  0  0  0  0  0  0  0  0  0
  144.8634  140.1887  154.4850 H   0  0  0  0  0  0  0  0  0  0  0  0
  145.5109  139.9216  156.0818 H   0  0  0  0  0  0  0  0  0  0  0  0
  143.5790  141.5056  156.1772 H   0  0  0  0  0  0  0  0  0  0  0  0
  145.0446  142.3049  156.7153 H   0  0  0  0  0  0  0  0  0  0  0  0
  146.1651  143.8299  155.1059 H   0  0  0  0  0  0  0  0  0  0  0  0
  146.1851  144.8121  152.8036 H   0  0  0  0  0  0  0  0  0  0  0  0
  144.6971  145.2101  153.6567 H   0  0  0  0  0  0  0  0  0  0  0  0
  144.6935  143.9535  152.4217 H   0  0  0  0  0  0  0  0  0  0  0  0
  147.3445  142.5330  153.2687 H   0  0  0  0  0  0  0  0  0  0  0  0
  145.8762  141.6744  152.9387 H   0  0  0  0  0  0  0  0  0  0  0  0
  150.9351  141.8685  159.7749 H   0  0  0  0  0  0  0  0  0  0  0  0
  1  2  1  0  0  0  0
  1 22  1  0  0  0  0
  1 23  1  0  0  0  0
  1 24  1  0  0  0  0
  2 21  2  0  0  0  0
  2  3  1  0  0  0  0
  3  4  2  0  0  0  0
  3 25  1  0  0  0  0
  4  5  1  0  0  0  0
  5  6  1  0  0  0  0
  5 21  1  0  0  0  0
  6  7  1  0  0  0  0
  6  8  1  0  0  0  0
  6 26  1  0  0  0  0
  7 27  1  0  0  0  0
  7 28  1  0  0  0  0
  7 29  1  0  0  0  0
  8  9  1  0  0  0  0
  8 10  1  0  0  0  0
  8 30  1  0  0  0  0
  9 31  1  0  0  0  0
  9 32  1  0  0  0  0
  9 33  1  0  0  0  0
 10 11  1  0  0  0  0
 10 34  1  0  0  0  0
 11 12  1  0  0  0  0
 11 35  1  0  0  0  0
 11 36  1  0  0  0  0
 12 13  2  0  0  0  0
 12 14  1  0  0  0  0
 14 20  1  0  0  0  0
 14 15  1  0  0  0  0
 15 16  1  0  0  0  0
 15 37  1  0  0  0  0
 15 38  1  0  0  0  0
 16 17  1  0  0  0  0
 16 39  1  0  0  0  0
 16 40  1  0  0  0  0
 17 18  1  0  0  0  0
 18 19  1  0  0  0  0
 18 20  1  0  0  0  0
 18 41  1  0  0  0  0
 19 42  1  0  0  0  0
 19 43  1  0  0  0  0
 19 44  1  0  0  0  0
 20 45  1  0  0  0  0
 20 46  1  0  0  0  0
 21 47  1  0  0  0  0
M  END
> <s_m_source_file>
AV-unprocessed.smi

> <i_m_source_file_index>
3056

> <i_lp_mmshare_version>
43012

> <i_f3d_flags>
0

> <s_epik_input>
W0NIM11jMVtjSF1ubihbY0hdMSlbQ0BIXShbQ0gzXSlbQ0BIXShbQ0gzXSlbTkhdW0NIMl1DKD1PKU4yW0NIMl1bQ0gyXU9bQ0BASF0oW0NIM10pW0NIMl0y

> <s_epik_cmdline>
J2VwaWtfcHl0aG9uJywgJy1waCcsICc3LjAnLCAnLXRuJywgJzgnLCAnLW1hJywgJzIwMCcsICctbWV0YWxfYmluZGluZycsICctaW1hZScsICc8aW5maWxlLm1hZT4nLCAnLW9tYWUnLCAnPG91dGZpbGUubWFlPic=

> <r_lp_tautomer_probability>
1

> <r_epik_Ionization_Penalty>
0.667689

> <r_epik_Ionization_Penalty_Charging>
0

> <r_epik_Ionization_Penalty_Neutral>
0.667689

> <r_epik_State_Penalty>
0.684601

> <r_epik_Charging_Adjusted_Penalty>
0.684601

> <i_epik_Tot_Q>
0

> <i_epik_Tot_abs_Q>
0

> <r_epik_Metal_State_Penalty>
0.681448

> <b_epik_Metal_Only>
0

> <s_lp_Force_Field>
OPLS_2005

> <r_lp_Energy>
31.287

> <b_lp_Chiralities_Consistent>
1

> <s_lp_Variant>
AV-unprocessed.smi:3056-16

> <Gold.Version>
5.8.1

> <Gold.Id.Protein>
6NUR|6NUR_protein|mol2

> <Gold.PLP.Fitness>
37.7136

> <Gold.PLP.PLP>
-38.0191

> <Gold.PLP.part.hbond>
-1.8651

> <Gold.PLP.part.metal>
0.0000

> <Gold.PLP.part.buried>
-3.9998

> <Gold.PLP.part.nonpolar>
-32.1830

> <Gold.PLP.part.repulsive>
0.1985

> <Gold.PLP.ligand.clash>
0.0000

> <Gold.PLP.ligand.torsion>
1.5289

> <Gold.PLP.Chemscore.Hbond>
0.8480

> <Gold.PLP.Chemscore.CHOScore>
0.0000

> <Gold.PLP.Chemscore.Metal>
0.0000

> <Gold.Chemscore.Hbonds>
donor molecule, donor type, donor heavy atom, donor atom, acceptor molecule, acceptor atom, score
      P1  H  7997  8010       L1     4  0.83

> <Gold.PLP.Chemscore.Internal.Correction>
0.2083

> <Gold.Rescore>
     Score         DG    S(hbond)    S(metal)    S(lipo)     H(rot)  DE(clash)    DE(int)     intcor
     12.93     -15.07       0.84        0.00      94.74       1.68       0.79       1.35       ----

> <Gold.Chemscore.Fitness>
12.9345

> <Gold.Chemscore.DG>
-15.0744

> <Gold.Chemscore.ZeroCoef>
-5.4800

> <Gold.Chemscore.Hbond>
0.8410

> <Gold.Chemscore.Metal>
0.0000

> <Gold.Chemscore.Lipo>
94.7397

> <Gold.Chemscore.Internal_Hbond>
0.0000

> <Gold.Chemscore.DEClash>
0.7901

> <Gold.Chemscore.DEInternal>
1.3498

> <Gold.Chemscore.Rot>
1.6793

> <Gold.Chemscore.Internal.Correction>
   9.000000E+99

> <Gold.Chemscore.Hbonds>
donor molecule, donor type, donor heavy atom, donor atom, acceptor molecule, acceptor atom, score
      P1  H  7997  8010       L1     4  0.73

> <Gold.Chemscore.Hbond.Weighted>
-2.8089

> <Gold.Chemscore.Metal.Weighted>
-0.0000

> <Gold.Chemscore.Lipo.Weighted>
-11.0845

> <Gold.Chemscore.Internal_Hbond.Weighted>
0.0000

> <Gold.Chemscore.DEClash.Weighted>
0.7901

> <Gold.Chemscore.DEInternal.Weighted>
1.3498

> <Gold.Chemscore.Rot.Weighted>
4.2990

> <Gold.Chemscore.Internal.Correction.Weighted>
   9.000000E+99

> <Gold.Protein.RotatedTorsions>
[ 6907 6896 6895 6894 ] final   30.90 input  -60.11 | X-H torsion
[ 7974 7965 7964 7962 ] final  -83.42 input  175.53 | X-H torsion
[ 8008 7997 7996 7995 ] final   13.81 input   59.86 | X-H torsion
[ 10167 10162 10161 10158 ] final  124.49 input  -65.29 | X-H torsion
[ 10718 10713 10712 10709 ] final  -95.51 input   66.30 | X-H torsion
[ 10763 10752 10751 10750 ] final  -99.95 input  -60.55 | X-H torsion
[ 11005 11000 10999 10996 ] final   66.62 input  -57.11 | X-H torsion

> <Gold.Protein.ActiveResidues>
 VAL166  LYS551  ARG553  GLY616  TRP617  ASP618  TYR619  PRO620  LYS621  CYS622 
 ASP623  PHE694  ASN695  SER759  ASP760  ASP761  ALA762  ILE779  LEU786  VAL792 
 PHE793  MET794  SER795  GLU796  ALA797  LYS798  CYS799  TRP800  GLU811  SER814 

> <Gold.Protein.RotatedAtoms>
  152.0526  134.9644  160.0574 H   0  0  0  0  0  0  0  0  0  0  0  0  # atno 6907 bound_to 6896
  152.1039  133.4260  159.4608 H   0  0  0  0  0  0  0  0  0  0  0  0  # atno 6908 bound_to 6896
  150.6840  134.2647  159.4607 H   0  0  0  0  0  0  0  0  0  0  0  0  # atno 6909 bound_to 6896
  145.5202  140.9532  143.1659 H   0  0  0  0  0  0  0  0  0  0  0  0  # atno 7974 bound_to 7965
  154.8396  140.2912  155.5668 H   0  0  0  0  0  0  0  0  0  0  0  0  # atno 8008 bound_to 7997
  156.3011  140.2516  156.3268 H   0  0  0  0  0  0  0  0  0  0  0  0  # atno 8009 bound_to 7997
  154.9140  140.0388  157.1951 H   0  0  0  0  0  0  0  0  0  0  0  0  # atno 8010 bound_to 7997
  139.5739  144.6953  151.3706 H   0  0  0  0  0  0  0  0  0  0  0  0  # atno 10167 bound_to 10162
  156.0045  130.5112  150.6088 H   0  0  0  0  0  0  0  0  0  0  0  0  # atno 10718 bound_to 10713
  154.7540  135.4953  153.9340 H   0  0  0  0  0  0  0  0  0  0  0  0  # atno 10763 bound_to 10752
  153.1175  135.6724  153.9401 H   0  0  0  0  0  0  0  0  0  0  0  0  # atno 10764 bound_to 10752
  153.9143  135.3095  155.3427 H   0  0  0  0  0  0  0  0  0  0  0  0  # atno 10765 bound_to 10752
  139.9821  134.6728  156.0244 H   0  0  0  0  0  0  0  0  0  0  0  0  # atno 11005 bound_to 11000
  144.7680  139.6801  143.7207 LP  0  0  0  0  0  0  0  0  0  0  0  0  # atno 17320 bound_to 7965
  146.2110  139.5467  142.9681 LP  0  0  0  0  0  0  0  0  0  0  0  0  # atno 17321 bound_to 7965
  140.7022  143.7603  150.7422 LP  0  0  0  0  0  0  0  0  0  0  0  0  # atno 17342 bound_to 10162
  140.1117  143.4693  152.2366 LP  0  0  0  0  0  0  0  0  0  0  0  0  # atno 17343 bound_to 10162
  157.3924  131.0797  151.1382 LP  0  0  0  0  0  0  0  0  0  0  0  0  # atno 17370 bound_to 10713
  157.2070  130.6420  149.5759 LP  0  0  0  0  0  0  0  0  0  0  0  0  # atno 17371 bound_to 10713
  141.1491  133.6551  156.3958 LP  0  0  0  0  0  0  0  0  0  0  0  0  # atno 17394 bound_to 11000
  140.5076  134.6426  157.5272 LP  0  0  0  0  0  0  0  0  0  0  0  0  # atno 17395 bound_to 11000

$$$$
