AV-unprocessed.smi:102|AV-procd|sdf|974|dock1
  -GOLD-   2262017523D 1   1.00000     0.00000
 Structure written by MMmdl.
 43 44  0  0  0  0  0  0  0  0  2 V2000
  148.2331  141.3163  154.1105 C   0  0  0  0  0  0  0  0  0  0  0  0
  149.5723  140.8228  154.6445 C   0  0  0  0  0  0  0  0  0  0  0  0
  150.1701  139.8883  154.1108 O   0  0  0  0  0  0  0  0  0  0  0  0
  149.9828  141.5103  155.7198 O   0  0  0  0  0  0  0  0  0  0  0  0
  151.2167  141.1818  156.3390 C   0  0  0  0  0  0  0  0  0  0  0  0
  151.0191  140.9153  157.8395 C   0  0  1  0  0  0  0  0  0  0  0  0
  150.1995  139.7597  158.0086 O   0  0  0  0  0  0  0  0  0  0  0  0
  150.8633  138.8264  158.8007 C   0  0  1  0  0  0  0  0  0  0  0  0
  150.5092  137.4414  158.3001 N   0  0  0  0  0  0  0  0  0  0  0  0
  150.7560  137.0947  156.9816 C   0  0  0  0  0  0  0  0  0  0  0  0
  150.3814  135.8990  156.4841 C   0  0  0  0  0  0  0  0  0  0  0  0
  150.6373  135.5989  155.1990 F   0  0  0  0  0  0  0  0  0  0  0  0
  149.6806  134.9482  157.3429 C   0  0  0  0  0  0  0  0  0  0  0  0
  149.3680  133.8461  156.8949 O   0  0  0  0  0  0  0  0  0  0  0  0
  149.3949  135.3361  158.6189 N   0  5  0  0  0  0  0  0  0  0  0  0
  149.7572  136.5533  159.1213 C   0  0  0  0  0  0  0  0  0  0  0  0
  149.4642  136.9125  160.2613 O   0  0  0  0  0  0  0  0  0  0  0  0
  152.3587  139.1434  158.7372 C   0  0  2  0  0  0  0  0  0  0  0  0
  153.0329  138.6722  159.8975 O   0  0  0  0  0  0  0  0  0  0  0  0
  153.2285  137.3550  160.0720 C   0  0  0  0  0  0  0  0  0  0  0  0
  153.8536  137.0353  161.4231 C   0  0  0  0  0  0  0  0  0  0  0  0
  152.9591  136.4682  159.2615 O   0  0  0  0  0  0  0  0  0  0  0  0
  152.3273  140.6613  158.6117 C   0  0  2  0  0  0  0  0  0  0  0  0
  152.2526  141.2692  159.8990 O   0  0  0  0  0  0  0  0  0  0  0  0
  152.3966  142.5989  160.0327 C   0  0  0  0  0  0  0  0  0  0  0  0
  152.5163  143.0247  161.4897 C   0  0  0  0  0  0  0  0  0  0  0  0
  152.4277  143.4213  159.1171 O   0  0  0  0  0  0  0  0  0  0  0  0
  147.9695  142.2810  154.5447 H   0  0  0  0  0  0  0  0  0  0  0  0
  147.4460  140.6025  154.3531 H   0  0  0  0  0  0  0  0  0  0  0  0
  148.2766  141.4285  153.0271 H   0  0  0  0  0  0  0  0  0  0  0  0
  151.6299  140.2939  155.8587 H   0  0  0  0  0  0  0  0  0  0  0  0
  151.9346  141.9911  156.1981 H   0  0  0  0  0  0  0  0  0  0  0  0
  150.4860  141.7679  158.2614 H   0  0  0  0  0  0  0  0  0  0  0  0
  150.5011  138.9246  159.8240 H   0  0  0  0  0  0  0  0  0  0  0  0
  151.2410  137.7910  156.3174 H   0  0  0  0  0  0  0  0  0  0  0  0
  152.7911  138.7199  157.8331 H   0  0  0  0  0  0  0  0  0  0  0  0
  153.3471  137.5855  162.2165 H   0  0  0  0  0  0  0  0  0  0  0  0
  154.9072  137.3140  161.4253 H   0  0  0  0  0  0  0  0  0  0  0  0
  153.7765  135.9694  161.6386 H   0  0  0  0  0  0  0  0  0  0  0  0
  153.2066  141.0189  158.0733 H   0  0  0  0  0  0  0  0  0  0  0  0
  153.2793  142.4330  161.9963 H   0  0  0  0  0  0  0  0  0  0  0  0
  151.5662  142.8797  162.0042 H   0  0  0  0  0  0  0  0  0  0  0  0
  152.7916  144.0770  161.5609 H   0  0  0  0  0  0  0  0  0  0  0  0
  1  2  1  0  0  0  0
  1 28  1  0  0  0  0
  1 29  1  0  0  0  0
  1 30  1  0  0  0  0
  2  3  2  0  0  0  0
  2  4  1  0  0  0  0
  4  5  1  0  0  0  0
  5  6  1  0  0  0  0
  5 31  1  0  0  0  0
  5 32  1  0  0  0  0
  6 23  1  0  0  0  0
  6  7  1  0  0  0  0
  6 33  1  0  0  0  0
  7  8  1  0  0  0  0
  8  9  1  0  0  0  0
  8 18  1  0  0  0  0
  8 34  1  0  0  0  0
  9 16  1  0  0  0  0
  9 10  1  0  0  0  0
 10 11  2  0  0  0  0
 10 35  1  0  0  0  0
 11 12  1  0  0  0  0
 11 13  1  0  0  0  0
 13 14  2  0  0  0  0
 13 15  1  0  0  0  0
 15 16  1  0  0  0  0
 16 17  2  0  0  0  0
 18 19  1  0  0  0  0
 18 23  1  0  0  0  0
 18 36  1  0  0  0  0
 19 20  1  0  0  0  0
 20 21  1  0  0  0  0
 20 22  2  0  0  0  0
 21 37  1  0  0  0  0
 21 38  1  0  0  0  0
 21 39  1  0  0  0  0
 23 24  1  0  0  0  0
 23 40  1  0  0  0  0
 24 25  1  0  0  0  0
 25 26  1  0  0  0  0
 25 27  2  0  0  0  0
 26 41  1  0  0  0  0
 26 42  1  0  0  0  0
 26 43  1  0  0  0  0
M  CHG  1  15  -1
M  END
> <s_m_source_file>
AV-unprocessed.smi

> <i_m_source_file_index>
102

> <i_lp_mmshare_version>
43012

> <i_f3d_flags>
0

> <s_epik_input>
W0NIM11DKD1PKU9bQ0gyXVtDQEBIXTFPW0NASF0oW0NAQEhdKE9DKD1PKVtDSDNdKVtDQEhdMU9DKD1PKVtDSDNdKW4yW2NIXWMoRiljKD1PKVtuSF1jMj1P

> <s_epik_cmdline>
J2VwaWtfcHl0aG9uJywgJy1waCcsICc3LjAnLCAnLXRuJywgJzgnLCAnLW1hJywgJzIwMCcsICctbWV0YWxfYmluZGluZycsICctaW1hZScsICc8aW5maWxlLm1hZT4nLCAnLW9tYWUnLCAnPG91dGZpbGUubWFlPic=

> <r_epik_Ionization_Penalty>
1.40304

> <r_epik_Ionization_Penalty_Charging>
1.43915e-08

> <r_epik_Ionization_Penalty_Neutral>
1.40304

> <r_epik_State_Penalty>
1.48536

> <r_epik_Charging_Adjusted_Penalty>
1.48536

> <i_epik_Tot_Q>
-1

> <i_epik_Tot_abs_Q>
1

> <r_epik_Metal_State_Penalty>
0.00663881

> <b_epik_Metal_Only>
0

> <s_epik_Chemistry_Notes>
This compound has an ester and may undergo hydrolysis at high or low pH. This compound contains an acetal/aminal-like group ( X-CH(R)-Y where X, Y are N, S, or O) that may be acid/base labile, releasing an aldehyde.

> <s_lp_Force_Field>
OPLS_2005

> <r_lp_Energy>
27.5776

> <b_lp_Chiralities_Consistent>
1

> <s_lp_Variant>
AV-unprocessed.smi:102-30

> <Gold.Version>
5.8.1

> <Gold.Id.Protein>
6NUR|6NUR_protein|mol2

> <Gold.PLP.Fitness>
51.6797

> <Gold.PLP.PLP>
-40.2554

> <Gold.PLP.part.hbond>
-4.0000

> <Gold.PLP.part.metal>
0.0000

> <Gold.PLP.part.buried>
-8.0555

> <Gold.PLP.part.nonpolar>
-29.9651

> <Gold.PLP.part.repulsive>
1.1229

> <Gold.PLP.ligand.clash>
0.0000

> <Gold.PLP.ligand.torsion>
0.6639

> <Gold.PLP.Chemscore.Hbond>
4.1582

> <Gold.PLP.Chemscore.CHOScore>
0.0000

> <Gold.PLP.Chemscore.Metal>
0.0000

> <Gold.Chemscore.Hbonds>
donor molecule, donor type, donor heavy atom, donor atom, acceptor molecule, acceptor atom, score
      P1  H  6896  6907       L1    15  1.53
      P1  H  6896  6908       L1    22  1.00
      P1  H  6931  6943       L1    17  0.38
      P1  H  7989  7998       L1     3  0.85

> <Gold.PLP.Chemscore.Internal.Correction>
0.2775

> <Gold.Rescore>
     Score         DG    S(hbond)    S(metal)    S(lipo)     H(rot)  DE(clash)    DE(int)     intcor
      7.96     -10.12       2.48        0.00      56.21       4.00       0.00       2.16       ----

> <Gold.Chemscore.Fitness>
7.9633

> <Gold.Chemscore.DG>
-10.1225

> <Gold.Chemscore.ZeroCoef>
-5.4800

> <Gold.Chemscore.Hbond>
2.4831

> <Gold.Chemscore.Metal>
0.0000

> <Gold.Chemscore.Lipo>
56.2085

> <Gold.Chemscore.Internal_Hbond>
0.0000

> <Gold.Chemscore.DEClash>
0.0015

> <Gold.Chemscore.DEInternal>
2.1577

> <Gold.Chemscore.Rot>
3.9951

> <Gold.Chemscore.Internal.Correction>
   9.000000E+99

> <Gold.Chemscore.Hbonds>
donor molecule, donor type, donor heavy atom, donor atom, acceptor molecule, acceptor atom, score
      P1  H  6896  6907       L1    15  0.03
      P1  H  6896  6908       L1    22  0.81
      P1  H  6931  6943       L1    17  0.38
      P1  H  7989  7998       L1     3  0.14

> <Gold.Chemscore.Hbond.Weighted>
-8.2935

> <Gold.Chemscore.Metal.Weighted>
-0.0000

> <Gold.Chemscore.Lipo.Weighted>
-6.5764

> <Gold.Chemscore.Internal_Hbond.Weighted>
0.0000

> <Gold.Chemscore.DEClash.Weighted>
0.0015

> <Gold.Chemscore.DEInternal.Weighted>
2.1577

> <Gold.Chemscore.Rot.Weighted>
10.2274

> <Gold.Chemscore.Internal.Correction.Weighted>
   9.000000E+99

> <Gold.Protein.RotatedTorsions>
[ 6907 6896 6895 6894 ] final  -85.99 input  -60.11 | X-H torsion
[ 7974 7965 7964 7962 ] final  148.81 input  175.53 | X-H torsion
[ 8008 7997 7996 7995 ] final -177.08 input   59.86 | X-H torsion
[ 10167 10162 10161 10158 ] final   80.71 input  -65.29 | X-H torsion
[ 10718 10713 10712 10709 ] final   56.62 input   66.30 | X-H torsion
[ 10763 10752 10751 10750 ] final -150.17 input  -60.55 | X-H torsion
[ 11005 11000 10999 10996 ] final   52.16 input  -57.11 | X-H torsion

> <Gold.Protein.ActiveResidues>
 VAL166  LYS551  ARG553  GLY616  TRP617  ASP618  TYR619  PRO620  LYS621  CYS622 
 ASP623  PHE694  ASN695  SER759  ASP760  ASP761  ALA762  ILE779  LEU786  VAL792 
 PHE793  MET794  SER795  GLU796  ALA797  LYS798  CYS799  TRP800  GLU811  SER814 

> <Gold.Protein.RotatedAtoms>
  150.6868  134.3119  159.4749 H   0  0  0  0  0  0  0  0  0  0  0  0  # atno 6907 bound_to 6896
  152.1004  134.9343  160.0579 H   0  0  0  0  0  0  0  0  0  0  0  0  # atno 6908 bound_to 6896
  152.0624  133.4033  159.4460 H   0  0  0  0  0  0  0  0  0  0  0  0  # atno 6909 bound_to 6896
  144.8485  139.6201  143.5984 H   0  0  0  0  0  0  0  0  0  0  0  0  # atno 7974 bound_to 7965
  156.0026  140.1224  157.0532 H   0  0  0  0  0  0  0  0  0  0  0  0  # atno 8008 bound_to 7997
  154.4248  140.1103  156.5787 H   0  0  0  0  0  0  0  0  0  0  0  0  # atno 8009 bound_to 7997
  155.6191  140.3472  155.4648 H   0  0  0  0  0  0  0  0  0  0  0  0  # atno 8010 bound_to 7997
  139.9469  144.6052  150.8198 H   0  0  0  0  0  0  0  0  0  0  0  0  # atno 10167 bound_to 10162
  157.5446  130.8721  149.8872 H   0  0  0  0  0  0  0  0  0  0  0  0  # atno 10718 bound_to 10713
  154.8134  135.3291  154.7242 H   0  0  0  0  0  0  0  0  0  0  0  0  # atno 10763 bound_to 10752
  153.7887  135.6913  153.4880 H   0  0  0  0  0  0  0  0  0  0  0  0  # atno 10764 bound_to 10752
  153.1931  135.4543  155.0121 H   0  0  0  0  0  0  0  0  0  0  0  0  # atno 10765 bound_to 10752
  140.0872  134.5258  155.8887 H   0  0  0  0  0  0  0  0  0  0  0  0  # atno 11005 bound_to 11000
  146.2765  139.6766  142.9259 LP  0  0  0  0  0  0  0  0  0  0  0  0  # atno 17320 bound_to 7965
  145.4547  141.0430  143.2785 LP  0  0  0  0  0  0  0  0  0  0  0  0  # atno 17321 bound_to 7965
  140.7594  143.3129  151.2802 LP  0  0  0  0  0  0  0  0  0  0  0  0  # atno 17342 bound_to 10162
  139.6660  144.0105  152.2723 LP  0  0  0  0  0  0  0  0  0  0  0  0  # atno 17343 bound_to 10162
  156.0525  130.3715  150.1168 LP  0  0  0  0  0  0  0  0  0  0  0  0  # atno 17370 bound_to 10713
  156.9346  130.9725  151.3527 LP  0  0  0  0  0  0  0  0  0  0  0  0  # atno 17371 bound_to 10713
  141.2066  133.6657  156.6255 LP  0  0  0  0  0  0  0  0  0  0  0  0  # atno 17394 bound_to 11000
  140.3403  134.7854  157.4393 LP  0  0  0  0  0  0  0  0  0  0  0  0  # atno 17395 bound_to 11000

$$$$
