AV-unprocessed.smi:2716|AV-procd|sdf|10483|dock4
  -GOLD-   2272014523D 1   1.00000     0.00000
 Structure written by MMmdl.
 19 19  0  0  0  0  0  0  0  0  1 V2000
  151.1329  137.8967  153.5273 N   0  0  0  0  0  0  0  0  0  0  0  0
  151.7204  137.9619  154.7252 C   0  0  0  0  0  0  0  0  0  0  0  0
  152.3598  137.0238  155.1972 O   0  0  0  0  0  0  0  0  0  0  0  0
  151.5383  139.2526  155.4442 C   0  0  0  0  0  0  0  0  0  0  0  0
  152.0661  139.5736  156.6633 C   0  0  0  0  0  0  0  0  0  0  0  0
  151.6099  140.8563  156.8851 N   0  0  0  0  0  0  0  0  0  0  0  0
  151.8528  141.7182  158.0279 C   0  0  0  0  0  0  0  0  0  0  0  0
  151.1787  143.0934  157.8871 C   0  0  0  0  0  0  0  0  0  0  0  0
  149.7835  142.9568  157.7109 O   0  0  0  0  0  0  0  0  0  0  0  0
  150.8499  141.2987  155.8548 N   0  0  0  0  0  0  0  0  0  0  0  0
  150.7965  140.3429  154.9810 N   0  0  0  0  0  0  0  0  0  0  0  0
  151.2072  137.0553  152.9746 H   0  0  0  0  0  0  0  0  0  0  0  0
  150.6156  138.6925  153.1824 H   0  0  0  0  0  0  0  0  0  0  0  0
  152.6896  139.0289  157.3570 H   0  0  0  0  0  0  0  0  0  0  0  0
  151.4951  141.2134  158.9263 H   0  0  0  0  0  0  0  0  0  0  0  0
  152.9303  141.8398  158.1462 H   0  0  0  0  0  0  0  0  0  0  0  0
  151.3622  143.6935  158.7784 H   0  0  0  0  0  0  0  0  0  0  0  0
  151.5931  143.6415  157.0404 H   0  0  0  0  0  0  0  0  0  0  0  0
  149.5066  143.5506  157.0298 H   0  0  0  0  0  0  0  0  0  0  0  0
  1  2  1  0  0  0  0
  1 12  1  0  0  0  0
  1 13  1  0  0  0  0
  2  3  2  0  0  0  0
  2  4  1  0  0  0  0
  4 11  1  0  0  0  0
  4  5  2  0  0  0  0
  5  6  1  0  0  0  0
  5 14  1  0  0  0  0
  6  7  1  0  0  0  0
  6 10  1  0  0  0  0
  7  8  1  0  0  0  0
  7 15  1  0  0  0  0
  7 16  1  0  0  0  0
  8  9  1  0  0  0  0
  8 17  1  0  0  0  0
  8 18  1  0  0  0  0
  9 19  1  0  0  0  0
 10 11  2  0  0  0  0
M  END
> <s_m_source_file>
AV-unprocessed.smi

> <i_m_source_file_index>
2716

> <i_lp_mmshare_version>
43012

> <i_f3d_flags>
0

> <s_epik_input>
W05IMl1DKD1PKWMxW2NIXW4obm4xKVtDSDJdW0NIMl1bT0hd

> <s_epik_cmdline>
J2VwaWtfcHl0aG9uJywgJy1waCcsICc3LjAnLCAnLXRuJywgJzgnLCAnLW1hJywgJzIwMCcsICctbWV0YWxfYmluZGluZycsICctaW1hZScsICc8aW5maWxlLm1hZT4nLCAnLW9tYWUnLCAnPG91dGZpbGUubWFlPic=

> <r_lp_tautomer_probability>
1

> <r_epik_Ionization_Penalty>
2.94119e-06

> <r_epik_Ionization_Penalty_Charging>
0

> <r_epik_Ionization_Penalty_Neutral>
2.94119e-06

> <r_epik_State_Penalty>
-0

> <r_epik_Charging_Adjusted_Penalty>
0

> <i_epik_Tot_Q>
0

> <i_epik_Tot_abs_Q>
0

> <r_epik_Metal_State_Penalty>
-0

> <b_epik_Metal_Only>
0

> <s_lp_Force_Field>
OPLS_2005

> <r_lp_Energy>
2.94202

> <b_lp_Chiralities_Consistent>
1

> <s_lp_Variant>
AV-unprocessed.smi:2716-1

> <Gold.Version>
5.8.1

> <Gold.Id.Protein>
6NUR|6NUR_protein|mol2

> <Gold.PLP.Fitness>
31.3540

> <Gold.PLP.PLP>
-19.3839

> <Gold.PLP.part.hbond>
-5.4607

> <Gold.PLP.part.metal>
0.0000

> <Gold.PLP.part.buried>
-2.8336

> <Gold.PLP.part.nonpolar>
-11.6338

> <Gold.PLP.part.repulsive>
0.2773

> <Gold.PLP.ligand.clash>
0.0000

> <Gold.PLP.ligand.torsion>
0.0031

> <Gold.PLP.Chemscore.Hbond>
3.9920

> <Gold.PLP.Chemscore.CHOScore>
0.0000

> <Gold.PLP.Chemscore.Metal>
0.0000

> <Gold.Chemscore.Hbonds>
donor molecule, donor type, donor heavy atom, donor atom, acceptor molecule, acceptor atom, score
      L1  H     1    12       P1  7949  1.00
      L1  H     9    19       P1  8028  1.00
      P1  H  7989  7998       L1    11  1.00
      P1  H 10752 10764       L1     3  0.70

> <Gold.PLP.Chemscore.Internal.Correction>
0.0003

> <Gold.Rescore>
     Score         DG    S(hbond)    S(metal)    S(lipo)     H(rot)  DE(clash)    DE(int)     intcor
     12.90     -14.43       3.34        0.00      27.98       2.14       0.02       1.51       ----

> <Gold.Chemscore.Fitness>
12.8994

> <Gold.Chemscore.DG>
-14.4267

> <Gold.Chemscore.ZeroCoef>
-5.4800

> <Gold.Chemscore.Hbond>
3.3384

> <Gold.Chemscore.Metal>
0.0000

> <Gold.Chemscore.Lipo>
27.9834

> <Gold.Chemscore.Internal_Hbond>
0.0000

> <Gold.Chemscore.DEClash>
0.0203

> <Gold.Chemscore.DEInternal>
1.5070

> <Gold.Chemscore.Rot>
2.1398

> <Gold.Chemscore.Internal.Correction>
   9.000000E+99

> <Gold.Chemscore.Hbonds>
donor molecule, donor type, donor heavy atom, donor atom, acceptor molecule, acceptor atom, score
      L1  H     1    12       P1  7949  0.60
      L1  H     9    19       P1  8028  0.93
      P1  H  7989  7998       L1    11  0.32
      P1  H 10752 10764       L1     3  0.70

> <Gold.Chemscore.Hbond.Weighted>
-11.1504

> <Gold.Chemscore.Metal.Weighted>
-0.0000

> <Gold.Chemscore.Lipo.Weighted>
-3.2741

> <Gold.Chemscore.Internal_Hbond.Weighted>
0.0000

> <Gold.Chemscore.DEClash.Weighted>
0.0203

> <Gold.Chemscore.DEInternal.Weighted>
1.5070

> <Gold.Chemscore.Rot.Weighted>
5.4778

> <Gold.Chemscore.Internal.Correction.Weighted>
   9.000000E+99

> <Gold.Protein.RotatedTorsions>
[ 6907 6896 6895 6894 ] final -156.78 input  -60.11 | X-H torsion
[ 7974 7965 7964 7962 ] final  146.36 input  175.53 | X-H torsion
[ 8008 7997 7996 7995 ] final   95.82 input   59.86 | X-H torsion
[ 10167 10162 10161 10158 ] final -169.69 input  -65.29 | X-H torsion
[ 10718 10713 10712 10709 ] final  126.90 input   66.30 | X-H torsion
[ 10763 10752 10751 10750 ] final  -39.77 input  -60.55 | X-H torsion
[ 11005 11000 10999 10996 ] final  135.45 input  -57.11 | X-H torsion

> <Gold.Protein.ActiveResidues>
 VAL166  LYS551  ARG553  GLY616  TRP617  ASP618  TYR619  PRO620  LYS621  CYS622 
 ASP623  PHE694  ASN695  SER759  ASP760  ASP761  ALA762  ILE779  LEU786  VAL792 
 PHE793  MET794  SER795  GLU796  ALA797  LYS798  CYS799  TRP800  GLU811  SER814 

> <Gold.Protein.RotatedAtoms>
  151.2928  133.4157  159.2634 H   0  0  0  0  0  0  0  0  0  0  0  0  # atno 6907 bound_to 6896
  151.0263  134.9506  159.8097 H   0  0  0  0  0  0  0  0  0  0  0  0  # atno 6908 bound_to 6896
  152.5335  134.2890  159.9088 H   0  0  0  0  0  0  0  0  0  0  0  0  # atno 6909 bound_to 6896
  144.8678  139.5895  143.5901 H   0  0  0  0  0  0  0  0  0  0  0  0  # atno 7974 bound_to 7965
  156.0730  140.3281  155.7599 H   0  0  0  0  0  0  0  0  0  0  0  0  # atno 8008 bound_to 7997
  155.5275  140.0590  157.2912 H   0  0  0  0  0  0  0  0  0  0  0  0  # atno 8009 bound_to 7997
  154.4540  140.1933  156.0451 H   0  0  0  0  0  0  0  0  0  0  0  0  # atno 8010 bound_to 7997
  139.5907  144.1220  152.1630 H   0  0  0  0  0  0  0  0  0  0  0  0  # atno 10167 bound_to 10162
  157.5379  131.1097  150.8906 H   0  0  0  0  0  0  0  0  0  0  0  0  # atno 10718 bound_to 10713
  153.9348  135.6768  153.4745 H   0  0  0  0  0  0  0  0  0  0  0  0  # atno 10763 bound_to 10752
  153.0961  135.4851  154.8778 H   0  0  0  0  0  0  0  0  0  0  0  0  # atno 10764 bound_to 10752
  154.7408  135.3160  154.8688 H   0  0  0  0  0  0  0  0  0  0  0  0  # atno 10765 bound_to 10752
  139.9980  134.9489  157.0009 H   0  0  0  0  0  0  0  0  0  0  0  0  # atno 11005 bound_to 11000
  146.2908  139.7134  142.9162 LP  0  0  0  0  0  0  0  0  0  0  0  0  # atno 17320 bound_to 7965
  145.4189  141.0404  143.2975 LP  0  0  0  0  0  0  0  0  0  0  0  0  # atno 17321 bound_to 7965
  140.0793  144.5714  150.7134 LP  0  0  0  0  0  0  0  0  0  0  0  0  # atno 17342 bound_to 10162
  140.7170  143.2554  151.4401 LP  0  0  0  0  0  0  0  0  0  0  0  0  # atno 17343 bound_to 10162
  156.9467  130.5405  149.5281 LP  0  0  0  0  0  0  0  0  0  0  0  0  # atno 17370 bound_to 10713
  156.0473  130.5548  150.8910 LP  0  0  0  0  0  0  0  0  0  0  0  0  # atno 17371 bound_to 10713
  140.4781  134.1318  155.7213 LP  0  0  0  0  0  0  0  0  0  0  0  0  # atno 17394 bound_to 11000
  141.1620  133.8775  157.1822 LP  0  0  0  0  0  0  0  0  0  0  0  0  # atno 17395 bound_to 11000

$$$$
