AV-unprocessed.smi:1817|AV-procd|sdf|7377|dock6
  -GOLD-   22720 9 43D 1   1.00000     0.00000
 Structure written by MMmdl.
 42 43  0  0  0  0  0  0  0  0  3 V2000
  143.7798  132.3358  149.6845 C   0  0  0  0  0  0  0  0  0  0  0  0
  144.1121  133.3428  150.7955 C   0  0  0  0  0  0  0  0  0  0  0  0
  145.3135  134.1226  150.4882 N   0  0  0  0  0  0  0  0  0  0  0  0
  145.5159  135.3059  151.3321 C   0  0  0  0  0  0  0  0  0  0  0  0
  145.8945  134.9338  152.7812 C   0  0  0  0  0  0  0  0  0  0  0  0
  147.1183  134.0954  152.7920 N   0  3  0  0  0  0  0  0  0  0  0  0
  147.6684  133.8486  154.1557 C   0  0  1  0  0  0  0  0  0  0  0  0
  149.0845  133.2324  154.1378 C   0  0  0  0  0  0  0  0  0  0  0  0
  147.5871  135.1338  155.0114 C   0  0  0  0  0  0  0  0  0  0  0  0
  148.3297  136.2444  154.4246 N   0  0  0  0  0  0  0  0  0  0  0  0
  148.7069  137.3581  155.0681 C   0  0  0  0  0  0  0  0  0  0  0  0
  148.4044  137.5146  156.2534 O   0  0  0  0  0  0  0  0  0  0  0  0
  149.4159  138.2158  154.3012 N   0  5  0  0  0  0  0  0  0  0  0  0
  149.1467  139.5314  154.3409 C   0  0  0  0  0  0  0  0  0  0  0  0
  150.0883  140.4623  154.1184 N   0  0  0  0  0  0  0  0  0  0  0  0
  149.6039  141.7604  154.2050 N   0  0  0  0  0  0  0  0  0  0  0  0
  148.3006  141.7752  154.4832 C   0  0  0  0  0  0  0  0  0  0  0  0
  147.5462  140.2050  154.6612 S   0  0  0  0  0  0  0  0  0  0  0  0
  146.9256  132.8910  151.9437 C   0  0  0  0  0  0  0  0  0  0  0  0
  146.5314  133.3073  150.5110 C   0  0  0  0  0  0  0  0  0  0  0  0
  142.9673  131.6798  149.9971 H   0  0  0  0  0  0  0  0  0  0  0  0
  144.6385  131.7058  149.4500 H   0  0  0  0  0  0  0  0  0  0  0  0
  143.4589  132.8284  148.7670 H   0  0  0  0  0  0  0  0  0  0  0  0
  143.2539  133.9848  150.9910 H   0  0  0  0  0  0  0  0  0  0  0  0
  144.2922  132.7810  151.7128 H   0  0  0  0  0  0  0  0  0  0  0  0
  146.3159  135.9046  150.8946 H   0  0  0  0  0  0  0  0  0  0  0  0
  144.6313  135.9414  151.3220 H   0  0  0  0  0  0  0  0  0  0  0  0
  146.0764  135.8513  153.3416 H   0  0  0  0  0  0  0  0  0  0  0  0
  145.0733  134.4219  153.2828 H   0  0  0  0  0  0  0  0  0  0  0  0
  147.0086  133.1187  154.6268 H   0  0  0  0  0  0  0  0  0  0  0  0
  149.3878  132.9207  155.1377 H   0  0  0  0  0  0  0  0  0  0  0  0
  149.8312  133.9428  153.7831 H   0  0  0  0  0  0  0  0  0  0  0  0
  149.1322  132.3478  153.5034 H   0  0  0  0  0  0  0  0  0  0  0  0
  146.5528  135.4595  155.1168 H   0  0  0  0  0  0  0  0  0  0  0  0
  147.9535  134.9440  156.0219 H   0  0  0  0  0  0  0  0  0  0  0  0
  148.5935  136.1586  153.4536 H   0  0  0  0  0  0  0  0  0  0  0  0
  147.7796  142.7159  154.5806 H   0  0  0  0  0  0  0  0  0  0  0  0
  147.8484  132.3134  151.9020 H   0  0  0  0  0  0  0  0  0  0  0  0
  146.1662  132.2351  152.3700 H   0  0  0  0  0  0  0  0  0  0  0  0
  146.3967  132.4258  149.8831 H   0  0  0  0  0  0  0  0  0  0  0  0
  147.3435  133.8808  150.0618 H   0  0  0  0  0  0  0  0  0  0  0  0
  147.8194  134.6530  152.3256 H   0  0  0  0  0  0  0  0  0  0  0  0
  1  2  1  0  0  0  0
  1 21  1  0  0  0  0
  1 22  1  0  0  0  0
  1 23  1  0  0  0  0
  2  3  1  0  0  0  0
  2 24  1  0  0  0  0
  2 25  1  0  0  0  0
  3 20  1  0  0  0  0
  3  4  1  0  0  0  0
  4  5  1  0  0  0  0
  4 26  1  0  0  0  0
  4 27  1  0  0  0  0
  5  6  1  0  0  0  0
  5 28  1  0  0  0  0
  5 29  1  0  0  0  0
  6  7  1  0  0  0  0
  6 19  1  0  0  0  0
  6 42  1  0  0  0  0
  7  8  1  0  0  0  0
  7  9  1  0  0  0  0
  7 30  1  0  0  0  0
  8 31  1  0  0  0  0
  8 32  1  0  0  0  0
  8 33  1  0  0  0  0
  9 10  1  0  0  0  0
  9 34  1  0  0  0  0
  9 35  1  0  0  0  0
 10 11  1  0  0  0  0
 10 36  1  0  0  0  0
 11 12  2  0  0  0  0
 11 13  1  0  0  0  0
 13 14  1  0  0  0  0
 14 18  1  0  0  0  0
 14 15  2  0  0  0  0
 15 16  1  0  0  0  0
 16 17  2  0  0  0  0
 17 18  1  0  0  0  0
 17 37  1  0  0  0  0
 19 20  1  0  0  0  0
 19 38  1  0  0  0  0
 19 39  1  0  0  0  0
 20 40  1  0  0  0  0
 20 41  1  0  0  0  0
M  CHG  1   6   1
M  CHG  1  13  -1
M  END
> <s_m_source_file>
AV-unprocessed.smi

> <i_m_source_file_index>
1817

> <i_lp_mmshare_version>
43012

> <i_f3d_flags>
0

> <s_epik_input>
W0NIM11bQ0gyXU4xW0NIMl1bQ0gyXU4oW0NIMl1bQ0gyXTEpW0NASF0oW0NIM10pW0NIMl1bTkhdQyg9TylbTkhdYzJubltjSF1zMg==

> <s_epik_cmdline>
J2VwaWtfcHl0aG9uJywgJy1waCcsICc3LjAnLCAnLXRuJywgJzgnLCAnLW1hJywgJzIwMCcsICctbWV0YWxfYmluZGluZycsICctaW1hZScsICc8aW5maWxlLm1hZT4nLCAnLW9tYWUnLCAnPG91dGZpbGUubWFlPic=

> <r_epik_Ionization_Penalty>
3.16835

> <r_epik_Ionization_Penalty_Charging>
3.13468

> <r_epik_Ionization_Penalty_Neutral>
0.0336711

> <r_epik_State_Penalty>
3.95884

> <r_epik_Charging_Adjusted_Penalty>
7.09351

> <i_epik_Tot_Q>
0

> <i_epik_Tot_abs_Q>
2

> <r_epik_Metal_State_Penalty>
1.39003

> <b_epik_Metal_Only>
1

> <s_lp_Force_Field>
OPLS_2005

> <r_lp_Energy>
12.939

> <b_lp_Chiralities_Consistent>
1

> <s_lp_Variant>
AV-unprocessed.smi:1817-10

> <Gold.Version>
5.8.1

> <Gold.Id.Protein>
6NUR|6NUR_protein|mol2

> <Gold.PLP.Fitness>
44.0510

> <Gold.PLP.PLP>
-30.7658

> <Gold.PLP.part.hbond>
-5.0000

> <Gold.PLP.part.metal>
0.0000

> <Gold.PLP.part.buried>
-3.3247

> <Gold.PLP.part.nonpolar>
-23.3138

> <Gold.PLP.part.repulsive>
1.6416

> <Gold.PLP.ligand.clash>
0.0000

> <Gold.PLP.ligand.torsion>
0.9007

> <Gold.PLP.Chemscore.Hbond>
4.1646

> <Gold.PLP.Chemscore.CHOScore>
0.8077

> <Gold.PLP.Chemscore.Metal>
0.0000

> <Gold.Chemscore.Hbonds>
donor molecule, donor type, donor heavy atom, donor atom, acceptor molecule, acceptor atom, score
      L1  H     6    42       P1  7948  2.00
      L1  H    10    36       P1  7948  1.00
      P1  H  7989  7998       L1    15  0.64
      P1  H  8011  8017       L1    16  0.48
      L1  C    17    37       P1  8028  0.85

> <Gold.PLP.Chemscore.Internal.Correction>
0.1695

> <Gold.Rescore>
     Score         DG    S(hbond)    S(metal)    S(lipo)     H(rot)  DE(clash)    DE(int)     intcor
     14.73     -15.64       2.28        0.00      62.97       1.88       0.04       0.86       ----

> <Gold.Chemscore.Fitness>
14.7344

> <Gold.Chemscore.DG>
-15.6384

> <Gold.Chemscore.ZeroCoef>
-5.4800

> <Gold.Chemscore.Hbond>
2.2784

> <Gold.Chemscore.Metal>
0.0000

> <Gold.Chemscore.Lipo>
62.9729

> <Gold.Chemscore.Internal_Hbond>
0.0000

> <Gold.Chemscore.DEClash>
0.0436

> <Gold.Chemscore.DEInternal>
0.8604

> <Gold.Chemscore.Rot>
1.8825

> <Gold.Chemscore.Internal.Correction>
   9.000000E+99

> <Gold.Chemscore.Hbonds>
donor molecule, donor type, donor heavy atom, donor atom, acceptor molecule, acceptor atom, score
      L1  H     6    42       P1  7948  0.64
      L1  H    10    36       P1  7948  0.99
      P1  H  7989  7998       L1    15  0.09
      P1  H  8011  8017       L1    16  0.11

> <Gold.Chemscore.Hbond.Weighted>
-7.6097

> <Gold.Chemscore.Metal.Weighted>
-0.0000

> <Gold.Chemscore.Lipo.Weighted>
-7.3678

> <Gold.Chemscore.Internal_Hbond.Weighted>
0.0000

> <Gold.Chemscore.DEClash.Weighted>
0.0436

> <Gold.Chemscore.DEInternal.Weighted>
0.8604

> <Gold.Chemscore.Rot.Weighted>
4.8191

> <Gold.Chemscore.Internal.Correction.Weighted>
   9.000000E+99

> <Gold.Protein.RotatedTorsions>
[ 6907 6896 6895 6894 ] final  -18.65 input  -60.11 | X-H torsion
[ 7974 7965 7964 7962 ] final   17.45 input  175.53 | X-H torsion
[ 8008 7997 7996 7995 ] final -177.89 input   59.86 | X-H torsion
[ 10167 10162 10161 10158 ] final  -49.15 input  -65.29 | X-H torsion
[ 10718 10713 10712 10709 ] final  -64.69 input   66.30 | X-H torsion
[ 10763 10752 10751 10750 ] final   94.23 input  -60.55 | X-H torsion
[ 11005 11000 10999 10996 ] final   56.60 input  -57.11 | X-H torsion

> <Gold.Protein.ActiveResidues>
 VAL166  LYS551  ARG553  GLY616  TRP617  ASP618  TYR619  PRO620  LYS621  CYS622 
 ASP623  PHE694  ASN695  SER759  ASP760  ASP761  ALA762  ILE779  LEU786  VAL792 
 PHE793  MET794  SER795  GLU796  ALA797  LYS798  CYS799  TRP800  GLU811  SER814 

> <Gold.Protein.RotatedAtoms>
  151.2750  135.0696  159.9148 H   0  0  0  0  0  0  0  0  0  0  0  0  # atno 6907 bound_to 6896
  152.5344  134.0090  159.7940 H   0  0  0  0  0  0  0  0  0  0  0  0  # atno 6908 bound_to 6896
  151.0335  133.5719  159.2689 H   0  0  0  0  0  0  0  0  0  0  0  0  # atno 6909 bound_to 6896
  146.2218  139.8600  142.8606 H   0  0  0  0  0  0  0  0  0  0  0  0  # atno 7974 bound_to 7965
  156.0123  140.1243  157.0441 H   0  0  0  0  0  0  0  0  0  0  0  0  # atno 8008 bound_to 7997
  154.4280  140.1085  156.5917 H   0  0  0  0  0  0  0  0  0  0  0  0  # atno 8009 bound_to 7997
  155.6062  140.3471  155.4611 H   0  0  0  0  0  0  0  0  0  0  0  0  # atno 8010 bound_to 7997
  140.6698  143.2709  151.4174 H   0  0  0  0  0  0  0  0  0  0  0  0  # atno 10167 bound_to 10162
  156.0714  130.4237  150.1457 H   0  0  0  0  0  0  0  0  0  0  0  0  # atno 10718 bound_to 10713
  153.2393  135.4297  155.0680 H   0  0  0  0  0  0  0  0  0  0  0  0  # atno 10763 bound_to 10752
  154.8333  135.3398  154.6673 H   0  0  0  0  0  0  0  0  0  0  0  0  # atno 10764 bound_to 10752
  153.7097  135.7023  153.5097 H   0  0  0  0  0  0  0  0  0  0  0  0  # atno 10765 bound_to 10752
  140.0516  134.5729  155.9257 H   0  0  0  0  0  0  0  0  0  0  0  0  # atno 11005 bound_to 11000
  145.2714  141.0110  143.3770 LP  0  0  0  0  0  0  0  0  0  0  0  0  # atno 17320 bound_to 7965
  144.9221  139.4400  143.6536 LP  0  0  0  0  0  0  0  0  0  0  0  0  # atno 17321 bound_to 7965
  139.5962  144.1393  152.2146 LP  0  0  0  0  0  0  0  0  0  0  0  0  # atno 17342 bound_to 10162
  140.0763  144.5737  150.7155 LP  0  0  0  0  0  0  0  0  0  0  0  0  # atno 17343 bound_to 10162
  156.9507  130.9774  151.3499 LP  0  0  0  0  0  0  0  0  0  0  0  0  # atno 17370 bound_to 10713
  157.5786  130.8361  149.8491 LP  0  0  0  0  0  0  0  0  0  0  0  0  # atno 17371 bound_to 10713
  141.1933  133.6578  156.5541 LP  0  0  0  0  0  0  0  0  0  0  0  0  # atno 17394 bound_to 11000
  140.3908  134.7442  157.4720 LP  0  0  0  0  0  0  0  0  0  0  0  0  # atno 17395 bound_to 11000

$$$$
