AV-unprocessed.smi:1049|AV-procd|sdf|4609|dock8
  -GOLD-   22720 3103D 1   1.00000     0.00000
 Structure written by MMmdl.
 40 41  0  0  0  0  0  0  0  0  1 V2000
  152.7619  143.3534  162.1633 C   0  0  0  0  0  0  0  0  0  0  0  0
  152.0571  143.5629  160.8160 C   0  0  1  0  0  0  0  0  0  0  0  0
  151.8875  145.0635  160.4921 C   0  0  0  0  0  0  0  0  0  0  0  0
  151.2934  145.2874  159.0887 C   0  0  0  0  0  0  0  0  0  0  0  0
  152.0725  144.4880  158.0291 C   0  0  0  0  0  0  0  0  0  0  0  0
  152.0672  143.0656  158.4131 N   0  0  0  0  0  0  0  0  0  0  0  0
  151.3147  142.0865  157.8497 C   0  0  0  0  0  0  0  0  0  0  0  0
  151.5549  140.8856  157.9850 O   0  0  0  0  0  0  0  0  0  0  0  0
  150.2824  142.5269  157.1115 N   0  0  0  0  0  0  0  0  0  0  0  0
  149.2834  141.6810  156.4666 C   0  0  0  0  0  0  0  0  0  0  0  0
  149.7023  141.2388  155.0496 C   0  0  0  0  0  0  0  0  0  0  0  0
  148.6389  140.4871  154.3054 C   0  0  0  0  0  0  0  0  0  0  0  0
  148.8058  139.2630  153.8125 N   0  0  0  0  0  0  0  0  0  0  0  0
  147.5862  138.9466  153.2256 C   0  0  0  0  0  0  0  0  0  0  0  0
  146.7177  139.9988  153.3863 C   0  0  0  0  0  0  0  0  0  0  0  0
  147.4013  140.9769  154.0995 N   0  0  0  0  0  0  0  0  0  0  0  0
  146.8847  142.2772  154.4902 C   0  0  0  0  0  0  0  0  0  0  0  0
  146.2772  142.8518  153.4527 F   0  0  0  0  0  0  0  0  0  0  0  0
  146.0261  142.1528  155.5028 F   0  0  0  0  0  0  0  0  0  0  0  0
  152.8029  142.8520  159.6663 C   0  0  0  0  0  0  0  0  0  0  0  0
  153.7681  143.7738  162.1548 H   0  0  0  0  0  0  0  0  0  0  0  0
  152.8460  142.2924  162.4004 H   0  0  0  0  0  0  0  0  0  0  0  0
  152.2081  143.8293  162.9732 H   0  0  0  0  0  0  0  0  0  0  0  0
  151.0623  143.1212  160.8934 H   0  0  0  0  0  0  0  0  0  0  0  0
  151.2588  145.5443  161.2424 H   0  0  0  0  0  0  0  0  0  0  0  0
  152.8598  145.5552  160.5449 H   0  0  0  0  0  0  0  0  0  0  0  0
  150.2471  144.9799  159.0812 H   0  0  0  0  0  0  0  0  0  0  0  0
  151.3052  146.3496  158.8439 H   0  0  0  0  0  0  0  0  0  0  0  0
  151.6574  144.6837  157.0405 H   0  0  0  0  0  0  0  0  0  0  0  0
  153.1037  144.8410  157.9822 H   0  0  0  0  0  0  0  0  0  0  0  0
  150.1524  143.5252  157.0354 H   0  0  0  0  0  0  0  0  0  0  0  0
  149.1495  140.8030  157.0980 H   0  0  0  0  0  0  0  0  0  0  0  0
  148.3181  142.1883  156.4377 H   0  0  0  0  0  0  0  0  0  0  0  0
  150.0103  142.1056  154.4646 H   0  0  0  0  0  0  0  0  0  0  0  0
  150.5841  140.6001  155.1151 H   0  0  0  0  0  0  0  0  0  0  0  0
  147.4318  137.9980  152.7330 H   0  0  0  0  0  0  0  0  0  0  0  0
  145.6946  140.1263  153.0643 H   0  0  0  0  0  0  0  0  0  0  0  0
  147.6930  142.9284  154.8222 H   0  0  0  0  0  0  0  0  0  0  0  0
  153.8127  143.2530  159.5654 H   0  0  0  0  0  0  0  0  0  0  0  0
  152.9311  141.7933  159.8972 H   0  0  0  0  0  0  0  0  0  0  0  0
  1  2  1  0  0  0  0
  1 21  1  0  0  0  0
  1 22  1  0  0  0  0
  1 23  1  0  0  0  0
  2 20  1  0  0  0  0
  2  3  1  0  0  0  0
  2 24  1  0  0  0  0
  3  4  1  0  0  0  0
  3 25  1  0  0  0  0
  3 26  1  0  0  0  0
  4  5  1  0  0  0  0
  4 27  1  0  0  0  0
  4 28  1  0  0  0  0
  5  6  1  0  0  0  0
  5 29  1  0  0  0  0
  5 30  1  0  0  0  0
  6  7  1  0  0  0  0
  6 20  1  0  0  0  0
  7  8  2  0  0  0  0
  7  9  1  0  0  0  0
  9 10  1  0  0  0  0
  9 31  1  0  0  0  0
 10 11  1  0  0  0  0
 10 32  1  0  0  0  0
 10 33  1  0  0  0  0
 11 12  1  0  0  0  0
 11 34  1  0  0  0  0
 11 35  1  0  0  0  0
 12 16  1  0  0  0  0
 12 13  2  0  0  0  0
 13 14  1  0  0  0  0
 14 15  2  0  0  0  0
 14 36  1  0  0  0  0
 15 16  1  0  0  0  0
 15 37  1  0  0  0  0
 16 17  1  0  0  0  0
 17 18  1  0  0  0  0
 17 19  1  0  0  0  0
 17 38  1  0  0  0  0
 20 39  1  0  0  0  0
 20 40  1  0  0  0  0
M  END
> <s_m_source_file>
AV-unprocessed.smi

> <i_m_source_file_index>
1049

> <i_lp_mmshare_version>
43012

> <i_f3d_flags>
0

> <s_epik_input>
W0NIM11bQ0BASF0xW0NIMl1bQ0gyXVtDSDJdTihbQ0gyXTEpQyg9TylbTkhdW0NIMl1bQ0gyXWMybltjSF1bY0hdbjJbQ0hdKEYpRg==

> <s_epik_cmdline>
J2VwaWtfcHl0aG9uJywgJy1waCcsICc3LjAnLCAnLXRuJywgJzgnLCAnLW1hJywgJzIwMCcsICctbWV0YWxfYmluZGluZycsICctaW1hZScsICc8aW5maWxlLm1hZT4nLCAnLW9tYWUnLCAnPG91dGZpbGUubWFlPic=

> <r_lp_tautomer_probability>
1

> <r_epik_Ionization_Penalty>
0.101141

> <r_epik_Ionization_Penalty_Charging>
0.101077

> <r_epik_Ionization_Penalty_Neutral>
6.38597e-05

> <r_epik_State_Penalty>
0.091079

> <r_epik_Charging_Adjusted_Penalty>
0.192156

> <i_epik_Tot_Q>
0

> <i_epik_Tot_abs_Q>
0

> <r_epik_Metal_State_Penalty>
0.0777008

> <b_epik_Metal_Only>
0

> <s_lp_Force_Field>
OPLS_2005

> <r_lp_Energy>
32.9855

> <b_lp_Chiralities_Consistent>
1

> <s_lp_Variant>
AV-unprocessed.smi:1049-2

> <Gold.Version>
5.8.1

> <Gold.Id.Protein>
6NUR|6NUR_protein|mol2

> <Gold.PLP.Fitness>
55.4426

> <Gold.PLP.PLP>
-49.7864

> <Gold.PLP.part.hbond>
-1.0000

> <Gold.PLP.part.metal>
0.0000

> <Gold.PLP.part.buried>
-4.4921

> <Gold.PLP.part.nonpolar>
-44.9976

> <Gold.PLP.part.repulsive>
1.9507

> <Gold.PLP.ligand.clash>
0.0000

> <Gold.PLP.ligand.torsion>
0.7275

> <Gold.PLP.Chemscore.Hbond>
0.3549

> <Gold.PLP.Chemscore.CHOScore>
2.0000

> <Gold.PLP.Chemscore.Metal>
0.0000

> <Gold.Chemscore.Hbonds>
donor molecule, donor type, donor heavy atom, donor atom, acceptor molecule, acceptor atom, score
      L1  H     9    31       P1  8028  0.35
      L1  C    14    36       P1  7948  1.00
      L1  C    15    37       P1 10175  1.00

> <Gold.PLP.Chemscore.Internal.Correction>
0.0465

> <Gold.Rescore>
     Score         DG    S(hbond)    S(metal)    S(lipo)     H(rot)  DE(clash)    DE(int)     intcor
     13.76     -14.70       0.26        0.00     105.50       1.56       0.23       0.72       ----

> <Gold.Chemscore.Fitness>
13.7561

> <Gold.Chemscore.DG>
-14.7035

> <Gold.Chemscore.ZeroCoef>
-5.4800

> <Gold.Chemscore.Hbond>
0.2637

> <Gold.Chemscore.Metal>
0.0000

> <Gold.Chemscore.Lipo>
105.4955

> <Gold.Chemscore.Internal_Hbond>
0.0000

> <Gold.Chemscore.DEClash>
0.2318

> <Gold.Chemscore.DEInternal>
0.7156

> <Gold.Chemscore.Rot>
1.5626

> <Gold.Chemscore.Internal.Correction>
   9.000000E+99

> <Gold.Chemscore.Hbonds>
donor molecule, donor type, donor heavy atom, donor atom, acceptor molecule, acceptor atom, score
      L1  H     9    31       P1  8028  0.36

> <Gold.Chemscore.Hbond.Weighted>
-0.8809

> <Gold.Chemscore.Metal.Weighted>
-0.0000

> <Gold.Chemscore.Lipo.Weighted>
-12.3430

> <Gold.Chemscore.Internal_Hbond.Weighted>
0.0000

> <Gold.Chemscore.DEClash.Weighted>
0.2318

> <Gold.Chemscore.DEInternal.Weighted>
0.7156

> <Gold.Chemscore.Rot.Weighted>
4.0004

> <Gold.Chemscore.Internal.Correction.Weighted>
   9.000000E+99

> <Gold.Protein.RotatedTorsions>
[ 6907 6896 6895 6894 ] final   17.60 input  -60.11 | X-H torsion
[ 7974 7965 7964 7962 ] final   76.25 input  175.53 | X-H torsion
[ 8008 7997 7996 7995 ] final  -75.11 input   59.86 | X-H torsion
[ 10167 10162 10161 10158 ] final -122.96 input  -65.29 | X-H torsion
[ 10718 10713 10712 10709 ] final   90.98 input   66.30 | X-H torsion
[ 10763 10752 10751 10750 ] final  -18.40 input  -60.55 | X-H torsion
[ 11005 11000 10999 10996 ] final  -22.79 input  -57.11 | X-H torsion

> <Gold.Protein.ActiveResidues>
 VAL166  LYS551  ARG553  GLY616  TRP617  ASP618  TYR619  PRO620  LYS621  CYS622 
 ASP623  PHE694  ASN695  SER759  ASP760  ASP761  ALA762  ILE779  LEU786  VAL792 
 PHE793  MET794  SER795  GLU796  ALA797  LYS798  CYS799  TRP800  GLU811  SER814 

> <Gold.Protein.RotatedAtoms>
  151.8522  135.0554  160.0459 H   0  0  0  0  0  0  0  0  0  0  0  0  # atno 6907 bound_to 6896
  152.2728  133.5393  159.5458 H   0  0  0  0  0  0  0  0  0  0  0  0  # atno 6908 bound_to 6896
  150.7158  134.0590  159.3867 H   0  0  0  0  0  0  0  0  0  0  0  0  # atno 6909 bound_to 6896
  145.7053  139.2596  143.1682 H   0  0  0  0  0  0  0  0  0  0  0  0  # atno 7974 bound_to 7965
  154.5388  140.0749  156.8475 H   0  0  0  0  0  0  0  0  0  0  0  0  # atno 8008 bound_to 7997
  155.3222  140.3397  155.4223 H   0  0  0  0  0  0  0  0  0  0  0  0  # atno 8009 bound_to 7997
  156.1855  140.1667  156.8180 H   0  0  0  0  0  0  0  0  0  0  0  0  # atno 8010 bound_to 7997
  140.0087  143.5464  152.2272 H   0  0  0  0  0  0  0  0  0  0  0  0  # atno 10167 bound_to 10162
  157.6960  131.0390  150.3659 H   0  0  0  0  0  0  0  0  0  0  0  0  # atno 10718 bound_to 10713
  153.5887  135.7003  153.5432 H   0  0  0  0  0  0  0  0  0  0  0  0  # atno 10763 bound_to 10752
  153.3197  135.4077  155.1406 H   0  0  0  0  0  0  0  0  0  0  0  0  # atno 10764 bound_to 10752
  154.8604  135.3692  154.5418 H   0  0  0  0  0  0  0  0  0  0  0  0  # atno 10765 bound_to 10752
  140.8690  133.7733  156.0164 H   0  0  0  0  0  0  0  0  0  0  0  0  # atno 11005 bound_to 11000
  146.0762  140.7815  142.9664 LP  0  0  0  0  0  0  0  0  0  0  0  0  # atno 17320 bound_to 7965
  144.6957  140.3417  143.7198 LP  0  0  0  0  0  0  0  0  0  0  0  0  # atno 17321 bound_to 7965
  139.6220  144.7631  151.2719 LP  0  0  0  0  0  0  0  0  0  0  0  0  # atno 17342 bound_to 10162
  140.7390  143.6631  150.8147 LP  0  0  0  0  0  0  0  0  0  0  0  0  # atno 17343 bound_to 10162
  156.4090  130.3930  149.6905 LP  0  0  0  0  0  0  0  0  0  0  0  0  # atno 17370 bound_to 10713
  156.4196  130.7762  151.2778 LP  0  0  0  0  0  0  0  0  0  0  0  0  # atno 17371 bound_to 10713
  140.8595  134.2858  157.5241 LP  0  0  0  0  0  0  0  0  0  0  0  0  # atno 17394 bound_to 11000
  139.8711  134.9510  156.4073 LP  0  0  0  0  0  0  0  0  0  0  0  0  # atno 17395 bound_to 11000

$$$$
