AV-unprocessed.smi:189|AV-procd|sdf|1481|dock3
  -GOLD-   2262019303D 1   1.00000     0.00000
 Structure written by MMmdl.
 53 57  0  0  0  0  0  0  0  0  1 V2000
  141.9577  137.0395  154.7568 C   0  0  0  0  0  0  0  0  0  0  0  0
  142.3603  136.4697  153.3826 C   0  0  2  0  0  0  0  0  0  0  0  0
  142.3426  134.9395  153.2826 C   0  0  0  0  0  0  0  0  0  0  0  0
  143.1670  134.6654  152.0162 C   0  0  2  0  0  0  0  0  0  0  0  0
  144.1358  133.4737  152.1131 C   0  0  0  0  0  0  0  0  0  0  0  0
  145.0112  133.3340  150.8486 C   0  0  0  0  0  0  0  0  0  0  0  0
  145.4303  134.6843  150.2219 C   0  0  0  0  0  0  0  0  0  0  0  0
  145.3498  135.8454  151.2239 C   0  0  0  0  0  0  0  0  0  0  0  0
  143.8931  135.9999  151.7309 C   0  0  2  0  0  0  0  0  0  0  0  0
  143.6724  136.8826  152.8816 N   0  0  0  0  0  0  0  0  0  0  0  0
  144.6702  136.9982  153.7948 C   0  0  0  0  0  0  0  0  0  0  0  0
  144.6114  136.3463  154.9869 N   0  0  0  0  0  0  0  0  0  0  0  0
  145.6051  136.4746  155.8706 C   0  0  0  0  0  0  0  0  0  0  0  0
  146.7244  137.1944  155.7684 N   0  0  0  0  0  0  0  0  0  0  0  0
  146.7808  137.8569  154.5774 C   0  0  0  0  0  0  0  0  0  0  0  0
  145.8063  137.8099  153.5419 C   0  0  0  0  0  0  0  0  0  0  0  0
  146.2045  138.6030  152.4738 N   0  0  0  0  0  0  0  0  0  0  0  0
  147.3520  139.0933  152.8567 C   0  0  0  0  0  0  0  0  0  0  0  0
  147.7687  138.7069  154.1113 N   0  0  0  0  0  0  0  0  0  0  0  0
  148.9984  139.1014  154.7805 C   0  0  0  0  0  0  0  0  0  0  0  0
  149.2581  140.6296  154.7707 C   0  0  1  0  0  0  0  0  0  0  0  0
  149.5415  141.0603  153.4531 O   0  0  0  0  0  0  0  0  0  0  0  0
  148.0762  141.4147  155.3164 C   0  0  0  0  0  0  0  0  0  0  0  0
  148.3243  141.4094  156.8241 C   0  0  0  0  0  0  0  0  0  0  0  0
  149.7287  141.2384  156.9959 O   0  0  0  0  0  0  0  0  0  0  0  0
  150.3621  141.0891  155.7302 C   0  0  0  0  0  0  0  0  0  0  0  0
  140.9327  136.7606  155.0009 H   0  0  0  0  0  0  0  0  0  0  0  0
  142.0124  138.1286  154.7606 H   0  0  0  0  0  0  0  0  0  0  0  0
  142.5937  136.6677  155.5604 H   0  0  0  0  0  0  0  0  0  0  0  0
  141.6378  136.8567  152.6620 H   0  0  0  0  0  0  0  0  0  0  0  0
  142.8157  134.4925  154.1575 H   0  0  0  0  0  0  0  0  0  0  0  0
  141.3301  134.5404  153.2176 H   0  0  0  0  0  0  0  0  0  0  0  0
  142.4803  134.4753  151.1900 H   0  0  0  0  0  0  0  0  0  0  0  0
  144.7863  133.6100  152.9774 H   0  0  0  0  0  0  0  0  0  0  0  0
  143.5876  132.5486  152.2928 H   0  0  0  0  0  0  0  0  0  0  0  0
  145.8996  132.7553  151.1034 H   0  0  0  0  0  0  0  0  0  0  0  0
  144.4805  132.7490  150.0969 H   0  0  0  0  0  0  0  0  0  0  0  0
  146.4368  134.6064  149.8096 H   0  0  0  0  0  0  0  0  0  0  0  0
  144.7755  134.9067  149.3783 H   0  0  0  0  0  0  0  0  0  0  0  0
  146.0479  135.6327  152.0329 H   0  0  0  0  0  0  0  0  0  0  0  0
  145.6855  136.7748  150.7630 H   0  0  0  0  0  0  0  0  0  0  0  0
  143.3466  136.4761  150.9151 H   0  0  0  0  0  0  0  0  0  0  0  0
  145.4861  135.9226  156.7909 H   0  0  0  0  0  0  0  0  0  0  0  0
  147.9278  139.7612  152.2323 H   0  0  0  0  0  0  0  0  0  0  0  0
  148.9586  138.7341  155.8070 H   0  0  0  0  0  0  0  0  0  0  0  0
  149.8238  138.5725  154.3024 H   0  0  0  0  0  0  0  0  0  0  0  0
  149.3351  140.3580  152.8557 H   0  0  0  0  0  0  0  0  0  0  0  0
  148.1052  142.4450  154.9571 H   0  0  0  0  0  0  0  0  0  0  0  0
  147.1078  140.9956  155.0409 H   0  0  0  0  0  0  0  0  0  0  0  0
  147.9784  142.3282  157.2982 H   0  0  0  0  0  0  0  0  0  0  0  0
  147.8107  140.5719  157.2974 H   0  0  0  0  0  0  0  0  0  0  0  0
  151.2196  140.4195  155.7810 H   0  0  0  0  0  0  0  0  0  0  0  0
  150.7363  142.0713  155.4365 H   0  0  0  0  0  0  0  0  0  0  0  0
  1  2  1  0  0  0  0
  1 27  1  0  0  0  0
  1 28  1  0  0  0  0
  1 29  1  0  0  0  0
  2 10  1  0  0  0  0
  2  3  1  0  0  0  0
  2 30  1  0  0  0  0
  3  4  1  0  0  0  0
  3 31  1  0  0  0  0
  3 32  1  0  0  0  0
  4  9  1  0  0  0  0
  4  5  1  0  0  0  0
  4 33  1  0  0  0  0
  5  6  1  0  0  0  0
  5 34  1  0  0  0  0
  5 35  1  0  0  0  0
  6  7  1  0  0  0  0
  6 36  1  0  0  0  0
  6 37  1  0  0  0  0
  7  8  1  0  0  0  0
  7 38  1  0  0  0  0
  7 39  1  0  0  0  0
  8  9  1  0  0  0  0
  8 40  1  0  0  0  0
  8 41  1  0  0  0  0
  9 10  1  0  0  0  0
  9 42  1  0  0  0  0
 10 11  1  0  0  0  0
 11 16  1  0  0  0  0
 11 12  2  0  0  0  0
 12 13  1  0  0  0  0
 13 14  2  0  0  0  0
 13 43  1  0  0  0  0
 14 15  1  0  0  0  0
 15 19  1  0  0  0  0
 15 16  2  0  0  0  0
 16 17  1  0  0  0  0
 17 18  2  0  0  0  0
 18 19  1  0  0  0  0
 18 44  1  0  0  0  0
 19 20  1  0  0  0  0
 20 21  1  0  0  0  0
 20 45  1  0  0  0  0
 20 46  1  0  0  0  0
 21 26  1  0  0  0  0
 21 22  1  0  0  0  0
 21 23  1  0  0  0  0
 22 47  1  0  0  0  0
 23 24  1  0  0  0  0
 23 48  1  0  0  0  0
 23 49  1  0  0  0  0
 24 25  1  0  0  0  0
 24 50  1  0  0  0  0
 24 51  1  0  0  0  0
 25 26  1  0  0  0  0
 26 52  1  0  0  0  0
 26 53  1  0  0  0  0
M  END
> <s_m_source_file>
AV-unprocessed.smi

> <i_m_source_file_index>
189

> <i_lp_mmshare_version>
43012

> <i_f3d_flags>
0

> <s_epik_input>
W0NIMl0xW0NIMl1bQ0gyXVtDSDJdW0NASF0oW0NASF0xMilOKFtDQEhdKFtDSDNdKVtDSDJdMiljKG5bY0hdbjMpYyhjMzQpbltjSF1uNFtDSDJdW0NAQF01KFtPSF0pW0NIMl1bQ0gyXU9bQ0gyXTU=

> <s_epik_cmdline>
J2VwaWtfcHl0aG9uJywgJy1waCcsICc3LjAnLCAnLXRuJywgJzgnLCAnLW1hJywgJzIwMCcsICctbWV0YWxfYmluZGluZycsICctaW1hZScsICc8aW5maWxlLm1hZT4nLCAnLW9tYWUnLCAnPG91dGZpbGUubWFlPic=

> <r_lp_tautomer_probability>
1

> <r_epik_Ionization_Penalty>
0.00594261

> <r_epik_Ionization_Penalty_Charging>
0

> <r_epik_Ionization_Penalty_Neutral>
0.00594261

> <r_epik_State_Penalty>
0.00429776

> <r_epik_Charging_Adjusted_Penalty>
0.00429776

> <i_epik_Tot_Q>
0

> <i_epik_Tot_abs_Q>
0

> <r_epik_Metal_State_Penalty>
-0

> <b_epik_Metal_Only>
0

> <s_lp_Force_Field>
OPLS_2005

> <r_lp_Energy>
68.3564

> <b_lp_Chiralities_Consistent>
1

> <s_lp_Variant>
AV-unprocessed.smi:189-7

> <Gold.Version>
5.8.1

> <Gold.Id.Protein>
6NUR|6NUR_protein|mol2

> <Gold.PLP.Fitness>
39.7204

> <Gold.PLP.PLP>
-32.4897

> <Gold.PLP.part.hbond>
-2.9698

> <Gold.PLP.part.metal>
0.0000

> <Gold.PLP.part.buried>
-2.0903

> <Gold.PLP.part.nonpolar>
-28.1864

> <Gold.PLP.part.repulsive>
0.6614

> <Gold.PLP.ligand.clash>
0.0000

> <Gold.PLP.ligand.torsion>
0.7414

> <Gold.PLP.Chemscore.Hbond>
1.8916

> <Gold.PLP.Chemscore.CHOScore>
1.0000

> <Gold.PLP.Chemscore.Metal>
0.0000

> <Gold.Chemscore.Hbonds>
donor molecule, donor type, donor heavy atom, donor atom, acceptor molecule, acceptor atom, score
      L1  H    22    47       P1  7957  0.70
      P1  H  7989  7998       L1    22  0.20
      P1  H  8011  8017       L1    22  1.00
      L1  C    18    44       P1  7957  0.91

> <Gold.PLP.Chemscore.Internal.Correction>
0.0388

> <Gold.Rescore>
     Score         DG    S(hbond)    S(metal)    S(lipo)     H(rot)  DE(clash)    DE(int)     intcor
     10.31     -13.82       1.42        0.00      75.03       2.03       1.15       2.36       ----

> <Gold.Chemscore.Fitness>
10.3083

> <Gold.Chemscore.DG>
-13.8200

> <Gold.Chemscore.ZeroCoef>
-5.4800

> <Gold.Chemscore.Hbond>
1.4244

> <Gold.Chemscore.Metal>
0.0000

> <Gold.Chemscore.Lipo>
75.0294

> <Gold.Chemscore.Internal_Hbond>
0.0000

> <Gold.Chemscore.DEClash>
1.1497

> <Gold.Chemscore.DEInternal>
2.3620

> <Gold.Chemscore.Rot>
2.0297

> <Gold.Chemscore.Internal.Correction>
   9.000000E+99

> <Gold.Chemscore.Hbonds>
donor molecule, donor type, donor heavy atom, donor atom, acceptor molecule, acceptor atom, score
      L1  H    22    47       P1  7957  0.70
      P1  H  7989  7998       L1    22  0.01
      P1  H  8011  8017       L1    22  0.29

> <Gold.Chemscore.Hbond.Weighted>
-4.7575

> <Gold.Chemscore.Metal.Weighted>
-0.0000

> <Gold.Chemscore.Lipo.Weighted>
-8.7784

> <Gold.Chemscore.Internal_Hbond.Weighted>
0.0000

> <Gold.Chemscore.DEClash.Weighted>
1.1497

> <Gold.Chemscore.DEInternal.Weighted>
2.3620

> <Gold.Chemscore.Rot.Weighted>
5.1960

> <Gold.Chemscore.Internal.Correction.Weighted>
   9.000000E+99

> <Gold.Protein.RotatedTorsions>
[ 6907 6896 6895 6894 ] final  -98.19 input  -60.11 | X-H torsion
[ 7974 7965 7964 7962 ] final   64.85 input  175.53 | X-H torsion
[ 8008 7997 7996 7995 ] final  -59.23 input   59.86 | X-H torsion
[ 10167 10162 10161 10158 ] final  -48.05 input  -65.29 | X-H torsion
[ 10718 10713 10712 10709 ] final   83.65 input   66.30 | X-H torsion
[ 10763 10752 10751 10750 ] final  131.53 input  -60.55 | X-H torsion
[ 11005 11000 10999 10996 ] final  -79.66 input  -57.11 | X-H torsion

> <Gold.Protein.ActiveResidues>
 VAL166  LYS551  ARG553  GLY616  TRP617  ASP618  TYR619  PRO620  LYS621  CYS622 
 ASP623  PHE694  ASN695  SER759  ASP760  ASP761  ALA762  ILE779  LEU786  VAL792 
 PHE793  MET794  SER795  GLU796  ALA797  LYS798  CYS799  TRP800  GLU811  SER814 

> <Gold.Protein.RotatedAtoms>
  150.7039  134.1232  159.4042 H   0  0  0  0  0  0  0  0  0  0  0  0  # atno 6907 bound_to 6896
  151.9218  135.0292  160.0532 H   0  0  0  0  0  0  0  0  0  0  0  0  # atno 6908 bound_to 6896
  152.2249  133.4977  159.5220 H   0  0  0  0  0  0  0  0  0  0  0  0  # atno 6909 bound_to 6896
  145.8454  139.3221  143.0907 H   0  0  0  0  0  0  0  0  0  0  0  0  # atno 7974 bound_to 7965
  154.4343  140.1066  156.6083 H   0  0  0  0  0  0  0  0  0  0  0  0  # atno 8008 bound_to 7997
  155.5837  140.3491  155.4528 H   0  0  0  0  0  0  0  0  0  0  0  0  # atno 8009 bound_to 7997
  156.0299  140.1258  157.0258 H   0  0  0  0  0  0  0  0  0  0  0  0  # atno 8010 bound_to 7997
  140.6748  143.2757  151.4014 H   0  0  0  0  0  0  0  0  0  0  0  0  # atno 10167 bound_to 10162
  157.6883  131.0100  150.2555 H   0  0  0  0  0  0  0  0  0  0  0  0  # atno 10718 bound_to 10713
  153.7759  135.3175  155.3359 H   0  0  0  0  0  0  0  0  0  0  0  0  # atno 10763 bound_to 10752
  154.8179  135.4623  154.0698 H   0  0  0  0  0  0  0  0  0  0  0  0  # atno 10764 bound_to 10752
  153.1972  135.6917  153.8362 H   0  0  0  0  0  0  0  0  0  0  0  0  # atno 10765 bound_to 10752
  141.1667  133.7115  156.8156 H   0  0  0  0  0  0  0  0  0  0  0  0  # atno 11005 bound_to 11000
  145.9418  140.8974  143.0304 LP  0  0  0  0  0  0  0  0  0  0  0  0  # atno 17320 bound_to 7965
  144.6731  140.1559  143.7426 LP  0  0  0  0  0  0  0  0  0  0  0  0  # atno 17321 bound_to 7965
  139.6035  144.1246  152.2224 LP  0  0  0  0  0  0  0  0  0  0  0  0  # atno 17342 bound_to 10162
  140.0637  144.5835  150.7243 LP  0  0  0  0  0  0  0  0  0  0  0  0  # atno 17343 bound_to 10162
  156.3144  130.3776  149.7632 LP  0  0  0  0  0  0  0  0  0  0  0  0  # atno 17370 bound_to 10713
  156.5222  130.8220  151.3208 LP  0  0  0  0  0  0  0  0  0  0  0  0  # atno 17371 bound_to 10713
  140.2156  134.8795  157.3322 LP  0  0  0  0  0  0  0  0  0  0  0  0  # atno 17394 bound_to 11000
  140.2041  134.4219  155.7647 LP  0  0  0  0  0  0  0  0  0  0  0  0  # atno 17395 bound_to 11000

$$$$
