AV-unprocessed.smi:3151|AV-procd|sdf|12016|dock7
  -GOLD-   2272017423D 1   1.00000     0.00000
 Structure written by MMmdl.
 35 36  0  0  0  0  0  0  0  0  1 V2000
  154.4112  140.0543  158.7512 O   0  0  0  0  0  0  0  0  0  0  0  0
  153.6507  139.8293  159.6930 C   0  0  0  0  0  0  0  0  0  0  0  0
  153.7868  140.6130  161.0028 C   0  0  0  0  0  0  0  0  0  0  0  0
  153.6214  142.1370  160.8258 C   0  0  0  0  0  0  0  0  0  0  0  0
  152.7960  142.8255  161.9196 C   0  0  0  0  0  0  0  0  0  0  0  0
  152.3191  144.1434  161.2974 C   0  0  0  0  0  0  0  0  0  0  0  0
  152.4201  143.9657  159.7748 C   0  0  0  0  0  0  0  0  0  0  0  0
  152.8835  142.5243  159.5425 C   0  0  0  0  0  0  0  0  0  0  0  0
  152.6711  138.9136  159.6436 N   0  0  0  0  0  0  0  0  0  0  0  0
  152.3804  138.0626  158.4958 C   0  0  0  0  0  0  0  0  0  0  0  0
  151.0187  138.4043  157.8690 C   0  0  0  0  0  0  0  0  0  0  0  0
  151.1190  138.5457  156.4308 N   0  0  0  0  0  0  0  0  0  0  0  0
  151.4315  137.5546  155.5098 C   0  0  0  0  0  0  0  0  0  0  0  0
  151.4141  138.1517  154.2696 C   0  0  0  0  0  0  0  0  0  0  0  0
  151.0964  139.5016  154.4033 N   0  0  0  0  0  0  0  0  0  0  0  0
  150.9356  139.6609  155.7108 C   0  0  0  0  0  0  0  0  0  0  0  0
  153.0300  140.2417  161.6945 H   0  0  0  0  0  0  0  0  0  0  0  0
  154.7540  140.3975  161.4600 H   0  0  0  0  0  0  0  0  0  0  0  0
  154.6066  142.6061  160.7947 H   0  0  0  0  0  0  0  0  0  0  0  0
  151.9305  142.2110  162.1724 H   0  0  0  0  0  0  0  0  0  0  0  0
  153.3649  142.9842  162.8363 H   0  0  0  0  0  0  0  0  0  0  0  0
  151.3022  144.3811  161.6112 H   0  0  0  0  0  0  0  0  0  0  0  0
  152.9589  144.9668  161.6170 H   0  0  0  0  0  0  0  0  0  0  0  0
  151.4732  144.1684  159.2737 H   0  0  0  0  0  0  0  0  0  0  0  0
  153.1569  144.6624  159.3733 H   0  0  0  0  0  0  0  0  0  0  0  0
  153.5089  142.4264  158.6546 H   0  0  0  0  0  0  0  0  0  0  0  0
  152.0125  141.8817  159.4054 H   0  0  0  0  0  0  0  0  0  0  0  0
  152.0908  138.7932  160.4611 H   0  0  0  0  0  0  0  0  0  0  0  0
  153.1771  138.1512  157.7548 H   0  0  0  0  0  0  0  0  0  0  0  0
  152.3849  137.0258  158.8329 H   0  0  0  0  0  0  0  0  0  0  0  0
  150.2884  137.6253  158.0918 H   0  0  0  0  0  0  0  0  0  0  0  0
  150.6254  139.3355  158.2794 H   0  0  0  0  0  0  0  0  0  0  0  0
  151.6353  136.5356  155.8044 H   0  0  0  0  0  0  0  0  0  0  0  0
  151.6050  137.7178  153.2991 H   0  0  0  0  0  0  0  0  0  0  0  0
  150.6803  140.6116  156.1556 H   0  0  0  0  0  0  0  0  0  0  0  0
  1  2  2  0  0  0  0
  2  3  1  0  0  0  0
  2  9  1  0  0  0  0
  3  4  1  0  0  0  0
  3 17  1  0  0  0  0
  3 18  1  0  0  0  0
  4  8  1  0  0  0  0
  4  5  1  0  0  0  0
  4 19  1  0  0  0  0
  5  6  1  0  0  0  0
  5 20  1  0  0  0  0
  5 21  1  0  0  0  0
  6  7  1  0  0  0  0
  6 22  1  0  0  0  0
  6 23  1  0  0  0  0
  7  8  1  0  0  0  0
  7 24  1  0  0  0  0
  7 25  1  0  0  0  0
  8 26  1  0  0  0  0
  8 27  1  0  0  0  0
  9 10  1  0  0  0  0
  9 28  1  0  0  0  0
 10 11  1  0  0  0  0
 10 29  1  0  0  0  0
 10 30  1  0  0  0  0
 11 12  1  0  0  0  0
 11 31  1  0  0  0  0
 11 32  1  0  0  0  0
 12 16  1  0  0  0  0
 12 13  1  0  0  0  0
 13 14  2  0  0  0  0
 13 33  1  0  0  0  0
 14 15  1  0  0  0  0
 14 34  1  0  0  0  0
 15 16  2  0  0  0  0
 16 35  1  0  0  0  0
M  END
> <s_m_source_file>
AV-unprocessed.smi

> <i_m_source_file_index>
3151

> <i_lp_mmshare_version>
43012

> <i_f3d_flags>
0

> <s_epik_input>
W0NIMl0xW0NIMl1bQ0gyXVtDSDJdW0NIXTFbQ0gyXUMoPU8pW05IXVtDSDJdW0NIMl1uMltjSF1bY0hdbltjSF0y

> <s_epik_cmdline>
J2VwaWtfcHl0aG9uJywgJy1waCcsICc3LjAnLCAnLXRuJywgJzgnLCAnLW1hJywgJzIwMCcsICctbWV0YWxfYmluZGluZycsICctaW1hZScsICc8aW5maWxlLm1hZT4nLCAnLW9tYWUnLCAnPG91dGZpbGUubWFlPic=

> <r_lp_tautomer_probability>
1

> <r_epik_Ionization_Penalty>
0.596413

> <r_epik_Ionization_Penalty_Charging>
0.596413

> <r_epik_Ionization_Penalty_Neutral>
2.16921e-08

> <r_epik_State_Penalty>
0.610423

> <r_epik_Charging_Adjusted_Penalty>
1.20684

> <i_epik_Tot_Q>
0

> <i_epik_Tot_abs_Q>
0

> <r_epik_Metal_State_Penalty>
0.300145

> <b_epik_Metal_Only>
0

> <s_lp_Force_Field>
OPLS_2005

> <r_lp_Energy>
20.9474

> <b_lp_Chiralities_Consistent>
1

> <s_lp_Variant>
AV-unprocessed.smi:3151-2

> <Gold.Version>
5.8.1

> <Gold.Id.Protein>
6NUR|6NUR_protein|mol2

> <Gold.PLP.Fitness>
41.8665

> <Gold.PLP.PLP>
-34.7528

> <Gold.PLP.part.hbond>
-1.9893

> <Gold.PLP.part.metal>
0.0000

> <Gold.PLP.part.buried>
-2.7589

> <Gold.PLP.part.nonpolar>
-29.7327

> <Gold.PLP.part.repulsive>
0.2246

> <Gold.PLP.ligand.clash>
0.0000

> <Gold.PLP.ligand.torsion>
0.9650

> <Gold.PLP.Chemscore.Hbond>
2.0000

> <Gold.PLP.Chemscore.CHOScore>
1.0000

> <Gold.PLP.Chemscore.Metal>
0.0000

> <Gold.Chemscore.Hbonds>
donor molecule, donor type, donor heavy atom, donor atom, acceptor molecule, acceptor atom, score
      P1  H  7989  7998       L1    15  1.00
      P1  H  7997  8008       L1     1  1.00
      L1  C    14    34       P1  7949  0.99

> <Gold.PLP.Chemscore.Internal.Correction>
0.0436

> <Gold.Rescore>
     Score         DG    S(hbond)    S(metal)    S(lipo)     H(rot)  DE(clash)    DE(int)     intcor
     16.67     -17.36       1.97        0.00      88.80       1.99       0.08       0.60       ----

> <Gold.Chemscore.Fitness>
16.6703

> <Gold.Chemscore.DG>
-17.3594

> <Gold.Chemscore.ZeroCoef>
-5.4800

> <Gold.Chemscore.Hbond>
1.9727

> <Gold.Chemscore.Metal>
0.0000

> <Gold.Chemscore.Lipo>
88.8048

> <Gold.Chemscore.Internal_Hbond>
0.0000

> <Gold.Chemscore.DEClash>
0.0847

> <Gold.Chemscore.DEInternal>
0.6045

> <Gold.Chemscore.Rot>
1.9920

> <Gold.Chemscore.Internal.Correction>
   9.000000E+99

> <Gold.Chemscore.Hbonds>
donor molecule, donor type, donor heavy atom, donor atom, acceptor molecule, acceptor atom, score
      P1  H  7989  7998       L1    15  0.96
      P1  H  7997  8008       L1     1  0.92

> <Gold.Chemscore.Hbond.Weighted>
-6.5888

> <Gold.Chemscore.Metal.Weighted>
-0.0000

> <Gold.Chemscore.Lipo.Weighted>
-10.3902

> <Gold.Chemscore.Internal_Hbond.Weighted>
0.0000

> <Gold.Chemscore.DEClash.Weighted>
0.0847

> <Gold.Chemscore.DEInternal.Weighted>
0.6045

> <Gold.Chemscore.Rot.Weighted>
5.0996

> <Gold.Chemscore.Internal.Correction.Weighted>
   9.000000E+99

> <Gold.Protein.RotatedTorsions>
[ 6907 6896 6895 6894 ] final   36.03 input  -60.11 | X-H torsion
[ 7974 7965 7964 7962 ] final  -44.13 input  175.53 | X-H torsion
[ 8008 7997 7996 7995 ] final -112.88 input   59.86 | X-H torsion
[ 10167 10162 10161 10158 ] final   44.59 input  -65.29 | X-H torsion
[ 10718 10713 10712 10709 ] final  147.86 input   66.30 | X-H torsion
[ 10763 10752 10751 10750 ] final  -57.78 input  -60.55 | X-H torsion
[ 11005 11000 10999 10996 ] final   74.61 input  -57.11 | X-H torsion

> <Gold.Protein.ActiveResidues>
 VAL166  LYS551  ARG553  GLY616  TRP617  ASP618  TYR619  PRO620  LYS621  CYS622 
 ASP623  PHE694  ASN695  SER759  ASP760  ASP761  ALA762  ILE779  LEU786  VAL792 
 PHE793  MET794  SER795  GLU796  ALA797  LYS798  CYS799  TRP800  GLU811  SER814 

> <Gold.Protein.RotatedAtoms>
  152.1242  134.9183  160.0561 H   0  0  0  0  0  0  0  0  0  0  0  0  # atno 6907 bound_to 6896
  152.0312  133.3933  159.4306 H   0  0  0  0  0  0  0  0  0  0  0  0  # atno 6908 bound_to 6896
  150.6851  134.3440  159.4924 H   0  0  0  0  0  0  0  0  0  0  0  0  # atno 6909 bound_to 6896
  145.9951  140.7137  142.9298 H   0  0  0  0  0  0  0  0  0  0  0  0  # atno 7974 bound_to 7965
  155.0120  140.0393  157.2403 H   0  0  0  0  0  0  0  0  0  0  0  0  # atno 8008 bound_to 7997
  154.7452  140.2756  155.6316 H   0  0  0  0  0  0  0  0  0  0  0  0  # atno 8009 bound_to 7997
  156.2873  140.2657  156.2190 H   0  0  0  0  0  0  0  0  0  0  0  0  # atno 8010 bound_to 7997
  140.3328  144.2567  150.6166 H   0  0  0  0  0  0  0  0  0  0  0  0  # atno 10167 bound_to 10162
  157.3158  131.0895  151.1280 H   0  0  0  0  0  0  0  0  0  0  0  0  # atno 10718 bound_to 10713
  154.2278  135.6366  153.5165 H   0  0  0  0  0  0  0  0  0  0  0  0  # atno 10763 bound_to 10752
  152.9955  135.5512  154.6045 H   0  0  0  0  0  0  0  0  0  0  0  0  # atno 10764 bound_to 10752
  154.5521  135.2902  155.0973 H   0  0  0  0  0  0  0  0  0  0  0  0  # atno 10765 bound_to 10752
  139.9383  134.7447  156.1169 H   0  0  0  0  0  0  0  0  0  0  0  0  # atno 11005 bound_to 11000
  144.6901  140.3137  143.7244 LP  0  0  0  0  0  0  0  0  0  0  0  0  # atno 17320 bound_to 7965
  145.7572  139.1812  143.2288 LP  0  0  0  0  0  0  0  0  0  0  0  0  # atno 17321 bound_to 7965
  140.5381  143.2229  151.8129 LP  0  0  0  0  0  0  0  0  0  0  0  0  # atno 17342 bound_to 10162
  139.4853  144.4635  151.9512 LP  0  0  0  0  0  0  0  0  0  0  0  0  # atno 17343 bound_to 10162
  157.2585  130.6647  149.5963 LP  0  0  0  0  0  0  0  0  0  0  0  0  # atno 17370 bound_to 10713
  155.9681  130.4516  150.5742 LP  0  0  0  0  0  0  0  0  0  0  0  0  # atno 17371 bound_to 10713
  141.1006  133.6678  156.2746 LP  0  0  0  0  0  0  0  0  0  0  0  0  # atno 17394 bound_to 11000
  140.6019  134.5546  157.5519 LP  0  0  0  0  0  0  0  0  0  0  0  0  # atno 17395 bound_to 11000

$$$$
