AV-unprocessed.smi:2706|AV-procd|sdf|10455|dock2
  -GOLD-   2272014493D 1   1.00000     0.00000
 Structure written by MMmdl.
 43 46  0  0  0  0  0  0  0  0  1 V2000
  154.3382  140.9379  161.5641 C   0  0  0  0  0  0  0  0  0  0  0  0
  153.6018  140.8860  160.3126 N   0  0  0  0  0  0  0  0  0  0  0  0
  153.3215  139.5575  159.7952 C   0  0  0  0  0  0  0  0  0  0  0  0
  152.9558  142.0010  159.8138 C   0  0  0  0  0  0  0  0  0  0  0  0
  153.0095  143.1582  160.5004 C   0  0  0  0  0  0  0  0  0  0  0  0
  152.3339  144.3291  159.9811 C   0  0  0  0  0  0  0  0  0  0  0  0
  151.6505  144.2803  158.8193 C   0  0  0  0  0  0  0  0  0  0  0  0
  151.5687  143.0510  158.0489 C   0  0  0  0  0  0  0  0  0  0  0  0
  150.9024  143.0321  156.9306 N   0  0  0  0  0  0  0  0  0  0  0  0
  150.7827  141.8920  156.1429 C   0  0  0  0  0  0  0  0  0  0  0  0
  151.5050  140.8910  156.1147 O   0  0  0  0  0  0  0  0  0  0  0  0
  149.7081  142.0051  155.3501 N   0  0  0  0  0  0  0  0  0  0  0  0
  149.2502  141.0433  154.3994 C   0  0  2  0  0  0  0  0  0  0  0  0
  147.8380  141.0962  153.8452 C   0  0  2  0  0  0  0  0  0  0  0  0
  146.5293  141.5960  154.4682 C   0  0  2  0  0  0  0  0  0  0  0  0
  146.7337  142.3397  155.8036 C   0  0  0  0  0  0  0  0  0  0  0  0
  147.1516  141.1986  156.7566 C   0  0  0  0  0  0  0  0  0  0  0  0
  147.1259  139.9673  155.8288 C   0  0  1  0  0  0  0  0  0  0  0  0
  145.9108  140.2954  154.9684 C   0  0  0  0  0  0  0  0  0  0  0  0
  148.2512  139.9682  154.7875 C   0  0  2  0  0  0  0  0  0  0  0  0
  152.2484  141.9551  158.6136 N   0  0  0  0  0  0  0  0  0  0  0  0
  154.7206  141.9429  161.7461 H   0  0  0  0  0  0  0  0  0  0  0  0
  155.1860  140.2525  161.5450 H   0  0  0  0  0  0  0  0  0  0  0  0
  153.6893  140.6626  162.3959 H   0  0  0  0  0  0  0  0  0  0  0  0
  153.0008  139.6080  158.7542 H   0  0  0  0  0  0  0  0  0  0  0  0
  152.5280  139.0859  160.3753 H   0  0  0  0  0  0  0  0  0  0  0  0
  154.2088  138.9258  159.8448 H   0  0  0  0  0  0  0  0  0  0  0  0
  153.5513  143.2200  161.4333 H   0  0  0  0  0  0  0  0  0  0  0  0
  152.3782  145.2561  160.5335 H   0  0  0  0  0  0  0  0  0  0  0  0
  151.1672  145.1861  158.4830 H   0  0  0  0  0  0  0  0  0  0  0  0
  149.1623  142.8516  155.4262 H   0  0  0  0  0  0  0  0  0  0  0  0
  149.9981  140.7154  153.6791 H   0  0  0  0  0  0  0  0  0  0  0  0
  147.7360  140.8213  152.7968 H   0  0  0  0  0  0  0  0  0  0  0  0
  145.9178  142.1412  153.7488 H   0  0  0  0  0  0  0  0  0  0  0  0
  147.4568  143.1513  155.7364 H   0  0  0  0  0  0  0  0  0  0  0  0
  145.7943  142.7810  156.1388 H   0  0  0  0  0  0  0  0  0  0  0  0
  148.1158  141.3521  157.2393 H   0  0  0  0  0  0  0  0  0  0  0  0
  146.4143  141.0882  157.5529 H   0  0  0  0  0  0  0  0  0  0  0  0
  147.0622  139.0167  156.3589 H   0  0  0  0  0  0  0  0  0  0  0  0
  144.9896  140.4338  155.5379 H   0  0  0  0  0  0  0  0  0  0  0  0
  145.7340  139.5674  154.1744 H   0  0  0  0  0  0  0  0  0  0  0  0
  148.4044  138.9965  154.3212 H   0  0  0  0  0  0  0  0  0  0  0  0
  152.2448  141.0603  158.1456 H   0  0  0  0  0  0  0  0  0  0  0  0
  1  2  1  0  0  0  0
  1 22  1  0  0  0  0
  1 23  1  0  0  0  0
  1 24  1  0  0  0  0
  2  3  1  0  0  0  0
  2  4  1  0  0  0  0
  3 25  1  0  0  0  0
  3 26  1  0  0  0  0
  3 27  1  0  0  0  0
  4 21  1  0  0  0  0
  4  5  2  0  0  0  0
  5  6  1  0  0  0  0
  5 28  1  0  0  0  0
  6  7  2  0  0  0  0
  6 29  1  0  0  0  0
  7  8  1  0  0  0  0
  7 30  1  0  0  0  0
  8  9  2  0  0  0  0
  8 21  1  0  0  0  0
  9 10  1  0  0  0  0
 10 11  2  0  0  0  0
 10 12  1  0  0  0  0
 12 13  1  0  0  0  0
 12 31  1  0  0  0  0
 13 20  1  0  0  0  0
 13 14  1  0  0  0  0
 13 32  1  0  0  0  0
 14 20  1  0  0  0  0
 14 15  1  0  0  0  0
 14 33  1  0  0  0  0
 15 19  1  0  0  0  0
 15 16  1  0  0  0  0
 15 34  1  0  0  0  0
 16 17  1  0  0  0  0
 16 35  1  0  0  0  0
 16 36  1  0  0  0  0
 17 18  1  0  0  0  0
 17 37  1  0  0  0  0
 17 38  1  0  0  0  0
 18 19  1  0  0  0  0
 18 20  1  0  0  0  0
 18 39  1  0  0  0  0
 19 40  1  0  0  0  0
 19 41  1  0  0  0  0
 20 42  1  0  0  0  0
 21 43  1  0  0  0  0
M  END
> <s_m_source_file>
AV-unprocessed.smi

> <i_m_source_file_index>
2706

> <i_lp_mmshare_version>
43012

> <i_f3d_flags>
0

> <s_epik_input>
W0NIM11OKFtDSDNdKWMxW2NIXVtjSF1bY0hdYyhuMSlbTkhdQyg9TylbTkhdW0NASF0yW0NAQEhdM1tDQEBIXShbQ0gyXTQpW0NIMl1bQ0gyXVtDQEBIXTRbQ0BIXTIz

> <s_epik_cmdline>
J2VwaWtfcHl0aG9uJywgJy1waCcsICc3LjAnLCAnLXRuJywgJzgnLCAnLW1hJywgJzIwMCcsICctbWV0YWxfYmluZGluZycsICctaW1hZScsICc8aW5maWxlLm1hZT4nLCAnLW9tYWUnLCAnPG91dGZpbGUubWFlPic=

> <r_lp_tautomer_probability>
0.999994

> <r_epik_Ionization_Penalty>
2.07242

> <r_epik_Ionization_Penalty_Charging>
2.07242

> <r_epik_Ionization_Penalty_Neutral>
9.73808e-07

> <r_epik_State_Penalty>
3.96009

> <r_epik_Charging_Adjusted_Penalty>
6.03251

> <i_epik_Tot_Q>
0

> <i_epik_Tot_abs_Q>
0

> <r_epik_Metal_State_Penalty>
3.98849

> <b_epik_Metal_Only>
1

> <s_lp_Force_Field>
OPLS_2005

> <r_lp_Energy>
108.692

> <b_lp_Chiralities_Consistent>
1

> <s_lp_Variant>
AV-unprocessed.smi:2706-12

> <Gold.Version>
5.8.1

> <Gold.Id.Protein>
6NUR|6NUR_protein|mol2

> <Gold.PLP.Fitness>
43.6488

> <Gold.PLP.PLP>
-41.3869

> <Gold.PLP.part.hbond>
-1.0000

> <Gold.PLP.part.metal>
0.0000

> <Gold.PLP.part.buried>
-5.1677

> <Gold.PLP.part.nonpolar>
-36.6958

> <Gold.PLP.part.repulsive>
1.7678

> <Gold.PLP.ligand.clash>
0.0000

> <Gold.PLP.ligand.torsion>
0.4535

> <Gold.PLP.Chemscore.Hbond>
1.0000

> <Gold.PLP.Chemscore.CHOScore>
0.0000

> <Gold.PLP.Chemscore.Metal>
0.0000

> <Gold.Chemscore.Hbonds>
donor molecule, donor type, donor heavy atom, donor atom, acceptor molecule, acceptor atom, score
      L1  H    12    31       P1  8028  1.00

> <Gold.PLP.Chemscore.Internal.Correction>
0.1688

> <Gold.Rescore>
     Score         DG    S(hbond)    S(metal)    S(lipo)     H(rot)  DE(clash)    DE(int)     intcor
     15.58     -16.97       1.00        0.00      91.65       1.00       0.96       0.42       ----

> <Gold.Chemscore.Fitness>
15.5845

> <Gold.Chemscore.DG>
-16.9722

> <Gold.Chemscore.ZeroCoef>
-5.4800

> <Gold.Chemscore.Hbond>
0.9967

> <Gold.Chemscore.Metal>
0.0000

> <Gold.Chemscore.Lipo>
91.6525

> <Gold.Chemscore.Internal_Hbond>
0.0000

> <Gold.Chemscore.DEClash>
0.9629

> <Gold.Chemscore.DEInternal>
0.4248

> <Gold.Chemscore.Rot>
1.0000

> <Gold.Chemscore.Internal.Correction>
   9.000000E+99

> <Gold.Chemscore.Hbonds>
donor molecule, donor type, donor heavy atom, donor atom, acceptor molecule, acceptor atom, score
      L1  H    12    31       P1  8028  0.98

> <Gold.Chemscore.Hbond.Weighted>
-3.3288

> <Gold.Chemscore.Metal.Weighted>
-0.0000

> <Gold.Chemscore.Lipo.Weighted>
-10.7233

> <Gold.Chemscore.Internal_Hbond.Weighted>
0.0000

> <Gold.Chemscore.DEClash.Weighted>
0.9629

> <Gold.Chemscore.DEInternal.Weighted>
0.4248

> <Gold.Chemscore.Rot.Weighted>
2.5600

> <Gold.Chemscore.Internal.Correction.Weighted>
   9.000000E+99

> <Gold.Protein.RotatedTorsions>
[ 6907 6896 6895 6894 ] final  -53.30 input  -60.11 | X-H torsion
[ 7974 7965 7964 7962 ] final   40.08 input  175.53 | X-H torsion
[ 8008 7997 7996 7995 ] final  129.73 input   59.86 | X-H torsion
[ 10167 10162 10161 10158 ] final  -79.80 input  -65.29 | X-H torsion
[ 10718 10713 10712 10709 ] final   64.44 input   66.30 | X-H torsion
[ 10763 10752 10751 10750 ] final -121.47 input  -60.55 | X-H torsion
[ 11005 11000 10999 10996 ] final -170.05 input  -57.11 | X-H torsion

> <Gold.Protein.ActiveResidues>
 VAL166  LYS551  ARG553  GLY616  TRP617  ASP618  TYR619  PRO620  LYS621  CYS622 
 ASP623  PHE694  ASN695  SER759  ASP760  ASP761  ALA762  ILE779  LEU786  VAL792 
 PHE793  MET794  SER795  GLU796  ALA797  LYS798  CYS799  TRP800  GLU811  SER814 

> <Gold.Protein.RotatedAtoms>
  150.8439  134.7741  159.6954 H   0  0  0  0  0  0  0  0  0  0  0  0  # atno 6907 bound_to 6896
  152.4520  134.5369  159.9837 H   0  0  0  0  0  0  0  0  0  0  0  0  # atno 6908 bound_to 6896
  151.5503  133.3380  159.2987 H   0  0  0  0  0  0  0  0  0  0  0  0  # atno 6909 bound_to 6896
  146.0933  139.5575  142.9461 H   0  0  0  0  0  0  0  0  0  0  0  0  # atno 7974 bound_to 7965
  156.2941  140.2613  156.2646 H   0  0  0  0  0  0  0  0  0  0  0  0  # atno 8008 bound_to 7997
  154.9755  140.0390  157.2272 H   0  0  0  0  0  0  0  0  0  0  0  0  # atno 8009 bound_to 7997
  154.7819  140.2796  155.6061 H   0  0  0  0  0  0  0  0  0  0  0  0  # atno 8010 bound_to 7997
  140.4561  143.2468  151.8418 H   0  0  0  0  0  0  0  0  0  0  0  0  # atno 10167 bound_to 10162
  157.6040  130.9160  149.9846 H   0  0  0  0  0  0  0  0  0  0  0  0  # atno 10718 bound_to 10713
  154.8669  135.4167  154.2625 H   0  0  0  0  0  0  0  0  0  0  0  0  # atno 10763 bound_to 10752
  153.3551  135.7000  153.6763 H   0  0  0  0  0  0  0  0  0  0  0  0  # atno 10764 bound_to 10752
  153.5687  135.3595  155.2801 H   0  0  0  0  0  0  0  0  0  0  0  0  # atno 10765 bound_to 10752
  140.5238  134.5683  157.5055 H   0  0  0  0  0  0  0  0  0  0  0  0  # atno 11005 bound_to 11000
  145.5996  141.0357  143.2025 LP  0  0  0  0  0  0  0  0  0  0  0  0  # atno 17320 bound_to 7965
  144.7376  139.7539  143.7323 LP  0  0  0  0  0  0  0  0  0  0  0  0  # atno 17321 bound_to 7965
  139.4801  144.5063  151.8992 LP  0  0  0  0  0  0  0  0  0  0  0  0  # atno 17342 bound_to 10162
  140.4150  144.2319  150.5888 LP  0  0  0  0  0  0  0  0  0  0  0  0  # atno 17343 bound_to 10162
  156.1121  130.3649  150.0032 LP  0  0  0  0  0  0  0  0  0  0  0  0  # atno 17370 bound_to 10713
  156.8128  130.9331  151.3643 LP  0  0  0  0  0  0  0  0  0  0  0  0  # atno 17371 bound_to 10713
  139.9591  134.7483  156.0276 LP  0  0  0  0  0  0  0  0  0  0  0  0  # atno 17394 bound_to 11000
  141.1319  133.6584  156.3489 LP  0  0  0  0  0  0  0  0  0  0  0  0  # atno 17395 bound_to 11000

$$$$
