AV-unprocessed.smi:2653|AV-procd|sdf|10296|dock1
  -GOLD-   2272014313D 1   1.00000     0.00000
 Structure written by MMmdl.
 31 32  0  0  0  0  0  0  0  0  1 V2000
  146.9677  139.5052  151.5203 C   0  0  0  0  0  0  0  0  0  0  0  0
  146.9983  138.8920  152.9248 C   0  0  0  0  0  0  0  0  0  0  0  0
  148.0283  139.5481  153.8030 C   0  0  0  0  0  0  0  0  0  0  0  0
  149.0028  138.8054  154.3213 N   0  0  0  0  0  0  0  0  0  0  0  0
  149.7395  139.6716  155.0402 N   0  0  0  0  0  0  0  0  0  0  0  0
  149.2388  140.9506  154.9548 C   0  0  0  0  0  0  0  0  0  0  0  0
  149.7188  142.0633  155.5763 N   0  0  0  0  0  0  0  0  0  0  0  0
  150.7266  142.2140  156.4619 C   0  0  0  0  0  0  0  0  0  0  0  0
  151.3763  141.2464  156.8545 O   0  0  0  0  0  0  0  0  0  0  0  0
  150.9499  143.4672  156.8921 N   0  0  0  0  0  0  0  0  0  0  0  0
  151.9491  143.8610  157.8310 C   0  0  0  0  0  0  0  0  0  0  0  0
  151.8900  143.2478  159.2134 C   0  0  0  0  0  0  0  0  0  0  0  0
  151.5087  144.6893  159.0187 C   0  0  0  0  0  0  0  0  0  0  0  0
  148.1177  140.9262  154.1753 C   0  0  0  0  0  0  0  0  0  0  0  0
  147.1954  142.0498  153.7861 C   0  0  0  0  0  0  0  0  0  0  0  0
  150.5485  139.3792  155.5693 H   0  0  0  0  0  0  0  0  0  0  0  0
  146.2136  139.0197  150.9007 H   0  0  0  0  0  0  0  0  0  0  0  0
  147.9307  139.3949  151.0206 H   0  0  0  0  0  0  0  0  0  0  0  0
  146.7310  140.5688  151.5617 H   0  0  0  0  0  0  0  0  0  0  0  0
  146.0106  138.9794  153.3783 H   0  0  0  0  0  0  0  0  0  0  0  0
  147.1982  137.8225  152.8484 H   0  0  0  0  0  0  0  0  0  0  0  0
  149.1993  142.9069  155.3813 H   0  0  0  0  0  0  0  0  0  0  0  0
  150.3516  144.1986  156.5374 H   0  0  0  0  0  0  0  0  0  0  0  0
  152.9455  144.0703  157.4444 H   0  0  0  0  0  0  0  0  0  0  0  0
  151.0893  142.5412  159.4240 H   0  0  0  0  0  0  0  0  0  0  0  0
  152.8354  143.0406  159.7107 H   0  0  0  0  0  0  0  0  0  0  0  0
  152.1994  145.4458  159.3859 H   0  0  0  0  0  0  0  0  0  0  0  0
  150.4536  144.9448  159.0988 H   0  0  0  0  0  0  0  0  0  0  0  0
  147.6461  143.0290  153.9488 H   0  0  0  0  0  0  0  0  0  0  0  0
  146.2690  142.0230  154.3594 H   0  0  0  0  0  0  0  0  0  0  0  0
  146.9228  141.9984  152.7319 H   0  0  0  0  0  0  0  0  0  0  0  0
  1  2  1  0  0  0  0
  1 17  1  0  0  0  0
  1 18  1  0  0  0  0
  1 19  1  0  0  0  0
  2 20  1  0  0  0  0
  2 21  1  0  0  0  0
  2  3  1  0  0  0  0
  3  4  2  0  0  0  0
  3 14  1  0  0  0  0
  4  5  1  0  0  0  0
  5 16  1  0  0  0  0
  5  6  1  0  0  0  0
  6  7  1  0  0  0  0
  6 14  2  0  0  0  0
  7  8  1  0  0  0  0
  7 22  1  0  0  0  0
  8  9  2  0  0  0  0
  8 10  1  0  0  0  0
 10 11  1  0  0  0  0
 10 23  1  0  0  0  0
 11 13  1  0  0  0  0
 11 12  1  0  0  0  0
 11 24  1  0  0  0  0
 12 13  1  0  0  0  0
 12 25  1  0  0  0  0
 12 26  1  0  0  0  0
 13 27  1  0  0  0  0
 13 28  1  0  0  0  0
 14 15  1  0  0  0  0
 15 29  1  0  0  0  0
 15 30  1  0  0  0  0
 15 31  1  0  0  0  0
M  END
> <s_m_source_file>
AV-unprocessed.smi

> <i_m_source_file_index>
2653

> <i_lp_mmshare_version>
43012

> <i_f3d_flags>
0

> <s_epik_input>
W0NIM11bQ0gyXWMxW25IXW5jKGMxW0NIM10pW05IXUMoPU8pW05IXVtDSF0yW0NIMl1bQ0gyXTI=

> <s_epik_cmdline>
J2VwaWtfcHl0aG9uJywgJy1waCcsICc3LjAnLCAnLXRuJywgJzgnLCAnLW1hJywgJzIwMCcsICctbWV0YWxfYmluZGluZycsICctaW1hZScsICc8aW5maWxlLm1hZT4nLCAnLW9tYWUnLCAnPG91dGZpbGUubWFlPic=

> <r_lp_tautomer_probability>
0.5

> <r_epik_Ionization_Penalty>
6.45879e-05

> <r_epik_Ionization_Penalty_Charging>
0

> <r_epik_Ionization_Penalty_Neutral>
6.45879e-05

> <r_epik_State_Penalty>
0.41068

> <r_epik_Charging_Adjusted_Penalty>
0.41068

> <i_epik_Tot_Q>
0

> <i_epik_Tot_abs_Q>
0

> <r_epik_Metal_State_Penalty>
0.410665

> <b_epik_Metal_Only>
0

> <s_lp_Force_Field>
OPLS_2005

> <r_lp_Energy>
17.9348

> <b_lp_Chiralities_Consistent>
1

> <s_lp_Variant>
AV-unprocessed.smi:2653-2

> <Gold.Version>
5.8.1

> <Gold.Id.Protein>
6NUR|6NUR_protein|mol2

> <Gold.PLP.Fitness>
37.8606

> <Gold.PLP.PLP>
-31.9239

> <Gold.PLP.part.hbond>
-2.0000

> <Gold.PLP.part.metal>
0.0000

> <Gold.PLP.part.buried>
-1.7060

> <Gold.PLP.part.nonpolar>
-29.0885

> <Gold.PLP.part.repulsive>
0.4827

> <Gold.PLP.ligand.clash>
0.0000

> <Gold.PLP.ligand.torsion>
0.0385

> <Gold.PLP.Chemscore.Hbond>
1.9920

> <Gold.PLP.Chemscore.CHOScore>
0.0000

> <Gold.PLP.Chemscore.Metal>
0.0000

> <Gold.Chemscore.Hbonds>
donor molecule, donor type, donor heavy atom, donor atom, acceptor molecule, acceptor atom, score
      L1  H     7    22       P1  8028  1.00
      L1  H    10    23       P1  8028  1.00

> <Gold.PLP.Chemscore.Internal.Correction>
0.0377

> <Gold.Rescore>
     Score         DG    S(hbond)    S(metal)    S(lipo)     H(rot)  DE(clash)    DE(int)     intcor
     15.60     -17.14       1.92        0.00      71.36       1.21       0.10       1.45       ----

> <Gold.Chemscore.Fitness>
15.5995

> <Gold.Chemscore.DG>
-17.1440

> <Gold.Chemscore.ZeroCoef>
-5.4800

> <Gold.Chemscore.Hbond>
1.9222

> <Gold.Chemscore.Metal>
0.0000

> <Gold.Chemscore.Lipo>
71.3560

> <Gold.Chemscore.Internal_Hbond>
0.0000

> <Gold.Chemscore.DEClash>
0.0965

> <Gold.Chemscore.DEInternal>
1.4480

> <Gold.Chemscore.Rot>
1.2129

> <Gold.Chemscore.Internal.Correction>
   9.000000E+99

> <Gold.Chemscore.Hbonds>
donor molecule, donor type, donor heavy atom, donor atom, acceptor molecule, acceptor atom, score
      L1  H     7    22       P1  8028  0.95
      L1  H    10    23       P1  8028  0.96

> <Gold.Chemscore.Hbond.Weighted>
-6.4203

> <Gold.Chemscore.Metal.Weighted>
-0.0000

> <Gold.Chemscore.Lipo.Weighted>
-8.3486

> <Gold.Chemscore.Internal_Hbond.Weighted>
0.0000

> <Gold.Chemscore.DEClash.Weighted>
0.0965

> <Gold.Chemscore.DEInternal.Weighted>
1.4480

> <Gold.Chemscore.Rot.Weighted>
3.1049

> <Gold.Chemscore.Internal.Correction.Weighted>
   9.000000E+99

> <Gold.Protein.RotatedTorsions>
[ 6907 6896 6895 6894 ] final  -93.62 input  -60.11 | X-H torsion
[ 7974 7965 7964 7962 ] final   68.90 input  175.53 | X-H torsion
[ 8008 7997 7996 7995 ] final  -64.49 input   59.86 | X-H torsion
[ 10167 10162 10161 10158 ] final   43.49 input  -65.29 | X-H torsion
[ 10718 10713 10712 10709 ] final  154.93 input   66.30 | X-H torsion
[ 10763 10752 10751 10750 ] final  -77.60 input  -60.55 | X-H torsion
[ 11005 11000 10999 10996 ] final   84.63 input  -57.11 | X-H torsion

> <Gold.Protein.ActiveResidues>
 VAL166  LYS551  ARG553  GLY616  TRP617  ASP618  TYR619  PRO620  LYS621  CYS622 
 ASP623  PHE694  ASN695  SER759  ASP760  ASP761  ALA762  ILE779  LEU786  VAL792 
 PHE793  MET794  SER795  GLU796  ALA797  LYS798  CYS799  TRP800  GLU811  SER814 

> <Gold.Protein.RotatedAtoms>
  150.6926  134.1939  159.4295 H   0  0  0  0  0  0  0  0  0  0  0  0  # atno 6907 bound_to 6896
  151.9909  134.9977  160.0570 H   0  0  0  0  0  0  0  0  0  0  0  0  # atno 6908 bound_to 6896
  152.1669  133.4583  159.4926 H   0  0  0  0  0  0  0  0  0  0  0  0  # atno 6909 bound_to 6896
  145.7969  139.2962  143.1177 H   0  0  0  0  0  0  0  0  0  0  0  0  # atno 7974 bound_to 7965
  154.4615  140.0953  156.6904 H   0  0  0  0  0  0  0  0  0  0  0  0  # atno 8008 bound_to 7997
  155.4982  140.3473  155.4348 H   0  0  0  0  0  0  0  0  0  0  0  0  # atno 8009 bound_to 7997
  156.0878  140.1389  156.9619 H   0  0  0  0  0  0  0  0  0  0  0  0  # atno 8010 bound_to 7997
  140.3438  144.2437  150.6152 H   0  0  0  0  0  0  0  0  0  0  0  0  # atno 10167 bound_to 10162
  157.2251  131.0727  151.1888 H   0  0  0  0  0  0  0  0  0  0  0  0  # atno 10718 bound_to 10713
  154.5150  135.5758  153.6635 H   0  0  0  0  0  0  0  0  0  0  0  0  # atno 10763 bound_to 10752
  152.9905  135.6168  154.2829 H   0  0  0  0  0  0  0  0  0  0  0  0  # atno 10764 bound_to 10752
  154.2746  135.2852  155.2703 H   0  0  0  0  0  0  0  0  0  0  0  0  # atno 10765 bound_to 10752
  139.8994  134.8230  156.2472 H   0  0  0  0  0  0  0  0  0  0  0  0  # atno 11005 bound_to 11000
  145.9918  140.8596  143.0062 LP  0  0  0  0  0  0  0  0  0  0  0  0  # atno 17320 bound_to 7965
  144.6774  140.2227  143.7364 LP  0  0  0  0  0  0  0  0  0  0  0  0  # atno 17321 bound_to 7965
  140.5284  143.2249  151.8278 LP  0  0  0  0  0  0  0  0  0  0  0  0  # atno 17342 bound_to 10162
  139.4836  144.4751  151.9377 LP  0  0  0  0  0  0  0  0  0  0  0  0  # atno 17343 bound_to 10162
  157.3536  130.7095  149.6456 LP  0  0  0  0  0  0  0  0  0  0  0  0  # atno 17370 bound_to 10713
  155.9679  130.4245  150.4613 LP  0  0  0  0  0  0  0  0  0  0  0  0  # atno 17371 bound_to 10713
  141.0247  133.7022  156.1327 LP  0  0  0  0  0  0  0  0  0  0  0  0  # atno 17394 bound_to 11000
  140.7183  134.4386  157.5577 LP  0  0  0  0  0  0  0  0  0  0  0  0  # atno 17395 bound_to 11000

$$$$
