AV-unprocessed.smi:1974|AV-procd|sdf|7981|dock8
  -GOLD-   2272010163D 1   1.00000     0.00000
 Structure written by MMmdl.
 34 35  0  0  0  0  0  0  0  0  1 V2000
  151.1704  139.9562  155.6552 C   0  0  0  0  0  0  0  0  0  0  0  0
  151.6524  140.5633  156.9818 C   0  0  1  0  0  0  0  0  0  0  0  0
  150.7766  141.7580  157.4060 C   0  0  0  0  0  0  0  0  0  0  0  0
  151.5287  142.7600  158.1409 N   0  0  0  0  0  0  0  0  0  0  0  0
  151.6236  144.1124  157.8892 C   0  0  0  0  0  0  0  0  0  0  0  0
  152.4480  144.6452  158.8384 C   0  0  0  0  0  0  0  0  0  0  0  0
  152.8120  143.5253  159.6373 C   0  0  0  0  0  0  0  0  0  0  0  0
  152.2598  142.3983  159.2177 N   0  0  0  0  0  0  0  0  0  0  0  0
  151.6477  139.5409  158.0260 N   0  0  0  0  0  0  0  0  0  0  0  0
  152.7033  139.1838  158.7724 C   0  0  0  0  0  0  0  0  0  0  0  0
  153.8165  139.6994  158.6603 O   0  0  0  0  0  0  0  0  0  0  0  0
  152.4469  138.0912  159.8179 C   0  0  0  0  0  0  0  0  0  0  0  0
  153.5891  137.8694  160.7069 N   0  0  0  0  0  0  0  0  0  0  0  0
  154.1275  138.9893  161.4690 C   0  0  0  0  0  0  0  0  0  0  0  0
  155.0515  138.4230  162.5491 C   0  0  0  0  0  0  0  0  0  0  0  0
  155.5956  136.7918  162.0046 S   0  0  0  0  0  0  0  0  0  0  0  0
  154.2564  136.6560  160.8162 C   0  0  0  0  0  0  0  0  0  0  0  0
  154.0159  135.6106  160.2145 O   0  0  0  0  0  0  0  0  0  0  0  0
  151.1813  140.6992  154.8573 H   0  0  0  0  0  0  0  0  0  0  0  0
  150.1525  139.5737  155.7397 H   0  0  0  0  0  0  0  0  0  0  0  0
  151.8112  139.1310  155.3419 H   0  0  0  0  0  0  0  0  0  0  0  0
  152.6716  140.9274  156.8375 H   0  0  0  0  0  0  0  0  0  0  0  0
  150.3525  142.2415  156.5250 H   0  0  0  0  0  0  0  0  0  0  0  0
  149.9329  141.4243  158.0127 H   0  0  0  0  0  0  0  0  0  0  0  0
  151.1042  144.5765  157.0636 H   0  0  0  0  0  0  0  0  0  0  0  0
  152.7460  145.6777  158.9454 H   0  0  0  0  0  0  0  0  0  0  0  0
  153.4566  143.4981  160.5036 H   0  0  0  0  0  0  0  0  0  0  0  0
  150.7688  139.0740  158.1975 H   0  0  0  0  0  0  0  0  0  0  0  0
  151.5697  138.3732  160.4011 H   0  0  0  0  0  0  0  0  0  0  0  0
  152.1950  137.1541  159.3181 H   0  0  0  0  0  0  0  0  0  0  0  0
  154.6900  139.6294  160.7880 H   0  0  0  0  0  0  0  0  0  0  0  0
  153.3338  139.5933  161.9104 H   0  0  0  0  0  0  0  0  0  0  0  0
  155.9012  139.0760  162.7491 H   0  0  0  0  0  0  0  0  0  0  0  0
  154.5005  138.2984  163.4818 H   0  0  0  0  0  0  0  0  0  0  0  0
  1  2  1  0  0  0  0
  1 19  1  0  0  0  0
  1 20  1  0  0  0  0
  1 21  1  0  0  0  0
  2  3  1  0  0  0  0
  2  9  1  0  0  0  0
  2 22  1  0  0  0  0
  3  4  1  0  0  0  0
  3 23  1  0  0  0  0
  3 24  1  0  0  0  0
  4  8  1  0  0  0  0
  4  5  1  0  0  0  0
  5  6  2  0  0  0  0
  5 25  1  0  0  0  0
  6  7  1  0  0  0  0
  6 26  1  0  0  0  0
  7  8  2  0  0  0  0
  7 27  1  0  0  0  0
  9 10  1  0  0  0  0
  9 28  1  0  0  0  0
 10 11  2  0  0  0  0
 10 12  1  0  0  0  0
 12 13  1  0  0  0  0
 12 29  1  0  0  0  0
 12 30  1  0  0  0  0
 13 17  1  0  0  0  0
 13 14  1  0  0  0  0
 14 15  1  0  0  0  0
 14 31  1  0  0  0  0
 14 32  1  0  0  0  0
 15 16  1  0  0  0  0
 15 33  1  0  0  0  0
 15 34  1  0  0  0  0
 16 17  1  0  0  0  0
 17 18  2  0  0  0  0
M  END
> <s_m_source_file>
AV-unprocessed.smi

> <i_m_source_file_index>
1974

> <i_lp_mmshare_version>
43012

> <i_f3d_flags>
0

> <s_epik_input>
bjFbY0hdW2NIXVtjSF1uMVtDSDJdW0NAQEhdKFtDSDNdKVtOSF1DKD1PKVtDSDJdTjJbQ0gyXVtDSDJdU0MyPU8=

> <s_epik_cmdline>
J2VwaWtfcHl0aG9uJywgJy1waCcsICc3LjAnLCAnLXRuJywgJzgnLCAnLW1hJywgJzIwMCcsICctbWV0YWxfYmluZGluZycsICctaW1hZScsICc8aW5maWxlLm1hZT4nLCAnLW9tYWUnLCAnPG91dGZpbGUubWFlPic=

> <r_lp_tautomer_probability>
1

> <r_epik_Ionization_Penalty>
0.000283364

> <r_epik_Ionization_Penalty_Charging>
0

> <r_epik_Ionization_Penalty_Neutral>
0.000283364

> <r_epik_State_Penalty>
-0

> <r_epik_Charging_Adjusted_Penalty>
0

> <i_epik_Tot_Q>
0

> <i_epik_Tot_abs_Q>
0

> <r_epik_Metal_State_Penalty>
-0

> <b_epik_Metal_Only>
0

> <s_lp_Force_Field>
OPLS_2005

> <r_lp_Energy>
3.37474

> <b_lp_Chiralities_Consistent>
1

> <s_lp_Variant>
AV-unprocessed.smi:1974-2

> <Gold.Version>
5.8.1

> <Gold.Id.Protein>
6NUR|6NUR_protein|mol2

> <Gold.PLP.Fitness>
42.8913

> <Gold.PLP.PLP>
-34.8770

> <Gold.PLP.part.hbond>
-2.0000

> <Gold.PLP.part.metal>
0.0000

> <Gold.PLP.part.buried>
-3.0826

> <Gold.PLP.part.nonpolar>
-30.1766

> <Gold.PLP.part.repulsive>
0.0680

> <Gold.PLP.ligand.clash>
0.0000

> <Gold.PLP.ligand.torsion>
0.5146

> <Gold.PLP.Chemscore.Hbond>
2.0000

> <Gold.PLP.Chemscore.CHOScore>
1.0000

> <Gold.PLP.Chemscore.Metal>
0.0000

> <Gold.Chemscore.Hbonds>
donor molecule, donor type, donor heavy atom, donor atom, acceptor molecule, acceptor atom, score
      P1  H  6896  6907       L1    18  1.00
      P1  H  7997  8008       L1    11  1.00
      L1  C     5    25       P1  8028  0.85

> <Gold.PLP.Chemscore.Internal.Correction>
0.0435

> <Gold.Rescore>
     Score         DG    S(hbond)    S(metal)    S(lipo)     H(rot)  DE(clash)    DE(int)     intcor
     15.34     -16.86       2.00        0.00      84.84       2.04       0.07       1.45       ----

> <Gold.Chemscore.Fitness>
15.3399

> <Gold.Chemscore.DG>
-16.8606

> <Gold.Chemscore.ZeroCoef>
-5.4800

> <Gold.Chemscore.Hbond>
1.9993

> <Gold.Chemscore.Metal>
0.0000

> <Gold.Chemscore.Lipo>
84.8417

> <Gold.Chemscore.Internal_Hbond>
0.0000

> <Gold.Chemscore.DEClash>
0.0718

> <Gold.Chemscore.DEInternal>
1.4489

> <Gold.Chemscore.Rot>
2.0405

> <Gold.Chemscore.Internal.Correction>
   9.000000E+99

> <Gold.Chemscore.Hbonds>
donor molecule, donor type, donor heavy atom, donor atom, acceptor molecule, acceptor atom, score
      P1  H  6896  6907       L1    18  1.00
      P1  H  7997  8008       L1    11  1.00

> <Gold.Chemscore.Hbond.Weighted>
-6.6778

> <Gold.Chemscore.Metal.Weighted>
-0.0000

> <Gold.Chemscore.Lipo.Weighted>
-9.9265

> <Gold.Chemscore.Internal_Hbond.Weighted>
0.0000

> <Gold.Chemscore.DEClash.Weighted>
0.0718

> <Gold.Chemscore.DEInternal.Weighted>
1.4489

> <Gold.Chemscore.Rot.Weighted>
5.2237

> <Gold.Chemscore.Internal.Correction.Weighted>
   9.000000E+99

> <Gold.Protein.RotatedTorsions>
[ 6907 6896 6895 6894 ] final   56.50 input  -60.11 | X-H torsion
[ 7974 7965 7964 7962 ] final   23.57 input  175.53 | X-H torsion
[ 8008 7997 7996 7995 ] final -100.40 input   59.86 | X-H torsion
[ 10167 10162 10161 10158 ] final  113.79 input  -65.29 | X-H torsion
[ 10718 10713 10712 10709 ] final  116.17 input   66.30 | X-H torsion
[ 10763 10752 10751 10750 ] final  100.38 input  -60.55 | X-H torsion
[ 11005 11000 10999 10996 ] final   57.60 input  -57.11 | X-H torsion

> <Gold.Protein.ActiveResidues>
 VAL166  LYS551  ARG553  GLY616  TRP617  ASP618  TYR619  PRO620  LYS621  CYS622 
 ASP623  PHE694  ASN695  SER759  ASP760  ASP761  ALA762  ILE779  LEU786  VAL792 
 PHE793  MET794  SER795  GLU796  ALA797  LYS798  CYS799  TRP800  GLU811  SER814 

> <Gold.Protein.RotatedAtoms>
  152.3642  134.6828  160.0196 H   0  0  0  0  0  0  0  0  0  0  0  0  # atno 6907 bound_to 6896
  151.7141  133.3307  159.3306 H   0  0  0  0  0  0  0  0  0  0  0  0  # atno 6908 bound_to 6896
  150.7626  134.6440  159.6297 H   0  0  0  0  0  0  0  0  0  0  0  0  # atno 6909 bound_to 6896
  146.1978  139.7726  142.8784 H   0  0  0  0  0  0  0  0  0  0  0  0  # atno 7974 bound_to 7965
  154.8281  140.0441  157.1458 H   0  0  0  0  0  0  0  0  0  0  0  0  # atno 8008 bound_to 7997
  154.9183  140.3023  155.5209 H   0  0  0  0  0  0  0  0  0  0  0  0  # atno 8009 bound_to 7997
  156.2985  140.2345  156.4231 H   0  0  0  0  0  0  0  0  0  0  0  0  # atno 8010 bound_to 7997
  139.6435  144.7125  151.2188 H   0  0  0  0  0  0  0  0  0  0  0  0  # atno 10167 bound_to 10162
  157.6177  131.1022  150.7435 H   0  0  0  0  0  0  0  0  0  0  0  0  # atno 10718 bound_to 10713
  153.3132  135.4081  155.1354 H   0  0  0  0  0  0  0  0  0  0  0  0  # atno 10763 bound_to 10752
  154.8581  135.3569  154.5695 H   0  0  0  0  0  0  0  0  0  0  0  0  # atno 10764 bound_to 10752
  153.6125  135.7067  153.5400 H   0  0  0  0  0  0  0  0  0  0  0  0  # atno 10765 bound_to 10752
  140.0440  134.5832  155.9345 H   0  0  0  0  0  0  0  0  0  0  0  0  # atno 11005 bound_to 11000
  145.3586  141.0321  143.3298 LP  0  0  0  0  0  0  0  0  0  0  0  0  # atno 17320 bound_to 7965
  144.8617  139.5167  143.6809 LP  0  0  0  0  0  0  0  0  0  0  0  0  # atno 17321 bound_to 7965
  140.7503  143.6270  150.8459 LP  0  0  0  0  0  0  0  0  0  0  0  0  # atno 17342 bound_to 10162
  139.9910  143.5846  152.2910 LP  0  0  0  0  0  0  0  0  0  0  0  0  # atno 17343 bound_to 10162
  156.7798  130.4856  149.5403 LP  0  0  0  0  0  0  0  0  0  0  0  0  # atno 17370 bound_to 10713
  156.1307  130.6176  151.0329 LP  0  0  0  0  0  0  0  0  0  0  0  0  # atno 17371 bound_to 10713
  141.1898  133.6566  156.5382 LP  0  0  0  0  0  0  0  0  0  0  0  0  # atno 17394 bound_to 11000
  140.4022  134.7346  157.4787 LP  0  0  0  0  0  0  0  0  0  0  0  0  # atno 17395 bound_to 11000

$$$$
