AV-unprocessed.smi:1733|AV-procd|sdf|6979|dock3
  -GOLD-   22720 8193D 1   1.00000     0.00000
 Structure written by MMmdl.
 53 55  0  0  0  0  0  0  0  0  2 V2000
  144.5552  136.2967  152.6549 O   0  0  0  0  0  0  0  0  0  0  0  0
  145.7462  136.1440  152.3841 C   0  0  0  0  0  0  0  0  0  0  0  0
  146.2638  135.0852  151.7374 N   0  0  0  0  0  0  0  0  0  0  0  0
  145.5791  133.9685  151.1857 C   0  0  0  0  0  0  0  0  0  0  0  0
  144.1782  133.9076  151.3564 C   0  0  0  0  0  0  0  0  0  0  0  0
  143.4621  132.8079  150.8411 C   0  0  0  0  0  0  0  0  0  0  0  0
  144.1196  131.8180  150.1997 N   0  3  0  0  0  0  0  0  0  0  0  0
  145.4587  131.8243  150.0258 C   0  0  0  0  0  0  0  0  0  0  0  0
  146.2279  132.8982  150.5186 C   0  0  0  0  0  0  0  0  0  0  0  0
  146.7022  137.0199  152.7250 N   0  0  0  0  0  0  0  0  0  0  0  0
  146.4831  138.2716  153.4441 C   0  0  0  0  0  0  0  0  0  0  0  0
  147.0507  139.4464  152.6185 C   0  0  0  0  0  0  0  0  0  0  0  0
  147.0252  140.7568  153.4244 C   0  0  0  0  0  0  0  0  0  0  0  0
  147.7783  140.5549  154.6733 N   0  0  0  0  0  0  0  0  0  0  0  0
  149.0193  141.0298  154.9511 C   0  0  0  0  0  0  0  0  0  0  0  0
  149.8016  141.4225  154.0842 O   0  0  0  0  0  0  0  0  0  0  0  0
  149.3339  141.0468  156.2579 N   0  0  0  0  0  0  0  0  0  0  0  0
  150.5879  141.5302  156.8270 C   0  0  0  0  0  0  0  0  0  0  0  0
  151.1834  140.4480  157.7476 C   0  0  0  0  0  0  0  0  0  0  0  0
  152.4750  140.9322  158.4261 C   0  0  0  0  0  0  0  0  0  0  0  0
  152.2421  142.2402  159.1984 C   0  0  0  0  0  0  0  0  0  0  0  0
  151.6547  143.3257  158.2835 C   0  0  0  0  0  0  0  0  0  0  0  0
  150.3627  142.8445  157.6041 C   0  0  0  0  0  0  0  0  0  0  0  0
  147.1033  139.5833  155.5420 C   0  0  0  0  0  0  0  0  0  0  0  0
  147.1192  138.2063  154.8523 C   0  0  0  0  0  0  0  0  0  0  0  0
  147.2711  135.0516  151.6769 H   0  0  0  0  0  0  0  0  0  0  0  0
  143.6521  134.6984  151.8721 H   0  0  0  0  0  0  0  0  0  0  0  0
  142.3914  132.6902  150.9244 H   0  0  0  0  0  0  0  0  0  0  0  0
  145.8738  130.9726  149.5068 H   0  0  0  0  0  0  0  0  0  0  0  0
  147.2991  132.8744  150.3872 H   0  0  0  0  0  0  0  0  0  0  0  0
  147.6555  136.8089  152.4682 H   0  0  0  0  0  0  0  0  0  0  0  0
  145.4108  138.4412  153.5598 H   0  0  0  0  0  0  0  0  0  0  0  0
  148.0786  139.2313  152.3216 H   0  0  0  0  0  0  0  0  0  0  0  0
  146.4803  139.5654  151.6964 H   0  0  0  0  0  0  0  0  0  0  0  0
  147.3941  141.5792  152.8117 H   0  0  0  0  0  0  0  0  0  0  0  0
  145.9950  141.0222  153.6663 H   0  0  0  0  0  0  0  0  0  0  0  0
  148.6418  140.7075  156.9099 H   0  0  0  0  0  0  0  0  0  0  0  0
  151.2963  141.7145  156.0167 H   0  0  0  0  0  0  0  0  0  0  0  0
  150.4569  140.1732  158.5139 H   0  0  0  0  0  0  0  0  0  0  0  0
  151.3873  139.5415  157.1765 H   0  0  0  0  0  0  0  0  0  0  0  0
  152.8501  140.1632  159.1019 H   0  0  0  0  0  0  0  0  0  0  0  0
  153.2484  141.0853  157.6722 H   0  0  0  0  0  0  0  0  0  0  0  0
  151.5627  142.0575  160.0320 H   0  0  0  0  0  0  0  0  0  0  0  0
  153.1792  142.5882  159.6335 H   0  0  0  0  0  0  0  0  0  0  0  0
  151.4565  144.2302  158.8591 H   0  0  0  0  0  0  0  0  0  0  0  0
  152.3871  143.5977  157.5224 H   0  0  0  0  0  0  0  0  0  0  0  0
  149.9946  143.6224  156.9341 H   0  0  0  0  0  0  0  0  0  0  0  0
  149.5900  142.6984  158.3602 H   0  0  0  0  0  0  0  0  0  0  0  0
  147.5611  139.5099  156.5295 H   0  0  0  0  0  0  0  0  0  0  0  0
  146.0753  139.9035  155.7173 H   0  0  0  0  0  0  0  0  0  0  0  0
  146.5936  137.4766  155.4693 H   0  0  0  0  0  0  0  0  0  0  0  0
  148.1511  137.8593  154.7764 H   0  0  0  0  0  0  0  0  0  0  0  0
  143.5832  131.0300  149.8355 H   0  0  0  0  0  0  0  0  0  0  0  0
  1  2  2  0  0  0  0
  2  3  1  0  0  0  0
  2 10  1  0  0  0  0
  3  4  1  0  0  0  0
  3 26  1  0  0  0  0
  4  9  1  0  0  0  0
  4  5  2  0  0  0  0
  5  6  1  0  0  0  0
  5 27  1  0  0  0  0
  6  7  2  0  0  0  0
  6 28  1  0  0  0  0
  7  8  1  0  0  0  0
  7 53  1  0  0  0  0
  8  9  2  0  0  0  0
  8 29  1  0  0  0  0
  9 30  1  0  0  0  0
 10 11  1  0  0  0  0
 10 31  1  0  0  0  0
 11 25  1  0  0  0  0
 11 12  1  0  0  0  0
 11 32  1  0  0  0  0
 12 13  1  0  0  0  0
 12 33  1  0  0  0  0
 12 34  1  0  0  0  0
 13 14  1  0  0  0  0
 13 35  1  0  0  0  0
 13 36  1  0  0  0  0
 14 15  1  0  0  0  0
 14 24  1  0  0  0  0
 15 16  2  0  0  0  0
 15 17  1  0  0  0  0
 17 18  1  0  0  0  0
 17 37  1  0  0  0  0
 18 23  1  0  0  0  0
 18 19  1  0  0  0  0
 18 38  1  0  0  0  0
 19 20  1  0  0  0  0
 19 39  1  0  0  0  0
 19 40  1  0  0  0  0
 20 21  1  0  0  0  0
 20 41  1  0  0  0  0
 20 42  1  0  0  0  0
 21 22  1  0  0  0  0
 21 43  1  0  0  0  0
 21 44  1  0  0  0  0
 22 23  1  0  0  0  0
 22 45  1  0  0  0  0
 22 46  1  0  0  0  0
 23 47  1  0  0  0  0
 23 48  1  0  0  0  0
 24 25  1  0  0  0  0
 24 49  1  0  0  0  0
 24 50  1  0  0  0  0
 25 51  1  0  0  0  0
 25 52  1  0  0  0  0
M  CHG  1   7   1
M  END
> <s_m_source_file>
AV-unprocessed.smi

> <i_m_source_file_index>
1733

> <i_lp_mmshare_version>
43012

> <i_f3d_flags>
0

> <s_epik_input>
W2NIXTFbY0hdbltjSF1bY0hdYzFbTkhdQyg9TylbTkhdW0NIXTJbQ0gyXVtDSDJdTihbQ0gyXVtDSDJdMilDKD1PKVtOSF1bQ0hdM1tDSDJdW0NIMl1bQ0gyXVtDSDJdW0NIMl0z

> <s_epik_cmdline>
J2VwaWtfcHl0aG9uJywgJy1waCcsICc3LjAnLCAnLXRuJywgJzgnLCAnLW1hJywgJzIwMCcsICctbWV0YWxfYmluZGluZycsICctaW1hZScsICc8aW5maWxlLm1hZT4nLCAnLW9tYWUnLCAnPG91dGZpbGUubWFlPic=

> <r_epik_Ionization_Penalty>
1.02331

> <r_epik_Ionization_Penalty_Charging>
1.02322

> <r_epik_Ionization_Penalty_Neutral>
8.7708e-05

> <r_epik_State_Penalty>
1.0737

> <r_epik_Charging_Adjusted_Penalty>
2.09692

> <i_epik_Tot_Q>
1

> <i_epik_Tot_abs_Q>
1

> <r_epik_Metal_State_Penalty>
1.17214

> <b_epik_Metal_Only>
0

> <s_lp_Force_Field>
OPLS_2005

> <r_lp_Energy>
47.1401

> <b_lp_Chiralities_Consistent>
1

> <s_lp_Variant>
AV-unprocessed.smi:1733-2

> <Gold.Version>
5.8.1

> <Gold.Id.Protein>
6NUR|6NUR_protein|mol2

> <Gold.PLP.Fitness>
47.2275

> <Gold.PLP.PLP>
-39.6315

> <Gold.PLP.part.hbond>
-3.9878

> <Gold.PLP.part.metal>
0.0000

> <Gold.PLP.part.buried>
-2.4129

> <Gold.PLP.part.nonpolar>
-34.1843

> <Gold.PLP.part.repulsive>
0.5586

> <Gold.PLP.ligand.clash>
0.1777

> <Gold.PLP.ligand.torsion>
0.3450

> <Gold.PLP.Chemscore.Hbond>
2.8080

> <Gold.PLP.Chemscore.CHOScore>
0.0000

> <Gold.PLP.Chemscore.Metal>
0.0000

> <Gold.Chemscore.Hbonds>
donor molecule, donor type, donor heavy atom, donor atom, acceptor molecule, acceptor atom, score
      L1  H     3    26       P1  7948  0.86
      L1  H    10    31       P1  7948  1.00
      P1  H  7989  7998       L1    16  0.27
      P1  H  8011  8017       L1    16  0.66

> <Gold.PLP.Chemscore.Internal.Correction>
0.0399

> <Gold.Rescore>
     Score         DG    S(hbond)    S(metal)    S(lipo)     H(rot)  DE(clash)    DE(int)     intcor
     20.68     -23.71       2.64        0.00     107.55       1.24       1.23       1.80       ----

> <Gold.Chemscore.Fitness>
20.6795

> <Gold.Chemscore.DG>
-23.7095

> <Gold.Chemscore.ZeroCoef>
-5.4800

> <Gold.Chemscore.Hbond>
2.6429

> <Gold.Chemscore.Metal>
0.0000

> <Gold.Chemscore.Lipo>
107.5502

> <Gold.Chemscore.Internal_Hbond>
0.0000

> <Gold.Chemscore.DEClash>
1.2325

> <Gold.Chemscore.DEInternal>
1.7975

> <Gold.Chemscore.Rot>
1.2426

> <Gold.Chemscore.Internal.Correction>
   9.000000E+99

> <Gold.Chemscore.Hbonds>
donor molecule, donor type, donor heavy atom, donor atom, acceptor molecule, acceptor atom, score
      L1  H     3    26       P1  7948  0.71
      L1  H    10    31       P1  7948  0.93
      P1  H  7989  7998       L1    16  0.28
      P1  H  8011  8017       L1    16  0.61

> <Gold.Chemscore.Hbond.Weighted>
-8.8273

> <Gold.Chemscore.Metal.Weighted>
-0.0000

> <Gold.Chemscore.Lipo.Weighted>
-12.5834

> <Gold.Chemscore.Internal_Hbond.Weighted>
0.0000

> <Gold.Chemscore.DEClash.Weighted>
1.2325

> <Gold.Chemscore.DEInternal.Weighted>
1.7975

> <Gold.Chemscore.Rot.Weighted>
3.1812

> <Gold.Chemscore.Internal.Correction.Weighted>
   9.000000E+99

> <Gold.Protein.RotatedTorsions>
[ 6907 6896 6895 6894 ] final   57.28 input  -60.11 | X-H torsion
[ 7974 7965 7964 7962 ] final   62.15 input  175.53 | X-H torsion
[ 8008 7997 7996 7995 ] final  -89.78 input   59.86 | X-H torsion
[ 10167 10162 10161 10158 ] final   38.87 input  -65.29 | X-H torsion
[ 10718 10713 10712 10709 ] final   -9.06 input   66.30 | X-H torsion
[ 10763 10752 10751 10750 ] final  167.27 input  -60.55 | X-H torsion
[ 11005 11000 10999 10996 ] final  -70.93 input  -57.11 | X-H torsion

> <Gold.Protein.ActiveResidues>
 VAL166  LYS551  ARG553  GLY616  TRP617  ASP618  TYR619  PRO620  LYS621  CYS622 
 ASP623  PHE694  ASN695  SER759  ASP760  ASP761  ALA762  ILE779  LEU786  VAL792 
 PHE793  MET794  SER795  GLU796  ALA797  LYS798  CYS799  TRP800  GLU811  SER814 

> <Gold.Protein.RotatedAtoms>
  152.3716  134.6725  160.0173 H   0  0  0  0  0  0  0  0  0  0  0  0  # atno 6907 bound_to 6896
  151.7017  133.3306  159.3276 H   0  0  0  0  0  0  0  0  0  0  0  0  # atno 6908 bound_to 6896
  150.7678  134.6545  159.6351 H   0  0  0  0  0  0  0  0  0  0  0  0  # atno 6909 bound_to 6896
  145.8766  139.3414  143.0731 H   0  0  0  0  0  0  0  0  0  0  0  0  # atno 7974 bound_to 7965
  154.6907  140.0538  157.0360 H   0  0  0  0  0  0  0  0  0  0  0  0  # atno 8008 bound_to 7997
  155.0821  140.3210  155.4579 H   0  0  0  0  0  0  0  0  0  0  0  0  # atno 8009 bound_to 7997
  156.2727  140.2063  156.5949 H   0  0  0  0  0  0  0  0  0  0  0  0  # atno 8010 bound_to 7997
  140.3895  144.1872  150.6130 H   0  0  0  0  0  0  0  0  0  0  0  0  # atno 10167 bound_to 10162
  156.6936  130.5072  149.5936 H   0  0  0  0  0  0  0  0  0  0  0  0  # atno 10718 bound_to 10713
  154.3513  135.2753  155.2370 H   0  0  0  0  0  0  0  0  0  0  0  0  # atno 10763 bound_to 10752
  154.4598  135.5910  153.6251 H   0  0  0  0  0  0  0  0  0  0  0  0  # atno 10764 bound_to 10752
  152.9849  135.6062  154.3724 H   0  0  0  0  0  0  0  0  0  0  0  0  # atno 10765 bound_to 10752
  141.1583  133.6803  156.6828 H   0  0  0  0  0  0  0  0  0  0  0  0  # atno 11005 bound_to 11000
  145.9073  140.9203  143.0472 LP  0  0  0  0  0  0  0  0  0  0  0  0  # atno 17320 bound_to 7965
  144.6726  140.1113  143.7455 LP  0  0  0  0  0  0  0  0  0  0  0  0  # atno 17321 bound_to 7965
  140.4855  143.2365  151.8894 LP  0  0  0  0  0  0  0  0  0  0  0  0  # atno 17342 bound_to 10162
  139.4790  144.5223  151.8784 LP  0  0  0  0  0  0  0  0  0  0  0  0  # atno 17343 bound_to 10162
  156.1780  130.6480  151.0917 LP  0  0  0  0  0  0  0  0  0  0  0  0  # atno 17370 bound_to 10713
  157.7000  131.0780  150.6851 LP  0  0  0  0  0  0  0  0  0  0  0  0  # atno 17371 bound_to 10713
  140.3089  134.8102  157.4160 LP  0  0  0  0  0  0  0  0  0  0  0  0  # atno 17394 bound_to 11000
  140.1196  134.5237  155.8195 LP  0  0  0  0  0  0  0  0  0  0  0  0  # atno 17395 bound_to 11000

$$$$
