AV-unprocessed.smi:1430|AV-procd|sdf|5825|dock3
  -GOLD-   22720 5483D 1   1.00000     0.00000
 Structure written by MMmdl.
 47 48  0  0  0  0  0  0  0  0  2 V2000
  152.7964  139.4324  158.9956 C   0  0  0  0  0  0  0  0  0  0  0  0
  153.2501  138.8809  157.7644 O   0  0  0  0  0  0  0  0  0  0  0  0
  152.3653  138.8213  156.7073 C   0  0  0  0  0  0  0  0  0  0  0  0
  152.8258  138.3310  155.4692 C   0  0  0  0  0  0  0  0  0  0  0  0
  151.9296  138.2665  154.3852 C   0  0  0  0  0  0  0  0  0  0  0  0
  150.5925  138.6904  154.5768 C   0  0  0  0  0  0  0  0  0  0  0  0
  149.5969  138.6960  153.5623 N   0  0  0  0  0  0  0  0  0  0  0  0
  148.2638  138.5885  153.6929 C   0  0  0  0  0  0  0  0  0  0  0  0
  147.6538  138.5156  154.7587 O   0  0  0  0  0  0  0  0  0  0  0  0
  147.6595  138.5764  152.4962 N   0  0  0  0  0  0  0  0  0  0  0  0
  146.2173  138.4775  152.2800 C   0  0  0  0  0  0  0  0  0  0  0  0
  145.7929  137.1881  151.5424 C   0  0  0  0  0  0  0  0  0  0  0  0
  146.4313  135.9632  152.0873 N   0  3  1  0  0  0  0  0  0  0  0  0
  146.1872  135.7888  153.5378 C   0  0  0  0  0  0  0  0  0  0  0  0
  146.9378  134.5504  154.0627 C   0  0  1  0  0  0  0  0  0  0  0  0
  146.6523  134.2866  155.5450 C   0  0  0  0  0  0  0  0  0  0  0  0
  146.5267  133.4080  153.3189 O   0  0  0  0  0  0  0  0  0  0  0  0
  146.8271  133.5187  151.9315 C   0  0  1  0  0  0  0  0  0  0  0  0
  146.4283  132.2060  151.2483 C   0  0  0  0  0  0  0  0  0  0  0  0
  146.0735  134.7289  151.3486 C   0  0  0  0  0  0  0  0  0  0  0  0
  150.2356  139.1761  155.8518 C   0  0  0  0  0  0  0  0  0  0  0  0
  151.0895  139.2404  156.8946 N   0  0  0  0  0  0  0  0  0  0  0  0
  153.6067  139.4029  159.7239 H   0  0  0  0  0  0  0  0  0  0  0  0
  151.9627  138.8602  159.4055 H   0  0  0  0  0  0  0  0  0  0  0  0
  152.4933  140.4738  158.8796 H   0  0  0  0  0  0  0  0  0  0  0  0
  153.8514  138.0135  155.3514 H   0  0  0  0  0  0  0  0  0  0  0  0
  152.2911  137.9097  153.4337 H   0  0  0  0  0  0  0  0  0  0  0  0
  149.9419  138.8342  152.6236 H   0  0  0  0  0  0  0  0  0  0  0  0
  148.2380  138.6575  151.6725 H   0  0  0  0  0  0  0  0  0  0  0  0
  145.6957  138.5517  153.2353 H   0  0  0  0  0  0  0  0  0  0  0  0
  145.9118  139.3506  151.7034 H   0  0  0  0  0  0  0  0  0  0  0  0
  144.7111  137.0856  151.6350 H   0  0  0  0  0  0  0  0  0  0  0  0
  145.9953  137.2746  150.4740 H   0  0  0  0  0  0  0  0  0  0  0  0
  146.5223  136.6768  154.0755 H   0  0  0  0  0  0  0  0  0  0  0  0
  145.1154  135.6890  153.7173 H   0  0  0  0  0  0  0  0  0  0  0  0
  148.0128  134.6919  153.9372 H   0  0  0  0  0  0  0  0  0  0  0  0
  146.9601  135.1322  156.1605 H   0  0  0  0  0  0  0  0  0  0  0  0
  147.1930  133.4072  155.8956 H   0  0  0  0  0  0  0  0  0  0  0  0
  145.5897  134.1151  155.7189 H   0  0  0  0  0  0  0  0  0  0  0  0
  147.9020  133.6611  151.8071 H   0  0  0  0  0  0  0  0  0  0  0  0
  146.6444  132.2373  150.1801 H   0  0  0  0  0  0  0  0  0  0  0  0
  145.3632  132.0058  151.3686 H   0  0  0  0  0  0  0  0  0  0  0  0
  146.9751  131.3634  151.6725 H   0  0  0  0  0  0  0  0  0  0  0  0
  144.9957  134.5679  151.4083 H   0  0  0  0  0  0  0  0  0  0  0  0
  146.3236  134.8383  150.2934 H   0  0  0  0  0  0  0  0  0  0  0  0
  149.2308  139.5229  156.0446 H   0  0  0  0  0  0  0  0  0  0  0  0
  147.4277  136.0918  151.9834 H   0  0  0  0  0  0  0  0  0  0  0  0
  1  2  1  0  0  0  0
  1 23  1  0  0  0  0
  1 24  1  0  0  0  0
  1 25  1  0  0  0  0
  2  3  1  0  0  0  0
  3 22  1  0  0  0  0
  3  4  2  0  0  0  0
  4  5  1  0  0  0  0
  4 26  1  0  0  0  0
  5  6  2  0  0  0  0
  5 27  1  0  0  0  0
  6  7  1  0  0  0  0
  6 21  1  0  0  0  0
  7  8  1  0  0  0  0
  7 28  1  0  0  0  0
  8  9  2  0  0  0  0
  8 10  1  0  0  0  0
 10 11  1  0  0  0  0
 10 29  1  0  0  0  0
 11 12  1  0  0  0  0
 11 30  1  0  0  0  0
 11 31  1  0  0  0  0
 12 13  1  0  0  0  0
 12 32  1  0  0  0  0
 12 33  1  0  0  0  0
 13 20  1  0  0  0  0
 13 14  1  0  0  0  0
 13 47  1  0  0  0  0
 14 15  1  0  0  0  0
 14 34  1  0  0  0  0
 14 35  1  0  0  0  0
 15 16  1  0  0  0  0
 15 17  1  0  0  0  0
 15 36  1  0  0  0  0
 16 37  1  0  0  0  0
 16 38  1  0  0  0  0
 16 39  1  0  0  0  0
 17 18  1  0  0  0  0
 18 19  1  0  0  0  0
 18 20  1  0  0  0  0
 18 40  1  0  0  0  0
 19 41  1  0  0  0  0
 19 42  1  0  0  0  0
 19 43  1  0  0  0  0
 20 44  1  0  0  0  0
 20 45  1  0  0  0  0
 21 22  2  0  0  0  0
 21 46  1  0  0  0  0
M  CHG  1  13   1
M  END
> <s_m_source_file>
AV-unprocessed.smi

> <i_m_source_file_index>
1430

> <i_lp_mmshare_version>
43012

> <i_f3d_flags>
0

> <s_epik_input>
W0NIM11PYzFbY0hdW2NIXWMoW2NIXW4xKVtOSF1DKD1PKVtOSF1bQ0gyXVtDSDJdTjJbQ0gyXVtDQEBIXShbQ0gzXSlPW0NAQEhdKFtDSDNdKVtDSDJdMg==

> <s_epik_cmdline>
J2VwaWtfcHl0aG9uJywgJy1waCcsICc3LjAnLCAnLXRuJywgJzgnLCAnLW1hJywgJzIwMCcsICctbWV0YWxfYmluZGluZycsICctaW1hZScsICc8aW5maWxlLm1hZT4nLCAnLW9tYWUnLCAnPG91dGZpbGUubWFlPic=

> <r_lp_tautomer_probability>
1

> <r_epik_Ionization_Penalty>
0.602607

> <r_epik_Ionization_Penalty_Charging>
0.602531

> <r_epik_Ionization_Penalty_Neutral>
7.66983e-05

> <r_epik_State_Penalty>
0.617039

> <r_epik_Charging_Adjusted_Penalty>
1.21957

> <i_epik_Tot_Q>
1

> <i_epik_Tot_abs_Q>
1

> <r_epik_Metal_State_Penalty>
0.617043

> <b_epik_Metal_Only>
0

> <s_lp_Force_Field>
OPLS_2005

> <r_lp_Energy>
23.5338

> <b_lp_Chiralities_Consistent>
1

> <s_lp_Variant>
AV-unprocessed.smi:1430-4

> <Gold.Version>
5.8.1

> <Gold.Id.Protein>
6NUR|6NUR_protein|mol2

> <Gold.PLP.Fitness>
43.3397

> <Gold.PLP.PLP>
-30.8765

> <Gold.PLP.part.hbond>
-5.8138

> <Gold.PLP.part.metal>
0.0000

> <Gold.PLP.part.buried>
-0.2205

> <Gold.PLP.part.nonpolar>
-25.9287

> <Gold.PLP.part.repulsive>
0.3613

> <Gold.PLP.ligand.clash>
0.0000

> <Gold.PLP.ligand.torsion>
0.2327

> <Gold.PLP.Chemscore.Hbond>
4.2960

> <Gold.PLP.Chemscore.CHOScore>
0.0000

> <Gold.PLP.Chemscore.Metal>
0.0000

> <Gold.Chemscore.Hbonds>
donor molecule, donor type, donor heavy atom, donor atom, acceptor molecule, acceptor atom, score
      L1  H     7    28       P1  7957  0.77
      L1  H    10    29       P1  7957  0.66
      L1  H    13    47       P1  7948  1.92
      P1  H  7997  8010       L1     2  1.00

> <Gold.PLP.Chemscore.Internal.Correction>
0.0407

> <Gold.Rescore>
     Score         DG    S(hbond)    S(metal)    S(lipo)     H(rot)  DE(clash)    DE(int)     intcor
     17.46     -19.32       3.16        0.00      66.53       1.76       0.32       1.54       ----

> <Gold.Chemscore.Fitness>
17.4597

> <Gold.Chemscore.DG>
-19.3212

> <Gold.Chemscore.ZeroCoef>
-5.4800

> <Gold.Chemscore.Hbond>
3.1631

> <Gold.Chemscore.Metal>
0.0000

> <Gold.Chemscore.Lipo>
66.5279

> <Gold.Chemscore.Internal_Hbond>
0.0000

> <Gold.Chemscore.DEClash>
0.3234

> <Gold.Chemscore.DEInternal>
1.5381

> <Gold.Chemscore.Rot>
1.7606

> <Gold.Chemscore.Internal.Correction>
   9.000000E+99

> <Gold.Chemscore.Hbonds>
donor molecule, donor type, donor heavy atom, donor atom, acceptor molecule, acceptor atom, score
      L1  H     7    28       P1  7957  0.43
      L1  H    10    29       P1  7957  0.38
      L1  H    13    47       P1  7948  0.91
      P1  H  7997  8010       L1     2  0.24

> <Gold.Chemscore.Hbond.Weighted>
-10.5646

> <Gold.Chemscore.Metal.Weighted>
-0.0000

> <Gold.Chemscore.Lipo.Weighted>
-7.7838

> <Gold.Chemscore.Internal_Hbond.Weighted>
0.0000

> <Gold.Chemscore.DEClash.Weighted>
0.3234

> <Gold.Chemscore.DEInternal.Weighted>
1.5381

> <Gold.Chemscore.Rot.Weighted>
4.5072

> <Gold.Chemscore.Internal.Correction.Weighted>
   9.000000E+99

> <Gold.Protein.RotatedTorsions>
[ 6907 6896 6895 6894 ] final   68.18 input  -60.11 | X-H torsion
[ 7974 7965 7964 7962 ] final  -44.95 input  175.53 | X-H torsion
[ 8008 7997 7996 7995 ] final   31.28 input   59.86 | X-H torsion
[ 10167 10162 10161 10158 ] final  179.98 input  -65.29 | X-H torsion
[ 10718 10713 10712 10709 ] final  -98.66 input   66.30 | X-H torsion
[ 10763 10752 10751 10750 ] final  113.78 input  -60.55 | X-H torsion
[ 11005 11000 10999 10996 ] final  -76.15 input  -57.11 | X-H torsion

> <Gold.Protein.ActiveResidues>
 VAL166  LYS551  ARG553  GLY616  TRP617  ASP618  TYR619  PRO620  LYS621  CYS622 
 ASP623  PHE694  ASN695  SER759  ASP760  ASP761  ALA762  ILE779  LEU786  VAL792 
 PHE793  MET794  SER795  GLU796  ALA797  LYS798  CYS799  TRP800  GLU811  SER814 

> <Gold.Protein.RotatedAtoms>
  152.4603  134.5200  159.9779 H   0  0  0  0  0  0  0  0  0  0  0  0  # atno 6907 bound_to 6896
  151.5250  133.3453  159.2916 H   0  0  0  0  0  0  0  0  0  0  0  0  # atno 6908 bound_to 6896
  150.8563  134.7932  159.7110 H   0  0  0  0  0  0  0  0  0  0  0  0  # atno 6909 bound_to 6896
  145.9869  140.7223  142.9336 H   0  0  0  0  0  0  0  0  0  0  0  0  # atno 7974 bound_to 7965
  155.1039  140.3232  155.4539 H   0  0  0  0  0  0  0  0  0  0  0  0  # atno 8008 bound_to 7997
  156.2709  140.2056  156.6112 H   0  0  0  0  0  0  0  0  0  0  0  0  # atno 8009 bound_to 7997
  154.6808  140.0526  157.0251 H   0  0  0  0  0  0  0  0  0  0  0  0  # atno 8010 bound_to 7997
  139.5360  144.2496  152.0795 H   0  0  0  0  0  0  0  0  0  0  0  0  # atno 10167 bound_to 10162
  156.0113  130.5248  150.6555 H   0  0  0  0  0  0  0  0  0  0  0  0  # atno 10718 bound_to 10713
  153.4976  135.3645  155.2523 H   0  0  0  0  0  0  0  0  0  0  0  0  # atno 10763 bound_to 10752
  154.8749  135.3992  154.3516 H   0  0  0  0  0  0  0  0  0  0  0  0  # atno 10764 bound_to 10752
  153.4147  135.7078  153.6401 H   0  0  0  0  0  0  0  0  0  0  0  0  # atno 10765 bound_to 10752
  141.1651  133.6973  156.7625 H   0  0  0  0  0  0  0  0  0  0  0  0  # atno 11005 bound_to 11000
  144.6877  140.3004  143.7264 LP  0  0  0  0  0  0  0  0  0  0  0  0  # atno 17320 bound_to 7965
  145.7687  139.1849  143.2225 LP  0  0  0  0  0  0  0  0  0  0  0  0  # atno 17321 bound_to 7965
  140.1967  144.4699  150.6452 LP  0  0  0  0  0  0  0  0  0  0  0  0  # atno 17342 bound_to 10162
  140.6567  143.2239  151.5953 LP  0  0  0  0  0  0  0  0  0  0  0  0  # atno 17343 bound_to 10162
  157.4308  131.0849  151.1040 LP  0  0  0  0  0  0  0  0  0  0  0  0  # atno 17370 bound_to 10713
  157.1614  130.6227  149.5612 LP  0  0  0  0  0  0  0  0  0  0  0  0  # atno 17371 bound_to 10713
  140.2523  134.8531  157.3679 LP  0  0  0  0  0  0  0  0  0  0  0  0  # atno 17394 bound_to 11000
  140.1690  134.4632  155.7844 LP  0  0  0  0  0  0  0  0  0  0  0  0  # atno 17395 bound_to 11000

$$$$
