AV-unprocessed.smi:984|AV-procd|sdf|4317|dock7
  -GOLD-   22720 2223D 1   1.00000     0.00000
 Structure written by MMmdl.
 34 34  0  0  0  0  0  0  0  0  1 V2000
  143.5166  132.5255  150.8204 C   0  0  0  0  0  0  0  0  0  0  0  0
  144.7496  133.4101  150.6099 C   0  0  0  0  0  0  0  0  0  0  0  0
  144.7119  134.6910  151.4633 C   0  0  0  0  0  0  0  0  0  0  0  0
  145.7228  135.7728  151.0365 C   0  0  0  0  0  0  0  0  0  0  0  0
  145.7917  136.8697  151.9973 N   0  0  0  0  0  0  0  0  0  0  0  0
  146.3592  138.0639  151.7688 C   0  0  0  0  0  0  0  0  0  0  0  0
  146.8292  138.3916  150.6789 O   0  0  0  0  0  0  0  0  0  0  0  0
  146.4127  139.0335  152.9526 C   0  0  0  0  0  0  0  0  0  0  0  0
  147.7895  139.4463  153.1992 N   0  0  0  0  0  0  0  0  0  0  0  0
  148.4284  139.3942  154.3788 C   0  0  0  0  0  0  0  0  0  0  0  0
  147.9623  138.8603  155.3847 O   0  0  0  0  0  0  0  0  0  0  0  0
  149.7937  140.0800  154.4355 C   0  0  0  0  0  0  0  0  0  0  0  0
  150.8367  139.1148  154.7404 N   0  0  0  0  0  0  0  0  0  0  0  0
  151.0662  137.8983  154.2410 C   0  0  0  0  0  0  0  0  0  0  0  0
  152.1085  137.2845  154.7840 N   0  0  0  0  0  0  0  0  0  0  0  0
  152.5032  138.2460  155.6708 C   0  0  0  0  0  0  0  0  0  0  0  0
  151.7750  139.3627  155.6852 N   0  0  0  0  0  0  0  0  0  0  0  0
  143.5704  131.6309  150.1996 H   0  0  0  0  0  0  0  0  0  0  0  0
  142.6008  133.0564  150.5592 H   0  0  0  0  0  0  0  0  0  0  0  0
  143.4354  132.2048  151.8592 H   0  0  0  0  0  0  0  0  0  0  0  0
  145.6395  132.8264  150.8463 H   0  0  0  0  0  0  0  0  0  0  0  0
  144.8257  133.6752  149.5549 H   0  0  0  0  0  0  0  0  0  0  0  0
  143.7101  135.1188  151.4120 H   0  0  0  0  0  0  0  0  0  0  0  0
  144.8756  134.4345  152.5107 H   0  0  0  0  0  0  0  0  0  0  0  0
  146.7064  135.3303  150.8705 H   0  0  0  0  0  0  0  0  0  0  0  0
  145.4167  136.1928  150.0782 H   0  0  0  0  0  0  0  0  0  0  0  0
  145.4209  136.6907  152.9193 H   0  0  0  0  0  0  0  0  0  0  0  0
  145.7744  139.8947  152.7488 H   0  0  0  0  0  0  0  0  0  0  0  0
  146.0242  138.5584  153.8542 H   0  0  0  0  0  0  0  0  0  0  0  0
  148.2653  139.9008  152.4331 H   0  0  0  0  0  0  0  0  0  0  0  0
  150.0208  140.5499  153.4775 H   0  0  0  0  0  0  0  0  0  0  0  0
  149.7856  140.8663  155.1920 H   0  0  0  0  0  0  0  0  0  0  0  0
  150.4527  137.4501  153.4731 H   0  0  0  0  0  0  0  0  0  0  0  0
  153.3509  138.1176  156.3277 H   0  0  0  0  0  0  0  0  0  0  0  0
  1  2  1  0  0  0  0
  1 18  1  0  0  0  0
  1 19  1  0  0  0  0
  1 20  1  0  0  0  0
  2  3  1  0  0  0  0
  2 21  1  0  0  0  0
  2 22  1  0  0  0  0
  3  4  1  0  0  0  0
  3 23  1  0  0  0  0
  3 24  1  0  0  0  0
  4  5  1  0  0  0  0
  4 25  1  0  0  0  0
  4 26  1  0  0  0  0
  5  6  1  0  0  0  0
  5 27  1  0  0  0  0
  6  7  2  0  0  0  0
  6  8  1  0  0  0  0
  8  9  1  0  0  0  0
  8 28  1  0  0  0  0
  8 29  1  0  0  0  0
  9 10  1  0  0  0  0
  9 30  1  0  0  0  0
 10 11  2  0  0  0  0
 10 12  1  0  0  0  0
 12 13  1  0  0  0  0
 12 31  1  0  0  0  0
 12 32  1  0  0  0  0
 13 17  1  0  0  0  0
 13 14  1  0  0  0  0
 14 15  2  0  0  0  0
 14 33  1  0  0  0  0
 15 16  1  0  0  0  0
 16 17  2  0  0  0  0
 16 34  1  0  0  0  0
M  END
> <s_m_source_file>
AV-unprocessed.smi

> <i_m_source_file_index>
984

> <i_lp_mmshare_version>
43012

> <i_f3d_flags>
0

> <s_epik_input>
W0NIM11bQ0gyXVtDSDJdW0NIMl1bTkhdQyg9TylbQ0gyXVtOSF1DKD1PKVtDSDJdbjFbY0hdbltjSF1uMQ==

> <s_epik_cmdline>
J2VwaWtfcHl0aG9uJywgJy1waCcsICc3LjAnLCAnLXRuJywgJzgnLCAnLW1hJywgJzIwMCcsICctbWV0YWxfYmluZGluZycsICctaW1hZScsICc8aW5maWxlLm1hZT4nLCAnLW9tYWUnLCAnPG91dGZpbGUubWFlPic=

> <r_lp_tautomer_probability>
1

> <r_epik_Ionization_Penalty>
7.27004e-06

> <r_epik_Ionization_Penalty_Charging>
0

> <r_epik_Ionization_Penalty_Neutral>
7.27004e-06

> <r_epik_State_Penalty>
-0

> <r_epik_Charging_Adjusted_Penalty>
0

> <i_epik_Tot_Q>
0

> <i_epik_Tot_abs_Q>
0

> <r_epik_Metal_State_Penalty>
-0

> <b_epik_Metal_Only>
0

> <s_lp_Force_Field>
OPLS_2005

> <r_lp_Energy>
2.39519

> <b_lp_Chiralities_Consistent>
1

> <s_lp_Variant>
AV-unprocessed.smi:984-1

> <Gold.Version>
5.8.1

> <Gold.Id.Protein>
6NUR|6NUR_protein|mol2

> <Gold.PLP.Fitness>
42.4460

> <Gold.PLP.PLP>
-31.3270

> <Gold.PLP.part.hbond>
-3.3991

> <Gold.PLP.part.metal>
0.0000

> <Gold.PLP.part.buried>
-1.8796

> <Gold.PLP.part.nonpolar>
-27.8815

> <Gold.PLP.part.repulsive>
1.1479

> <Gold.PLP.ligand.clash>
0.0000

> <Gold.PLP.ligand.torsion>
0.3836

> <Gold.PLP.Chemscore.Hbond>
2.7760

> <Gold.PLP.Chemscore.CHOScore>
1.1486

> <Gold.PLP.Chemscore.Metal>
0.0000

> <Gold.Chemscore.Hbonds>
donor molecule, donor type, donor heavy atom, donor atom, acceptor molecule, acceptor atom, score
      L1  H     9    30       P1  7957  1.00
      P1  H  7954  7966       L1     7  0.96
      P1  H 10752 10763       L1    15  0.83
      L1  C    14    33       P1  7948  0.71
      L1  C    14    33       P1  7949  0.44

> <Gold.PLP.Chemscore.Internal.Correction>
0.1123

> <Gold.Rescore>
     Score         DG    S(hbond)    S(metal)    S(lipo)     H(rot)  DE(clash)    DE(int)     intcor
      9.85     -10.37       2.82        0.00      40.24       3.61       0.32       0.20       ----

> <Gold.Chemscore.Fitness>
9.8508

> <Gold.Chemscore.DG>
-10.3719

> <Gold.Chemscore.ZeroCoef>
-5.4800

> <Gold.Chemscore.Hbond>
2.8227

> <Gold.Chemscore.Metal>
0.0000

> <Gold.Chemscore.Lipo>
40.2447

> <Gold.Chemscore.Internal_Hbond>
0.0000

> <Gold.Chemscore.DEClash>
0.3236

> <Gold.Chemscore.DEInternal>
0.1976

> <Gold.Chemscore.Rot>
3.6111

> <Gold.Chemscore.Internal.Correction>
   9.000000E+99

> <Gold.Chemscore.Hbonds>
donor molecule, donor type, donor heavy atom, donor atom, acceptor molecule, acceptor atom, score
      L1  H     9    30       P1  7957  0.98
      P1  H  7954  7966       L1     7  0.92
      P1  H 10752 10763       L1    15  0.83

> <Gold.Chemscore.Hbond.Weighted>
-9.4277

> <Gold.Chemscore.Metal.Weighted>
-0.0000

> <Gold.Chemscore.Lipo.Weighted>
-4.7086

> <Gold.Chemscore.Internal_Hbond.Weighted>
0.0000

> <Gold.Chemscore.DEClash.Weighted>
0.3236

> <Gold.Chemscore.DEInternal.Weighted>
0.1976

> <Gold.Chemscore.Rot.Weighted>
9.2444

> <Gold.Chemscore.Internal.Correction.Weighted>
   9.000000E+99

> <Gold.Protein.RotatedTorsions>
[ 6907 6896 6895 6894 ] final -123.56 input  -60.11 | X-H torsion
[ 7974 7965 7964 7962 ] final -171.37 input  175.53 | X-H torsion
[ 8008 7997 7996 7995 ] final  -17.98 input   59.86 | X-H torsion
[ 10167 10162 10161 10158 ] final  -97.95 input  -65.29 | X-H torsion
[ 10718 10713 10712 10709 ] final   26.66 input   66.30 | X-H torsion
[ 10763 10752 10751 10750 ] final   52.84 input  -60.55 | X-H torsion
[ 11005 11000 10999 10996 ] final -127.33 input  -57.11 | X-H torsion

> <Gold.Protein.ActiveResidues>
 VAL166  LYS551  ARG553  GLY616  TRP617  ASP618  TYR619  PRO620  LYS621  CYS622 
 ASP623  PHE694  ASN695  SER759  ASP760  ASP761  ALA762  ILE779  LEU786  VAL792 
 PHE793  MET794  SER795  GLU796  ALA797  LYS798  CYS799  TRP800  GLU811  SER814 

> <Gold.Protein.RotatedAtoms>
  150.8683  133.7542  159.2969 H   0  0  0  0  0  0  0  0  0  0  0  0  # atno 6907 bound_to 6896
  151.5163  135.1064  159.9876 H   0  0  0  0  0  0  0  0  0  0  0  0  # atno 6908 bound_to 6896
  152.4677  133.7914  159.6960 H   0  0  0  0  0  0  0  0  0  0  0  0  # atno 6909 bound_to 6896
  144.7158  140.1932  143.6346 H   0  0  0  0  0  0  0  0  0  0  0  0  # atno 7974 bound_to 7965
  154.4939  140.2128  155.9490 H   0  0  0  0  0  0  0  0  0  0  0  0  # atno 8008 bound_to 7997
  156.1343  140.3191  155.8365 H   0  0  0  0  0  0  0  0  0  0  0  0  # atno 8009 bound_to 7997
  155.4239  140.0499  157.3014 H   0  0  0  0  0  0  0  0  0  0  0  0  # atno 8010 bound_to 7997
  140.2781  143.3300  152.0469 H   0  0  0  0  0  0  0  0  0  0  0  0  # atno 10167 bound_to 10162
  157.2098  130.6929  149.6223 H   0  0  0  0  0  0  0  0  0  0  0  0  # atno 10718 bound_to 10713
  152.9791  135.5799  154.4644 H   0  0  0  0  0  0  0  0  0  0  0  0  # atno 10763 bound_to 10752
  154.4215  135.2772  155.1974 H   0  0  0  0  0  0  0  0  0  0  0  0  # atno 10764 bound_to 10752
  154.3721  135.6165  153.5799 H   0  0  0  0  0  0  0  0  0  0  0  0  # atno 10765 bound_to 10752
  140.9608  134.0939  157.3970 H   0  0  0  0  0  0  0  0  0  0  0  0  # atno 11005 bound_to 11000
  145.8748  139.2291  143.1639 LP  0  0  0  0  0  0  0  0  0  0  0  0  # atno 17320 bound_to 7965
  146.0050  140.8486  142.9999 LP  0  0  0  0  0  0  0  0  0  0  0  0  # atno 17321 bound_to 7965
  139.4970  144.6611  151.6463 LP  0  0  0  0  0  0  0  0  0  0  0  0  # atno 17342 bound_to 10162
  140.5835  143.9905  150.6282 LP  0  0  0  0  0  0  0  0  0  0  0  0  # atno 17343 bound_to 10162
  155.9692  130.4555  150.5889 LP  0  0  0  0  0  0  0  0  0  0  0  0  # atno 17370 bound_to 10713
  157.3684  131.0761  151.1578 LP  0  0  0  0  0  0  0  0  0  0  0  0  # atno 17371 bound_to 10713
  139.8877  135.0092  156.6579 LP  0  0  0  0  0  0  0  0  0  0  0  0  # atno 17394 bound_to 11000
  140.7470  133.8929  155.8319 LP  0  0  0  0  0  0  0  0  0  0  0  0  # atno 17395 bound_to 11000

$$$$
