AV-unprocessed.smi:1224|AV-procd|sdf|5132|dock7
  -GOLD-   22720 4193D 1   1.00000     0.00000
 Structure written by MMmdl.
 43 45  0  0  0  0  0  0  0  0  1 V2000
  153.1925  142.3258  161.5172 C   0  0  0  0  0  0  0  0  0  0  0  0
  152.5855  142.1647  160.1346 C   0  0  0  0  0  0  0  0  0  0  0  0
  152.8903  141.0088  159.3806 C   0  0  0  0  0  0  0  0  0  0  0  0
  152.3459  140.8207  158.0913 C   0  0  0  0  0  0  0  0  0  0  0  0
  152.5059  139.7815  157.1904 N   0  0  0  0  0  0  0  0  0  0  0  0
  151.7471  140.1874  156.1761 C   0  0  0  0  0  0  0  0  0  0  0  0
  151.1147  141.3686  156.3135 N   0  0  0  0  0  0  0  0  0  0  0  0
  150.2411  142.0148  155.3502 C   0  0  0  0  0  0  0  0  0  0  0  0
  149.1903  141.0507  154.7678 C   0  0  2  0  0  0  0  0  0  0  0  0
  149.0858  141.2732  153.3750 O   0  0  0  0  0  0  0  0  0  0  0  0
  147.8056  141.2690  155.3989 C   0  0  0  0  0  0  0  0  0  0  0  0
  147.2914  142.6016  155.0975 N   0  0  0  0  0  0  0  0  0  0  0  0
  146.3659  142.6209  153.9707 C   0  0  0  0  0  0  0  0  0  0  0  0
  145.3236  143.6767  154.1276 C   0  0  0  0  0  0  0  0  0  0  0  0
  144.4730  143.8648  155.1874 C   0  0  0  0  0  0  0  0  0  0  0  0
  143.5993  144.9783  155.0149 C   0  0  0  0  0  0  0  0  0  0  0  0
  143.7946  145.6264  153.8243 C   0  0  0  0  0  0  0  0  0  0  0  0
  145.0604  144.8786  152.8891 S   0  0  0  0  0  0  0  0  0  0  0  0
  151.4818  141.8288  157.5728 C   0  0  0  0  0  0  0  0  0  0  0  0
  151.1704  142.9828  158.3131 C   0  0  0  0  0  0  0  0  0  0  0  0
  151.7226  143.1548  159.5997 C   0  0  0  0  0  0  0  0  0  0  0  0
  151.3788  144.4035  160.3921 C   0  0  0  0  0  0  0  0  0  0  0  0
  153.8328  141.4809  161.7721 H   0  0  0  0  0  0  0  0  0  0  0  0
  152.4094  142.3919  162.2728 H   0  0  0  0  0  0  0  0  0  0  0  0
  153.7990  143.2303  161.5653 H   0  0  0  0  0  0  0  0  0  0  0  0
  153.5466  140.2537  159.7876 H   0  0  0  0  0  0  0  0  0  0  0  0
  151.6424  139.5910  155.2814 H   0  0  0  0  0  0  0  0  0  0  0  0
  149.7501  142.8513  155.8489 H   0  0  0  0  0  0  0  0  0  0  0  0
  150.8521  142.4422  154.5535 H   0  0  0  0  0  0  0  0  0  0  0  0
  149.5188  140.0239  154.9377 H   0  0  0  0  0  0  0  0  0  0  0  0
  149.2868  140.4639  152.9298 H   0  0  0  0  0  0  0  0  0  0  0  0
  147.1137  140.5279  154.9964 H   0  0  0  0  0  0  0  0  0  0  0  0
  147.8443  141.1005  156.4761 H   0  0  0  0  0  0  0  0  0  0  0  0
  148.0707  143.2218  154.9012 H   0  0  0  0  0  0  0  0  0  0  0  0
  146.9146  142.7819  153.0419 H   0  0  0  0  0  0  0  0  0  0  0  0
  145.8781  141.6503  153.8747 H   0  0  0  0  0  0  0  0  0  0  0  0
  144.4498  143.2478  156.0734 H   0  0  0  0  0  0  0  0  0  0  0  0
  142.8699  145.2612  155.7594 H   0  0  0  0  0  0  0  0  0  0  0  0
  143.2755  146.4928  153.4414 H   0  0  0  0  0  0  0  0  0  0  0  0
  150.5107  143.7279  157.8934 H   0  0  0  0  0  0  0  0  0  0  0  0
  150.7217  145.0651  159.8269 H   0  0  0  0  0  0  0  0  0  0  0  0
  152.2823  144.9613  160.6393 H   0  0  0  0  0  0  0  0  0  0  0  0
  150.8701  144.1381  161.3191 H   0  0  0  0  0  0  0  0  0  0  0  0
  1  2  1  0  0  0  0
  1 23  1  0  0  0  0
  1 24  1  0  0  0  0
  1 25  1  0  0  0  0
  2 21  1  0  0  0  0
  2  3  2  0  0  0  0
  3  4  1  0  0  0  0
  3 26  1  0  0  0  0
  4 19  2  0  0  0  0
  4  5  1  0  0  0  0
  5  6  2  0  0  0  0
  6  7  1  0  0  0  0
  6 27  1  0  0  0  0
  7  8  1  0  0  0  0
  7 19  1  0  0  0  0
  8  9  1  0  0  0  0
  8 28  1  0  0  0  0
  8 29  1  0  0  0  0
  9 10  1  0  0  0  0
  9 11  1  0  0  0  0
  9 30  1  0  0  0  0
 10 31  1  0  0  0  0
 11 12  1  0  0  0  0
 11 32  1  0  0  0  0
 11 33  1  0  0  0  0
 12 13  1  0  0  0  0
 12 34  1  0  0  0  0
 13 14  1  0  0  0  0
 13 35  1  0  0  0  0
 13 36  1  0  0  0  0
 14 18  1  0  0  0  0
 14 15  2  0  0  0  0
 15 16  1  0  0  0  0
 15 37  1  0  0  0  0
 16 17  2  0  0  0  0
 16 38  1  0  0  0  0
 17 18  1  0  0  0  0
 17 39  1  0  0  0  0
 19 20  1  0  0  0  0
 20 21  2  0  0  0  0
 20 40  1  0  0  0  0
 21 22  1  0  0  0  0
 22 41  1  0  0  0  0
 22 42  1  0  0  0  0
 22 43  1  0  0  0  0
M  END
> <s_m_source_file>
AV-unprocessed.smi

> <i_m_source_file_index>
1224

> <i_lp_mmshare_version>
43012

> <i_f3d_flags>
0

> <s_epik_input>
W0NIM11jKFtjSF0xKWMoW0NIM10pW2NIXWMoYzEyKW4oW2NIXW4yKVtDSDJdW0NASF0oW09IXSlbQ0gyXVtOSF1bQ0gyXWMzW2NIXVtjSF1bY0hdczM=

> <s_epik_cmdline>
J2VwaWtfcHl0aG9uJywgJy1waCcsICc3LjAnLCAnLXRuJywgJzgnLCAnLW1hJywgJzIwMCcsICctbWV0YWxfYmluZGluZycsICctaW1hZScsICc8aW5maWxlLm1hZT4nLCAnLW9tYWUnLCAnPG91dGZpbGUubWFlPic=

> <r_epik_Ionization_Penalty>
1.55566

> <r_epik_Ionization_Penalty_Charging>
0

> <r_epik_Ionization_Penalty_Neutral>
1.55566

> <r_epik_State_Penalty>
1.63945

> <r_epik_Charging_Adjusted_Penalty>
1.63945

> <i_epik_Tot_Q>
0

> <i_epik_Tot_abs_Q>
0

> <r_epik_Metal_State_Penalty>
1.52326

> <b_epik_Metal_Only>
0

> <s_lp_Force_Field>
OPLS_2005

> <r_lp_Energy>
13.7285

> <b_lp_Chiralities_Consistent>
1

> <s_lp_Variant>
AV-unprocessed.smi:1224-5

> <Gold.Version>
5.8.1

> <Gold.Id.Protein>
6NUR|6NUR_protein|mol2

> <Gold.PLP.Fitness>
61.5840

> <Gold.PLP.PLP>
-53.7253

> <Gold.PLP.part.hbond>
-5.0000

> <Gold.PLP.part.metal>
0.0000

> <Gold.PLP.part.buried>
-4.9342

> <Gold.PLP.part.nonpolar>
-44.1271

> <Gold.PLP.part.repulsive>
0.0000

> <Gold.PLP.ligand.clash>
0.0000

> <Gold.PLP.ligand.torsion>
1.2507

> <Gold.PLP.Chemscore.Hbond>
3.4240

> <Gold.PLP.Chemscore.CHOScore>
0.0000

> <Gold.PLP.Chemscore.Metal>
0.0000

> <Gold.Chemscore.Hbonds>
donor molecule, donor type, donor heavy atom, donor atom, acceptor molecule, acceptor atom, score
      L1  H    10    31       P1  7957  0.66
      L1  H    12    34       P1  8028  0.77
      P1  H  7997  8009       L1     5  1.00
      P1  H  8011  8017       L1    10  1.00

> <Gold.PLP.Chemscore.Internal.Correction>
0.0882

> <Gold.Rescore>
     Score         DG    S(hbond)    S(metal)    S(lipo)     H(rot)  DE(clash)    DE(int)     intcor
     20.69     -22.64       1.96        0.00     141.42       2.32       0.57       1.38       ----

> <Gold.Chemscore.Fitness>
20.6891

> <Gold.Chemscore.DG>
-22.6398

> <Gold.Chemscore.ZeroCoef>
-5.4800

> <Gold.Chemscore.Hbond>
1.9600

> <Gold.Chemscore.Metal>
0.0000

> <Gold.Chemscore.Lipo>
141.4158

> <Gold.Chemscore.Internal_Hbond>
0.0000

> <Gold.Chemscore.DEClash>
0.5730

> <Gold.Chemscore.DEInternal>
1.3778

> <Gold.Chemscore.Rot>
2.3173

> <Gold.Chemscore.Internal.Correction>
   9.000000E+99

> <Gold.Chemscore.Hbonds>
donor molecule, donor type, donor heavy atom, donor atom, acceptor molecule, acceptor atom, score
      L1  H    10    31       P1  7957  0.66
      L1  H    12    34       P1  8028  0.69
      P1  H  7997  8009       L1     5  0.09
      P1  H  8011  8017       L1    10  0.28

> <Gold.Chemscore.Hbond.Weighted>
-6.5465

> <Gold.Chemscore.Metal.Weighted>
-0.0000

> <Gold.Chemscore.Lipo.Weighted>
-16.5456

> <Gold.Chemscore.Internal_Hbond.Weighted>
0.0000

> <Gold.Chemscore.DEClash.Weighted>
0.5730

> <Gold.Chemscore.DEInternal.Weighted>
1.3778

> <Gold.Chemscore.Rot.Weighted>
5.9324

> <Gold.Chemscore.Internal.Correction.Weighted>
   9.000000E+99

> <Gold.Protein.RotatedTorsions>
[ 6907 6896 6895 6894 ] final -138.56 input  -60.11 | X-H torsion
[ 7974 7965 7964 7962 ] final -103.74 input  175.53 | X-H torsion
[ 8008 7997 7996 7995 ] final -165.25 input   59.86 | X-H torsion
[ 10167 10162 10161 10158 ] final -156.09 input  -65.29 | X-H torsion
[ 10718 10713 10712 10709 ] final  -47.37 input   66.30 | X-H torsion
[ 10763 10752 10751 10750 ] final  -99.91 input  -60.55 | X-H torsion
[ 11005 11000 10999 10996 ] final -133.01 input  -57.11 | X-H torsion

> <Gold.Protein.ActiveResidues>
 VAL166  LYS551  ARG553  GLY616  TRP617  ASP618  TYR619  PRO620  LYS621  CYS622 
 ASP623  PHE694  ASN695  SER759  ASP760  ASP761  ALA762  ILE779  LEU786  VAL792 
 PHE793  MET794  SER795  GLU796  ALA797  LYS798  CYS799  TRP800  GLU811  SER814 

> <Gold.Protein.RotatedAtoms>
  151.0365  133.5743  159.2655 H   0  0  0  0  0  0  0  0  0  0  0  0  # atno 6907 bound_to 6896
  151.2806  135.0711  159.9177 H   0  0  0  0  0  0  0  0  0  0  0  0  # atno 6908 bound_to 6896
  152.5355  134.0081  159.7979 H   0  0  0  0  0  0  0  0  0  0  0  0  # atno 6909 bound_to 6896
  145.2521  140.9241  143.3089 H   0  0  0  0  0  0  0  0  0  0  0  0  # atno 7974 bound_to 7965
  155.8471  140.0957  157.1698 H   0  0  0  0  0  0  0  0  0  0  0  0  # atno 8008 bound_to 7997
  154.3984  140.1390  156.3861 H   0  0  0  0  0  0  0  0  0  0  0  0  # atno 8009 bound_to 7997
  155.8001  140.3453  155.5400 H   0  0  0  0  0  0  0  0  0  0  0  0  # atno 8010 bound_to 7997
  139.6879  143.9471  152.2370 H   0  0  0  0  0  0  0  0  0  0  0  0  # atno 10167 bound_to 10162
  156.2091  130.4160  149.9138 H   0  0  0  0  0  0  0  0  0  0  0  0  # atno 10718 bound_to 10713
  154.7536  135.4955  153.9334 H   0  0  0  0  0  0  0  0  0  0  0  0  # atno 10763 bound_to 10752
  153.1171  135.6723  153.9407 H   0  0  0  0  0  0  0  0  0  0  0  0  # atno 10764 bound_to 10752
  153.9150  135.3094  155.3427 H   0  0  0  0  0  0  0  0  0  0  0  0  # atno 10765 bound_to 10752
  140.9119  134.1557  157.4382 H   0  0  0  0  0  0  0  0  0  0  0  0  # atno 11005 bound_to 11000
  144.9494  139.4100  143.6410 LP  0  0  0  0  0  0  0  0  0  0  0  0  # atno 17320 bound_to 7965
  146.3300  139.8494  142.8876 LP  0  0  0  0  0  0  0  0  0  0  0  0  # atno 17321 bound_to 7965
  139.9279  144.6760  150.8394 LP  0  0  0  0  0  0  0  0  0  0  0  0  # atno 17342 bound_to 10162
  140.7673  143.3329  151.2371 LP  0  0  0  0  0  0  0  0  0  0  0  0  # atno 17343 bound_to 10162
  156.6823  130.8863  151.3577 LP  0  0  0  0  0  0  0  0  0  0  0  0  # atno 17370 bound_to 10713
  157.7028  130.9352  150.0839 LP  0  0  0  0  0  0  0  0  0  0  0  0  # atno 17371 bound_to 10713
  139.8759  134.9939  156.5666 LP  0  0  0  0  0  0  0  0  0  0  0  0  # atno 17394 bound_to 11000
  140.8099  133.8437  155.8801 LP  0  0  0  0  0  0  0  0  0  0  0  0  # atno 17395 bound_to 11000

$$$$
