AV-unprocessed.smi:1426|AV-procd|sdf|5806|dock10
  -GOLD-   22720 5463D 1   1.00000     0.00000
 Structure written by MMmdl.
 43 45  0  0  0  0  0  0  0  0  1 V2000
  145.4976  138.3097  153.4660 O   0  0  0  0  0  0  0  0  0  0  0  0
  146.4929  137.6865  153.0968 C   0  0  0  0  0  0  0  0  0  0  0  0
  146.4513  136.4320  152.6264 N   0  0  0  0  0  0  0  0  0  0  0  0
  145.2505  135.6106  152.5097 C   0  0  0  0  0  0  0  0  0  0  0  0
  145.3547  134.6140  151.3399 C   0  0  1  0  0  0  0  0  0  0  0  0
  146.5151  133.6403  151.4201 C   0  0  0  0  0  0  0  0  0  0  0  0
  146.0760  132.5438  150.4546 C   0  0  0  0  0  0  0  0  0  0  0  0
  144.6519  132.5295  150.5007 O   0  0  0  0  0  0  0  0  0  0  0  0
  144.1754  133.6472  151.2438 C   0  0  0  0  0  0  0  0  0  0  0  0
  147.7541  138.1473  153.1334 N   0  0  0  0  0  0  0  0  0  0  0  0
  148.2196  139.3970  153.6326 C   0  0  0  0  0  0  0  0  0  0  0  0
  147.4569  140.5860  153.5340 C   0  0  0  0  0  0  0  0  0  0  0  0
  147.9875  141.7858  154.0400 C   0  0  0  0  0  0  0  0  0  0  0  0
  149.2682  141.7572  154.6193 C   0  0  0  0  0  0  0  0  0  0  0  0
  150.0145  140.6375  154.7040 N   0  0  0  0  0  0  0  0  0  0  0  0
  149.5094  139.4751  154.2229 C   0  0  0  0  0  0  0  0  0  0  0  0
  150.3266  138.3280  154.2919 N   0  0  0  0  0  0  0  0  0  0  0  0
  151.7071  138.6248  154.6648 C   0  0  0  0  0  0  0  0  0  0  0  0
  152.1687  137.4795  155.5681 C   0  0  0  0  0  0  0  0  0  0  0  0
  150.8694  136.9964  156.2004 C   0  0  0  0  0  0  0  0  0  0  0  0
  149.8644  137.1755  155.0639 C   0  0  0  0  0  0  0  0  0  0  0  0
  147.3218  136.0022  152.3492 H   0  0  0  0  0  0  0  0  0  0  0  0
  145.0422  135.0878  153.4450 H   0  0  0  0  0  0  0  0  0  0  0  0
  144.4063  136.2799  152.3421 H   0  0  0  0  0  0  0  0  0  0  0  0
  145.4268  135.1649  150.4004 H   0  0  0  0  0  0  0  0  0  0  0  0
  147.4721  134.0852  151.1458 H   0  0  0  0  0  0  0  0  0  0  0  0
  146.6033  133.2362  152.4297 H   0  0  0  0  0  0  0  0  0  0  0  0
  146.3868  132.7866  149.4377 H   0  0  0  0  0  0  0  0  0  0  0  0
  146.4939  131.5706  150.7130 H   0  0  0  0  0  0  0  0  0  0  0  0
  143.8787  133.2993  152.2343 H   0  0  0  0  0  0  0  0  0  0  0  0
  143.3034  134.0976  150.7692 H   0  0  0  0  0  0  0  0  0  0  0  0
  148.4759  137.4870  152.8850 H   0  0  0  0  0  0  0  0  0  0  0  0
  146.4836  140.6011  153.0680 H   0  0  0  0  0  0  0  0  0  0  0  0
  147.4273  142.7071  153.9805 H   0  0  0  0  0  0  0  0  0  0  0  0
  149.7096  142.6593  155.0164 H   0  0  0  0  0  0  0  0  0  0  0  0
  152.3408  138.7150  153.7821 H   0  0  0  0  0  0  0  0  0  0  0  0
  151.7567  139.5702  155.2085 H   0  0  0  0  0  0  0  0  0  0  0  0
  152.6032  136.6817  154.9639 H   0  0  0  0  0  0  0  0  0  0  0  0
  152.9120  137.7915  156.3025 H   0  0  0  0  0  0  0  0  0  0  0  0
  150.9237  135.9691  156.5618 H   0  0  0  0  0  0  0  0  0  0  0  0
  150.6016  137.6401  157.0397 H   0  0  0  0  0  0  0  0  0  0  0  0
  148.8425  137.2625  155.4341 H   0  0  0  0  0  0  0  0  0  0  0  0
  149.8892  136.3060  154.4064 H   0  0  0  0  0  0  0  0  0  0  0  0
  1  2  2  0  0  0  0
  2  3  1  0  0  0  0
  2 10  1  0  0  0  0
  3  4  1  0  0  0  0
  3 22  1  0  0  0  0
  4  5  1  0  0  0  0
  4 23  1  0  0  0  0
  4 24  1  0  0  0  0
  5  9  1  0  0  0  0
  5  6  1  0  0  0  0
  5 25  1  0  0  0  0
  6  7  1  0  0  0  0
  6 26  1  0  0  0  0
  6 27  1  0  0  0  0
  7  8  1  0  0  0  0
  7 28  1  0  0  0  0
  7 29  1  0  0  0  0
  8  9  1  0  0  0  0
  9 30  1  0  0  0  0
  9 31  1  0  0  0  0
 10 11  1  0  0  0  0
 10 32  1  0  0  0  0
 11 16  1  0  0  0  0
 11 12  2  0  0  0  0
 12 13  1  0  0  0  0
 12 33  1  0  0  0  0
 13 14  2  0  0  0  0
 13 34  1  0  0  0  0
 14 15  1  0  0  0  0
 14 35  1  0  0  0  0
 15 16  2  0  0  0  0
 16 17  1  0  0  0  0
 17 21  1  0  0  0  0
 17 18  1  0  0  0  0
 18 19  1  0  0  0  0
 18 36  1  0  0  0  0
 18 37  1  0  0  0  0
 19 20  1  0  0  0  0
 19 38  1  0  0  0  0
 19 39  1  0  0  0  0
 20 21  1  0  0  0  0
 20 40  1  0  0  0  0
 20 41  1  0  0  0  0
 21 42  1  0  0  0  0
 21 43  1  0  0  0  0
M  END
> <s_m_source_file>
AV-unprocessed.smi

> <i_m_source_file_index>
1426

> <i_lp_mmshare_version>
43012

> <i_f3d_flags>
0

> <s_epik_input>
W0NIMl0xT1tDSDJdW0NIMl1bQ0BIXTFbQ0gyXVtOSF1DKD1PKVtOSF1jMltjSF1bY0hdW2NIXW5jMk4zW0NIMl1bQ0gyXVtDSDJdW0NIMl0z

> <s_epik_cmdline>
J2VwaWtfcHl0aG9uJywgJy1waCcsICc3LjAnLCAnLXRuJywgJzgnLCAnLW1hJywgJzIwMCcsICctbWV0YWxfYmluZGluZycsICctaW1hZScsICc8aW5maWxlLm1hZT4nLCAnLW9tYWUnLCAnPG91dGZpbGUubWFlPic=

> <r_lp_tautomer_probability>
1

> <r_epik_Ionization_Penalty>
0.0999657

> <r_epik_Ionization_Penalty_Charging>
0

> <r_epik_Ionization_Penalty_Neutral>
0.0999657

> <r_epik_State_Penalty>
0.0894442

> <r_epik_Charging_Adjusted_Penalty>
0.0894442

> <i_epik_Tot_Q>
0

> <i_epik_Tot_abs_Q>
0

> <r_epik_Metal_State_Penalty>
0.076486

> <b_epik_Metal_Only>
0

> <s_lp_Force_Field>
OPLS_2005

> <r_lp_Energy>
46.9111

> <b_lp_Chiralities_Consistent>
1

> <s_lp_Variant>
AV-unprocessed.smi:1426-2

> <Gold.Version>
5.8.1

> <Gold.Id.Protein>
6NUR|6NUR_protein|mol2

> <Gold.PLP.Fitness>
42.8521

> <Gold.PLP.PLP>
-32.3452

> <Gold.PLP.part.hbond>
-3.2975

> <Gold.PLP.part.metal>
0.0000

> <Gold.PLP.part.buried>
0.9361

> <Gold.PLP.part.nonpolar>
-30.9038

> <Gold.PLP.part.repulsive>
1.9761

> <Gold.PLP.ligand.clash>
0.0000

> <Gold.PLP.ligand.torsion>
0.5361

> <Gold.PLP.Chemscore.Hbond>
2.8204

> <Gold.PLP.Chemscore.CHOScore>
1.0000

> <Gold.PLP.Chemscore.Metal>
0.0000

> <Gold.Chemscore.Hbonds>
donor molecule, donor type, donor heavy atom, donor atom, acceptor molecule, acceptor atom, score
      L1  H     3    22       P1  7948  0.96
      L1  H    10    32       P1  7948  0.94
      P1  H  7989  7998       L1    15  0.83
      L1  C    14    35       P1  8028  1.00

> <Gold.PLP.Chemscore.Internal.Correction>
0.1180

> <Gold.Rescore>
     Score         DG    S(hbond)    S(metal)    S(lipo)     H(rot)  DE(clash)    DE(int)     intcor
     13.99     -17.63       1.95        0.00      78.27       1.38       1.33       2.30       ----

> <Gold.Chemscore.Fitness>
13.9936

> <Gold.Chemscore.DG>
-17.6255

> <Gold.Chemscore.ZeroCoef>
-5.4800

> <Gold.Chemscore.Hbond>
1.9520

> <Gold.Chemscore.Metal>
0.0000

> <Gold.Chemscore.Lipo>
78.2687

> <Gold.Chemscore.Internal_Hbond>
0.0000

> <Gold.Chemscore.DEClash>
1.3291

> <Gold.Chemscore.DEInternal>
2.3028

> <Gold.Chemscore.Rot>
1.3796

> <Gold.Chemscore.Internal.Correction>
   9.000000E+99

> <Gold.Chemscore.Hbonds>
donor molecule, donor type, donor heavy atom, donor atom, acceptor molecule, acceptor atom, score
      L1  H     3    22       P1  7948  0.92
      L1  H    10    32       P1  7948  0.91
      P1  H  7989  7998       L1    15  0.14

> <Gold.Chemscore.Hbond.Weighted>
-6.5197

> <Gold.Chemscore.Metal.Weighted>
-0.0000

> <Gold.Chemscore.Lipo.Weighted>
-9.1574

> <Gold.Chemscore.Internal_Hbond.Weighted>
0.0000

> <Gold.Chemscore.DEClash.Weighted>
1.3291

> <Gold.Chemscore.DEInternal.Weighted>
2.3028

> <Gold.Chemscore.Rot.Weighted>
3.5317

> <Gold.Chemscore.Internal.Correction.Weighted>
   9.000000E+99

> <Gold.Protein.RotatedTorsions>
[ 6907 6896 6895 6894 ] final   43.08 input  -60.11 | X-H torsion
[ 7974 7965 7964 7962 ] final -105.63 input  175.53 | X-H torsion
[ 8008 7997 7996 7995 ] final -148.86 input   59.86 | X-H torsion
[ 10167 10162 10161 10158 ] final  166.16 input  -65.29 | X-H torsion
[ 10718 10713 10712 10709 ] final   93.07 input   66.30 | X-H torsion
[ 10763 10752 10751 10750 ] final  -54.35 input  -60.55 | X-H torsion
[ 11005 11000 10999 10996 ] final    3.81 input  -57.11 | X-H torsion

> <Gold.Protein.ActiveResidues>
 VAL166  LYS551  ARG553  GLY616  TRP617  ASP618  TYR619  PRO620  LYS621  CYS622 
 ASP623  PHE694  ASN695  SER759  ASP760  ASP761  ALA762  ILE779  LEU786  VAL792 
 PHE793  MET794  SER795  GLU796  ALA797  LYS798  CYS799  TRP800  GLU811  SER814 

> <Gold.Protein.RotatedAtoms>
  152.2158  134.8459  160.0491 H   0  0  0  0  0  0  0  0  0  0  0  0  # atno 6907 bound_to 6896
  151.9261  133.3593  159.3922 H   0  0  0  0  0  0  0  0  0  0  0  0  # atno 6908 bound_to 6896
  150.6987  134.4511  159.5380 H   0  0  0  0  0  0  0  0  0  0  0  0  # atno 6909 bound_to 6896
  145.2280  140.9160  143.3221 H   0  0  0  0  0  0  0  0  0  0  0  0  # atno 7974 bound_to 7965
  155.5984  140.0659  157.2740 H   0  0  0  0  0  0  0  0  0  0  0  0  # atno 8008 bound_to 7997
  154.4286  140.1823  156.1194 H   0  0  0  0  0  0  0  0  0  0  0  0  # atno 8009 bound_to 7997
  156.0178  140.3320  155.7011 H   0  0  0  0  0  0  0  0  0  0  0  0  # atno 8010 bound_to 7997
  139.4919  144.4057  151.9358 H   0  0  0  0  0  0  0  0  0  0  0  0  # atno 10167 bound_to 10162
  157.6956  131.0465  150.3978 H   0  0  0  0  0  0  0  0  0  0  0  0  # atno 10718 bound_to 10713
  154.1734  135.6455  153.5015 H   0  0  0  0  0  0  0  0  0  0  0  0  # atno 10763 bound_to 10752
  153.0078  135.5388  154.6589 H   0  0  0  0  0  0  0  0  0  0  0  0  # atno 10764 bound_to 10752
  154.5934  135.2936  155.0583 H   0  0  0  0  0  0  0  0  0  0  0  0  # atno 10765 bound_to 10752
  140.5889  133.9942  155.8080 H   0  0  0  0  0  0  0  0  0  0  0  0  # atno 11005 bound_to 11000
  144.9703  139.3887  143.6312 LP  0  0  0  0  0  0  0  0  0  0  0  0  # atno 17320 bound_to 7965
  146.3360  139.8797  142.8826 LP  0  0  0  0  0  0  0  0  0  0  0  0  # atno 17321 bound_to 7965
  140.3497  144.3104  150.5951 LP  0  0  0  0  0  0  0  0  0  0  0  0  # atno 17342 bound_to 10162
  140.5496  143.2209  151.7950 LP  0  0  0  0  0  0  0  0  0  0  0  0  # atno 17343 bound_to 10162
  156.4375  130.3984  149.6719 LP  0  0  0  0  0  0  0  0  0  0  0  0  # atno 17370 bound_to 10713
  156.3914  130.7629  151.2630 LP  0  0  0  0  0  0  0  0  0  0  0  0  # atno 17371 bound_to 10713
  141.0948  133.9861  157.3179 LP  0  0  0  0  0  0  0  0  0  0  0  0  # atno 17394 bound_to 11000
  139.9283  135.0201  156.8312 LP  0  0  0  0  0  0  0  0  0  0  0  0  # atno 17395 bound_to 11000

$$$$
