AV-unprocessed.smi:2485|AV-procd|sdf|9789|dock6
  -GOLD-   2272013423D 1   1.00000     0.00000
 Structure written by MMmdl.
 39 40  0  0  0  0  0  0  0  0  1 V2000
  143.1692  132.7022  150.9054 C   0  0  0  0  0  0  0  0  0  0  0  0
  144.6987  132.8533  150.8435 C   0  0  0  0  0  0  0  0  0  0  0  0
  145.2845  132.0587  149.6664 C   0  0  0  0  0  0  0  0  0  0  0  0
  145.1293  134.3246  150.8219 C   0  0  0  0  0  0  0  0  0  0  0  0
  145.2756  134.6625  152.2923 C   0  0  2  0  0  0  0  0  0  0  0  0
  146.1785  135.7938  152.4949 N   0  0  0  0  0  0  0  0  0  0  0  0
  145.8275  136.9795  153.0120 C   0  0  0  0  0  0  0  0  0  0  0  0
  144.6786  137.2588  153.3548 O   0  0  0  0  0  0  0  0  0  0  0  0
  146.8876  137.8005  153.1046 N   0  0  0  0  0  0  0  0  0  0  0  0
  146.9282  139.1224  153.6209 C   0  0  0  0  0  0  0  0  0  0  0  0
  148.2079  139.7158  153.6615 C   0  0  0  0  0  0  0  0  0  0  0  0
  148.3209  141.0232  154.1645 C   0  0  0  0  0  0  0  0  0  0  0  0
  147.1399  141.6517  154.5945 C   0  0  0  0  0  0  0  0  0  0  0  0
  145.9346  141.0452  154.5372 N   0  0  0  0  0  0  0  0  0  0  0  0
  145.8344  139.8006  154.0575 N   0  0  0  0  0  0  0  0  0  0  0  0
  145.7908  133.3340  152.8891 C   0  0  0  0  0  0  0  0  0  0  0  0
  147.3220  133.1547  152.8161 C   0  0  0  0  0  0  0  0  0  0  0  0
  145.2852  133.1027  154.3220 C   0  0  0  0  0  0  0  0  0  0  0  0
  145.2265  132.3208  152.0576 O   0  0  0  0  0  0  0  0  0  0  0  0
  142.6957  133.1069  150.0104 H   0  0  0  0  0  0  0  0  0  0  0  0
  142.7499  133.2232  151.7665 H   0  0  0  0  0  0  0  0  0  0  0  0
  142.8811  131.6539  150.9875 H   0  0  0  0  0  0  0  0  0  0  0  0
  144.9246  132.4444  148.7120 H   0  0  0  0  0  0  0  0  0  0  0  0
  145.0080  131.0057  149.7257 H   0  0  0  0  0  0  0  0  0  0  0  0
  146.3736  132.1103  149.6572 H   0  0  0  0  0  0  0  0  0  0  0  0
  146.0916  134.4298  150.3179 H   0  0  0  0  0  0  0  0  0  0  0  0
  144.4191  134.9718  150.3061 H   0  0  0  0  0  0  0  0  0  0  0  0
  144.2835  134.8925  152.6863 H   0  0  0  0  0  0  0  0  0  0  0  0
  147.1446  135.6526  152.2392 H   0  0  0  0  0  0  0  0  0  0  0  0
  147.7691  137.4342  152.7778 H   0  0  0  0  0  0  0  0  0  0  0  0
  149.0833  139.1841  153.3176 H   0  0  0  0  0  0  0  0  0  0  0  0
  149.2758  141.5244  154.2192 H   0  0  0  0  0  0  0  0  0  0  0  0
  147.1607  142.6559  154.9911 H   0  0  0  0  0  0  0  0  0  0  0  0
  147.8409  133.8617  153.4639 H   0  0  0  0  0  0  0  0  0  0  0  0
  147.6957  133.2945  151.8017 H   0  0  0  0  0  0  0  0  0  0  0  0
  147.6119  132.1526  153.1334 H   0  0  0  0  0  0  0  0  0  0  0  0
  145.6873  133.8473  155.0090 H   0  0  0  0  0  0  0  0  0  0  0  0
  145.5807  132.1202  154.6907 H   0  0  0  0  0  0  0  0  0  0  0  0
  144.1974  133.1573  154.3718 H   0  0  0  0  0  0  0  0  0  0  0  0
  1  2  1  0  0  0  0
  1 20  1  0  0  0  0
  1 21  1  0  0  0  0
  1 22  1  0  0  0  0
  2 19  1  0  0  0  0
  2  3  1  0  0  0  0
  2  4  1  0  0  0  0
  3 23  1  0  0  0  0
  3 24  1  0  0  0  0
  3 25  1  0  0  0  0
  4  5  1  0  0  0  0
  4 26  1  0  0  0  0
  4 27  1  0  0  0  0
  5  6  1  0  0  0  0
  5 16  1  0  0  0  0
  5 28  1  0  0  0  0
  6  7  1  0  0  0  0
  6 29  1  0  0  0  0
  7  8  2  0  0  0  0
  7  9  1  0  0  0  0
  9 10  1  0  0  0  0
  9 30  1  0  0  0  0
 10 15  1  0  0  0  0
 10 11  2  0  0  0  0
 11 12  1  0  0  0  0
 11 31  1  0  0  0  0
 12 13  2  0  0  0  0
 12 32  1  0  0  0  0
 13 14  1  0  0  0  0
 13 33  1  0  0  0  0
 14 15  2  0  0  0  0
 16 17  1  0  0  0  0
 16 18  1  0  0  0  0
 16 19  1  0  0  0  0
 17 34  1  0  0  0  0
 17 35  1  0  0  0  0
 17 36  1  0  0  0  0
 18 37  1  0  0  0  0
 18 38  1  0  0  0  0
 18 39  1  0  0  0  0
M  END
> <s_m_source_file>
AV-unprocessed.smi

> <i_m_source_file_index>
2485

> <i_lp_mmshare_version>
43012

> <i_f3d_flags>
0

> <s_epik_input>
W0NIM11DMShbQ0gzXSlbQ0gyXVtDQEhdKEMoTzEpKFtDSDNdKVtDSDNdKVtOSF1DKD1PKVtOSF1jMltjSF1bY0hdW2NIXW5uMg==

> <s_epik_cmdline>
J2VwaWtfcHl0aG9uJywgJy1waCcsICc3LjAnLCAnLXRuJywgJzgnLCAnLW1hJywgJzIwMCcsICctbWV0YWxfYmluZGluZycsICctaW1hZScsICc8aW5maWxlLm1hZT4nLCAnLW9tYWUnLCAnPG91dGZpbGUubWFlPic=

> <r_lp_tautomer_probability>
1

> <r_epik_Ionization_Penalty>
0.00480341

> <r_epik_Ionization_Penalty_Charging>
0

> <r_epik_Ionization_Penalty_Neutral>
0.00480341

> <r_epik_State_Penalty>
-0

> <r_epik_Charging_Adjusted_Penalty>
0

> <i_epik_Tot_Q>
0

> <i_epik_Tot_abs_Q>
0

> <r_epik_Metal_State_Penalty>
-0

> <b_epik_Metal_Only>
0

> <s_lp_Force_Field>
OPLS_2005

> <r_lp_Energy>
24.1207

> <b_lp_Chiralities_Consistent>
1

> <s_lp_Variant>
AV-unprocessed.smi:2485-2

> <Gold.Version>
5.8.1

> <Gold.Id.Protein>
6NUR|6NUR_protein|mol2

> <Gold.PLP.Fitness>
37.0985

> <Gold.PLP.PLP>
-28.2517

> <Gold.PLP.part.hbond>
-1.9102

> <Gold.PLP.part.metal>
0.0000

> <Gold.PLP.part.buried>
-0.8402

> <Gold.PLP.part.nonpolar>
-26.1178

> <Gold.PLP.part.repulsive>
0.5566

> <Gold.PLP.ligand.clash>
0.0000

> <Gold.PLP.ligand.torsion>
0.0461

> <Gold.PLP.Chemscore.Hbond>
1.9760

> <Gold.PLP.Chemscore.CHOScore>
1.0000

> <Gold.PLP.Chemscore.Metal>
0.0000

> <Gold.Chemscore.Hbonds>
donor molecule, donor type, donor heavy atom, donor atom, acceptor molecule, acceptor atom, score
      L1  H     6    29       P1  7948  1.00
      L1  H     9    30       P1  7948  1.00
      L1  C    13    33       P1  8028  0.49

> <Gold.PLP.Chemscore.Internal.Correction>
0.0111

> <Gold.Rescore>
     Score         DG    S(hbond)    S(metal)    S(lipo)     H(rot)  DE(clash)    DE(int)     intcor
     15.37     -16.70       1.92        0.00      62.92       1.00       0.02       1.32       ----

> <Gold.Chemscore.Fitness>
15.3660

> <Gold.Chemscore.DG>
-16.7012

> <Gold.Chemscore.ZeroCoef>
-5.4800

> <Gold.Chemscore.Hbond>
1.9220

> <Gold.Chemscore.Metal>
0.0000

> <Gold.Chemscore.Lipo>
62.9196

> <Gold.Chemscore.Internal_Hbond>
0.0000

> <Gold.Chemscore.DEClash>
0.0174

> <Gold.Chemscore.DEInternal>
1.3178

> <Gold.Chemscore.Rot>
1.0000

> <Gold.Chemscore.Internal.Correction>
   9.000000E+99

> <Gold.Chemscore.Hbonds>
donor molecule, donor type, donor heavy atom, donor atom, acceptor molecule, acceptor atom, score
      L1  H     6    29       P1  7948  0.98
      L1  H     9    30       P1  7948  0.99

> <Gold.Chemscore.Hbond.Weighted>
-6.4196

> <Gold.Chemscore.Metal.Weighted>
-0.0000

> <Gold.Chemscore.Lipo.Weighted>
-7.3616

> <Gold.Chemscore.Internal_Hbond.Weighted>
0.0000

> <Gold.Chemscore.DEClash.Weighted>
0.0174

> <Gold.Chemscore.DEInternal.Weighted>
1.3178

> <Gold.Chemscore.Rot.Weighted>
2.5600

> <Gold.Chemscore.Internal.Correction.Weighted>
   9.000000E+99

> <Gold.Protein.RotatedTorsions>
[ 6907 6896 6895 6894 ] final -160.23 input  -60.11 | X-H torsion
[ 7974 7965 7964 7962 ] final   37.95 input  175.53 | X-H torsion
[ 8008 7997 7996 7995 ] final -117.55 input   59.86 | X-H torsion
[ 10167 10162 10161 10158 ] final  -36.72 input  -65.29 | X-H torsion
[ 10718 10713 10712 10709 ] final   56.92 input   66.30 | X-H torsion
[ 10763 10752 10751 10750 ] final  171.78 input  -60.55 | X-H torsion
[ 11005 11000 10999 10996 ] final -145.45 input  -57.11 | X-H torsion

> <Gold.Protein.ActiveResidues>
 VAL166  LYS551  ARG553  GLY616  TRP617  ASP618  TYR619  PRO620  LYS621  CYS622 
 ASP623  PHE694  ASN695  SER759  ASP760  ASP761  ALA762  ILE779  LEU786  VAL792 
 PHE793  MET794  SER795  GLU796  ALA797  LYS798  CYS799  TRP800  GLU811  SER814 

> <Gold.Protein.RotatedAtoms>
  151.3458  133.3944  159.2675 H   0  0  0  0  0  0  0  0  0  0  0  0  # atno 6907 bound_to 6896
  150.9841  134.9191  159.7872 H   0  0  0  0  0  0  0  0  0  0  0  0  # atno 6908 bound_to 6896
  152.5226  134.3422  159.9273 H   0  0  0  0  0  0  0  0  0  0  0  0  # atno 6909 bound_to 6896
  146.1099  139.5832  142.9359 H   0  0  0  0  0  0  0  0  0  0  0  0  # atno 7974 bound_to 7965
  155.0855  140.0394  157.2652 H   0  0  0  0  0  0  0  0  0  0  0  0  # atno 8008 bound_to 7997
  154.6873  140.2646  155.6823 H   0  0  0  0  0  0  0  0  0  0  0  0  # atno 8009 bound_to 7997
  156.2716  140.2766  156.1439 H   0  0  0  0  0  0  0  0  0  0  0  0  # atno 8010 bound_to 7997
  140.7136  143.3390  151.2400 H   0  0  0  0  0  0  0  0  0  0  0  0  # atno 10167 bound_to 10162
  157.5472  130.8739  149.8908 H   0  0  0  0  0  0  0  0  0  0  0  0  # atno 10718 bound_to 10713
  154.4167  135.2757  155.2002 H   0  0  0  0  0  0  0  0  0  0  0  0  # atno 10763 bound_to 10752
  154.3964  135.6054  153.5876 H   0  0  0  0  0  0  0  0  0  0  0  0  # atno 10764 bound_to 10752
  152.9832  135.5916  154.4457 H   0  0  0  0  0  0  0  0  0  0  0  0  # atno 10765 bound_to 10752
  140.7921  134.2956  157.5009 H   0  0  0  0  0  0  0  0  0  0  0  0  # atno 11005 bound_to 11000
  145.5684  141.0397  143.2187 LP  0  0  0  0  0  0  0  0  0  0  0  0  # atno 17320 bound_to 7965
  144.7503  139.7212  143.7276 LP  0  0  0  0  0  0  0  0  0  0  0  0  # atno 17321 bound_to 7965
  139.6892  143.9721  152.2850 LP  0  0  0  0  0  0  0  0  0  0  0  0  # atno 17342 bound_to 10162
  139.9377  144.6701  150.8298 LP  0  0  0  0  0  0  0  0  0  0  0  0  # atno 17343 bound_to 10162
  156.0545  130.3711  150.1123 LP  0  0  0  0  0  0  0  0  0  0  0  0  # atno 17370 bound_to 10713
  156.9298  130.9710  151.3535 LP  0  0  0  0  0  0  0  0  0  0  0  0  # atno 17371 bound_to 10713
  139.8730  134.9381  156.3704 LP  0  0  0  0  0  0  0  0  0  0  0  0  # atno 17394 bound_to 11000
  140.9379  133.7535  156.0108 LP  0  0  0  0  0  0  0  0  0  0  0  0  # atno 17395 bound_to 11000

$$$$
