AV-unprocessed.smi:1239|AV-procd|sdf|5185|dock9
  -GOLD-   22720 4263D 1   1.00000     0.00000
 Structure written by MMmdl.
 48 49  0  0  0  0  0  0  0  0  2 V2000
  146.5848  142.1214  154.9344 C   0  0  0  0  0  0  0  0  0  0  0  0
  147.8366  141.5026  154.2711 C   0  0  2  0  0  0  0  0  0  0  0  0
  147.3906  140.8131  152.9570 C   0  0  0  0  0  0  0  0  0  0  0  0
  146.8055  139.4980  153.2081 N   0  0  0  0  0  0  0  0  0  0  0  0
  146.5785  138.5588  152.2796 C   0  0  0  0  0  0  0  0  0  0  0  0
  146.8540  138.7002  151.0886 O   0  0  0  0  0  0  0  0  0  0  0  0
  146.0056  137.4697  152.8213 N   0  0  0  0  0  0  0  0  0  0  0  0
  145.5970  136.2652  152.1837 C   0  0  0  0  0  0  0  0  0  0  0  0
  145.0628  135.2430  152.9959 C   0  0  0  0  0  0  0  0  0  0  0  0
  144.6487  134.0265  152.4152 C   0  0  0  0  0  0  0  0  0  0  0  0
  144.7768  133.8330  151.0178 C   0  0  0  0  0  0  0  0  0  0  0  0
  144.3844  132.6464  150.3614 N   0  0  0  0  0  0  0  0  0  0  0  0
  143.9840  132.6918  148.9595 C   0  0  0  0  0  0  0  0  0  0  0  0
  144.3581  131.3870  151.0939 C   0  0  0  0  0  0  0  0  0  0  0  0
  145.3055  134.8395  150.2802 N   0  3  0  0  0  0  0  0  0  0  0  0
  145.7146  136.0193  150.7946 C   0  0  0  0  0  0  0  0  0  0  0  0
  148.6163  140.6322  155.1787 N   0  0  0  0  0  0  0  0  0  0  0  0
  149.7430  139.9810  154.5033 C   0  0  0  0  0  0  0  0  0  0  0  0
  150.5695  139.0946  155.4510 C   0  0  0  0  0  0  0  0  0  0  0  0
  151.0362  139.8705  156.5468 O   0  0  0  0  0  0  0  0  0  0  0  0
  149.9710  140.4673  157.2746 C   0  0  0  0  0  0  0  0  0  0  0  0
  149.1400  141.3609  156.3379 C   0  0  0  0  0  0  0  0  0  0  0  0
  145.9798  142.6643  154.2076 H   0  0  0  0  0  0  0  0  0  0  0  0
  146.8440  142.8416  155.7097 H   0  0  0  0  0  0  0  0  0  0  0  0
  145.9502  141.3566  155.3832 H   0  0  0  0  0  0  0  0  0  0  0  0
  148.4759  142.3367  153.9773 H   0  0  0  0  0  0  0  0  0  0  0  0
  146.6794  141.4605  152.4410 H   0  0  0  0  0  0  0  0  0  0  0  0
  148.2208  140.7031  152.2601 H   0  0  0  0  0  0  0  0  0  0  0  0
  146.5428  139.3000  154.1628 H   0  0  0  0  0  0  0  0  0  0  0  0
  145.7976  137.5284  153.8075 H   0  0  0  0  0  0  0  0  0  0  0  0
  144.9646  135.3879  154.0620 H   0  0  0  0  0  0  0  0  0  0  0  0
  144.2376  133.2601  153.0550 H   0  0  0  0  0  0  0  0  0  0  0  0
  144.8080  133.0419  148.3368 H   0  0  0  0  0  0  0  0  0  0  0  0
  143.1363  133.3643  148.8242 H   0  0  0  0  0  0  0  0  0  0  0  0
  143.6889  131.7066  148.5981 H   0  0  0  0  0  0  0  0  0  0  0  0
  143.6507  131.4400  151.9222 H   0  0  0  0  0  0  0  0  0  0  0  0
  145.3461  131.1541  151.4920 H   0  0  0  0  0  0  0  0  0  0  0  0
  144.0567  130.5603  150.4504 H   0  0  0  0  0  0  0  0  0  0  0  0
  146.1239  136.7057  150.0695 H   0  0  0  0  0  0  0  0  0  0  0  0
  149.3888  139.3474  153.6919 H   0  0  0  0  0  0  0  0  0  0  0  0
  150.3920  140.7353  154.0555 H   0  0  0  0  0  0  0  0  0  0  0  0
  149.9725  138.2570  155.8153 H   0  0  0  0  0  0  0  0  0  0  0  0
  151.4256  138.6726  154.9245 H   0  0  0  0  0  0  0  0  0  0  0  0
  149.3476  139.6924  157.7239 H   0  0  0  0  0  0  0  0  0  0  0  0
  150.3858  141.0577  158.0917 H   0  0  0  0  0  0  0  0  0  0  0  0
  149.7524  142.1992  156.0017 H   0  0  0  0  0  0  0  0  0  0  0  0
  148.3252  141.7813  156.9255 H   0  0  0  0  0  0  0  0  0  0  0  0
  145.4031  134.6981  149.2747 H   0  0  0  0  0  0  0  0  0  0  0  0
  1  2  1  0  0  0  0
  1 23  1  0  0  0  0
  1 24  1  0  0  0  0
  1 25  1  0  0  0  0
  2  3  1  0  0  0  0
  2 17  1  0  0  0  0
  2 26  1  0  0  0  0
  3  4  1  0  0  0  0
  3 27  1  0  0  0  0
  3 28  1  0  0  0  0
  4  5  1  0  0  0  0
  4 29  1  0  0  0  0
  5  6  2  0  0  0  0
  5  7  1  0  0  0  0
  7  8  1  0  0  0  0
  7 30  1  0  0  0  0
  8 16  1  0  0  0  0
  8  9  2  0  0  0  0
  9 10  1  0  0  0  0
  9 31  1  0  0  0  0
 10 11  2  0  0  0  0
 10 32  1  0  0  0  0
 11 12  1  0  0  0  0
 11 15  1  0  0  0  0
 12 13  1  0  0  0  0
 12 14  1  0  0  0  0
 13 33  1  0  0  0  0
 13 34  1  0  0  0  0
 13 35  1  0  0  0  0
 14 36  1  0  0  0  0
 14 37  1  0  0  0  0
 14 38  1  0  0  0  0
 15 16  2  0  0  0  0
 15 48  1  0  0  0  0
 16 39  1  0  0  0  0
 17 22  1  0  0  0  0
 17 18  1  0  0  0  0
 18 19  1  0  0  0  0
 18 40  1  0  0  0  0
 18 41  1  0  0  0  0
 19 20  1  0  0  0  0
 19 42  1  0  0  0  0
 19 43  1  0  0  0  0
 20 21  1  0  0  0  0
 21 22  1  0  0  0  0
 21 44  1  0  0  0  0
 21 45  1  0  0  0  0
 22 46  1  0  0  0  0
 22 47  1  0  0  0  0
M  CHG  1  15   1
M  END
> <s_m_source_file>
AV-unprocessed.smi

> <i_m_source_file_index>
1239

> <i_lp_mmshare_version>
43012

> <i_f3d_flags>
0

> <s_epik_input>
W0NIMl0xW0NIMl1PW0NIMl1bQ0gyXU4xW0NASF0oW0NIM10pW0NIMl1bTkhdQyg9TylbTkhdYzJbY0hdW2NIXWMoTihbQ0gzXSlbQ0gzXSluW2NIXTI=

> <s_epik_cmdline>
J2VwaWtfcHl0aG9uJywgJy1waCcsICc3LjAnLCAnLXRuJywgJzgnLCAnLW1hJywgJzIwMCcsICctbWV0YWxfYmluZGluZycsICctaW1hZScsICc8aW5maWxlLm1hZT4nLCAnLW9tYWUnLCAnPG91dGZpbGUubWFlPic=

> <r_lp_tautomer_probability>
0.999994

> <r_epik_Ionization_Penalty>
0.528791

> <r_epik_Ionization_Penalty_Charging>
0.26278

> <r_epik_Ionization_Penalty_Neutral>
0.26601

> <r_epik_State_Penalty>
0.520375

> <r_epik_Charging_Adjusted_Penalty>
0.783156

> <i_epik_Tot_Q>
1

> <i_epik_Tot_abs_Q>
1

> <r_epik_Metal_State_Penalty>
0.806531

> <b_epik_Metal_Only>
0

> <s_lp_Force_Field>
OPLS_2005

> <r_lp_Energy>
44.5879

> <b_lp_Chiralities_Consistent>
1

> <s_lp_Variant>
AV-unprocessed.smi:1239-1

> <Gold.Version>
5.8.1

> <Gold.Id.Protein>
6NUR|6NUR_protein|mol2

> <Gold.PLP.Fitness>
44.9093

> <Gold.PLP.PLP>
-40.0856

> <Gold.PLP.part.hbond>
-2.0219

> <Gold.PLP.part.metal>
0.0000

> <Gold.PLP.part.buried>
-6.2431

> <Gold.PLP.part.nonpolar>
-32.8798

> <Gold.PLP.part.repulsive>
0.8904

> <Gold.PLP.ligand.clash>
0.0000

> <Gold.PLP.ligand.torsion>
0.5571

> <Gold.PLP.Chemscore.Hbond>
1.9600

> <Gold.PLP.Chemscore.CHOScore>
0.0000

> <Gold.PLP.Chemscore.Metal>
0.0000

> <Gold.Chemscore.Hbonds>
donor molecule, donor type, donor heavy atom, donor atom, acceptor molecule, acceptor atom, score
      L1  H    15    48       P1  7921  1.00
      P1  H  7954  7966       L1     6  0.98

> <Gold.PLP.Chemscore.Internal.Correction>
0.0578

> <Gold.Rescore>
     Score         DG    S(hbond)    S(metal)    S(lipo)     H(rot)  DE(clash)    DE(int)     intcor
     15.05     -17.74       1.87        0.00      83.39       1.46       0.81       1.88       ----

> <Gold.Chemscore.Fitness>
15.0504

> <Gold.Chemscore.DG>
-17.7400

> <Gold.Chemscore.ZeroCoef>
-5.4800

> <Gold.Chemscore.Hbond>
1.8688

> <Gold.Chemscore.Metal>
0.0000

> <Gold.Chemscore.Lipo>
83.3907

> <Gold.Chemscore.Internal_Hbond>
0.0000

> <Gold.Chemscore.DEClash>
0.8140

> <Gold.Chemscore.DEInternal>
1.8755

> <Gold.Chemscore.Rot>
1.4604

> <Gold.Chemscore.Internal.Correction>
   9.000000E+99

> <Gold.Chemscore.Hbonds>
donor molecule, donor type, donor heavy atom, donor atom, acceptor molecule, acceptor atom, score
      L1  H    15    48       P1  7921  0.99
      P1  H  7954  7966       L1     6  0.92

> <Gold.Chemscore.Hbond.Weighted>
-6.2418

> <Gold.Chemscore.Metal.Weighted>
-0.0000

> <Gold.Chemscore.Lipo.Weighted>
-9.7567

> <Gold.Chemscore.Internal_Hbond.Weighted>
0.0000

> <Gold.Chemscore.DEClash.Weighted>
0.8140

> <Gold.Chemscore.DEInternal.Weighted>
1.8755

> <Gold.Chemscore.Rot.Weighted>
3.7385

> <Gold.Chemscore.Internal.Correction.Weighted>
   9.000000E+99

> <Gold.Protein.RotatedTorsions>
[ 6907 6896 6895 6894 ] final -116.18 input  -60.11 | X-H torsion
[ 7974 7965 7964 7962 ] final  112.13 input  175.53 | X-H torsion
[ 8008 7997 7996 7995 ] final  146.55 input   59.86 | X-H torsion
[ 10167 10162 10161 10158 ] final -171.66 input  -65.29 | X-H torsion
[ 10718 10713 10712 10709 ] final  -93.81 input   66.30 | X-H torsion
[ 10763 10752 10751 10750 ] final  141.59 input  -60.55 | X-H torsion
[ 11005 11000 10999 10996 ] final  -38.10 input  -57.11 | X-H torsion

> <Gold.Protein.ActiveResidues>
 VAL166  LYS551  ARG553  GLY616  TRP617  ASP618  TYR619  PRO620  LYS621  CYS622 
 ASP623  PHE694  ASN695  SER759  ASP760  ASP761  ALA762  ILE779  LEU786  VAL792 
 PHE793  MET794  SER795  GLU796  ALA797  LYS798  CYS799  TRP800  GLU811  SER814 

> <Gold.Protein.RotatedAtoms>
  150.8036  133.8553  159.3216 H   0  0  0  0  0  0  0  0  0  0  0  0  # atno 6907 bound_to 6896
  151.6359  135.1016  160.0141 H   0  0  0  0  0  0  0  0  0  0  0  0  # atno 6908 bound_to 6896
  152.4125  133.6945  159.6445 H   0  0  0  0  0  0  0  0  0  0  0  0  # atno 6909 bound_to 6896
  145.2334  139.2809  143.4156 H   0  0  0  0  0  0  0  0  0  0  0  0  # atno 7974 bound_to 7965
  156.2852  140.2179  156.5394 H   0  0  0  0  0  0  0  0  0  0  0  0  # atno 8008 bound_to 7997
  154.7382  140.0490  157.0810 H   0  0  0  0  0  0  0  0  0  0  0  0  # atno 8009 bound_to 7997
  155.0265  140.3130  155.4777 H   0  0  0  0  0  0  0  0  0  0  0  0  # atno 8010 bound_to 7997
  139.5790  144.1467  152.1489 H   0  0  0  0  0  0  0  0  0  0  0  0  # atno 10167 bound_to 10162
  156.0018  130.5042  150.5832 H   0  0  0  0  0  0  0  0  0  0  0  0  # atno 10718 bound_to 10713
  153.9417  135.2979  155.3442 H   0  0  0  0  0  0  0  0  0  0  0  0  # atno 10763 bound_to 10752
  154.7473  135.4997  153.9230 H   0  0  0  0  0  0  0  0  0  0  0  0  # atno 10764 bound_to 10752
  153.1039  135.6741  153.9729 H   0  0  0  0  0  0  0  0  0  0  0  0  # atno 10765 bound_to 10752
  141.0002  133.6959  156.2009 H   0  0  0  0  0  0  0  0  0  0  0  0  # atno 11005 bound_to 11000
  146.3347  140.2676  142.8604 LP  0  0  0  0  0  0  0  0  0  0  0  0  # atno 17320 bound_to 7965
  144.9655  140.8317  143.5487 LP  0  0  0  0  0  0  0  0  0  0  0  0  # atno 17321 bound_to 7965
  140.1016  144.5534  150.6985 LP  0  0  0  0  0  0  0  0  0  0  0  0  # atno 17342 bound_to 10162
  140.7070  143.2475  151.4697 LP  0  0  0  0  0  0  0  0  0  0  0  0  # atno 17343 bound_to 10162
  157.3709  131.0765  151.1558 LP  0  0  0  0  0  0  0  0  0  0  0  0  # atno 17370 bound_to 10713
  157.2312  130.6526  149.5850 LP  0  0  0  0  0  0  0  0  0  0  0  0  # atno 17371 bound_to 10713
  140.6901  134.4675  157.5588 LP  0  0  0  0  0  0  0  0  0  0  0  0  # atno 17394 bound_to 11000
  139.9035  134.8502  156.1799 LP  0  0  0  0  0  0  0  0  0  0  0  0  # atno 17395 bound_to 11000

$$$$
