AV-unprocessed.smi:311|AV-procd|sdf|2301|dock9
  -GOLD-   2262022203D 1   1.00000     0.00000
 Structure written by MMmdl.
 44 46  0  0  0  0  0  0  0  0  2 V2000
  152.1401  130.0570  155.3501 C   0  0  0  0  0  0  0  0  0  0  0  0
  151.4221  131.1831  156.0371 C   0  0  0  0  0  0  0  0  0  0  0  0
  151.6836  131.4459  157.3064 N   0  0  0  0  0  0  0  0  0  0  0  0
  150.8609  132.5224  157.6522 O   0  0  0  0  0  0  0  0  0  0  0  0
  150.1259  132.8677  156.5645 C   0  0  0  0  0  0  0  0  0  0  0  0
  149.1707  134.0007  156.7311 C   0  0  0  0  0  0  0  0  0  0  0  0
  150.4335  132.0599  155.5045 C   0  0  0  0  0  0  0  0  0  0  0  0
  149.8629  132.0824  154.1098 C   0  0  0  0  0  0  0  0  0  0  0  0
  148.3774  131.7211  154.1520 C   0  0  0  0  0  0  0  0  0  0  0  0
  147.7994  131.6085  155.2330 O   0  0  0  0  0  0  0  0  0  0  0  0
  147.7695  131.5390  152.9690 N   0  0  0  0  0  0  0  0  0  0  0  0
  146.3771  131.1313  152.7914 C   0  0  2  0  0  0  0  0  0  0  0  0
  146.2306  129.8037  152.0244 C   0  0  0  0  0  0  0  0  0  0  0  0
  145.0061  130.0114  151.1270 C   0  0  0  0  0  0  0  0  0  0  0  0
  145.0865  131.4375  150.7910 N   0  3  1  0  0  0  0  0  0  0  0  0
  143.9327  132.0761  150.1262 C   0  0  0  0  0  0  0  0  0  0  0  0
  144.3433  133.5045  149.7083 C   0  0  0  0  0  0  0  0  0  0  0  0
  144.9338  134.3133  150.8860 C   0  0  0  0  0  0  0  0  0  0  0  0
  146.0453  133.5329  151.6215 C   0  0  0  0  0  0  0  0  0  0  0  0
  145.5043  132.1461  152.0134 C   0  0  2  0  0  0  0  0  0  0  0  0
  152.4084  130.3281  154.3291 H   0  0  0  0  0  0  0  0  0  0  0  0
  151.5116  129.1675  155.3033 H   0  0  0  0  0  0  0  0  0  0  0  0
  153.0593  129.7876  155.8712 H   0  0  0  0  0  0  0  0  0  0  0  0
  148.1782  133.7222  156.3767 H   0  0  0  0  0  0  0  0  0  0  0  0
  149.5014  134.8697  156.1624 H   0  0  0  0  0  0  0  0  0  0  0  0
  149.0846  134.2937  157.7777 H   0  0  0  0  0  0  0  0  0  0  0  0
  149.9626  133.0683  153.6547 H   0  0  0  0  0  0  0  0  0  0  0  0
  150.3977  131.3928  153.4552 H   0  0  0  0  0  0  0  0  0  0  0  0
  148.3222  131.6582  152.1321 H   0  0  0  0  0  0  0  0  0  0  0  0
  145.9317  130.9895  153.7784 H   0  0  0  0  0  0  0  0  0  0  0  0
  147.1081  129.6287  151.3995 H   0  0  0  0  0  0  0  0  0  0  0  0
  146.1216  128.9445  152.6870 H   0  0  0  0  0  0  0  0  0  0  0  0
  145.0219  129.3799  150.2381 H   0  0  0  0  0  0  0  0  0  0  0  0
  144.0859  129.8132  151.6790 H   0  0  0  0  0  0  0  0  0  0  0  0
  143.6436  131.4959  149.2490 H   0  0  0  0  0  0  0  0  0  0  0  0
  143.0741  132.0978  150.7991 H   0  0  0  0  0  0  0  0  0  0  0  0
  145.0875  133.4421  148.9133 H   0  0  0  0  0  0  0  0  0  0  0  0
  143.4878  134.0312  149.2843 H   0  0  0  0  0  0  0  0  0  0  0  0
  145.3198  135.2683  150.5284 H   0  0  0  0  0  0  0  0  0  0  0  0
  144.1360  134.5501  151.5913 H   0  0  0  0  0  0  0  0  0  0  0  0
  146.9219  133.4330  150.9797 H   0  0  0  0  0  0  0  0  0  0  0  0
  146.3580  134.0891  152.5053 H   0  0  0  0  0  0  0  0  0  0  0  0
  144.6107  132.3012  152.6220 H   0  0  0  0  0  0  0  0  0  0  0  0
  145.8620  131.5147  150.1485 H   0  0  0  0  0  0  0  0  0  0  0  0
  1  2  1  0  0  0  0
  1 21  1  0  0  0  0
  1 22  1  0  0  0  0
  1 23  1  0  0  0  0
  2  7  1  0  0  0  0
  2  3  2  0  0  0  0
  3  4  1  0  0  0  0
  4  5  1  0  0  0  0
  5  6  1  0  0  0  0
  5  7  2  0  0  0  0
  6 24  1  0  0  0  0
  6 25  1  0  0  0  0
  6 26  1  0  0  0  0
  7  8  1  0  0  0  0
  8  9  1  0  0  0  0
  8 27  1  0  0  0  0
  8 28  1  0  0  0  0
  9 10  2  0  0  0  0
  9 11  1  0  0  0  0
 11 12  1  0  0  0  0
 11 29  1  0  0  0  0
 12 20  1  0  0  0  0
 12 13  1  0  0  0  0
 12 30  1  0  0  0  0
 13 14  1  0  0  0  0
 13 31  1  0  0  0  0
 13 32  1  0  0  0  0
 14 15  1  0  0  0  0
 14 33  1  0  0  0  0
 14 34  1  0  0  0  0
 15 20  1  0  0  0  0
 15 16  1  0  0  0  0
 15 44  1  0  0  0  0
 16 17  1  0  0  0  0
 16 35  1  0  0  0  0
 16 36  1  0  0  0  0
 17 18  1  0  0  0  0
 17 37  1  0  0  0  0
 17 38  1  0  0  0  0
 18 19  1  0  0  0  0
 18 39  1  0  0  0  0
 18 40  1  0  0  0  0
 19 20  1  0  0  0  0
 19 41  1  0  0  0  0
 19 42  1  0  0  0  0
 20 43  1  0  0  0  0
M  CHG  1  15   1
M  END
> <s_m_source_file>
AV-unprocessed.smi

> <i_m_source_file_index>
311

> <i_lp_mmshare_version>
43012

> <i_f3d_flags>
0

> <s_epik_input>
W0NIM11jMW5vYyhbQ0gzXSljMVtDSDJdQyg9TylbTkhdW0NASF0oW0NIMl1bQ0gyXTIpW0NAQEhdKE4yMylbQ0gyXVtDSDJdW0NIMl1bQ0gyXTM=

> <s_epik_cmdline>
J2VwaWtfcHl0aG9uJywgJy1waCcsICc3LjAnLCAnLXRuJywgJzgnLCAnLW1hJywgJzIwMCcsICctbWV0YWxfYmluZGluZycsICctaW1hZScsICc8aW5maWxlLm1hZT4nLCAnLW9tYWUnLCAnPG91dGZpbGUubWFlPic=

> <r_epik_Ionization_Penalty>
0.00173669

> <r_epik_Ionization_Penalty_Charging>
0.0017366

> <r_epik_Ionization_Penalty_Neutral>
9.2145e-08

> <r_epik_State_Penalty>
0.00117499

> <r_epik_Charging_Adjusted_Penalty>
0.00291159

> <i_epik_Tot_Q>
1

> <i_epik_Tot_abs_Q>
1

> <r_epik_Metal_State_Penalty>
-0

> <b_epik_Metal_Only>
0

> <s_lp_Force_Field>
OPLS_2005

> <r_lp_Energy>
35.7975

> <b_lp_Chiralities_Consistent>
1

> <s_lp_Variant>
AV-unprocessed.smi:311-5

> <Gold.Version>
5.8.1

> <Gold.Id.Protein>
6NUR|6NUR_protein|mol2

> <Gold.PLP.Fitness>
35.4097

> <Gold.PLP.PLP>
-29.9503

> <Gold.PLP.part.hbond>
-2.0000

> <Gold.PLP.part.metal>
0.0000

> <Gold.PLP.part.buried>
-4.6245

> <Gold.PLP.part.nonpolar>
-22.8984

> <Gold.PLP.part.repulsive>
0.0700

> <Gold.PLP.ligand.clash>
0.0000

> <Gold.PLP.ligand.torsion>
0.0868

> <Gold.PLP.Chemscore.Hbond>
1.8775

> <Gold.PLP.Chemscore.CHOScore>
0.0000

> <Gold.PLP.Chemscore.Metal>
0.0000

> <Gold.Chemscore.Hbonds>
donor molecule, donor type, donor heavy atom, donor atom, acceptor molecule, acceptor atom, score
      L1  H    11    29       P1 10747  0.76
      P1  H  6896  6907       L1     4  0.91

> <Gold.PLP.Chemscore.Internal.Correction>
0.0006

> <Gold.Rescore>
     Score         DG    S(hbond)    S(metal)    S(lipo)     H(rot)  DE(clash)    DE(int)     intcor
     17.07     -18.57       1.78        0.00      90.76       1.36       1.26       0.24       ----

> <Gold.Chemscore.Fitness>
17.0660

> <Gold.Chemscore.DG>
-18.5702

> <Gold.Chemscore.ZeroCoef>
-5.4800

> <Gold.Chemscore.Hbond>
1.7799

> <Gold.Chemscore.Metal>
0.0000

> <Gold.Chemscore.Lipo>
90.7562

> <Gold.Chemscore.Internal_Hbond>
0.0000

> <Gold.Chemscore.DEClash>
1.2611

> <Gold.Chemscore.DEInternal>
0.2430

> <Gold.Chemscore.Rot>
1.3567

> <Gold.Chemscore.Internal.Correction>
   9.000000E+99

> <Gold.Chemscore.Hbonds>
donor molecule, donor type, donor heavy atom, donor atom, acceptor molecule, acceptor atom, score
      L1  H    11    29       P1 10747  0.72
      P1  H  6896  6907       L1     4  0.54

> <Gold.Chemscore.Hbond.Weighted>
-5.9448

> <Gold.Chemscore.Metal.Weighted>
-0.0000

> <Gold.Chemscore.Lipo.Weighted>
-10.6185

> <Gold.Chemscore.Internal_Hbond.Weighted>
0.0000

> <Gold.Chemscore.DEClash.Weighted>
1.2611

> <Gold.Chemscore.DEInternal.Weighted>
0.2430

> <Gold.Chemscore.Rot.Weighted>
3.4731

> <Gold.Chemscore.Internal.Correction.Weighted>
   9.000000E+99

> <Gold.Protein.RotatedTorsions>
[ 6907 6896 6895 6894 ] final -176.84 input  -60.11 | X-H torsion
[ 7974 7965 7964 7962 ] final  -98.98 input  175.53 | X-H torsion
[ 8008 7997 7996 7995 ] final  -89.06 input   59.86 | X-H torsion
[ 10167 10162 10161 10158 ] final  -14.69 input  -65.29 | X-H torsion
[ 10718 10713 10712 10709 ] final  -73.75 input   66.30 | X-H torsion
[ 10763 10752 10751 10750 ] final   51.44 input  -60.55 | X-H torsion
[ 11005 11000 10999 10996 ] final   20.72 input  -57.11 | X-H torsion

> <Gold.Protein.ActiveResidues>
 VAL166  LYS551  ARG553  GLY616  TRP617  ASP618  TYR619  PRO620  LYS621  CYS622 
 ASP623  PHE694  ASN695  SER759  ASP760  ASP761  ALA762  ILE779  LEU786  VAL792 
 PHE793  MET794  SER795  GLU796  ALA797  LYS798  CYS799  TRP800  GLU811  SER814 

> <Gold.Protein.RotatedAtoms>
  151.6112  133.3347  159.3067 H   0  0  0  0  0  0  0  0  0  0  0  0  # atno 6907 bound_to 6896
  150.8155  134.7338  159.6738 H   0  0  0  0  0  0  0  0  0  0  0  0  # atno 6908 bound_to 6896
  152.4251  134.5888  160.0020 H   0  0  0  0  0  0  0  0  0  0  0  0  # atno 6909 bound_to 6896
  145.3135  140.9406  143.2756 H   0  0  0  0  0  0  0  0  0  0  0  0  # atno 7974 bound_to 7965
  154.6821  140.0546  157.0276 H   0  0  0  0  0  0  0  0  0  0  0  0  # atno 8008 bound_to 7997
  155.0937  140.3222  155.4548 H   0  0  0  0  0  0  0  0  0  0  0  0  # atno 8009 bound_to 7997
  156.2698  140.2043  156.6064 H   0  0  0  0  0  0  0  0  0  0  0  0  # atno 8010 bound_to 7997
  140.7205  143.5296  150.9536 H   0  0  0  0  0  0  0  0  0  0  0  0  # atno 10167 bound_to 10162
  156.0268  130.4401  150.2789 H   0  0  0  0  0  0  0  0  0  0  0  0  # atno 10718 bound_to 10713
  152.9785  135.5845  154.4416 H   0  0  0  0  0  0  0  0  0  0  0  0  # atno 10763 bound_to 10752
  154.4017  135.2769  155.2094 H   0  0  0  0  0  0  0  0  0  0  0  0  # atno 10764 bound_to 10752
  154.3923  135.6122  153.5904 H   0  0  0  0  0  0  0  0  0  0  0  0  # atno 10765 bound_to 10752
  140.3995  134.1733  155.7663 H   0  0  0  0  0  0  0  0  0  0  0  0  # atno 11005 bound_to 11000
  144.8996  139.4667  143.6639 LP  0  0  0  0  0  0  0  0  0  0  0  0  # atno 17320 bound_to 7965
  146.3109  139.7742  142.9020 LP  0  0  0  0  0  0  0  0  0  0  0  0  # atno 17321 bound_to 7965
  139.9015  143.6830  152.3130 LP  0  0  0  0  0  0  0  0  0  0  0  0  # atno 17342 bound_to 10162
  139.7181  144.7608  151.1001 LP  0  0  0  0  0  0  0  0  0  0  0  0  # atno 17343 bound_to 10162
  157.0892  131.0165  151.3128 LP  0  0  0  0  0  0  0  0  0  0  0  0  # atno 17370 bound_to 10713
  157.4867  130.7797  149.7467 LP  0  0  0  0  0  0  0  0  0  0  0  0  # atno 17371 bound_to 10713
  141.1862  133.8307  157.1077 LP  0  0  0  0  0  0  0  0  0  0  0  0  # atno 17394 bound_to 11000
  140.0347  134.9884  157.0848 LP  0  0  0  0  0  0  0  0  0  0  0  0  # atno 17395 bound_to 11000

$$$$
