AV-unprocessed.smi:2018|AV-procd|sdf|8170|dock3
  -GOLD-   2272010413D 1   1.00000     0.00000
 Structure written by MMmdl.
 34 35  0  0  0  0  0  0  0  0  2 V2000
  152.2307  143.7266  161.6899 C   0  0  0  0  0  0  0  0  0  0  0  0
  151.8268  143.9156  160.2681 C   0  0  0  0  0  0  0  0  0  0  0  0
  151.5037  142.9086  159.4548 N   0  0  0  0  0  0  0  0  0  0  0  0
  151.1310  143.3396  158.1737 C   0  0  0  0  0  0  0  0  0  0  0  0
  150.7069  142.3385  157.1258 C   0  0  0  0  0  0  0  0  0  0  0  0
  149.2551  141.8249  157.2664 C   0  0  0  0  0  0  0  0  0  0  0  0
  148.6140  141.7515  155.9534 N   0  5  0  0  0  0  0  0  0  0  0  0
  149.1499  141.1688  154.8407 C   0  0  0  0  0  0  0  0  0  0  0  0
  149.1978  141.6627  153.7076 O   0  0  0  0  0  0  0  0  0  0  0  0
  149.7285  139.7985  154.9659 C   0  0  0  0  0  0  0  0  0  0  0  0
  150.9836  139.6081  154.7010 N   0  0  0  0  0  0  0  0  0  0  0  0
  151.5904  138.3774  154.8341 N   0  0  0  0  0  0  0  0  0  0  0  0
  153.0506  138.4392  154.7763 C   0  0  0  0  0  0  0  0  0  0  0  0
  150.9221  137.2058  154.9882 C   0  0  0  0  0  0  0  0  0  0  0  0
  151.4685  136.1113  155.1278 O   0  0  0  0  0  0  0  0  0  0  0  0
  149.3931  137.2842  154.9530 C   0  0  0  0  0  0  0  0  0  0  0  0
  148.8657  138.6462  155.4454 C   0  0  0  0  0  0  0  0  0  0  0  0
  151.2162  144.7037  158.0255 C   0  0  0  0  0  0  0  0  0  0  0  0
  151.7280  145.4911  159.4934 S   0  0  0  0  0  0  0  0  0  0  0  0
  152.1828  142.6725  161.9661 H   0  0  0  0  0  0  0  0  0  0  0  0
  151.5632  144.2882  162.3435 H   0  0  0  0  0  0  0  0  0  0  0  0
  153.2505  144.0818  161.8378 H   0  0  0  0  0  0  0  0  0  0  0  0
  150.8168  142.7872  156.1381 H   0  0  0  0  0  0  0  0  0  0  0  0
  151.3894  141.4875  157.1297 H   0  0  0  0  0  0  0  0  0  0  0  0
  149.2723  140.8587  157.7728 H   0  0  0  0  0  0  0  0  0  0  0  0
  148.7102  142.4966  157.9306 H   0  0  0  0  0  0  0  0  0  0  0  0
  153.5368  137.4647  154.8341 H   0  0  0  0  0  0  0  0  0  0  0  0
  153.4304  139.0449  155.6001 H   0  0  0  0  0  0  0  0  0  0  0  0
  153.3690  138.9073  153.8441 H   0  0  0  0  0  0  0  0  0  0  0  0
  149.0815  137.1223  153.9205 H   0  0  0  0  0  0  0  0  0  0  0  0
  148.9614  136.4747  155.5424 H   0  0  0  0  0  0  0  0  0  0  0  0
  148.8233  138.6587  156.5349 H   0  0  0  0  0  0  0  0  0  0  0  0
  147.8393  138.7604  155.0949 H   0  0  0  0  0  0  0  0  0  0  0  0
  150.9951  145.2907  157.1466 H   0  0  0  0  0  0  0  0  0  0  0  0
  1  2  1  0  0  0  0
  1 20  1  0  0  0  0
  1 21  1  0  0  0  0
  1 22  1  0  0  0  0
  2 19  1  0  0  0  0
  2  3  2  0  0  0  0
  3  4  1  0  0  0  0
  4  5  1  0  0  0  0
  4 18  2  0  0  0  0
  5  6  1  0  0  0  0
  5 23  1  0  0  0  0
  5 24  1  0  0  0  0
  6  7  1  0  0  0  0
  6 25  1  0  0  0  0
  6 26  1  0  0  0  0
  7  8  1  0  0  0  0
  8  9  2  0  0  0  0
  8 10  1  0  0  0  0
 10 17  1  0  0  0  0
 10 11  2  0  0  0  0
 11 12  1  0  0  0  0
 12 13  1  0  0  0  0
 12 14  1  0  0  0  0
 13 27  1  0  0  0  0
 13 28  1  0  0  0  0
 13 29  1  0  0  0  0
 14 15  2  0  0  0  0
 14 16  1  0  0  0  0
 16 17  1  0  0  0  0
 16 30  1  0  0  0  0
 16 31  1  0  0  0  0
 17 32  1  0  0  0  0
 17 33  1  0  0  0  0
 18 19  1  0  0  0  0
 18 34  1  0  0  0  0
M  CHG  1   7  -1
M  END
> <s_m_source_file>
AV-unprocessed.smi

> <i_m_source_file_index>
2018

> <i_lp_mmshare_version>
43012

> <i_f3d_flags>
0

> <s_epik_input>
W0NIM11jMW5jKFtjSF1zMSlbQ0gyXVtDSDJdW05IXUMoPU8pQzI9Tk4oW0NIM10pQyg9TylbQ0gyXVtDSDJdMg==

> <s_epik_cmdline>
J2VwaWtfcHl0aG9uJywgJy1waCcsICc3LjAnLCAnLXRuJywgJzgnLCAnLW1hJywgJzIwMCcsICctbWV0YWxfYmluZGluZycsICctaW1hZScsICc8aW5maWxlLm1hZT4nLCAnLW9tYWUnLCAnPG91dGZpbGUubWFlPic=

> <r_epik_Ionization_Penalty>
5.30398

> <r_epik_Ionization_Penalty_Charging>
5.30014

> <r_epik_Ionization_Penalty_Neutral>
0.0038335

> <r_epik_State_Penalty>
5.30046

> <r_epik_Charging_Adjusted_Penalty>
10.6006

> <i_epik_Tot_Q>
-1

> <i_epik_Tot_abs_Q>
1

> <r_epik_Metal_State_Penalty>
1.34504

> <b_epik_Metal_Only>
1

> <s_epik_Chemistry_Notes>
This compound has an imine and may undergo hydrolysis.

> <s_lp_Force_Field>
OPLS_2005

> <r_lp_Energy>
22.7314

> <b_lp_Chiralities_Consistent>
1

> <s_lp_Variant>
AV-unprocessed.smi:2018-2

> <Gold.Version>
5.8.1

> <Gold.Id.Protein>
6NUR|6NUR_protein|mol2

> <Gold.PLP.Fitness>
47.6184

> <Gold.PLP.PLP>
-41.9563

> <Gold.PLP.part.hbond>
-3.9494

> <Gold.PLP.part.metal>
0.0000

> <Gold.PLP.part.buried>
-6.8142

> <Gold.PLP.part.nonpolar>
-33.0538

> <Gold.PLP.part.repulsive>
1.3032

> <Gold.PLP.ligand.clash>
0.0000

> <Gold.PLP.ligand.torsion>
2.1522

> <Gold.PLP.Chemscore.Hbond>
2.6880

> <Gold.PLP.Chemscore.CHOScore>
0.6266

> <Gold.PLP.Chemscore.Metal>
0.0000

> <Gold.Chemscore.Hbonds>
donor molecule, donor type, donor heavy atom, donor atom, acceptor molecule, acceptor atom, score
      P1  H  7989  7998       L1    11  1.00
      P1  H  8011  8017       L1     9  0.69
      P1  H 10752 10763       L1    15  1.00
      L1  C    18    34       P1  8028  0.71

> <Gold.PLP.Chemscore.Internal.Correction>
0.0227

> <Gold.Rescore>
     Score         DG    S(hbond)    S(metal)    S(lipo)     H(rot)  DE(clash)    DE(int)     intcor
     19.62     -21.30       2.57        0.00      92.74       1.42       0.03       1.65       ----

> <Gold.Chemscore.Fitness>
19.6197

> <Gold.Chemscore.DG>
-21.3005

> <Gold.Chemscore.ZeroCoef>
-5.4800

> <Gold.Chemscore.Hbond>
2.5748

> <Gold.Chemscore.Metal>
0.0000

> <Gold.Chemscore.Lipo>
92.7365

> <Gold.Chemscore.Internal_Hbond>
0.0000

> <Gold.Chemscore.DEClash>
0.0318

> <Gold.Chemscore.DEInternal>
1.6490

> <Gold.Chemscore.Rot>
1.4178

> <Gold.Chemscore.Internal.Correction>
   9.000000E+99

> <Gold.Chemscore.Hbonds>
donor molecule, donor type, donor heavy atom, donor atom, acceptor molecule, acceptor atom, score
      P1  H  7989  7998       L1    11  0.81
      P1  H  8011  8017       L1     9  0.68
      P1  H 10752 10763       L1    15  0.99

> <Gold.Chemscore.Hbond.Weighted>
-8.5998

> <Gold.Chemscore.Metal.Weighted>
-0.0000

> <Gold.Chemscore.Lipo.Weighted>
-10.8502

> <Gold.Chemscore.Internal_Hbond.Weighted>
0.0000

> <Gold.Chemscore.DEClash.Weighted>
0.0318

> <Gold.Chemscore.DEInternal.Weighted>
1.6490

> <Gold.Chemscore.Rot.Weighted>
3.6295

> <Gold.Chemscore.Internal.Correction.Weighted>
   9.000000E+99

> <Gold.Protein.RotatedTorsions>
[ 6907 6896 6895 6894 ] final   69.50 input  -60.11 | X-H torsion
[ 7974 7965 7964 7962 ] final  123.78 input  175.53 | X-H torsion
[ 8008 7997 7996 7995 ] final   -7.88 input   59.86 | X-H torsion
[ 10167 10162 10161 10158 ] final  119.95 input  -65.29 | X-H torsion
[ 10718 10713 10712 10709 ] final  118.08 input   66.30 | X-H torsion
[ 10763 10752 10751 10750 ] final   77.30 input  -60.55 | X-H torsion
[ 11005 11000 10999 10996 ] final   65.56 input  -57.11 | X-H torsion

> <Gold.Protein.ActiveResidues>
 VAL166  LYS551  ARG553  GLY616  TRP617  ASP618  TYR619  PRO620  LYS621  CYS622 
 ASP623  PHE694  ASN695  SER759  ASP760  ASP761  ALA762  ILE779  LEU786  VAL792 
 PHE793  MET794  SER795  GLU796  ALA797  LYS798  CYS799  TRP800  GLU811  SER814 

> <Gold.Protein.RotatedAtoms>
  152.4690  134.5006  159.9723 H   0  0  0  0  0  0  0  0  0  0  0  0  # atno 6907 bound_to 6896
  151.5037  133.3493  159.2881 H   0  0  0  0  0  0  0  0  0  0  0  0  # atno 6908 bound_to 6896
  150.8690  134.8087  159.7202 H   0  0  0  0  0  0  0  0  0  0  0  0  # atno 6909 bound_to 6896
  145.0920  139.3580  143.4856 H   0  0  0  0  0  0  0  0  0  0  0  0  # atno 7974 bound_to 7965
  154.5795  140.2395  155.8074 H   0  0  0  0  0  0  0  0  0  0  0  0  # atno 8008 bound_to 7997
  156.2168  140.3009  155.9815 H   0  0  0  0  0  0  0  0  0  0  0  0  # atno 8009 bound_to 7997
  155.2567  140.0413  157.2983 H   0  0  0  0  0  0  0  0  0  0  0  0  # atno 8010 bound_to 7997
  139.6013  144.7057  151.3055 H   0  0  0  0  0  0  0  0  0  0  0  0  # atno 10167 bound_to 10162
  157.6054  131.1044  150.7706 H   0  0  0  0  0  0  0  0  0  0  0  0  # atno 10718 bound_to 10713
  153.0788  135.4919  154.8460 H   0  0  0  0  0  0  0  0  0  0  0  0  # atno 10763 bound_to 10752
  154.7123  135.3022  154.9180 H   0  0  0  0  0  0  0  0  0  0  0  0  # atno 10764 bound_to 10752
  153.9869  135.6783  153.4805 H   0  0  0  0  0  0  0  0  0  0  0  0  # atno 10765 bound_to 10752
  139.9886  134.6627  156.0130 H   0  0  0  0  0  0  0  0  0  0  0  0  # atno 11005 bound_to 11000
  146.3531  140.0758  142.8620 LP  0  0  0  0  0  0  0  0  0  0  0  0  # atno 17320 bound_to 7965
  145.1055  140.9372  143.4687 LP  0  0  0  0  0  0  0  0  0  0  0  0  # atno 17321 bound_to 7965
  140.7252  143.7024  150.7834 LP  0  0  0  0  0  0  0  0  0  0  0  0  # atno 17342 bound_to 10162
  140.0601  143.5163  152.2632 LP  0  0  0  0  0  0  0  0  0  0  0  0  # atno 17343 bound_to 10162
  156.8095  130.4948  149.5358 LP  0  0  0  0  0  0  0  0  0  0  0  0  # atno 17370 bound_to 10713
  156.1139  130.6060  151.0090 LP  0  0  0  0  0  0  0  0  0  0  0  0  # atno 17371 bound_to 10713
  141.1547  133.6544  156.4122 LP  0  0  0  0  0  0  0  0  0  0  0  0  # atno 17394 bound_to 11000
  140.4952  134.6537  157.5227 LP  0  0  0  0  0  0  0  0  0  0  0  0  # atno 17395 bound_to 11000

$$$$
