AV-unprocessed.smi:3162|AV-procd|sdf|12070|dock10
  -GOLD-   2272017503D 1   1.00000     0.00000
 Structure written by MMmdl.
 36 36  0  0  0  0  0  0  0  0  1 V2000
  146.6085  142.3294  154.1618 C   0  0  0  0  0  0  0  0  0  0  0  0
  147.4543  141.1347  153.6933 C   0  0  0  0  0  0  0  0  0  0  0  0
  148.7448  140.9086  154.5116 C   0  0  1  0  0  0  0  0  0  0  0  0
  148.4097  140.8694  155.9485 N   0  0  0  0  0  0  0  0  0  0  0  0
  149.0837  141.8563  156.7903 C   0  0  1  0  0  0  0  0  0  0  0  0
  148.2046  142.0811  158.0319 C   0  0  0  0  0  0  0  0  0  0  0  0
  150.5007  141.3550  157.1507 C   0  0  0  0  0  0  0  0  0  0  0  0
  151.2295  142.2890  157.9890 N   0  0  0  0  0  0  0  0  0  0  0  0
  150.9620  143.6208  158.2238 C   0  0  0  0  0  0  0  0  0  0  0  0
  151.9167  144.0865  159.0829 C   0  0  0  0  0  0  0  0  0  0  0  0
  152.0772  145.4695  159.6452 C   0  0  0  0  0  0  0  0  0  0  0  0
  152.7311  142.9433  159.3229 C   0  0  0  0  0  0  0  0  0  0  0  0
  152.3166  141.8697  158.6706 N   0  0  0  0  0  0  0  0  0  0  0  0
  149.5097  139.6587  154.0383 C   0  0  0  0  0  0  0  0  0  0  0  0
  148.8687  138.8243  153.2162 N   0  0  0  0  0  0  0  0  0  0  0  0
  150.6701  139.4616  154.3945 O   0  0  0  0  0  0  0  0  0  0  0  0
  145.6826  142.3929  153.5901 H   0  0  0  0  0  0  0  0  0  0  0  0
  147.1368  143.2744  154.0339 H   0  0  0  0  0  0  0  0  0  0  0  0
  146.3415  142.2326  155.2145 H   0  0  0  0  0  0  0  0  0  0  0  0
  146.8345  140.2392  153.7576 H   0  0  0  0  0  0  0  0  0  0  0  0
  147.6937  141.2532  152.6354 H   0  0  0  0  0  0  0  0  0  0  0  0
  149.3845  141.7788  154.3514 H   0  0  0  0  0  0  0  0  0  0  0  0
  148.5114  139.9434  156.3387 H   0  0  0  0  0  0  0  0  0  0  0  0
  149.1523  142.8116  156.2673 H   0  0  0  0  0  0  0  0  0  0  0  0
  148.6178  142.8563  158.6776 H   0  0  0  0  0  0  0  0  0  0  0  0
  148.1107  141.1707  158.6249 H   0  0  0  0  0  0  0  0  0  0  0  0
  147.2007  142.4002  157.7498 H   0  0  0  0  0  0  0  0  0  0  0  0
  150.4406  140.4000  157.6746 H   0  0  0  0  0  0  0  0  0  0  0  0
  151.0967  141.1765  156.2558 H   0  0  0  0  0  0  0  0  0  0  0  0
  150.1246  144.1228  157.7621 H   0  0  0  0  0  0  0  0  0  0  0  0
  152.9240  145.5339  160.3290 H   0  0  0  0  0  0  0  0  0  0  0  0
  151.1924  145.7830  160.1997 H   0  0  0  0  0  0  0  0  0  0  0  0
  152.2426  146.2062  158.8589 H   0  0  0  0  0  0  0  0  0  0  0  0
  153.6067  142.8629  159.9500 H   0  0  0  0  0  0  0  0  0  0  0  0
  149.3310  137.9910  152.8829 H   0  0  0  0  0  0  0  0  0  0  0  0
  147.9215  139.0295  152.9330 H   0  0  0  0  0  0  0  0  0  0  0  0
  1  2  1  0  0  0  0
  1 17  1  0  0  0  0
  1 18  1  0  0  0  0
  1 19  1  0  0  0  0
  2  3  1  0  0  0  0
  2 20  1  0  0  0  0
  2 21  1  0  0  0  0
  3  4  1  0  0  0  0
  3 14  1  0  0  0  0
  3 22  1  0  0  0  0
  4  5  1  0  0  0  0
  4 23  1  0  0  0  0
  5  6  1  0  0  0  0
  5  7  1  0  0  0  0
  5 24  1  0  0  0  0
  6 25  1  0  0  0  0
  6 26  1  0  0  0  0
  6 27  1  0  0  0  0
  7  8  1  0  0  0  0
  7 28  1  0  0  0  0
  7 29  1  0  0  0  0
  8 13  1  0  0  0  0
  8  9  1  0  0  0  0
  9 10  2  0  0  0  0
  9 30  1  0  0  0  0
 10 11  1  0  0  0  0
 10 12  1  0  0  0  0
 11 31  1  0  0  0  0
 11 32  1  0  0  0  0
 11 33  1  0  0  0  0
 12 13  2  0  0  0  0
 12 34  1  0  0  0  0
 14 15  1  0  0  0  0
 14 16  2  0  0  0  0
 15 35  1  0  0  0  0
 15 36  1  0  0  0  0
M  END
> <s_m_source_file>
AV-unprocessed.smi

> <i_m_source_file_index>
3162

> <i_lp_mmshare_version>
43012

> <i_f3d_flags>
0

> <s_epik_input>
W0NIM11bQ0gyXVtDQEBIXShDKD1PKVtOSDJdKVtOSF1bQ0BIXShbQ0gzXSlbQ0gyXW4xW2NIXWMoW0NIM10pW2NIXW4x

> <s_epik_cmdline>
J2VwaWtfcHl0aG9uJywgJy1waCcsICc3LjAnLCAnLXRuJywgJzgnLCAnLW1hJywgJzIwMCcsICctbWV0YWxfYmluZGluZycsICctaW1hZScsICc8aW5maWxlLm1hZT4nLCAnLW9tYWUnLCAnPG91dGZpbGUubWFlPic=

> <r_lp_tautomer_probability>
1

> <r_epik_Ionization_Penalty>
1.04167

> <r_epik_Ionization_Penalty_Charging>
0

> <r_epik_Ionization_Penalty_Neutral>
1.04167

> <r_epik_State_Penalty>
1.09367

> <r_epik_Charging_Adjusted_Penalty>
1.09367

> <i_epik_Tot_Q>
0

> <i_epik_Tot_abs_Q>
0

> <r_epik_Metal_State_Penalty>
1.09362

> <b_epik_Metal_Only>
0

> <s_lp_Force_Field>
OPLS_2005

> <r_lp_Energy>
2.92594

> <b_lp_Chiralities_Consistent>
1

> <s_lp_Variant>
AV-unprocessed.smi:3162-8

> <Gold.Version>
5.8.1

> <Gold.Id.Protein>
6NUR|6NUR_protein|mol2

> <Gold.PLP.Fitness>
41.1579

> <Gold.PLP.PLP>
-35.4141

> <Gold.PLP.part.hbond>
-2.8164

> <Gold.PLP.part.metal>
0.0000

> <Gold.PLP.part.buried>
-3.1615

> <Gold.PLP.part.nonpolar>
-30.2420

> <Gold.PLP.part.repulsive>
0.2242

> <Gold.PLP.ligand.clash>
0.0000

> <Gold.PLP.ligand.torsion>
1.4610

> <Gold.PLP.Chemscore.Hbond>
1.8247

> <Gold.PLP.Chemscore.CHOScore>
1.0243

> <Gold.PLP.Chemscore.Metal>
0.0000

> <Gold.Chemscore.Hbonds>
donor molecule, donor type, donor heavy atom, donor atom, acceptor molecule, acceptor atom, score
      L1  H    15    35       P1  7948  0.84
      P1  H  7989  7998       L1    16  1.00
      L1  C     9    30       P1  8028  1.00
      L1  C     9    30       P1  8029  0.01

> <Gold.PLP.Chemscore.Internal.Correction>
0.1188

> <Gold.Rescore>
     Score         DG    S(hbond)    S(metal)    S(lipo)     H(rot)  DE(clash)    DE(int)     intcor
     12.62     -14.59       1.86        0.00      77.84       2.43       0.21       1.76       ----

> <Gold.Chemscore.Fitness>
12.6191

> <Gold.Chemscore.DG>
-14.5881

> <Gold.Chemscore.ZeroCoef>
-5.4800

> <Gold.Chemscore.Hbond>
1.8649

> <Gold.Chemscore.Metal>
0.0000

> <Gold.Chemscore.Lipo>
77.8402

> <Gold.Chemscore.Internal_Hbond>
0.0000

> <Gold.Chemscore.DEClash>
0.2090

> <Gold.Chemscore.DEInternal>
1.7600

> <Gold.Chemscore.Rot>
2.4328

> <Gold.Chemscore.Internal.Correction>
   9.000000E+99

> <Gold.Chemscore.Hbonds>
donor molecule, donor type, donor heavy atom, donor atom, acceptor molecule, acceptor atom, score
      L1  H    15    35       P1  7948  0.72
      P1  H  7989  7998       L1    16  0.39

> <Gold.Chemscore.Hbond.Weighted>
-6.2287

> <Gold.Chemscore.Metal.Weighted>
-0.0000

> <Gold.Chemscore.Lipo.Weighted>
-9.1073

> <Gold.Chemscore.Internal_Hbond.Weighted>
0.0000

> <Gold.Chemscore.DEClash.Weighted>
0.2090

> <Gold.Chemscore.DEInternal.Weighted>
1.7600

> <Gold.Chemscore.Rot.Weighted>
6.2279

> <Gold.Chemscore.Internal.Correction.Weighted>
   9.000000E+99

> <Gold.Protein.RotatedTorsions>
[ 6907 6896 6895 6894 ] final  121.36 input  -60.11 | X-H torsion
[ 7974 7965 7964 7962 ] final -134.45 input  175.53 | X-H torsion
[ 8008 7997 7996 7995 ] final  100.31 input   59.86 | X-H torsion
[ 10167 10162 10161 10158 ] final  -90.30 input  -65.29 | X-H torsion
[ 10718 10713 10712 10709 ] final  -42.56 input   66.30 | X-H torsion
[ 10763 10752 10751 10750 ] final  -25.64 input  -60.55 | X-H torsion
[ 11005 11000 10999 10996 ] final  143.63 input  -57.11 | X-H torsion

> <Gold.Protein.ActiveResidues>
 VAL166  LYS551  ARG553  GLY616  TRP617  ASP618  TYR619  PRO620  LYS621  CYS622 
 ASP623  PHE694  ASN695  SER759  ASP760  ASP761  ALA762  ILE779  LEU786  VAL792 
 PHE793  MET794  SER795  GLU796  ALA797  LYS798  CYS799  TRP800  GLU811  SER814 

> <Gold.Protein.RotatedAtoms>
  152.4327  133.7306  159.6585 H   0  0  0  0  0  0  0  0  0  0  0  0  # atno 6907 bound_to 6896
  150.8208  133.8246  159.3146 H   0  0  0  0  0  0  0  0  0  0  0  0  # atno 6908 bound_to 6896
  151.5928  135.1054  160.0094 H   0  0  0  0  0  0  0  0  0  0  0  0  # atno 6909 bound_to 6896
  144.9102  140.6885  143.5030 H   0  0  0  0  0  0  0  0  0  0  0  0  # atno 7974 bound_to 7965
  156.1190  140.3215  155.8181 H   0  0  0  0  0  0  0  0  0  0  0  0  # atno 8008 bound_to 7997
  155.4538  140.0534  157.3015 H   0  0  0  0  0  0  0  0  0  0  0  0  # atno 8009 bound_to 7997
  154.4814  140.2054  155.9769 H   0  0  0  0  0  0  0  0  0  0  0  0  # atno 8010 bound_to 7997
  140.3563  143.2865  151.9667 H   0  0  0  0  0  0  0  0  0  0  0  0  # atno 10167 bound_to 10162
  156.2583  130.4194  149.8571 H   0  0  0  0  0  0  0  0  0  0  0  0  # atno 10718 bound_to 10713
  153.7031  135.6955  153.5057 H   0  0  0  0  0  0  0  0  0  0  0  0  # atno 10763 bound_to 10752
  153.2327  135.4332  155.0612 H   0  0  0  0  0  0  0  0  0  0  0  0  # atno 10764 bound_to 10752
  154.8338  135.3488  154.6570 H   0  0  0  0  0  0  0  0  0  0  0  0  # atno 10765 bound_to 10752
  140.0569  134.9226  157.1115 H   0  0  0  0  0  0  0  0  0  0  0  0  # atno 11005 bound_to 11000
  145.3468  139.1717  143.4456 LP  0  0  0  0  0  0  0  0  0  0  0  0  # atno 17320 bound_to 7965
  146.3154  140.3515  142.8656 LP  0  0  0  0  0  0  0  0  0  0  0  0  # atno 17321 bound_to 7965
  139.4819  144.6032  151.7568 LP  0  0  0  0  0  0  0  0  0  0  0  0  # atno 17342 bound_to 10162
  140.5170  144.0937  150.6011 LP  0  0  0  0  0  0  0  0  0  0  0  0  # atno 17343 bound_to 10162
  156.6095  130.8580  151.3451 LP  0  0  0  0  0  0  0  0  0  0  0  0  # atno 17370 bound_to 10713
  157.7241  130.9598  150.1560 LP  0  0  0  0  0  0  0  0  0  0  0  0  # atno 17371 bound_to 10713
  140.3831  134.2266  155.7170 LP  0  0  0  0  0  0  0  0  0  0  0  0  # atno 17394 bound_to 11000
  141.1956  133.8102  157.0709 LP  0  0  0  0  0  0  0  0  0  0  0  0  # atno 17395 bound_to 11000

$$$$
