AV-unprocessed.smi:91|AV-procd|sdf|834|dock1
  -GOLD-   2262017263D 1   1.00000     0.00000
 Structure written by MMmdl.
 60 63  0  0  0  0  0  0  0  0  1 V2000
  153.0884  138.9629  158.8933 C   0  0  0  0  0  0  0  0  0  0  0  0
  154.1091  139.9172  159.1394 O   0  0  0  0  0  0  0  0  0  0  0  0
  153.6893  141.0358  159.9102 C   0  0  0  0  0  0  0  0  0  0  0  0
  152.7994  142.0053  159.1121 C   0  0  1  0  0  0  0  0  0  0  0  0
  151.3765  141.4528  158.9132 C   0  0  0  0  0  0  0  0  0  0  0  0
  150.5219  142.4679  158.3078 N   0  0  0  0  0  0  0  0  0  0  0  0
  149.3810  142.0186  157.7239 C   0  0  0  0  0  0  0  0  0  0  0  0
  148.2833  141.9078  158.5169 N   0  0  0  0  0  0  0  0  0  0  0  0
  147.1268  141.4625  158.0190 C   0  0  0  0  0  0  0  0  0  0  0  0
  146.8479  141.0824  156.7718 N   0  0  0  0  0  0  0  0  0  0  0  0
  147.9403  141.1972  155.9647 C   0  0  0  0  0  0  0  0  0  0  0  0
  149.2364  141.6467  156.3524 C   0  0  0  0  0  0  0  0  0  0  0  0
  150.0826  141.6238  155.2477 N   0  0  0  0  0  0  0  0  0  0  0  0
  149.3367  141.1834  154.2729 C   0  0  0  0  0  0  0  0  0  0  0  0
  148.0294  140.9216  154.6112 N   0  0  0  0  0  0  0  0  0  0  0  0
  146.9884  140.4243  153.7289 C   0  0  0  0  0  0  0  0  0  0  0  0
  147.1777  138.9611  153.2462 C   0  0  2  0  0  0  0  0  0  0  0  0
  146.5162  138.8389  151.8516 C   0  0  0  0  0  0  0  0  0  0  0  0
  147.1026  137.8162  151.0732 O   0  0  0  0  0  0  0  0  0  0  0  0
  146.6361  137.9056  154.2597 C   0  0  2  0  0  0  0  0  0  0  0  0
  145.1285  137.9450  154.5195 C   0  0  0  0  0  0  0  0  0  0  0  0
  144.9629  137.5663  155.9941 C   0  0  0  0  0  0  0  0  0  0  0  0
  146.2668  137.2372  156.4440 O   0  0  0  0  0  0  0  0  0  0  0  0
  147.1758  138.0163  155.6889 C   0  0  0  0  0  0  0  0  0  0  0  0
  150.4985  143.7234  159.0473 C   0  0  0  0  0  0  0  0  0  0  0  0
  151.9280  144.2625  159.2726 C   0  0  0  0  0  0  0  0  0  0  0  0
  152.5527  144.8022  157.9679 C   0  0  0  0  0  0  0  0  0  0  0  0
  151.8979  145.3870  160.3189 C   0  0  0  0  0  0  0  0  0  0  0  0
  152.7357  143.2287  159.8468 O   0  0  0  0  0  0  0  0  0  0  0  0
  153.4771  138.1780  158.2447 H   0  0  0  0  0  0  0  0  0  0  0  0
  152.2337  139.4174  158.3906 H   0  0  0  0  0  0  0  0  0  0  0  0
  152.7445  138.4890  159.8123 H   0  0  0  0  0  0  0  0  0  0  0  0
  153.1270  140.6553  160.7634 H   0  0  0  0  0  0  0  0  0  0  0  0
  154.5543  141.5563  160.3242 H   0  0  0  0  0  0  0  0  0  0  0  0
  153.2604  142.1953  158.1444 H   0  0  0  0  0  0  0  0  0  0  0  0
  151.4212  140.5508  158.3026 H   0  0  0  0  0  0  0  0  0  0  0  0
  150.9469  141.1635  159.8732 H   0  0  0  0  0  0  0  0  0  0  0  0
  146.3080  141.4029  158.7207 H   0  0  0  0  0  0  0  0  0  0  0  0
  149.7190  141.0512  153.2710 H   0  0  0  0  0  0  0  0  0  0  0  0
  146.0281  140.5249  154.2366 H   0  0  0  0  0  0  0  0  0  0  0  0
  146.9517  141.0986  152.8723 H   0  0  0  0  0  0  0  0  0  0  0  0
  148.2472  138.7934  153.1126 H   0  0  0  0  0  0  0  0  0  0  0  0
  145.4434  138.6664  151.9424 H   0  0  0  0  0  0  0  0  0  0  0  0
  146.6375  139.7623  151.2847 H   0  0  0  0  0  0  0  0  0  0  0  0
  147.4917  137.1809  151.6547 H   0  0  0  0  0  0  0  0  0  0  0  0
  146.8927  136.9088  153.8970 H   0  0  0  0  0  0  0  0  0  0  0  0
  144.7155  138.9400  154.3505 H   0  0  0  0  0  0  0  0  0  0  0  0
  144.5944  137.2463  153.8764 H   0  0  0  0  0  0  0  0  0  0  0  0
  144.5844  138.4135  156.5679 H   0  0  0  0  0  0  0  0  0  0  0  0
  144.2812  136.7275  156.1362 H   0  0  0  0  0  0  0  0  0  0  0  0
  148.1922  137.6351  155.7897 H   0  0  0  0  0  0  0  0  0  0  0  0
  147.1518  139.0468  156.0477 H   0  0  0  0  0  0  0  0  0  0  0  0
  149.9052  144.4679  158.5148 H   0  0  0  0  0  0  0  0  0  0  0  0
  150.0148  143.5474  160.0091 H   0  0  0  0  0  0  0  0  0  0  0  0
  152.0030  145.6704  157.6035 H   0  0  0  0  0  0  0  0  0  0  0  0
  152.5447  144.0660  157.1646 H   0  0  0  0  0  0  0  0  0  0  0  0
  153.5867  145.1098  158.1252 H   0  0  0  0  0  0  0  0  0  0  0  0
  151.2819  146.2229  159.9858 H   0  0  0  0  0  0  0  0  0  0  0  0
  152.8997  145.7704  160.5156 H   0  0  0  0  0  0  0  0  0  0  0  0
  151.4907  145.0338  161.2669 H   0  0  0  0  0  0  0  0  0  0  0  0
  1  2  1  0  0  0  0
  1 30  1  0  0  0  0
  1 31  1  0  0  0  0
  1 32  1  0  0  0  0
  2  3  1  0  0  0  0
  3  4  1  0  0  0  0
  3 33  1  0  0  0  0
  3 34  1  0  0  0  0
  4 29  1  0  0  0  0
  4  5  1  0  0  0  0
  4 35  1  0  0  0  0
  5  6  1  0  0  0  0
  5 36  1  0  0  0  0
  5 37  1  0  0  0  0
  6  7  1  0  0  0  0
  6 25  1  0  0  0  0
  7 12  1  0  0  0  0
  7  8  2  0  0  0  0
  8  9  1  0  0  0  0
  9 10  2  0  0  0  0
  9 38  1  0  0  0  0
 10 11  1  0  0  0  0
 11 15  1  0  0  0  0
 11 12  2  0  0  0  0
 12 13  1  0  0  0  0
 13 14  2  0  0  0  0
 14 15  1  0  0  0  0
 14 39  1  0  0  0  0
 15 16  1  0  0  0  0
 16 17  1  0  0  0  0
 16 40  1  0  0  0  0
 16 41  1  0  0  0  0
 17 18  1  0  0  0  0
 17 20  1  0  0  0  0
 17 42  1  0  0  0  0
 18 19  1  0  0  0  0
 18 43  1  0  0  0  0
 18 44  1  0  0  0  0
 19 45  1  0  0  0  0
 20 24  1  0  0  0  0
 20 21  1  0  0  0  0
 20 46  1  0  0  0  0
 21 22  1  0  0  0  0
 21 47  1  0  0  0  0
 21 48  1  0  0  0  0
 22 23  1  0  0  0  0
 22 49  1  0  0  0  0
 22 50  1  0  0  0  0
 23 24  1  0  0  0  0
 24 51  1  0  0  0  0
 24 52  1  0  0  0  0
 25 26  1  0  0  0  0
 25 53  1  0  0  0  0
 25 54  1  0  0  0  0
 26 27  1  0  0  0  0
 26 28  1  0  0  0  0
 26 29  1  0  0  0  0
 27 55  1  0  0  0  0
 27 56  1  0  0  0  0
 27 57  1  0  0  0  0
 28 58  1  0  0  0  0
 28 59  1  0  0  0  0
 28 60  1  0  0  0  0
M  END
> <s_m_source_file>
AV-unprocessed.smi

> <i_m_source_file_index>
91

> <i_lp_mmshare_version>
43012

> <i_f3d_flags>
0

> <s_epik_input>
W0NIM11PW0NIMl1bQ0BASF0oTzEpW0NIMl1OKFtDSDJdQzEoW0NIM10pW0NIM10pYyhuW2NIXW4yKWMoYzIzKW5bY0hdbjNbQ0gyXVtDQEhdKFtDSDJdW09IXSlbQ0BASF00W0NIMl1bQ0gyXU9bQ0gyXTQ=

> <s_epik_cmdline>
J2VwaWtfcHl0aG9uJywgJy1waCcsICc3LjAnLCAnLXRuJywgJzgnLCAnLW1hJywgJzIwMCcsICctbWV0YWxfYmluZGluZycsICctaW1hZScsICc8aW5maWxlLm1hZT4nLCAnLW9tYWUnLCAnPG91dGZpbGUubWFlPic=

> <r_lp_tautomer_probability>
1

> <r_epik_Ionization_Penalty>
8.63591e-05

> <r_epik_Ionization_Penalty_Charging>
0

> <r_epik_Ionization_Penalty_Neutral>
8.63591e-05

> <r_epik_State_Penalty>
-0

> <r_epik_Charging_Adjusted_Penalty>
0

> <i_epik_Tot_Q>
0

> <i_epik_Tot_abs_Q>
0

> <r_epik_Metal_State_Penalty>
-0

> <b_epik_Metal_Only>
0

> <s_lp_Force_Field>
OPLS_2005

> <r_lp_Energy>
49.706

> <b_lp_Chiralities_Consistent>
1

> <s_lp_Variant>
AV-unprocessed.smi:91-2

> <Gold.Version>
5.8.1

> <Gold.Id.Protein>
6NUR|6NUR_protein|mol2

> <Gold.PLP.Fitness>
56.1849

> <Gold.PLP.PLP>
-46.5826

> <Gold.PLP.part.hbond>
-4.4622

> <Gold.PLP.part.metal>
0.0000

> <Gold.PLP.part.buried>
-4.6135

> <Gold.PLP.part.nonpolar>
-38.8376

> <Gold.PLP.part.repulsive>
0.3471

> <Gold.PLP.ligand.clash>
0.0000

> <Gold.PLP.ligand.torsion>
1.2406

> <Gold.PLP.Chemscore.Hbond>
2.8160

> <Gold.PLP.Chemscore.CHOScore>
1.0000

> <Gold.PLP.Chemscore.Metal>
0.0000

> <Gold.Chemscore.Hbonds>
donor molecule, donor type, donor heavy atom, donor atom, acceptor molecule, acceptor atom, score
      L1  H    19    45       P1  7948  0.78
      P1  H  7954  7966       L1    19  1.00
      P1  H  7997  8008       L1     2  0.99
      L1  C    14    39       P1  7957  1.00

> <Gold.PLP.Chemscore.Internal.Correction>
0.6355

> <Gold.Rescore>
     Score         DG    S(hbond)    S(metal)    S(lipo)     H(rot)  DE(clash)    DE(int)     intcor
     16.16     -17.98       2.24        0.00     109.06       3.03       0.33       1.49       ----

> <Gold.Chemscore.Fitness>
16.1622

> <Gold.Chemscore.DG>
-17.9850

> <Gold.Chemscore.ZeroCoef>
-5.4800

> <Gold.Chemscore.Hbond>
2.2449

> <Gold.Chemscore.Metal>
0.0000

> <Gold.Chemscore.Lipo>
109.0592

> <Gold.Chemscore.Internal_Hbond>
0.0000

> <Gold.Chemscore.DEClash>
0.3316

> <Gold.Chemscore.DEInternal>
1.4911

> <Gold.Chemscore.Rot>
3.0284

> <Gold.Chemscore.Internal.Correction>
   9.000000E+99

> <Gold.Chemscore.Hbonds>
donor molecule, donor type, donor heavy atom, donor atom, acceptor molecule, acceptor atom, score
      L1  H    19    45       P1  7948  0.78
      P1  H  7954  7966       L1    19  0.34
      P1  H  7997  8008       L1     2  0.23

> <Gold.Chemscore.Hbond.Weighted>
-7.4978

> <Gold.Chemscore.Metal.Weighted>
-0.0000

> <Gold.Chemscore.Lipo.Weighted>
-12.7599

> <Gold.Chemscore.Internal_Hbond.Weighted>
0.0000

> <Gold.Chemscore.DEClash.Weighted>
0.3316

> <Gold.Chemscore.DEInternal.Weighted>
1.4911

> <Gold.Chemscore.Rot.Weighted>
7.7528

> <Gold.Chemscore.Internal.Correction.Weighted>
   9.000000E+99

> <Gold.Protein.RotatedTorsions>
[ 6907 6896 6895 6894 ] final  -56.36 input  -60.11 | X-H torsion
[ 7974 7965 7964 7962 ] final -175.12 input  175.53 | X-H torsion
[ 8008 7997 7996 7995 ] final -109.12 input   59.86 | X-H torsion
[ 10167 10162 10161 10158 ] final  166.28 input  -65.29 | X-H torsion
[ 10718 10713 10712 10709 ] final  176.77 input   66.30 | X-H torsion
[ 10763 10752 10751 10750 ] final -149.87 input  -60.55 | X-H torsion
[ 11005 11000 10999 10996 ] final -140.20 input  -57.11 | X-H torsion

> <Gold.Protein.ActiveResidues>
 VAL166  LYS551  ARG553  GLY616  TRP617  ASP618  TYR619  PRO620  LYS621  CYS622 
 ASP623  PHE694  ASN695  SER759  ASP760  ASP761  ALA762  ILE779  LEU786  VAL792 
 PHE793  MET794  SER795  GLU796  ALA797  LYS798  CYS799  TRP800  GLU811  SER814 

> <Gold.Protein.RotatedAtoms>
  150.8174  134.7363  159.6741 H   0  0  0  0  0  0  0  0  0  0  0  0  # atno 6907 bound_to 6896
  152.4292  134.5807  159.9957 H   0  0  0  0  0  0  0  0  0  0  0  0  # atno 6908 bound_to 6896
  151.6001  133.3320  159.3081 H   0  0  0  0  0  0  0  0  0  0  0  0  # atno 6909 bound_to 6896
  144.7129  140.1369  143.6394 H   0  0  0  0  0  0  0  0  0  0  0  0  # atno 7974 bound_to 7965
  154.9546  140.0400  157.2160 H   0  0  0  0  0  0  0  0  0  0  0  0  # atno 8008 bound_to 7997
  154.7946  140.2841  155.5944 H   0  0  0  0  0  0  0  0  0  0  0  0  # atno 8009 bound_to 7997
  156.2954  140.2567  156.2801 H   0  0  0  0  0  0  0  0  0  0  0  0  # atno 8010 bound_to 7997
  139.4921  144.4044  151.9373 H   0  0  0  0  0  0  0  0  0  0  0  0  # atno 10167 bound_to 10162
  156.9152  130.9922  151.3014 H   0  0  0  0  0  0  0  0  0  0  0  0  # atno 10718 bound_to 10713
  154.8152  135.3298  154.7195 H   0  0  0  0  0  0  0  0  0  0  0  0  # atno 10763 bound_to 10752
  153.7837  135.6916  153.4888 H   0  0  0  0  0  0  0  0  0  0  0  0  # atno 10764 bound_to 10752
  153.1963  135.4532  155.0159 H   0  0  0  0  0  0  0  0  0  0  0  0  # atno 10765 bound_to 10752
  140.8446  134.2360  157.4792 H   0  0  0  0  0  0  0  0  0  0  0  0  # atno 11005 bound_to 11000
  145.9237  139.2562  143.1366 LP  0  0  0  0  0  0  0  0  0  0  0  0  # atno 17320 bound_to 7965
  145.9594  140.8847  143.0218 LP  0  0  0  0  0  0  0  0  0  0  0  0  # atno 17321 bound_to 7965
  140.3484  144.3119  150.5954 LP  0  0  0  0  0  0  0  0  0  0  0  0  # atno 17342 bound_to 10162
  140.5507  143.2207  151.7932 LP  0  0  0  0  0  0  0  0  0  0  0  0  # atno 17343 bound_to 10162
  157.5943  130.8466  149.8705 LP  0  0  0  0  0  0  0  0  0  0  0  0  # atno 17370 bound_to 10713
  156.0517  130.3716  150.1186 LP  0  0  0  0  0  0  0  0  0  0  0  0  # atno 17371 bound_to 10713
  139.8703  134.9653  156.4523 LP  0  0  0  0  0  0  0  0  0  0  0  0  # atno 17394 bound_to 11000
  140.8858  133.7884  155.9516 LP  0  0  0  0  0  0  0  0  0  0  0  0  # atno 17395 bound_to 11000

$$$$
