AV-unprocessed.smi:1272|AV-procd|sdf|5335|dock6
  -GOLD-   22720 4463D 1   1.00000     0.00000
 Structure written by MMmdl.
 45 47  0  0  0  0  0  0  0  0  1 V2000
  149.5725  140.4586  155.8344 C   0  0  0  0  0  0  0  0  0  0  0  0
  150.6986  141.4973  155.9042 C   0  0  0  0  0  0  0  0  0  0  0  0
  151.4202  141.4113  157.1716 N   0  0  0  0  0  0  0  0  0  0  0  0
  151.9064  140.2873  157.7490 C   0  0  0  0  0  0  0  0  0  0  0  0
  151.8305  139.1474  157.2903 O   0  0  0  0  0  0  0  0  0  0  0  0
  152.4891  140.6343  158.9209 N   0  0  0  0  0  0  0  0  0  0  0  0
  153.1456  139.7319  159.8662 C   0  0  0  0  0  0  0  0  0  0  0  0
  153.7478  138.5005  159.1581 C   0  0  1  0  0  0  0  0  0  0  0  0
  154.9188  138.9301  158.4909 O   0  0  0  0  0  0  0  0  0  0  0  0
  154.1538  137.3990  160.1622 C   0  0  0  0  0  0  0  0  0  0  0  0
  154.1877  137.8134  161.5655 N   0  0  0  0  0  0  0  0  0  0  0  0
  155.3402  138.6694  161.8287 C   0  0  0  0  0  0  0  0  0  0  0  0
  155.3986  139.1228  163.2976 C   0  0  0  0  0  0  0  0  0  0  0  0
  155.4160  137.9804  164.1472 O   0  0  0  0  0  0  0  0  0  0  0  0
  154.2824  137.1402  163.9581 C   0  0  0  0  0  0  0  0  0  0  0  0
  154.2155  136.6824  162.4904 C   0  0  0  0  0  0  0  0  0  0  0  0
  152.3690  142.0202  159.1005 C   0  0  0  0  0  0  0  0  0  0  0  0
  152.8047  142.8611  160.1395 C   0  0  0  0  0  0  0  0  0  0  0  0
  152.5171  144.2409  160.0187 C   0  0  0  0  0  0  0  0  0  0  0  0
  151.8176  144.7418  158.8902 C   0  0  0  0  0  0  0  0  0  0  0  0
  151.3928  143.8739  157.8573 C   0  0  0  0  0  0  0  0  0  0  0  0
  151.6934  142.5081  158.0013 C   0  0  0  0  0  0  0  0  0  0  0  0
  149.0425  140.5250  154.8840 H   0  0  0  0  0  0  0  0  0  0  0  0
  148.8448  140.6104  156.6321 H   0  0  0  0  0  0  0  0  0  0  0  0
  149.9645  139.4452  155.9257 H   0  0  0  0  0  0  0  0  0  0  0  0
  151.3897  141.3497  155.0730 H   0  0  0  0  0  0  0  0  0  0  0  0
  150.2903  142.5009  155.7819 H   0  0  0  0  0  0  0  0  0  0  0  0
  153.9000  140.2587  160.4517 H   0  0  0  0  0  0  0  0  0  0  0  0
  152.3908  139.4112  160.5858 H   0  0  0  0  0  0  0  0  0  0  0  0
  153.0340  138.0988  158.4373 H   0  0  0  0  0  0  0  0  0  0  0  0
  155.6639  138.7223  159.0338 H   0  0  0  0  0  0  0  0  0  0  0  0
  153.5258  136.5150  160.0378 H   0  0  0  0  0  0  0  0  0  0  0  0
  155.1605  137.0718  159.8997 H   0  0  0  0  0  0  0  0  0  0  0  0
  156.2602  138.1377  161.5801 H   0  0  0  0  0  0  0  0  0  0  0  0
  155.3043  139.5481  161.1837 H   0  0  0  0  0  0  0  0  0  0  0  0
  156.2961  139.7150  163.4767 H   0  0  0  0  0  0  0  0  0  0  0  0
  154.5430  139.7546  163.5417 H   0  0  0  0  0  0  0  0  0  0  0  0
  154.3626  136.2785  164.6211 H   0  0  0  0  0  0  0  0  0  0  0  0
  153.3735  137.6757  164.2373 H   0  0  0  0  0  0  0  0  0  0  0  0
  153.3257  136.0671  162.3604 H   0  0  0  0  0  0  0  0  0  0  0  0
  155.0738  136.0456  162.2707 H   0  0  0  0  0  0  0  0  0  0  0  0
  153.3382  142.4760  160.9957 H   0  0  0  0  0  0  0  0  0  0  0  0
  152.8339  144.9212  160.7954 H   0  0  0  0  0  0  0  0  0  0  0  0
  151.6073  145.7988  158.8186 H   0  0  0  0  0  0  0  0  0  0  0  0
  150.8603  144.2492  156.9961 H   0  0  0  0  0  0  0  0  0  0  0  0
  1  2  1  0  0  0  0
  1 23  1  0  0  0  0
  1 24  1  0  0  0  0
  1 25  1  0  0  0  0
  2  3  1  0  0  0  0
  2 26  1  0  0  0  0
  2 27  1  0  0  0  0
  3 22  1  0  0  0  0
  3  4  1  0  0  0  0
  4  5  2  0  0  0  0
  4  6  1  0  0  0  0
  6  7  1  0  0  0  0
  6 17  1  0  0  0  0
  7  8  1  0  0  0  0
  7 28  1  0  0  0  0
  7 29  1  0  0  0  0
  8  9  1  0  0  0  0
  8 10  1  0  0  0  0
  8 30  1  0  0  0  0
  9 31  1  0  0  0  0
 10 11  1  0  0  0  0
 10 32  1  0  0  0  0
 10 33  1  0  0  0  0
 11 16  1  0  0  0  0
 11 12  1  0  0  0  0
 12 13  1  0  0  0  0
 12 34  1  0  0  0  0
 12 35  1  0  0  0  0
 13 14  1  0  0  0  0
 13 36  1  0  0  0  0
 13 37  1  0  0  0  0
 14 15  1  0  0  0  0
 15 16  1  0  0  0  0
 15 38  1  0  0  0  0
 15 39  1  0  0  0  0
 16 40  1  0  0  0  0
 16 41  1  0  0  0  0
 17 22  2  0  0  0  0
 17 18  1  0  0  0  0
 18 19  2  0  0  0  0
 18 42  1  0  0  0  0
 19 20  1  0  0  0  0
 19 43  1  0  0  0  0
 20 21  2  0  0  0  0
 20 44  1  0  0  0  0
 21 22  1  0  0  0  0
 21 45  1  0  0  0  0
M  END
> <s_m_source_file>
AV-unprocessed.smi

> <i_m_source_file_index>
1272

> <i_lp_mmshare_version>
43012

> <i_f3d_flags>
0

> <s_epik_input>
W2NIXTFbY0hdW2NIXVtjSF1jKGMxMiluKFtDSDJdW0NIM10pYyg9TyluMltDSDJdW0NASF0oW09IXSlbQ0gyXU4zW0NIMl1bQ0gyXU9bQ0gyXVtDSDJdMw==

> <s_epik_cmdline>
J2VwaWtfcHl0aG9uJywgJy1waCcsICc3LjAnLCAnLXRuJywgJzgnLCAnLW1hJywgJzIwMCcsICctbWV0YWxfYmluZGluZycsICctaW1hZScsICc8aW5maWxlLm1hZT4nLCAnLW9tYWUnLCAnPG91dGZpbGUubWFlPic=

> <r_epik_Ionization_Penalty>
0.214359

> <r_epik_Ionization_Penalty_Charging>
2.31431e-09

> <r_epik_Ionization_Penalty_Neutral>
0.214359

> <r_epik_State_Penalty>
0.204533

> <r_epik_Charging_Adjusted_Penalty>
0.204533

> <i_epik_Tot_Q>
0

> <i_epik_Tot_abs_Q>
0

> <r_epik_Metal_State_Penalty>
0.204533

> <b_epik_Metal_Only>
0

> <s_lp_Force_Field>
OPLS_2005

> <r_lp_Energy>
62.2606

> <b_lp_Chiralities_Consistent>
1

> <s_lp_Variant>
AV-unprocessed.smi:1272-2

> <Gold.Version>
5.8.1

> <Gold.Id.Protein>
6NUR|6NUR_protein|mol2

> <Gold.PLP.Fitness>
44.8842

> <Gold.PLP.PLP>
-44.5156

> <Gold.PLP.part.hbond>
-1.0000

> <Gold.PLP.part.metal>
0.0000

> <Gold.PLP.part.buried>
-6.0883

> <Gold.PLP.part.nonpolar>
-37.2715

> <Gold.PLP.part.repulsive>
0.0343

> <Gold.PLP.ligand.clash>
0.0000

> <Gold.PLP.ligand.torsion>
1.3259

> <Gold.PLP.Chemscore.Hbond>
1.0000

> <Gold.PLP.Chemscore.CHOScore>
0.0000

> <Gold.PLP.Chemscore.Metal>
0.0000

> <Gold.Chemscore.Hbonds>
donor molecule, donor type, donor heavy atom, donor atom, acceptor molecule, acceptor atom, score
      P1  H  7997  8010       L1     9  1.00

> <Gold.PLP.Chemscore.Internal.Correction>
0.0204

> <Gold.Rescore>
     Score         DG    S(hbond)    S(metal)    S(lipo)     H(rot)  DE(clash)    DE(int)     intcor
     15.60     -18.35       0.99        0.00     128.43       2.14       0.10       2.66       ----

> <Gold.Chemscore.Fitness>
15.5978

> <Gold.Chemscore.DG>
-18.3504

> <Gold.Chemscore.ZeroCoef>
-5.4800

> <Gold.Chemscore.Hbond>
0.9938

> <Gold.Chemscore.Metal>
0.0000

> <Gold.Chemscore.Lipo>
128.4260

> <Gold.Chemscore.Internal_Hbond>
0.0000

> <Gold.Chemscore.DEClash>
0.0962

> <Gold.Chemscore.DEInternal>
2.6564

> <Gold.Chemscore.Rot>
2.1386

> <Gold.Chemscore.Internal.Correction>
   9.000000E+99

> <Gold.Chemscore.Hbonds>
donor molecule, donor type, donor heavy atom, donor atom, acceptor molecule, acceptor atom, score
      P1  H  7997  8010       L1     9  0.97

> <Gold.Chemscore.Hbond.Weighted>
-3.3194

> <Gold.Chemscore.Metal.Weighted>
-0.0000

> <Gold.Chemscore.Lipo.Weighted>
-15.0258

> <Gold.Chemscore.Internal_Hbond.Weighted>
0.0000

> <Gold.Chemscore.DEClash.Weighted>
0.0962

> <Gold.Chemscore.DEInternal.Weighted>
2.6564

> <Gold.Chemscore.Rot.Weighted>
5.4749

> <Gold.Chemscore.Internal.Correction.Weighted>
   9.000000E+99

> <Gold.Protein.RotatedTorsions>
[ 6907 6896 6895 6894 ] final  -10.32 input  -60.11 | X-H torsion
[ 7974 7965 7964 7962 ] final  126.02 input  175.53 | X-H torsion
[ 8008 7997 7996 7995 ] final    4.68 input   59.86 | X-H torsion
[ 10167 10162 10161 10158 ] final   64.91 input  -65.29 | X-H torsion
[ 10718 10713 10712 10709 ] final   10.71 input   66.30 | X-H torsion
[ 10763 10752 10751 10750 ] final  131.91 input  -60.55 | X-H torsion
[ 11005 11000 10999 10996 ] final  -75.85 input  -57.11 | X-H torsion

> <Gold.Protein.ActiveResidues>
 VAL166  LYS551  ARG553  GLY616  TRP617  ASP618  TYR619  PRO620  LYS621  CYS622 
 ASP623  PHE694  ASN695  SER759  ASP760  ASP761  ALA762  ILE779  LEU786  VAL792 
 PHE793  MET794  SER795  GLU796  ALA797  LYS798  CYS799  TRP800  GLU811  SER814 

> <Gold.Protein.RotatedAtoms>
  151.4038  135.0975  159.9563 H   0  0  0  0  0  0  0  0  0  0  0  0  # atno 6907 bound_to 6896
  152.5042  133.8863  159.7382 H   0  0  0  0  0  0  0  0  0  0  0  0  # atno 6908 bound_to 6896
  150.9343  133.6674  159.2832 H   0  0  0  0  0  0  0  0  0  0  0  0  # atno 6909 bound_to 6896
  145.0664  139.3764  143.4980 H   0  0  0  0  0  0  0  0  0  0  0  0  # atno 7974 bound_to 7965
  154.7189  140.2708  155.6560 H   0  0  0  0  0  0  0  0  0  0  0  0  # atno 8008 bound_to 7997
  156.2818  140.2738  156.1779 H   0  0  0  0  0  0  0  0  0  0  0  0  # atno 8009 bound_to 7997
  155.0534  140.0371  157.2541 H   0  0  0  0  0  0  0  0  0  0  0  0  # atno 8010 bound_to 7997
  140.1170  144.4766  150.6943 H   0  0  0  0  0  0  0  0  0  0  0  0  # atno 10167 bound_to 10162
  156.9849  130.6020  149.5680 H   0  0  0  0  0  0  0  0  0  0  0  0  # atno 10718 bound_to 10713
  153.7821  135.3167  155.3367 H   0  0  0  0  0  0  0  0  0  0  0  0  # atno 10763 bound_to 10752
  154.8157  135.4637  154.0641 H   0  0  0  0  0  0  0  0  0  0  0  0  # atno 10764 bound_to 10752
  153.1933  135.6911  153.8410 H   0  0  0  0  0  0  0  0  0  0  0  0  # atno 10765 bound_to 10752
  141.1649  133.6961  156.7579 H   0  0  0  0  0  0  0  0  0  0  0  0  # atno 11005 bound_to 11000
  146.3527  140.0387  142.8644 LP  0  0  0  0  0  0  0  0  0  0  0  0  # atno 17320 bound_to 7965
  145.1346  140.9537  143.4524 LP  0  0  0  0  0  0  0  0  0  0  0  0  # atno 17321 bound_to 7965
  140.6893  143.2367  151.5174 LP  0  0  0  0  0  0  0  0  0  0  0  0  # atno 17342 bound_to 10162
  139.5589  144.2207  152.1658 LP  0  0  0  0  0  0  0  0  0  0  0  0  # atno 17343 bound_to 10162
  156.0230  130.5324  150.8328 LP  0  0  0  0  0  0  0  0  0  0  0  0  # atno 17370 bound_to 10713
  157.5500  131.0943  150.9709 LP  0  0  0  0  0  0  0  0  0  0  0  0  # atno 17371 bound_to 10713
  140.2556  134.8507  157.3709 LP  0  0  0  0  0  0  0  0  0  0  0  0  # atno 17394 bound_to 11000
  140.1661  134.4668  155.7862 LP  0  0  0  0  0  0  0  0  0  0  0  0  # atno 17395 bound_to 11000

$$$$
