AV-unprocessed.smi:14|AV-procd|sdf|77|dock1
  -GOLD-   2262015203D 1   1.00000     0.00000
 Structure written by MMmdl.
 57 60  0  0  0  0  0  0  0  0  1 V2000
  145.1070  138.3921  162.0265 N   0  0  0  0  0  0  0  0  0  0  0  0
  145.9710  137.8092  162.5286 C   0  0  0  0  0  0  0  0  0  0  0  0
  147.0697  137.0684  163.1670 C   0  0  0  0  0  0  0  0  0  0  0  0
  147.7843  136.0769  162.2319 C   0  0  0  0  0  0  0  0  0  0  0  0
  146.9129  135.5008  161.2085 N   0  0  0  0  0  0  0  0  0  0  0  0
  145.9833  134.4435  161.6128 C   0  0  0  0  0  0  0  0  0  0  0  0
  144.6949  134.9810  162.2762 C   0  0  2  0  0  0  0  0  0  0  0  0
  143.8103  133.8868  162.8493 C   0  0  0  0  0  0  0  0  0  0  0  0
  143.0049  133.4196  161.6382 C   0  0  0  0  0  0  0  0  0  0  0  0
  142.9904  134.5128  160.7244 O   0  0  0  0  0  0  0  0  0  0  0  0
  143.7432  135.5987  161.2529 C   0  0  0  0  0  0  0  0  0  0  0  0
  147.4734  135.4317  159.9741 C   0  0  0  0  0  0  0  0  0  0  0  0
  146.9816  134.5594  159.0541 N   0  0  0  0  0  0  0  0  0  0  0  0
  147.5361  134.4757  157.8414 C   0  0  0  0  0  0  0  0  0  0  0  0
  148.5736  135.1558  157.3497 N   0  0  0  0  0  0  0  0  0  0  0  0
  149.0727  136.0310  158.2689 C   0  0  0  0  0  0  0  0  0  0  0  0
  148.5846  136.2324  159.5907 C   0  0  0  0  0  0  0  0  0  0  0  0
  149.3296  137.2181  160.2257 N   0  0  0  0  0  0  0  0  0  0  0  0
  150.2112  137.5749  159.3326 C   0  0  0  0  0  0  0  0  0  0  0  0
  150.1422  136.9004  158.1339 N   0  0  0  0  0  0  0  0  0  0  0  0
  150.9947  137.1014  156.9705 C   0  0  0  0  0  0  0  0  0  0  0  0
  150.3051  137.7967  155.7540 C   0  0  0  0  0  0  0  0  0  0  0  0
  149.1132  136.9125  155.2923 C   0  0  0  0  0  0  0  0  0  0  0  0
  148.4414  137.4210  154.1567 O   0  0  0  0  0  0  0  0  0  0  0  0
  149.7969  139.1945  156.1936 C   0  0  0  0  0  0  0  0  0  0  0  0
  150.9423  140.2012  156.4165 C   0  0  0  0  0  0  0  0  0  0  0  0
  151.7486  140.2954  155.2483 O   0  0  0  0  0  0  0  0  0  0  0  0
  152.3656  139.0635  154.8953 C   0  0  0  0  0  0  0  0  0  0  0  0
  151.2869  138.0139  154.5734 C   0  0  0  0  0  0  0  0  0  0  0  0
  147.7847  137.8107  163.5221 H   0  0  0  0  0  0  0  0  0  0  0  0
  146.6772  136.5640  164.0502 H   0  0  0  0  0  0  0  0  0  0  0  0
  148.6218  136.5755  161.7430 H   0  0  0  0  0  0  0  0  0  0  0  0
  148.2281  135.2789  162.8261 H   0  0  0  0  0  0  0  0  0  0  0  0
  145.7221  133.8394  160.7433 H   0  0  0  0  0  0  0  0  0  0  0  0
  146.4938  133.7680  162.3002 H   0  0  0  0  0  0  0  0  0  0  0  0
  144.9483  135.7163  163.0401 H   0  0  0  0  0  0  0  0  0  0  0  0
  144.3609  133.0788  163.3319 H   0  0  0  0  0  0  0  0  0  0  0  0
  143.1371  134.3163  163.5925 H   0  0  0  0  0  0  0  0  0  0  0  0
  143.4915  132.5709  161.1566 H   0  0  0  0  0  0  0  0  0  0  0  0
  141.9933  133.1180  161.9111 H   0  0  0  0  0  0  0  0  0  0  0  0
  143.0553  136.2860  161.7472 H   0  0  0  0  0  0  0  0  0  0  0  0
  144.2579  136.1506  160.4658 H   0  0  0  0  0  0  0  0  0  0  0  0
  147.0843  133.7606  157.1698 H   0  0  0  0  0  0  0  0  0  0  0  0
  150.9444  138.3436  159.5282 H   0  0  0  0  0  0  0  0  0  0  0  0
  151.8589  137.6869  157.2872 H   0  0  0  0  0  0  0  0  0  0  0  0
  151.3953  136.1266  156.6973 H   0  0  0  0  0  0  0  0  0  0  0  0
  149.4510  135.9074  155.0409 H   0  0  0  0  0  0  0  0  0  0  0  0
  148.3838  136.8096  156.0965 H   0  0  0  0  0  0  0  0  0  0  0  0
  148.5197  136.7930  153.4549 H   0  0  0  0  0  0  0  0  0  0  0  0
  149.1418  139.6148  155.4302 H   0  0  0  0  0  0  0  0  0  0  0  0
  149.1900  139.1140  157.0961 H   0  0  0  0  0  0  0  0  0  0  0  0
  150.5291  141.1870  156.6303 H   0  0  0  0  0  0  0  0  0  0  0  0
  151.5564  139.9334  157.2762 H   0  0  0  0  0  0  0  0  0  0  0  0
  152.9929  139.2289  154.0194 H   0  0  0  0  0  0  0  0  0  0  0  0
  153.0285  138.7303  155.6940 H   0  0  0  0  0  0  0  0  0  0  0  0
  151.7483  137.0768  154.2643 H   0  0  0  0  0  0  0  0  0  0  0  0
  150.7400  138.3684  153.6993 H   0  0  0  0  0  0  0  0  0  0  0  0
  1  2  3  0  0  0  0
  2  3  1  0  0  0  0
  3  4  1  0  0  0  0
  3 30  1  0  0  0  0
  3 31  1  0  0  0  0
  4  5  1  0  0  0  0
  4 32  1  0  0  0  0
  4 33  1  0  0  0  0
  5  6  1  0  0  0  0
  5 12  1  0  0  0  0
  6  7  1  0  0  0  0
  6 34  1  0  0  0  0
  6 35  1  0  0  0  0
  7 11  1  0  0  0  0
  7  8  1  0  0  0  0
  7 36  1  0  0  0  0
  8  9  1  0  0  0  0
  8 37  1  0  0  0  0
  8 38  1  0  0  0  0
  9 10  1  0  0  0  0
  9 39  1  0  0  0  0
  9 40  1  0  0  0  0
 10 11  1  0  0  0  0
 11 41  1  0  0  0  0
 11 42  1  0  0  0  0
 12 17  1  0  0  0  0
 12 13  2  0  0  0  0
 13 14  1  0  0  0  0
 14 15  2  0  0  0  0
 14 43  1  0  0  0  0
 15 16  1  0  0  0  0
 16 20  1  0  0  0  0
 16 17  2  0  0  0  0
 17 18  1  0  0  0  0
 18 19  2  0  0  0  0
 19 20  1  0  0  0  0
 19 44  1  0  0  0  0
 20 21  1  0  0  0  0
 21 22  1  0  0  0  0
 21 45  1  0  0  0  0
 21 46  1  0  0  0  0
 22 29  1  0  0  0  0
 22 23  1  0  0  0  0
 22 25  1  0  0  0  0
 23 24  1  0  0  0  0
 23 47  1  0  0  0  0
 23 48  1  0  0  0  0
 24 49  1  0  0  0  0
 25 26  1  0  0  0  0
 25 50  1  0  0  0  0
 25 51  1  0  0  0  0
 26 27  1  0  0  0  0
 26 52  1  0  0  0  0
 26 53  1  0  0  0  0
 27 28  1  0  0  0  0
 28 29  1  0  0  0  0
 28 54  1  0  0  0  0
 28 55  1  0  0  0  0
 29 56  1  0  0  0  0
 29 57  1  0  0  0  0
M  END
> <s_m_source_file>
AV-unprocessed.smi

> <i_m_source_file_index>
14

> <i_lp_mmshare_version>
43012

> <i_f3d_flags>
0

> <s_epik_input>
W0NIMl0xT1tDSDJdW0NIMl1bQ0BIXTFbQ0gyXU4oW0NIMl1bQ0gyXUMjTiljKG5bY0hdbjIpYyhjMjMpbltjSF1uM1tDSDJdQzQoW0NIMl1bT0hdKVtDSDJdW0NIMl1PW0NIMl1bQ0gyXTQ=

> <s_epik_cmdline>
J2VwaWtfcHl0aG9uJywgJy1waCcsICc3LjAnLCAnLXRuJywgJzgnLCAnLW1hJywgJzIwMCcsICctbWV0YWxfYmluZGluZycsICctaW1hZScsICc8aW5maWxlLm1hZT4nLCAnLW9tYWUnLCAnPG91dGZpbGUubWFlPic=

> <r_lp_tautomer_probability>
1

> <r_epik_Ionization_Penalty>
0.000542547

> <r_epik_Ionization_Penalty_Charging>
0

> <r_epik_Ionization_Penalty_Neutral>
0.000542547

> <r_epik_State_Penalty>
0.000265709

> <r_epik_Charging_Adjusted_Penalty>
0.000265709

> <i_epik_Tot_Q>
0

> <i_epik_Tot_abs_Q>
0

> <r_epik_Metal_State_Penalty>
-0

> <b_epik_Metal_Only>
0

> <s_lp_Force_Field>
OPLS_2005

> <r_lp_Energy>
44.4286

> <b_lp_Chiralities_Consistent>
1

> <s_lp_Variant>
AV-unprocessed.smi:14-1

> <Gold.Version>
5.8.1

> <Gold.Id.Protein>
6NUR|6NUR_protein|mol2

> <Gold.PLP.Fitness>
48.9463

> <Gold.PLP.PLP>
-42.7003

> <Gold.PLP.part.hbond>
-5.0000

> <Gold.PLP.part.metal>
0.0000

> <Gold.PLP.part.buried>
-4.5805

> <Gold.PLP.part.nonpolar>
-33.7252

> <Gold.PLP.part.repulsive>
0.0302

> <Gold.PLP.ligand.clash>
0.0000

> <Gold.PLP.ligand.torsion>
0.9473

> <Gold.PLP.Chemscore.Hbond>
2.1927

> <Gold.PLP.Chemscore.CHOScore>
0.0000

> <Gold.PLP.Chemscore.Metal>
0.0000

> <Gold.Chemscore.Hbonds>
donor molecule, donor type, donor heavy atom, donor atom, acceptor molecule, acceptor atom, score
      L1  H    24    49       P1  7948  1.00
      P1  H  6931  6943       L1    18  0.43
      P1  H  7989  7998       L1    27  0.59

> <Gold.PLP.Chemscore.Internal.Correction>
1.5625

> <Gold.Rescore>
     Score         DG    S(hbond)    S(metal)    S(lipo)     H(rot)  DE(clash)    DE(int)     intcor
      6.76     -12.31       1.44        0.00      88.44       3.26       1.80       3.75       ----

> <Gold.Chemscore.Fitness>
6.7599

> <Gold.Chemscore.DG>
-12.3112

> <Gold.Chemscore.ZeroCoef>
-5.4800

> <Gold.Chemscore.Hbond>
1.4424

> <Gold.Chemscore.Metal>
0.0000

> <Gold.Chemscore.Lipo>
88.4380

> <Gold.Chemscore.Internal_Hbond>
0.0000

> <Gold.Chemscore.DEClash>
1.7971

> <Gold.Chemscore.DEInternal>
3.7543

> <Gold.Chemscore.Rot>
3.2553

> <Gold.Chemscore.Internal.Correction>
   9.000000E+99

> <Gold.Chemscore.Hbonds>
donor molecule, donor type, donor heavy atom, donor atom, acceptor molecule, acceptor atom, score
      L1  H    24    49       P1  7948  0.99
      P1  H  6931  6943       L1    18  0.43
      P1  H  7989  7998       L1    27  0.06

> <Gold.Chemscore.Hbond.Weighted>
-4.8175

> <Gold.Chemscore.Metal.Weighted>
-0.0000

> <Gold.Chemscore.Lipo.Weighted>
-10.3472

> <Gold.Chemscore.Internal_Hbond.Weighted>
0.0000

> <Gold.Chemscore.DEClash.Weighted>
1.7971

> <Gold.Chemscore.DEInternal.Weighted>
3.7543

> <Gold.Chemscore.Rot.Weighted>
8.3336

> <Gold.Chemscore.Internal.Correction.Weighted>
   9.000000E+99

> <Gold.Protein.RotatedTorsions>
[ 6907 6896 6895 6894 ] final    5.41 input  -60.11 | X-H torsion
[ 7974 7965 7964 7962 ] final  -61.71 input  175.53 | X-H torsion
[ 8008 7997 7996 7995 ] final  -40.72 input   59.86 | X-H torsion
[ 10167 10162 10161 10158 ] final   88.71 input  -65.29 | X-H torsion
[ 10718 10713 10712 10709 ] final  -50.27 input   66.30 | X-H torsion
[ 10763 10752 10751 10750 ] final  123.45 input  -60.55 | X-H torsion
[ 11005 11000 10999 10996 ] final -148.82 input  -57.11 | X-H torsion

> <Gold.Protein.ActiveResidues>
 VAL166  LYS551  ARG553  GLY616  TRP617  ASP618  TYR619  PRO620  LYS621  CYS622 
 ASP623  PHE694  ASN695  SER759  ASP760  ASP761  ALA762  ILE779  LEU786  VAL792 
 PHE793  MET794  SER795  GLU796  ALA797  LYS798  CYS799  TRP800  GLU811  SER814 

> <Gold.Protein.RotatedAtoms>
  151.6570  135.0994  160.0171 H   0  0  0  0  0  0  0  0  0  0  0  0  # atno 6907 bound_to 6896
  152.3968  133.6755  159.6291 H   0  0  0  0  0  0  0  0  0  0  0  0  # atno 6908 bound_to 6896
  150.7874  133.8776  159.3318 H   0  0  0  0  0  0  0  0  0  0  0  0  # atno 6909 bound_to 6896
  145.8002  140.8659  143.0235 H   0  0  0  0  0  0  0  0  0  0  0  0  # atno 7974 bound_to 7965
  154.4009  140.1518  156.3074 H   0  0  0  0  0  0  0  0  0  0  0  0  # atno 8008 bound_to 7997
  155.8646  140.3452  155.5758 H   0  0  0  0  0  0  0  0  0  0  0  0  # atno 8009 bound_to 7997
  155.7842  140.0847  157.2034 H   0  0  0  0  0  0  0  0  0  0  0  0  # atno 8010 bound_to 7997
  139.8645  144.6526  150.9020 H   0  0  0  0  0  0  0  0  0  0  0  0  # atno 10167 bound_to 10162
  156.1816  130.4150  149.9498 H   0  0  0  0  0  0  0  0  0  0  0  0  # atno 10718 bound_to 10713
  153.6458  135.3371  155.3085 H   0  0  0  0  0  0  0  0  0  0  0  0  # atno 10763 bound_to 10752
  154.8549  135.4329  154.1956 H   0  0  0  0  0  0  0  0  0  0  0  0  # atno 10764 bound_to 10752
  153.2887  135.7015  153.7389 H   0  0  0  0  0  0  0  0  0  0  0  0  # atno 10765 bound_to 10752
  140.7572  134.3340  157.5111 H   0  0  0  0  0  0  0  0  0  0  0  0  # atno 11005 bound_to 11000
  144.6770  140.0248  143.7483 LP  0  0  0  0  0  0  0  0  0  0  0  0  # atno 17320 bound_to 7965
  145.9886  139.2997  143.0999 LP  0  0  0  0  0  0  0  0  0  0  0  0  # atno 17321 bound_to 7965
  140.7770  143.3716  151.1639 LP  0  0  0  0  0  0  0  0  0  0  0  0  # atno 17342 bound_to 10162
  139.7342  143.9025  152.3029 LP  0  0  0  0  0  0  0  0  0  0  0  0  # atno 17343 bound_to 10162
  156.7267  130.9027  151.3622 LP  0  0  0  0  0  0  0  0  0  0  0  0  # atno 17370 bound_to 10713
  157.6872  130.9197  150.0417 LP  0  0  0  0  0  0  0  0  0  0  0  0  # atno 17371 bound_to 10713
  139.8777  134.9179  156.3190 LP  0  0  0  0  0  0  0  0  0  0  0  0  # atno 17394 bound_to 11000
  140.9697  133.7335  156.0516 LP  0  0  0  0  0  0  0  0  0  0  0  0  # atno 17395 bound_to 11000

$$$$
