AV-unprocessed.smi:1617|AV-procd|sdf|6485|dock1
  -GOLD-   22720 7143D 1   1.00000     0.00000
 Structure written by MMmdl.
 47 49  0  0  0  0  0  0  0  0  1 V2000
  146.5891  138.6287  154.7307 O   0  0  0  0  0  0  0  0  0  0  0  0
  147.3922  138.2731  153.8685 C   0  0  0  0  0  0  0  0  0  0  0  0
  148.6816  138.6465  153.8042 N   0  0  0  0  0  0  0  0  0  0  0  0
  149.4071  139.4792  154.6980 C   0  0  0  0  0  0  0  0  0  0  0  0
  150.8072  139.3376  154.7455 C   0  0  0  0  0  0  0  0  0  0  0  0
  151.5512  140.1374  155.6329 C   0  0  0  0  0  0  0  0  0  0  0  0
  150.8733  141.0600  156.4638 C   0  0  0  0  0  0  0  0  0  0  0  0
  151.5987  141.8748  157.3602 N   0  0  0  0  0  0  0  0  0  0  0  0
  151.2417  143.2913  157.3588 C   0  0  0  0  0  0  0  0  0  0  0  0
  152.2924  144.1092  158.1297 C   0  0  0  0  0  0  0  0  0  0  0  0
  152.4495  143.5795  159.4419 O   0  0  0  0  0  0  0  0  0  0  0  0
  152.9071  142.2315  159.4167 C   0  0  0  0  0  0  0  0  0  0  0  0
  151.8755  141.3479  158.6955 C   0  0  0  0  0  0  0  0  0  0  0  0
  149.5234  141.1800  156.4335 N   0  0  0  0  0  0  0  0  0  0  0  0
  148.8133  140.4140  155.5784 C   0  0  0  0  0  0  0  0  0  0  0  0
  147.0723  137.4625  152.8485 N   0  0  0  0  0  0  0  0  0  0  0  0
  145.7569  136.8580  152.6248 C   0  0  1  0  0  0  0  0  0  0  0  0
  145.9304  135.7372  151.5743 C   0  0  0  0  0  0  0  0  0  0  0  0
  144.6305  135.3721  150.8364 C   0  0  0  0  0  0  0  0  0  0  0  0
  143.5352  134.7542  151.7184 C   0  0  0  0  0  0  0  0  0  0  0  0
  143.0291  135.6940  152.8262 C   0  0  0  0  0  0  0  0  0  0  0  0
  143.9536  135.7655  153.9499 N   0  0  0  0  0  0  0  0  0  0  0  0
  145.2059  136.2466  153.9343 C   0  0  0  0  0  0  0  0  0  0  0  0
  145.9039  136.1951  154.9470 O   0  0  0  0  0  0  0  0  0  0  0  0
  149.1931  138.3359  152.9912 H   0  0  0  0  0  0  0  0  0  0  0  0
  151.3104  138.6250  154.1084 H   0  0  0  0  0  0  0  0  0  0  0  0
  152.6238  140.0234  155.6764 H   0  0  0  0  0  0  0  0  0  0  0  0
  151.1571  143.6867  156.3477 H   0  0  0  0  0  0  0  0  0  0  0  0
  150.2634  143.4068  157.8272 H   0  0  0  0  0  0  0  0  0  0  0  0
  153.2498  144.1029  157.6060 H   0  0  0  0  0  0  0  0  0  0  0  0
  151.9774  145.1501  158.2023 H   0  0  0  0  0  0  0  0  0  0  0  0
  153.8797  142.1750  158.9250 H   0  0  0  0  0  0  0  0  0  0  0  0
  153.0477  141.8843  160.4403 H   0  0  0  0  0  0  0  0  0  0  0  0
  150.9484  141.3118  159.2694 H   0  0  0  0  0  0  0  0  0  0  0  0
  152.2582  140.3288  158.6272 H   0  0  0  0  0  0  0  0  0  0  0  0
  147.7450  140.5529  155.6317 H   0  0  0  0  0  0  0  0  0  0  0  0
  147.7972  137.2230  152.1883 H   0  0  0  0  0  0  0  0  0  0  0  0
  145.0729  137.6219  152.2502 H   0  0  0  0  0  0  0  0  0  0  0  0
  146.6435  136.0670  150.8170 H   0  0  0  0  0  0  0  0  0  0  0  0
  146.3738  134.8458  152.0222 H   0  0  0  0  0  0  0  0  0  0  0  0
  144.2366  136.2585  150.3376 H   0  0  0  0  0  0  0  0  0  0  0  0
  144.8703  134.6673  150.0399 H   0  0  0  0  0  0  0  0  0  0  0  0
  142.6931  134.4923  151.0772 H   0  0  0  0  0  0  0  0  0  0  0  0
  143.8839  133.8152  152.1509 H   0  0  0  0  0  0  0  0  0  0  0  0
  142.8223  136.6915  152.4358 H   0  0  0  0  0  0  0  0  0  0  0  0
  142.0836  135.3141  153.2134 H   0  0  0  0  0  0  0  0  0  0  0  0
  143.6212  135.3847  154.8241 H   0  0  0  0  0  0  0  0  0  0  0  0
  1  2  2  0  0  0  0
  2  3  1  0  0  0  0
  2 16  1  0  0  0  0
  3  4  1  0  0  0  0
  3 25  1  0  0  0  0
  4 15  1  0  0  0  0
  4  5  2  0  0  0  0
  5  6  1  0  0  0  0
  5 26  1  0  0  0  0
  6  7  2  0  0  0  0
  6 27  1  0  0  0  0
  7  8  1  0  0  0  0
  7 14  1  0  0  0  0
  8 13  1  0  0  0  0
  8  9  1  0  0  0  0
  9 10  1  0  0  0  0
  9 28  1  0  0  0  0
  9 29  1  0  0  0  0
 10 11  1  0  0  0  0
 10 30  1  0  0  0  0
 10 31  1  0  0  0  0
 11 12  1  0  0  0  0
 12 13  1  0  0  0  0
 12 32  1  0  0  0  0
 12 33  1  0  0  0  0
 13 34  1  0  0  0  0
 13 35  1  0  0  0  0
 14 15  2  0  0  0  0
 15 36  1  0  0  0  0
 16 17  1  0  0  0  0
 16 37  1  0  0  0  0
 17 23  1  0  0  0  0
 17 18  1  0  0  0  0
 17 38  1  0  0  0  0
 18 19  1  0  0  0  0
 18 39  1  0  0  0  0
 18 40  1  0  0  0  0
 19 20  1  0  0  0  0
 19 41  1  0  0  0  0
 19 42  1  0  0  0  0
 20 21  1  0  0  0  0
 20 43  1  0  0  0  0
 20 44  1  0  0  0  0
 21 22  1  0  0  0  0
 21 45  1  0  0  0  0
 21 46  1  0  0  0  0
 22 23  1  0  0  0  0
 22 47  1  0  0  0  0
 23 24  2  0  0  0  0
M  END
> <s_m_source_file>
AV-unprocessed.smi

> <i_m_source_file_index>
1617

> <i_lp_mmshare_version>
43012

> <i_f3d_flags>
0

> <s_epik_input>
Tz1DMVtOSF1bQ0gyXVtDSDJdW0NIMl1bQ0gyXVtDQEhdMVtOSF1DKD1PKVtOSF1jMltjSF1bY0hdYyhuW2NIXTIpTjNbQ0gyXVtDSDJdT1tDSDJdW0NIMl0z

> <s_epik_cmdline>
J2VwaWtfcHl0aG9uJywgJy1waCcsICc3LjAnLCAnLXRuJywgJzgnLCAnLW1hJywgJzIwMCcsICctbWV0YWxfYmluZGluZycsICctaW1hZScsICc8aW5maWxlLm1hZT4nLCAnLW9tYWUnLCAnPG91dGZpbGUubWFlPic=

> <r_lp_tautomer_probability>
1

> <r_epik_Ionization_Penalty>
0.00171733

> <r_epik_Ionization_Penalty_Charging>
0

> <r_epik_Ionization_Penalty_Neutral>
0.00171733

> <r_epik_State_Penalty>
0.00113787

> <r_epik_Charging_Adjusted_Penalty>
0.00113787

> <i_epik_Tot_Q>
0

> <i_epik_Tot_abs_Q>
0

> <r_epik_Metal_State_Penalty>
-0

> <b_epik_Metal_Only>
0

> <s_lp_Force_Field>
OPLS_2005

> <r_lp_Energy>
26.8457

> <b_lp_Chiralities_Consistent>
1

> <s_lp_Variant>
AV-unprocessed.smi:1617-2

> <Gold.Version>
5.8.1

> <Gold.Id.Protein>
6NUR|6NUR_protein|mol2

> <Gold.PLP.Fitness>
38.9464

> <Gold.PLP.PLP>
-36.8358

> <Gold.PLP.part.hbond>
-2.2344

> <Gold.PLP.part.metal>
0.0000

> <Gold.PLP.part.buried>
-2.4213

> <Gold.PLP.part.nonpolar>
-32.5954

> <Gold.PLP.part.repulsive>
0.2956

> <Gold.PLP.ligand.clash>
0.0000

> <Gold.PLP.ligand.torsion>
0.7918

> <Gold.PLP.Chemscore.Hbond>
1.1171

> <Gold.PLP.Chemscore.CHOScore>
0.0000

> <Gold.PLP.Chemscore.Metal>
0.0000

> <Gold.Chemscore.Hbonds>
donor molecule, donor type, donor heavy atom, donor atom, acceptor molecule, acceptor atom, score
      L1  H     3    25       P1  7948  0.09
      L1  H    16    37       P1  7948  0.94

> <Gold.PLP.Chemscore.Internal.Correction>
0.3430

> <Gold.Rescore>
     Score         DG    S(hbond)    S(metal)    S(lipo)     H(rot)  DE(clash)    DE(int)     intcor
     12.42     -18.61       1.89        0.00      85.88       1.27       0.20       5.99       ----

> <Gold.Chemscore.Fitness>
12.4217

> <Gold.Chemscore.DG>
-18.6094

> <Gold.Chemscore.ZeroCoef>
-5.4800

> <Gold.Chemscore.Hbond>
1.8949

> <Gold.Chemscore.Metal>
0.0000

> <Gold.Chemscore.Lipo>
85.8767

> <Gold.Chemscore.Internal_Hbond>
0.0000

> <Gold.Chemscore.DEClash>
0.2015

> <Gold.Chemscore.DEInternal>
5.9862

> <Gold.Chemscore.Rot>
1.2684

> <Gold.Chemscore.Internal.Correction>
   9.000000E+99

> <Gold.Chemscore.Hbonds>
donor molecule, donor type, donor heavy atom, donor atom, acceptor molecule, acceptor atom, score
      L1  H     3    25       P1  7948  0.10
      L1  H    16    37       P1  7948  0.86

> <Gold.Chemscore.Hbond.Weighted>
-6.3289

> <Gold.Chemscore.Metal.Weighted>
-0.0000

> <Gold.Chemscore.Lipo.Weighted>
-10.0476

> <Gold.Chemscore.Internal_Hbond.Weighted>
0.0000

> <Gold.Chemscore.DEClash.Weighted>
0.2015

> <Gold.Chemscore.DEInternal.Weighted>
5.9862

> <Gold.Chemscore.Rot.Weighted>
3.2471

> <Gold.Chemscore.Internal.Correction.Weighted>
   9.000000E+99

> <Gold.Protein.RotatedTorsions>
[ 6907 6896 6895 6894 ] final -112.54 input  -60.11 | X-H torsion
[ 7974 7965 7964 7962 ] final   74.33 input  175.53 | X-H torsion
[ 8008 7997 7996 7995 ] final  -86.94 input   59.86 | X-H torsion
[ 10167 10162 10161 10158 ] final   -4.25 input  -65.29 | X-H torsion
[ 10718 10713 10712 10709 ] final  -32.94 input   66.30 | X-H torsion
[ 10763 10752 10751 10750 ] final  -58.38 input  -60.55 | X-H torsion
[ 11005 11000 10999 10996 ] final  -25.49 input  -57.11 | X-H torsion

> <Gold.Protein.ActiveResidues>
 VAL166  LYS551  ARG553  GLY616  TRP617  ASP618  TYR619  PRO620  LYS621  CYS622 
 ASP623  PHE694  ASN695  SER759  ASP760  ASP761  ALA762  ILE779  LEU786  VAL792 
 PHE793  MET794  SER795  GLU796  ALA797  LYS798  CYS799  TRP800  GLU811  SER814 

> <Gold.Protein.RotatedAtoms>
  150.7765  133.9075  159.3359 H   0  0  0  0  0  0  0  0  0  0  0  0  # atno 6907 bound_to 6896
  151.6948  135.0938  160.0250 H   0  0  0  0  0  0  0  0  0  0  0  0  # atno 6908 bound_to 6896
  152.3803  133.6499  159.6191 H   0  0  0  0  0  0  0  0  0  0  0  0  # atno 6909 bound_to 6896
  145.7296  139.2679  143.1549 H   0  0  0  0  0  0  0  0  0  0  0  0  # atno 7974 bound_to 7965
  154.6576  140.0572  157.0026 H   0  0  0  0  0  0  0  0  0  0  0  0  # atno 8008 bound_to 7997
  155.1277  140.3253  155.4463 H   0  0  0  0  0  0  0  0  0  0  0  0  # atno 8009 bound_to 7997
  156.2604  140.1986  156.6397 H   0  0  0  0  0  0  0  0  0  0  0  0  # atno 8010 bound_to 7997
  140.6921  143.6445  150.8405 H   0  0  0  0  0  0  0  0  0  0  0  0  # atno 10167 bound_to 10162
  156.3687  130.4336  149.7563 H   0  0  0  0  0  0  0  0  0  0  0  0  # atno 10718 bound_to 10713
  154.2372  135.6350  153.5195 H   0  0  0  0  0  0  0  0  0  0  0  0  # atno 10763 bound_to 10752
  152.9937  135.5533  154.5949 H   0  0  0  0  0  0  0  0  0  0  0  0  # atno 10764 bound_to 10752
  154.5446  135.2897  155.1039 H   0  0  0  0  0  0  0  0  0  0  0  0  # atno 10765 bound_to 10752
  140.8942  133.7567  156.0460 H   0  0  0  0  0  0  0  0  0  0  0  0  # atno 11005 bound_to 11000
  146.0549  140.8031  142.9763 LP  0  0  0  0  0  0  0  0  0  0  0  0  # atno 17320 bound_to 7965
  144.6896  140.3109  143.7248 LP  0  0  0  0  0  0  0  0  0  0  0  0  # atno 17321 bound_to 7965
  140.0159  143.5593  152.2820 LP  0  0  0  0  0  0  0  0  0  0  0  0  # atno 17342 bound_to 10162
  139.6334  144.7647  151.2488 LP  0  0  0  0  0  0  0  0  0  0  0  0  # atno 17343 bound_to 10162
  156.4698  130.7991  151.3009 LP  0  0  0  0  0  0  0  0  0  0  0  0  # atno 17370 bound_to 10713
  157.7481  131.0039  150.3056 LP  0  0  0  0  0  0  0  0  0  0  0  0  # atno 17371 bound_to 10713
  140.8309  134.3179  157.5349 LP  0  0  0  0  0  0  0  0  0  0  0  0  # atno 17394 bound_to 11000
  139.8733  134.9363  156.3655 LP  0  0  0  0  0  0  0  0  0  0  0  0  # atno 17395 bound_to 11000

$$$$
