AV-unprocessed.smi:1643|AV-procd|sdf|6575|dock1
  -GOLD-   22720 7263D 1   1.00000     0.00000
 Structure written by MMmdl.
 54 56  0  0  0  0  0  0  0  0  2 V2000
  143.4790  146.0549  154.5427 C   0  0  0  0  0  0  0  0  0  0  0  0
  143.2664  144.6696  155.1610 C   0  0  0  0  0  0  0  0  0  0  0  0
  142.3236  144.5222  155.9387 O   0  0  0  0  0  0  0  0  0  0  0  0
  144.1106  143.6615  154.8293 N   0  0  0  0  0  0  0  0  0  0  0  0
  143.9085  142.3017  155.3533 C   0  0  0  0  0  0  0  0  0  0  0  0
  144.8397  142.0131  156.5445 C   0  0  0  0  0  0  0  0  0  0  0  0
  146.2257  142.6863  156.4550 C   0  0  0  0  0  0  0  0  0  0  0  0
  146.9853  142.3640  155.2163 N   0  3  1  0  0  0  0  0  0  0  0  0
  147.5399  140.9832  155.2291 C   0  0  0  0  0  0  0  0  0  0  0  0
  148.9319  140.8901  154.5735 C   0  0  1  0  0  0  0  0  0  0  0  0
  148.8040  141.1560  153.1895 O   0  0  0  0  0  0  0  0  0  0  0  0
  149.9272  141.8884  155.1952 C   0  0  0  0  0  0  0  0  0  0  0  0
  150.6542  141.3184  156.3151 N   0  0  0  0  0  0  0  0  0  0  0  0
  151.0670  140.0438  156.4566 C   0  0  0  0  0  0  0  0  0  0  0  0
  151.7180  139.7355  157.5744 N   0  0  0  0  0  0  0  0  0  0  0  0
  151.7319  140.9524  158.2343 C   0  0  0  0  0  0  0  0  0  0  0  0
  152.2740  141.3100  159.4881 C   0  0  0  0  0  0  0  0  0  0  0  0
  152.1703  142.6339  159.9714 C   0  0  0  0  0  0  0  0  0  0  0  0
  152.7672  142.9742  161.3256 C   0  0  0  0  0  0  0  0  0  0  0  0
  151.5171  143.6249  159.1953 C   0  0  0  0  0  0  0  0  0  0  0  0
  151.3975  145.0546  159.6929 C   0  0  0  0  0  0  0  0  0  0  0  0
  150.9689  143.2845  157.9410 C   0  0  0  0  0  0  0  0  0  0  0  0
  151.0771  141.9635  157.4719 C   0  0  0  0  0  0  0  0  0  0  0  0
  146.3315  142.7257  153.9198 C   0  0  0  0  0  0  0  0  0  0  0  0
  145.2921  143.8780  153.9671 C   0  0  0  0  0  0  0  0  0  0  0  0
  143.5406  145.9960  153.4560 H   0  0  0  0  0  0  0  0  0  0  0  0
  144.3907  146.5142  154.9250 H   0  0  0  0  0  0  0  0  0  0  0  0
  142.6470  146.7149  154.7900 H   0  0  0  0  0  0  0  0  0  0  0  0
  142.8748  142.1278  155.6569 H   0  0  0  0  0  0  0  0  0  0  0  0
  144.0604  141.5702  154.5612 H   0  0  0  0  0  0  0  0  0  0  0  0
  144.3564  142.3662  157.4562 H   0  0  0  0  0  0  0  0  0  0  0  0
  144.9478  140.9351  156.6666 H   0  0  0  0  0  0  0  0  0  0  0  0
  146.1277  143.7691  156.5393 H   0  0  0  0  0  0  0  0  0  0  0  0
  146.8197  142.4016  157.3242 H   0  0  0  0  0  0  0  0  0  0  0  0
  147.6148  140.6229  156.2562 H   0  0  0  0  0  0  0  0  0  0  0  0
  146.8404  140.3148  154.7249 H   0  0  0  0  0  0  0  0  0  0  0  0
  149.3365  139.8849  154.6917 H   0  0  0  0  0  0  0  0  0  0  0  0
  147.9702  141.5742  153.0361 H   0  0  0  0  0  0  0  0  0  0  0  0
  150.6449  142.2326  154.4489 H   0  0  0  0  0  0  0  0  0  0  0  0
  149.3993  142.7737  155.5517 H   0  0  0  0  0  0  0  0  0  0  0  0
  150.8751  139.2987  155.6983 H   0  0  0  0  0  0  0  0  0  0  0  0
  152.7725  140.5553  160.0785 H   0  0  0  0  0  0  0  0  0  0  0  0
  151.9986  143.3570  161.9976 H   0  0  0  0  0  0  0  0  0  0  0  0
  153.5445  143.7314  161.2206 H   0  0  0  0  0  0  0  0  0  0  0  0
  153.2150  142.0977  161.7951 H   0  0  0  0  0  0  0  0  0  0  0  0
  150.8770  145.6848  158.9714 H   0  0  0  0  0  0  0  0  0  0  0  0
  152.3853  145.4845  159.8609 H   0  0  0  0  0  0  0  0  0  0  0  0
  150.8407  145.0880  160.6296 H   0  0  0  0  0  0  0  0  0  0  0  0
  150.4694  144.0295  157.3399 H   0  0  0  0  0  0  0  0  0  0  0  0
  147.1255  143.0221  153.2338 H   0  0  0  0  0  0  0  0  0  0  0  0
  145.8862  141.8431  153.4604 H   0  0  0  0  0  0  0  0  0  0  0  0
  144.9412  144.0681  152.9519 H   0  0  0  0  0  0  0  0  0  0  0  0
  145.8176  144.7798  154.2841 H   0  0  0  0  0  0  0  0  0  0  0  0
  147.7955  142.9654  155.2732 H   0  0  0  0  0  0  0  0  0  0  0  0
  1  2  1  0  0  0  0
  1 26  1  0  0  0  0
  1 27  1  0  0  0  0
  1 28  1  0  0  0  0
  2  3  2  0  0  0  0
  2  4  1  0  0  0  0
  4 25  1  0  0  0  0
  4  5  1  0  0  0  0
  5  6  1  0  0  0  0
  5 29  1  0  0  0  0
  5 30  1  0  0  0  0
  6  7  1  0  0  0  0
  6 31  1  0  0  0  0
  6 32  1  0  0  0  0
  7  8  1  0  0  0  0
  7 33  1  0  0  0  0
  7 34  1  0  0  0  0
  8  9  1  0  0  0  0
  8 24  1  0  0  0  0
  8 54  1  0  0  0  0
  9 10  1  0  0  0  0
  9 35  1  0  0  0  0
  9 36  1  0  0  0  0
 10 11  1  0  0  0  0
 10 12  1  0  0  0  0
 10 37  1  0  0  0  0
 11 38  1  0  0  0  0
 12 13  1  0  0  0  0
 12 39  1  0  0  0  0
 12 40  1  0  0  0  0
 13 23  1  0  0  0  0
 13 14  1  0  0  0  0
 14 15  2  0  0  0  0
 14 41  1  0  0  0  0
 15 16  1  0  0  0  0
 16 23  2  0  0  0  0
 16 17  1  0  0  0  0
 17 18  2  0  0  0  0
 17 42  1  0  0  0  0
 18 19  1  0  0  0  0
 18 20  1  0  0  0  0
 19 43  1  0  0  0  0
 19 44  1  0  0  0  0
 19 45  1  0  0  0  0
 20 21  1  0  0  0  0
 20 22  2  0  0  0  0
 21 46  1  0  0  0  0
 21 47  1  0  0  0  0
 21 48  1  0  0  0  0
 22 23  1  0  0  0  0
 22 49  1  0  0  0  0
 24 25  1  0  0  0  0
 24 50  1  0  0  0  0
 24 51  1  0  0  0  0
 25 52  1  0  0  0  0
 25 53  1  0  0  0  0
M  CHG  1   8   1
M  END
> <s_m_source_file>
AV-unprocessed.smi

> <i_m_source_file_index>
1643

> <i_lp_mmshare_version>
43012

> <i_f3d_flags>
0

> <s_epik_input>
W0NIM11DKD1PKU4xW0NIMl1bQ0gyXVtDSDJdTihbQ0gyXVtDSDJdMSlbQ0gyXVtDQEhdKFtPSF0pW0NIMl1uKFtjSF1uMiljKGMyMylbY0hdYyhbQ0gzXSljKFtjSF0zKVtDSDNd

> <s_epik_cmdline>
J2VwaWtfcHl0aG9uJywgJy1waCcsICc3LjAnLCAnLXRuJywgJzgnLCAnLW1hJywgJzIwMCcsICctbWV0YWxfYmluZGluZycsICctaW1hZScsICc8aW5maWxlLm1hZT4nLCAnLW9tYWUnLCAnPG91dGZpbGUubWFlPic=

> <r_epik_Ionization_Penalty>
0.189467

> <r_epik_Ionization_Penalty_Charging>
0.101761

> <r_epik_Ionization_Penalty_Neutral>
0.0877056

> <r_epik_State_Penalty>
0.170758

> <r_epik_Charging_Adjusted_Penalty>
0.272519

> <i_epik_Tot_Q>
1

> <i_epik_Tot_abs_Q>
1

> <r_epik_Metal_State_Penalty>
0.0948013

> <b_epik_Metal_Only>
0

> <s_lp_Force_Field>
OPLS_2005

> <r_lp_Energy>
48.4896

> <b_lp_Chiralities_Consistent>
1

> <s_lp_Variant>
AV-unprocessed.smi:1643-4

> <Gold.Version>
5.8.1

> <Gold.Id.Protein>
6NUR|6NUR_protein|mol2

> <Gold.PLP.Fitness>
56.7860

> <Gold.PLP.PLP>
-50.1758

> <Gold.PLP.part.hbond>
-2.9697

> <Gold.PLP.part.metal>
0.0000

> <Gold.PLP.part.buried>
-5.3273

> <Gold.PLP.part.nonpolar>
-41.9797

> <Gold.PLP.part.repulsive>
0.0832

> <Gold.PLP.ligand.clash>
0.0000

> <Gold.PLP.ligand.torsion>
1.1367

> <Gold.PLP.Chemscore.Hbond>
2.9000

> <Gold.PLP.Chemscore.CHOScore>
0.0000

> <Gold.PLP.Chemscore.Metal>
0.0000

> <Gold.Chemscore.Hbonds>
donor molecule, donor type, donor heavy atom, donor atom, acceptor molecule, acceptor atom, score
      L1  H     8    54       P1  8028  1.79
      P1  H  8011  8017       L1    11  0.75

> <Gold.PLP.Chemscore.Internal.Correction>
0.1835

> <Gold.Rescore>
     Score         DG    S(hbond)    S(metal)    S(lipo)     H(rot)  DE(clash)    DE(int)     intcor
     15.97     -17.99       1.18        0.00     119.52       2.12       0.84       1.18       ----

> <Gold.Chemscore.Fitness>
15.9685

> <Gold.Chemscore.DG>
-17.9919

> <Gold.Chemscore.ZeroCoef>
-5.4800

> <Gold.Chemscore.Hbond>
1.1825

> <Gold.Chemscore.Metal>
0.0000

> <Gold.Chemscore.Lipo>
119.5197

> <Gold.Chemscore.Internal_Hbond>
0.0000

> <Gold.Chemscore.DEClash>
0.8417

> <Gold.Chemscore.DEInternal>
1.1817

> <Gold.Chemscore.Rot>
2.1178

> <Gold.Chemscore.Internal.Correction>
   9.000000E+99

> <Gold.Chemscore.Hbonds>
donor molecule, donor type, donor heavy atom, donor atom, acceptor molecule, acceptor atom, score
      L1  H     8    54       P1  8028  0.60
      P1  H  8011  8017       L1    11  0.09

> <Gold.Chemscore.Hbond.Weighted>
-3.9496

> <Gold.Chemscore.Metal.Weighted>
-0.0000

> <Gold.Chemscore.Lipo.Weighted>
-13.9838

> <Gold.Chemscore.Internal_Hbond.Weighted>
0.0000

> <Gold.Chemscore.DEClash.Weighted>
0.8417

> <Gold.Chemscore.DEInternal.Weighted>
1.1817

> <Gold.Chemscore.Rot.Weighted>
5.4215

> <Gold.Chemscore.Internal.Correction.Weighted>
   9.000000E+99

> <Gold.Protein.RotatedTorsions>
[ 6907 6896 6895 6894 ] final -179.07 input  -60.11 | X-H torsion
[ 7974 7965 7964 7962 ] final   98.24 input  175.53 | X-H torsion
[ 8008 7997 7996 7995 ] final -166.86 input   59.86 | X-H torsion
[ 10167 10162 10161 10158 ] final  -96.35 input  -65.29 | X-H torsion
[ 10718 10713 10712 10709 ] final  -56.43 input   66.30 | X-H torsion
[ 10763 10752 10751 10750 ] final -127.64 input  -60.55 | X-H torsion
[ 11005 11000 10999 10996 ] final   93.12 input  -57.11 | X-H torsion

> <Gold.Protein.ActiveResidues>
 VAL166  LYS551  ARG553  GLY616  TRP617  ASP618  TYR619  PRO620  LYS621  CYS622 
 ASP623  PHE694  ASN695  SER759  ASP760  ASP761  ALA762  ILE779  LEU786  VAL792 
 PHE793  MET794  SER795  GLU796  ALA797  LYS798  CYS799  TRP800  GLU811  SER814 

> <Gold.Protein.RotatedAtoms>
  151.6475  133.3322  159.3144 H   0  0  0  0  0  0  0  0  0  0  0  0  # atno 6907 bound_to 6896
  150.7977  134.7052  159.6582 H   0  0  0  0  0  0  0  0  0  0  0  0  # atno 6908 bound_to 6896
  152.4066  134.6201  160.0100 H   0  0  0  0  0  0  0  0  0  0  0  0  # atno 6909 bound_to 6896
  145.4148  139.2329  143.3228 H   0  0  0  0  0  0  0  0  0  0  0  0  # atno 7974 bound_to 7965
  155.8697  140.0991  157.1558 H   0  0  0  0  0  0  0  0  0  0  0  0  # atno 8008 bound_to 7997
  154.3996  140.1349  156.4126 H   0  0  0  0  0  0  0  0  0  0  0  0  # atno 8009 bound_to 7997
  155.7764  140.3459  155.5276 H   0  0  0  0  0  0  0  0  0  0  0  0  # atno 8010 bound_to 7997
  140.2947  143.3200  152.0310 H   0  0  0  0  0  0  0  0  0  0  0  0  # atno 10167 bound_to 10162
  156.1289  130.4161  150.0304 H   0  0  0  0  0  0  0  0  0  0  0  0  # atno 10718 bound_to 10713
  154.8753  135.3955  154.3626 H   0  0  0  0  0  0  0  0  0  0  0  0  # atno 10763 bound_to 10752
  153.4396  135.7026  153.6183 H   0  0  0  0  0  0  0  0  0  0  0  0  # atno 10764 bound_to 10752
  153.4769  135.3778  155.2390 H   0  0  0  0  0  0  0  0  0  0  0  0  # atno 10765 bound_to 10752
  139.8814  134.8772  156.3672 H   0  0  0  0  0  0  0  0  0  0  0  0  # atno 11005 bound_to 11000
  146.2686  140.4864  142.8823 LP  0  0  0  0  0  0  0  0  0  0  0  0  # atno 17320 bound_to 7965
  144.8285  140.6667  143.6307 LP  0  0  0  0  0  0  0  0  0  0  0  0  # atno 17321 bound_to 7965
  139.4929  144.6500  151.6697 LP  0  0  0  0  0  0  0  0  0  0  0  0  # atno 17342 bound_to 10162
  140.5703  144.0121  150.6213 LP  0  0  0  0  0  0  0  0  0  0  0  0  # atno 17343 bound_to 10162
  156.8222  130.9362  151.3641 LP  0  0  0  0  0  0  0  0  0  0  0  0  # atno 17370 bound_to 10713
  157.6469  130.8851  149.9555 LP  0  0  0  0  0  0  0  0  0  0  0  0  # atno 17371 bound_to 10713
  140.9489  133.7464  156.0245 LP  0  0  0  0  0  0  0  0  0  0  0  0  # atno 17394 bound_to 11000
  140.8129  134.3378  157.5406 LP  0  0  0  0  0  0  0  0  0  0  0  0  # atno 17395 bound_to 11000

$$$$
