AV-unprocessed.smi:702|AV-procd|sdf|3423|dock3
  -GOLD-   22720 0403D 1   1.00000     0.00000
 Structure written by MMmdl.
 50 52  0  0  0  0  0  0  0  0  2 V2000
  145.4674  139.0346  153.8101 C   0  0  0  0  0  0  0  0  0  0  0  0
  146.6854  138.1859  154.2251 C   0  0  1  0  0  0  0  0  0  0  0  0
  146.8593  137.1116  153.2397 N   0  0  0  0  0  0  0  0  0  0  0  0
  145.9508  136.1892  152.8886 C   0  0  0  0  0  0  0  0  0  0  0  0
  144.8129  136.1357  153.3537 O   0  0  0  0  0  0  0  0  0  0  0  0
  146.4614  135.3293  151.9904 N   0  0  0  0  0  0  0  0  0  0  0  0
  145.8410  134.1951  151.4005 C   0  0  0  0  0  0  0  0  0  0  0  0
  144.4751  133.9750  151.6854 C   0  0  0  0  0  0  0  0  0  0  0  0
  143.8209  132.8546  151.1340 C   0  0  0  0  0  0  0  0  0  0  0  0
  144.5052  131.9964  150.3475 N   0  3  0  0  0  0  0  0  0  0  0  0
  145.8144  132.1563  150.0589 C   0  0  0  0  0  0  0  0  0  0  0  0
  146.5216  133.2582  150.5815 C   0  0  0  0  0  0  0  0  0  0  0  0
  148.0012  139.0270  154.4356 C   0  0  0  0  0  0  0  0  0  0  0  0
  149.2150  138.1538  154.3945 N   0  0  0  0  0  0  0  0  0  0  0  0
  149.2211  137.0306  155.3463 C   0  0  0  0  0  0  0  0  0  0  0  0
  150.4425  136.1157  155.1596 C   0  0  0  0  0  0  0  0  0  0  0  0
  151.6335  136.8794  155.2977 O   0  0  0  0  0  0  0  0  0  0  0  0
  151.7060  137.9385  154.3523 C   0  0  0  0  0  0  0  0  0  0  0  0
  150.4924  138.8705  154.5128 C   0  0  0  0  0  0  0  0  0  0  0  0
  148.0508  140.1751  153.3766 C   0  0  0  0  0  0  0  0  0  0  0  0
  147.7403  141.4852  154.1037 C   0  0  0  0  0  0  0  0  0  0  0  0
  148.2413  141.2533  155.5214 C   0  0  0  0  0  0  0  0  0  0  0  0
  147.8929  139.7900  155.7978 C   0  0  0  0  0  0  0  0  0  0  0  0
  145.2325  139.7929  154.5568 H   0  0  0  0  0  0  0  0  0  0  0  0
  144.5796  138.4113  153.6982 H   0  0  0  0  0  0  0  0  0  0  0  0
  145.6316  139.5446  152.8610 H   0  0  0  0  0  0  0  0  0  0  0  0
  146.4260  137.7077  155.1682 H   0  0  0  0  0  0  0  0  0  0  0  0
  147.7670  137.0618  152.8009 H   0  0  0  0  0  0  0  0  0  0  0  0
  147.4358  135.4593  151.7606 H   0  0  0  0  0  0  0  0  0  0  0  0
  143.9277  134.6607  152.3161 H   0  0  0  0  0  0  0  0  0  0  0  0
  142.7791  132.6203  151.2986 H   0  0  0  0  0  0  0  0  0  0  0  0
  146.2565  131.4001  149.4268 H   0  0  0  0  0  0  0  0  0  0  0  0
  147.5721  133.3556  150.3542 H   0  0  0  0  0  0  0  0  0  0  0  0
  149.2200  137.3931  156.3731 H   0  0  0  0  0  0  0  0  0  0  0  0
  148.3319  136.4139  155.2366 H   0  0  0  0  0  0  0  0  0  0  0  0
  150.4400  135.3233  155.9083 H   0  0  0  0  0  0  0  0  0  0  0  0
  150.4195  135.6329  154.1814 H   0  0  0  0  0  0  0  0  0  0  0  0
  152.6314  138.4928  154.5093 H   0  0  0  0  0  0  0  0  0  0  0  0
  151.7462  137.5306  153.3411 H   0  0  0  0  0  0  0  0  0  0  0  0
  150.5855  139.6395  153.7499 H   0  0  0  0  0  0  0  0  0  0  0  0
  150.5532  139.3747  155.4776 H   0  0  0  0  0  0  0  0  0  0  0  0
  149.0352  140.2695  152.9223 H   0  0  0  0  0  0  0  0  0  0  0  0
  147.3695  140.0143  152.5407 H   0  0  0  0  0  0  0  0  0  0  0  0
  148.2083  142.3483  153.6297 H   0  0  0  0  0  0  0  0  0  0  0  0
  146.6635  141.6571  154.1169 H   0  0  0  0  0  0  0  0  0  0  0  0
  149.3213  141.3982  155.5590 H   0  0  0  0  0  0  0  0  0  0  0  0
  147.7896  141.9356  156.2420 H   0  0  0  0  0  0  0  0  0  0  0  0
  146.8816  139.7714  156.2015 H   0  0  0  0  0  0  0  0  0  0  0  0
  148.5047  139.3605  156.5910 H   0  0  0  0  0  0  0  0  0  0  0  0
  144.0140  131.1906  149.9590 H   0  0  0  0  0  0  0  0  0  0  0  0
  1  2  1  0  0  0  0
  1 24  1  0  0  0  0
  1 25  1  0  0  0  0
  1 26  1  0  0  0  0
  2  3  1  0  0  0  0
  2 13  1  0  0  0  0
  2 27  1  0  0  0  0
  3  4  1  0  0  0  0
  3 28  1  0  0  0  0
  4  5  2  0  0  0  0
  4  6  1  0  0  0  0
  6  7  1  0  0  0  0
  6 29  1  0  0  0  0
  7 12  1  0  0  0  0
  7  8  2  0  0  0  0
  8  9  1  0  0  0  0
  8 30  1  0  0  0  0
  9 10  2  0  0  0  0
  9 31  1  0  0  0  0
 10 11  1  0  0  0  0
 10 50  1  0  0  0  0
 11 12  2  0  0  0  0
 11 32  1  0  0  0  0
 12 33  1  0  0  0  0
 13 23  1  0  0  0  0
 13 14  1  0  0  0  0
 13 20  1  0  0  0  0
 14 19  1  0  0  0  0
 14 15  1  0  0  0  0
 15 16  1  0  0  0  0
 15 34  1  0  0  0  0
 15 35  1  0  0  0  0
 16 17  1  0  0  0  0
 16 36  1  0  0  0  0
 16 37  1  0  0  0  0
 17 18  1  0  0  0  0
 18 19  1  0  0  0  0
 18 38  1  0  0  0  0
 18 39  1  0  0  0  0
 19 40  1  0  0  0  0
 19 41  1  0  0  0  0
 20 21  1  0  0  0  0
 20 42  1  0  0  0  0
 20 43  1  0  0  0  0
 21 22  1  0  0  0  0
 21 44  1  0  0  0  0
 21 45  1  0  0  0  0
 22 23  1  0  0  0  0
 22 46  1  0  0  0  0
 22 47  1  0  0  0  0
 23 48  1  0  0  0  0
 23 49  1  0  0  0  0
M  CHG  1  10   1
M  END
> <s_m_source_file>
AV-unprocessed.smi

> <i_m_source_file_index>
702

> <i_lp_mmshare_version>
43012

> <i_f3d_flags>
0

> <s_epik_input>
W0NIMl0xW0NIMl1PW0NIMl1bQ0gyXU4xQzIoW0NIMl1bQ0gyXVtDSDJdW0NIMl0yKVtDQEhdKFtDSDNdKVtOSF1DKD1PKVtOSF1jM1tjSF1bY0hdbltjSF1bY0hdMw==

> <s_epik_cmdline>
J2VwaWtfcHl0aG9uJywgJy1waCcsICc3LjAnLCAnLXRuJywgJzgnLCAnLW1hJywgJzIwMCcsICctbWV0YWxfYmluZGluZycsICctaW1hZScsICc8aW5maWxlLm1hZT4nLCAnLW9tYWUnLCAnPG91dGZpbGUubWFlPic=

> <r_epik_Ionization_Penalty>
1.54019

> <r_epik_Ionization_Penalty_Charging>
1.02845

> <r_epik_Ionization_Penalty_Neutral>
0.511739

> <r_epik_State_Penalty>
1.62583

> <r_epik_Charging_Adjusted_Penalty>
2.65428

> <i_epik_Tot_Q>
1

> <i_epik_Tot_abs_Q>
1

> <r_epik_Metal_State_Penalty>
1.71803

> <b_epik_Metal_Only>
0

> <s_lp_Force_Field>
OPLS_2005

> <r_lp_Energy>
72.2563

> <b_lp_Chiralities_Consistent>
1

> <s_lp_Variant>
AV-unprocessed.smi:702-8

> <Gold.Version>
5.8.1

> <Gold.Id.Protein>
6NUR|6NUR_protein|mol2

> <Gold.PLP.Fitness>
38.1812

> <Gold.PLP.PLP>
-30.3918

> <Gold.PLP.part.hbond>
-3.0000

> <Gold.PLP.part.metal>
0.0000

> <Gold.PLP.part.buried>
0.3483

> <Gold.PLP.part.nonpolar>
-28.2343

> <Gold.PLP.part.repulsive>
0.5400

> <Gold.PLP.ligand.clash>
0.0000

> <Gold.PLP.ligand.torsion>
0.6669

> <Gold.PLP.Chemscore.Hbond>
3.0000

> <Gold.PLP.Chemscore.CHOScore>
0.0000

> <Gold.PLP.Chemscore.Metal>
0.0000

> <Gold.Chemscore.Hbonds>
donor molecule, donor type, donor heavy atom, donor atom, acceptor molecule, acceptor atom, score
      L1  H     3    28       P1  7948  1.00
      L1  H     6    29       P1  7948  1.00
      P1  H 10752 10764       L1    17  0.99

> <Gold.PLP.Chemscore.Internal.Correction>
0.1231

> <Gold.Rescore>
     Score         DG    S(hbond)    S(metal)    S(lipo)     H(rot)  DE(clash)    DE(int)     intcor
     15.16     -21.15       2.55        0.00      92.52       1.44       2.96       3.03       ----

> <Gold.Chemscore.Fitness>
15.1570

> <Gold.Chemscore.DG>
-21.1496

> <Gold.Chemscore.ZeroCoef>
-5.4800

> <Gold.Chemscore.Hbond>
2.5538

> <Gold.Chemscore.Metal>
0.0000

> <Gold.Chemscore.Lipo>
92.5183

> <Gold.Chemscore.Internal_Hbond>
0.0000

> <Gold.Chemscore.DEClash>
2.9582

> <Gold.Chemscore.DEInternal>
3.0344

> <Gold.Chemscore.Rot>
1.4394

> <Gold.Chemscore.Internal.Correction>
   9.000000E+99

> <Gold.Chemscore.Hbonds>
donor molecule, donor type, donor heavy atom, donor atom, acceptor molecule, acceptor atom, score
      L1  H     3    28       P1  7948  0.96
      L1  H     6    29       P1  7948  0.98
      P1  H 10752 10764       L1    17  0.26

> <Gold.Chemscore.Hbond.Weighted>
-8.5298

> <Gold.Chemscore.Metal.Weighted>
-0.0000

> <Gold.Chemscore.Lipo.Weighted>
-10.8246

> <Gold.Chemscore.Internal_Hbond.Weighted>
0.0000

> <Gold.Chemscore.DEClash.Weighted>
2.9582

> <Gold.Chemscore.DEInternal.Weighted>
3.0344

> <Gold.Chemscore.Rot.Weighted>
3.6848

> <Gold.Chemscore.Internal.Correction.Weighted>
   9.000000E+99

> <Gold.Protein.RotatedTorsions>
[ 6907 6896 6895 6894 ] final  -79.80 input  -60.11 | X-H torsion
[ 7974 7965 7964 7962 ] final   87.81 input  175.53 | X-H torsion
[ 8008 7997 7996 7995 ] final  107.04 input   59.86 | X-H torsion
[ 10167 10162 10161 10158 ] final  -18.66 input  -65.29 | X-H torsion
[ 10718 10713 10712 10709 ] final -176.84 input   66.30 | X-H torsion
[ 10763 10752 10751 10750 ] final  -37.30 input  -60.55 | X-H torsion
[ 11005 11000 10999 10996 ] final  160.56 input  -57.11 | X-H torsion

> <Gold.Protein.ActiveResidues>
 VAL166  LYS551  ARG553  GLY616  TRP617  ASP618  TYR619  PRO620  LYS621  CYS622 
 ASP623  PHE694  ASN695  SER759  ASP760  ASP761  ALA762  ILE779  LEU786  VAL792 
 PHE793  MET794  SER795  GLU796  ALA797  LYS798  CYS799  TRP800  GLU811  SER814 

> <Gold.Protein.RotatedAtoms>
  150.6942  134.4066  159.5142 H   0  0  0  0  0  0  0  0  0  0  0  0  # atno 6907 bound_to 6896
  152.1831  134.8734  160.0533 H   0  0  0  0  0  0  0  0  0  0  0  0  # atno 6908 bound_to 6896
  151.9717  133.3693  159.4111 H   0  0  0  0  0  0  0  0  0  0  0  0  # atno 6909 bound_to 6896
  145.5540  139.2298  143.2497 H   0  0  0  0  0  0  0  0  0  0  0  0  # atno 7974 bound_to 7965
  156.1792  140.3102  155.9116 H   0  0  0  0  0  0  0  0  0  0  0  0  # atno 8008 bound_to 7997
  155.3421  140.0466  157.3062 H   0  0  0  0  0  0  0  0  0  0  0  0  # atno 8009 bound_to 7997
  154.5324  140.2235  155.8792 H   0  0  0  0  0  0  0  0  0  0  0  0  # atno 8010 bound_to 7997
  140.7261  143.4895  151.0011 H   0  0  0  0  0  0  0  0  0  0  0  0  # atno 10167 bound_to 10162
  156.8206  130.9618  151.3112 H   0  0  0  0  0  0  0  0  0  0  0  0  # atno 10718 bound_to 10713
  153.8939  135.6809  153.4759 H   0  0  0  0  0  0  0  0  0  0  0  0  # atno 10763 bound_to 10752
  153.1166  135.4759  154.9123 H   0  0  0  0  0  0  0  0  0  0  0  0  # atno 10764 bound_to 10752
  154.7608  135.3210  154.8334 H   0  0  0  0  0  0  0  0  0  0  0  0  # atno 10765 bound_to 10752
  140.2071  134.8295  157.3081 H   0  0  0  0  0  0  0  0  0  0  0  0  # atno 11005 bound_to 11000
  146.1897  140.6363  142.9151 LP  0  0  0  0  0  0  0  0  0  0  0  0  # atno 17320 bound_to 7965
  144.7515  140.5203  143.6798 LP  0  0  0  0  0  0  0  0  0  0  0  0  # atno 17321 bound_to 7965
  139.8598  143.7329  152.3174 LP  0  0  0  0  0  0  0  0  0  0  0  0  # atno 17342 bound_to 10162
  139.7541  144.7526  151.0462 LP  0  0  0  0  0  0  0  0  0  0  0  0  # atno 17343 bound_to 10162
  157.6459  130.8844  149.9537 LP  0  0  0  0  0  0  0  0  0  0  0  0  # atno 17370 bound_to 10713
  156.0991  130.3657  150.0251 LP  0  0  0  0  0  0  0  0  0  0  0  0  # atno 17371 bound_to 10713
  140.1991  134.4277  155.7673 LP  0  0  0  0  0  0  0  0  0  0  0  0  # atno 17394 bound_to 11000
  141.2227  133.7063  156.8153 LP  0  0  0  0  0  0  0  0  0  0  0  0  # atno 17395 bound_to 11000

$$$$
