AV-unprocessed.smi:1867|AV-procd|sdf|7567|dock3
  -GOLD-   22720 9283D 1   1.00000     0.00000
 Structure written by MMmdl.
 52 55  0  0  0  0  0  0  0  0  2 V2000
  146.9188  136.5972  155.6675 O   0  0  0  0  0  0  0  0  0  0  0  0
  147.4925  136.5592  154.5817 C   0  0  0  0  0  0  0  0  0  0  0  0
  148.5981  137.2641  154.2711 N   0  0  0  0  0  0  0  0  0  0  0  0
  149.2844  138.2287  155.0574 C   0  0  0  0  0  0  0  0  0  0  0  0
  149.1939  138.3211  156.4658 C   0  0  0  0  0  0  0  0  0  0  0  0
  149.9042  139.3390  157.1303 C   0  0  0  0  0  0  0  0  0  0  0  0
  150.6791  140.2485  156.3723 C   0  0  0  0  0  0  0  0  0  0  0  0
  151.4045  141.2807  157.0002 N   0  0  0  0  0  0  0  0  0  0  0  0
  152.1449  141.0566  158.2344 C   0  0  0  0  0  0  0  0  0  0  0  0
  152.2123  142.4204  158.9315 C   0  0  0  0  0  0  0  0  0  0  0  0
  151.9643  143.4272  157.8082 C   0  0  0  0  0  0  0  0  0  0  0  0
  151.0159  142.6770  156.8744 C   0  0  0  0  0  0  0  0  0  0  0  0
  150.7613  140.1602  155.0233 N   0  0  0  0  0  0  0  0  0  0  0  0
  150.0786  139.1830  154.3912 C   0  0  0  0  0  0  0  0  0  0  0  0
  147.0579  135.7515  153.5985 N   0  0  0  0  0  0  0  0  0  0  0  0
  145.8983  134.8594  153.6061 C   0  0  1  0  0  0  0  0  0  0  0  0
  144.5625  135.5659  153.9146 C   0  0  0  0  0  0  0  0  0  0  0  0
  143.5305  134.9309  152.9613 C   0  0  0  0  0  0  0  0  0  0  0  0
  144.2492  133.8356  152.2837 N   0  3  1  0  0  0  0  0  0  0  0  0
  143.7256  133.3932  150.9726 C   0  0  0  0  0  0  0  0  0  0  0  0
  144.5611  132.1982  150.4697 C   0  0  0  0  0  0  0  0  0  0  0  0
  146.0697  132.5208  150.4536 C   0  0  0  0  0  0  0  0  0  0  0  0
  146.5370  133.0675  151.8168 C   0  0  0  0  0  0  0  0  0  0  0  0
  145.6554  134.2606  152.2204 C   0  0  2  0  0  0  0  0  0  0  0  0
  149.0196  137.0577  153.3776 H   0  0  0  0  0  0  0  0  0  0  0  0
  148.5871  137.6457  157.0485 H   0  0  0  0  0  0  0  0  0  0  0  0
  149.8449  139.4063  158.2063 H   0  0  0  0  0  0  0  0  0  0  0  0
  151.6662  140.3160  158.8756 H   0  0  0  0  0  0  0  0  0  0  0  0
  153.1446  140.7009  157.9843 H   0  0  0  0  0  0  0  0  0  0  0  0
  151.4111  142.4939  159.6682 H   0  0  0  0  0  0  0  0  0  0  0  0
  153.1578  142.5842  159.4491 H   0  0  0  0  0  0  0  0  0  0  0  0
  151.5519  144.3717  158.1636 H   0  0  0  0  0  0  0  0  0  0  0  0
  152.9012  143.6401  157.2913 H   0  0  0  0  0  0  0  0  0  0  0  0
  151.1005  143.0287  155.8456 H   0  0  0  0  0  0  0  0  0  0  0  0
  149.9813  142.7976  157.1983 H   0  0  0  0  0  0  0  0  0  0  0  0
  150.1736  139.1620  153.3151 H   0  0  0  0  0  0  0  0  0  0  0  0
  147.6178  135.7352  152.7581 H   0  0  0  0  0  0  0  0  0  0  0  0
  146.0523  134.0456  154.3179 H   0  0  0  0  0  0  0  0  0  0  0  0
  144.2828  135.4289  154.9596 H   0  0  0  0  0  0  0  0  0  0  0  0
  144.6249  136.6397  153.7315 H   0  0  0  0  0  0  0  0  0  0  0  0
  142.6525  134.5544  153.4867 H   0  0  0  0  0  0  0  0  0  0  0  0
  143.1976  135.6681  152.2289 H   0  0  0  0  0  0  0  0  0  0  0  0
  142.6785  133.1058  151.0729 H   0  0  0  0  0  0  0  0  0  0  0  0
  143.7680  134.2165  150.2575 H   0  0  0  0  0  0  0  0  0  0  0  0
  144.3859  131.3385  151.1180 H   0  0  0  0  0  0  0  0  0  0  0  0
  144.2310  131.9033  149.4732 H   0  0  0  0  0  0  0  0  0  0  0  0
  146.6416  131.6307  150.1893 H   0  0  0  0  0  0  0  0  0  0  0  0
  146.2732  133.2599  149.6776 H   0  0  0  0  0  0  0  0  0  0  0  0
  146.4769  132.2819  152.5712 H   0  0  0  0  0  0  0  0  0  0  0  0
  147.5830  133.3704  151.7615 H   0  0  0  0  0  0  0  0  0  0  0  0
  145.7443  135.0488  151.4685 H   0  0  0  0  0  0  0  0  0  0  0  0
  144.2168  133.0404  152.9057 H   0  0  0  0  0  0  0  0  0  0  0  0
  1  2  2  0  0  0  0
  2  3  1  0  0  0  0
  2 15  1  0  0  0  0
  3  4  1  0  0  0  0
  3 25  1  0  0  0  0
  4 14  1  0  0  0  0
  4  5  2  0  0  0  0
  5  6  1  0  0  0  0
  5 26  1  0  0  0  0
  6  7  2  0  0  0  0
  6 27  1  0  0  0  0
  7  8  1  0  0  0  0
  7 13  1  0  0  0  0
  8 12  1  0  0  0  0
  8  9  1  0  0  0  0
  9 10  1  0  0  0  0
  9 28  1  0  0  0  0
  9 29  1  0  0  0  0
 10 11  1  0  0  0  0
 10 30  1  0  0  0  0
 10 31  1  0  0  0  0
 11 12  1  0  0  0  0
 11 32  1  0  0  0  0
 11 33  1  0  0  0  0
 12 34  1  0  0  0  0
 12 35  1  0  0  0  0
 13 14  2  0  0  0  0
 14 36  1  0  0  0  0
 15 16  1  0  0  0  0
 15 37  1  0  0  0  0
 16 24  1  0  0  0  0
 16 17  1  0  0  0  0
 16 38  1  0  0  0  0
 17 18  1  0  0  0  0
 17 39  1  0  0  0  0
 17 40  1  0  0  0  0
 18 19  1  0  0  0  0
 18 41  1  0  0  0  0
 18 42  1  0  0  0  0
 19 24  1  0  0  0  0
 19 20  1  0  0  0  0
 19 52  1  0  0  0  0
 20 21  1  0  0  0  0
 20 43  1  0  0  0  0
 20 44  1  0  0  0  0
 21 22  1  0  0  0  0
 21 45  1  0  0  0  0
 21 46  1  0  0  0  0
 22 23  1  0  0  0  0
 22 47  1  0  0  0  0
 22 48  1  0  0  0  0
 23 24  1  0  0  0  0
 23 49  1  0  0  0  0
 23 50  1  0  0  0  0
 24 51  1  0  0  0  0
M  CHG  1  19   1
M  END
> <s_m_source_file>
AV-unprocessed.smi

> <i_m_source_file_index>
1867

> <i_lp_mmshare_version>
43012

> <i_f3d_flags>
0

> <s_epik_input>
W0NIMl0xW0NIMl1bQ0gyXVtDSDJdW0NASF0oTjEyKVtDQEBIXShbQ0gyXVtDSDJdMilbTkhdQyg9TylbTkhdYzNbY0hdW2NIXWMobltjSF0zKU40W0NIMl1bQ0gyXVtDSDJdW0NIMl00

> <s_epik_cmdline>
J2VwaWtfcHl0aG9uJywgJy1waCcsICc3LjAnLCAnLXRuJywgJzgnLCAnLW1hJywgJzIwMCcsICctbWV0YWxfYmluZGluZycsICctaW1hZScsICc8aW5maWxlLm1hZT4nLCAnLW9tYWUnLCAnPG91dGZpbGUubWFlPic=

> <r_lp_tautomer_probability>
1

> <r_epik_Ionization_Penalty>
0.0751123

> <r_epik_Ionization_Penalty_Charging>
0.000974069

> <r_epik_Ionization_Penalty_Neutral>
0.0741382

> <r_epik_State_Penalty>
0.0647261

> <r_epik_Charging_Adjusted_Penalty>
0.0657002

> <i_epik_Tot_Q>
1

> <i_epik_Tot_abs_Q>
1

> <r_epik_Metal_State_Penalty>
0.0580571

> <b_epik_Metal_Only>
0

> <s_lp_Force_Field>
OPLS_2005

> <r_lp_Energy>
71.2543

> <b_lp_Chiralities_Consistent>
1

> <s_lp_Variant>
AV-unprocessed.smi:1867-8

> <Gold.Version>
5.8.1

> <Gold.Id.Protein>
6NUR|6NUR_protein|mol2

> <Gold.PLP.Fitness>
45.6370

> <Gold.PLP.PLP>
-36.0234

> <Gold.PLP.part.hbond>
-3.0000

> <Gold.PLP.part.metal>
0.0000

> <Gold.PLP.part.buried>
-4.9691

> <Gold.PLP.part.nonpolar>
-28.2937

> <Gold.PLP.part.repulsive>
0.0837

> <Gold.PLP.ligand.clash>
0.0000

> <Gold.PLP.ligand.torsion>
1.1417

> <Gold.PLP.Chemscore.Hbond>
2.9000

> <Gold.PLP.Chemscore.CHOScore>
1.0000

> <Gold.PLP.Chemscore.Metal>
0.0000

> <Gold.Chemscore.Hbonds>
donor molecule, donor type, donor heavy atom, donor atom, acceptor molecule, acceptor atom, score
      L1  H     3    25       P1  7948  1.00
      L1  H    15    37       P1  7948  1.00
      P1  H  7989  7998       L1    13  0.90
      L1  C    14    36       P1  7957  1.00

> <Gold.PLP.Chemscore.Internal.Correction>
0.1971

> <Gold.Rescore>
     Score         DG    S(hbond)    S(metal)    S(lipo)     H(rot)  DE(clash)    DE(int)     intcor
     19.69     -22.11       2.41        0.00      95.19       1.00       0.08       2.35       ----

> <Gold.Chemscore.Fitness>
19.6860

> <Gold.Chemscore.DG>
-22.1129

> <Gold.Chemscore.ZeroCoef>
-5.4800

> <Gold.Chemscore.Hbond>
2.4119

> <Gold.Chemscore.Metal>
0.0000

> <Gold.Chemscore.Lipo>
95.1884

> <Gold.Chemscore.Internal_Hbond>
0.0000

> <Gold.Chemscore.DEClash>
0.0779

> <Gold.Chemscore.DEInternal>
2.3490

> <Gold.Chemscore.Rot>
1.0000

> <Gold.Chemscore.Internal.Correction>
   9.000000E+99

> <Gold.Chemscore.Hbonds>
donor molecule, donor type, donor heavy atom, donor atom, acceptor molecule, acceptor atom, score
      L1  H     3    25       P1  7948  0.95
      L1  H    15    37       P1  7948  0.97
      P1  H  7989  7998       L1    13  0.18

> <Gold.Chemscore.Hbond.Weighted>
-8.0559

> <Gold.Chemscore.Metal.Weighted>
-0.0000

> <Gold.Chemscore.Lipo.Weighted>
-11.1370

> <Gold.Chemscore.Internal_Hbond.Weighted>
0.0000

> <Gold.Chemscore.DEClash.Weighted>
0.0779

> <Gold.Chemscore.DEInternal.Weighted>
2.3490

> <Gold.Chemscore.Rot.Weighted>
2.5600

> <Gold.Chemscore.Internal.Correction.Weighted>
   9.000000E+99

> <Gold.Protein.RotatedTorsions>
[ 6907 6896 6895 6894 ] final  -89.02 input  -60.11 | X-H torsion
[ 7974 7965 7964 7962 ] final   -7.80 input  175.53 | X-H torsion
[ 8008 7997 7996 7995 ] final  101.51 input   59.86 | X-H torsion
[ 10167 10162 10161 10158 ] final  -56.89 input  -65.29 | X-H torsion
[ 10718 10713 10712 10709 ] final  -53.55 input   66.30 | X-H torsion
[ 10763 10752 10751 10750 ] final   10.39 input  -60.55 | X-H torsion
[ 11005 11000 10999 10996 ] final -168.66 input  -57.11 | X-H torsion

> <Gold.Protein.ActiveResidues>
 VAL166  LYS551  ARG553  GLY616  TRP617  ASP618  TYR619  PRO620  LYS621  CYS622 
 ASP623  PHE694  ASN695  SER759  ASP760  ASP761  ALA762  ILE779  LEU786  VAL792 
 PHE793  MET794  SER795  GLU796  ALA797  LYS798  CYS799  TRP800  GLU811  SER814 

> <Gold.Protein.RotatedAtoms>
  150.6871  134.2651  159.4565 H   0  0  0  0  0  0  0  0  0  0  0  0  # atno 6907 bound_to 6896
  152.0578  134.9611  160.0584 H   0  0  0  0  0  0  0  0  0  0  0  0  # atno 6908 bound_to 6896
  152.1049  133.4235  159.4641 H   0  0  0  0  0  0  0  0  0  0  0  0  # atno 6909 bound_to 6896
  146.2297  140.2374  142.8342 H   0  0  0  0  0  0  0  0  0  0  0  0  # atno 7974 bound_to 7965
  156.1306  140.3196  155.8344 H   0  0  0  0  0  0  0  0  0  0  0  0  # atno 8008 bound_to 7997
  155.4338  140.0520  157.3033 H   0  0  0  0  0  0  0  0  0  0  0  0  # atno 8009 bound_to 7997
  154.4897  140.2087  155.9590 H   0  0  0  0  0  0  0  0  0  0  0  0  # atno 8010 bound_to 7997
  140.6291  143.2451  151.5288 H   0  0  0  0  0  0  0  0  0  0  0  0  # atno 10167 bound_to 10162
  156.1526  130.4151  149.9920 H   0  0  0  0  0  0  0  0  0  0  0  0  # atno 10718 bound_to 10713
  153.2038  135.6859  153.8199 H   0  0  0  0  0  0  0  0  0  0  0  0  # atno 10763 bound_to 10752
  153.7456  135.3231  155.3313 H   0  0  0  0  0  0  0  0  0  0  0  0  # atno 10764 bound_to 10752
  154.8185  135.4668  154.0815 H   0  0  0  0  0  0  0  0  0  0  0  0  # atno 10765 bound_to 10752
  140.5395  134.5536  157.5096 H   0  0  0  0  0  0  0  0  0  0  0  0  # atno 11005 bound_to 11000
  144.9511  140.8179  143.5571 LP  0  0  0  0  0  0  0  0  0  0  0  0  # atno 17320 bound_to 7965
  145.2334  139.2104  143.5030 LP  0  0  0  0  0  0  0  0  0  0  0  0  # atno 17321 bound_to 7965
  139.5507  144.2403  152.1525 LP  0  0  0  0  0  0  0  0  0  0  0  0  # atno 17342 bound_to 10162
  140.1642  144.4997  150.6615 LP  0  0  0  0  0  0  0  0  0  0  0  0  # atno 17343 bound_to 10162
  156.7774  130.9208  151.3645 LP  0  0  0  0  0  0  0  0  0  0  0  0  # atno 17370 bound_to 10713
  157.6669  130.9016  149.9952 LP  0  0  0  0  0  0  0  0  0  0  0  0  # atno 17371 bound_to 10713
  139.9511  134.7615  156.0446 LP  0  0  0  0  0  0  0  0  0  0  0  0  # atno 17394 bound_to 11000
  141.1235  133.6606  156.3276 LP  0  0  0  0  0  0  0  0  0  0  0  0  # atno 17395 bound_to 11000

$$$$
