AV-unprocessed.smi:2023|AV-procd|sdf|8189|dock8
  -GOLD-   2272010443D 1   1.00000     0.00000
 Structure written by MMmdl.
 35 36  0  0  0  0  0  0  0  0  1 V2000
  154.8575  137.7697  158.4489 O   0  0  0  0  0  0  0  0  0  0  0  0
  153.4410  137.4362  158.6617 S   0  0  0  0  0  0  0  0  0  0  0  0
  153.0492  136.1678  159.2948 O   0  0  0  0  0  0  0  0  0  0  0  0
  152.6861  138.7192  159.5346 N   0  0  0  0  0  0  0  0  0  0  0  0
  152.6650  140.0629  158.9534 C   0  0  0  0  0  0  0  0  0  0  0  0
  153.4695  141.0498  159.8162 C   0  0  0  0  0  0  0  0  0  0  0  0
  152.8022  142.4063  159.9536 C   0  0  0  0  0  0  0  0  0  0  0  0
  152.4926  142.9367  161.2231 C   0  0  0  0  0  0  0  0  0  0  0  0
  151.8502  144.1871  161.2984 C   0  0  0  0  0  0  0  0  0  0  0  0
  151.5481  144.8581  160.0967 C   0  0  0  0  0  0  0  0  0  0  0  0
  151.8455  144.3638  158.8757 N   0  0  0  0  0  0  0  0  0  0  0  0
  152.4585  143.1621  158.8128 C   0  0  0  0  0  0  0  0  0  0  0  0
  152.6106  137.5900  157.1508 N   0  0  0  0  0  0  0  0  0  0  0  0
  151.6919  136.4966  156.7924 C   0  0  0  0  0  0  0  0  0  0  0  0
  150.8651  136.8481  155.5449 C   0  0  0  0  0  0  0  0  0  0  0  0
  151.7243  137.2149  154.4769 O   0  0  0  0  0  0  0  0  0  0  0  0
  152.4771  138.3747  154.7948 C   0  0  0  0  0  0  0  0  0  0  0  0
  153.3846  138.1027  156.0053 C   0  0  0  0  0  0  0  0  0  0  0  0
  152.9414  138.7185  160.5218 H   0  0  0  0  0  0  0  0  0  0  0  0
  153.0880  140.0140  157.9499 H   0  0  0  0  0  0  0  0  0  0  0  0
  151.6341  140.4026  158.8444 H   0  0  0  0  0  0  0  0  0  0  0  0
  153.6355  140.6265  160.8078 H   0  0  0  0  0  0  0  0  0  0  0  0
  154.4582  141.1933  159.3791 H   0  0  0  0  0  0  0  0  0  0  0  0
  152.7339  142.3919  162.1239 H   0  0  0  0  0  0  0  0  0  0  0  0
  151.5929  144.6206  162.2534 H   0  0  0  0  0  0  0  0  0  0  0  0
  151.0554  145.8189  160.1170 H   0  0  0  0  0  0  0  0  0  0  0  0
  152.6738  142.7891  157.8223 H   0  0  0  0  0  0  0  0  0  0  0  0
  152.2744  135.5922  156.6134 H   0  0  0  0  0  0  0  0  0  0  0  0
  151.0249  136.2871  157.6289 H   0  0  0  0  0  0  0  0  0  0  0  0
  150.2690  135.9886  155.2378 H   0  0  0  0  0  0  0  0  0  0  0  0
  150.1651  137.6573  155.7594 H   0  0  0  0  0  0  0  0  0  0  0  0
  153.0817  138.6499  153.9306 H   0  0  0  0  0  0  0  0  0  0  0  0
  151.8089  139.2142  154.9930 H   0  0  0  0  0  0  0  0  0  0  0  0
  153.9031  139.0191  156.2838 H   0  0  0  0  0  0  0  0  0  0  0  0
  154.1499  137.3717  155.7412 H   0  0  0  0  0  0  0  0  0  0  0  0
  1  2  2  0  0  0  0
  2  3  2  0  0  0  0
  2  4  1  0  0  0  0
  2 13  1  0  0  0  0
  4  5  1  0  0  0  0
  4 19  1  0  0  0  0
  5  6  1  0  0  0  0
  5 20  1  0  0  0  0
  5 21  1  0  0  0  0
  6  7  1  0  0  0  0
  6 22  1  0  0  0  0
  6 23  1  0  0  0  0
  7 12  1  0  0  0  0
  7  8  2  0  0  0  0
  8  9  1  0  0  0  0
  8 24  1  0  0  0  0
  9 10  2  0  0  0  0
  9 25  1  0  0  0  0
 10 11  1  0  0  0  0
 10 26  1  0  0  0  0
 11 12  2  0  0  0  0
 12 27  1  0  0  0  0
 13 18  1  0  0  0  0
 13 14  1  0  0  0  0
 14 15  1  0  0  0  0
 14 28  1  0  0  0  0
 14 29  1  0  0  0  0
 15 16  1  0  0  0  0
 15 30  1  0  0  0  0
 15 31  1  0  0  0  0
 16 17  1  0  0  0  0
 17 18  1  0  0  0  0
 17 32  1  0  0  0  0
 17 33  1  0  0  0  0
 18 34  1  0  0  0  0
 18 35  1  0  0  0  0
M  END
> <s_m_source_file>
AV-unprocessed.smi

> <i_m_source_file_index>
2023

> <i_lp_mmshare_version>
43012

> <i_f3d_flags>
0

> <s_epik_input>
W0NIMl0xW0NIMl1PW0NIMl1bQ0gyXU4xUyg9TykoPU8pW05IXVtDSDJdW0NIMl1jMltjSF1bY0hdW2NIXW5bY0hdMg==

> <s_epik_cmdline>
J2VwaWtfcHl0aG9uJywgJy1waCcsICc3LjAnLCAnLXRuJywgJzgnLCAnLW1hJywgJzIwMCcsICctbWV0YWxfYmluZGluZycsICctaW1hZScsICc8aW5maWxlLm1hZT4nLCAnLW9tYWUnLCAnPG91dGZpbGUubWFlPic=

> <r_epik_Ionization_Penalty>
0.0861056

> <r_epik_Ionization_Penalty_Charging>
0

> <r_epik_Ionization_Penalty_Neutral>
0.0861056

> <r_epik_State_Penalty>
0.0574425

> <r_epik_Charging_Adjusted_Penalty>
0.0574425

> <i_epik_Tot_Q>
0

> <i_epik_Tot_abs_Q>
0

> <r_epik_Metal_State_Penalty>
0.317425

> <b_epik_Metal_Only>
0

> <s_lp_Force_Field>
OPLS_2005

> <r_lp_Energy>
8.68862

> <b_lp_Chiralities_Consistent>
1

> <s_lp_Variant>
AV-unprocessed.smi:2023-1

> <Gold.Version>
5.8.1

> <Gold.Id.Protein>
6NUR|6NUR_protein|mol2

> <Gold.PLP.Fitness>
40.5383

> <Gold.PLP.PLP>
-35.9756

> <Gold.PLP.part.hbond>
-2.0000

> <Gold.PLP.part.metal>
0.0000

> <Gold.PLP.part.buried>
-4.5848

> <Gold.PLP.part.nonpolar>
-29.4551

> <Gold.PLP.part.repulsive>
0.1714

> <Gold.PLP.ligand.clash>
0.0000

> <Gold.PLP.ligand.torsion>
1.0769

> <Gold.PLP.Chemscore.Hbond>
1.9920

> <Gold.PLP.Chemscore.CHOScore>
0.0000

> <Gold.PLP.Chemscore.Metal>
0.0000

> <Gold.Chemscore.Hbonds>
donor molecule, donor type, donor heavy atom, donor atom, acceptor molecule, acceptor atom, score
      P1  H  6896  6908       L1     3  0.96
      P1  H 10752 10765       L1    16  1.00

> <Gold.PLP.Chemscore.Internal.Correction>
0.7404

> <Gold.Rescore>
     Score         DG    S(hbond)    S(metal)    S(lipo)     H(rot)  DE(clash)    DE(int)     intcor
     16.27     -17.76       1.65        0.00      98.10       1.84       0.34       1.15       ----

> <Gold.Chemscore.Fitness>
16.2665

> <Gold.Chemscore.DG>
-17.7565

> <Gold.Chemscore.ZeroCoef>
-5.4800

> <Gold.Chemscore.Hbond>
1.6479

> <Gold.Chemscore.Metal>
0.0000

> <Gold.Chemscore.Lipo>
98.1031

> <Gold.Chemscore.Internal_Hbond>
0.0000

> <Gold.Chemscore.DEClash>
0.3379

> <Gold.Chemscore.DEInternal>
1.1521

> <Gold.Chemscore.Rot>
1.8382

> <Gold.Chemscore.Internal.Correction>
   9.000000E+99

> <Gold.Chemscore.Hbonds>
donor molecule, donor type, donor heavy atom, donor atom, acceptor molecule, acceptor atom, score
      P1  H  6896  6908       L1     3  0.92
      P1  H 10752 10765       L1    16  0.36

> <Gold.Chemscore.Hbond.Weighted>
-5.5041

> <Gold.Chemscore.Metal.Weighted>
-0.0000

> <Gold.Chemscore.Lipo.Weighted>
-11.4781

> <Gold.Chemscore.Internal_Hbond.Weighted>
0.0000

> <Gold.Chemscore.DEClash.Weighted>
0.3379

> <Gold.Chemscore.DEInternal.Weighted>
1.1521

> <Gold.Chemscore.Rot.Weighted>
4.7057

> <Gold.Chemscore.Internal.Correction.Weighted>
   9.000000E+99

> <Gold.Protein.RotatedTorsions>
[ 6907 6896 6895 6894 ] final  -76.50 input  -60.11 | X-H torsion
[ 7974 7965 7964 7962 ] final   57.62 input  175.53 | X-H torsion
[ 8008 7997 7996 7995 ] final   88.39 input   59.86 | X-H torsion
[ 10167 10162 10161 10158 ] final   32.23 input  -65.29 | X-H torsion
[ 10718 10713 10712 10709 ] final   20.86 input   66.30 | X-H torsion
[ 10763 10752 10751 10750 ] final  158.46 input  -60.55 | X-H torsion
[ 11005 11000 10999 10996 ] final   72.27 input  -57.11 | X-H torsion

> <Gold.Protein.ActiveResidues>
 VAL166  LYS551  ARG553  GLY616  TRP617  ASP618  TYR619  PRO620  LYS621  CYS622 
 ASP623  PHE694  ASN695  SER759  ASP760  ASP761  ALA762  ILE779  LEU786  VAL792 
 PHE793  MET794  SER795  GLU796  ALA797  LYS798  CYS799  TRP800  GLU811  SER814 

> <Gold.Protein.RotatedAtoms>
  150.7025  134.4563  159.5359 H   0  0  0  0  0  0  0  0  0  0  0  0  # atno 6907 bound_to 6896
  152.2246  134.8378  160.0491 H   0  0  0  0  0  0  0  0  0  0  0  0  # atno 6908 bound_to 6896
  151.9216  133.3552  159.3936 H   0  0  0  0  0  0  0  0  0  0  0  0  # atno 6909 bound_to 6896
  145.9271  139.3776  143.0444 H   0  0  0  0  0  0  0  0  0  0  0  0  # atno 7974 bound_to 7965
  155.9871  140.3372  155.6718 H   0  0  0  0  0  0  0  0  0  0  0  0  # atno 8008 bound_to 7997
  155.6470  140.0701  157.2617 H   0  0  0  0  0  0  0  0  0  0  0  0  # atno 8009 bound_to 7997
  154.4208  140.1732  156.1622 H   0  0  0  0  0  0  0  0  0  0  0  0  # atno 8010 bound_to 7997
  140.4517  144.1038  150.6193 H   0  0  0  0  0  0  0  0  0  0  0  0  # atno 10167 bound_to 10162
  157.1304  130.6588  149.5950 H   0  0  0  0  0  0  0  0  0  0  0  0  # atno 10718 bound_to 10713
  154.2164  135.2784  155.2940 H   0  0  0  0  0  0  0  0  0  0  0  0  # atno 10763 bound_to 10752
  154.5737  135.5610  153.7122 H   0  0  0  0  0  0  0  0  0  0  0  0  # atno 10764 bound_to 10752
  153.0052  135.6327  154.2304 H   0  0  0  0  0  0  0  0  0  0  0  0  # atno 10765 bound_to 10752
  139.9500  134.7244  156.0886 H   0  0  0  0  0  0  0  0  0  0  0  0  # atno 11005 bound_to 11000
  145.8475  140.9547  143.0767 LP  0  0  0  0  0  0  0  0  0  0  0  0  # atno 17320 bound_to 7965
  144.6760  140.0364  143.7481 LP  0  0  0  0  0  0  0  0  0  0  0  0  # atno 17321 bound_to 7965
  140.4199  143.2616  151.9728 LP  0  0  0  0  0  0  0  0  0  0  0  0  # atno 17342 bound_to 10162
  139.4797  144.5840  151.7885 LP  0  0  0  0  0  0  0  0  0  0  0  0  # atno 17343 bound_to 10162
  155.9809  130.4813  150.6799 LP  0  0  0  0  0  0  0  0  0  0  0  0  # atno 17370 bound_to 10713
  157.4398  131.0860  151.0955 LP  0  0  0  0  0  0  0  0  0  0  0  0  # atno 17371 bound_to 10713
  141.1160  133.6627  156.3095 LP  0  0  0  0  0  0  0  0  0  0  0  0  # atno 17394 bound_to 11000
  140.5742  134.5810  157.5465 LP  0  0  0  0  0  0  0  0  0  0  0  0  # atno 17395 bound_to 11000

$$$$
