AV-unprocessed.smi:356|AV-procd|sdf|2414|dock10
  -GOLD-   2262022353D 1   1.00000     0.00000
 Structure written by MMmdl.
 43 45  0  0  0  0  0  0  0  0  3 V2000
  149.2256  141.2334  154.7311 C   0  0  0  0  0  0  0  0  0  0  0  0
  150.1520  141.5934  155.8439 C   0  0  0  0  0  0  0  0  0  0  0  0
  150.4017  142.8527  156.3016 N   0  3  0  0  0  0  0  0  0  0  0  0
  151.3185  142.8005  157.3522 C   0  0  0  0  0  0  0  0  0  0  0  0
  151.8728  143.8125  158.1300 C   0  0  0  0  0  0  0  0  0  0  0  0
  152.7839  143.4145  159.1303 C   0  0  0  0  0  0  0  0  0  0  0  0
  153.1126  142.0573  159.3266 C   0  0  0  0  0  0  0  0  0  0  0  0
  152.5453  141.0400  158.5310 C   0  0  0  0  0  0  0  0  0  0  0  0
  151.6451  141.4424  157.5447 C   0  0  0  0  0  0  0  0  0  0  0  0
  150.9048  140.7352  156.5909 N   0  0  0  0  0  0  0  0  0  0  0  0
  151.0249  139.2703  156.5277 C   0  0  0  0  0  0  0  0  0  0  0  0
  151.8652  138.7847  155.3292 C   0  0  2  0  0  0  0  0  0  0  0  0
  152.7258  139.8296  154.9162 O   0  0  0  0  0  0  0  0  0  0  0  0
  150.9678  138.3683  154.1457 C   0  0  0  0  0  0  0  0  0  0  0  0
  150.0928  137.2077  154.4535 N   0  3  0  0  0  0  0  0  0  0  0  0
  150.7935  136.0951  155.1429 C   0  0  0  0  0  0  0  0  0  0  0  0
  149.8272  134.9247  155.3942 C   0  0  0  0  0  0  0  0  0  0  0  0
  148.7107  135.3792  156.1483 O   0  0  0  0  0  0  0  0  0  0  0  0
  147.9775  136.3836  155.4588 C   0  0  0  0  0  0  0  0  0  0  0  0
  148.8821  137.6028  155.2129 C   0  0  0  0  0  0  0  0  0  0  0  0
  148.7684  142.1284  154.3087 H   0  0  0  0  0  0  0  0  0  0  0  0
  148.4340  140.5792  155.0969 H   0  0  0  0  0  0  0  0  0  0  0  0
  149.7689  140.7161  153.9401 H   0  0  0  0  0  0  0  0  0  0  0  0
  151.6218  144.8527  157.9823 H   0  0  0  0  0  0  0  0  0  0  0  0
  153.2387  144.1653  159.7603 H   0  0  0  0  0  0  0  0  0  0  0  0
  153.8141  141.7915  160.1042 H   0  0  0  0  0  0  0  0  0  0  0  0
  152.8028  140.0036  158.6906 H   0  0  0  0  0  0  0  0  0  0  0  0
  151.4498  138.9202  157.4694 H   0  0  0  0  0  0  0  0  0  0  0  0
  150.0167  138.8569  156.4761 H   0  0  0  0  0  0  0  0  0  0  0  0
  152.4813  137.9479  155.6557 H   0  0  0  0  0  0  0  0  0  0  0  0
  152.2143  140.6108  154.7730 H   0  0  0  0  0  0  0  0  0  0  0  0
  150.3467  139.2067  153.8261 H   0  0  0  0  0  0  0  0  0  0  0  0
  151.6084  138.1259  153.2958 H   0  0  0  0  0  0  0  0  0  0  0  0
  151.6344  135.7410  154.5481 H   0  0  0  0  0  0  0  0  0  0  0  0
  151.1998  136.4496  156.0914 H   0  0  0  0  0  0  0  0  0  0  0  0
  149.4919  134.4869  154.4524 H   0  0  0  0  0  0  0  0  0  0  0  0
  150.3307  134.1342  155.9510 H   0  0  0  0  0  0  0  0  0  0  0  0
  147.5907  135.9882  154.5181 H   0  0  0  0  0  0  0  0  0  0  0  0
  147.1158  136.6698  156.0621 H   0  0  0  0  0  0  0  0  0  0  0  0
  149.1758  138.0484  156.1650 H   0  0  0  0  0  0  0  0  0  0  0  0
  148.3282  138.3626  154.6598 H   0  0  0  0  0  0  0  0  0  0  0  0
  149.7629  136.8505  153.5682 H   0  0  0  0  0  0  0  0  0  0  0  0
  149.9730  143.6868  155.9211 H   0  0  0  0  0  0  0  0  0  0  0  0
  1  2  1  0  0  0  0
  1 21  1  0  0  0  0
  1 22  1  0  0  0  0
  1 23  1  0  0  0  0
  2 10  1  0  0  0  0
  2  3  2  0  0  0  0
  3  4  1  0  0  0  0
  3 43  1  0  0  0  0
  4  9  2  0  0  0  0
  4  5  1  0  0  0  0
  5  6  2  0  0  0  0
  5 24  1  0  0  0  0
  6  7  1  0  0  0  0
  6 25  1  0  0  0  0
  7  8  2  0  0  0  0
  7 26  1  0  0  0  0
  8  9  1  0  0  0  0
  8 27  1  0  0  0  0
  9 10  1  0  0  0  0
 10 11  1  0  0  0  0
 11 12  1  0  0  0  0
 11 28  1  0  0  0  0
 11 29  1  0  0  0  0
 12 13  1  0  0  0  0
 12 14  1  0  0  0  0
 12 30  1  0  0  0  0
 13 31  1  0  0  0  0
 14 15  1  0  0  0  0
 14 32  1  0  0  0  0
 14 33  1  0  0  0  0
 15 20  1  0  0  0  0
 15 16  1  0  0  0  0
 15 42  1  0  0  0  0
 16 17  1  0  0  0  0
 16 34  1  0  0  0  0
 16 35  1  0  0  0  0
 17 18  1  0  0  0  0
 17 36  1  0  0  0  0
 17 37  1  0  0  0  0
 18 19  1  0  0  0  0
 19 20  1  0  0  0  0
 19 38  1  0  0  0  0
 19 39  1  0  0  0  0
 20 40  1  0  0  0  0
 20 41  1  0  0  0  0
M  CHG  1   3   1
M  CHG  1  15   1
M  END
> <s_m_source_file>
AV-unprocessed.smi

> <i_m_source_file_index>
356

> <i_lp_mmshare_version>
43012

> <i_f3d_flags>
0

> <s_epik_input>
W2NIXTFbY0hdW2NIXVtjSF1jKGMxMiluKGMobjIpW0NIM10pW0NIMl1bQ0BIXShbT0hdKVtDSDJdTjNbQ0gyXVtDSDJdT1tDSDJdW0NIMl0z

> <s_epik_cmdline>
J2VwaWtfcHl0aG9uJywgJy1waCcsICc3LjAnLCAnLXRuJywgJzgnLCAnLW1hJywgJzIwMCcsICctbWV0YWxfYmluZGluZycsICctaW1hZScsICc8aW5maWxlLm1hZT4nLCAnLW9tYWUnLCAnPG91dGZpbGUubWFlPic=

> <r_epik_Ionization_Penalty>
1.81899

> <r_epik_Ionization_Penalty_Charging>
1.81898

> <r_epik_Ionization_Penalty_Neutral>
1.42224e-05

> <r_epik_State_Penalty>
1.87399

> <r_epik_Charging_Adjusted_Penalty>
3.69296

> <i_epik_Tot_Q>
2

> <i_epik_Tot_abs_Q>
2

> <r_epik_Metal_State_Penalty>
5.87601

> <b_epik_Metal_Only>
0

> <s_lp_Force_Field>
OPLS_2005

> <r_lp_Energy>
28.369

> <b_lp_Chiralities_Consistent>
1

> <s_lp_Variant>
AV-unprocessed.smi:356-7

> <Gold.Version>
5.8.1

> <Gold.Id.Protein>
6NUR|6NUR_protein|mol2

> <Gold.PLP.Fitness>
54.7050

> <Gold.PLP.PLP>
-41.3889

> <Gold.PLP.part.hbond>
-4.0152

> <Gold.PLP.part.metal>
0.0000

> <Gold.PLP.part.buried>
-5.6322

> <Gold.PLP.part.nonpolar>
-32.4233

> <Gold.PLP.part.repulsive>
0.1824

> <Gold.PLP.ligand.clash>
0.0000

> <Gold.PLP.ligand.torsion>
0.8579

> <Gold.PLP.Chemscore.Hbond>
5.0000

> <Gold.PLP.Chemscore.CHOScore>
0.0000

> <Gold.PLP.Chemscore.Metal>
0.0000

> <Gold.Chemscore.Hbonds>
donor molecule, donor type, donor heavy atom, donor atom, acceptor molecule, acceptor atom, score
      L1  H     3    43       P1  8028  1.92
      L1  H    15    42       P1  7948  2.00
      P1  H  7997  8009       L1    13  1.00

> <Gold.PLP.Chemscore.Internal.Correction>
0.0320

> <Gold.Rescore>
     Score         DG    S(hbond)    S(metal)    S(lipo)     H(rot)  DE(clash)    DE(int)     intcor
     19.16     -20.28       2.50        0.00     101.70       2.13       0.13       0.98       ----

> <Gold.Chemscore.Fitness>
19.1636

> <Gold.Chemscore.DG>
-20.2771

> <Gold.Chemscore.ZeroCoef>
-5.4800

> <Gold.Chemscore.Hbond>
2.5024

> <Gold.Chemscore.Metal>
0.0000

> <Gold.Chemscore.Lipo>
101.6973

> <Gold.Chemscore.Internal_Hbond>
0.0000

> <Gold.Chemscore.DEClash>
0.1334

> <Gold.Chemscore.DEInternal>
0.9800

> <Gold.Chemscore.Rot>
2.1327

> <Gold.Chemscore.Internal.Correction>
   9.000000E+99

> <Gold.Chemscore.Hbonds>
donor molecule, donor type, donor heavy atom, donor atom, acceptor molecule, acceptor atom, score
      L1  H     3    43       P1  8028  0.91
      L1  H    15    42       P1  7948  0.55
      P1  H  7997  8009       L1    13  0.77

> <Gold.Chemscore.Hbond.Weighted>
-8.3581

> <Gold.Chemscore.Metal.Weighted>
-0.0000

> <Gold.Chemscore.Lipo.Weighted>
-11.8986

> <Gold.Chemscore.Internal_Hbond.Weighted>
0.0000

> <Gold.Chemscore.DEClash.Weighted>
0.1334

> <Gold.Chemscore.DEInternal.Weighted>
0.9800

> <Gold.Chemscore.Rot.Weighted>
5.4596

> <Gold.Chemscore.Internal.Correction.Weighted>
   9.000000E+99

> <Gold.Protein.RotatedTorsions>
[ 6907 6896 6895 6894 ] final  -29.09 input  -60.11 | X-H torsion
[ 7974 7965 7964 7962 ] final   77.80 input  175.53 | X-H torsion
[ 8008 7997 7996 7995 ] final -132.97 input   59.86 | X-H torsion
[ 10167 10162 10161 10158 ] final  131.77 input  -65.29 | X-H torsion
[ 10718 10713 10712 10709 ] final  -14.56 input   66.30 | X-H torsion
[ 10763 10752 10751 10750 ] final -160.16 input  -60.55 | X-H torsion
[ 11005 11000 10999 10996 ] final  105.29 input  -57.11 | X-H torsion

> <Gold.Protein.ActiveResidues>
 VAL166  LYS551  ARG553  GLY616  TRP617  ASP618  TYR619  PRO620  LYS621  CYS622 
 ASP623  PHE694  ASN695  SER759  ASP760  ASP761  ALA762  ILE779  LEU786  VAL792 
 PHE793  MET794  SER795  GLU796  ALA797  LYS798  CYS799  TRP800  GLU811  SER814 

> <Gold.Protein.RotatedAtoms>
  151.1239  135.0094  159.8551 H   0  0  0  0  0  0  0  0  0  0  0  0  # atno 6907 bound_to 6896
  152.5449  134.1690  159.8599 H   0  0  0  0  0  0  0  0  0  0  0  0  # atno 6908 bound_to 6896
  151.1750  133.4715  159.2627 H   0  0  0  0  0  0  0  0  0  0  0  0  # atno 6909 bound_to 6896
  145.6853  139.2536  143.1791 H   0  0  0  0  0  0  0  0  0  0  0  0  # atno 7974 bound_to 7965
  155.3377  140.0470  157.3044 H   0  0  0  0  0  0  0  0  0  0  0  0  # atno 8008 bound_to 7997
  154.5294  140.2252  155.8797 H   0  0  0  0  0  0  0  0  0  0  0  0  # atno 8009 bound_to 7997
  156.1773  140.3082  155.9088 H   0  0  0  0  0  0  0  0  0  0  0  0  # atno 8010 bound_to 7997
  139.5369  144.6691  151.4756 H   0  0  0  0  0  0  0  0  0  0  0  0  # atno 10167 bound_to 10162
  156.6143  130.4858  149.6189 H   0  0  0  0  0  0  0  0  0  0  0  0  # atno 10718 bound_to 10713
  154.7414  135.3069  154.8722 H   0  0  0  0  0  0  0  0  0  0  0  0  # atno 10763 bound_to 10752
  153.9535  135.6761  153.4748 H   0  0  0  0  0  0  0  0  0  0  0  0  # atno 10764 bound_to 10752
  153.1012  135.4911  154.8795 H   0  0  0  0  0  0  0  0  0  0  0  0  # atno 10765 bound_to 10752
  139.8800  134.9330  156.5492 H   0  0  0  0  0  0  0  0  0  0  0  0  # atno 11005 bound_to 11000
  146.0929  140.7635  142.9586 LP  0  0  0  0  0  0  0  0  0  0  0  0  # atno 17320 bound_to 7965
  144.7013  140.3665  143.7153 LP  0  0  0  0  0  0  0  0  0  0  0  0  # atno 17321 bound_to 7965
  140.6580  143.8559  150.6856 LP  0  0  0  0  0  0  0  0  0  0  0  0  # atno 17342 bound_to 10162
  140.1944  143.4010  152.1839 LP  0  0  0  0  0  0  0  0  0  0  0  0  # atno 17343 bound_to 10162
  156.2364  130.6825  151.1514 LP  0  0  0  0  0  0  0  0  0  0  0  0  # atno 17370 bound_to 10713
  157.7245  131.0659  150.5990 LP  0  0  0  0  0  0  0  0  0  0  0  0  # atno 17371 bound_to 10713
  140.8253  133.8321  155.8933 LP  0  0  0  0  0  0  0  0  0  0  0  0  # atno 17394 bound_to 11000
  140.9380  134.1937  157.4818 LP  0  0  0  0  0  0  0  0  0  0  0  0  # atno 17395 bound_to 11000

$$$$
