AV-unprocessed.smi:1047|AV-procd|sdf|4603|dock10
  -GOLD-   22720 3 93D 1   1.00000     0.00000
 Structure written by MMmdl.
 57 59  0  0  0  0  0  0  0  0  3 V2000
  146.5160  139.6508  151.9090 C   0  0  0  0  0  0  0  0  0  0  0  0
  147.0686  140.5577  153.0176 C   0  0  0  0  0  0  0  0  0  0  0  0
  148.2882  140.0022  153.6559 N   0  3  2  0  0  0  0  0  0  0  0  0
  148.0363  138.7720  154.4468 C   0  0  0  0  0  0  0  0  0  0  0  0
  149.3462  138.2487  155.0581 C   0  0  0  0  0  0  0  0  0  0  0  0
  149.9412  139.2691  155.8490 O   0  0  0  0  0  0  0  0  0  0  0  0
  150.2896  140.4150  155.0787 C   0  0  2  0  0  0  0  0  0  0  0  0
  150.9942  141.4139  156.0081 C   0  0  0  0  0  0  0  0  0  0  0  0
  150.0273  142.2472  156.7151 N   0  0  0  0  0  0  0  0  0  0  0  0
  150.5797  142.9003  157.8982 C   0  0  0  0  0  0  0  0  0  0  0  0
  151.7345  143.8475  157.5296 C   0  0  1  0  0  0  0  0  0  0  0  0
  151.4938  144.3712  156.2384 O   0  0  0  0  0  0  0  0  0  0  0  0
  151.8599  145.0102  158.5340 C   0  0  0  0  0  0  0  0  0  0  0  0
  151.8659  144.5559  159.9323 N   0  0  0  0  0  0  0  0  0  0  0  0
  151.1641  145.0289  160.9977 C   0  0  0  0  0  0  0  0  0  0  0  0
  151.5086  144.2815  162.0822 N   0  3  0  0  0  0  0  0  0  0  0  0
  152.4450  143.3170  161.7048 C   0  0  0  0  0  0  0  0  0  0  0  0
  153.0870  142.3340  162.4485 C   0  0  0  0  0  0  0  0  0  0  0  0
  153.9952  141.4966  161.7628 C   0  0  0  0  0  0  0  0  0  0  0  0
  154.7129  140.4103  162.5457 C   0  0  0  0  0  0  0  0  0  0  0  0
  154.2340  141.6618  160.3740 C   0  0  0  0  0  0  0  0  0  0  0  0
  155.2124  140.7551  159.6470 C   0  0  0  0  0  0  0  0  0  0  0  0
  153.5706  142.6677  159.6351 C   0  0  0  0  0  0  0  0  0  0  0  0
  152.6792  143.4858  160.3258 C   0  0  0  0  0  0  0  0  0  0  0  0
  148.9991  141.0091  154.4801 C   0  0  0  0  0  0  0  0  0  0  0  0
  145.6766  140.1311  151.4055 H   0  0  0  0  0  0  0  0  0  0  0  0
  146.1541  138.7003  152.2999 H   0  0  0  0  0  0  0  0  0  0  0  0
  147.2758  139.4404  151.1558 H   0  0  0  0  0  0  0  0  0  0  0  0
  147.3107  141.5222  152.5689 H   0  0  0  0  0  0  0  0  0  0  0  0
  146.3052  140.7505  153.7728 H   0  0  0  0  0  0  0  0  0  0  0  0
  147.3170  138.9860  155.2390 H   0  0  0  0  0  0  0  0  0  0  0  0
  147.6001  137.9954  153.8195 H   0  0  0  0  0  0  0  0  0  0  0  0
  149.1465  137.3837  155.6906 H   0  0  0  0  0  0  0  0  0  0  0  0
  150.0385  137.9214  154.2806 H   0  0  0  0  0  0  0  0  0  0  0  0
  150.9670  140.1300  154.2708 H   0  0  0  0  0  0  0  0  0  0  0  0
  151.5995  140.8703  156.7345 H   0  0  0  0  0  0  0  0  0  0  0  0
  151.6815  142.0326  155.4296 H   0  0  0  0  0  0  0  0  0  0  0  0
  149.6517  142.9468  156.0826 H   0  0  0  0  0  0  0  0  0  0  0  0
  149.8027  143.4337  158.4479 H   0  0  0  0  0  0  0  0  0  0  0  0
  150.9599  142.1324  158.5732 H   0  0  0  0  0  0  0  0  0  0  0  0
  152.6772  143.2979  157.5134 H   0  0  0  0  0  0  0  0  0  0  0  0
  150.6328  144.7600  156.2268 H   0  0  0  0  0  0  0  0  0  0  0  0
  152.7485  145.6113  158.3406 H   0  0  0  0  0  0  0  0  0  0  0  0
  151.0087  145.6839  158.4263 H   0  0  0  0  0  0  0  0  0  0  0  0
  150.4602  145.8486  160.9855 H   0  0  0  0  0  0  0  0  0  0  0  0
  152.8990  142.2136  163.5055 H   0  0  0  0  0  0  0  0  0  0  0  0
  155.7916  140.5660  162.5160 H   0  0  0  0  0  0  0  0  0  0  0  0
  154.4919  139.4279  162.1276 H   0  0  0  0  0  0  0  0  0  0  0  0
  154.4057  140.4031  163.5919 H   0  0  0  0  0  0  0  0  0  0  0  0
  155.2941  141.0192  158.5922 H   0  0  0  0  0  0  0  0  0  0  0  0
  154.8871  139.7162  159.7065 H   0  0  0  0  0  0  0  0  0  0  0  0
  156.2068  140.8334  160.0872 H   0  0  0  0  0  0  0  0  0  0  0  0
  153.7505  142.7875  158.5774 H   0  0  0  0  0  0  0  0  0  0  0  0
  149.2463  141.8760  153.8657 H   0  0  0  0  0  0  0  0  0  0  0  0
  148.3393  141.3584  155.2765 H   0  0  0  0  0  0  0  0  0  0  0  0
  148.9193  139.7509  152.9083 H   0  0  0  0  0  0  0  0  0  0  0  0
  151.1299  144.4209  163.0102 H   0  0  0  0  0  0  0  0  0  0  0  0
  1  2  1  0  0  0  0
  1 26  1  0  0  0  0
  1 27  1  0  0  0  0
  1 28  1  0  0  0  0
  2  3  1  0  0  0  0
  2 29  1  0  0  0  0
  2 30  1  0  0  0  0
  3 25  1  0  0  0  0
  3  4  1  0  0  0  0
  3 56  1  0  0  0  0
  4  5  1  0  0  0  0
  4 31  1  0  0  0  0
  4 32  1  0  0  0  0
  5  6  1  0  0  0  0
  5 33  1  0  0  0  0
  5 34  1  0  0  0  0
  6  7  1  0  0  0  0
  7  8  1  0  0  0  0
  7 25  1  0  0  0  0
  7 35  1  0  0  0  0
  8  9  1  0  0  0  0
  8 36  1  0  0  0  0
  8 37  1  0  0  0  0
  9 10  1  0  0  0  0
  9 38  1  0  0  0  0
 10 11  1  0  0  0  0
 10 39  1  0  0  0  0
 10 40  1  0  0  0  0
 11 12  1  0  0  0  0
 11 13  1  0  0  0  0
 11 41  1  0  0  0  0
 12 42  1  0  0  0  0
 13 14  1  0  0  0  0
 13 43  1  0  0  0  0
 13 44  1  0  0  0  0
 14 24  1  0  0  0  0
 14 15  1  0  0  0  0
 15 16  2  0  0  0  0
 15 45  1  0  0  0  0
 16 17  1  0  0  0  0
 16 57  1  0  0  0  0
 17 24  2  0  0  0  0
 17 18  1  0  0  0  0
 18 19  2  0  0  0  0
 18 46  1  0  0  0  0
 19 20  1  0  0  0  0
 19 21  1  0  0  0  0
 20 47  1  0  0  0  0
 20 48  1  0  0  0  0
 20 49  1  0  0  0  0
 21 22  1  0  0  0  0
 21 23  2  0  0  0  0
 22 50  1  0  0  0  0
 22 51  1  0  0  0  0
 22 52  1  0  0  0  0
 23 24  1  0  0  0  0
 23 53  1  0  0  0  0
 25 54  1  0  0  0  0
 25 55  1  0  0  0  0
M  CHG  1   3   1
M  CHG  1  16   1
M  END
> <s_m_source_file>
AV-unprocessed.smi

> <i_m_source_file_index>
1047

> <i_lp_mmshare_version>
43012

> <i_f3d_flags>
0

> <s_epik_input>
W0NIM11bQ0gyXU4xW0NIMl1bQ0gyXU9bQ0BIXShbQ0gyXTEpW0NIMl1bTkhdW0NIMl1bQ0BIXShbT0hdKVtDSDJdbihbY0hdbjIpYyhjMjMpW2NIXWMoW0NIM10pYyhbY0hdMylbQ0gzXQ==

> <s_epik_cmdline>
J2VwaWtfcHl0aG9uJywgJy1waCcsICc3LjAnLCAnLXRuJywgJzgnLCAnLW1hJywgJzIwMCcsICctbWV0YWxfYmluZGluZycsICctaW1hZScsICc8aW5maWxlLm1hZT4nLCAnLW9tYWUnLCAnPG91dGZpbGUubWFlPic=

> <r_epik_Ionization_Penalty>
2.03028

> <r_epik_Ionization_Penalty_Charging>
1.21256

> <r_epik_Ionization_Penalty_Neutral>
0.817715

> <r_epik_State_Penalty>
2.54959

> <r_epik_Charging_Adjusted_Penalty>
3.76215

> <i_epik_Tot_Q>
2

> <i_epik_Tot_abs_Q>
2

> <r_epik_Metal_State_Penalty>
6.52811

> <b_epik_Metal_Only>
0

> <s_lp_Force_Field>
OPLS_2005

> <r_lp_Energy>
34.649

> <b_lp_Chiralities_Consistent>
1

> <s_lp_Variant>
AV-unprocessed.smi:1047-44

> <Gold.Version>
5.8.1

> <Gold.Id.Protein>
6NUR|6NUR_protein|mol2

> <Gold.PLP.Fitness>
66.3357

> <Gold.PLP.PLP>
-59.1675

> <Gold.PLP.part.hbond>
-5.0000

> <Gold.PLP.part.metal>
0.0000

> <Gold.PLP.part.buried>
2.8744

> <Gold.PLP.part.nonpolar>
-56.0955

> <Gold.PLP.part.repulsive>
0.1961

> <Gold.PLP.ligand.clash>
0.0000

> <Gold.PLP.ligand.torsion>
0.9833

> <Gold.PLP.Chemscore.Hbond>
2.9760

> <Gold.PLP.Chemscore.CHOScore>
0.0000

> <Gold.PLP.Chemscore.Metal>
0.0000

> <Gold.Chemscore.Hbonds>
donor molecule, donor type, donor heavy atom, donor atom, acceptor molecule, acceptor atom, score
      L1  H     3    56       P1  7957  1.00
      L1  H     9    38       P1  8028  1.00
      L1  H    12    42       P1  8028  1.00

> <Gold.PLP.Chemscore.Internal.Correction>
0.2069

> <Gold.Rescore>
     Score         DG    S(hbond)    S(metal)    S(lipo)     H(rot)  DE(clash)    DE(int)     intcor
     21.96     -27.30       2.71        0.00     168.30       2.71       3.50       1.84       ----

> <Gold.Chemscore.Fitness>
21.9581

> <Gold.Chemscore.DG>
-27.2983

> <Gold.Chemscore.ZeroCoef>
-5.4800

> <Gold.Chemscore.Hbond>
2.7132

> <Gold.Chemscore.Metal>
0.0000

> <Gold.Chemscore.Lipo>
168.2978

> <Gold.Chemscore.Internal_Hbond>
0.0000

> <Gold.Chemscore.DEClash>
3.5025

> <Gold.Chemscore.DEInternal>
1.8377

> <Gold.Chemscore.Rot>
2.7088

> <Gold.Chemscore.Internal.Correction>
   9.000000E+99

> <Gold.Chemscore.Hbonds>
donor molecule, donor type, donor heavy atom, donor atom, acceptor molecule, acceptor atom, score
      L1  H     3    56       P1  7957  0.94
      L1  H     9    38       P1  8028  0.95
      L1  H    12    42       P1  8028  0.94

> <Gold.Chemscore.Hbond.Weighted>
-9.0621

> <Gold.Chemscore.Metal.Weighted>
-0.0000

> <Gold.Chemscore.Lipo.Weighted>
-19.6908

> <Gold.Chemscore.Internal_Hbond.Weighted>
0.0000

> <Gold.Chemscore.DEClash.Weighted>
3.5025

> <Gold.Chemscore.DEInternal.Weighted>
1.8377

> <Gold.Chemscore.Rot.Weighted>
6.9346

> <Gold.Chemscore.Internal.Correction.Weighted>
   9.000000E+99

> <Gold.Protein.RotatedTorsions>
[ 6907 6896 6895 6894 ] final  -11.78 input  -60.11 | X-H torsion
[ 7974 7965 7964 7962 ] final -127.41 input  175.53 | X-H torsion
[ 8008 7997 7996 7995 ] final   88.78 input   59.86 | X-H torsion
[ 10167 10162 10161 10158 ] final -178.44 input  -65.29 | X-H torsion
[ 10718 10713 10712 10709 ] final   56.44 input   66.30 | X-H torsion
[ 10763 10752 10751 10750 ] final  167.66 input  -60.55 | X-H torsion
[ 11005 11000 10999 10996 ] final -174.77 input  -57.11 | X-H torsion

> <Gold.Protein.ActiveResidues>
 VAL166  LYS551  ARG553  GLY616  TRP617  ASP618  TYR619  PRO620  LYS621  CYS622 
 ASP623  PHE694  ASN695  SER759  ASP760  ASP761  ALA762  ILE779  LEU786  VAL792 
 PHE793  MET794  SER795  GLU796  ALA797  LYS798  CYS799  TRP800  GLU811  SER814 

> <Gold.Protein.RotatedAtoms>
  151.3809  135.0939  159.9495 H   0  0  0  0  0  0  0  0  0  0  0  0  # atno 6907 bound_to 6896
  152.5108  133.9073  159.7481 H   0  0  0  0  0  0  0  0  0  0  0  0  # atno 6908 bound_to 6896
  150.9506  133.6498  159.2801 H   0  0  0  0  0  0  0  0  0  0  0  0  # atno 6909 bound_to 6896
  144.9774  140.7606  143.4633 H   0  0  0  0  0  0  0  0  0  0  0  0  # atno 7974 bound_to 7965
  155.9919  140.3368  155.6762 H   0  0  0  0  0  0  0  0  0  0  0  0  # atno 8008 bound_to 7997
  155.6408  140.0695  157.2637 H   0  0  0  0  0  0  0  0  0  0  0  0  # atno 8009 bound_to 7997
  154.4222  140.1743  156.1559 H   0  0  0  0  0  0  0  0  0  0  0  0  # atno 8010 bound_to 7997
  139.5432  144.2305  152.0937 H   0  0  0  0  0  0  0  0  0  0  0  0  # atno 10167 bound_to 10162
  157.5431  130.8711  149.8851 H   0  0  0  0  0  0  0  0  0  0  0  0  # atno 10718 bound_to 10713
  154.3571  135.2753  155.2340 H   0  0  0  0  0  0  0  0  0  0  0  0  # atno 10763 bound_to 10752
  154.4545  135.5922  153.6217 H   0  0  0  0  0  0  0  0  0  0  0  0  # atno 10764 bound_to 10752
  152.9846  135.6050  154.3787 H   0  0  0  0  0  0  0  0  0  0  0  0  # atno 10765 bound_to 10752
  140.4708  134.6167  157.4881 H   0  0  0  0  0  0  0  0  0  0  0  0  # atno 11005 bound_to 11000
  145.2471  139.2047  143.4962 LP  0  0  0  0  0  0  0  0  0  0  0  0  # atno 17320 bound_to 7965
  146.3399  140.2377  142.8595 LP  0  0  0  0  0  0  0  0  0  0  0  0  # atno 17321 bound_to 7965
  140.1787  144.4865  150.6540 LP  0  0  0  0  0  0  0  0  0  0  0  0  # atno 17342 bound_to 10162
  140.6671  143.2272  151.5717 LP  0  0  0  0  0  0  0  0  0  0  0  0  # atno 17343 bound_to 10162
  156.0513  130.3717  150.1195 LP  0  0  0  0  0  0  0  0  0  0  0  0  # atno 17370 bound_to 10713
  156.9373  130.9733  151.3522 LP  0  0  0  0  0  0  0  0  0  0  0  0  # atno 17371 bound_to 10713
  139.9887  134.7021  155.9729 LP  0  0  0  0  0  0  0  0  0  0  0  0  # atno 17394 bound_to 11000
  141.1578  133.6541  156.4218 LP  0  0  0  0  0  0  0  0  0  0  0  0  # atno 17395 bound_to 11000

$$$$
