AV-unprocessed.smi:2044|AV-procd|sdf|8303|dock8
  -GOLD-   2272010573D 1   1.00000     0.00000
 Structure written by MMmdl.
 38 39  0  0  0  0  0  0  0  0  2 V2000
  152.9006  143.3232  162.5317 C   0  0  0  0  0  0  0  0  0  0  0  0
  153.3873  142.2900  161.5742 C   0  0  0  0  0  0  0  0  0  0  0  0
  152.9457  141.8793  160.3485 C   0  0  0  0  0  0  0  0  0  0  0  0
  153.8682  140.8559  159.9969 C   0  0  0  0  0  0  0  0  0  0  0  0
  153.8632  140.1460  158.8581 N   0  5  0  0  0  0  0  0  0  0  0  0
  152.7682  139.4355  158.5020 C   0  0  0  0  0  0  0  0  0  0  0  0
  151.9333  138.9462  159.2666 O   0  0  0  0  0  0  0  0  0  0  0  0
  152.6287  139.2879  157.1767 N   0  0  0  0  0  0  0  0  0  0  0  0
  151.5334  138.5947  156.5021 C   0  0  0  0  0  0  0  0  0  0  0  0
  151.4869  138.8530  154.9673 C   0  0  1  0  0  0  0  0  0  0  0  0
  151.2929  137.4991  154.2376 C   0  0  0  0  0  0  0  0  0  0  0  0
  150.4791  139.8648  154.5713 N   0  0  0  0  0  0  0  0  0  0  0  0
  150.3764  140.9615  155.5412 C   0  0  0  0  0  0  0  0  0  0  0  0
  149.3135  142.0045  155.1553 C   0  0  0  0  0  0  0  0  0  0  0  0
  148.0516  141.3694  155.0053 O   0  0  0  0  0  0  0  0  0  0  0  0
  148.0841  140.3481  154.0181 C   0  0  0  0  0  0  0  0  0  0  0  0
  149.1394  139.2929  154.3935 C   0  0  0  0  0  0  0  0  0  0  0  0
  154.7967  140.6732  160.9206 N   0  0  0  0  0  0  0  0  0  0  0  0
  154.4919  141.5850  161.9383 O   0  0  0  0  0  0  0  0  0  0  0  0
  153.0678  144.3245  162.1350 H   0  0  0  0  0  0  0  0  0  0  0  0
  153.4184  143.2475  163.4883 H   0  0  0  0  0  0  0  0  0  0  0  0
  151.8327  143.2062  162.7164 H   0  0  0  0  0  0  0  0  0  0  0  0
  152.0970  142.2478  159.7925 H   0  0  0  0  0  0  0  0  0  0  0  0
  153.3368  139.7017  156.5883 H   0  0  0  0  0  0  0  0  0  0  0  0
  151.6410  137.5270  156.6951 H   0  0  0  0  0  0  0  0  0  0  0  0
  150.6155  138.9060  156.9986 H   0  0  0  0  0  0  0  0  0  0  0  0
  152.4681  139.2307  154.6762 H   0  0  0  0  0  0  0  0  0  0  0  0
  152.0054  136.7434  154.5662 H   0  0  0  0  0  0  0  0  0  0  0  0
  151.4472  137.5818  153.1630 H   0  0  0  0  0  0  0  0  0  0  0  0
  150.2923  137.1005  154.4069 H   0  0  0  0  0  0  0  0  0  0  0  0
  150.1467  140.5603  156.5295 H   0  0  0  0  0  0  0  0  0  0  0  0
  151.3242  141.4896  155.6265 H   0  0  0  0  0  0  0  0  0  0  0  0
  149.2367  142.7695  155.9279 H   0  0  0  0  0  0  0  0  0  0  0  0
  149.5882  142.5117  154.2291 H   0  0  0  0  0  0  0  0  0  0  0  0
  147.0980  139.8888  153.9491 H   0  0  0  0  0  0  0  0  0  0  0  0
  148.3036  140.7824  153.0414 H   0  0  0  0  0  0  0  0  0  0  0  0
  149.1391  138.5525  153.5963 H   0  0  0  0  0  0  0  0  0  0  0  0
  148.8316  138.7794  155.3058 H   0  0  0  0  0  0  0  0  0  0  0  0
  1  2  1  0  0  0  0
  1 20  1  0  0  0  0
  1 21  1  0  0  0  0
  1 22  1  0  0  0  0
  2 19  1  0  0  0  0
  2  3  2  0  0  0  0
  3  4  1  0  0  0  0
  3 23  1  0  0  0  0
  4  5  1  0  0  0  0
  4 18  2  0  0  0  0
  5  6  1  0  0  0  0
  6  7  2  0  0  0  0
  6  8  1  0  0  0  0
  8  9  1  0  0  0  0
  8 24  1  0  0  0  0
  9 10  1  0  0  0  0
  9 25  1  0  0  0  0
  9 26  1  0  0  0  0
 10 11  1  0  0  0  0
 10 12  1  0  0  0  0
 10 27  1  0  0  0  0
 11 28  1  0  0  0  0
 11 29  1  0  0  0  0
 11 30  1  0  0  0  0
 12 17  1  0  0  0  0
 12 13  1  0  0  0  0
 13 14  1  0  0  0  0
 13 31  1  0  0  0  0
 13 32  1  0  0  0  0
 14 15  1  0  0  0  0
 14 33  1  0  0  0  0
 14 34  1  0  0  0  0
 15 16  1  0  0  0  0
 16 17  1  0  0  0  0
 16 35  1  0  0  0  0
 16 36  1  0  0  0  0
 17 37  1  0  0  0  0
 17 38  1  0  0  0  0
 18 19  1  0  0  0  0
M  CHG  1   5  -1
M  END
> <s_m_source_file>
AV-unprocessed.smi

> <i_m_source_file_index>
2044

> <i_lp_mmshare_version>
43012

> <i_f3d_flags>
0

> <s_epik_input>
W0NIM11jMVtjSF1jKG5vMSlbTkhdQyg9TylbTkhdW0NIMl1bQ0BIXShbQ0gzXSlOMltDSDJdW0NIMl1PW0NIMl1bQ0gyXTI=

> <s_epik_cmdline>
J2VwaWtfcHl0aG9uJywgJy1waCcsICc3LjAnLCAnLXRuJywgJzgnLCAnLW1hJywgJzIwMCcsICctbWV0YWxfYmluZGluZycsICctaW1hZScsICc8aW5maWxlLm1hZT4nLCAnLW9tYWUnLCAnPG91dGZpbGUubWFlPic=

> <r_epik_Ionization_Penalty>
6.88367

> <r_epik_Ionization_Penalty_Charging>
6.57198

> <r_epik_Ionization_Penalty_Neutral>
0.311681

> <r_epik_State_Penalty>
6.77619

> <r_epik_Charging_Adjusted_Penalty>
13.3482

> <i_epik_Tot_Q>
-1

> <i_epik_Tot_abs_Q>
1

> <r_epik_Metal_State_Penalty>
2.70533

> <b_epik_Metal_Only>
1

> <s_lp_Force_Field>
OPLS_2005

> <r_lp_Energy>
21.654

> <b_lp_Chiralities_Consistent>
1

> <s_lp_Variant>
AV-unprocessed.smi:2044-6

> <Gold.Version>
5.8.1

> <Gold.Id.Protein>
6NUR|6NUR_protein|mol2

> <Gold.PLP.Fitness>
40.5516

> <Gold.PLP.PLP>
-35.5855

> <Gold.PLP.part.hbond>
-3.0000

> <Gold.PLP.part.metal>
0.0000

> <Gold.PLP.part.buried>
-0.5088

> <Gold.PLP.part.nonpolar>
-32.4025

> <Gold.PLP.part.repulsive>
1.5334

> <Gold.PLP.ligand.clash>
0.0000

> <Gold.PLP.ligand.torsion>
1.8162

> <Gold.PLP.Chemscore.Hbond>
2.8500

> <Gold.PLP.Chemscore.CHOScore>
0.0000

> <Gold.PLP.Chemscore.Metal>
0.0000

> <Gold.Chemscore.Hbonds>
donor molecule, donor type, donor heavy atom, donor atom, acceptor molecule, acceptor atom, score
      P1  H  7989  7998       L1    12  0.44
      P1  H  7997  8009       L1     5  1.86

> <Gold.PLP.Chemscore.Internal.Correction>
0.0485

> <Gold.Rescore>
     Score         DG    S(hbond)    S(metal)    S(lipo)     H(rot)  DE(clash)    DE(int)     intcor
     10.60     -13.30       0.81        0.00      77.70       1.55       1.22       1.48       ----

> <Gold.Chemscore.Fitness>
10.5989

> <Gold.Chemscore.DG>
-13.3021

> <Gold.Chemscore.ZeroCoef>
-5.4800

> <Gold.Chemscore.Hbond>
0.8060

> <Gold.Chemscore.Metal>
0.0000

> <Gold.Chemscore.Lipo>
77.6958

> <Gold.Chemscore.Internal_Hbond>
0.0000

> <Gold.Chemscore.DEClash>
1.2240

> <Gold.Chemscore.DEInternal>
1.4792

> <Gold.Chemscore.Rot>
1.5470

> <Gold.Chemscore.Internal.Correction>
   9.000000E+99

> <Gold.Chemscore.Hbonds>
donor molecule, donor type, donor heavy atom, donor atom, acceptor molecule, acceptor atom, score
      P1  H  7997  8009       L1     5  0.31

> <Gold.Chemscore.Hbond.Weighted>
-2.6920

> <Gold.Chemscore.Metal.Weighted>
-0.0000

> <Gold.Chemscore.Lipo.Weighted>
-9.0904

> <Gold.Chemscore.Internal_Hbond.Weighted>
0.0000

> <Gold.Chemscore.DEClash.Weighted>
1.2240

> <Gold.Chemscore.DEInternal.Weighted>
1.4792

> <Gold.Chemscore.Rot.Weighted>
3.9603

> <Gold.Chemscore.Internal.Correction.Weighted>
   9.000000E+99

> <Gold.Protein.RotatedTorsions>
[ 6907 6896 6895 6894 ] final  107.09 input  -60.11 | X-H torsion
[ 7974 7965 7964 7962 ] final  149.30 input  175.53 | X-H torsion
[ 8008 7997 7996 7995 ] final  128.90 input   59.86 | X-H torsion
[ 10167 10162 10161 10158 ] final -112.36 input  -65.29 | X-H torsion
[ 10718 10713 10712 10709 ] final   98.00 input   66.30 | X-H torsion
[ 10763 10752 10751 10750 ] final   78.46 input  -60.55 | X-H torsion
[ 11005 11000 10999 10996 ] final  108.24 input  -57.11 | X-H torsion

> <Gold.Protein.ActiveResidues>
 VAL166  LYS551  ARG553  GLY616  TRP617  ASP618  TYR619  PRO620  LYS621  CYS622 
 ASP623  PHE694  ASN695  SER759  ASP760  ASP761  ALA762  ILE779  LEU786  VAL792 
 PHE793  MET794  SER795  GLU796  ALA797  LYS798  CYS799  TRP800  GLU811  SER814 

> <Gold.Protein.RotatedAtoms>
  152.5168  133.9285  159.7568 H   0  0  0  0  0  0  0  0  0  0  0  0  # atno 6907 bound_to 6896
  150.9641  133.6405  159.2756 H   0  0  0  0  0  0  0  0  0  0  0  0  # atno 6908 bound_to 6896
  151.3640  135.0915  159.9496 H   0  0  0  0  0  0  0  0  0  0  0  0  # atno 6909 bound_to 6896
  144.8448  139.6263  143.6000 H   0  0  0  0  0  0  0  0  0  0  0  0  # atno 7974 bound_to 7965
  156.2925  140.2633  156.2511 H   0  0  0  0  0  0  0  0  0  0  0  0  # atno 8008 bound_to 7997
  154.9881  140.0389  157.2326 H   0  0  0  0  0  0  0  0  0  0  0  0  # atno 8009 bound_to 7997
  154.7711  140.2778  155.6142 H   0  0  0  0  0  0  0  0  0  0  0  0  # atno 8010 bound_to 7997
  140.1236  143.4422  152.1674 H   0  0  0  0  0  0  0  0  0  0  0  0  # atno 10167 bound_to 10162
  157.6903  131.0627  150.4730 H   0  0  0  0  0  0  0  0  0  0  0  0  # atno 10718 bound_to 10713
  153.0876  135.4876  154.8627 H   0  0  0  0  0  0  0  0  0  0  0  0  # atno 10763 bound_to 10752
  154.7229  135.3043  154.9020 H   0  0  0  0  0  0  0  0  0  0  0  0  # atno 10764 bound_to 10752
  153.9679  135.6804  153.4799 H   0  0  0  0  0  0  0  0  0  0  0  0  # atno 10765 bound_to 10752
  139.8841  134.9424  156.5942 H   0  0  0  0  0  0  0  0  0  0  0  0  # atno 11005 bound_to 11000
  146.2735  139.6694  142.9279 LP  0  0  0  0  0  0  0  0  0  0  0  0  # atno 17320 bound_to 7965
  145.4619  141.0433  143.2747 LP  0  0  0  0  0  0  0  0  0  0  0  0  # atno 17321 bound_to 7965
  139.5556  144.7370  151.4305 LP  0  0  0  0  0  0  0  0  0  0  0  0  # atno 17342 bound_to 10162
  140.6858  143.7978  150.7184 LP  0  0  0  0  0  0  0  0  0  0  0  0  # atno 17343 bound_to 10162
  156.5066  130.4129  149.6324 LP  0  0  0  0  0  0  0  0  0  0  0  0  # atno 17370 bound_to 10713
  156.3279  130.7315  151.2239 LP  0  0  0  0  0  0  0  0  0  0  0  0  # atno 17371 bound_to 10713
  140.7932  133.8565  155.8664 LP  0  0  0  0  0  0  0  0  0  0  0  0  # atno 17394 bound_to 11000
  140.9658  134.1596  157.4617 LP  0  0  0  0  0  0  0  0  0  0  0  0  # atno 17395 bound_to 11000

$$$$
