AV-unprocessed.smi:26|AV-procd|sdf|184|dock3
  -GOLD-   2262015443D 1   1.00000     0.00000
 Structure written by MMmdl.
 58 61  0  0  0  0  0  0  0  0  1 V2000
  146.6083  138.0578  156.6961 C   0  0  0  0  0  0  0  0  0  0  0  0
  147.9859  137.4769  156.7419 C   0  0  0  0  0  0  0  0  0  0  0  0
  149.1699  138.1074  156.9816 C   0  0  0  0  0  0  0  0  0  0  0  0
  150.2097  137.1412  156.9490 C   0  0  0  0  0  0  0  0  0  0  0  0
  151.6677  137.3398  157.1316 C   0  0  0  0  0  0  0  0  0  0  0  0
  152.3180  136.7483  157.9928 O   0  0  0  0  0  0  0  0  0  0  0  0
  152.3633  138.3560  156.2111 C   0  0  0  0  0  0  0  0  0  0  0  0
  151.8584  139.7057  156.4372 N   0  0  0  0  0  0  0  0  0  0  0  0
  150.9714  140.2616  155.4796 C   0  0  0  0  0  0  0  0  0  0  0  0
  150.6449  139.6597  154.4560 O   0  0  0  0  0  0  0  0  0  0  0  0
  150.4819  141.5962  155.8068 C   0  0  0  0  0  0  0  0  0  0  0  0
  149.6428  142.2212  154.9638 F   0  0  0  0  0  0  0  0  0  0  0  0
  150.8573  142.2182  156.9445 C   0  0  0  0  0  0  0  0  0  0  0  0
  151.7161  141.6484  157.8683 N   0  0  0  0  0  0  0  0  0  0  0  0
  152.1101  142.3859  159.1282 C   0  0  1  0  0  0  0  0  0  0  0  0
  153.0773  143.5269  158.7941 C   0  0  0  0  0  0  0  0  0  0  0  0
  152.1417  144.7125  158.6959 C   0  0  0  0  0  0  0  0  0  0  0  0
  151.1006  144.3695  159.7545 C   0  0  0  0  0  0  0  0  0  0  0  0
  150.9664  142.9523  159.7005 O   0  0  0  0  0  0  0  0  0  0  0  0
  152.2554  140.3662  157.6266 C   0  0  0  0  0  0  0  0  0  0  0  0
  153.0403  139.8507  158.4260 O   0  0  0  0  0  0  0  0  0  0  0  0
  149.6345  135.9232  156.6725 C   0  0  0  0  0  0  0  0  0  0  0  0
  150.2716  134.5673  156.5447 C   0  0  0  0  0  0  0  0  0  0  0  0
  148.2550  136.1264  156.5287 N   0  0  0  0  0  0  0  0  0  0  0  0
  147.2268  135.1127  156.2476 C   0  0  2  0  0  0  0  0  0  0  0  0
  147.2356  134.0056  157.3201 C   0  0  0  0  0  0  0  0  0  0  0  0
  147.2472  134.6389  154.7918 C   0  0  0  0  0  0  0  0  0  0  0  0
  146.2024  135.0401  153.9294 C   0  0  0  0  0  0  0  0  0  0  0  0
  146.1821  134.6237  152.5845 C   0  0  0  0  0  0  0  0  0  0  0  0
  147.2064  133.7962  152.0883 C   0  0  0  0  0  0  0  0  0  0  0  0
  148.2487  133.3851  152.9395 C   0  0  0  0  0  0  0  0  0  0  0  0
  148.2692  133.8010  154.2850 C   0  0  0  0  0  0  0  0  0  0  0  0
  146.6218  139.1104  156.9804 H   0  0  0  0  0  0  0  0  0  0  0  0
  145.9405  137.5391  157.3841 H   0  0  0  0  0  0  0  0  0  0  0  0
  146.1897  137.9914  155.6918 H   0  0  0  0  0  0  0  0  0  0  0  0
  149.2752  139.1659  157.1685 H   0  0  0  0  0  0  0  0  0  0  0  0
  153.4406  138.3728  156.3850 H   0  0  0  0  0  0  0  0  0  0  0  0
  152.2478  138.1062  155.1564 H   0  0  0  0  0  0  0  0  0  0  0  0
  150.4642  143.2069  157.1283 H   0  0  0  0  0  0  0  0  0  0  0  0
  152.5239  141.6401  159.8082 H   0  0  0  0  0  0  0  0  0  0  0  0
  153.7672  143.6530  159.6292 H   0  0  0  0  0  0  0  0  0  0  0  0
  153.6513  143.3350  157.8865 H   0  0  0  0  0  0  0  0  0  0  0  0
  152.6367  145.6664  158.8786 H   0  0  0  0  0  0  0  0  0  0  0  0
  151.6804  144.7499  157.7084 H   0  0  0  0  0  0  0  0  0  0  0  0
  151.4608  144.6502  160.7451 H   0  0  0  0  0  0  0  0  0  0  0  0
  150.1466  144.8689  159.5851 H   0  0  0  0  0  0  0  0  0  0  0  0
  150.5063  134.3474  155.5033 H   0  0  0  0  0  0  0  0  0  0  0  0
  149.6316  133.7748  156.9243 H   0  0  0  0  0  0  0  0  0  0  0  0
  151.1970  134.5046  157.1157 H   0  0  0  0  0  0  0  0  0  0  0  0
  146.2532  135.5929  156.3335 H   0  0  0  0  0  0  0  0  0  0  0  0
  146.3945  133.3243  157.1890 H   0  0  0  0  0  0  0  0  0  0  0  0
  147.1474  134.4362  158.3179 H   0  0  0  0  0  0  0  0  0  0  0  0
  148.1505  133.4151  157.3051 H   0  0  0  0  0  0  0  0  0  0  0  0
  145.4113  135.6755  154.3003 H   0  0  0  0  0  0  0  0  0  0  0  0
  145.3805  134.9397  151.9335 H   0  0  0  0  0  0  0  0  0  0  0  0
  147.1921  133.4769  151.0567 H   0  0  0  0  0  0  0  0  0  0  0  0
  149.0352  132.7495  152.5600 H   0  0  0  0  0  0  0  0  0  0  0  0
  149.0833  133.4714  154.9120 H   0  0  0  0  0  0  0  0  0  0  0  0
  1  2  1  0  0  0  0
  1 33  1  0  0  0  0
  1 34  1  0  0  0  0
  1 35  1  0  0  0  0
  2 24  1  0  0  0  0
  2  3  2  0  0  0  0
  3  4  1  0  0  0  0
  3 36  1  0  0  0  0
  4  5  1  0  0  0  0
  4 22  2  0  0  0  0
  5  6  2  0  0  0  0
  5  7  1  0  0  0  0
  7  8  1  0  0  0  0
  7 37  1  0  0  0  0
  7 38  1  0  0  0  0
  8 20  1  0  0  0  0
  8  9  1  0  0  0  0
  9 10  2  0  0  0  0
  9 11  1  0  0  0  0
 11 12  1  0  0  0  0
 11 13  2  0  0  0  0
 13 14  1  0  0  0  0
 13 39  1  0  0  0  0
 14 15  1  0  0  0  0
 14 20  1  0  0  0  0
 15 19  1  0  0  0  0
 15 16  1  0  0  0  0
 15 40  1  0  0  0  0
 16 17  1  0  0  0  0
 16 41  1  0  0  0  0
 16 42  1  0  0  0  0
 17 18  1  0  0  0  0
 17 43  1  0  0  0  0
 17 44  1  0  0  0  0
 18 19  1  0  0  0  0
 18 45  1  0  0  0  0
 18 46  1  0  0  0  0
 20 21  2  0  0  0  0
 22 23  1  0  0  0  0
 22 24  1  0  0  0  0
 23 47  1  0  0  0  0
 23 48  1  0  0  0  0
 23 49  1  0  0  0  0
 24 25  1  0  0  0  0
 25 26  1  0  0  0  0
 25 27  1  0  0  0  0
 25 50  1  0  0  0  0
 26 51  1  0  0  0  0
 26 52  1  0  0  0  0
 26 53  1  0  0  0  0
 27 32  1  0  0  0  0
 27 28  2  0  0  0  0
 28 29  1  0  0  0  0
 28 54  1  0  0  0  0
 29 30  2  0  0  0  0
 29 55  1  0  0  0  0
 30 31  1  0  0  0  0
 30 56  1  0  0  0  0
 31 32  2  0  0  0  0
 31 57  1  0  0  0  0
 32 58  1  0  0  0  0
M  END
> <s_m_source_file>
AV-unprocessed.smi

> <i_m_source_file_index>
26

> <i_lp_mmshare_version>
43012

> <i_f3d_flags>
0

> <s_epik_input>
W2NIXTFbY0hdW2NIXVtjSF1bY0hdYzFbQ0BASF0oW0NIM10pbjJjKFtDSDNdKWMoW2NIXWMyW0NIM10pQyg9TylbQ0gyXW4zYyg9TyljKEYpW2NIXW4oYzM9TylbQ0BASF00W0NIMl1bQ0gyXVtDSDJdTzQ=

> <s_epik_cmdline>
J2VwaWtfcHl0aG9uJywgJy1waCcsICc3LjAnLCAnLXRuJywgJzgnLCAnLW1hJywgJzIwMCcsICctbWV0YWxfYmluZGluZycsICctaW1hZScsICc8aW5maWxlLm1hZT4nLCAnLW9tYWUnLCAnPG91dGZpbGUubWFlPic=

> <r_lp_tautomer_probability>
1

> <r_epik_Ionization_Penalty>
5.02402e-09

> <r_epik_Ionization_Penalty_Charging>
5.01743e-09

> <r_epik_Ionization_Penalty_Neutral>
6.58831e-12

> <r_epik_State_Penalty>
-0

> <r_epik_Charging_Adjusted_Penalty>
5.01743e-09

> <i_epik_Tot_Q>
0

> <i_epik_Tot_abs_Q>
0

> <r_epik_Metal_State_Penalty>
-0

> <b_epik_Metal_Only>
0

> <s_epik_Chemistry_Notes>
This compound contains an acetal/aminal-like group ( X-CH(R)-Y where X, Y are N, S, or O) that may be acid/base labile, releasing an aldehyde.

> <s_lp_Force_Field>
OPLS_2005

> <r_lp_Energy>
51.2992

> <b_lp_Chiralities_Consistent>
1

> <s_lp_Variant>
AV-unprocessed.smi:26-2

> <Gold.Version>
5.8.1

> <Gold.Id.Protein>
6NUR|6NUR_protein|mol2

> <Gold.PLP.Fitness>
48.9776

> <Gold.PLP.PLP>
-46.9772

> <Gold.PLP.part.hbond>
-3.0000

> <Gold.PLP.part.metal>
0.0000

> <Gold.PLP.part.buried>
-1.3162

> <Gold.PLP.part.nonpolar>
-41.5920

> <Gold.PLP.part.repulsive>
0.1511

> <Gold.PLP.ligand.clash>
0.0000

> <Gold.PLP.ligand.torsion>
1.8966

> <Gold.PLP.Chemscore.Hbond>
0.8280

> <Gold.PLP.Chemscore.CHOScore>
0.9991

> <Gold.PLP.Chemscore.Metal>
0.0000

> <Gold.Chemscore.Hbonds>
donor molecule, donor type, donor heavy atom, donor atom, acceptor molecule, acceptor atom, score
      P1  H  7989  7998       L1    10  0.45
      P1  H  7997  8008       L1    21  0.33
      L1  C    13    39       P1  8028  0.77

> <Gold.PLP.Chemscore.Internal.Correction>
0.3124

> <Gold.Rescore>
     Score         DG    S(hbond)    S(metal)    S(lipo)     H(rot)  DE(clash)    DE(int)     intcor
     11.15     -14.62       0.57        0.00     101.89       1.84       0.53       2.94       ----

> <Gold.Chemscore.Fitness>
11.1539

> <Gold.Chemscore.DG>
-14.6211

> <Gold.Chemscore.ZeroCoef>
-5.4800

> <Gold.Chemscore.Hbond>
0.5749

> <Gold.Chemscore.Metal>
0.0000

> <Gold.Chemscore.Lipo>
101.8873

> <Gold.Chemscore.Internal_Hbond>
0.0000

> <Gold.Chemscore.DEClash>
0.5301

> <Gold.Chemscore.DEInternal>
2.9371

> <Gold.Chemscore.Rot>
1.8359

> <Gold.Chemscore.Internal.Correction>
   9.000000E+99

> <Gold.Chemscore.Hbonds>
donor molecule, donor type, donor heavy atom, donor atom, acceptor molecule, acceptor atom, score
      P1  H  7989  7998       L1    10  0.02
      P1  H  7997  8008       L1    21  0.08

> <Gold.Chemscore.Hbond.Weighted>
-1.9203

> <Gold.Chemscore.Metal.Weighted>
-0.0000

> <Gold.Chemscore.Lipo.Weighted>
-11.9208

> <Gold.Chemscore.Internal_Hbond.Weighted>
0.0000

> <Gold.Chemscore.DEClash.Weighted>
0.5301

> <Gold.Chemscore.DEInternal.Weighted>
2.9371

> <Gold.Chemscore.Rot.Weighted>
4.7000

> <Gold.Chemscore.Internal.Correction.Weighted>
   9.000000E+99

> <Gold.Protein.RotatedTorsions>
[ 6907 6896 6895 6894 ] final  -22.11 input  -60.11 | X-H torsion
[ 7974 7965 7964 7962 ] final -127.85 input  175.53 | X-H torsion
[ 8008 7997 7996 7995 ] final -113.79 input   59.86 | X-H torsion
[ 10167 10162 10161 10158 ] final  -74.00 input  -65.29 | X-H torsion
[ 10718 10713 10712 10709 ] final  -50.36 input   66.30 | X-H torsion
[ 10763 10752 10751 10750 ] final  161.38 input  -60.55 | X-H torsion
[ 11005 11000 10999 10996 ] final   58.43 input  -57.11 | X-H torsion

> <Gold.Protein.ActiveResidues>
 VAL166  LYS551  ARG553  GLY616  TRP617  ASP618  TYR619  PRO620  LYS621  CYS622 
 ASP623  PHE694  ASN695  SER759  ASP760  ASP761  ALA762  ILE779  LEU786  VAL792 
 PHE793  MET794  SER795  GLU796  ALA797  LYS798  CYS799  TRP800  GLU811  SER814 

> <Gold.Protein.RotatedAtoms>
  151.2234  135.0527  159.8958 H   0  0  0  0  0  0  0  0  0  0  0  0  # atno 6907 bound_to 6896
  152.5413  134.0615  159.8164 H   0  0  0  0  0  0  0  0  0  0  0  0  # atno 6908 bound_to 6896
  151.0785  133.5361  159.2654 H   0  0  0  0  0  0  0  0  0  0  0  0  # atno 6909 bound_to 6896
  144.9729  140.7564  143.4659 H   0  0  0  0  0  0  0  0  0  0  0  0  # atno 7974 bound_to 7965
  155.0262  140.0393  157.2456 H   0  0  0  0  0  0  0  0  0  0  0  0  # atno 8008 bound_to 7997
  154.7335  140.2735  155.6411 H   0  0  0  0  0  0  0  0  0  0  0  0  # atno 8009 bound_to 7997
  156.2847  140.2679  156.2042 H   0  0  0  0  0  0  0  0  0  0  0  0  # atno 8010 bound_to 7997
  140.5064  143.2352  151.7667 H   0  0  0  0  0  0  0  0  0  0  0  0  # atno 10167 bound_to 10162
  156.1808  130.4150  149.9510 H   0  0  0  0  0  0  0  0  0  0  0  0  # atno 10718 bound_to 10713
  154.2620  135.2768  155.2774 H   0  0  0  0  0  0  0  0  0  0  0  0  # atno 10763 bound_to 10752
  154.5375  135.5712  153.6814 H   0  0  0  0  0  0  0  0  0  0  0  0  # atno 10764 bound_to 10752
  152.9960  135.6243  154.2771 H   0  0  0  0  0  0  0  0  0  0  0  0  # atno 10765 bound_to 10752
  140.0378  134.5918  155.9421 H   0  0  0  0  0  0  0  0  0  0  0  0  # atno 11005 bound_to 11000
  145.2532  139.2023  143.4931 LP  0  0  0  0  0  0  0  0  0  0  0  0  # atno 17320 bound_to 7965
  146.3387  140.2449  142.8597 LP  0  0  0  0  0  0  0  0  0  0  0  0  # atno 17321 bound_to 7965
  139.4884  144.4452  151.9719 LP  0  0  0  0  0  0  0  0  0  0  0  0  # atno 17342 bound_to 10162
  140.3542  144.3052  150.5944 LP  0  0  0  0  0  0  0  0  0  0  0  0  # atno 17343 bound_to 10162
  156.7281  130.9032  151.3623 LP  0  0  0  0  0  0  0  0  0  0  0  0  # atno 17370 bound_to 10713
  157.6867  130.9192  150.0404 LP  0  0  0  0  0  0  0  0  0  0  0  0  # atno 17371 bound_to 10713
  141.1867  133.6558  156.5249 LP  0  0  0  0  0  0  0  0  0  0  0  0  # atno 17394 bound_to 11000
  140.4119  134.7265  157.4841 LP  0  0  0  0  0  0  0  0  0  0  0  0  # atno 17395 bound_to 11000

$$$$
