AV-unprocessed.smi:691|AV-procd|sdf|3366|dock4
  -GOLD-   22720 0343D 1   1.00000     0.00000
 Structure written by MMmdl.
 37 38  0  0  0  0  0  0  0  0  1 V2000
  147.9187  139.1889  154.4497 C   0  0  0  0  0  0  0  0  0  0  0  0
  148.4419  140.6253  154.6873 C   0  0  1  0  0  0  0  0  0  0  0  0
  149.9922  140.6011  154.7371 C   0  0  0  0  0  0  0  0  0  0  0  0
  150.5399  139.8804  153.6513 O   0  0  0  0  0  0  0  0  0  0  0  0
  147.9435  141.5354  153.5505 C   0  0  0  0  0  0  0  0  0  0  0  0
  146.5089  141.9326  153.9167 C   0  0  0  0  0  0  0  0  0  0  0  0
  146.3867  141.7515  155.4359 C   0  0  0  0  0  0  0  0  0  0  0  0
  147.7542  141.2492  155.9315 C   0  0  2  0  0  0  0  0  0  0  0  0
  148.5074  142.3787  156.4832 N   0  0  0  0  0  0  0  0  0  0  0  0
  149.1833  142.3865  157.6412 C   0  0  0  0  0  0  0  0  0  0  0  0
  149.2441  141.4229  158.4041 O   0  0  0  0  0  0  0  0  0  0  0  0
  149.7913  143.5695  157.8339 N   0  0  0  0  0  0  0  0  0  0  0  0
  150.6186  143.9758  158.9157 C   0  0  0  0  0  0  0  0  0  0  0  0
  151.4640  143.1058  159.6462 C   0  0  0  0  0  0  0  0  0  0  0  0
  152.2247  143.6311  160.7086 C   0  0  0  0  0  0  0  0  0  0  0  0
  152.1075  145.0023  161.0068 C   0  0  0  0  0  0  0  0  0  0  0  0
  151.2948  145.8399  160.3290 N   0  0  0  0  0  0  0  0  0  0  0  0
  150.5685  145.3291  159.3122 C   0  0  0  0  0  0  0  0  0  0  0  0
  148.3474  138.7571  153.5450 H   0  0  0  0  0  0  0  0  0  0  0  0
  146.8346  139.1583  154.3406 H   0  0  0  0  0  0  0  0  0  0  0  0
  148.1747  138.5291  155.2789 H   0  0  0  0  0  0  0  0  0  0  0  0
  150.3862  141.6175  154.7094 H   0  0  0  0  0  0  0  0  0  0  0  0
  150.3570  140.1589  155.6646 H   0  0  0  0  0  0  0  0  0  0  0  0
  150.0943  140.1416  152.8599 H   0  0  0  0  0  0  0  0  0  0  0  0
  148.5542  142.4382  153.5045 H   0  0  0  0  0  0  0  0  0  0  0  0
  148.0040  141.0619  152.5699 H   0  0  0  0  0  0  0  0  0  0  0  0
  146.2923  142.9567  153.6109 H   0  0  0  0  0  0  0  0  0  0  0  0
  145.7945  141.2842  153.4080 H   0  0  0  0  0  0  0  0  0  0  0  0
  146.0738  142.6718  155.9317 H   0  0  0  0  0  0  0  0  0  0  0  0
  145.6200  141.0056  155.6496 H   0  0  0  0  0  0  0  0  0  0  0  0
  147.6103  140.4892  156.7014 H   0  0  0  0  0  0  0  0  0  0  0  0
  148.5217  143.2204  155.9264 H   0  0  0  0  0  0  0  0  0  0  0  0
  149.7055  144.2381  157.0823 H   0  0  0  0  0  0  0  0  0  0  0  0
  151.5350  142.0522  159.4254 H   0  0  0  0  0  0  0  0  0  0  0  0
  152.8803  142.9953  161.2852 H   0  0  0  0  0  0  0  0  0  0  0  0
  152.6768  145.4366  161.8152 H   0  0  0  0  0  0  0  0  0  0  0  0
  149.9286  146.0283  158.7937 H   0  0  0  0  0  0  0  0  0  0  0  0
  1  2  1  0  0  0  0
  1 19  1  0  0  0  0
  1 20  1  0  0  0  0
  1 21  1  0  0  0  0
  2  8  1  0  0  0  0
  2  3  1  0  0  0  0
  2  5  1  0  0  0  0
  3  4  1  0  0  0  0
  3 22  1  0  0  0  0
  3 23  1  0  0  0  0
  4 24  1  0  0  0  0
  5  6  1  0  0  0  0
  5 25  1  0  0  0  0
  5 26  1  0  0  0  0
  6  7  1  0  0  0  0
  6 27  1  0  0  0  0
  6 28  1  0  0  0  0
  7  8  1  0  0  0  0
  7 29  1  0  0  0  0
  7 30  1  0  0  0  0
  8  9  1  0  0  0  0
  8 31  1  0  0  0  0
  9 10  1  0  0  0  0
  9 32  1  0  0  0  0
 10 11  2  0  0  0  0
 10 12  1  0  0  0  0
 12 13  1  0  0  0  0
 12 33  1  0  0  0  0
 13 18  1  0  0  0  0
 13 14  2  0  0  0  0
 14 15  1  0  0  0  0
 14 34  1  0  0  0  0
 15 16  2  0  0  0  0
 15 35  1  0  0  0  0
 16 17  1  0  0  0  0
 16 36  1  0  0  0  0
 17 18  2  0  0  0  0
 18 37  1  0  0  0  0
M  END
> <s_m_source_file>
AV-unprocessed.smi

> <i_m_source_file_index>
691

> <i_lp_mmshare_version>
43012

> <i_f3d_flags>
0

> <s_epik_input>
W09IXVtDSDJdW0NAXTEoW0NIM10pW0NIMl1bQ0gyXVtDSDJdW0NASF0xW05IXUMoPU8pW05IXWMyW2NIXVtjSF1bY0hdbltjSF0y

> <s_epik_cmdline>
J2VwaWtfcHl0aG9uJywgJy1waCcsICc3LjAnLCAnLXRuJywgJzgnLCAnLW1hJywgJzIwMCcsICctbWV0YWxfYmluZGluZycsICctaW1hZScsICc8aW5maWxlLm1hZT4nLCAnLW9tYWUnLCAnPG91dGZpbGUubWFlPic=

> <r_epik_Ionization_Penalty>
0.00496828

> <r_epik_Ionization_Penalty_Charging>
0

> <r_epik_Ionization_Penalty_Neutral>
0.00496828

> <r_epik_State_Penalty>
0.00358054

> <r_epik_Charging_Adjusted_Penalty>
0.00358054

> <i_epik_Tot_Q>
0

> <i_epik_Tot_abs_Q>
0

> <r_epik_Metal_State_Penalty>
-0

> <b_epik_Metal_Only>
0

> <s_lp_Force_Field>
OPLS_2005

> <r_lp_Energy>
29.635

> <b_lp_Chiralities_Consistent>
1

> <s_lp_Variant>
AV-unprocessed.smi:691-3

> <Gold.Version>
5.8.1

> <Gold.Id.Protein>
6NUR|6NUR_protein|mol2

> <Gold.PLP.Fitness>
42.8386

> <Gold.PLP.PLP>
-30.5615

> <Gold.PLP.part.hbond>
-5.9700

> <Gold.PLP.part.metal>
0.0000

> <Gold.PLP.part.buried>
-3.8129

> <Gold.PLP.part.nonpolar>
-22.1082

> <Gold.PLP.part.repulsive>
0.2950

> <Gold.PLP.ligand.clash>
0.0000

> <Gold.PLP.ligand.torsion>
0.4336

> <Gold.PLP.Chemscore.Hbond>
3.3762

> <Gold.PLP.Chemscore.CHOScore>
1.0000

> <Gold.PLP.Chemscore.Metal>
0.0000

> <Gold.Chemscore.Hbonds>
donor molecule, donor type, donor heavy atom, donor atom, acceptor molecule, acceptor atom, score
      L1  H     4    24       P1  7957  1.00
      L1  H     9    32       P1  8028  1.00
      L1  H    12    33       P1  8028  0.98
      P1  H  7989  7998       L1     4  0.32
      L1  C    18    37       P1  8029  1.00

> <Gold.PLP.Chemscore.Internal.Correction>
0.0157

> <Gold.Rescore>
     Score         DG    S(hbond)    S(metal)    S(lipo)     H(rot)  DE(clash)    DE(int)     intcor
     19.92     -20.63       2.84        0.00      87.42       1.78       0.24       0.47       ----

> <Gold.Chemscore.Fitness>
19.9160

> <Gold.Chemscore.DG>
-20.6307

> <Gold.Chemscore.ZeroCoef>
-5.4800

> <Gold.Chemscore.Hbond>
2.8411

> <Gold.Chemscore.Metal>
0.0000

> <Gold.Chemscore.Lipo>
87.4200

> <Gold.Chemscore.Internal_Hbond>
0.0000

> <Gold.Chemscore.DEClash>
0.2430

> <Gold.Chemscore.DEInternal>
0.4717

> <Gold.Chemscore.Rot>
1.7838

> <Gold.Chemscore.Internal.Correction>
   9.000000E+99

> <Gold.Chemscore.Hbonds>
donor molecule, donor type, donor heavy atom, donor atom, acceptor molecule, acceptor atom, score
      L1  H     4    24       P1  7957  0.99
      L1  H     9    32       P1  8028  0.91
      L1  H    12    33       P1  8028  0.52

> <Gold.Chemscore.Hbond.Weighted>
-9.4892

> <Gold.Chemscore.Metal.Weighted>
-0.0000

> <Gold.Chemscore.Lipo.Weighted>
-10.2281

> <Gold.Chemscore.Internal_Hbond.Weighted>
0.0000

> <Gold.Chemscore.DEClash.Weighted>
0.2430

> <Gold.Chemscore.DEInternal.Weighted>
0.4717

> <Gold.Chemscore.Rot.Weighted>
4.5666

> <Gold.Chemscore.Internal.Correction.Weighted>
   9.000000E+99

> <Gold.Protein.RotatedTorsions>
[ 6907 6896 6895 6894 ] final    9.64 input  -60.11 | X-H torsion
[ 7974 7965 7964 7962 ] final  -81.11 input  175.53 | X-H torsion
[ 8008 7997 7996 7995 ] final -116.22 input   59.86 | X-H torsion
[ 10167 10162 10161 10158 ] final  124.67 input  -65.29 | X-H torsion
[ 10718 10713 10712 10709 ] final   31.28 input   66.30 | X-H torsion
[ 10763 10752 10751 10750 ] final   35.36 input  -60.55 | X-H torsion
[ 11005 11000 10999 10996 ] final    3.90 input  -57.11 | X-H torsion

> <Gold.Protein.ActiveResidues>
 VAL166  LYS551  ARG553  GLY616  TRP617  ASP618  TYR619  PRO620  LYS621  CYS622 
 ASP623  PHE694  ASN695  SER759  ASP760  ASP761  ALA762  ILE779  LEU786  VAL792 
 PHE793  MET794  SER795  GLU796  ALA797  LYS798  CYS799  TRP800  GLU811  SER814 

> <Gold.Protein.RotatedAtoms>
  151.7254  135.0886  160.0290 H   0  0  0  0  0  0  0  0  0  0  0  0  # atno 6907 bound_to 6896
  152.3575  133.6251  159.5998 H   0  0  0  0  0  0  0  0  0  0  0  0  # atno 6908 bound_to 6896
  150.7581  133.9393  159.3492 H   0  0  0  0  0  0  0  0  0  0  0  0  # atno 6909 bound_to 6896
  145.5509  140.9496  143.1499 H   0  0  0  0  0  0  0  0  0  0  0  0  # atno 7974 bound_to 7965
  155.0644  140.0393  157.2587 H   0  0  0  0  0  0  0  0  0  0  0  0  # atno 8008 bound_to 7997
  154.7033  140.2678  155.6674 H   0  0  0  0  0  0  0  0  0  0  0  0  # atno 8009 bound_to 7997
  156.2767  140.2736  156.1651 H   0  0  0  0  0  0  0  0  0  0  0  0  # atno 8010 bound_to 7997
  139.5729  144.6948  151.3731 H   0  0  0  0  0  0  0  0  0  0  0  0  # atno 10167 bound_to 10162
  157.2704  130.7205  149.6501 H   0  0  0  0  0  0  0  0  0  0  0  0  # atno 10718 bound_to 10713
  153.0123  135.6335  154.1814 H   0  0  0  0  0  0  0  0  0  0  0  0  # atno 10763 bound_to 10752
  154.1555  135.2826  155.3125 H   0  0  0  0  0  0  0  0  0  0  0  0  # atno 10764 bound_to 10752
  154.6021  135.5584  153.7445 H   0  0  0  0  0  0  0  0  0  0  0  0  # atno 10765 bound_to 10752
  140.5879  133.9951  155.8076 H   0  0  0  0  0  0  0  0  0  0  0  0  # atno 11005 bound_to 11000
  144.7530  139.7146  143.7265 LP  0  0  0  0  0  0  0  0  0  0  0  0  # atno 17320 bound_to 7965
  146.1917  139.5161  142.9801 LP  0  0  0  0  0  0  0  0  0  0  0  0  # atno 17321 bound_to 7965
  140.7012  143.7626  150.7407 LP  0  0  0  0  0  0  0  0  0  0  0  0  # atno 17342 bound_to 10162
  140.1137  143.4675  152.2355 LP  0  0  0  0  0  0  0  0  0  0  0  0  # atno 17343 bound_to 10162
  155.9663  130.4369  150.5154 LP  0  0  0  0  0  0  0  0  0  0  0  0  # atno 17370 bound_to 10713
  157.3077  131.0657  151.2023 LP  0  0  0  0  0  0  0  0  0  0  0  0  # atno 17371 bound_to 10713
  141.0954  133.9852  157.3169 LP  0  0  0  0  0  0  0  0  0  0  0  0  # atno 17394 bound_to 11000
  139.9287  135.0201  156.8325 LP  0  0  0  0  0  0  0  0  0  0  0  0  # atno 17395 bound_to 11000

$$$$
