AV-unprocessed.smi:2442|AV-procd|sdf|9630|dock5
  -GOLD-   2272013263D 1   1.00000     0.00000
 Structure written by MMmdl.
 47 48  0  0  0  0  0  0  0  0  2 V2000
  147.7964  140.6130  154.3275 C   0  0  0  0  0  0  0  0  0  0  0  0
  148.1832  139.2952  154.6833 O   0  0  0  0  0  0  0  0  0  0  0  0
  149.5828  139.0520  154.5974 C   0  0  1  0  0  0  0  0  0  0  0  0
  150.3481  140.1455  155.3729 C   0  0  0  0  0  0  0  0  0  0  0  0
  151.8543  139.8519  155.4317 C   0  0  0  0  0  0  0  0  0  0  0  0
  152.1225  138.4687  156.0405 C   0  0  0  0  0  0  0  0  0  0  0  0
  151.3781  137.3721  155.2650 C   0  0  0  0  0  0  0  0  0  0  0  0
  149.8646  137.6518  155.1902 C   0  0  2  0  0  0  0  0  0  0  0  0
  149.2364  136.6207  154.3667 N   0  0  0  0  0  0  0  0  0  0  0  0
  148.6420  135.5113  154.8274 C   0  0  0  0  0  0  0  0  0  0  0  0
  148.5675  135.2061  156.0178 O   0  0  0  0  0  0  0  0  0  0  0  0
  148.1277  134.7743  153.8331 N   0  0  0  0  0  0  0  0  0  0  0  0
  147.4133  133.5164  154.0140 C   0  0  0  0  0  0  0  0  0  0  0  0
  147.3188  132.7217  152.7000 C   0  0  0  0  0  0  0  0  0  0  0  0
  146.0141  132.9846  151.9642 C   0  0  0  0  0  0  0  0  0  0  0  0
  145.6242  134.3209  151.7211 C   0  0  0  0  0  0  0  0  0  0  0  0
  144.4166  134.5807  151.0438 C   0  0  0  0  0  0  0  0  0  0  0  0
  143.6440  133.5532  150.6330 N   0  3  0  0  0  0  0  0  0  0  0  0
  143.9741  132.2608  150.8439 C   0  0  0  0  0  0  0  0  0  0  0  0
  145.1703  131.9330  151.5195 C   0  0  0  0  0  0  0  0  0  0  0  0
  145.5186  130.4731  151.7482 C   0  0  0  0  0  0  0  0  0  0  0  0
  146.7133  140.7051  154.4040 H   0  0  0  0  0  0  0  0  0  0  0  0
  148.0778  140.8404  153.2986 H   0  0  0  0  0  0  0  0  0  0  0  0
  148.2401  141.3598  154.9856 H   0  0  0  0  0  0  0  0  0  0  0  0
  149.9023  139.0552  153.5528 H   0  0  0  0  0  0  0  0  0  0  0  0
  150.1919  141.1218  154.9147 H   0  0  0  0  0  0  0  0  0  0  0  0
  149.9539  140.2155  156.3875 H   0  0  0  0  0  0  0  0  0  0  0  0
  152.2769  139.8997  154.4274 H   0  0  0  0  0  0  0  0  0  0  0  0
  152.3600  140.6198  156.0179 H   0  0  0  0  0  0  0  0  0  0  0  0
  153.1933  138.2634  156.0392 H   0  0  0  0  0  0  0  0  0  0  0  0
  151.8065  138.4589  157.0843 H   0  0  0  0  0  0  0  0  0  0  0  0
  151.7914  137.3028  154.2577 H   0  0  0  0  0  0  0  0  0  0  0  0
  151.5556  136.4055  155.7380 H   0  0  0  0  0  0  0  0  0  0  0  0
  149.4674  137.6131  156.2066 H   0  0  0  0  0  0  0  0  0  0  0  0
  149.2407  136.7759  153.3694 H   0  0  0  0  0  0  0  0  0  0  0  0
  148.2385  135.1067  152.8862 H   0  0  0  0  0  0  0  0  0  0  0  0
  147.9415  132.9331  154.7686 H   0  0  0  0  0  0  0  0  0  0  0  0
  146.4174  133.7126  154.4155 H   0  0  0  0  0  0  0  0  0  0  0  0
  148.1435  132.9942  152.0398 H   0  0  0  0  0  0  0  0  0  0  0  0
  147.4391  131.6555  152.8923 H   0  0  0  0  0  0  0  0  0  0  0  0
  146.2447  135.1413  152.0524 H   0  0  0  0  0  0  0  0  0  0  0  0
  144.0491  135.5714  150.8198 H   0  0  0  0  0  0  0  0  0  0  0  0
  143.2717  131.5311  150.4674 H   0  0  0  0  0  0  0  0  0  0  0  0
  144.6886  129.8221  151.4715 H   0  0  0  0  0  0  0  0  0  0  0  0
  145.7489  130.2888  152.7975 H   0  0  0  0  0  0  0  0  0  0  0  0
  146.3829  130.1897  151.1471 H   0  0  0  0  0  0  0  0  0  0  0  0
  142.7737  133.7617  150.1428 H   0  0  0  0  0  0  0  0  0  0  0  0
  1  2  1  0  0  0  0
  1 22  1  0  0  0  0
  1 23  1  0  0  0  0
  1 24  1  0  0  0  0
  2  3  1  0  0  0  0
  3  8  1  0  0  0  0
  3  4  1  0  0  0  0
  3 25  1  0  0  0  0
  4  5  1  0  0  0  0
  4 26  1  0  0  0  0
  4 27  1  0  0  0  0
  5  6  1  0  0  0  0
  5 28  1  0  0  0  0
  5 29  1  0  0  0  0
  6  7  1  0  0  0  0
  6 30  1  0  0  0  0
  6 31  1  0  0  0  0
  7  8  1  0  0  0  0
  7 32  1  0  0  0  0
  7 33  1  0  0  0  0
  8  9  1  0  0  0  0
  8 34  1  0  0  0  0
  9 10  1  0  0  0  0
  9 35  1  0  0  0  0
 10 11  2  0  0  0  0
 10 12  1  0  0  0  0
 12 13  1  0  0  0  0
 12 36  1  0  0  0  0
 13 14  1  0  0  0  0
 13 37  1  0  0  0  0
 13 38  1  0  0  0  0
 14 15  1  0  0  0  0
 14 39  1  0  0  0  0
 14 40  1  0  0  0  0
 15 20  1  0  0  0  0
 15 16  2  0  0  0  0
 16 17  1  0  0  0  0
 16 41  1  0  0  0  0
 17 18  2  0  0  0  0
 17 42  1  0  0  0  0
 18 19  1  0  0  0  0
 18 47  1  0  0  0  0
 19 20  2  0  0  0  0
 19 43  1  0  0  0  0
 20 21  1  0  0  0  0
 21 44  1  0  0  0  0
 21 45  1  0  0  0  0
 21 46  1  0  0  0  0
M  CHG  1  18   1
M  END
> <s_m_source_file>
AV-unprocessed.smi

> <i_m_source_file_index>
2442

> <i_lp_mmshare_version>
43012

> <i_f3d_flags>
0

> <s_epik_input>
W0NIM11PW0NAQEhdMVtDSDJdW0NIMl1bQ0gyXVtDSDJdW0NASF0xW05IXUMoPU8pW05IXVtDSDJdW0NIMl1jMltjSF1bY0hdbltjSF1jMltDSDNd

> <s_epik_cmdline>
J2VwaWtfcHl0aG9uJywgJy1waCcsICc3LjAnLCAnLXRuJywgJzgnLCAnLW1hJywgJzIwMCcsICctbWV0YWxfYmluZGluZycsICctaW1hZScsICc8aW5maWxlLm1hZT4nLCAnLW9tYWUnLCAnPG91dGZpbGUubWFlPic=

> <r_epik_Ionization_Penalty>
1.07145

> <r_epik_Ionization_Penalty_Charging>
1.0714

> <r_epik_Ionization_Penalty_Neutral>
4.9109e-05

> <r_epik_State_Penalty>
1.12601

> <r_epik_Charging_Adjusted_Penalty>
2.19741

> <i_epik_Tot_Q>
1

> <i_epik_Tot_abs_Q>
1

> <r_epik_Metal_State_Penalty>
1.2173

> <b_epik_Metal_Only>
0

> <s_lp_Force_Field>
OPLS_2005

> <r_lp_Energy>
14.6153

> <b_lp_Chiralities_Consistent>
1

> <s_lp_Variant>
AV-unprocessed.smi:2442-8

> <Gold.Version>
5.8.1

> <Gold.Id.Protein>
6NUR|6NUR_protein|mol2

> <Gold.PLP.Fitness>
46.0857

> <Gold.PLP.PLP>
-35.7998

> <Gold.PLP.part.hbond>
-2.8239

> <Gold.PLP.part.metal>
0.0000

> <Gold.PLP.part.buried>
-3.2909

> <Gold.PLP.part.nonpolar>
-30.1815

> <Gold.PLP.part.repulsive>
0.1741

> <Gold.PLP.ligand.clash>
0.0000

> <Gold.PLP.ligand.torsion>
0.7726

> <Gold.PLP.Chemscore.Hbond>
3.9280

> <Gold.PLP.Chemscore.CHOScore>
0.0000

> <Gold.PLP.Chemscore.Metal>
0.0000

> <Gold.Chemscore.Hbonds>
donor molecule, donor type, donor heavy atom, donor atom, acceptor molecule, acceptor atom, score
      L1  H     9    35       P1  7948  1.00
      L1  H    12    36       P1  7948  0.96
      L1  H    18    47       P1 10186  2.00

> <Gold.PLP.Chemscore.Internal.Correction>
0.0472

> <Gold.Rescore>
     Score         DG    S(hbond)    S(metal)    S(lipo)     H(rot)  DE(clash)    DE(int)     intcor
     19.88     -20.55       2.76        0.00      87.75       1.72       0.00       0.66       ----

> <Gold.Chemscore.Fitness>
19.8820

> <Gold.Chemscore.DG>
-20.5454

> <Gold.Chemscore.ZeroCoef>
-5.4800

> <Gold.Chemscore.Hbond>
2.7584

> <Gold.Chemscore.Metal>
0.0000

> <Gold.Chemscore.Lipo>
87.7493

> <Gold.Chemscore.Internal_Hbond>
0.0000

> <Gold.Chemscore.DEClash>
0.0000

> <Gold.Chemscore.DEInternal>
0.6634

> <Gold.Chemscore.Rot>
1.7244

> <Gold.Chemscore.Internal.Correction>
   9.000000E+99

> <Gold.Chemscore.Hbonds>
donor molecule, donor type, donor heavy atom, donor atom, acceptor molecule, acceptor atom, score
      L1  H     9    35       P1  7948  0.90
      L1  H    12    36       P1  7948  0.83
      L1  H    18    47       P1 10186  0.98

> <Gold.Chemscore.Hbond.Weighted>
-9.2132

> <Gold.Chemscore.Metal.Weighted>
-0.0000

> <Gold.Chemscore.Lipo.Weighted>
-10.2667

> <Gold.Chemscore.Internal_Hbond.Weighted>
0.0000

> <Gold.Chemscore.DEClash.Weighted>
0.0000

> <Gold.Chemscore.DEInternal.Weighted>
0.6634

> <Gold.Chemscore.Rot.Weighted>
4.4145

> <Gold.Chemscore.Internal.Correction.Weighted>
   9.000000E+99

> <Gold.Protein.RotatedTorsions>
[ 6907 6896 6895 6894 ] final  -23.55 input  -60.11 | X-H torsion
[ 7974 7965 7964 7962 ] final   74.83 input  175.53 | X-H torsion
[ 8008 7997 7996 7995 ] final  129.71 input   59.86 | X-H torsion
[ 10167 10162 10161 10158 ] final    4.73 input  -65.29 | X-H torsion
[ 10718 10713 10712 10709 ] final  -60.64 input   66.30 | X-H torsion
[ 10763 10752 10751 10750 ] final   64.30 input  -60.55 | X-H torsion
[ 11005 11000 10999 10996 ] final -102.03 input  -57.11 | X-H torsion

> <Gold.Protein.ActiveResidues>
 VAL166  LYS551  ARG553  GLY616  TRP617  ASP618  TYR619  PRO620  LYS621  CYS622 
 ASP623  PHE694  ASN695  SER759  ASP760  ASP761  ALA762  ILE779  LEU786  VAL792 
 PHE793  MET794  SER795  GLU796  ALA797  LYS798  CYS799  TRP800  GLU811  SER814 

> <Gold.Protein.RotatedAtoms>
  151.2023  135.0447  159.8877 H   0  0  0  0  0  0  0  0  0  0  0  0  # atno 6907 bound_to 6896
  152.5431  134.0836  159.8256 H   0  0  0  0  0  0  0  0  0  0  0  0  # atno 6908 bound_to 6896
  151.0978  133.5219  159.2643 H   0  0  0  0  0  0  0  0  0  0  0  0  # atno 6909 bound_to 6896
  145.7233  139.2656  143.1583 H   0  0  0  0  0  0  0  0  0  0  0  0  # atno 7974 bound_to 7965
  156.2941  140.2614  156.2643 H   0  0  0  0  0  0  0  0  0  0  0  0  # atno 8008 bound_to 7997
  154.9757  140.0390  157.2273 H   0  0  0  0  0  0  0  0  0  0  0  0  # atno 8009 bound_to 7997
  154.7818  140.2796  155.6063 H   0  0  0  0  0  0  0  0  0  0  0  0  # atno 8010 bound_to 7997
  140.6519  143.7523  150.7589 H   0  0  0  0  0  0  0  0  0  0  0  0  # atno 10167 bound_to 10162
  156.0976  130.4190  150.0883 H   0  0  0  0  0  0  0  0  0  0  0  0  # atno 10718 bound_to 10713
  153.0050  135.5398  154.6489 H   0  0  0  0  0  0  0  0  0  0  0  0  # atno 10763 bound_to 10752
  154.5726  135.2843  155.0815 H   0  0  0  0  0  0  0  0  0  0  0  0  # atno 10764 bound_to 10752
  154.1975  135.6489  153.5130 H   0  0  0  0  0  0  0  0  0  0  0  0  # atno 10765 bound_to 10752
  141.1206  133.8526  157.1308 H   0  0  0  0  0  0  0  0  0  0  0  0  # atno 11005 bound_to 11000
  146.0606  140.7975  142.9737 LP  0  0  0  0  0  0  0  0  0  0  0  0  # atno 17320 bound_to 7965
  144.6911  140.3190  143.7235 LP  0  0  0  0  0  0  0  0  0  0  0  0  # atno 17321 bound_to 7965
  140.1175  143.4642  152.2333 LP  0  0  0  0  0  0  0  0  0  0  0  0  # atno 17342 bound_to 10162
  139.5736  144.7475  151.3825 LP  0  0  0  0  0  0  0  0  0  0  0  0  # atno 17343 bound_to 10162
  156.8878  130.9578  151.3592 LP  0  0  0  0  0  0  0  0  0  0  0  0  # atno 17370 bound_to 10713
  157.6140  130.8604  149.8998 LP  0  0  0  0  0  0  0  0  0  0  0  0  # atno 17371 bound_to 10713
  140.0161  134.9967  157.0495 LP  0  0  0  0  0  0  0  0  0  0  0  0  # atno 17394 bound_to 11000
  140.4518  134.1574  155.7182 LP  0  0  0  0  0  0  0  0  0  0  0  0  # atno 17395 bound_to 11000

$$$$
