AV-unprocessed.smi:3096|AV-procd|sdf|11797|dock10
  -GOLD-   2272017173D 1   1.00000     0.00000
 Structure written by MMmdl.
 33 33  0  0  0  0  0  0  0  0  2 V2000
  148.2691  136.1526  155.2864 C   0  0  0  0  0  0  0  0  0  0  0  0
  148.0122  137.4562  155.0814 C   0  0  0  0  0  0  0  0  0  0  0  0
  148.9182  138.4729  154.4016 C   0  0  0  0  0  0  0  0  0  0  0  0
  148.3026  139.8092  154.3355 N   0  0  0  0  0  0  0  0  0  0  0  0
  148.8242  140.9486  154.8323 C   0  0  0  0  0  0  0  0  0  0  0  0
  148.1598  142.1118  154.6889 N   0  3  0  0  0  0  0  0  0  0  0  0
  146.8678  142.2795  154.0130 C   0  0  0  0  0  0  0  0  0  0  0  0
  150.0072  140.9247  155.4754 N   0  0  0  0  0  0  0  0  0  0  0  0
  150.6930  142.0745  156.0801 C   0  0  0  0  0  0  0  0  0  0  0  0
  151.1536  141.7648  157.5127 C   0  0  0  0  0  0  0  0  0  0  0  0
  151.6178  142.9519  158.2073 N   0  0  0  0  0  0  0  0  0  0  0  0
  151.5681  144.2644  157.7873 C   0  0  0  0  0  0  0  0  0  0  0  0
  152.1155  145.0286  158.7777 C   0  0  0  0  0  0  0  0  0  0  0  0
  152.4767  144.0812  159.7758 C   0  0  0  0  0  0  0  0  0  0  0  0
  152.1772  142.8389  159.4320 N   0  0  0  0  0  0  0  0  0  0  0  0
  149.1918  135.6889  154.9696 H   0  0  0  0  0  0  0  0  0  0  0  0
  147.5446  135.5240  155.7830 H   0  0  0  0  0  0  0  0  0  0  0  0
  147.0661  137.8476  155.4262 H   0  0  0  0  0  0  0  0  0  0  0  0
  149.8529  138.5407  154.9583 H   0  0  0  0  0  0  0  0  0  0  0  0
  149.1636  138.1301  153.3962 H   0  0  0  0  0  0  0  0  0  0  0  0
  147.4112  139.8635  153.8639 H   0  0  0  0  0  0  0  0  0  0  0  0
  146.5616  143.3252  154.0414 H   0  0  0  0  0  0  0  0  0  0  0  0
  146.1004  141.6811  154.5042 H   0  0  0  0  0  0  0  0  0  0  0  0
  146.9400  141.9687  152.9706 H   0  0  0  0  0  0  0  0  0  0  0  0
  150.4646  140.0305  155.5880 H   0  0  0  0  0  0  0  0  0  0  0  0
  151.5613  142.3161  155.4667 H   0  0  0  0  0  0  0  0  0  0  0  0
  150.0353  142.9442  156.0640 H   0  0  0  0  0  0  0  0  0  0  0  0
  150.3454  141.3106  158.0882 H   0  0  0  0  0  0  0  0  0  0  0  0
  151.9663  141.0379  157.4923 H   0  0  0  0  0  0  0  0  0  0  0  0
  151.1515  144.5424  156.8304 H   0  0  0  0  0  0  0  0  0  0  0  0
  152.2390  146.1013  158.7878 H   0  0  0  0  0  0  0  0  0  0  0  0
  152.9436  144.2583  160.7335 H   0  0  0  0  0  0  0  0  0  0  0  0
  148.5745  142.9478  155.0755 H   0  0  0  0  0  0  0  0  0  0  0  0
  1  2  2  0  0  0  0
  1 16  1  0  0  0  0
  1 17  1  0  0  0  0
  2  3  1  0  0  0  0
  2 18  1  0  0  0  0
  3  4  1  0  0  0  0
  3 19  1  0  0  0  0
  3 20  1  0  0  0  0
  4  5  1  0  0  0  0
  4 21  1  0  0  0  0
  5  6  2  0  0  0  0
  5  8  1  0  0  0  0
  6  7  1  0  0  0  0
  6 33  1  0  0  0  0
  7 22  1  0  0  0  0
  7 23  1  0  0  0  0
  7 24  1  0  0  0  0
  8  9  1  0  0  0  0
  8 25  1  0  0  0  0
  9 10  1  0  0  0  0
  9 26  1  0  0  0  0
  9 27  1  0  0  0  0
 10 11  1  0  0  0  0
 10 28  1  0  0  0  0
 10 29  1  0  0  0  0
 11 15  1  0  0  0  0
 11 12  1  0  0  0  0
 12 13  2  0  0  0  0
 12 30  1  0  0  0  0
 13 14  1  0  0  0  0
 13 31  1  0  0  0  0
 14 15  2  0  0  0  0
 14 32  1  0  0  0  0
M  CHG  1   6   1
M  END
> <s_m_source_file>
AV-unprocessed.smi

> <i_m_source_file_index>
3096

> <i_lp_mmshare_version>
43012

> <i_f3d_flags>
0

> <s_epik_input>
W0NIMl09W0NIXVtDSDJdW05IXS9DKD1OL1tDSDNdKVtOSF1bQ0gyXVtDSDJdbjFbY0hdW2NIXVtjSF1uMQ==

> <s_epik_cmdline>
J2VwaWtfcHl0aG9uJywgJy1waCcsICc3LjAnLCAnLXRuJywgJzgnLCAnLW1hJywgJzIwMCcsICctbWV0YWxfYmluZGluZycsICctaW1hZScsICc8aW5maWxlLm1hZT4nLCAnLW9tYWUnLCAnPG91dGZpbGUubWFlPic=

> <r_lp_tautomer_probability>
1

> <r_epik_Ionization_Penalty>
5.14269e-05

> <r_epik_Ionization_Penalty_Charging>
1.55211e-07

> <r_epik_Ionization_Penalty_Neutral>
5.12717e-05

> <r_epik_State_Penalty>
-0

> <r_epik_Charging_Adjusted_Penalty>
1.55211e-07

> <i_epik_Tot_Q>
1

> <i_epik_Tot_abs_Q>
1

> <r_epik_Metal_State_Penalty>
-0

> <b_epik_Metal_Only>
0

> <s_epik_Chemistry_Notes>
This compound has an imine and may undergo hydrolysis.

> <s_lp_Force_Field>
OPLS_2005

> <r_lp_Energy>
6.72739

> <b_lp_Chiralities_Consistent>
1

> <s_lp_Variant>
AV-unprocessed.smi:3096-2

> <Gold.Version>
5.8.1

> <Gold.Id.Protein>
6NUR|6NUR_protein|mol2

> <Gold.PLP.Fitness>
40.1581

> <Gold.PLP.PLP>
-31.4140

> <Gold.PLP.part.hbond>
-1.0000

> <Gold.PLP.part.metal>
0.0000

> <Gold.PLP.part.buried>
-5.9279

> <Gold.PLP.part.nonpolar>
-25.8028

> <Gold.PLP.part.repulsive>
0.3617

> <Gold.PLP.ligand.clash>
0.0000

> <Gold.PLP.ligand.torsion>
0.1300

> <Gold.PLP.Chemscore.Hbond>
2.0000

> <Gold.PLP.Chemscore.CHOScore>
1.0000

> <Gold.PLP.Chemscore.Metal>
0.0000

> <Gold.Chemscore.Hbonds>
donor molecule, donor type, donor heavy atom, donor atom, acceptor molecule, acceptor atom, score
      L1  H     6    33       P1  8028  2.00
      L1  C    12    30       P1  8028  1.00

> <Gold.PLP.Chemscore.Internal.Correction>
0.0040

> <Gold.Rescore>
     Score         DG    S(hbond)    S(metal)    S(lipo)     H(rot)  DE(clash)    DE(int)     intcor
     12.18     -12.35       1.00        0.00      71.60       1.89       0.02       0.16       ----

> <Gold.Chemscore.Fitness>
12.1791

> <Gold.Chemscore.DG>
-12.3535

> <Gold.Chemscore.ZeroCoef>
-5.4800

> <Gold.Chemscore.Hbond>
0.9977

> <Gold.Chemscore.Metal>
0.0000

> <Gold.Chemscore.Lipo>
71.5993

> <Gold.Chemscore.Internal_Hbond>
0.0000

> <Gold.Chemscore.DEClash>
0.0169

> <Gold.Chemscore.DEInternal>
0.1575

> <Gold.Chemscore.Rot>
1.8891

> <Gold.Chemscore.Internal.Correction>
   9.000000E+99

> <Gold.Chemscore.Hbonds>
donor molecule, donor type, donor heavy atom, donor atom, acceptor molecule, acceptor atom, score
      L1  H     6    33       P1  8028  1.00

> <Gold.Chemscore.Hbond.Weighted>
-3.3325

> <Gold.Chemscore.Metal.Weighted>
-0.0000

> <Gold.Chemscore.Lipo.Weighted>
-8.3771

> <Gold.Chemscore.Internal_Hbond.Weighted>
0.0000

> <Gold.Chemscore.DEClash.Weighted>
0.0169

> <Gold.Chemscore.DEInternal.Weighted>
0.1575

> <Gold.Chemscore.Rot.Weighted>
4.8361

> <Gold.Chemscore.Internal.Correction.Weighted>
   9.000000E+99

> <Gold.Protein.RotatedTorsions>
[ 6907 6896 6895 6894 ] final   12.38 input  -60.11 | X-H torsion
[ 7974 7965 7964 7962 ] final  -92.49 input  175.53 | X-H torsion
[ 8008 7997 7996 7995 ] final -160.13 input   59.86 | X-H torsion
[ 10167 10162 10161 10158 ] final   44.75 input  -65.29 | X-H torsion
[ 10718 10713 10712 10709 ] final  110.80 input   66.30 | X-H torsion
[ 10763 10752 10751 10750 ] final  -38.35 input  -60.55 | X-H torsion
[ 11005 11000 10999 10996 ] final -110.01 input  -57.11 | X-H torsion

> <Gold.Protein.ActiveResidues>
 VAL166  LYS551  ARG553  GLY616  TRP617  ASP618  TYR619  PRO620  LYS621  CYS622 
 ASP623  PHE694  ASN695  SER759  ASP760  ASP761  ALA762  ILE779  LEU786  VAL792 
 PHE793  MET794  SER795  GLU796  ALA797  LYS798  CYS799  TRP800  GLU811  SER814 

> <Gold.Protein.RotatedAtoms>
  151.7694  135.0790  160.0357 H   0  0  0  0  0  0  0  0  0  0  0  0  # atno 6907 bound_to 6896
  152.3299  133.5942  159.5811 H   0  0  0  0  0  0  0  0  0  0  0  0  # atno 6908 bound_to 6896
  150.7416  133.9800  159.3615 H   0  0  0  0  0  0  0  0  0  0  0  0  # atno 6909 bound_to 6896
  145.3991  140.9535  143.2297 H   0  0  0  0  0  0  0  0  0  0  0  0  # atno 7974 bound_to 7965
  155.7729  140.0854  157.2098 H   0  0  0  0  0  0  0  0  0  0  0  0  # atno 8008 bound_to 7997
  154.3995  140.1522  156.3020 H   0  0  0  0  0  0  0  0  0  0  0  0  # atno 8009 bound_to 7997
  155.8729  140.3424  155.5836 H   0  0  0  0  0  0  0  0  0  0  0  0  # atno 8010 bound_to 7997
  140.3311  144.2587  150.6168 H   0  0  0  0  0  0  0  0  0  0  0  0  # atno 10167 bound_to 10162
  157.6476  131.0939  150.6655 H   0  0  0  0  0  0  0  0  0  0  0  0  # atno 10718 bound_to 10713
  153.9113  135.6792  153.4751 H   0  0  0  0  0  0  0  0  0  0  0  0  # atno 10763 bound_to 10752
  153.1077  135.4798  154.8977 H   0  0  0  0  0  0  0  0  0  0  0  0  # atno 10764 bound_to 10752
  154.7525  135.3188  154.8486 H   0  0  0  0  0  0  0  0  0  0  0  0  # atno 10765 bound_to 10752
  141.0816  133.9211  157.2277 H   0  0  0  0  0  0  0  0  0  0  0  0  # atno 11005 bound_to 11000
  144.8386  139.5508  143.6910 LP  0  0  0  0  0  0  0  0  0  0  0  0  # atno 17320 bound_to 7965
  146.2760  139.6755  142.9262 LP  0  0  0  0  0  0  0  0  0  0  0  0  # atno 17321 bound_to 7965
  140.5396  143.2226  151.8107 LP  0  0  0  0  0  0  0  0  0  0  0  0  # atno 17342 bound_to 10162
  139.4856  144.4617  151.9532 LP  0  0  0  0  0  0  0  0  0  0  0  0  # atno 17343 bound_to 10162
  156.6970  130.4612  149.5583 LP  0  0  0  0  0  0  0  0  0  0  0  0  # atno 17370 bound_to 10713
  156.1822  130.6506  151.0964 LP  0  0  0  0  0  0  0  0  0  0  0  0  # atno 17371 bound_to 10713
  139.9630  135.0149  156.9312 LP  0  0  0  0  0  0  0  0  0  0  0  0  # atno 17394 bound_to 11000
  140.5456  134.0677  155.7354 LP  0  0  0  0  0  0  0  0  0  0  0  0  # atno 17395 bound_to 11000

$$$$
