AV-unprocessed.smi:1165|AV-procd|sdf|4930|dock1
  -GOLD-   22720 3513D 1   1.00000     0.00000
 Structure written by MMmdl.
 41 42  0  0  0  0  0  0  0  0  1 V2000
  155.3292  134.0036  161.1444 C   0  0  0  0  0  0  0  0  0  0  0  0
  155.9492  135.3902  161.3972 C   0  0  1  0  0  0  0  0  0  0  0  0
  155.6369  136.4107  160.2862 C   0  0  0  0  0  0  0  0  0  0  0  0
  154.2543  136.9081  160.3856 N   0  0  0  0  0  0  0  0  0  0  0  0
  153.6129  137.7930  159.0409 S   0  0  0  0  0  0  0  0  0  0  0  0
  154.7254  138.1845  158.1617 O   0  0  0  0  0  0  0  0  0  0  0  0
  152.4490  137.0601  158.5206 O   0  0  0  0  0  0  0  0  0  0  0  0
  153.0519  139.2038  159.8614 N   0  0  0  0  0  0  0  0  0  0  0  0
  153.7165  140.4860  159.6336 C   0  0  0  0  0  0  0  0  0  0  0  0
  153.4432  141.4403  160.8022 C   0  0  0  0  0  0  0  0  0  0  0  0
  152.8300  142.7458  160.3369 C   0  0  0  0  0  0  0  0  0  0  0  0
  152.3236  143.6812  161.2627 C   0  0  0  0  0  0  0  0  0  0  0  0
  151.7596  144.8770  160.7778 C   0  0  0  0  0  0  0  0  0  0  0  0
  151.7254  145.0861  159.3845 C   0  0  0  0  0  0  0  0  0  0  0  0
  152.2060  144.1965  158.4890 N   0  0  0  0  0  0  0  0  0  0  0  0
  152.7453  143.0528  158.9622 C   0  0  0  0  0  0  0  0  0  0  0  0
  153.9141  137.3906  161.7308 C   0  0  0  0  0  0  0  0  0  0  0  0
  154.2367  136.3240  162.7919 C   0  0  2  0  0  0  0  0  0  0  0  0
  154.0230  136.8500  164.2157 C   0  0  0  0  0  0  0  0  0  0  0  0
  155.5952  135.9155  162.6744 O   0  0  0  0  0  0  0  0  0  0  0  0
  155.7171  133.5693  160.2227 H   0  0  0  0  0  0  0  0  0  0  0  0
  154.2449  134.0446  161.0479 H   0  0  0  0  0  0  0  0  0  0  0  0
  155.5678  133.3177  161.9575 H   0  0  0  0  0  0  0  0  0  0  0  0
  157.0300  135.2492  161.4201 H   0  0  0  0  0  0  0  0  0  0  0  0
  156.3154  137.2612  160.3669 H   0  0  0  0  0  0  0  0  0  0  0  0
  155.8126  135.9639  159.3082 H   0  0  0  0  0  0  0  0  0  0  0  0
  152.8108  139.0271  160.8363 H   0  0  0  0  0  0  0  0  0  0  0  0
  154.7887  140.3211  159.5288 H   0  0  0  0  0  0  0  0  0  0  0  0
  153.3605  140.9142  158.6961 H   0  0  0  0  0  0  0  0  0  0  0  0
  152.7769  140.9672  161.5248 H   0  0  0  0  0  0  0  0  0  0  0  0
  154.3708  141.6586  161.3334 H   0  0  0  0  0  0  0  0  0  0  0  0
  152.3643  143.4875  162.3245 H   0  0  0  0  0  0  0  0  0  0  0  0
  151.3621  145.6166  161.4571 H   0  0  0  0  0  0  0  0  0  0  0  0
  151.3002  145.9918  158.9784 H   0  0  0  0  0  0  0  0  0  0  0  0
  153.1183  142.3605  158.2214 H   0  0  0  0  0  0  0  0  0  0  0  0
  154.4707  138.3082  161.9259 H   0  0  0  0  0  0  0  0  0  0  0  0
  152.8547  137.6435  161.7747 H   0  0  0  0  0  0  0  0  0  0  0  0
  153.5808  135.4645  162.6528 H   0  0  0  0  0  0  0  0  0  0  0  0
  152.9895  137.1624  164.3677 H   0  0  0  0  0  0  0  0  0  0  0  0
  154.6660  137.7061  164.4219 H   0  0  0  0  0  0  0  0  0  0  0  0
  154.2481  136.0795  164.9534 H   0  0  0  0  0  0  0  0  0  0  0  0
  1  2  1  0  0  0  0
  1 21  1  0  0  0  0
  1 22  1  0  0  0  0
  1 23  1  0  0  0  0
  2 20  1  0  0  0  0
  2  3  1  0  0  0  0
  2 24  1  0  0  0  0
  3  4  1  0  0  0  0
  3 25  1  0  0  0  0
  3 26  1  0  0  0  0
  4  5  1  0  0  0  0
  4 17  1  0  0  0  0
  5  6  2  0  0  0  0
  5  7  2  0  0  0  0
  5  8  1  0  0  0  0
  8  9  1  0  0  0  0
  8 27  1  0  0  0  0
  9 10  1  0  0  0  0
  9 28  1  0  0  0  0
  9 29  1  0  0  0  0
 10 11  1  0  0  0  0
 10 30  1  0  0  0  0
 10 31  1  0  0  0  0
 11 16  1  0  0  0  0
 11 12  2  0  0  0  0
 12 13  1  0  0  0  0
 12 32  1  0  0  0  0
 13 14  2  0  0  0  0
 13 33  1  0  0  0  0
 14 15  1  0  0  0  0
 14 34  1  0  0  0  0
 15 16  2  0  0  0  0
 16 35  1  0  0  0  0
 17 18  1  0  0  0  0
 17 36  1  0  0  0  0
 17 37  1  0  0  0  0
 18 19  1  0  0  0  0
 18 20  1  0  0  0  0
 18 38  1  0  0  0  0
 19 39  1  0  0  0  0
 19 40  1  0  0  0  0
 19 41  1  0  0  0  0
M  END
> <s_m_source_file>
AV-unprocessed.smi

> <i_m_source_file_index>
1165

> <i_lp_mmshare_version>
43012

> <i_f3d_flags>
0

> <s_epik_input>
W0NIM11bQ0BASF0xW0NIMl1OKFtDSDJdW0NASF0oTzEpW0NIM10pUyg9TykoPU8pW05IXVtDSDJdW0NIMl1jMltjSF1bY0hdW2NIXW5bY0hdMg==

> <s_epik_cmdline>
J2VwaWtfcHl0aG9uJywgJy1waCcsICc3LjAnLCAnLXRuJywgJzgnLCAnLW1hJywgJzIwMCcsICctbWV0YWxfYmluZGluZycsICctaW1hZScsICc8aW5maWxlLm1hZT4nLCAnLW9tYWUnLCAnPG91dGZpbGUubWFlPic=

> <r_epik_Ionization_Penalty>
0.0861056

> <r_epik_Ionization_Penalty_Charging>
0

> <r_epik_Ionization_Penalty_Neutral>
0.0861056

> <r_epik_State_Penalty>
0.0574425

> <r_epik_Charging_Adjusted_Penalty>
0.0574425

> <i_epik_Tot_Q>
0

> <i_epik_Tot_abs_Q>
0

> <r_epik_Metal_State_Penalty>
0.317425

> <b_epik_Metal_Only>
0

> <s_lp_Force_Field>
OPLS_2005

> <r_lp_Energy>
8.11282

> <b_lp_Chiralities_Consistent>
1

> <s_lp_Variant>
AV-unprocessed.smi:1165-3

> <Gold.Version>
5.8.1

> <Gold.Id.Protein>
6NUR|6NUR_protein|mol2

> <Gold.PLP.Fitness>
43.4327

> <Gold.PLP.PLP>
-42.1634

> <Gold.PLP.part.hbond>
-1.0000

> <Gold.PLP.part.metal>
0.0000

> <Gold.PLP.part.buried>
-6.0765

> <Gold.PLP.part.nonpolar>
-34.4760

> <Gold.PLP.part.repulsive>
0.0330

> <Gold.PLP.ligand.clash>
0.2448

> <Gold.PLP.ligand.torsion>
1.0239

> <Gold.PLP.Chemscore.Hbond>
0.9199

> <Gold.PLP.Chemscore.CHOScore>
0.0000

> <Gold.PLP.Chemscore.Metal>
0.0000

> <Gold.Chemscore.Hbonds>
donor molecule, donor type, donor heavy atom, donor atom, acceptor molecule, acceptor atom, score
      P1  H  7997  8010       L1     6  0.93

> <Gold.PLP.Chemscore.Internal.Correction>
0.8023

> <Gold.Rescore>
     Score         DG    S(hbond)    S(metal)    S(lipo)     H(rot)  DE(clash)    DE(int)     intcor
     16.68     -17.68       0.91        0.00     115.48       1.71       0.02       0.99       ----

> <Gold.Chemscore.Fitness>
16.6761

> <Gold.Chemscore.DG>
-17.6798

> <Gold.Chemscore.ZeroCoef>
-5.4800

> <Gold.Chemscore.Hbond>
0.9149

> <Gold.Chemscore.Metal>
0.0000

> <Gold.Chemscore.Lipo>
115.4822

> <Gold.Chemscore.Internal_Hbond>
0.0000

> <Gold.Chemscore.DEClash>
0.0178

> <Gold.Chemscore.DEInternal>
0.9859

> <Gold.Chemscore.Rot>
1.7060

> <Gold.Chemscore.Internal.Correction>
   9.000000E+99

> <Gold.Chemscore.Hbonds>
donor molecule, donor type, donor heavy atom, donor atom, acceptor molecule, acceptor atom, score
      P1  H  7997  8010       L1     6  0.85

> <Gold.Chemscore.Hbond.Weighted>
-3.0557

> <Gold.Chemscore.Metal.Weighted>
-0.0000

> <Gold.Chemscore.Lipo.Weighted>
-13.5114

> <Gold.Chemscore.Internal_Hbond.Weighted>
0.0000

> <Gold.Chemscore.DEClash.Weighted>
0.0178

> <Gold.Chemscore.DEInternal.Weighted>
0.9859

> <Gold.Chemscore.Rot.Weighted>
4.3674

> <Gold.Chemscore.Internal.Correction.Weighted>
   9.000000E+99

> <Gold.Protein.RotatedTorsions>
[ 6907 6896 6895 6894 ] final  -83.41 input  -60.11 | X-H torsion
[ 7974 7965 7964 7962 ] final   92.74 input  175.53 | X-H torsion
[ 8008 7997 7996 7995 ] final    5.21 input   59.86 | X-H torsion
[ 10167 10162 10161 10158 ] final -126.00 input  -65.29 | X-H torsion
[ 10718 10713 10712 10709 ] final  103.31 input   66.30 | X-H torsion
[ 10763 10752 10751 10750 ] final  118.83 input  -60.55 | X-H torsion
[ 11005 11000 10999 10996 ] final   12.15 input  -57.11 | X-H torsion

> <Gold.Protein.ActiveResidues>
 VAL166  LYS551  ARG553  GLY616  TRP617  ASP618  TYR619  PRO620  LYS621  CYS622 
 ASP623  PHE694  ASN695  SER759  ASP760  ASP761  ALA762  ILE779  LEU786  VAL792 
 PHE793  MET794  SER795  GLU796  ALA797  LYS798  CYS799  TRP800  GLU811  SER814 

> <Gold.Protein.RotatedAtoms>
  150.6886  134.3515  159.4910 H   0  0  0  0  0  0  0  0  0  0  0  0  # atno 6907 bound_to 6896
  152.1356  134.9099  160.0565 H   0  0  0  0  0  0  0  0  0  0  0  0  # atno 6908 bound_to 6896
  152.0252  133.3880  159.4311 H   0  0  0  0  0  0  0  0  0  0  0  0  # atno 6909 bound_to 6896
  145.4883  139.2277  143.2844 H   0  0  0  0  0  0  0  0  0  0  0  0  # atno 7974 bound_to 7965
  154.7255  140.2720  155.6503 H   0  0  0  0  0  0  0  0  0  0  0  0  # atno 8008 bound_to 7997
  156.2835  140.2726  156.1864 H   0  0  0  0  0  0  0  0  0  0  0  0  # atno 8009 bound_to 7997
  155.0451  140.0371  157.2513 H   0  0  0  0  0  0  0  0  0  0  0  0  # atno 8010 bound_to 7997
  139.9762  143.5792  152.2395 H   0  0  0  0  0  0  0  0  0  0  0  0  # atno 10167 bound_to 10162
  157.6776  131.0775  150.5535 H   0  0  0  0  0  0  0  0  0  0  0  0  # atno 10718 bound_to 10713
  153.5737  135.3497  155.2848 H   0  0  0  0  0  0  0  0  0  0  0  0  # atno 10763 bound_to 10752
  154.8678  135.4165  154.2697 H   0  0  0  0  0  0  0  0  0  0  0  0  # atno 10764 bound_to 10752
  153.3468  135.7053  153.6891 H   0  0  0  0  0  0  0  0  0  0  0  0  # atno 10765 bound_to 10752
  140.4952  134.0801  155.7780 H   0  0  0  0  0  0  0  0  0  0  0  0  # atno 11005 bound_to 11000
  146.2300  140.5675  142.8980 LP  0  0  0  0  0  0  0  0  0  0  0  0  # atno 17320 bound_to 7965
  144.7849  140.5915  143.6581 LP  0  0  0  0  0  0  0  0  0  0  0  0  # atno 17321 bound_to 7965
  139.6444  144.7657  151.2273 LP  0  0  0  0  0  0  0  0  0  0  0  0  # atno 17342 bound_to 10162
  140.7505  143.6263  150.8465 LP  0  0  0  0  0  0  0  0  0  0  0  0  # atno 17343 bound_to 10162
  156.5839  130.4311  149.5965 LP  0  0  0  0  0  0  0  0  0  0  0  0  # atno 17370 bound_to 10713
  156.2638  130.6978  151.1754 LP  0  0  0  0  0  0  0  0  0  0  0  0  # atno 17371 bound_to 10713
  141.1464  133.9048  157.2205 LP  0  0  0  0  0  0  0  0  0  0  0  0  # atno 17394 bound_to 11000
  139.9746  135.0118  156.9598 LP  0  0  0  0  0  0  0  0  0  0  0  0  # atno 17395 bound_to 11000

$$$$
