AV-unprocessed.smi:1533|AV-procd|sdf|6163|dock10
  -GOLD-   22720 6313D 1   1.00000     0.00000
 Structure written by MMmdl.
 37 39  0  0  0  0  0  0  0  0  1 V2000
  152.6731  138.5379  155.0318 C   0  0  0  0  0  0  0  0  0  0  0  0
  153.1650  138.1129  156.3726 C   0  0  0  0  0  0  0  0  0  0  0  0
  153.2335  136.8288  156.7015 N   0  0  0  0  0  0  0  0  0  0  0  0
  153.7409  136.8570  158.0083 O   0  0  0  0  0  0  0  0  0  0  0  0
  153.9079  138.1673  158.3120 C   0  0  0  0  0  0  0  0  0  0  0  0
  154.5070  138.5345  159.6312 C   0  0  0  0  0  0  0  0  0  0  0  0
  153.6664  139.5374  160.4446 C   0  0  0  0  0  0  0  0  0  0  0  0
  153.5030  140.8182  159.7605 N   0  0  0  0  0  0  0  0  0  0  0  0
  152.3711  141.2598  159.1893 C   0  0  0  0  0  0  0  0  0  0  0  0
  151.3229  140.6130  159.1890 O   0  0  0  0  0  0  0  0  0  0  0  0
  152.4612  142.6225  158.4804 C   0  0  1  0  0  0  0  0  0  0  0  0
  151.1235  143.1297  157.8871 C   0  0  0  0  0  0  0  0  0  0  0  0
  150.9960  144.5447  158.4824 C   0  0  1  0  0  0  0  0  0  0  0  0
  150.6408  144.4437  159.9775 C   0  0  0  0  0  0  0  0  0  0  0  0
  151.9688  143.9915  160.6119 C   0  0  0  0  0  0  0  0  0  0  0  0
  152.8882  143.8098  159.3839 C   0  0  2  0  0  0  0  0  0  0  0  0
  152.4513  144.9971  158.5308 C   0  0  0  0  0  0  0  0  0  0  0  0
  153.5706  138.9953  157.3266 N   0  0  0  0  0  0  0  0  0  0  0  0
  151.6595  138.1715  154.8672 H   0  0  0  0  0  0  0  0  0  0  0  0
  153.3191  138.1393  154.2492 H   0  0  0  0  0  0  0  0  0  0  0  0
  152.6638  139.6252  154.9505 H   0  0  0  0  0  0  0  0  0  0  0  0
  154.6481  137.6217  160.2110 H   0  0  0  0  0  0  0  0  0  0  0  0
  155.5030  138.9429  159.4568 H   0  0  0  0  0  0  0  0  0  0  0  0
  152.6950  139.1023  160.6865 H   0  0  0  0  0  0  0  0  0  0  0  0
  154.1568  139.7291  161.3990 H   0  0  0  0  0  0  0  0  0  0  0  0
  154.3188  141.4108  159.7056 H   0  0  0  0  0  0  0  0  0  0  0  0
  153.1807  142.5334  157.6640 H   0  0  0  0  0  0  0  0  0  0  0  0
  151.1906  143.1785  156.7994 H   0  0  0  0  0  0  0  0  0  0  0  0
  150.2593  142.5085  158.1269 H   0  0  0  0  0  0  0  0  0  0  0  0
  150.3281  145.1963  157.9183 H   0  0  0  0  0  0  0  0  0  0  0  0
  150.3360  145.4127  160.3747 H   0  0  0  0  0  0  0  0  0  0  0  0
  149.8312  143.7362  160.1609 H   0  0  0  0  0  0  0  0  0  0  0  0
  152.3598  144.7770  161.2599 H   0  0  0  0  0  0  0  0  0  0  0  0
  151.8652  143.0982  161.2263 H   0  0  0  0  0  0  0  0  0  0  0  0
  153.9503  143.8054  159.6311 H   0  0  0  0  0  0  0  0  0  0  0  0
  152.9285  145.0277  157.5495 H   0  0  0  0  0  0  0  0  0  0  0  0
  152.5888  145.9613  159.0240 H   0  0  0  0  0  0  0  0  0  0  0  0
  1  2  1  0  0  0  0
  1 19  1  0  0  0  0
  1 20  1  0  0  0  0
  1 21  1  0  0  0  0
  2 18  1  0  0  0  0
  2  3  2  0  0  0  0
  3  4  1  0  0  0  0
  4  5  1  0  0  0  0
  5  6  1  0  0  0  0
  5 18  2  0  0  0  0
  6  7  1  0  0  0  0
  6 22  1  0  0  0  0
  6 23  1  0  0  0  0
  7  8  1  0  0  0  0
  7 24  1  0  0  0  0
  7 25  1  0  0  0  0
  8  9  1  0  0  0  0
  8 26  1  0  0  0  0
  9 10  2  0  0  0  0
  9 11  1  0  0  0  0
 11 16  1  0  0  0  0
 11 12  1  0  0  0  0
 11 27  1  0  0  0  0
 12 13  1  0  0  0  0
 12 28  1  0  0  0  0
 12 29  1  0  0  0  0
 13 17  1  0  0  0  0
 13 14  1  0  0  0  0
 13 30  1  0  0  0  0
 14 15  1  0  0  0  0
 14 31  1  0  0  0  0
 14 32  1  0  0  0  0
 15 16  1  0  0  0  0
 15 33  1  0  0  0  0
 15 34  1  0  0  0  0
 16 17  1  0  0  0  0
 16 35  1  0  0  0  0
 17 36  1  0  0  0  0
 17 37  1  0  0  0  0
M  END
> <s_m_source_file>
AV-unprocessed.smi

> <i_m_source_file_index>
1533

> <i_lp_mmshare_version>
43012

> <i_f3d_flags>
0

> <s_epik_input>
W0NIM11jMW5vYyhuMSlbQ0gyXVtDSDJdW05IXUMoPU8pW0NASF0oW0NIMl1bQ0BASF0yMylbQ0BASF0oW0NIMl0zKVtDSDJdW0NIMl0y

> <s_epik_cmdline>
J2VwaWtfcHl0aG9uJywgJy1waCcsICc3LjAnLCAnLXRuJywgJzgnLCAnLW1hJywgJzIwMCcsICctbWV0YWxfYmluZGluZycsICctaW1hZScsICc8aW5maWxlLm1hZT4nLCAnLW9tYWUnLCAnPG91dGZpbGUubWFlPic=

> <r_lp_tautomer_probability>
1

> <r_epik_Ionization_Penalty>
1.90116e-08

> <r_epik_Ionization_Penalty_Charging>
0

> <r_epik_Ionization_Penalty_Neutral>
1.90116e-08

> <r_epik_State_Penalty>
-0

> <r_epik_Charging_Adjusted_Penalty>
0

> <i_epik_Tot_Q>
0

> <i_epik_Tot_abs_Q>
0

> <r_epik_Metal_State_Penalty>
-0

> <b_epik_Metal_Only>
0

> <s_lp_Force_Field>
OPLS_2005

> <r_lp_Energy>
44.7071

> <b_lp_Chiralities_Consistent>
1

> <s_lp_Variant>
AV-unprocessed.smi:1533-2

> <Gold.Version>
5.8.1

> <Gold.Id.Protein>
6NUR|6NUR_protein|mol2

> <Gold.PLP.Fitness>
40.5254

> <Gold.PLP.PLP>
-34.9053

> <Gold.PLP.part.hbond>
-1.9392

> <Gold.PLP.part.metal>
0.0000

> <Gold.PLP.part.buried>
-5.3204

> <Gold.PLP.part.nonpolar>
-27.8922

> <Gold.PLP.part.repulsive>
0.0760

> <Gold.PLP.ligand.clash>
0.0000

> <Gold.PLP.ligand.torsion>
0.1152

> <Gold.PLP.Chemscore.Hbond>
1.9440

> <Gold.PLP.Chemscore.CHOScore>
0.0000

> <Gold.PLP.Chemscore.Metal>
0.0000

> <Gold.Chemscore.Hbonds>
donor molecule, donor type, donor heavy atom, donor atom, acceptor molecule, acceptor atom, score
      P1  H  7997  8008       L1    18  0.83
      P1  H 10752 10765       L1     3  0.91

> <Gold.PLP.Chemscore.Internal.Correction>
0.0187

> <Gold.Rescore>
     Score         DG    S(hbond)    S(metal)    S(lipo)     H(rot)  DE(clash)    DE(int)     intcor
     18.65     -18.79       1.84        0.00     101.53       1.85       0.01       0.13       ----

> <Gold.Chemscore.Fitness>
18.6506

> <Gold.Chemscore.DG>
-18.7878

> <Gold.Chemscore.ZeroCoef>
-5.4800

> <Gold.Chemscore.Hbond>
1.8449

> <Gold.Chemscore.Metal>
0.0000

> <Gold.Chemscore.Lipo>
101.5325

> <Gold.Chemscore.Internal_Hbond>
0.0000

> <Gold.Chemscore.DEClash>
0.0098

> <Gold.Chemscore.DEInternal>
0.1275

> <Gold.Chemscore.Rot>
1.8490

> <Gold.Chemscore.Internal.Correction>
   9.000000E+99

> <Gold.Chemscore.Hbonds>
donor molecule, donor type, donor heavy atom, donor atom, acceptor molecule, acceptor atom, score
      P1  H  7997  8008       L1    18  0.69
      P1  H 10752 10765       L1     3  0.85

> <Gold.Chemscore.Hbond.Weighted>
-6.1619

> <Gold.Chemscore.Metal.Weighted>
-0.0000

> <Gold.Chemscore.Lipo.Weighted>
-11.8793

> <Gold.Chemscore.Internal_Hbond.Weighted>
0.0000

> <Gold.Chemscore.DEClash.Weighted>
0.0098

> <Gold.Chemscore.DEInternal.Weighted>
0.1275

> <Gold.Chemscore.Rot.Weighted>
4.7334

> <Gold.Chemscore.Internal.Correction.Weighted>
   9.000000E+99

> <Gold.Protein.RotatedTorsions>
[ 6907 6896 6895 6894 ] final -148.05 input  -60.11 | X-H torsion
[ 7974 7965 7964 7962 ] final   -2.80 input  175.53 | X-H torsion
[ 8008 7997 7996 7995 ] final  -69.52 input   59.86 | X-H torsion
[ 10167 10162 10161 10158 ] final    1.99 input  -65.29 | X-H torsion
[ 10718 10713 10712 10709 ] final   71.14 input   66.30 | X-H torsion
[ 10763 10752 10751 10750 ] final -123.68 input  -60.55 | X-H torsion
[ 11005 11000 10999 10996 ] final  156.45 input  -57.11 | X-H torsion

> <Gold.Protein.ActiveResidues>
 VAL166  LYS551  ARG553  GLY616  TRP617  ASP618  TYR619  PRO620  LYS621  CYS622 
 ASP623  PHE694  ASN695  SER759  ASP760  ASP761  ALA762  ILE779  LEU786  VAL792 
 PHE793  MET794  SER795  GLU796  ALA797  LYS798  CYS799  TRP800  GLU811  SER814 

> <Gold.Protein.RotatedAtoms>
  151.1643  133.4825  159.2593 H   0  0  0  0  0  0  0  0  0  0  0  0  # atno 6907 bound_to 6896
  151.1421  135.0185  159.8640 H   0  0  0  0  0  0  0  0  0  0  0  0  # atno 6908 bound_to 6896
  152.5462  134.1536  159.8582 H   0  0  0  0  0  0  0  0  0  0  0  0  # atno 6909 bound_to 6896
  146.2399  140.1625  142.8332 H   0  0  0  0  0  0  0  0  0  0  0  0  # atno 7974 bound_to 7965
  154.4944  140.0852  156.7665 H   0  0  0  0  0  0  0  0  0  0  0  0  # atno 8008 bound_to 7997
  155.4151  140.3443  155.4248 H   0  0  0  0  0  0  0  0  0  0  0  0  # atno 8009 bound_to 7997
  156.1374  140.1519  156.8961 H   0  0  0  0  0  0  0  0  0  0  0  0  # atno 8010 bound_to 7997
  140.6656  143.7187  150.7822 H   0  0  0  0  0  0  0  0  0  0  0  0  # atno 10167 bound_to 10162
  157.6437  130.9513  150.0749 H   0  0  0  0  0  0  0  0  0  0  0  0  # atno 10718 bound_to 10713
  154.8711  135.4090  154.2982 H   0  0  0  0  0  0  0  0  0  0  0  0  # atno 10763 bound_to 10752
  153.3846  135.7012  153.6545 H   0  0  0  0  0  0  0  0  0  0  0  0  # atno 10764 bound_to 10752
  153.5353  135.3659  155.2666 H   0  0  0  0  0  0  0  0  0  0  0  0  # atno 10765 bound_to 10752
  140.1676  134.8566  157.2651 H   0  0  0  0  0  0  0  0  0  0  0  0  # atno 11005 bound_to 11000
  145.0077  140.8687  143.5243 LP  0  0  0  0  0  0  0  0  0  0  0  0  # atno 17320 bound_to 7965
  145.1654  139.2434  143.5369 LP  0  0  0  0  0  0  0  0  0  0  0  0  # atno 17321 bound_to 7965
  140.0864  143.4920  152.2503 LP  0  0  0  0  0  0  0  0  0  0  0  0  # atno 17342 bound_to 10162
  139.5904  144.7548  151.3414 LP  0  0  0  0  0  0  0  0  0  0  0  0  # atno 17343 bound_to 10162
  156.1742  130.3647  149.9123 LP  0  0  0  0  0  0  0  0  0  0  0  0  # atno 17370 bound_to 10713
  156.7091  130.8963  151.3607 LP  0  0  0  0  0  0  0  0  0  0  0  0  # atno 17371 bound_to 10713
  140.2416  134.3789  155.7478 LP  0  0  0  0  0  0  0  0  0  0  0  0  # atno 17394 bound_to 11000
  141.2215  133.7268  156.8797 LP  0  0  0  0  0  0  0  0  0  0  0  0  # atno 17395 bound_to 11000

$$$$
