AV-unprocessed.smi:1534|AV-procd|sdf|6167|dock5
  -GOLD-   22720 6313D 1   1.00000     0.00000
 Structure written by MMmdl.
 36 37  0  0  0  0  0  0  0  0  1 V2000
  146.7548  137.1365  152.7591 O   0  0  0  0  0  0  0  0  0  0  0  0
  145.8652  137.9790  152.6584 C   0  0  0  0  0  0  0  0  0  0  0  0
  144.5956  137.6801  152.3357 N   0  0  0  0  0  0  0  0  0  0  0  0
  144.1071  136.3464  152.0077 C   0  0  0  0  0  0  0  0  0  0  0  0
  145.0169  135.6578  150.9768 C   0  0  0  0  0  0  0  0  0  0  0  0
  144.8627  134.1491  150.9866 C   0  0  0  0  0  0  0  0  0  0  0  0
  143.6034  133.5519  150.7641 C   0  0  0  0  0  0  0  0  0  0  0  0
  143.5145  132.1466  150.7842 C   0  0  0  0  0  0  0  0  0  0  0  0
  144.6821  131.3965  151.0226 C   0  0  0  0  0  0  0  0  0  0  0  0
  145.8921  132.0882  151.2310 C   0  0  0  0  0  0  0  0  0  0  0  0
  145.9883  133.4353  151.2148 N   0  0  0  0  0  0  0  0  0  0  0  0
  146.1015  139.2873  152.8623 N   0  0  0  0  0  0  0  0  0  0  0  0
  147.3647  139.9324  153.2233 C   0  0  1  0  0  0  0  0  0  0  0  0
  147.1151  141.3316  153.8172 C   0  0  0  0  0  0  0  0  0  0  0  0
  148.3974  141.8136  154.5069 C   0  0  0  0  0  0  0  0  0  0  0  0
  149.2485  140.3078  155.1131 S   0  0  0  0  0  0  0  0  0  0  0  0
  150.5904  140.2466  154.5146 O   0  0  0  0  0  0  0  0  0  0  0  0
  149.0603  140.1833  156.5662 O   0  0  0  0  0  0  0  0  0  0  0  0
  148.1485  139.1147  154.2644 C   0  0  0  0  0  0  0  0  0  0  0  0
  143.9270  138.4348  152.2853 H   0  0  0  0  0  0  0  0  0  0  0  0
  144.0253  135.7408  152.9120 H   0  0  0  0  0  0  0  0  0  0  0  0
  143.0977  136.4461  151.6073 H   0  0  0  0  0  0  0  0  0  0  0  0
  144.7934  136.0284  149.9752 H   0  0  0  0  0  0  0  0  0  0  0  0
  146.0610  135.9089  151.1692 H   0  0  0  0  0  0  0  0  0  0  0  0
  142.7256  134.1547  150.5825 H   0  0  0  0  0  0  0  0  0  0  0  0
  142.5680  131.6534  150.6196 H   0  0  0  0  0  0  0  0  0  0  0  0
  144.6516  130.3173  151.0450 H   0  0  0  0  0  0  0  0  0  0  0  0
  146.8071  131.5448  151.4156 H   0  0  0  0  0  0  0  0  0  0  0  0
  145.3053  139.9030  152.7788 H   0  0  0  0  0  0  0  0  0  0  0  0
  147.9837  140.0595  152.3331 H   0  0  0  0  0  0  0  0  0  0  0  0
  146.7794  142.0399  153.0593 H   0  0  0  0  0  0  0  0  0  0  0  0
  146.3230  141.2679  154.5649 H   0  0  0  0  0  0  0  0  0  0  0  0
  149.0575  142.3082  153.7941 H   0  0  0  0  0  0  0  0  0  0  0  0
  148.2043  142.4967  155.3340 H   0  0  0  0  0  0  0  0  0  0  0  0
  147.4813  138.6883  155.0143 H   0  0  0  0  0  0  0  0  0  0  0  0
  148.7388  138.3092  153.8269 H   0  0  0  0  0  0  0  0  0  0  0  0
  1  2  2  0  0  0  0
  2  3  1  0  0  0  0
  2 12  1  0  0  0  0
  3  4  1  0  0  0  0
  3 20  1  0  0  0  0
  4  5  1  0  0  0  0
  4 21  1  0  0  0  0
  4 22  1  0  0  0  0
  5  6  1  0  0  0  0
  5 23  1  0  0  0  0
  5 24  1  0  0  0  0
  6 11  1  0  0  0  0
  6  7  2  0  0  0  0
  7  8  1  0  0  0  0
  7 25  1  0  0  0  0
  8  9  2  0  0  0  0
  8 26  1  0  0  0  0
  9 10  1  0  0  0  0
  9 27  1  0  0  0  0
 10 11  2  0  0  0  0
 10 28  1  0  0  0  0
 12 13  1  0  0  0  0
 12 29  1  0  0  0  0
 13 19  1  0  0  0  0
 13 14  1  0  0  0  0
 13 30  1  0  0  0  0
 14 15  1  0  0  0  0
 14 31  1  0  0  0  0
 14 32  1  0  0  0  0
 15 16  1  0  0  0  0
 15 33  1  0  0  0  0
 15 34  1  0  0  0  0
 16 17  2  0  0  0  0
 16 18  2  0  0  0  0
 16 19  1  0  0  0  0
 19 35  1  0  0  0  0
 19 36  1  0  0  0  0
M  END
> <s_m_source_file>
AV-unprocessed.smi

> <i_m_source_file_index>
1534

> <i_lp_mmshare_version>
43012

> <i_f3d_flags>
0

> <s_epik_input>
Tz1TMSg9TylbQ0gyXVtDSDJdW0NASF0oW0NIMl0xKVtOSF1DKD1PKVtOSF1bQ0gyXVtDSDJdYzJbY0hdW2NIXVtjSF1bY0hdbjI=

> <s_epik_cmdline>
J2VwaWtfcHl0aG9uJywgJy1waCcsICc3LjAnLCAnLXRuJywgJzgnLCAnLW1hJywgJzIwMCcsICctbWV0YWxfYmluZGluZycsICctaW1hZScsICc8aW5maWxlLm1hZT4nLCAnLW9tYWUnLCAnPG91dGZpbGUubWFlPic=

> <r_epik_Ionization_Penalty>
0.0423605

> <r_epik_Ionization_Penalty_Charging>
0

> <r_epik_Ionization_Penalty_Neutral>
0.0423605

> <r_epik_State_Penalty>
0.0357408

> <r_epik_Charging_Adjusted_Penalty>
0.0357408

> <i_epik_Tot_Q>
0

> <i_epik_Tot_abs_Q>
0

> <r_epik_Metal_State_Penalty>
0.033344

> <b_epik_Metal_Only>
0

> <s_lp_Force_Field>
OPLS_2005

> <r_lp_Energy>
9.82399

> <b_lp_Chiralities_Consistent>
1

> <s_lp_Variant>
AV-unprocessed.smi:1534-2

> <Gold.Version>
5.8.1

> <Gold.Id.Protein>
6NUR|6NUR_protein|mol2

> <Gold.PLP.Fitness>
42.0278

> <Gold.PLP.PLP>
-31.1308

> <Gold.PLP.part.hbond>
-3.9154

> <Gold.PLP.part.metal>
0.0000

> <Gold.PLP.part.buried>
-2.2886

> <Gold.PLP.part.nonpolar>
-29.0394

> <Gold.PLP.part.repulsive>
4.4083

> <Gold.PLP.ligand.clash>
0.0000

> <Gold.PLP.ligand.torsion>
0.4398

> <Gold.PLP.Chemscore.Hbond>
2.9199

> <Gold.PLP.Chemscore.CHOScore>
1.0000

> <Gold.PLP.Chemscore.Metal>
0.0000

> <Gold.Chemscore.Hbonds>
donor molecule, donor type, donor heavy atom, donor atom, acceptor molecule, acceptor atom, score
      L1  H     3    20       P1 10175  0.93
      L1  H    12    29       P1 10175  1.00
      P1  H  7989  7998       L1    17  1.00
      L1  C    10    28       P1 10747  0.96

> <Gold.PLP.Chemscore.Internal.Correction>
0.0170

> <Gold.Rescore>
     Score         DG    S(hbond)    S(metal)    S(lipo)     H(rot)  DE(clash)    DE(int)     intcor
     14.83     -19.81       2.89        0.00      77.82       1.73       2.10       2.89       ----

> <Gold.Chemscore.Fitness>
14.8270

> <Gold.Chemscore.DG>
-19.8136

> <Gold.Chemscore.ZeroCoef>
-5.4800

> <Gold.Chemscore.Hbond>
2.8950

> <Gold.Chemscore.Metal>
0.0000

> <Gold.Chemscore.Lipo>
77.8240

> <Gold.Chemscore.Internal_Hbond>
0.0000

> <Gold.Chemscore.DEClash>
2.0954

> <Gold.Chemscore.DEInternal>
2.8913

> <Gold.Chemscore.Rot>
1.7348

> <Gold.Chemscore.Internal.Correction>
   9.000000E+99

> <Gold.Chemscore.Hbonds>
donor molecule, donor type, donor heavy atom, donor atom, acceptor molecule, acceptor atom, score
      L1  H     3    20       P1 10175  0.84
      L1  H    12    29       P1 10175  1.00
      P1  H  7989  7998       L1    17  0.97

> <Gold.Chemscore.Hbond.Weighted>
-9.6692

> <Gold.Chemscore.Metal.Weighted>
-0.0000

> <Gold.Chemscore.Lipo.Weighted>
-9.1054

> <Gold.Chemscore.Internal_Hbond.Weighted>
0.0000

> <Gold.Chemscore.DEClash.Weighted>
2.0954

> <Gold.Chemscore.DEInternal.Weighted>
2.8913

> <Gold.Chemscore.Rot.Weighted>
4.4410

> <Gold.Chemscore.Internal.Correction.Weighted>
   9.000000E+99

> <Gold.Protein.RotatedTorsions>
[ 6907 6896 6895 6894 ] final   85.34 input  -60.11 | X-H torsion
[ 7974 7965 7964 7962 ] final  -79.71 input  175.53 | X-H torsion
[ 8008 7997 7996 7995 ] final  139.97 input   59.86 | X-H torsion
[ 10167 10162 10161 10158 ] final   46.54 input  -65.29 | X-H torsion
[ 10718 10713 10712 10709 ] final  110.93 input   66.30 | X-H torsion
[ 10763 10752 10751 10750 ] final  146.38 input  -60.55 | X-H torsion
[ 11005 11000 10999 10996 ] final  151.61 input  -57.11 | X-H torsion

> <Gold.Protein.ActiveResidues>
 VAL166  LYS551  ARG553  GLY616  TRP617  ASP618  TYR619  PRO620  LYS621  CYS622 
 ASP623  PHE694  ASN695  SER759  ASP760  ASP761  ALA762  ILE779  LEU786  VAL792 
 PHE793  MET794  SER795  GLU796  ALA797  LYS798  CYS799  TRP800  GLU811  SER814 

> <Gold.Protein.RotatedAtoms>
  152.5372  134.2601  159.8931 H   0  0  0  0  0  0  0  0  0  0  0  0  # atno 6907 bound_to 6896
  151.2561  133.4319  159.2621 H   0  0  0  0  0  0  0  0  0  0  0  0  # atno 6908 bound_to 6896
  151.0495  134.9677  159.8260 H   0  0  0  0  0  0  0  0  0  0  0  0  # atno 6909 bound_to 6896
  145.5696  140.9468  143.1403 H   0  0  0  0  0  0  0  0  0  0  0  0  # atno 7974 bound_to 7965
  156.2984  140.2354  156.4324 H   0  0  0  0  0  0  0  0  0  0  0  0  # atno 8008 bound_to 7997
  154.8259  140.0435  157.1463 H   0  0  0  0  0  0  0  0  0  0  0  0  # atno 8009 bound_to 7997
  154.9263  140.3010  155.5194 H   0  0  0  0  0  0  0  0  0  0  0  0  # atno 8010 bound_to 7997
  140.3129  144.2799  150.6196 H   0  0  0  0  0  0  0  0  0  0  0  0  # atno 10167 bound_to 10162
  157.6470  131.0941  150.6674 H   0  0  0  0  0  0  0  0  0  0  0  0  # atno 10718 bound_to 10713
  154.0210  135.2906  155.3381 H   0  0  0  0  0  0  0  0  0  0  0  0  # atno 10763 bound_to 10752
  154.7046  135.5174  153.8579 H   0  0  0  0  0  0  0  0  0  0  0  0  # atno 10764 bound_to 10752
  153.0681  135.6638  154.0432 H   0  0  0  0  0  0  0  0  0  0  0  0  # atno 10765 bound_to 10752
  140.1234  134.8849  157.2104 H   0  0  0  0  0  0  0  0  0  0  0  0  # atno 11005 bound_to 11000
  144.7444  139.7360  143.7298 LP  0  0  0  0  0  0  0  0  0  0  0  0  # atno 17320 bound_to 7965
  146.1794  139.4979  142.9876 LP  0  0  0  0  0  0  0  0  0  0  0  0  # atno 17321 bound_to 7965
  140.5552  143.2200  151.7859 LP  0  0  0  0  0  0  0  0  0  0  0  0  # atno 17342 bound_to 10162
  139.4890  144.4423  151.9750 LP  0  0  0  0  0  0  0  0  0  0  0  0  # atno 17343 bound_to 10162
  156.6990  130.4617  149.5578 LP  0  0  0  0  0  0  0  0  0  0  0  0  # atno 17370 bound_to 10713
  156.1809  130.6498  151.0950 LP  0  0  0  0  0  0  0  0  0  0  0  0  # atno 17371 bound_to 10713
  140.2935  134.3213  155.7308 LP  0  0  0  0  0  0  0  0  0  0  0  0  # atno 17394 bound_to 11000
  141.2156  133.7549  156.9538 LP  0  0  0  0  0  0  0  0  0  0  0  0  # atno 17395 bound_to 11000

$$$$
