AV-unprocessed.smi:942|AV-procd|sdf|4224|dock2
  -GOLD-   22720 2133D 1   1.00000     0.00000
 Structure written by MMmdl.
 43 45  0  0  0  0  0  0  0  0  2 V2000
  149.9462  140.9258  158.1563 O   0  0  0  0  0  0  0  0  0  0  0  0
  149.8937  142.1004  157.7910 C   0  0  0  0  0  0  0  0  0  0  0  0
  148.9939  142.5534  156.9047 N   0  0  0  0  0  0  0  0  0  0  0  0
  147.9606  141.7401  156.2685 C   0  0  1  0  0  0  0  0  0  0  0  0
  146.5701  142.3954  156.4005 C   0  0  0  0  0  0  0  0  0  0  0  0
  146.1610  142.8246  154.9898 C   0  0  0  0  0  0  0  0  0  0  0  0
  146.8664  141.8303  154.0734 C   0  0  0  0  0  0  0  0  0  0  0  0
  148.2234  141.6082  154.7526 C   0  0  2  0  0  0  0  0  0  0  0  0
  148.8623  140.3357  154.3846 N   0  0  0  0  0  0  0  0  0  0  0  0
  150.1245  139.9016  154.7077 C   0  0  0  0  0  0  0  0  0  0  0  0
  150.2757  138.6675  154.1302 C   0  0  0  0  0  0  0  0  0  0  0  0
  149.1056  138.4025  153.4715 N   0  3  0  0  0  0  0  0  0  0  0  0
  148.2504  139.4189  153.6229 C   0  0  0  0  0  0  0  0  0  0  0  0
  150.8807  143.1321  158.3535 C   0  0  0  0  0  0  0  0  0  0  0  0
  151.9061  142.4629  159.2943 C   0  0  0  0  0  0  0  0  0  0  0  0
  152.8843  143.4932  159.8826 C   0  0  0  0  0  0  0  0  0  0  0  0
  152.1346  144.6220  160.6074 C   0  0  0  0  0  0  0  0  0  0  0  0
  151.1108  145.2931  159.6785 C   0  0  0  0  0  0  0  0  0  0  0  0
  150.1322  144.2621  159.0926 C   0  0  0  0  0  0  0  0  0  0  0  0
  149.0177  143.5343  156.6666 H   0  0  0  0  0  0  0  0  0  0  0  0
  147.9308  140.7536  156.7355 H   0  0  0  0  0  0  0  0  0  0  0  0
  145.8602  141.6555  156.7724 H   0  0  0  0  0  0  0  0  0  0  0  0
  146.5491  143.2337  157.0988 H   0  0  0  0  0  0  0  0  0  0  0  0
  145.0795  142.8313  154.8504 H   0  0  0  0  0  0  0  0  0  0  0  0
  146.5290  143.8320  154.7909 H   0  0  0  0  0  0  0  0  0  0  0  0
  146.2880  140.9065  154.0378 H   0  0  0  0  0  0  0  0  0  0  0  0
  146.9646  142.2000  153.0523 H   0  0  0  0  0  0  0  0  0  0  0  0
  148.8814  142.4172  154.4276 H   0  0  0  0  0  0  0  0  0  0  0  0
  150.8049  140.4874  155.3088 H   0  0  0  0  0  0  0  0  0  0  0  0
  151.1075  137.9782  154.1358 H   0  0  0  0  0  0  0  0  0  0  0  0
  147.2595  139.4837  153.2098 H   0  0  0  0  0  0  0  0  0  0  0  0
  151.4268  143.5763  157.5189 H   0  0  0  0  0  0  0  0  0  0  0  0
  151.3920  141.9524  160.1104 H   0  0  0  0  0  0  0  0  0  0  0  0
  152.4656  141.6967  158.7559 H   0  0  0  0  0  0  0  0  0  0  0  0
  153.5716  143.0020  160.5718 H   0  0  0  0  0  0  0  0  0  0  0  0
  153.4962  143.9148  159.0842 H   0  0  0  0  0  0  0  0  0  0  0  0
  151.6238  144.2183  161.4825 H   0  0  0  0  0  0  0  0  0  0  0  0
  152.8439  145.3629  160.9771 H   0  0  0  0  0  0  0  0  0  0  0  0
  150.5603  146.0599  160.2240 H   0  0  0  0  0  0  0  0  0  0  0  0
  151.6324  145.8042  158.8682 H   0  0  0  0  0  0  0  0  0  0  0  0
  149.4418  144.7627  158.4126 H   0  0  0  0  0  0  0  0  0  0  0  0
  149.5241  143.8475  159.8985 H   0  0  0  0  0  0  0  0  0  0  0  0
  148.9139  137.5610  152.9420 H   0  0  0  0  0  0  0  0  0  0  0  0
  1  2  2  0  0  0  0
  2  3  1  0  0  0  0
  2 14  1  0  0  0  0
  3  4  1  0  0  0  0
  3 20  1  0  0  0  0
  4  8  1  0  0  0  0
  4  5  1  0  0  0  0
  4 21  1  0  0  0  0
  5  6  1  0  0  0  0
  5 22  1  0  0  0  0
  5 23  1  0  0  0  0
  6  7  1  0  0  0  0
  6 24  1  0  0  0  0
  6 25  1  0  0  0  0
  7  8  1  0  0  0  0
  7 26  1  0  0  0  0
  7 27  1  0  0  0  0
  8  9  1  0  0  0  0
  8 28  1  0  0  0  0
  9 13  1  0  0  0  0
  9 10  1  0  0  0  0
 10 11  2  0  0  0  0
 10 29  1  0  0  0  0
 11 12  1  0  0  0  0
 11 30  1  0  0  0  0
 12 13  2  0  0  0  0
 12 43  1  0  0  0  0
 13 31  1  0  0  0  0
 14 19  1  0  0  0  0
 14 15  1  0  0  0  0
 14 32  1  0  0  0  0
 15 16  1  0  0  0  0
 15 33  1  0  0  0  0
 15 34  1  0  0  0  0
 16 17  1  0  0  0  0
 16 35  1  0  0  0  0
 16 36  1  0  0  0  0
 17 18  1  0  0  0  0
 17 37  1  0  0  0  0
 17 38  1  0  0  0  0
 18 19  1  0  0  0  0
 18 39  1  0  0  0  0
 18 40  1  0  0  0  0
 19 41  1  0  0  0  0
 19 42  1  0  0  0  0
M  CHG  1  12   1
M  END
> <s_m_source_file>
AV-unprocessed.smi

> <i_m_source_file_index>
942

> <i_lp_mmshare_version>
43012

> <i_f3d_flags>
0

> <s_epik_input>
W0NIMl0xW0NIMl1bQ0gyXVtDSDJdW0NIMl1bQ0hdMUMoPU8pW05IXVtDQEBIXTJbQ0gyXVtDSDJdW0NIMl1bQ0BIXTJuM1tjSF1bY0hdbltjSF0z

> <s_epik_cmdline>
J2VwaWtfcHl0aG9uJywgJy1waCcsICc3LjAnLCAnLXRuJywgJzgnLCAnLW1hJywgJzIwMCcsICctbWV0YWxfYmluZGluZycsICctaW1hZScsICc8aW5maWxlLm1hZT4nLCAnLW9tYWUnLCAnPG91dGZpbGUubWFlPic=

> <r_lp_tautomer_probability>
1

> <r_epik_Ionization_Penalty>
0.185467

> <r_epik_Ionization_Penalty_Charging>
0

> <r_epik_Ionization_Penalty_Neutral>
0.185467

> <r_epik_State_Penalty>
0.175036

> <r_epik_Charging_Adjusted_Penalty>
0.175036

> <i_epik_Tot_Q>
1

> <i_epik_Tot_abs_Q>
1

> <r_epik_Metal_State_Penalty>
0.487091

> <b_epik_Metal_Only>
0

> <s_lp_Force_Field>
OPLS_2005

> <r_lp_Energy>
33.5167

> <b_lp_Chiralities_Consistent>
1

> <s_lp_Variant>
AV-unprocessed.smi:942-4

> <Gold.Version>
5.8.1

> <Gold.Id.Protein>
6NUR|6NUR_protein|mol2

> <Gold.PLP.Fitness>
50.7134

> <Gold.PLP.PLP>
-41.9930

> <Gold.PLP.part.hbond>
-2.8906

> <Gold.PLP.part.metal>
0.0000

> <Gold.PLP.part.buried>
-2.4034

> <Gold.PLP.part.nonpolar>
-36.6039

> <Gold.PLP.part.repulsive>
0.0794

> <Gold.PLP.ligand.clash>
0.0000

> <Gold.PLP.ligand.torsion>
0.1489

> <Gold.PLP.Chemscore.Hbond>
3.0000

> <Gold.PLP.Chemscore.CHOScore>
0.0000

> <Gold.PLP.Chemscore.Metal>
0.0000

> <Gold.Chemscore.Hbonds>
donor molecule, donor type, donor heavy atom, donor atom, acceptor molecule, acceptor atom, score
      L1  H     3    20       P1  8028  1.00
      L1  H    12    43       P1  7948  2.00

> <Gold.PLP.Chemscore.Internal.Correction>
0.0181

> <Gold.Rescore>
     Score         DG    S(hbond)    S(metal)    S(lipo)     H(rot)  DE(clash)    DE(int)     intcor
     19.62     -20.00       1.89        0.00     102.39       1.48       0.23       0.15       ----

> <Gold.Chemscore.Fitness>
19.6225

> <Gold.Chemscore.DG>
-19.9999

> <Gold.Chemscore.ZeroCoef>
-5.4800

> <Gold.Chemscore.Hbond>
1.8940

> <Gold.Chemscore.Metal>
0.0000

> <Gold.Chemscore.Lipo>
102.3938

> <Gold.Chemscore.Internal_Hbond>
0.0000

> <Gold.Chemscore.DEClash>
0.2262

> <Gold.Chemscore.DEInternal>
0.1511

> <Gold.Chemscore.Rot>
1.4790

> <Gold.Chemscore.Internal.Correction>
   9.000000E+99

> <Gold.Chemscore.Hbonds>
donor molecule, donor type, donor heavy atom, donor atom, acceptor molecule, acceptor atom, score
      L1  H     3    20       P1  8028  0.81
      L1  H    12    43       P1  7948  1.00

> <Gold.Chemscore.Hbond.Weighted>
-6.3261

> <Gold.Chemscore.Metal.Weighted>
-0.0000

> <Gold.Chemscore.Lipo.Weighted>
-11.9801

> <Gold.Chemscore.Internal_Hbond.Weighted>
0.0000

> <Gold.Chemscore.DEClash.Weighted>
0.2262

> <Gold.Chemscore.DEInternal.Weighted>
0.1511

> <Gold.Chemscore.Rot.Weighted>
3.7863

> <Gold.Chemscore.Internal.Correction.Weighted>
   9.000000E+99

> <Gold.Protein.RotatedTorsions>
[ 6907 6896 6895 6894 ] final  -54.90 input  -60.11 | X-H torsion
[ 7974 7965 7964 7962 ] final   90.30 input  175.53 | X-H torsion
[ 8008 7997 7996 7995 ] final -118.44 input   59.86 | X-H torsion
[ 10167 10162 10161 10158 ] final  102.73 input  -65.29 | X-H torsion
[ 10718 10713 10712 10709 ] final -140.90 input   66.30 | X-H torsion
[ 10763 10752 10751 10750 ] final -122.10 input  -60.55 | X-H torsion
[ 11005 11000 10999 10996 ] final -172.87 input  -57.11 | X-H torsion

> <Gold.Protein.ActiveResidues>
 VAL166  LYS551  ARG553  GLY616  TRP617  ASP618  TYR619  PRO620  LYS621  CYS622 
 ASP623  PHE694  ASN695  SER759  ASP760  ASP761  ALA762  ILE779  LEU786  VAL792 
 PHE793  MET794  SER795  GLU796  ALA797  LYS798  CYS799  TRP800  GLU811  SER814 

> <Gold.Protein.RotatedAtoms>
  150.8297  134.7545  159.6843 H   0  0  0  0  0  0  0  0  0  0  0  0  # atno 6907 bound_to 6896
  152.4404  134.5600  159.9901 H   0  0  0  0  0  0  0  0  0  0  0  0  # atno 6908 bound_to 6896
  151.5764  133.3346  159.3035 H   0  0  0  0  0  0  0  0  0  0  0  0  # atno 6909 bound_to 6896
  145.5208  139.2279  143.2673 H   0  0  0  0  0  0  0  0  0  0  0  0  # atno 7974 bound_to 7965
  155.0998  140.0396  157.2693 H   0  0  0  0  0  0  0  0  0  0  0  0  # atno 8008 bound_to 7997
  154.6767  140.2624  155.6925 H   0  0  0  0  0  0  0  0  0  0  0  0  # atno 8009 bound_to 7997
  156.2679  140.2787  156.1296 H   0  0  0  0  0  0  0  0  0  0  0  0  # atno 8010 bound_to 7997
  139.7324  144.7032  151.0701 H   0  0  0  0  0  0  0  0  0  0  0  0  # atno 10167 bound_to 10162
  156.3277  130.7569  151.1680 H   0  0  0  0  0  0  0  0  0  0  0  0  # atno 10718 bound_to 10713
  154.8682  135.4145  154.2726 H   0  0  0  0  0  0  0  0  0  0  0  0  # atno 10763 bound_to 10752
  153.3634  135.7004  153.6700 H   0  0  0  0  0  0  0  0  0  0  0  0  # atno 10764 bound_to 10752
  153.5592  135.3613  155.2764 H   0  0  0  0  0  0  0  0  0  0  0  0  # atno 10765 bound_to 10752
  140.4922  134.5974  157.4958 H   0  0  0  0  0  0  0  0  0  0  0  0  # atno 11005 bound_to 11000
  146.2107  140.6020  142.9061 LP  0  0  0  0  0  0  0  0  0  0  0  0  # atno 17320 bound_to 7965
  144.7677  140.5567  143.6692 LP  0  0  0  0  0  0  0  0  0  0  0  0  # atno 17321 bound_to 7965
  140.7773  143.5026  150.9752 LP  0  0  0  0  0  0  0  0  0  0  0  0  # atno 17342 bound_to 10162
  139.8714  143.7187  152.3166 LP  0  0  0  0  0  0  0  0  0  0  0  0  # atno 17343 bound_to 10162
  157.7424  131.0490  150.5024 LP  0  0  0  0  0  0  0  0  0  0  0  0  # atno 17370 bound_to 10713
  156.5186  130.4156  149.6263 LP  0  0  0  0  0  0  0  0  0  0  0  0  # atno 17371 bound_to 10713
  139.9763  134.7210  155.9944 LP  0  0  0  0  0  0  0  0  0  0  0  0  # atno 17394 bound_to 11000
  141.1478  133.6553  156.3921 LP  0  0  0  0  0  0  0  0  0  0  0  0  # atno 17395 bound_to 11000

$$$$
