AV-unprocessed.smi:486|AV-procd|sdf|2695|dock3
  -GOLD-   2262023123D 1   1.00000     0.00000
 Structure written by MMmdl.
 43 45  0  0  0  0  0  0  0  0  1 V2000
  142.3282  146.1314  154.7581 C   0  0  0  0  0  0  0  0  0  0  0  0
  142.9651  145.6501  155.9326 O   0  0  0  0  0  0  0  0  0  0  0  0
  144.0329  144.7907  155.7857 C   0  0  0  0  0  0  0  0  0  0  0  0
  144.6871  144.3736  156.9612 C   0  0  0  0  0  0  0  0  0  0  0  0
  145.7858  143.4957  156.9017 C   0  0  0  0  0  0  0  0  0  0  0  0
  146.2593  143.0152  155.6652 C   0  0  0  0  0  0  0  0  0  0  0  0
  147.3411  142.1615  155.6968 O   0  0  0  0  0  0  0  0  0  0  0  0
  147.8151  141.6276  154.4673 C   0  0  0  0  0  0  0  0  0  0  0  0
  149.2879  141.2236  154.6384 C   0  0  2  0  0  0  0  0  0  0  0  0
  149.7565  140.7131  153.4057 O   0  0  0  0  0  0  0  0  0  0  0  0
  149.4669  140.1492  155.7306 C   0  0  0  0  0  0  0  0  0  0  0  0
  150.6576  140.3622  156.5430 N   0  0  0  0  0  0  0  0  0  0  0  0
  151.7542  139.5706  156.6369 C   0  0  0  0  0  0  0  0  0  0  0  0
  151.8799  138.3002  155.8571 C   0  0  0  0  0  0  0  0  0  0  0  0
  152.7119  139.9974  157.4600 N   0  0  0  0  0  0  0  0  0  0  0  0
  152.1883  141.1803  157.9456 C   0  0  0  0  0  0  0  0  0  0  0  0
  152.7235  142.1129  158.8628 C   0  0  0  0  0  0  0  0  0  0  0  0
  151.9949  143.2687  159.2127 C   0  0  0  0  0  0  0  0  0  0  0  0
  150.7232  143.5076  158.6526 C   0  0  0  0  0  0  0  0  0  0  0  0
  150.1712  142.5909  157.7371 C   0  0  0  0  0  0  0  0  0  0  0  0
  150.9027  141.4391  157.3902 C   0  0  0  0  0  0  0  0  0  0  0  0
  145.6045  143.4315  154.4799 C   0  0  0  0  0  0  0  0  0  0  0  0
  144.5040  144.3088  154.5395 C   0  0  0  0  0  0  0  0  0  0  0  0
  141.5055  146.7890  155.0384 H   0  0  0  0  0  0  0  0  0  0  0  0
  141.9103  145.3146  154.1685 H   0  0  0  0  0  0  0  0  0  0  0  0
  143.0160  146.7095  154.1393 H   0  0  0  0  0  0  0  0  0  0  0  0
  144.3428  144.7303  157.9209 H   0  0  0  0  0  0  0  0  0  0  0  0
  146.2711  143.1883  157.8166 H   0  0  0  0  0  0  0  0  0  0  0  0
  147.2237  140.7424  154.2276 H   0  0  0  0  0  0  0  0  0  0  0  0
  147.7016  142.3380  153.6462 H   0  0  0  0  0  0  0  0  0  0  0  0
  149.8771  142.1027  154.9005 H   0  0  0  0  0  0  0  0  0  0  0  0
  149.0635  140.2069  153.0096 H   0  0  0  0  0  0  0  0  0  0  0  0
  148.5968  140.1280  156.3875 H   0  0  0  0  0  0  0  0  0  0  0  0
  149.5265  139.1579  155.2795 H   0  0  0  0  0  0  0  0  0  0  0  0
  152.8000  137.7784  156.1227 H   0  0  0  0  0  0  0  0  0  0  0  0
  151.9036  138.5153  154.7888 H   0  0  0  0  0  0  0  0  0  0  0  0
  151.0402  137.6385  156.0670 H   0  0  0  0  0  0  0  0  0  0  0  0
  153.6965  141.9386  159.2977 H   0  0  0  0  0  0  0  0  0  0  0  0
  152.4139  143.9748  159.9146 H   0  0  0  0  0  0  0  0  0  0  0  0
  150.1709  144.3943  158.9272 H   0  0  0  0  0  0  0  0  0  0  0  0
  149.1958  142.7688  157.3094 H   0  0  0  0  0  0  0  0  0  0  0  0
  145.9266  143.0904  153.5078 H   0  0  0  0  0  0  0  0  0  0  0  0
  144.0367  144.5977  153.6106 H   0  0  0  0  0  0  0  0  0  0  0  0
  1  2  1  0  0  0  0
  1 24  1  0  0  0  0
  1 25  1  0  0  0  0
  1 26  1  0  0  0  0
  2  3  1  0  0  0  0
  3 23  1  0  0  0  0
  3  4  2  0  0  0  0
  4  5  1  0  0  0  0
  4 27  1  0  0  0  0
  5  6  2  0  0  0  0
  5 28  1  0  0  0  0
  6  7  1  0  0  0  0
  6 22  1  0  0  0  0
  7  8  1  0  0  0  0
  8  9  1  0  0  0  0
  8 29  1  0  0  0  0
  8 30  1  0  0  0  0
  9 10  1  0  0  0  0
  9 11  1  0  0  0  0
  9 31  1  0  0  0  0
 10 32  1  0  0  0  0
 11 12  1  0  0  0  0
 11 33  1  0  0  0  0
 11 34  1  0  0  0  0
 12 21  1  0  0  0  0
 12 13  1  0  0  0  0
 13 14  1  0  0  0  0
 13 15  2  0  0  0  0
 14 35  1  0  0  0  0
 14 36  1  0  0  0  0
 14 37  1  0  0  0  0
 15 16  1  0  0  0  0
 16 21  2  0  0  0  0
 16 17  1  0  0  0  0
 17 18  2  0  0  0  0
 17 38  1  0  0  0  0
 18 19  1  0  0  0  0
 18 39  1  0  0  0  0
 19 20  2  0  0  0  0
 19 40  1  0  0  0  0
 20 21  1  0  0  0  0
 20 41  1  0  0  0  0
 22 23  2  0  0  0  0
 22 42  1  0  0  0  0
 23 43  1  0  0  0  0
M  END
> <s_m_source_file>
AV-unprocessed.smi

> <i_m_source_file_index>
486

> <i_lp_mmshare_version>
43012

> <i_f3d_flags>
0

> <s_epik_input>
W0NIM11PYzFbY0hdW2NIXWMoW2NIXVtjSF0xKU9bQ0gyXVtDQEhdKFtPSF0pW0NIMl1uKGMobjIpW0NIM10pYyhjMjMpW2NIXVtjSF1bY0hdW2NIXTM=

> <s_epik_cmdline>
J2VwaWtfcHl0aG9uJywgJy1waCcsICc3LjAnLCAnLXRuJywgJzgnLCAnLW1hJywgJzIwMCcsICctbWV0YWxfYmluZGluZycsICctaW1hZScsICc8aW5maWxlLm1hZT4nLCAnLW9tYWUnLCAnPG91dGZpbGUubWFlPic=

> <r_lp_tautomer_probability>
1

> <r_epik_Ionization_Penalty>
0.114052

> <r_epik_Ionization_Penalty_Charging>
0

> <r_epik_Ionization_Penalty_Neutral>
0.114052

> <r_epik_State_Penalty>
0.103717

> <r_epik_Charging_Adjusted_Penalty>
0.103717

> <i_epik_Tot_Q>
0

> <i_epik_Tot_abs_Q>
0

> <r_epik_Metal_State_Penalty>
0.000113338

> <b_epik_Metal_Only>
0

> <s_lp_Force_Field>
OPLS_2005

> <r_lp_Energy>
19.9985

> <b_lp_Chiralities_Consistent>
1

> <s_lp_Variant>
AV-unprocessed.smi:486-1

> <Gold.Version>
5.8.1

> <Gold.Id.Protein>
6NUR|6NUR_protein|mol2

> <Gold.PLP.Fitness>
45.6759

> <Gold.PLP.PLP>
-39.4018

> <Gold.PLP.part.hbond>
-3.2618

> <Gold.PLP.part.metal>
0.0000

> <Gold.PLP.part.buried>
-4.6000

> <Gold.PLP.part.nonpolar>
-31.0204

> <Gold.PLP.part.repulsive>
0.3406

> <Gold.PLP.ligand.clash>
0.0000

> <Gold.PLP.ligand.torsion>
0.7057

> <Gold.PLP.Chemscore.Hbond>
2.5120

> <Gold.PLP.Chemscore.CHOScore>
0.0000

> <Gold.PLP.Chemscore.Metal>
0.0000

> <Gold.Chemscore.Hbonds>
donor molecule, donor type, donor heavy atom, donor atom, acceptor molecule, acceptor atom, score
      L1  H    10    32       P1  7957  0.08
      P1  H  7989  7998       L1    10  0.35
      P1  H  7997  8008       L1    15  1.00
      P1  H  8011  8017       L1    10  1.00

> <Gold.PLP.Chemscore.Internal.Correction>
0.1495

> <Gold.Rescore>
     Score         DG    S(hbond)    S(metal)    S(lipo)     H(rot)  DE(clash)    DE(int)     intcor
     16.59     -17.37       1.75        0.00     101.96       2.30       0.07       0.71       ----

> <Gold.Chemscore.Fitness>
16.5888

> <Gold.Chemscore.DG>
-17.3690

> <Gold.Chemscore.ZeroCoef>
-5.4800

> <Gold.Chemscore.Hbond>
1.7526

> <Gold.Chemscore.Metal>
0.0000

> <Gold.Chemscore.Lipo>
101.9606

> <Gold.Chemscore.Internal_Hbond>
0.0000

> <Gold.Chemscore.DEClash>
0.0728

> <Gold.Chemscore.DEInternal>
0.7074

> <Gold.Chemscore.Rot>
2.3023

> <Gold.Chemscore.Internal.Correction>
   9.000000E+99

> <Gold.Chemscore.Hbonds>
donor molecule, donor type, donor heavy atom, donor atom, acceptor molecule, acceptor atom, score
      L1  H    10    32       P1  7957  0.10
      P1  H  7989  7998       L1    10  0.19
      P1  H  7997  8008       L1    15  0.88
      P1  H  8011  8017       L1    10  0.11

> <Gold.Chemscore.Hbond.Weighted>
-5.8536

> <Gold.Chemscore.Metal.Weighted>
-0.0000

> <Gold.Chemscore.Lipo.Weighted>
-11.9294

> <Gold.Chemscore.Internal_Hbond.Weighted>
0.0000

> <Gold.Chemscore.DEClash.Weighted>
0.0728

> <Gold.Chemscore.DEInternal.Weighted>
0.7074

> <Gold.Chemscore.Rot.Weighted>
5.8940

> <Gold.Chemscore.Internal.Correction.Weighted>
   9.000000E+99

> <Gold.Protein.RotatedTorsions>
[ 6907 6896 6895 6894 ] final  -38.40 input  -60.11 | X-H torsion
[ 7974 7965 7964 7962 ] final  -54.78 input  175.53 | X-H torsion
[ 8008 7997 7996 7995 ] final  -74.94 input   59.86 | X-H torsion
[ 10167 10162 10161 10158 ] final  109.50 input  -65.29 | X-H torsion
[ 10718 10713 10712 10709 ] final  153.38 input   66.30 | X-H torsion
[ 10763 10752 10751 10750 ] final    2.03 input  -60.55 | X-H torsion
[ 11005 11000 10999 10996 ] final   60.39 input  -57.11 | X-H torsion

> <Gold.Protein.ActiveResidues>
 VAL166  LYS551  ARG553  GLY616  TRP617  ASP618  TYR619  PRO620  LYS621  CYS622 
 ASP623  PHE694  ASN695  SER759  ASP760  ASP761  ALA762  ILE779  LEU786  VAL792 
 PHE793  MET794  SER795  GLU796  ALA797  LYS798  CYS799  TRP800  GLU811  SER814 

> <Gold.Protein.RotatedAtoms>
  151.0030  134.9337  159.7963 H   0  0  0  0  0  0  0  0  0  0  0  0  # atno 6907 bound_to 6896
  152.5283  134.3129  159.9130 H   0  0  0  0  0  0  0  0  0  0  0  0  # atno 6908 bound_to 6896
  151.3135  133.4029  159.2683 H   0  0  0  0  0  0  0  0  0  0  0  0  # atno 6909 bound_to 6896
  145.8817  140.8140  142.9836 H   0  0  0  0  0  0  0  0  0  0  0  0  # atno 7974 bound_to 7965
  154.5374  140.0752  156.8450 H   0  0  0  0  0  0  0  0  0  0  0  0  # atno 8008 bound_to 7997
  155.3251  140.3398  155.4222 H   0  0  0  0  0  0  0  0  0  0  0  0  # atno 8009 bound_to 7997
  156.1841  140.1662  156.8205 H   0  0  0  0  0  0  0  0  0  0  0  0  # atno 8010 bound_to 7997
  139.6762  144.7122  151.1598 H   0  0  0  0  0  0  0  0  0  0  0  0  # atno 10167 bound_to 10162
  157.2455  131.0768  151.1764 H   0  0  0  0  0  0  0  0  0  0  0  0  # atno 10718 bound_to 10713
  153.3006  135.6955  153.7207 H   0  0  0  0  0  0  0  0  0  0  0  0  # atno 10763 bound_to 10752
  153.6123  135.3442  155.2983 H   0  0  0  0  0  0  0  0  0  0  0  0  # atno 10764 bound_to 10752
  154.8549  135.4366  154.2115 H   0  0  0  0  0  0  0  0  0  0  0  0  # atno 10765 bound_to 10752
  140.0235  134.6117  155.9605 H   0  0  0  0  0  0  0  0  0  0  0  0  # atno 11005 bound_to 11000
  144.6727  140.1393  143.7438 LP  0  0  0  0  0  0  0  0  0  0  0  0  # atno 17320 bound_to 7965
  145.9016  139.2434  143.1490 LP  0  0  0  0  0  0  0  0  0  0  0  0  # atno 17321 bound_to 7965
  140.7636  143.5768  150.8936 LP  0  0  0  0  0  0  0  0  0  0  0  0  # atno 17342 bound_to 10162
  139.9437  143.6352  152.3047 LP  0  0  0  0  0  0  0  0  0  0  0  0  # atno 17343 bound_to 10162
  157.3333  130.6996  149.6337 LP  0  0  0  0  0  0  0  0  0  0  0  0  # atno 17370 bound_to 10713
  155.9668  130.4301  150.4862 LP  0  0  0  0  0  0  0  0  0  0  0  0  # atno 17371 bound_to 10713
  141.1788  133.6543  156.4937 LP  0  0  0  0  0  0  0  0  0  0  0  0  # atno 17394 bound_to 11000
  140.4346  134.7071  157.4960 LP  0  0  0  0  0  0  0  0  0  0  0  0  # atno 17395 bound_to 11000

$$$$
