AV-unprocessed.smi:1191|AV-procd|sdf|4984|dock8
  -GOLD-   22720 3583D 1   1.00000     0.00000
 Structure written by MMmdl.
 47 48  0  0  0  0  0  0  0  0  2 V2000
  147.9569  141.6807  153.8870 C   0  0  0  0  0  0  0  0  0  0  0  0
  149.1173  140.9173  154.4543 C   0  0  0  0  0  0  0  0  0  0  0  0
  149.9940  141.2988  155.5078 C   0  0  0  0  0  0  0  0  0  0  0  0
  150.8621  140.2497  155.6214 C   0  0  0  0  0  0  0  0  0  0  0  0
  152.0155  140.0528  156.5495 C   0  0  0  0  0  0  0  0  0  0  0  0
  150.4898  139.3156  154.6701 N   0  0  0  0  0  0  0  0  0  0  0  0
  151.0843  138.0224  154.3678 C   0  0  0  0  0  0  0  0  0  0  0  0
  150.4739  136.9158  155.2305 C   0  0  0  0  0  0  0  0  0  0  0  0
  150.5622  136.9665  156.4573 O   0  0  0  0  0  0  0  0  0  0  0  0
  149.8426  135.9266  154.5797 N   0  0  0  0  0  0  0  0  0  0  0  0
  149.1670  134.8069  155.2236 C   0  0  0  0  0  0  0  0  0  0  0  0
  147.6518  134.8318  154.9430 C   0  0  0  0  0  0  0  0  0  0  0  0
  147.3342  134.6027  153.5108 N   0  3  1  0  0  0  0  0  0  0  0  0
  147.4127  133.1648  153.1447 C   0  0  0  0  0  0  0  0  0  0  0  0
  147.2242  132.9663  151.6325 C   0  0  0  0  0  0  0  0  0  0  0  0
  145.8988  133.5763  151.1599 C   0  0  0  0  0  0  0  0  0  0  0  0
  145.8175  135.0562  151.5703 C   0  0  1  0  0  0  0  0  0  0  0  0
  144.4884  135.6874  151.1316 C   0  0  0  0  0  0  0  0  0  0  0  0
  146.0392  135.2029  153.0893 C   0  0  0  0  0  0  0  0  0  0  0  0
  149.4190  139.7290  153.9582 N   0  0  0  0  0  0  0  0  0  0  0  0
  147.8902  142.6779  154.3225 H   0  0  0  0  0  0  0  0  0  0  0  0
  147.0157  141.1678  154.0864 H   0  0  0  0  0  0  0  0  0  0  0  0
  148.0528  141.7970  152.8071 H   0  0  0  0  0  0  0  0  0  0  0  0
  149.9859  142.2068  156.0923 H   0  0  0  0  0  0  0  0  0  0  0  0
  152.0641  140.8569  157.2839 H   0  0  0  0  0  0  0  0  0  0  0  0
  152.9575  140.0430  156.0012 H   0  0  0  0  0  0  0  0  0  0  0  0
  151.9255  139.1111  157.0909 H   0  0  0  0  0  0  0  0  0  0  0  0
  150.9483  137.8114  153.3063 H   0  0  0  0  0  0  0  0  0  0  0  0
  152.1600  138.0652  154.5458 H   0  0  0  0  0  0  0  0  0  0  0  0
  149.8216  135.9580  153.5704 H   0  0  0  0  0  0  0  0  0  0  0  0
  149.6207  133.8945  154.8394 H   0  0  0  0  0  0  0  0  0  0  0  0
  149.3584  134.8215  156.2981 H   0  0  0  0  0  0  0  0  0  0  0  0
  147.1811  134.0470  155.5371 H   0  0  0  0  0  0  0  0  0  0  0  0
  147.2109  135.7730  155.2755 H   0  0  0  0  0  0  0  0  0  0  0  0
  148.3822  132.7600  153.4382 H   0  0  0  0  0  0  0  0  0  0  0  0
  146.6553  132.6056  153.6963 H   0  0  0  0  0  0  0  0  0  0  0  0
  148.0536  133.4278  151.0951 H   0  0  0  0  0  0  0  0  0  0  0  0
  147.2519  131.9035  151.3902 H   0  0  0  0  0  0  0  0  0  0  0  0
  145.8103  133.4773  150.0773 H   0  0  0  0  0  0  0  0  0  0  0  0
  145.0648  133.0222  151.5931 H   0  0  0  0  0  0  0  0  0  0  0  0
  146.6189  135.5927  151.0595 H   0  0  0  0  0  0  0  0  0  0  0  0
  143.6390  135.1969  151.6080 H   0  0  0  0  0  0  0  0  0  0  0  0
  144.3548  135.6096  150.0523 H   0  0  0  0  0  0  0  0  0  0  0  0
  144.4508  136.7458  151.3913 H   0  0  0  0  0  0  0  0  0  0  0  0
  145.2239  134.7283  153.6381 H   0  0  0  0  0  0  0  0  0  0  0  0
  146.0155  136.2611  153.3459 H   0  0  0  0  0  0  0  0  0  0  0  0
  148.0599  135.0651  152.9819 H   0  0  0  0  0  0  0  0  0  0  0  0
  1  2  1  0  0  0  0
  1 21  1  0  0  0  0
  1 22  1  0  0  0  0
  1 23  1  0  0  0  0
  2 20  2  0  0  0  0
  2  3  1  0  0  0  0
  3  4  2  0  0  0  0
  3 24  1  0  0  0  0
  4  5  1  0  0  0  0
  4  6  1  0  0  0  0
  5 25  1  0  0  0  0
  5 26  1  0  0  0  0
  5 27  1  0  0  0  0
  6  7  1  0  0  0  0
  6 20  1  0  0  0  0
  7  8  1  0  0  0  0
  7 28  1  0  0  0  0
  7 29  1  0  0  0  0
  8  9  2  0  0  0  0
  8 10  1  0  0  0  0
 10 11  1  0  0  0  0
 10 30  1  0  0  0  0
 11 12  1  0  0  0  0
 11 31  1  0  0  0  0
 11 32  1  0  0  0  0
 12 13  1  0  0  0  0
 12 33  1  0  0  0  0
 12 34  1  0  0  0  0
 13 19  1  0  0  0  0
 13 14  1  0  0  0  0
 13 47  1  0  0  0  0
 14 15  1  0  0  0  0
 14 35  1  0  0  0  0
 14 36  1  0  0  0  0
 15 16  1  0  0  0  0
 15 37  1  0  0  0  0
 15 38  1  0  0  0  0
 16 17  1  0  0  0  0
 16 39  1  0  0  0  0
 16 40  1  0  0  0  0
 17 18  1  0  0  0  0
 17 19  1  0  0  0  0
 17 41  1  0  0  0  0
 18 42  1  0  0  0  0
 18 43  1  0  0  0  0
 18 44  1  0  0  0  0
 19 45  1  0  0  0  0
 19 46  1  0  0  0  0
M  CHG  1  13   1
M  END
> <s_m_source_file>
AV-unprocessed.smi

> <i_m_source_file_index>
1191

> <i_lp_mmshare_version>
43012

> <i_f3d_flags>
0

> <s_epik_input>
W0NIM11jMVtjSF1jKFtDSDNdKW4objEpW0NIMl1DKD1PKVtOSF1bQ0gyXVtDSDJdTjJbQ0gyXVtDSDJdW0NIMl1bQ0BASF0oW0NIM10pW0NIMl0y

> <s_epik_cmdline>
J2VwaWtfcHl0aG9uJywgJy1waCcsICc3LjAnLCAnLXRuJywgJzgnLCAnLW1hJywgJzIwMCcsICctbWV0YWxfYmluZGluZycsICctaW1hZScsICc8aW5maWxlLm1hZT4nLCAnLW9tYWUnLCAnPG91dGZpbGUubWFlPic=

> <r_lp_tautomer_probability>
1

> <r_epik_Ionization_Penalty>
0.00249932

> <r_epik_Ionization_Penalty_Charging>
0.00230623

> <r_epik_Ionization_Penalty_Neutral>
0.000193092

> <r_epik_State_Penalty>
-0

> <r_epik_Charging_Adjusted_Penalty>
0.00230623

> <i_epik_Tot_Q>
1

> <i_epik_Tot_abs_Q>
1

> <r_epik_Metal_State_Penalty>
-0

> <b_epik_Metal_Only>
0

> <s_lp_Force_Field>
OPLS_2005

> <r_lp_Energy>
14.3844

> <b_lp_Chiralities_Consistent>
1

> <s_lp_Variant>
AV-unprocessed.smi:1191-1

> <Gold.Version>
5.8.1

> <Gold.Id.Protein>
6NUR|6NUR_protein|mol2

> <Gold.PLP.Fitness>
43.4013

> <Gold.PLP.PLP>
-36.5167

> <Gold.PLP.part.hbond>
-2.1550

> <Gold.PLP.part.metal>
0.0000

> <Gold.PLP.part.buried>
-2.8309

> <Gold.PLP.part.nonpolar>
-33.0135

> <Gold.PLP.part.repulsive>
1.5657

> <Gold.PLP.ligand.clash>
0.0000

> <Gold.PLP.ligand.torsion>
0.6236

> <Gold.PLP.Chemscore.Hbond>
2.7000

> <Gold.PLP.Chemscore.CHOScore>
0.0000

> <Gold.PLP.Chemscore.Metal>
0.0000

> <Gold.Chemscore.Hbonds>
donor molecule, donor type, donor heavy atom, donor atom, acceptor molecule, acceptor atom, score
      L1  H    10    30       P1  7948  0.75
      L1  H    13    47       P1  7948  2.00

> <Gold.PLP.Chemscore.Internal.Correction>
0.0318

> <Gold.Rescore>
     Score         DG    S(hbond)    S(metal)    S(lipo)     H(rot)  DE(clash)    DE(int)     intcor
     12.87     -13.63       1.06        0.00      75.74       1.67       0.11       0.65       ----

> <Gold.Chemscore.Fitness>
12.8743

> <Gold.Chemscore.DG>
-13.6319

> <Gold.Chemscore.ZeroCoef>
-5.4800

> <Gold.Chemscore.Hbond>
1.0641

> <Gold.Chemscore.Metal>
0.0000

> <Gold.Chemscore.Lipo>
75.7429

> <Gold.Chemscore.Internal_Hbond>
0.0000

> <Gold.Chemscore.DEClash>
0.1117

> <Gold.Chemscore.DEInternal>
0.6459

> <Gold.Chemscore.Rot>
1.6657

> <Gold.Chemscore.Internal.Correction>
   9.000000E+99

> <Gold.Chemscore.Hbonds>
donor molecule, donor type, donor heavy atom, donor atom, acceptor molecule, acceptor atom, score
      L1  H    10    30       P1  7948  0.09
      L1  H    13    47       P1  7948  0.97

> <Gold.Chemscore.Hbond.Weighted>
-3.5540

> <Gold.Chemscore.Metal.Weighted>
-0.0000

> <Gold.Chemscore.Lipo.Weighted>
-8.8619

> <Gold.Chemscore.Internal_Hbond.Weighted>
0.0000

> <Gold.Chemscore.DEClash.Weighted>
0.1117

> <Gold.Chemscore.DEInternal.Weighted>
0.6459

> <Gold.Chemscore.Rot.Weighted>
4.2641

> <Gold.Chemscore.Internal.Correction.Weighted>
   9.000000E+99

> <Gold.Protein.RotatedTorsions>
[ 6907 6896 6895 6894 ] final  -27.08 input  -60.11 | X-H torsion
[ 7974 7965 7964 7962 ] final -127.08 input  175.53 | X-H torsion
[ 8008 7997 7996 7995 ] final  131.41 input   59.86 | X-H torsion
[ 10167 10162 10161 10158 ] final  170.72 input  -65.29 | X-H torsion
[ 10718 10713 10712 10709 ] final -124.43 input   66.30 | X-H torsion
[ 10763 10752 10751 10750 ] final  103.36 input  -60.55 | X-H torsion
[ 11005 11000 10999 10996 ] final  -78.69 input  -57.11 | X-H torsion

> <Gold.Protein.ActiveResidues>
 VAL166  LYS551  ARG553  GLY616  TRP617  ASP618  TYR619  PRO620  LYS621  CYS622 
 ASP623  PHE694  ASN695  SER759  ASP760  ASP761  ALA762  ILE779  LEU786  VAL792 
 PHE793  MET794  SER795  GLU796  ALA797  LYS798  CYS799  TRP800  GLU811  SER814 

> <Gold.Protein.RotatedAtoms>
  151.1519  135.0231  159.8671 H   0  0  0  0  0  0  0  0  0  0  0  0  # atno 6907 bound_to 6896
  152.5452  134.1379  159.8476 H   0  0  0  0  0  0  0  0  0  0  0  0  # atno 6908 bound_to 6896
  151.1465  133.4890  159.2628 H   0  0  0  0  0  0  0  0  0  0  0  0  # atno 6909 bound_to 6896
  144.9807  140.7637  143.4614 H   0  0  0  0  0  0  0  0  0  0  0  0  # atno 7974 bound_to 7965
  156.2969  140.2572  156.2920 H   0  0  0  0  0  0  0  0  0  0  0  0  # atno 8008 bound_to 7997
  154.9500  140.0394  157.2158 H   0  0  0  0  0  0  0  0  0  0  0  0  # atno 8009 bound_to 7997
  154.8045  140.2834  155.5902 H   0  0  0  0  0  0  0  0  0  0  0  0  # atno 8010 bound_to 7997
  139.5026  144.3565  151.9869 H   0  0  0  0  0  0  0  0  0  0  0  0  # atno 10167 bound_to 10162
  156.1587  130.6586  151.0018 H   0  0  0  0  0  0  0  0  0  0  0  0  # atno 10718 bound_to 10713
  153.3516  135.3979  155.1650 H   0  0  0  0  0  0  0  0  0  0  0  0  # atno 10763 bound_to 10752
  154.8663  135.3658  154.5214 H   0  0  0  0  0  0  0  0  0  0  0  0  # atno 10764 bound_to 10752
  153.5667  135.7080  153.5583 H   0  0  0  0  0  0  0  0  0  0  0  0  # atno 10765 bound_to 10752
  141.1665  133.7074  156.8009 H   0  0  0  0  0  0  0  0  0  0  0  0  # atno 11005 bound_to 11000
  145.2425  139.2066  143.4985 LP  0  0  0  0  0  0  0  0  0  0  0  0  # atno 17320 bound_to 7965
  146.3407  140.2324  142.8593 LP  0  0  0  0  0  0  0  0  0  0  0  0  # atno 17321 bound_to 7965
  140.3001  144.3656  150.6063 LP  0  0  0  0  0  0  0  0  0  0  0  0  # atno 17342 bound_to 10162
  140.5880  143.2169  151.7306 LP  0  0  0  0  0  0  0  0  0  0  0  0  # atno 17343 bound_to 10162
  157.6715  131.0860  150.7600 LP  0  0  0  0  0  0  0  0  0  0  0  0  # atno 17370 bound_to 10713
  156.7664  130.4815  149.5427 LP  0  0  0  0  0  0  0  0  0  0  0  0  # atno 17371 bound_to 10713
  140.2257  134.8724  157.3424 LP  0  0  0  0  0  0  0  0  0  0  0  0  # atno 17394 bound_to 11000
  140.1942  134.4334  155.7698 LP  0  0  0  0  0  0  0  0  0  0  0  0  # atno 17395 bound_to 11000

$$$$
