AV-unprocessed.smi:174|AV-procd|sdf|1426|dock7
  -GOLD-   2262019203D 1   1.00000     0.00000
 Structure written by MMmdl.
 51 54  0  0  0  0  0  0  0  0  1 V2000
  148.6471  131.5882  152.6699 N   0  0  0  0  0  0  0  0  0  0  0  0
  149.1181  131.0153  153.7797 C   0  0  0  0  0  0  0  0  0  0  0  0
  149.7418  129.9551  153.7523 O   0  0  0  0  0  0  0  0  0  0  0  0
  148.8234  131.7378  155.1023 C   0  0  0  0  0  0  0  0  0  0  0  0
  149.4535  133.0648  155.1988 N   0  0  0  0  0  0  0  0  0  0  0  0
  150.9177  133.0945  155.2774 C   0  0  0  0  0  0  0  0  0  0  0  0
  151.4243  134.2757  156.1105 C   0  0  0  0  0  0  0  0  0  0  0  0
  150.8564  135.5225  155.6133 N   0  0  0  0  0  0  0  0  0  0  0  0
  151.4637  136.7083  155.8977 C   0  0  0  0  0  0  0  0  0  0  0  0
  152.7961  136.6840  156.1687 N   0  0  0  0  0  0  0  0  0  0  0  0
  153.4553  137.8066  156.4653 C   0  0  0  0  0  0  0  0  0  0  0  0
  152.9866  139.0520  156.5425 N   0  0  0  0  0  0  0  0  0  0  0  0
  151.6532  139.0939  156.2622 C   0  0  0  0  0  0  0  0  0  0  0  0
  150.8198  137.9843  155.9332 C   0  0  0  0  0  0  0  0  0  0  0  0
  149.5235  138.4368  155.7017 N   0  0  0  0  0  0  0  0  0  0  0  0
  149.5850  139.7254  155.8953 C   0  0  0  0  0  0  0  0  0  0  0  0
  150.8274  140.2039  156.2364 N   0  0  0  0  0  0  0  0  0  0  0  0
  151.1794  141.5867  156.5081 C   0  0  0  0  0  0  0  0  0  0  0  0
  151.6449  141.8030  157.9617 C   0  0  1  0  0  0  0  0  0  0  0  0
  152.8448  141.0862  158.1835 O   0  0  0  0  0  0  0  0  0  0  0  0
  151.8906  143.2902  158.2760 C   0  0  2  0  0  0  0  0  0  0  0  0
  152.4841  143.5586  159.6589 C   0  0  0  0  0  0  0  0  0  0  0  0
  152.0876  144.9992  159.9339 C   0  0  0  0  0  0  0  0  0  0  0  0
  150.9185  145.2500  158.9765 C   0  0  0  0  0  0  0  0  0  0  0  0
  150.6631  143.9983  158.3523 O   0  0  0  0  0  0  0  0  0  0  0  0
  149.4272  135.5679  155.2634 C   0  0  0  0  0  0  0  0  0  0  0  0
  148.7202  134.2038  155.1463 C   0  0  0  0  0  0  0  0  0  0  0  0
  147.4953  134.1982  155.0212 O   0  0  0  0  0  0  0  0  0  0  0  0
  148.8185  131.1576  151.7727 H   0  0  0  0  0  0  0  0  0  0  0  0
  148.1275  132.4519  152.7287 H   0  0  0  0  0  0  0  0  0  0  0  0
  147.7429  131.8264  155.2312 H   0  0  0  0  0  0  0  0  0  0  0  0
  149.1573  131.0982  155.9197 H   0  0  0  0  0  0  0  0  0  0  0  0
  151.3076  132.1685  155.7004 H   0  0  0  0  0  0  0  0  0  0  0  0
  151.3117  133.1612  154.2622 H   0  0  0  0  0  0  0  0  0  0  0  0
  151.1513  134.1439  157.1584 H   0  0  0  0  0  0  0  0  0  0  0  0
  152.5128  134.2976  156.0496 H   0  0  0  0  0  0  0  0  0  0  0  0
  154.5093  137.6896  156.6701 H   0  0  0  0  0  0  0  0  0  0  0  0
  148.7209  140.3659  155.7946 H   0  0  0  0  0  0  0  0  0  0  0  0
  151.9574  141.8952  155.8085 H   0  0  0  0  0  0  0  0  0  0  0  0
  150.3079  142.2065  156.2942 H   0  0  0  0  0  0  0  0  0  0  0  0
  150.8898  141.4089  158.6430 H   0  0  0  0  0  0  0  0  0  0  0  0
  152.9037  140.8762  159.1031 H   0  0  0  0  0  0  0  0  0  0  0  0
  152.5151  143.7476  157.5058 H   0  0  0  0  0  0  0  0  0  0  0  0
  152.0224  142.9049  160.4002 H   0  0  0  0  0  0  0  0  0  0  0  0
  153.5623  143.4009  159.6957 H   0  0  0  0  0  0  0  0  0  0  0  0
  151.8036  145.1415  160.9770 H   0  0  0  0  0  0  0  0  0  0  0  0
  152.9105  145.6801  159.7135 H   0  0  0  0  0  0  0  0  0  0  0  0
  150.0285  145.6127  159.4911 H   0  0  0  0  0  0  0  0  0  0  0  0
  151.1950  145.9828  158.2172 H   0  0  0  0  0  0  0  0  0  0  0  0
  148.8959  136.1646  156.0067 H   0  0  0  0  0  0  0  0  0  0  0  0
  149.3067  136.0720  154.3036 H   0  0  0  0  0  0  0  0  0  0  0  0
  1  2  1  0  0  0  0
  1 29  1  0  0  0  0
  1 30  1  0  0  0  0
  2  3  2  0  0  0  0
  2  4  1  0  0  0  0
  4  5  1  0  0  0  0
  4 31  1  0  0  0  0
  4 32  1  0  0  0  0
  5 27  1  0  0  0  0
  5  6  1  0  0  0  0
  6  7  1  0  0  0  0
  6 33  1  0  0  0  0
  6 34  1  0  0  0  0
  7  8  1  0  0  0  0
  7 35  1  0  0  0  0
  7 36  1  0  0  0  0
  8  9  1  0  0  0  0
  8 26  1  0  0  0  0
  9 14  1  0  0  0  0
  9 10  2  0  0  0  0
 10 11  1  0  0  0  0
 11 12  2  0  0  0  0
 11 37  1  0  0  0  0
 12 13  1  0  0  0  0
 13 17  1  0  0  0  0
 13 14  2  0  0  0  0
 14 15  1  0  0  0  0
 15 16  2  0  0  0  0
 16 17  1  0  0  0  0
 16 38  1  0  0  0  0
 17 18  1  0  0  0  0
 18 19  1  0  0  0  0
 18 39  1  0  0  0  0
 18 40  1  0  0  0  0
 19 20  1  0  0  0  0
 19 21  1  0  0  0  0
 19 41  1  0  0  0  0
 20 42  1  0  0  0  0
 21 25  1  0  0  0  0
 21 22  1  0  0  0  0
 21 43  1  0  0  0  0
 22 23  1  0  0  0  0
 22 44  1  0  0  0  0
 22 45  1  0  0  0  0
 23 24  1  0  0  0  0
 23 46  1  0  0  0  0
 23 47  1  0  0  0  0
 24 25  1  0  0  0  0
 24 48  1  0  0  0  0
 24 49  1  0  0  0  0
 26 27  1  0  0  0  0
 26 50  1  0  0  0  0
 26 51  1  0  0  0  0
 27 28  2  0  0  0  0
M  END
> <s_m_source_file>
AV-unprocessed.smi

> <i_m_source_file_index>
174

> <i_lp_mmshare_version>
43012

> <i_f3d_flags>
0

> <s_epik_input>
W05IMl1DKD1PKVtDSDJdTjFbQ0gyXVtDSDJdTihbQ0gyXUMxPU8pYyhuW2NIXW4yKWMoYzIzKW5bY0hdbjNbQ0gyXVtDQEhdKFtPSF0pW0NAQEhdNFtDSDJdW0NIMl1bQ0gyXU80

> <s_epik_cmdline>
J2VwaWtfcHl0aG9uJywgJy1waCcsICc3LjAnLCAnLXRuJywgJzgnLCAnLW1hJywgJzIwMCcsICctbWV0YWxfYmluZGluZycsICctaW1hZScsICc8aW5maWxlLm1hZT4nLCAnLW9tYWUnLCAnPG91dGZpbGUubWFlPic=

> <r_lp_tautomer_probability>
1

> <r_epik_Ionization_Penalty>
0.000250477

> <r_epik_Ionization_Penalty_Charging>
0

> <r_epik_Ionization_Penalty_Neutral>
0.000250477

> <r_epik_State_Penalty>
-0

> <r_epik_Charging_Adjusted_Penalty>
0

> <i_epik_Tot_Q>
0

> <i_epik_Tot_abs_Q>
0

> <r_epik_Metal_State_Penalty>
-0

> <b_epik_Metal_Only>
0

> <s_lp_Force_Field>
OPLS_2005

> <r_lp_Energy>
35.93

> <b_lp_Chiralities_Consistent>
1

> <s_lp_Variant>
AV-unprocessed.smi:174-2

> <Gold.Version>
5.8.1

> <Gold.Id.Protein>
6NUR|6NUR_protein|mol2

> <Gold.PLP.Fitness>
48.5858

> <Gold.PLP.PLP>
-40.0442

> <Gold.PLP.part.hbond>
-3.5068

> <Gold.PLP.part.metal>
0.0000

> <Gold.PLP.part.buried>
-5.8720

> <Gold.PLP.part.nonpolar>
-31.1665

> <Gold.PLP.part.repulsive>
0.4062

> <Gold.PLP.ligand.clash>
0.0000

> <Gold.PLP.ligand.torsion>
0.3453

> <Gold.PLP.Chemscore.Hbond>
3.0000

> <Gold.PLP.Chemscore.CHOScore>
0.0000

> <Gold.PLP.Chemscore.Metal>
0.0000

> <Gold.Chemscore.Hbonds>
donor molecule, donor type, donor heavy atom, donor atom, acceptor molecule, acceptor atom, score
      L1  H     1    29       P1 10747  0.96
      P1  H  7997  8010       L1    12  1.00
      P1  H 10752 10764       L1    10  0.85

> <Gold.PLP.Chemscore.Internal.Correction>
0.2322

> <Gold.Rescore>
     Score         DG    S(hbond)    S(metal)    S(lipo)     H(rot)  DE(clash)    DE(int)     intcor
     12.75     -14.40       2.55        0.00      79.24       3.46       0.06       1.59       ----

> <Gold.Chemscore.Fitness>
12.7491

> <Gold.Chemscore.DG>
-14.3979

> <Gold.Chemscore.ZeroCoef>
-5.4800

> <Gold.Chemscore.Hbond>
2.5457

> <Gold.Chemscore.Metal>
0.0000

> <Gold.Chemscore.Lipo>
79.2366

> <Gold.Chemscore.Internal_Hbond>
0.0000

> <Gold.Chemscore.DEClash>
0.0580

> <Gold.Chemscore.DEInternal>
1.5908

> <Gold.Chemscore.Rot>
3.4591

> <Gold.Chemscore.Internal.Correction>
   9.000000E+99

> <Gold.Chemscore.Hbonds>
donor molecule, donor type, donor heavy atom, donor atom, acceptor molecule, acceptor atom, score
      L1  H     1    29       P1 10747  0.77
      P1  H  7997  8010       L1    12  0.55
      P1  H 10752 10764       L1    10  0.47

> <Gold.Chemscore.Hbond.Weighted>
-8.5025

> <Gold.Chemscore.Metal.Weighted>
-0.0000

> <Gold.Chemscore.Lipo.Weighted>
-9.2707

> <Gold.Chemscore.Internal_Hbond.Weighted>
0.0000

> <Gold.Chemscore.DEClash.Weighted>
0.0580

> <Gold.Chemscore.DEInternal.Weighted>
1.5908

> <Gold.Chemscore.Rot.Weighted>
8.8553

> <Gold.Chemscore.Internal.Correction.Weighted>
   9.000000E+99

> <Gold.Protein.RotatedTorsions>
[ 6907 6896 6895 6894 ] final  127.73 input  -60.11 | X-H torsion
[ 7974 7965 7964 7962 ] final  -63.25 input  175.53 | X-H torsion
[ 8008 7997 7996 7995 ] final   62.03 input   59.86 | X-H torsion
[ 10167 10162 10161 10158 ] final  148.02 input  -65.29 | X-H torsion
[ 10718 10713 10712 10709 ] final  126.20 input   66.30 | X-H torsion
[ 10763 10752 10751 10750 ] final   -8.83 input  -60.55 | X-H torsion
[ 11005 11000 10999 10996 ] final  165.68 input  -57.11 | X-H torsion

> <Gold.Protein.ActiveResidues>
 VAL166  LYS551  ARG553  GLY616  TRP617  ASP618  TYR619  PRO620  LYS621  CYS622 
 ASP623  PHE694  ASN695  SER759  ASP760  ASP761  ALA762  ILE779  LEU786  VAL792 
 PHE793  MET794  SER795  GLU796  ALA797  LYS798  CYS799  TRP800  GLU811  SER814 

> <Gold.Protein.RotatedAtoms>
  152.3785  133.6514  159.6142 H   0  0  0  0  0  0  0  0  0  0  0  0  # atno 6907 bound_to 6896
  150.7722  133.9153  159.3390 H   0  0  0  0  0  0  0  0  0  0  0  0  # atno 6908 bound_to 6896
  151.6963  135.0939  160.0294 H   0  0  0  0  0  0  0  0  0  0  0  0  # atno 6909 bound_to 6896
  145.7813  140.8760  143.0328 H   0  0  0  0  0  0  0  0  0  0  0  0  # atno 7974 bound_to 7965
  155.6079  140.3494  155.4613 H   0  0  0  0  0  0  0  0  0  0  0  0  # atno 8008 bound_to 7997
  156.0177  140.1247  157.0413 H   0  0  0  0  0  0  0  0  0  0  0  0  # atno 8009 bound_to 7997
  154.4304  140.1069  156.5906 H   0  0  0  0  0  0  0  0  0  0  0  0  # atno 8010 bound_to 7997
  139.4881  144.5711  151.7052 H   0  0  0  0  0  0  0  0  0  0  0  0  # atno 10167 bound_to 10162
  157.5439  131.1096  150.8813 H   0  0  0  0  0  0  0  0  0  0  0  0  # atno 10718 bound_to 10713
  153.4461  135.7014  153.6138 H   0  0  0  0  0  0  0  0  0  0  0  0  # atno 10763 bound_to 10752
  153.4492  135.3762  155.2274 H   0  0  0  0  0  0  0  0  0  0  0  0  # atno 10764 bound_to 10752
  154.8728  135.3993  154.3867 H   0  0  0  0  0  0  0  0  0  0  0  0  # atno 10765 bound_to 10752
  140.2586  134.7920  157.3569 H   0  0  0  0  0  0  0  0  0  0  0  0  # atno 11005 bound_to 11000
  144.6796  139.9993  143.7484 LP  0  0  0  0  0  0  0  0  0  0  0  0  # atno 17320 bound_to 7965
  146.0071  139.3138  143.0893 LP  0  0  0  0  0  0  0  0  0  0  0  0  # atno 17321 bound_to 7965
  140.5299  144.0747  150.6050 LP  0  0  0  0  0  0  0  0  0  0  0  0  # atno 17342 bound_to 10162
  140.3733  143.2842  152.0253 LP  0  0  0  0  0  0  0  0  0  0  0  0  # atno 17343 bound_to 10162
  156.9358  130.5366  149.5279 LP  0  0  0  0  0  0  0  0  0  0  0  0  # atno 17370 bound_to 10713
  156.0519  130.5587  150.9009 LP  0  0  0  0  0  0  0  0  0  0  0  0  # atno 17371 bound_to 10713
  140.1487  134.4878  155.7977 LP  0  0  0  0  0  0  0  0  0  0  0  0  # atno 17394 bound_to 11000
  141.2193  133.6854  156.7339 LP  0  0  0  0  0  0  0  0  0  0  0  0  # atno 17395 bound_to 11000

$$$$
