AV-unprocessed.smi:771|AV-procd|sdf|3684|dock8
  -GOLD-   22720 1103D 1   1.00000     0.00000
 Structure written by MMmdl.
 41 42  0  0  0  0  0  0  0  0  3 V2000
  147.0252  135.9350  155.9089 O   0  0  0  0  0  0  0  0  0  0  0  0
  147.7622  135.7777  154.9344 C   0  0  0  0  0  0  0  0  0  0  0  0
  149.2892  135.7393  155.0916 C   0  0  0  0  0  0  0  0  0  0  0  0
  149.9147  137.0716  155.0481 N   0  0  0  0  0  0  0  0  0  0  0  0
  149.1033  138.1387  154.6146 C   0  0  0  0  0  0  0  0  0  0  0  0
  149.5614  139.4037  154.5425 C   0  0  0  0  0  0  0  0  0  0  0  0
  148.7118  140.4875  154.1003 N   0  3  0  0  0  0  0  0  0  0  0  0
  149.1789  141.6211  154.0560 O   0  0  0  0  0  0  0  0  0  0  0  0
  147.5515  140.2430  153.7829 O   0  5  0  0  0  0  0  0  0  0  0  0
  150.9384  139.6445  154.9279 C   0  0  0  0  0  0  0  0  0  0  0  0
  151.7184  138.6289  155.3481 C   0  0  0  0  0  0  0  0  0  0  0  0
  151.2153  137.2538  155.4318 C   0  0  0  0  0  0  0  0  0  0  0  0
  151.9198  136.3237  155.8242 O   0  0  0  0  0  0  0  0  0  0  0  0
  147.3009  135.6325  153.6832 N   0  0  0  0  0  0  0  0  0  0  0  0
  145.8928  135.6621  153.2988 C   0  0  0  0  0  0  0  0  0  0  0  0
  145.4177  134.3406  152.6450 C   0  0  1  0  0  0  0  0  0  0  0  0
  143.9897  134.4749  152.0652 C   0  0  0  0  0  0  0  0  0  0  0  0
  143.5149  133.1798  151.3891 C   0  0  0  0  0  0  0  0  0  0  0  0
  144.4923  132.7379  150.2923 C   0  0  0  0  0  0  0  0  0  0  0  0
  145.9085  132.5724  150.8598 C   0  0  0  0  0  0  0  0  0  0  0  0
  146.3959  133.8638  151.5429 C   0  0  2  0  0  0  0  0  0  0  0  0
  147.6717  133.6061  152.0946 O   0  0  0  0  0  0  0  0  0  0  0  0
  149.5316  135.2237  156.0224 H   0  0  0  0  0  0  0  0  0  0  0  0
  149.7064  135.1102  154.3034 H   0  0  0  0  0  0  0  0  0  0  0  0
  148.0926  137.8553  154.3572 H   0  0  0  0  0  0  0  0  0  0  0  0
  151.3542  140.6404  154.8836 H   0  0  0  0  0  0  0  0  0  0  0  0
  152.7410  138.8315  155.6311 H   0  0  0  0  0  0  0  0  0  0  0  0
  147.9730  135.5013  152.9410 H   0  0  0  0  0  0  0  0  0  0  0  0
  145.3049  135.8640  154.1945 H   0  0  0  0  0  0  0  0  0  0  0  0
  145.7282  136.5083  152.6300 H   0  0  0  0  0  0  0  0  0  0  0  0
  145.3881  133.5692  153.4162 H   0  0  0  0  0  0  0  0  0  0  0  0
  143.2817  134.7393  152.8509 H   0  0  0  0  0  0  0  0  0  0  0  0
  143.9638  135.2905  151.3413 H   0  0  0  0  0  0  0  0  0  0  0  0
  143.4194  132.3905  152.1361 H   0  0  0  0  0  0  0  0  0  0  0  0
  142.5212  133.3257  150.9646 H   0  0  0  0  0  0  0  0  0  0  0  0
  144.1561  131.8003  149.8490 H   0  0  0  0  0  0  0  0  0  0  0  0
  144.5018  133.4757  149.4889 H   0  0  0  0  0  0  0  0  0  0  0  0
  145.9139  131.7489  151.5757 H   0  0  0  0  0  0  0  0  0  0  0  0
  146.5937  132.2905  150.0593 H   0  0  0  0  0  0  0  0  0  0  0  0
  146.5063  134.6465  150.7911 H   0  0  0  0  0  0  0  0  0  0  0  0
  148.0874  134.4320  152.2907 H   0  0  0  0  0  0  0  0  0  0  0  0
  1  2  2  0  0  0  0
  2  3  1  0  0  0  0
  2 14  1  0  0  0  0
  3  4  1  0  0  0  0
  3 23  1  0  0  0  0
  3 24  1  0  0  0  0
  4 12  1  0  0  0  0
  4  5  1  0  0  0  0
  5  6  2  0  0  0  0
  5 25  1  0  0  0  0
  6  7  1  0  0  0  0
  6 10  1  0  0  0  0
  7  8  2  0  0  0  0
  7  9  1  0  0  0  0
 10 11  2  0  0  0  0
 10 26  1  0  0  0  0
 11 12  1  0  0  0  0
 11 27  1  0  0  0  0
 12 13  2  0  0  0  0
 14 15  1  0  0  0  0
 14 28  1  0  0  0  0
 15 16  1  0  0  0  0
 15 29  1  0  0  0  0
 15 30  1  0  0  0  0
 16 21  1  0  0  0  0
 16 17  1  0  0  0  0
 16 31  1  0  0  0  0
 17 18  1  0  0  0  0
 17 32  1  0  0  0  0
 17 33  1  0  0  0  0
 18 19  1  0  0  0  0
 18 34  1  0  0  0  0
 18 35  1  0  0  0  0
 19 20  1  0  0  0  0
 19 36  1  0  0  0  0
 19 37  1  0  0  0  0
 20 21  1  0  0  0  0
 20 38  1  0  0  0  0
 20 39  1  0  0  0  0
 21 22  1  0  0  0  0
 21 40  1  0  0  0  0
 22 41  1  0  0  0  0
M  CHG  1   7   1
M  CHG  1   9  -1
M  END
> <s_m_source_file>
AV-unprocessed.smi

> <i_m_source_file_index>
771

> <i_lp_mmshare_version>
43012

> <i_f3d_flags>
0

> <s_epik_input>
Tz1jMVtjSF1bY0hdYyhbTitdKD1PKVtPLV0pW2NIXW4xW0NIMl1DKD1PKVtOSF1bQ0gyXVtDQEBIXTJbQ0gyXVtDSDJdW0NIMl1bQ0gyXVtDQEhdMltPSF0=

> <s_epik_cmdline>
J2VwaWtfcHl0aG9uJywgJy1waCcsICc3LjAnLCAnLXRuJywgJzgnLCAnLW1hJywgJzIwMCcsICctbWV0YWxfYmluZGluZycsICctaW1hZScsICc8aW5maWxlLm1hZT4nLCAnLW9tYWUnLCAnPG91dGZpbGUubWFlPic=

> <r_lp_tautomer_probability>
1

> <r_epik_Ionization_Penalty>
3.77175e-07

> <r_epik_Ionization_Penalty_Charging>
7.70067e-11

> <r_epik_Ionization_Penalty_Neutral>
3.77098e-07

> <r_epik_State_Penalty>
-0

> <r_epik_Charging_Adjusted_Penalty>
7.70067e-11

> <i_epik_Tot_Q>
0

> <i_epik_Tot_abs_Q>
2

> <r_epik_Metal_State_Penalty>
-0

> <b_epik_Metal_Only>
0

> <s_lp_Force_Field>
OPLS_2005

> <r_lp_Energy>
22.9473

> <b_lp_Chiralities_Consistent>
1

> <s_lp_Variant>
AV-unprocessed.smi:771-4

> <Gold.Version>
5.8.1

> <Gold.Id.Protein>
6NUR|6NUR_protein|mol2

> <Gold.PLP.Fitness>
43.1148

> <Gold.PLP.PLP>
-34.2230

> <Gold.PLP.part.hbond>
-4.8996

> <Gold.PLP.part.metal>
0.0000

> <Gold.PLP.part.buried>
-2.4974

> <Gold.PLP.part.nonpolar>
-27.0129

> <Gold.PLP.part.repulsive>
0.3956

> <Gold.PLP.ligand.clash>
0.5823

> <Gold.PLP.ligand.torsion>
0.5587

> <Gold.PLP.Chemscore.Hbond>
3.5180

> <Gold.PLP.Chemscore.CHOScore>
0.0000

> <Gold.PLP.Chemscore.Metal>
0.0000

> <Gold.Chemscore.Hbonds>
donor molecule, donor type, donor heavy atom, donor atom, acceptor molecule, acceptor atom, score
      L1  H    14    28       P1  7948  0.94
      L1  H    22    41       P1  7948  0.90
      P1  H  8011  8017       L1     8  0.61
      P1  H 10752 10764       L1    13  1.00

> <Gold.PLP.Chemscore.Internal.Correction>
0.0375

> <Gold.Rescore>
     Score         DG    S(hbond)    S(metal)    S(lipo)     H(rot)  DE(clash)    DE(int)     intcor
     14.02     -16.39       2.69        0.00      70.71       2.48       0.15       2.22       ----

> <Gold.Chemscore.Fitness>
14.0197

> <Gold.Chemscore.DG>
-16.3922

> <Gold.Chemscore.ZeroCoef>
-5.4800

> <Gold.Chemscore.Hbond>
2.6873

> <Gold.Chemscore.Metal>
0.0000

> <Gold.Chemscore.Lipo>
70.7130

> <Gold.Chemscore.Internal_Hbond>
0.0000

> <Gold.Chemscore.DEClash>
0.1547

> <Gold.Chemscore.DEInternal>
2.2178

> <Gold.Chemscore.Rot>
2.4753

> <Gold.Chemscore.Internal.Correction>
   9.000000E+99

> <Gold.Chemscore.Hbonds>
donor molecule, donor type, donor heavy atom, donor atom, acceptor molecule, acceptor atom, score
      L1  H    14    28       P1  7948  0.90
      L1  H    22    41       P1  7948  0.17
      P1  H  8011  8017       L1     8  0.59
      P1  H 10752 10764       L1    13  0.99

> <Gold.Chemscore.Hbond.Weighted>
-8.9756

> <Gold.Chemscore.Metal.Weighted>
-0.0000

> <Gold.Chemscore.Lipo.Weighted>
-8.2734

> <Gold.Chemscore.Internal_Hbond.Weighted>
0.0000

> <Gold.Chemscore.DEClash.Weighted>
0.1547

> <Gold.Chemscore.DEInternal.Weighted>
2.2178

> <Gold.Chemscore.Rot.Weighted>
6.3369

> <Gold.Chemscore.Internal.Correction.Weighted>
   9.000000E+99

> <Gold.Protein.RotatedTorsions>
[ 6907 6896 6895 6894 ] final   57.89 input  -60.11 | X-H torsion
[ 7974 7965 7964 7962 ] final  106.01 input  175.53 | X-H torsion
[ 8008 7997 7996 7995 ] final  -44.14 input   59.86 | X-H torsion
[ 10167 10162 10161 10158 ] final  -47.34 input  -65.29 | X-H torsion
[ 10718 10713 10712 10709 ] final  148.81 input   66.30 | X-H torsion
[ 10763 10752 10751 10750 ] final  -47.43 input  -60.55 | X-H torsion
[ 11005 11000 10999 10996 ] final   99.67 input  -57.11 | X-H torsion

> <Gold.Protein.ActiveResidues>
 VAL166  LYS551  ARG553  GLY616  TRP617  ASP618  TYR619  PRO620  LYS621  CYS622 
 ASP623  PHE694  ASN695  SER759  ASP760  ASP761  ALA762  ILE779  LEU786  VAL792 
 PHE793  MET794  SER795  GLU796  ALA797  LYS798  CYS799  TRP800  GLU811  SER814 

> <Gold.Protein.RotatedAtoms>
  152.3773  134.6644  160.0155 H   0  0  0  0  0  0  0  0  0  0  0  0  # atno 6907 bound_to 6896
  151.6918  133.3305  159.3253 H   0  0  0  0  0  0  0  0  0  0  0  0  # atno 6908 bound_to 6896
  150.7719  134.6627  159.6393 H   0  0  0  0  0  0  0  0  0  0  0  0  # atno 6909 bound_to 6896
  145.3121  139.2537  143.3757 H   0  0  0  0  0  0  0  0  0  0  0  0  # atno 7974 bound_to 7965
  154.3997  140.1430  156.3634 H   0  0  0  0  0  0  0  0  0  0  0  0  # atno 8008 bound_to 7997
  155.8160  140.3471  155.5465 H   0  0  0  0  0  0  0  0  0  0  0  0  # atno 8009 bound_to 7997
  155.8337  140.0916  157.1767 H   0  0  0  0  0  0  0  0  0  0  0  0  # atno 8010 bound_to 7997
  140.6779  143.2789  151.3912 H   0  0  0  0  0  0  0  0  0  0  0  0  # atno 10167 bound_to 10162
  157.3039  131.0876  151.1368 H   0  0  0  0  0  0  0  0  0  0  0  0  # atno 10718 bound_to 10713
  154.0613  135.6617  153.4812 H   0  0  0  0  0  0  0  0  0  0  0  0  # atno 10763 bound_to 10752
  153.0426  135.5135  154.7656 H   0  0  0  0  0  0  0  0  0  0  0  0  # atno 10764 bound_to 10752
  154.6693  135.3027  154.9730 H   0  0  0  0  0  0  0  0  0  0  0  0  # atno 10765 bound_to 10752
  139.8770  134.9106  156.4641 H   0  0  0  0  0  0  0  0  0  0  0  0  # atno 11005 bound_to 11000
  146.3114  140.3660  142.8669 LP  0  0  0  0  0  0  0  0  0  0  0  0  # atno 17320 bound_to 7965
  144.9007  140.7639  143.5869 LP  0  0  0  0  0  0  0  0  0  0  0  0  # atno 17321 bound_to 7965
  139.6083  144.1151  152.2272 LP  0  0  0  0  0  0  0  0  0  0  0  0  # atno 17342 bound_to 10162
  140.0557  144.5897  150.7301 LP  0  0  0  0  0  0  0  0  0  0  0  0  # atno 17343 bound_to 10162
  157.2717  130.6707  149.6022 LP  0  0  0  0  0  0  0  0  0  0  0  0  # atno 17370 bound_to 10713
  155.9673  130.4477  150.5591 LP  0  0  0  0  0  0  0  0  0  0  0  0  # atno 17371 bound_to 10713
  140.8842  133.7895  155.9500 LP  0  0  0  0  0  0  0  0  0  0  0  0  # atno 17394 bound_to 11000
  140.8821  134.2598  157.5138 LP  0  0  0  0  0  0  0  0  0  0  0  0  # atno 17395 bound_to 11000

$$$$
