AV-unprocessed.smi:826|AV-procd|sdf|3853|dock5
  -GOLD-   22720 1303D 1   1.00000     0.00000
 Structure written by MMmdl.
 39 40  0  0  0  0  0  0  0  0  1 V2000
  152.1667  140.3834  158.2311 C   0  0  0  0  0  0  0  0  0  0  0  0
  151.6920  139.9075  156.9010 C   0  0  0  0  0  0  0  0  0  0  0  0
  152.5071  139.7911  155.8460 N   0  0  0  0  0  0  0  0  0  0  0  0
  151.8434  139.3334  154.7163 N   0  0  0  0  0  0  0  0  0  0  0  0
  150.5423  139.1172  154.9542 C   0  0  0  0  0  0  0  0  0  0  0  0
  149.6267  138.6557  153.9719 N   0  0  0  0  0  0  0  0  0  0  0  0
  148.3445  139.0185  153.7939 C   0  0  0  0  0  0  0  0  0  0  0  0
  147.7477  139.8729  154.4500 O   0  0  0  0  0  0  0  0  0  0  0  0
  147.7760  138.3235  152.7964 N   0  0  0  0  0  0  0  0  0  0  0  0
  146.3809  138.4462  152.3755 C   0  0  1  0  0  0  0  0  0  0  0  0
  146.3562  138.6881  150.8571 C   0  0  0  0  0  0  0  0  0  0  0  0
  145.6148  137.1481  152.6760 C   0  0  0  0  0  0  0  0  0  0  0  0
  144.5540  137.1779  153.3021 O   0  0  0  0  0  0  0  0  0  0  0  0
  146.1697  136.0147  152.2214 N   0  0  0  0  0  0  0  0  0  0  0  0
  145.5947  134.6806  152.3671 C   0  0  0  0  0  0  0  0  0  0  0  0
  146.4872  133.6224  151.6907 C   0  0  0  0  0  0  0  0  0  0  0  0
  145.5538  132.7650  150.8343 C   0  0  0  0  0  0  0  0  0  0  0  0
  144.4284  133.7144  150.4376 C   0  0  0  0  0  0  0  0  0  0  0  0
  144.2180  134.5826  151.6783 C   0  0  0  0  0  0  0  0  0  0  0  0
  150.0184  139.4575  156.5947 S   0  0  0  0  0  0  0  0  0  0  0  0
  152.9759  139.7469  158.5901 H   0  0  0  0  0  0  0  0  0  0  0  0
  151.3537  140.3577  158.9568 H   0  0  0  0  0  0  0  0  0  0  0  0
  152.5327  141.4074  158.1528 H   0  0  0  0  0  0  0  0  0  0  0  0
  149.9841  137.9506  153.3443 H   0  0  0  0  0  0  0  0  0  0  0  0
  148.3368  137.6385  152.3116 H   0  0  0  0  0  0  0  0  0  0  0  0
  145.9139  139.2907  152.8865 H   0  0  0  0  0  0  0  0  0  0  0  0
  145.3341  138.7867  150.4894 H   0  0  0  0  0  0  0  0  0  0  0  0
  146.8304  137.8737  150.3070 H   0  0  0  0  0  0  0  0  0  0  0  0
  146.8826  139.6082  150.6011 H   0  0  0  0  0  0  0  0  0  0  0  0
  147.0413  136.0833  151.7163 H   0  0  0  0  0  0  0  0  0  0  0  0
  145.4893  134.4415  153.4270 H   0  0  0  0  0  0  0  0  0  0  0  0
  147.2245  134.0980  151.0421 H   0  0  0  0  0  0  0  0  0  0  0  0
  147.0377  133.0236  152.4168 H   0  0  0  0  0  0  0  0  0  0  0  0
  146.0583  132.3267  149.9728 H   0  0  0  0  0  0  0  0  0  0  0  0
  145.1493  131.9492  151.4346 H   0  0  0  0  0  0  0  0  0  0  0  0
  144.7507  134.3385  149.6031 H   0  0  0  0  0  0  0  0  0  0  0  0
  143.5227  133.1899  150.1324 H   0  0  0  0  0  0  0  0  0  0  0  0
  143.5166  134.0857  152.3498 H   0  0  0  0  0  0  0  0  0  0  0  0
  143.7849  135.5520  151.4270 H   0  0  0  0  0  0  0  0  0  0  0  0
  1  2  1  0  0  0  0
  1 21  1  0  0  0  0
  1 22  1  0  0  0  0
  1 23  1  0  0  0  0
  2 20  1  0  0  0  0
  2  3  2  0  0  0  0
  3  4  1  0  0  0  0
  4  5  2  0  0  0  0
  5  6  1  0  0  0  0
  5 20  1  0  0  0  0
  6  7  1  0  0  0  0
  6 24  1  0  0  0  0
  7  8  2  0  0  0  0
  7  9  1  0  0  0  0
  9 10  1  0  0  0  0
  9 25  1  0  0  0  0
 10 11  1  0  0  0  0
 10 12  1  0  0  0  0
 10 26  1  0  0  0  0
 11 27  1  0  0  0  0
 11 28  1  0  0  0  0
 11 29  1  0  0  0  0
 12 13  2  0  0  0  0
 12 14  1  0  0  0  0
 14 15  1  0  0  0  0
 14 30  1  0  0  0  0
 15 19  1  0  0  0  0
 15 16  1  0  0  0  0
 15 31  1  0  0  0  0
 16 17  1  0  0  0  0
 16 32  1  0  0  0  0
 16 33  1  0  0  0  0
 17 18  1  0  0  0  0
 17 34  1  0  0  0  0
 17 35  1  0  0  0  0
 18 19  1  0  0  0  0
 18 36  1  0  0  0  0
 18 37  1  0  0  0  0
 19 38  1  0  0  0  0
 19 39  1  0  0  0  0
M  END
> <s_m_source_file>
AV-unprocessed.smi

> <i_m_source_file_index>
826

> <i_lp_mmshare_version>
43012

> <i_f3d_flags>
0

> <s_epik_input>
W0NIM11jMW5uYyhzMSlbTkhdQyg9TylbTkhdW0NASF0oW0NIM10pQyg9TylbTkhdW0NIXTJbQ0gyXVtDSDJdW0NIMl1bQ0gyXTI=

> <s_epik_cmdline>
J2VwaWtfcHl0aG9uJywgJy1waCcsICc3LjAnLCAnLXRuJywgJzgnLCAnLW1hJywgJzIwMCcsICctbWV0YWxfYmluZGluZycsICctaW1hZScsICc8aW5maWxlLm1hZT4nLCAnLW9tYWUnLCAnPG91dGZpbGUubWFlPic=

> <r_lp_tautomer_probability>
1

> <r_epik_Ionization_Penalty>
0.00368568

> <r_epik_Ionization_Penalty_Charging>
0

> <r_epik_Ionization_Penalty_Neutral>
0.00368568

> <r_epik_State_Penalty>
-0

> <r_epik_Charging_Adjusted_Penalty>
0

> <i_epik_Tot_Q>
0

> <i_epik_Tot_abs_Q>
0

> <r_epik_Metal_State_Penalty>
0.369753

> <b_epik_Metal_Only>
0

> <s_lp_Force_Field>
OPLS_2005

> <r_lp_Energy>
15.8717

> <b_lp_Chiralities_Consistent>
1

> <s_lp_Variant>
AV-unprocessed.smi:826-2

> <Gold.Version>
5.8.1

> <Gold.Id.Protein>
6NUR|6NUR_protein|mol2

> <Gold.PLP.Fitness>
41.1097

> <Gold.PLP.PLP>
-30.2693

> <Gold.PLP.part.hbond>
-5.9029

> <Gold.PLP.part.metal>
0.0000

> <Gold.PLP.part.buried>
0.3211

> <Gold.PLP.part.nonpolar>
-26.0181

> <Gold.PLP.part.repulsive>
0.4727

> <Gold.PLP.ligand.clash>
0.0000

> <Gold.PLP.ligand.torsion>
0.4477

> <Gold.PLP.Chemscore.Hbond>
3.9100

> <Gold.PLP.Chemscore.CHOScore>
0.0000

> <Gold.PLP.Chemscore.Metal>
0.0000

> <Gold.Chemscore.Hbonds>
donor molecule, donor type, donor heavy atom, donor atom, acceptor molecule, acceptor atom, score
      L1  H     9    25       P1  7948  1.00
      L1  H    14    30       P1  7948  0.94
      P1  H  7989  7998       L1     4  0.95
      P1  H  7997  8009       L1     3  1.00

> <Gold.PLP.Chemscore.Internal.Correction>
0.0058

> <Gold.Rescore>
     Score         DG    S(hbond)    S(metal)    S(lipo)     H(rot)  DE(clash)    DE(int)     intcor
     18.33     -20.31       3.46        0.00      64.08       1.65       1.46       0.52       ----

> <Gold.Chemscore.Fitness>
18.3325

> <Gold.Chemscore.DG>
-20.3055

> <Gold.Chemscore.ZeroCoef>
-5.4800

> <Gold.Chemscore.Hbond>
3.4556

> <Gold.Chemscore.Metal>
0.0000

> <Gold.Chemscore.Lipo>
64.0776

> <Gold.Chemscore.Internal_Hbond>
0.0000

> <Gold.Chemscore.DEClash>
1.4566

> <Gold.Chemscore.DEInternal>
0.5164

> <Gold.Chemscore.Rot>
1.6458

> <Gold.Chemscore.Internal.Correction>
   9.000000E+99

> <Gold.Chemscore.Hbonds>
donor molecule, donor type, donor heavy atom, donor atom, acceptor molecule, acceptor atom, score
      L1  H     6    24       P1  7948  0.02
      L1  H     9    25       P1  7948  0.97
      L1  H    14    30       P1  7948  0.91
      P1  H  7989  7998       L1     4  0.12
      P1  H  7997  8009       L1     3  0.74

> <Gold.Chemscore.Hbond.Weighted>
-11.5417

> <Gold.Chemscore.Metal.Weighted>
-0.0000

> <Gold.Chemscore.Lipo.Weighted>
-7.4971

> <Gold.Chemscore.Internal_Hbond.Weighted>
0.0000

> <Gold.Chemscore.DEClash.Weighted>
1.4566

> <Gold.Chemscore.DEInternal.Weighted>
0.5164

> <Gold.Chemscore.Rot.Weighted>
4.2133

> <Gold.Chemscore.Internal.Correction.Weighted>
   9.000000E+99

> <Gold.Protein.RotatedTorsions>
[ 6907 6896 6895 6894 ] final  -42.82 input  -60.11 | X-H torsion
[ 7974 7965 7964 7962 ] final  -69.46 input  175.53 | X-H torsion
[ 8008 7997 7996 7995 ] final -165.31 input   59.86 | X-H torsion
[ 10167 10162 10161 10158 ] final  100.42 input  -65.29 | X-H torsion
[ 10718 10713 10712 10709 ] final   25.35 input   66.30 | X-H torsion
[ 10763 10752 10751 10750 ] final  -47.81 input  -60.55 | X-H torsion
[ 11005 11000 10999 10996 ] final -174.64 input  -57.11 | X-H torsion

> <Gold.Protein.ActiveResidues>
 VAL166  LYS551  ARG553  GLY616  TRP617  ASP618  TYR619  PRO620  LYS621  CYS622 
 ASP623  PHE694  ASN695  SER759  ASP760  ASP761  ALA762  ILE779  LEU786  VAL792 
 PHE793  MET794  SER795  GLU796  ALA797  LYS798  CYS799  TRP800  GLU811  SER814 

> <Gold.Protein.RotatedAtoms>
  150.9508  134.8908  159.7670 H   0  0  0  0  0  0  0  0  0  0  0  0  # atno 6907 bound_to 6896
  152.5119  134.3809  159.9360 H   0  0  0  0  0  0  0  0  0  0  0  0  # atno 6908 bound_to 6896
  151.3825  133.3776  159.2746 H   0  0  0  0  0  0  0  0  0  0  0  0  # atno 6909 bound_to 6896
  145.7034  140.9107  143.0719 H   0  0  0  0  0  0  0  0  0  0  0  0  # atno 7974 bound_to 7965
  155.8479  140.0958  157.1693 H   0  0  0  0  0  0  0  0  0  0  0  0  # atno 8008 bound_to 7997
  154.3984  140.1388  156.3870 H   0  0  0  0  0  0  0  0  0  0  0  0  # atno 8009 bound_to 7997
  155.7993  140.3453  155.5396 H   0  0  0  0  0  0  0  0  0  0  0  0  # atno 8010 bound_to 7997
  139.7528  144.6978  151.0406 H   0  0  0  0  0  0  0  0  0  0  0  0  # atno 10167 bound_to 10162
  157.1922  130.6851  149.6154 H   0  0  0  0  0  0  0  0  0  0  0  0  # atno 10718 bound_to 10713
  154.0675  135.6609  153.4820 H   0  0  0  0  0  0  0  0  0  0  0  0  # atno 10763 bound_to 10752
  153.0403  135.5149  154.7599 H   0  0  0  0  0  0  0  0  0  0  0  0  # atno 10764 bound_to 10752
  154.6655  135.3021  154.9779 H   0  0  0  0  0  0  0  0  0  0  0  0  # atno 10765 bound_to 10752
  140.4722  134.6154  157.4887 H   0  0  0  0  0  0  0  0  0  0  0  0  # atno 11005 bound_to 11000
  144.6962  139.8978  143.7457 LP  0  0  0  0  0  0  0  0  0  0  0  0  # atno 17320 bound_to 7965
  146.0777  139.3765  143.0484 LP  0  0  0  0  0  0  0  0  0  0  0  0  # atno 17321 bound_to 7965
  140.7799  143.4788  151.0046 LP  0  0  0  0  0  0  0  0  0  0  0  0  # atno 17342 bound_to 10162
  139.8476  143.7481  152.3179 LP  0  0  0  0  0  0  0  0  0  0  0  0  # atno 17343 bound_to 10162
  155.9710  130.4611  150.6096 LP  0  0  0  0  0  0  0  0  0  0  0  0  # atno 17370 bound_to 10713
  157.3849  131.0786  151.1444 LP  0  0  0  0  0  0  0  0  0  0  0  0  # atno 17371 bound_to 10713
  139.9878  134.7034  155.9743 LP  0  0  0  0  0  0  0  0  0  0  0  0  # atno 17394 bound_to 11000
  141.1571  133.6542  156.4197 LP  0  0  0  0  0  0  0  0  0  0  0  0  # atno 17395 bound_to 11000

$$$$
