AV-unprocessed.smi:3250|AV-procd|sdf|12430|dock9
  -GOLD-   2272018323D 1   1.00000     0.00000
 Structure written by MMmdl.
 38 39  0  0  0  0  0  0  0  0  1 V2000
  148.6929  137.7842  158.3115 C   0  0  0  0  0  0  0  0  0  0  0  0
  147.7246  138.7517  157.6161 C   0  0  0  0  0  0  0  0  0  0  0  0
  148.3173  139.5558  156.5488 N   0  0  0  0  0  0  0  0  0  0  0  0
  148.8119  138.7410  155.4417 C   0  0  0  0  0  0  0  0  0  0  0  0
  149.4649  139.6000  154.3460 C   0  0  0  0  0  0  0  0  0  0  0  0
  150.5082  140.3836  154.9149 O   0  0  0  0  0  0  0  0  0  0  0  0
  150.0532  141.2425  155.9581 C   0  0  2  0  0  0  0  0  0  0  0  0
  151.2528  142.0370  156.4904 C   0  0  0  0  0  0  0  0  0  0  0  0
  150.8380  143.2898  157.1032 N   0  0  0  0  0  0  0  0  0  0  0  0
  151.3053  143.7474  158.3206 C   0  0  0  0  0  0  0  0  0  0  0  0
  150.9037  144.9720  158.6681 N   0  0  0  0  0  0  0  0  0  0  0  0
  151.3471  145.4502  159.8509 C   0  0  0  0  0  0  0  0  0  0  0  0
  152.1950  144.6963  160.6865 C   0  0  0  0  0  0  0  0  0  0  0  0
  152.5549  143.4142  160.2241 C   0  0  0  0  0  0  0  0  0  0  0  0
  153.3794  142.6216  160.9953 O   0  0  0  0  0  0  0  0  0  0  0  0
  153.7489  141.3447  160.4866 C   0  0  0  0  0  0  0  0  0  0  0  0
  152.1038  142.9449  159.0339 N   0  0  0  0  0  0  0  0  0  0  0  0
  149.4118  140.3750  157.0592 C   0  0  0  0  0  0  0  0  0  0  0  0
  148.1581  137.1528  159.0211 H   0  0  0  0  0  0  0  0  0  0  0  0
  149.4665  138.3118  158.8688 H   0  0  0  0  0  0  0  0  0  0  0  0
  149.1813  137.1296  157.5892 H   0  0  0  0  0  0  0  0  0  0  0  0
  146.9132  138.1553  157.1972 H   0  0  0  0  0  0  0  0  0  0  0  0
  147.2637  139.4033  158.3597 H   0  0  0  0  0  0  0  0  0  0  0  0
  149.5378  138.0151  155.8112 H   0  0  0  0  0  0  0  0  0  0  0  0
  147.9970  138.1708  154.9972 H   0  0  0  0  0  0  0  0  0  0  0  0
  149.8812  138.9651  153.5637 H   0  0  0  0  0  0  0  0  0  0  0  0
  148.7276  140.2508  153.8733 H   0  0  0  0  0  0  0  0  0  0  0  0
  149.3064  141.9337  155.5622 H   0  0  0  0  0  0  0  0  0  0  0  0
  151.7796  141.4459  157.2403 H   0  0  0  0  0  0  0  0  0  0  0  0
  151.9600  142.2400  155.6852 H   0  0  0  0  0  0  0  0  0  0  0  0
  150.2468  143.9108  156.5698 H   0  0  0  0  0  0  0  0  0  0  0  0
  151.0234  146.4409  160.1330 H   0  0  0  0  0  0  0  0  0  0  0  0
  152.5490  145.0807  161.6315 H   0  0  0  0  0  0  0  0  0  0  0  0
  154.3914  140.8404  161.2081 H   0  0  0  0  0  0  0  0  0  0  0  0
  154.3052  141.4327  159.5522 H   0  0  0  0  0  0  0  0  0  0  0  0
  152.8747  140.7123  160.3236 H   0  0  0  0  0  0  0  0  0  0  0  0
  149.0445  141.0223  157.8564 H   0  0  0  0  0  0  0  0  0  0  0  0
  150.1742  139.7342  157.5055 H   0  0  0  0  0  0  0  0  0  0  0  0
  1  2  1  0  0  0  0
  1 19  1  0  0  0  0
  1 20  1  0  0  0  0
  1 21  1  0  0  0  0
  2  3  1  0  0  0  0
  2 22  1  0  0  0  0
  2 23  1  0  0  0  0
  3 18  1  0  0  0  0
  3  4  1  0  0  0  0
  4  5  1  0  0  0  0
  4 24  1  0  0  0  0
  4 25  1  0  0  0  0
  5  6  1  0  0  0  0
  5 26  1  0  0  0  0
  5 27  1  0  0  0  0
  6  7  1  0  0  0  0
  7  8  1  0  0  0  0
  7 18  1  0  0  0  0
  7 28  1  0  0  0  0
  8  9  1  0  0  0  0
  8 29  1  0  0  0  0
  8 30  1  0  0  0  0
  9 10  1  0  0  0  0
  9 31  1  0  0  0  0
 10 17  1  0  0  0  0
 10 11  2  0  0  0  0
 11 12  1  0  0  0  0
 12 13  2  0  0  0  0
 12 32  1  0  0  0  0
 13 14  1  0  0  0  0
 13 33  1  0  0  0  0
 14 15  1  0  0  0  0
 14 17  2  0  0  0  0
 15 16  1  0  0  0  0
 16 34  1  0  0  0  0
 16 35  1  0  0  0  0
 16 36  1  0  0  0  0
 18 37  1  0  0  0  0
 18 38  1  0  0  0  0
M  END
> <s_m_source_file>
AV-unprocessed.smi

> <i_m_source_file_index>
3250

> <i_lp_mmshare_version>
43012

> <i_f3d_flags>
0

> <s_epik_input>
W0NIM11bQ0gyXU4xW0NIMl1bQ0gyXU9bQ0BIXShbQ0gyXTEpW0NIMl1bTkhdYzJuW2NIXVtjSF1jKG4yKU9bQ0gzXQ==

> <s_epik_cmdline>
J2VwaWtfcHl0aG9uJywgJy1waCcsICc3LjAnLCAnLXRuJywgJzgnLCAnLW1hJywgJzIwMCcsICctbWV0YWxfYmluZGluZycsICctaW1hZScsICc8aW5maWxlLm1hZT4nLCAnLW9tYWUnLCAnPG91dGZpbGUubWFlPic=

> <r_lp_tautomer_probability>
1

> <r_epik_Ionization_Penalty>
0.832605

> <r_epik_Ionization_Penalty_Charging>
0

> <r_epik_Ionization_Penalty_Neutral>
0.832605

> <r_epik_State_Penalty>
0.927194

> <r_epik_Charging_Adjusted_Penalty>
0.927194

> <i_epik_Tot_Q>
0

> <i_epik_Tot_abs_Q>
0

> <r_epik_Metal_State_Penalty>
0.908632

> <b_epik_Metal_Only>
0

> <s_lp_Force_Field>
OPLS_2005

> <r_lp_Energy>
15.3414

> <b_lp_Chiralities_Consistent>
1

> <s_lp_Variant>
AV-unprocessed.smi:3250-6

> <Gold.Version>
5.8.1

> <Gold.Id.Protein>
6NUR|6NUR_protein|mol2

> <Gold.PLP.Fitness>
37.4146

> <Gold.PLP.PLP>
-32.1430

> <Gold.PLP.part.hbond>
-2.0000

> <Gold.PLP.part.metal>
0.0000

> <Gold.PLP.part.buried>
-7.5180

> <Gold.PLP.part.nonpolar>
-22.4909

> <Gold.PLP.part.repulsive>
0.2559

> <Gold.PLP.ligand.clash>
0.0000

> <Gold.PLP.ligand.torsion>
0.3726

> <Gold.PLP.Chemscore.Hbond>
2.0000

> <Gold.PLP.Chemscore.CHOScore>
0.0000

> <Gold.PLP.Chemscore.Metal>
0.0000

> <Gold.Chemscore.Hbonds>
donor molecule, donor type, donor heavy atom, donor atom, acceptor molecule, acceptor atom, score
      L1  H     9    31       P1  8028  1.00
      P1  H  7989  7998       L1     6  1.00

> <Gold.PLP.Chemscore.Internal.Correction>
0.0167

> <Gold.Rescore>
     Score         DG    S(hbond)    S(metal)    S(lipo)     H(rot)  DE(clash)    DE(int)     intcor
     14.39     -14.80       1.88        0.00      62.41       1.67       0.13       0.28       ----

> <Gold.Chemscore.Fitness>
14.3940

> <Gold.Chemscore.DG>
-14.8042

> <Gold.Chemscore.ZeroCoef>
-5.4800

> <Gold.Chemscore.Hbond>
1.8822

> <Gold.Chemscore.Metal>
0.0000

> <Gold.Chemscore.Lipo>
62.4096

> <Gold.Chemscore.Internal_Hbond>
0.0000

> <Gold.Chemscore.DEClash>
0.1258

> <Gold.Chemscore.DEInternal>
0.2844

> <Gold.Chemscore.Rot>
1.6657

> <Gold.Chemscore.Internal.Correction>
   9.000000E+99

> <Gold.Chemscore.Hbonds>
donor molecule, donor type, donor heavy atom, donor atom, acceptor molecule, acceptor atom, score
      L1  H     9    31       P1  8028  1.00
      P1  H  7989  7998       L1     6  0.54

> <Gold.Chemscore.Hbond.Weighted>
-6.2865

> <Gold.Chemscore.Metal.Weighted>
-0.0000

> <Gold.Chemscore.Lipo.Weighted>
-7.3019

> <Gold.Chemscore.Internal_Hbond.Weighted>
0.0000

> <Gold.Chemscore.DEClash.Weighted>
0.1258

> <Gold.Chemscore.DEInternal.Weighted>
0.2844

> <Gold.Chemscore.Rot.Weighted>
4.2642

> <Gold.Chemscore.Internal.Correction.Weighted>
   9.000000E+99

> <Gold.Protein.RotatedTorsions>
[ 6907 6896 6895 6894 ] final  174.12 input  -60.11 | X-H torsion
[ 7974 7965 7964 7962 ] final  129.77 input  175.53 | X-H torsion
[ 8008 7997 7996 7995 ] final  169.04 input   59.86 | X-H torsion
[ 10167 10162 10161 10158 ] final  -78.61 input  -65.29 | X-H torsion
[ 10718 10713 10712 10709 ] final  139.11 input   66.30 | X-H torsion
[ 10763 10752 10751 10750 ] final  -28.87 input  -60.55 | X-H torsion
[ 11005 11000 10999 10996 ] final   51.85 input  -57.11 | X-H torsion

> <Gold.Protein.ActiveResidues>
 VAL166  LYS551  ARG553  GLY616  TRP617  ASP618  TYR619  PRO620  LYS621  CYS622 
 ASP623  PHE694  ASN695  SER759  ASP760  ASP761  ALA762  ILE779  LEU786  VAL792 
 PHE793  MET794  SER795  GLU796  ALA797  LYS798  CYS799  TRP800  GLU811  SER814 

> <Gold.Protein.RotatedAtoms>
  151.7574  133.3331  159.3407 H   0  0  0  0  0  0  0  0  0  0  0  0  # atno 6907 bound_to 6896
  150.7511  134.6137  159.6109 H   0  0  0  0  0  0  0  0  0  0  0  0  # atno 6908 bound_to 6896
  152.3428  134.7113  160.0310 H   0  0  0  0  0  0  0  0  0  0  0  0  # atno 6909 bound_to 6896
  145.0251  139.4097  143.5178 H   0  0  0  0  0  0  0  0  0  0  0  0  # atno 7974 bound_to 7965
  156.1493  140.1574  156.8795 H   0  0  0  0  0  0  0  0  0  0  0  0  # atno 8008 bound_to 7997
  154.5057  140.0814  156.7926 H   0  0  0  0  0  0  0  0  0  0  0  0  # atno 8009 bound_to 7997
  155.3927  140.3410  155.4254 H   0  0  0  0  0  0  0  0  0  0  0  0  # atno 8010 bound_to 7997
  140.4667  143.2438  151.8267 H   0  0  0  0  0  0  0  0  0  0  0  0  # atno 10167 bound_to 10162
  157.4179  131.1035  151.0385 H   0  0  0  0  0  0  0  0  0  0  0  0  # atno 10718 bound_to 10713
  153.7553  135.6923  153.4937 H   0  0  0  0  0  0  0  0  0  0  0  0  # atno 10763 bound_to 10752
  153.1975  135.4448  155.0225 H   0  0  0  0  0  0  0  0  0  0  0  0  # atno 10764 bound_to 10752
  154.8172  135.3405  154.7071 H   0  0  0  0  0  0  0  0  0  0  0  0  # atno 10765 bound_to 10752
  140.0898  134.5224  155.8863 H   0  0  0  0  0  0  0  0  0  0  0  0  # atno 11005 bound_to 11000
  146.3491  139.9770  142.8700 LP  0  0  0  0  0  0  0  0  0  0  0  0  # atno 17320 bound_to 7965
  145.1845  140.9782  143.4247 LP  0  0  0  0  0  0  0  0  0  0  0  0  # atno 17321 bound_to 7965
  139.4813  144.4942  151.9145 LP  0  0  0  0  0  0  0  0  0  0  0  0  # atno 17342 bound_to 10162
  140.4028  144.2471  150.5892 LP  0  0  0  0  0  0  0  0  0  0  0  0  # atno 17343 bound_to 10162
  157.1325  130.6108  149.5533 LP  0  0  0  0  0  0  0  0  0  0  0  0  # atno 17370 bound_to 10713
  155.9871  130.4909  150.7110 LP  0  0  0  0  0  0  0  0  0  0  0  0  # atno 17371 bound_to 10713
  141.2074  133.6664  156.6305 LP  0  0  0  0  0  0  0  0  0  0  0  0  # atno 17394 bound_to 11000
  140.3368  134.7883  157.4368 LP  0  0  0  0  0  0  0  0  0  0  0  0  # atno 17395 bound_to 11000

$$$$
