AV-unprocessed.smi:1942|AV-procd|sdf|7850|dock3
  -GOLD-   22720 9593D 1   1.00000     0.00000
 Structure written by MMmdl.
 36 38  0  0  0  0  0  0  0  0  2 V2000
  147.3073  141.3538  157.3791 O   0  0  0  0  0  0  0  0  0  0  0  0
  147.1547  141.5500  156.1735 C   0  0  0  0  0  0  0  0  0  0  0  0
  145.9088  142.0960  155.6232 C   0  0  0  0  0  0  0  0  0  0  0  0
  145.7642  142.3351  154.3045 C   0  0  0  0  0  0  0  0  0  0  0  0
  146.8461  142.0569  153.3899 C   0  0  0  0  0  0  0  0  0  0  0  0
  147.9831  141.5467  153.8886 C   0  0  0  0  0  0  0  0  0  0  0  0
  148.1403  141.2828  155.2630 N   0  0  0  0  0  0  0  0  0  0  0  0
  149.4290  140.7190  155.6884 C   0  0  0  0  0  0  0  0  0  0  0  0
  150.1487  141.5525  156.7075 C   0  0  0  0  0  0  0  0  0  0  0  0
  149.8841  142.8510  157.0338 N   0  3  0  0  0  0  0  0  0  0  0  0
  150.7601  143.2788  158.0311 C   0  0  0  0  0  0  0  0  0  0  0  0
  150.8770  144.5065  158.6749 C   0  0  0  0  0  0  0  0  0  0  0  0
  151.8844  144.6150  159.6560 C   0  0  0  0  0  0  0  0  0  0  0  0
  152.0881  146.1071  160.4974 Cl  0  0  0  0  0  0  0  0  0  0  0  0
  152.7281  143.5269  159.9613 C   0  0  0  0  0  0  0  0  0  0  0  0
  152.6005  142.2871  159.3012 C   0  0  0  0  0  0  0  0  0  0  0  0
  151.6002  142.1883  158.3342 C   0  0  0  0  0  0  0  0  0  0  0  0
  151.1856  141.1461  157.4956 N   0  0  0  0  0  0  0  0  0  0  0  0
  151.8654  139.8423  157.5651 C   0  0  0  0  0  0  0  0  0  0  0  0
  151.9614  139.1461  156.1970 C   0  0  0  0  0  0  0  0  0  0  0  0
  152.4928  140.0127  155.2169 O   0  0  0  0  0  0  0  0  0  0  0  0
  145.0884  142.3103  156.2924 H   0  0  0  0  0  0  0  0  0  0  0  0
  144.8340  142.7362  153.9294 H   0  0  0  0  0  0  0  0  0  0  0  0
  146.7429  142.2552  152.3330 H   0  0  0  0  0  0  0  0  0  0  0  0
  148.8412  141.3133  153.2745 H   0  0  0  0  0  0  0  0  0  0  0  0
  149.3032  139.7124  156.0902 H   0  0  0  0  0  0  0  0  0  0  0  0
  150.0732  140.5924  154.8176 H   0  0  0  0  0  0  0  0  0  0  0  0
  150.2313  145.3401  158.4399 H   0  0  0  0  0  0  0  0  0  0  0  0
  153.4909  143.6441  160.7174 H   0  0  0  0  0  0  0  0  0  0  0  0
  153.2574  141.4641  159.5399 H   0  0  0  0  0  0  0  0  0  0  0  0
  152.8511  139.9701  158.0124 H   0  0  0  0  0  0  0  0  0  0  0  0
  151.3004  139.2170  158.2571 H   0  0  0  0  0  0  0  0  0  0  0  0
  152.5990  138.2647  156.2689 H   0  0  0  0  0  0  0  0  0  0  0  0
  150.9787  138.8046  155.8704 H   0  0  0  0  0  0  0  0  0  0  0  0
  152.0795  139.8196  154.3891 H   0  0  0  0  0  0  0  0  0  0  0  0
  149.1529  143.4021  156.6029 H   0  0  0  0  0  0  0  0  0  0  0  0
  1  2  2  0  0  0  0
  2  7  1  0  0  0  0
  2  3  1  0  0  0  0
  3  4  2  0  0  0  0
  3 22  1  0  0  0  0
  4  5  1  0  0  0  0
  4 23  1  0  0  0  0
  5  6  2  0  0  0  0
  5 24  1  0  0  0  0
  6  7  1  0  0  0  0
  6 25  1  0  0  0  0
  7  8  1  0  0  0  0
  8  9  1  0  0  0  0
  8 26  1  0  0  0  0
  8 27  1  0  0  0  0
  9 18  1  0  0  0  0
  9 10  2  0  0  0  0
 10 11  1  0  0  0  0
 10 36  1  0  0  0  0
 11 17  2  0  0  0  0
 11 12  1  0  0  0  0
 12 13  2  0  0  0  0
 12 28  1  0  0  0  0
 13 14  1  0  0  0  0
 13 15  1  0  0  0  0
 15 16  2  0  0  0  0
 15 29  1  0  0  0  0
 16 17  1  0  0  0  0
 16 30  1  0  0  0  0
 17 18  1  0  0  0  0
 18 19  1  0  0  0  0
 19 20  1  0  0  0  0
 19 31  1  0  0  0  0
 19 32  1  0  0  0  0
 20 21  1  0  0  0  0
 20 33  1  0  0  0  0
 20 34  1  0  0  0  0
 21 35  1  0  0  0  0
M  CHG  1  10   1
M  END
> <s_m_source_file>
AV-unprocessed.smi

> <i_m_source_file_index>
1942

> <i_lp_mmshare_version>
43012

> <i_f3d_flags>
0

> <s_epik_input>
Tz1jMVtjSF1bY0hdW2NIXVtjSF1uMVtDSDJdYyhuMiluKFtDSDJdW0NIMl1bT0hdKWMoYzIzKVtjSF1bY0hdYyhDbClbY0hdMw==

> <s_epik_cmdline>
J2VwaWtfcHl0aG9uJywgJy1waCcsICc3LjAnLCAnLXRuJywgJzgnLCAnLW1hJywgJzIwMCcsICctbWV0YWxfYmluZGluZycsICctaW1hZScsICc8aW5maWxlLm1hZT4nLCAnLW9tYWUnLCAnPG91dGZpbGUubWFlPic=

> <r_lp_tautomer_probability>
1

> <r_epik_Ionization_Penalty>
1.62531

> <r_epik_Ionization_Penalty_Charging>
1.62531

> <r_epik_Ionization_Penalty_Neutral>
5.76694e-08

> <r_epik_State_Penalty>
1.72539

> <r_epik_Charging_Adjusted_Penalty>
3.3507

> <i_epik_Tot_Q>
1

> <i_epik_Tot_abs_Q>
1

> <r_epik_Metal_State_Penalty>
5.78505

> <b_epik_Metal_Only>
0

> <s_lp_Force_Field>
OPLS_2005

> <r_lp_Energy>
19.9382

> <b_lp_Chiralities_Consistent>
1

> <s_lp_Variant>
AV-unprocessed.smi:1942-2

> <Gold.Version>
5.8.1

> <Gold.Id.Protein>
6NUR|6NUR_protein|mol2

> <Gold.PLP.Fitness>
54.1212

> <Gold.PLP.PLP>
-43.2800

> <Gold.PLP.part.hbond>
-2.8645

> <Gold.PLP.part.metal>
0.0000

> <Gold.PLP.part.buried>
-4.7334

> <Gold.PLP.part.nonpolar>
-35.2187

> <Gold.PLP.part.repulsive>
0.0959

> <Gold.PLP.ligand.clash>
0.0000

> <Gold.PLP.ligand.torsion>
0.5786

> <Gold.PLP.Chemscore.Hbond>
2.9913

> <Gold.PLP.Chemscore.CHOScore>
1.0000

> <Gold.PLP.Chemscore.Metal>
0.0000

> <Gold.Chemscore.Hbonds>
donor molecule, donor type, donor heavy atom, donor atom, acceptor molecule, acceptor atom, score
      L1  H    10    36       P1  8028  1.73
      P1  H  7997  8008       L1    21  0.72
      L1  C     6    25       P1  7957  0.89

> <Gold.PLP.Chemscore.Internal.Correction>
0.0247

> <Gold.Rescore>
     Score         DG    S(hbond)    S(metal)    S(lipo)     H(rot)  DE(clash)    DE(int)     intcor
     16.33     -19.25       1.92        0.00     113.94       2.33       1.28       1.65       ----

> <Gold.Chemscore.Fitness>
16.3276

> <Gold.Chemscore.DG>
-19.2487

> <Gold.Chemscore.ZeroCoef>
-5.4800

> <Gold.Chemscore.Hbond>
1.9190

> <Gold.Chemscore.Metal>
0.0000

> <Gold.Chemscore.Lipo>
113.9377

> <Gold.Chemscore.Internal_Hbond>
0.0000

> <Gold.Chemscore.DEClash>
1.2760

> <Gold.Chemscore.DEInternal>
1.6450

> <Gold.Chemscore.Rot>
2.3326

> <Gold.Chemscore.Internal.Correction>
   9.000000E+99

> <Gold.Chemscore.Hbonds>
donor molecule, donor type, donor heavy atom, donor atom, acceptor molecule, acceptor atom, score
      L1  H    10    36       P1  8028  0.83
      P1  H  7997  8008       L1    21  0.10

> <Gold.Chemscore.Hbond.Weighted>
-6.4094

> <Gold.Chemscore.Metal.Weighted>
-0.0000

> <Gold.Chemscore.Lipo.Weighted>
-13.3307

> <Gold.Chemscore.Internal_Hbond.Weighted>
0.0000

> <Gold.Chemscore.DEClash.Weighted>
1.2760

> <Gold.Chemscore.DEInternal.Weighted>
1.6450

> <Gold.Chemscore.Rot.Weighted>
5.9714

> <Gold.Chemscore.Internal.Correction.Weighted>
   9.000000E+99

> <Gold.Protein.RotatedTorsions>
[ 6907 6896 6895 6894 ] final  126.12 input  -60.11 | X-H torsion
[ 7974 7965 7964 7962 ] final   37.85 input  175.53 | X-H torsion
[ 8008 7997 7996 7995 ] final  -27.14 input   59.86 | X-H torsion
[ 10167 10162 10161 10158 ] final  -70.70 input  -65.29 | X-H torsion
[ 10718 10713 10712 10709 ] final  -91.57 input   66.30 | X-H torsion
[ 10763 10752 10751 10750 ] final  110.29 input  -60.55 | X-H torsion
[ 11005 11000 10999 10996 ] final   19.73 input  -57.11 | X-H torsion

> <Gold.Protein.ActiveResidues>
 VAL166  LYS551  ARG553  GLY616  TRP617  ASP618  TYR619  PRO620  LYS621  CYS622 
 ASP623  PHE694  ASN695  SER759  ASP760  ASP761  ALA762  ILE779  LEU786  VAL792 
 PHE793  MET794  SER795  GLU796  ALA797  LYS798  CYS799  TRP800  GLU811  SER814 

> <Gold.Protein.RotatedAtoms>
  152.3932  133.6708  159.6254 H   0  0  0  0  0  0  0  0  0  0  0  0  # atno 6907 bound_to 6896
  150.7836  133.8919  159.3324 H   0  0  0  0  0  0  0  0  0  0  0  0  # atno 6908 bound_to 6896
  151.6701  135.0979  160.0247 H   0  0  0  0  0  0  0  0  0  0  0  0  # atno 6909 bound_to 6896
  146.1107  139.5844  142.9354 H   0  0  0  0  0  0  0  0  0  0  0  0  # atno 7974 bound_to 7965
  154.4391  140.1880  156.0886 H   0  0  0  0  0  0  0  0  0  0  0  0  # atno 8008 bound_to 7997
  156.0383  140.3322  155.7190 H   0  0  0  0  0  0  0  0  0  0  0  0  # atno 8009 bound_to 7997
  155.5737  140.0615  157.2791 H   0  0  0  0  0  0  0  0  0  0  0  0  # atno 8010 bound_to 7997
  140.5332  143.2320  151.7225 H   0  0  0  0  0  0  0  0  0  0  0  0  # atno 10167 bound_to 10162
  155.9995  130.4953  150.5495 H   0  0  0  0  0  0  0  0  0  0  0  0  # atno 10718 bound_to 10713
  153.4469  135.3753  155.2261 H   0  0  0  0  0  0  0  0  0  0  0  0  # atno 10763 bound_to 10752
  154.8755  135.3876  154.4085 H   0  0  0  0  0  0  0  0  0  0  0  0  # atno 10764 bound_to 10752
  153.4639  135.7087  153.6097 H   0  0  0  0  0  0  0  0  0  0  0  0  # atno 10765 bound_to 10752
  140.4105  134.1623  155.7667 H   0  0  0  0  0  0  0  0  0  0  0  0  # atno 11005 bound_to 11000
  145.5670  141.0398  143.2195 LP  0  0  0  0  0  0  0  0  0  0  0  0  # atno 17320 bound_to 7965
  144.7509  139.7197  143.7273 LP  0  0  0  0  0  0  0  0  0  0  0  0  # atno 17321 bound_to 7965
  139.4961  144.4083  152.0108 LP  0  0  0  0  0  0  0  0  0  0  0  0  # atno 17342 bound_to 10162
  140.3187  144.3454  150.6015 LP  0  0  0  0  0  0  0  0  0  0  0  0  # atno 17343 bound_to 10162
  157.3420  131.0718  151.1781 LP  0  0  0  0  0  0  0  0  0  0  0  0  # atno 17370 bound_to 10713
  157.2626  130.6666  149.5982 LP  0  0  0  0  0  0  0  0  0  0  0  0  # atno 17371 bound_to 10713
  141.1823  133.8388  157.1214 LP  0  0  0  0  0  0  0  0  0  0  0  0  # atno 17394 bound_to 11000
  140.0271  134.9919  157.0708 LP  0  0  0  0  0  0  0  0  0  0  0  0  # atno 17395 bound_to 11000

$$$$
