AV-unprocessed.smi:289|AV-procd|sdf|2213|dock2
  -GOLD-   2262022 43D 1   1.00000     0.00000
 Structure written by MMmdl.
 51 54  0  0  0  0  0  0  0  0  1 V2000
  148.9072  140.9331  154.8952 O   0  0  0  0  0  0  0  0  0  0  0  0
  149.9572  140.2954  154.9982 C   0  0  0  0  0  0  0  0  0  0  0  0
  150.1712  139.0576  154.1011 C   0  0  0  0  0  0  0  0  0  0  0  0
  149.6367  137.8025  154.6766 N   0  0  0  0  0  0  0  0  0  0  0  0
  150.5360  136.7450  154.9575 C   0  0  0  0  0  0  0  0  0  0  0  0
  151.7450  136.8619  154.7521 O   0  0  0  0  0  0  0  0  0  0  0  0
  149.9292  135.5270  155.4803 C   0  0  0  0  0  0  0  0  0  0  0  0
  150.7009  134.4580  155.7400 F   0  0  0  0  0  0  0  0  0  0  0  0
  148.5995  135.4477  155.6920 C   0  0  0  0  0  0  0  0  0  0  0  0
  147.7328  136.5011  155.4505 N   0  0  0  0  0  0  0  0  0  0  0  0
  146.2242  136.3773  155.6081 C   0  0  2  0  0  0  0  0  0  0  0  0
  145.7607  135.0621  156.2489 C   0  0  0  0  0  0  0  0  0  0  0  0
  145.3993  134.1939  155.0464 C   0  0  0  0  0  0  0  0  0  0  0  0
  145.6672  135.0828  153.8270 C   0  0  0  0  0  0  0  0  0  0  0  0
  145.6447  136.4067  154.3430 O   0  0  0  0  0  0  0  0  0  0  0  0
  148.2410  137.6937  154.8878 C   0  0  0  0  0  0  0  0  0  0  0  0
  147.4842  138.6187  154.5839 O   0  0  0  0  0  0  0  0  0  0  0  0
  150.9293  140.6480  155.8746 N   0  0  0  0  0  0  0  0  0  0  0  0
  150.8590  141.7553  156.8398 C   0  0  0  0  0  0  0  0  0  0  0  0
  150.9254  141.1888  158.2730 C   0  0  0  0  0  0  0  0  0  0  0  0
  152.1608  140.4006  158.4328 N   0  0  0  0  0  0  0  0  0  0  0  0
  153.1976  140.7049  159.2537 C   0  0  0  0  0  0  0  0  0  0  0  0
  154.3126  140.1975  159.1293 O   0  0  0  0  0  0  0  0  0  0  0  0
  152.9914  141.6732  160.3525 C   0  0  0  0  0  0  0  0  0  0  0  0
  152.2868  142.8467  160.3736 C   0  0  0  0  0  0  0  0  0  0  0  0
  152.4690  143.4088  161.6674 C   0  0  0  0  0  0  0  0  0  0  0  0
  153.2921  142.5500  162.3372 C   0  0  0  0  0  0  0  0  0  0  0  0
  153.6319  141.4965  161.5461 O   0  0  0  0  0  0  0  0  0  0  0  0
  152.2355  139.3072  157.4506 C   0  0  0  0  0  0  0  0  0  0  0  0
  152.1796  139.8906  156.0263 C   0  0  0  0  0  0  0  0  0  0  0  0
  149.7263  139.2533  153.1241 H   0  0  0  0  0  0  0  0  0  0  0  0
  151.2377  138.9473  153.8988 H   0  0  0  0  0  0  0  0  0  0  0  0
  148.2181  134.5058  156.0528 H   0  0  0  0  0  0  0  0  0  0  0  0
  145.9235  137.2381  156.2076 H   0  0  0  0  0  0  0  0  0  0  0  0
  146.5023  134.6363  156.9246 H   0  0  0  0  0  0  0  0  0  0  0  0
  144.8633  135.2675  156.8337 H   0  0  0  0  0  0  0  0  0  0  0  0
  145.9844  133.2749  155.0070 H   0  0  0  0  0  0  0  0  0  0  0  0
  144.3459  133.9156  155.0921 H   0  0  0  0  0  0  0  0  0  0  0  0
  146.6475  134.8719  153.3977 H   0  0  0  0  0  0  0  0  0  0  0  0
  144.9229  134.9503  153.0418 H   0  0  0  0  0  0  0  0  0  0  0  0
  151.6989  142.4298  156.6661 H   0  0  0  0  0  0  0  0  0  0  0  0
  149.9668  142.3705  156.7428 H   0  0  0  0  0  0  0  0  0  0  0  0
  150.8484  142.0280  158.9609 H   0  0  0  0  0  0  0  0  0  0  0  0
  150.0632  140.5504  158.4711 H   0  0  0  0  0  0  0  0  0  0  0  0
  151.7078  143.2509  159.5560 H   0  0  0  0  0  0  0  0  0  0  0  0
  152.0577  144.3291  162.0550 H   0  0  0  0  0  0  0  0  0  0  0  0
  153.7197  142.5403  163.3290 H   0  0  0  0  0  0  0  0  0  0  0  0
  153.1341  138.6991  157.5629 H   0  0  0  0  0  0  0  0  0  0  0  0
  151.3970  138.6274  157.6105 H   0  0  0  0  0  0  0  0  0  0  0  0
  152.2791  139.0843  155.2986 H   0  0  0  0  0  0  0  0  0  0  0  0
  153.0283  140.5545  155.8547 H   0  0  0  0  0  0  0  0  0  0  0  0
  1  2  2  0  0  0  0
  2  3  1  0  0  0  0
  2 18  1  0  0  0  0
  3  4  1  0  0  0  0
  3 31  1  0  0  0  0
  3 32  1  0  0  0  0
  4 16  1  0  0  0  0
  4  5  1  0  0  0  0
  5  6  2  0  0  0  0
  5  7  1  0  0  0  0
  7  8  1  0  0  0  0
  7  9  2  0  0  0  0
  9 10  1  0  0  0  0
  9 33  1  0  0  0  0
 10 11  1  0  0  0  0
 10 16  1  0  0  0  0
 11 15  1  0  0  0  0
 11 12  1  0  0  0  0
 11 34  1  0  0  0  0
 12 13  1  0  0  0  0
 12 35  1  0  0  0  0
 12 36  1  0  0  0  0
 13 14  1  0  0  0  0
 13 37  1  0  0  0  0
 13 38  1  0  0  0  0
 14 15  1  0  0  0  0
 14 39  1  0  0  0  0
 14 40  1  0  0  0  0
 16 17  2  0  0  0  0
 18 30  1  0  0  0  0
 18 19  1  0  0  0  0
 19 20  1  0  0  0  0
 19 41  1  0  0  0  0
 19 42  1  0  0  0  0
 20 21  1  0  0  0  0
 20 43  1  0  0  0  0
 20 44  1  0  0  0  0
 21 22  1  0  0  0  0
 21 29  1  0  0  0  0
 22 23  2  0  0  0  0
 22 24  1  0  0  0  0
 24 28  1  0  0  0  0
 24 25  2  0  0  0  0
 25 26  1  0  0  0  0
 25 45  1  0  0  0  0
 26 27  2  0  0  0  0
 26 46  1  0  0  0  0
 27 28  1  0  0  0  0
 27 47  1  0  0  0  0
 29 30  1  0  0  0  0
 29 48  1  0  0  0  0
 29 49  1  0  0  0  0
 30 50  1  0  0  0  0
 30 51  1  0  0  0  0
M  END
> <s_m_source_file>
AV-unprocessed.smi

> <i_m_source_file_index>
289

> <i_lp_mmshare_version>
43012

> <i_f3d_flags>
0

> <s_epik_input>
bzFbY0hdW2NIXVtjSF1jMUMoPU8pTihbQ0gyXVtDSDJdMilbQ0gyXVtDSDJdTjJDKD1PKVtDSDJdbjNjKD1PKWMoRilbY0hdbihjMz1PKVtDQEBIXTRbQ0gyXVtDSDJdW0NIMl1PNA==

> <s_epik_cmdline>
J2VwaWtfcHl0aG9uJywgJy1waCcsICc3LjAnLCAnLXRuJywgJzgnLCAnLW1hJywgJzIwMCcsICctbWV0YWxfYmluZGluZycsICctaW1hZScsICc8aW5maWxlLm1hZT4nLCAnLW9tYWUnLCAnPG91dGZpbGUubWFlPic=

> <r_lp_tautomer_probability>
1

> <r_epik_Ionization_Penalty>
6.38128e-09

> <r_epik_Ionization_Penalty_Charging>
4.20153e-09

> <r_epik_Ionization_Penalty_Neutral>
2.17976e-09

> <r_epik_State_Penalty>
-0

> <r_epik_Charging_Adjusted_Penalty>
4.20153e-09

> <i_epik_Tot_Q>
0

> <i_epik_Tot_abs_Q>
0

> <r_epik_Metal_State_Penalty>
-0

> <b_epik_Metal_Only>
0

> <s_epik_Chemistry_Notes>
This compound contains an acetal/aminal-like group ( X-CH(R)-Y where X, Y are N, S, or O) that may be acid/base labile, releasing an aldehyde.

> <s_lp_Force_Field>
OPLS_2005

> <r_lp_Energy>
70.009

> <b_lp_Chiralities_Consistent>
1

> <s_lp_Variant>
AV-unprocessed.smi:289-1

> <Gold.Version>
5.8.1

> <Gold.Id.Protein>
6NUR|6NUR_protein|mol2

> <Gold.PLP.Fitness>
52.2862

> <Gold.PLP.PLP>
-48.1740

> <Gold.PLP.part.hbond>
-2.0000

> <Gold.PLP.part.metal>
0.0000

> <Gold.PLP.part.buried>
-4.8860

> <Gold.PLP.part.nonpolar>
-40.3242

> <Gold.PLP.part.repulsive>
0.4049

> <Gold.PLP.ligand.clash>
0.0000

> <Gold.PLP.ligand.torsion>
1.1229

> <Gold.PLP.Chemscore.Hbond>
1.9280

> <Gold.PLP.Chemscore.CHOScore>
0.0000

> <Gold.PLP.Chemscore.Metal>
0.0000

> <Gold.Chemscore.Hbonds>
donor molecule, donor type, donor heavy atom, donor atom, acceptor molecule, acceptor atom, score
      P1  H  7997  8010       L1    23  0.93
      P1  H 10752 10763       L1     6  1.00

> <Gold.PLP.Chemscore.Internal.Correction>
0.5739

> <Gold.Rescore>
     Score         DG    S(hbond)    S(metal)    S(lipo)     H(rot)  DE(clash)    DE(int)     intcor
     12.10     -17.47       1.87        0.00      85.41       1.66       0.01       5.36       ----

> <Gold.Chemscore.Fitness>
12.0955

> <Gold.Chemscore.DG>
-17.4665

> <Gold.Chemscore.ZeroCoef>
-5.4800

> <Gold.Chemscore.Hbond>
1.8676

> <Gold.Chemscore.Metal>
0.0000

> <Gold.Chemscore.Lipo>
85.4128

> <Gold.Chemscore.Internal_Hbond>
0.0000

> <Gold.Chemscore.DEClash>
0.0126

> <Gold.Chemscore.DEInternal>
5.3584

> <Gold.Chemscore.Rot>
1.6580

> <Gold.Chemscore.Internal.Correction>
   9.000000E+99

> <Gold.Chemscore.Hbonds>
donor molecule, donor type, donor heavy atom, donor atom, acceptor molecule, acceptor atom, score
      P1  H  7997  8010       L1    23  0.82
      P1  H 10752 10763       L1     6  0.99

> <Gold.Chemscore.Hbond.Weighted>
-6.2378

> <Gold.Chemscore.Metal.Weighted>
-0.0000

> <Gold.Chemscore.Lipo.Weighted>
-9.9933

> <Gold.Chemscore.Internal_Hbond.Weighted>
0.0000

> <Gold.Chemscore.DEClash.Weighted>
0.0126

> <Gold.Chemscore.DEInternal.Weighted>
5.3584

> <Gold.Chemscore.Rot.Weighted>
4.2446

> <Gold.Chemscore.Internal.Correction.Weighted>
   9.000000E+99

> <Gold.Protein.RotatedTorsions>
[ 6907 6896 6895 6894 ] final  142.47 input  -60.11 | X-H torsion
[ 7974 7965 7964 7962 ] final  132.19 input  175.53 | X-H torsion
[ 8008 7997 7996 7995 ] final    7.84 input   59.86 | X-H torsion
[ 10167 10162 10161 10158 ] final  -84.41 input  -65.29 | X-H torsion
[ 10718 10713 10712 10709 ] final    4.38 input   66.30 | X-H torsion
[ 10763 10752 10751 10750 ] final   46.37 input  -60.55 | X-H torsion
[ 11005 11000 10999 10996 ] final -147.02 input  -57.11 | X-H torsion

> <Gold.Protein.ActiveResidues>
 VAL166  LYS551  ARG553  GLY616  TRP617  ASP618  TYR619  PRO620  LYS621  CYS622 
 ASP623  PHE694  ASN695  SER759  ASP760  ASP761  ALA762  ILE779  LEU786  VAL792 
 PHE793  MET794  SER795  GLU796  ALA797  LYS798  CYS799  TRP800  GLU811  SER814 

> <Gold.Protein.RotatedAtoms>
  152.2183  133.4964  159.5148 H   0  0  0  0  0  0  0  0  0  0  0  0  # atno 6907 bound_to 6896
  150.7006  134.1376  159.4102 H   0  0  0  0  0  0  0  0  0  0  0  0  # atno 6908 bound_to 6896
  151.9296  135.0262  160.0579 H   0  0  0  0  0  0  0  0  0  0  0  0  # atno 6909 bound_to 6896
  144.9995  139.4326  143.5299 H   0  0  0  0  0  0  0  0  0  0  0  0  # atno 7974 bound_to 7965
  154.7591  140.2781  155.6229 H   0  0  0  0  0  0  0  0  0  0  0  0  # atno 8008 bound_to 7997
  156.2912  140.2663  156.2292 H   0  0  0  0  0  0  0  0  0  0  0  0  # atno 8009 bound_to 7997
  155.0040  140.0372  157.2361 H   0  0  0  0  0  0  0  0  0  0  0  0  # atno 8010 bound_to 7997
  140.4135  143.2613  151.8986 H   0  0  0  0  0  0  0  0  0  0  0  0  # atno 10167 bound_to 10162
  156.8917  130.5690  149.5650 H   0  0  0  0  0  0  0  0  0  0  0  0  # atno 10718 bound_to 10713
  152.9811  135.6010  154.3589 H   0  0  0  0  0  0  0  0  0  0  0  0  # atno 10763 bound_to 10752
  154.3272  135.2769  155.2492 H   0  0  0  0  0  0  0  0  0  0  0  0  # atno 10764 bound_to 10752
  154.4632  135.5961  153.6325 H   0  0  0  0  0  0  0  0  0  0  0  0  # atno 10765 bound_to 10752
  140.7760  134.3134  157.5060 H   0  0  0  0  0  0  0  0  0  0  0  0  # atno 11005 bound_to 11000
  146.3449  139.9374  142.8745 LP  0  0  0  0  0  0  0  0  0  0  0  0  # atno 17320 bound_to 7965
  145.2173  140.9921  143.4066 LP  0  0  0  0  0  0  0  0  0  0  0  0  # atno 17321 bound_to 7965
  139.4782  144.5512  151.8382 LP  0  0  0  0  0  0  0  0  0  0  0  0  # atno 17342 bound_to 10162
  140.4612  144.1719  150.5906 LP  0  0  0  0  0  0  0  0  0  0  0  0  # atno 17343 bound_to 10162
  156.0625  130.5675  150.9223 LP  0  0  0  0  0  0  0  0  0  0  0  0  # atno 17370 bound_to 10713
  157.6079  131.0938  150.8846 LP  0  0  0  0  0  0  0  0  0  0  0  0  # atno 17371 bound_to 10713
  139.8749  134.9290  156.3464 LP  0  0  0  0  0  0  0  0  0  0  0  0  # atno 17394 bound_to 11000
  140.9528  133.7440  156.0295 LP  0  0  0  0  0  0  0  0  0  0  0  0  # atno 17395 bound_to 11000

$$$$
