AV-unprocessed.smi:116|AV-procd|sdf|1128|dock10
  -GOLD-   2262018253D 1   1.00000     0.00000
 Structure written by MMmdl.
 38 41  0  0  0  0  0  0  0  0  1 V2000
  150.3845  137.9225  159.2150 O   0  0  0  0  0  0  0  0  0  0  0  0
  150.1131  138.2881  158.0701 C   0  0  0  0  0  0  0  0  0  0  0  0
  148.8768  137.9233  157.3872 C   0  0  0  0  0  0  0  0  0  0  0  0
  147.9852  137.1306  158.0058 F   0  0  0  0  0  0  0  0  0  0  0  0
  148.6114  138.3665  156.1397 C   0  0  0  0  0  0  0  0  0  0  0  0
  149.4728  139.1863  155.4305 N   0  0  0  0  0  0  0  0  0  0  0  0
  149.1335  139.6619  154.0354 C   0  0  1  0  0  0  0  0  0  0  0  0
  147.8580  138.9738  153.5367 C   0  0  0  0  0  0  0  0  0  0  0  0
  146.7957  139.9920  153.8897 C   0  0  0  0  0  0  0  0  0  0  0  0
  147.5434  141.3020  153.6706 C   0  0  0  0  0  0  0  0  0  0  0  0
  148.8858  141.0383  154.0700 O   0  0  0  0  0  0  0  0  0  0  0  0
  150.7041  139.5722  156.0039 C   0  0  0  0  0  0  0  0  0  0  0  0
  151.4940  140.2849  155.3807 O   0  0  0  0  0  0  0  0  0  0  0  0
  150.9857  139.1078  157.3115 N   0  0  0  0  0  0  0  0  0  0  0  0
  152.2297  139.5376  157.9313 C   0  0  0  0  0  0  0  0  0  0  0  0
  152.1183  140.9494  158.4220 C   0  0  0  0  0  0  0  0  0  0  0  0
  152.4094  141.2877  159.6850 N   0  0  0  0  0  0  0  0  0  0  0  0
  152.2318  142.6557  159.8695 C   0  0  0  0  0  0  0  0  0  0  0  0
  152.4467  143.3878  161.0605 C   0  0  0  0  0  0  0  0  0  0  0  0
  152.2285  144.7791  161.1099 C   0  0  0  0  0  0  0  0  0  0  0  0
  151.7885  145.4688  159.9642 C   0  0  0  0  0  0  0  0  0  0  0  0
  151.5659  144.7659  158.7661 C   0  0  0  0  0  0  0  0  0  0  0  0
  151.7859  143.3767  158.7227 C   0  0  0  0  0  0  0  0  0  0  0  0
  151.5857  142.2686  157.3698 S   0  0  0  0  0  0  0  0  0  0  0  0
  147.6821  138.0568  155.6856 H   0  0  0  0  0  0  0  0  0  0  0  0
  150.0132  139.4652  153.4207 H   0  0  0  0  0  0  0  0  0  0  0  0
  147.9280  138.8546  152.4549 H   0  0  0  0  0  0  0  0  0  0  0  0
  147.7064  137.9945  153.9921 H   0  0  0  0  0  0  0  0  0  0  0  0
  145.8980  139.9055  153.2771 H   0  0  0  0  0  0  0  0  0  0  0  0
  146.5067  139.8905  154.9364 H   0  0  0  0  0  0  0  0  0  0  0  0
  147.5393  141.5685  152.6128 H   0  0  0  0  0  0  0  0  0  0  0  0
  147.1138  142.1316  154.2323 H   0  0  0  0  0  0  0  0  0  0  0  0
  152.4720  138.8571  158.7486 H   0  0  0  0  0  0  0  0  0  0  0  0
  153.0352  139.4328  157.2025 H   0  0  0  0  0  0  0  0  0  0  0  0
  152.7844  142.8714  161.9468 H   0  0  0  0  0  0  0  0  0  0  0  0
  152.3995  145.3181  162.0302 H   0  0  0  0  0  0  0  0  0  0  0  0
  151.6219  146.5352  160.0052 H   0  0  0  0  0  0  0  0  0  0  0  0
  151.2282  145.2890  157.8837 H   0  0  0  0  0  0  0  0  0  0  0  0
  1  2  2  0  0  0  0
  2 14  1  0  0  0  0
  2  3  1  0  0  0  0
  3  4  1  0  0  0  0
  3  5  2  0  0  0  0
  5  6  1  0  0  0  0
  5 25  1  0  0  0  0
  6  7  1  0  0  0  0
  6 12  1  0  0  0  0
  7 11  1  0  0  0  0
  7  8  1  0  0  0  0
  7 26  1  0  0  0  0
  8  9  1  0  0  0  0
  8 27  1  0  0  0  0
  8 28  1  0  0  0  0
  9 10  1  0  0  0  0
  9 29  1  0  0  0  0
  9 30  1  0  0  0  0
 10 11  1  0  0  0  0
 10 31  1  0  0  0  0
 10 32  1  0  0  0  0
 12 13  2  0  0  0  0
 12 14  1  0  0  0  0
 14 15  1  0  0  0  0
 15 16  1  0  0  0  0
 15 33  1  0  0  0  0
 15 34  1  0  0  0  0
 16 24  1  0  0  0  0
 16 17  2  0  0  0  0
 17 18  1  0  0  0  0
 18 23  2  0  0  0  0
 18 19  1  0  0  0  0
 19 20  2  0  0  0  0
 19 35  1  0  0  0  0
 20 21  1  0  0  0  0
 20 36  1  0  0  0  0
 21 22  2  0  0  0  0
 21 37  1  0  0  0  0
 22 23  1  0  0  0  0
 22 38  1  0  0  0  0
 23 24  1  0  0  0  0
M  END
> <s_m_source_file>
AV-unprocessed.smi

> <i_m_source_file_index>
116

> <i_lp_mmshare_version>
43012

> <i_f3d_flags>
0

> <s_epik_input>
TzFbQ0gyXVtDSDJdW0NIMl1bQ0BIXTFuKFtjSF1jKEYpYzI9TyljKD1PKW4yW0NIMl1jKG4zKXNjKGMzNClbY0hdW2NIXVtjSF1bY0hdNA==

> <s_epik_cmdline>
J2VwaWtfcHl0aG9uJywgJy1waCcsICc3LjAnLCAnLXRuJywgJzgnLCAnLW1hJywgJzIwMCcsICctbWV0YWxfYmluZGluZycsICctaW1hZScsICc8aW5maWxlLm1hZT4nLCAnLW9tYWUnLCAnPG91dGZpbGUubWFlPic=

> <r_lp_tautomer_probability>
1

> <r_epik_Ionization_Penalty>
4.2492e-05

> <r_epik_Ionization_Penalty_Charging>
2.84664e-09

> <r_epik_Ionization_Penalty_Neutral>
4.24891e-05

> <r_epik_State_Penalty>
-0

> <r_epik_Charging_Adjusted_Penalty>
2.84664e-09

> <i_epik_Tot_Q>
0

> <i_epik_Tot_abs_Q>
0

> <r_epik_Metal_State_Penalty>
-0

> <b_epik_Metal_Only>
0

> <s_epik_Chemistry_Notes>
This compound contains an acetal/aminal-like group ( X-CH(R)-Y where X, Y are N, S, or O) that may be acid/base labile, releasing an aldehyde.

> <s_lp_Force_Field>
OPLS_2005

> <r_lp_Energy>
30.7685

> <b_lp_Chiralities_Consistent>
1

> <s_lp_Variant>
AV-unprocessed.smi:116-2

> <Gold.Version>
5.8.1

> <Gold.Id.Protein>
6NUR|6NUR_protein|mol2

> <Gold.PLP.Fitness>
43.8966

> <Gold.PLP.PLP>
-41.8329

> <Gold.PLP.part.hbond>
-1.7215

> <Gold.PLP.part.metal>
0.0000

> <Gold.PLP.part.buried>
-4.9872

> <Gold.PLP.part.nonpolar>
-35.1685

> <Gold.PLP.part.repulsive>
0.1670

> <Gold.PLP.ligand.clash>
0.0000

> <Gold.PLP.ligand.torsion>
0.4315

> <Gold.PLP.Chemscore.Hbond>
0.9719

> <Gold.PLP.Chemscore.CHOScore>
0.0000

> <Gold.PLP.Chemscore.Metal>
0.0000

> <Gold.Chemscore.Hbonds>
donor molecule, donor type, donor heavy atom, donor atom, acceptor molecule, acceptor atom, score
      P1  H  7989  7998       L1    13  0.93
      P1  H  8011  8017       L1    11  0.04

> <Gold.PLP.Chemscore.Internal.Correction>
0.0108

> <Gold.Rescore>
     Score         DG    S(hbond)    S(metal)    S(lipo)     H(rot)  DE(clash)    DE(int)     intcor
     15.34     -17.09       0.93        0.00     105.75       1.52       0.24       1.51       ----

> <Gold.Chemscore.Fitness>
15.3364

> <Gold.Chemscore.DG>
-17.0868

> <Gold.Chemscore.ZeroCoef>
-5.4800

> <Gold.Chemscore.Hbond>
0.9336

> <Gold.Chemscore.Metal>
0.0000

> <Gold.Chemscore.Lipo>
105.7489

> <Gold.Chemscore.Internal_Hbond>
0.0000

> <Gold.Chemscore.DEClash>
0.2391

> <Gold.Chemscore.DEInternal>
1.5112

> <Gold.Chemscore.Rot>
1.5172

> <Gold.Chemscore.Internal.Correction>
   9.000000E+99

> <Gold.Chemscore.Hbonds>
donor molecule, donor type, donor heavy atom, donor atom, acceptor molecule, acceptor atom, score
      P1  H  7989  7998       L1    13  0.89
      P1  H  8011  8017       L1    11  0.01

> <Gold.Chemscore.Hbond.Weighted>
-3.1182

> <Gold.Chemscore.Metal.Weighted>
-0.0000

> <Gold.Chemscore.Lipo.Weighted>
-12.3726

> <Gold.Chemscore.Internal_Hbond.Weighted>
0.0000

> <Gold.Chemscore.DEClash.Weighted>
0.2391

> <Gold.Chemscore.DEInternal.Weighted>
1.5112

> <Gold.Chemscore.Rot.Weighted>
3.8841

> <Gold.Chemscore.Internal.Correction.Weighted>
   9.000000E+99

> <Gold.Protein.RotatedTorsions>
[ 6907 6896 6895 6894 ] final   24.71 input  -60.11 | X-H torsion
[ 7974 7965 7964 7962 ] final  173.31 input  175.53 | X-H torsion
[ 8008 7997 7996 7995 ] final   98.70 input   59.86 | X-H torsion
[ 10167 10162 10161 10158 ] final -130.17 input  -65.29 | X-H torsion
[ 10718 10713 10712 10709 ] final -167.41 input   66.30 | X-H torsion
[ 10763 10752 10751 10750 ] final  132.92 input  -60.55 | X-H torsion
[ 11005 11000 10999 10996 ] final  107.87 input  -57.11 | X-H torsion

> <Gold.Protein.ActiveResidues>
 VAL166  LYS551  ARG553  GLY616  TRP617  ASP618  TYR619  PRO620  LYS621  CYS622 
 ASP623  PHE694  ASN695  SER759  ASP760  ASP761  ALA762  ILE779  LEU786  VAL792 
 PHE793  MET794  SER795  GLU796  ALA797  LYS798  CYS799  TRP800  GLU811  SER814 

> <Gold.Protein.RotatedAtoms>
  151.9616  135.0121  160.0547 H   0  0  0  0  0  0  0  0  0  0  0  0  # atno 6907 bound_to 6896
  152.1864  133.4738  159.4993 H   0  0  0  0  0  0  0  0  0  0  0  0  # atno 6908 bound_to 6896
  150.6927  134.1686  159.4246 H   0  0  0  0  0  0  0  0  0  0  0  0  # atno 6909 bound_to 6896
  144.7247  139.9628  143.6435 H   0  0  0  0  0  0  0  0  0  0  0  0  # atno 7974 bound_to 7965
  156.1031  140.3240  155.7969 H   0  0  0  0  0  0  0  0  0  0  0  0  # atno 8008 bound_to 7997
  155.4803  140.0553  157.2985 H   0  0  0  0  0  0  0  0  0  0  0  0  # atno 8009 bound_to 7997
  154.4710  140.2011  156.0011 H   0  0  0  0  0  0  0  0  0  0  0  0  # atno 8010 bound_to 7997
  139.9321  143.6260  152.2527 H   0  0  0  0  0  0  0  0  0  0  0  0  # atno 10167 bound_to 10162
  156.6820  130.9125  151.3058 H   0  0  0  0  0  0  0  0  0  0  0  0  # atno 10718 bound_to 10713
  153.7985  135.3145  155.3387 H   0  0  0  0  0  0  0  0  0  0  0  0  # atno 10763 bound_to 10752
  154.8098  135.4674  154.0489 H   0  0  0  0  0  0  0  0  0  0  0  0  # atno 10764 bound_to 10752
  153.1830  135.6896  153.8540 H   0  0  0  0  0  0  0  0  0  0  0  0  # atno 10765 bound_to 10752
  139.8835  134.9413  156.5885 H   0  0  0  0  0  0  0  0  0  0  0  0  # atno 11005 bound_to 11000
  146.0624  139.3616  143.0573 LP  0  0  0  0  0  0  0  0  0  0  0  0  # atno 17320 bound_to 7965
  145.8075  140.9741  143.0966 LP  0  0  0  0  0  0  0  0  0  0  0  0  # atno 17321 bound_to 7965
  139.6773  144.7658  151.1672 LP  0  0  0  0  0  0  0  0  0  0  0  0  # atno 17342 bound_to 10162
  140.7634  143.5776  150.8929 LP  0  0  0  0  0  0  0  0  0  0  0  0  # atno 17343 bound_to 10162
  157.7040  130.9364  150.0873 LP  0  0  0  0  0  0  0  0  0  0  0  0  # atno 17370 bound_to 10713
  156.1860  130.3652  149.8971 LP  0  0  0  0  0  0  0  0  0  0  0  0  # atno 17371 bound_to 10713
  140.7973  133.8533  155.8697 LP  0  0  0  0  0  0  0  0  0  0  0  0  # atno 17394 bound_to 11000
  140.9624  134.1639  157.4643 LP  0  0  0  0  0  0  0  0  0  0  0  0  # atno 17395 bound_to 11000

$$$$
