AV-unprocessed.smi:2604|AV-procd|sdf|10190|dock3
  -GOLD-   2272014203D 1   1.00000     0.00000
 Structure written by MMmdl.
 26 27  0  0  0  0  0  0  0  0  2 V2000
  151.3093  139.3825  155.2626 C   0  0  0  0  0  0  0  0  0  0  0  0
  150.3042  139.7014  154.3284 C   0  0  0  0  0  0  0  0  0  0  0  0
  149.5458  140.8158  154.4082 N   0  0  0  0  0  0  0  0  0  0  0  0
  149.7719  141.6629  155.4348 C   0  0  0  0  0  0  0  0  0  0  0  0
  150.7568  141.4444  156.4227 C   0  0  0  0  0  0  0  0  0  0  0  0
  150.9437  142.4396  157.5563 C   0  0  1  0  0  0  0  0  0  0  0  0
  152.0159  141.9505  158.5567 C   0  0  0  0  0  0  0  0  0  0  0  0
  152.1561  142.9064  159.6740 N   0  3  0  0  0  0  0  0  0  0  0  0
  152.4507  144.2649  159.1778 C   0  0  0  0  0  0  0  0  0  0  0  0
  151.3656  144.7066  158.1792 C   0  0  0  0  0  0  0  0  0  0  0  0
  151.3100  143.7676  157.0632 N   0  0  0  0  0  0  0  0  0  0  0  0
  151.5379  140.2711  156.3306 C   0  0  0  0  0  0  0  0  0  0  0  0
  151.8900  138.4775  155.1616 H   0  0  0  0  0  0  0  0  0  0  0  0
  150.1029  139.0430  153.4963 H   0  0  0  0  0  0  0  0  0  0  0  0
  149.1454  142.5422  155.4681 H   0  0  0  0  0  0  0  0  0  0  0  0
  149.9871  142.5282  158.0742 H   0  0  0  0  0  0  0  0  0  0  0  0
  151.7399  140.9775  158.9641 H   0  0  0  0  0  0  0  0  0  0  0  0
  152.9818  141.8285  158.0641 H   0  0  0  0  0  0  0  0  0  0  0  0
  151.2886  142.9312  160.1904 H   0  0  0  0  0  0  0  0  0  0  0  0
  152.4918  144.9521  160.0232 H   0  0  0  0  0  0  0  0  0  0  0  0
  153.4347  144.2768  158.7066 H   0  0  0  0  0  0  0  0  0  0  0  0
  150.3904  144.7685  158.6643 H   0  0  0  0  0  0  0  0  0  0  0  0
  151.5945  145.7001  157.7931 H   0  0  0  0  0  0  0  0  0  0  0  0
  150.6239  144.0797  156.3896 H   0  0  0  0  0  0  0  0  0  0  0  0
  152.2992  140.0518  157.0651 H   0  0  0  0  0  0  0  0  0  0  0  0
  152.8991  142.6021  160.2868 H   0  0  0  0  0  0  0  0  0  0  0  0
  1 12  1  0  0  0  0
  1  2  2  0  0  0  0
  1 13  1  0  0  0  0
  2  3  1  0  0  0  0
  2 14  1  0  0  0  0
  3  4  2  0  0  0  0
  4  5  1  0  0  0  0
  4 15  1  0  0  0  0
  5  6  1  0  0  0  0
  5 12  2  0  0  0  0
  6 11  1  0  0  0  0
  6  7  1  0  0  0  0
  6 16  1  0  0  0  0
  7  8  1  0  0  0  0
  7 17  1  0  0  0  0
  7 18  1  0  0  0  0
  8  9  1  0  0  0  0
  8 19  1  0  0  0  0
  8 26  1  0  0  0  0
  9 10  1  0  0  0  0
  9 20  1  0  0  0  0
  9 21  1  0  0  0  0
 10 11  1  0  0  0  0
 10 22  1  0  0  0  0
 10 23  1  0  0  0  0
 11 24  1  0  0  0  0
 12 25  1  0  0  0  0
M  CHG  1   8   1
M  END
> <s_m_source_file>
AV-unprocessed.smi

> <i_m_source_file_index>
2604

> <i_lp_mmshare_version>
43012

> <i_f3d_flags>
0

> <s_epik_input>
W2NIXTFbY0hdW2NIXW5bY0hdYzFbQ0BASF0yW0NIMl1bTkhdW0NIMl1bQ0gyXVtOSF0y

> <s_epik_cmdline>
J2VwaWtfcHl0aG9uJywgJy1waCcsICc3LjAnLCAnLXRuJywgJzgnLCAnLW1hJywgJzIwMCcsICctbWV0YWxfYmluZGluZycsICctaW1hZScsICc8aW5maWxlLm1hZT4nLCAnLW9tYWUnLCAnPG91dGZpbGUubWFlPic=

> <r_epik_Ionization_Penalty>
0.0181456

> <r_epik_Ionization_Penalty_Charging>
0.010317

> <r_epik_Ionization_Penalty_Neutral>
0.00782861

> <r_epik_State_Penalty>
0.306622

> <r_epik_Charging_Adjusted_Penalty>
0.316939

> <i_epik_Tot_Q>
1

> <i_epik_Tot_abs_Q>
1

> <r_epik_Metal_State_Penalty>
0.302658

> <b_epik_Metal_Only>
0

> <s_lp_Force_Field>
OPLS_2005

> <r_lp_Energy>
10.6943

> <b_lp_Chiralities_Consistent>
1

> <s_lp_Variant>
AV-unprocessed.smi:2604-2

> <Gold.Version>
5.8.1

> <Gold.Id.Protein>
6NUR|6NUR_protein|mol2

> <Gold.PLP.Fitness>
36.6039

> <Gold.PLP.PLP>
-28.1749

> <Gold.PLP.part.hbond>
-2.0000

> <Gold.PLP.part.metal>
0.0000

> <Gold.PLP.part.buried>
-0.7261

> <Gold.PLP.part.nonpolar>
-25.6010

> <Gold.PLP.part.repulsive>
0.1928

> <Gold.PLP.ligand.clash>
0.0000

> <Gold.PLP.ligand.torsion>
0.0090

> <Gold.PLP.Chemscore.Hbond>
1.0000

> <Gold.PLP.Chemscore.CHOScore>
1.8129

> <Gold.PLP.Chemscore.Metal>
0.0000

> <Gold.Chemscore.Hbonds>
donor molecule, donor type, donor heavy atom, donor atom, acceptor molecule, acceptor atom, score
      L1  H    11    24       P1  8028  1.00
      L1  C     2    14       P1  7957  0.71
      L1  C     4    15       P1  8028  1.00

> <Gold.PLP.Chemscore.Internal.Correction>
0.0081

> <Gold.Rescore>
     Score         DG    S(hbond)    S(metal)    S(lipo)     H(rot)  DE(clash)    DE(int)     intcor
     15.06     -15.07       1.00        0.00      75.35       1.00       0.00       0.02       ----

> <Gold.Chemscore.Fitness>
15.0557

> <Gold.Chemscore.DG>
-15.0730

> <Gold.Chemscore.ZeroCoef>
-5.4800

> <Gold.Chemscore.Hbond>
0.9991

> <Gold.Chemscore.Metal>
0.0000

> <Gold.Chemscore.Lipo>
75.3510

> <Gold.Chemscore.Internal_Hbond>
0.0000

> <Gold.Chemscore.DEClash>
0.0000

> <Gold.Chemscore.DEInternal>
0.0173

> <Gold.Chemscore.Rot>
1.0000

> <Gold.Chemscore.Internal.Correction>
   9.000000E+99

> <Gold.Chemscore.Hbonds>
donor molecule, donor type, donor heavy atom, donor atom, acceptor molecule, acceptor atom, score
      L1  H    11    24       P1  8028  0.98

> <Gold.Chemscore.Hbond.Weighted>
-3.3369

> <Gold.Chemscore.Metal.Weighted>
-0.0000

> <Gold.Chemscore.Lipo.Weighted>
-8.8161

> <Gold.Chemscore.Internal_Hbond.Weighted>
0.0000

> <Gold.Chemscore.DEClash.Weighted>
0.0000

> <Gold.Chemscore.DEInternal.Weighted>
0.0173

> <Gold.Chemscore.Rot.Weighted>
2.5600

> <Gold.Chemscore.Internal.Correction.Weighted>
   9.000000E+99

> <Gold.Protein.RotatedTorsions>
[ 6907 6896 6895 6894 ] final  151.54 input  -60.11 | X-H torsion
[ 7974 7965 7964 7962 ] final  177.38 input  175.53 | X-H torsion
[ 8008 7997 7996 7995 ] final  -29.82 input   59.86 | X-H torsion
[ 10167 10162 10161 10158 ] final   13.69 input  -65.29 | X-H torsion
[ 10718 10713 10712 10709 ] final  130.45 input   66.30 | X-H torsion
[ 10763 10752 10751 10750 ] final  144.71 input  -60.55 | X-H torsion
[ 11005 11000 10999 10996 ] final   17.72 input  -57.11 | X-H torsion

> <Gold.Protein.ActiveResidues>
 VAL166  LYS551  ARG553  GLY616  TRP617  ASP618  TYR619  PRO620  LYS621  CYS622 
 ASP623  PHE694  ASN695  SER759  ASP760  ASP761  ALA762  ILE779  LEU786  VAL792 
 PHE793  MET794  SER795  GLU796  ALA797  LYS798  CYS799  TRP800  GLU811  SER814 

> <Gold.Protein.RotatedAtoms>
  152.0993  133.4241  159.4579 H   0  0  0  0  0  0  0  0  0  0  0  0  # atno 6907 bound_to 6896
  150.6864  134.2780  159.4624 H   0  0  0  0  0  0  0  0  0  0  0  0  # atno 6908 bound_to 6896
  152.0639  134.9576  160.0625 H   0  0  0  0  0  0  0  0  0  0  0  0  # atno 6909 bound_to 6896
  144.7170  140.0238  143.6440 H   0  0  0  0  0  0  0  0  0  0  0  0  # atno 7974 bound_to 7965
  154.4274  140.1808  156.1309 H   0  0  0  0  0  0  0  0  0  0  0  0  # atno 8008 bound_to 7997
  156.0068  140.3354  155.6875 H   0  0  0  0  0  0  0  0  0  0  0  0  # atno 8009 bound_to 7997
  155.6166  140.0655  157.2681 H   0  0  0  0  0  0  0  0  0  0  0  0  # atno 8010 bound_to 7997
  140.5986  143.8651  150.6942 H   0  0  0  0  0  0  0  0  0  0  0  0  # atno 10167 bound_to 10162
  157.5061  131.1095  150.9359 H   0  0  0  0  0  0  0  0  0  0  0  0  # atno 10718 bound_to 10713
  153.9934  135.2930  155.3410 H   0  0  0  0  0  0  0  0  0  0  0  0  # atno 10763 bound_to 10752
  154.7201  135.5113  153.8802 H   0  0  0  0  0  0  0  0  0  0  0  0  # atno 10764 bound_to 10752
  153.0799  135.6675  154.0184 H   0  0  0  0  0  0  0  0  0  0  0  0  # atno 10765 bound_to 10752
  140.4328  134.1403  155.7682 H   0  0  0  0  0  0  0  0  0  0  0  0  # atno 11005 bound_to 11000
  146.0159  139.3209  143.0842 LP  0  0  0  0  0  0  0  0  0  0  0  0  # atno 17320 bound_to 7965
  145.8627  140.9466  143.0692 LP  0  0  0  0  0  0  0  0  0  0  0  0  # atno 17321 bound_to 7965
  140.2191  143.3823  152.1657 LP  0  0  0  0  0  0  0  0  0  0  0  0  # atno 17342 bound_to 10162
  139.5275  144.7120  151.5175 LP  0  0  0  0  0  0  0  0  0  0  0  0  # atno 17343 bound_to 10162
  157.0014  130.5601  149.5312 LP  0  0  0  0  0  0  0  0  0  0  0  0  # atno 17370 bound_to 10713
  156.0259  130.5353  150.8405 LP  0  0  0  0  0  0  0  0  0  0  0  0  # atno 17371 bound_to 10713
  141.1738  133.8554  157.1485 LP  0  0  0  0  0  0  0  0  0  0  0  0  # atno 17394 bound_to 11000
  140.0123  134.9983  157.0420 LP  0  0  0  0  0  0  0  0  0  0  0  0  # atno 17395 bound_to 11000

$$$$
