AV-unprocessed.smi:2924|AV-procd|sdf|11218|dock5
  -GOLD-   2272016113D 1   1.00000     0.00000
 Structure written by MMmdl.
 29 31  0  0  0  0  0  0  0  0  1 V2000
  153.1349  138.7108  155.8205 N   0  0  0  0  0  0  0  0  0  0  0  0
  152.1765  139.3566  155.7660 C   0  0  0  0  0  0  0  0  0  0  0  0
  150.9690  140.1706  155.6974 C   0  0  0  0  0  0  0  0  0  0  0  0
  150.0450  139.9349  154.6578 C   0  0  0  0  0  0  0  0  0  0  0  0
  148.8792  140.7186  154.5851 C   0  0  0  0  0  0  0  0  0  0  0  0
  148.6829  141.7120  155.5615 C   0  0  0  0  0  0  0  0  0  0  0  0
  149.5580  141.9479  156.5608 N   0  0  0  0  0  0  0  0  0  0  0  0
  150.6853  141.1984  156.6368 C   0  0  0  0  0  0  0  0  0  0  0  0
  151.5776  141.4674  157.6910 N   0  0  0  0  0  0  0  0  0  0  0  0
  151.3240  142.5352  158.6528 C   0  0  2  0  0  0  0  0  0  0  0  0
  151.2177  143.9200  158.0007 C   0  0  0  0  0  0  0  0  0  0  0  0
  152.2901  144.7113  158.7593 C   0  0  1  0  0  0  0  0  0  0  0  0
  151.9055  144.9556  160.2249 C   0  0  0  0  0  0  0  0  0  0  0  0
  152.0963  143.5666  160.8332 C   0  0  0  0  0  0  0  0  0  0  0  0
  152.5113  142.7393  159.6090 C   0  0  2  0  0  0  0  0  0  0  0  0
  153.2775  143.7069  158.9097 O   0  0  0  0  0  0  0  0  0  0  0  0
  150.2229  139.1638  153.9217 H   0  0  0  0  0  0  0  0  0  0  0  0
  148.1537  140.5624  153.8007 H   0  0  0  0  0  0  0  0  0  0  0  0
  147.8002  142.3336  155.5404 H   0  0  0  0  0  0  0  0  0  0  0  0
  152.5019  141.0604  157.6678 H   0  0  0  0  0  0  0  0  0  0  0  0
  150.4288  142.2944  159.2277 H   0  0  0  0  0  0  0  0  0  0  0  0
  151.4599  143.8848  156.9373 H   0  0  0  0  0  0  0  0  0  0  0  0
  150.2245  144.3578  158.1051 H   0  0  0  0  0  0  0  0  0  0  0  0
  152.6330  145.6039  158.2359 H   0  0  0  0  0  0  0  0  0  0  0  0
  152.5807  145.6735  160.6918 H   0  0  0  0  0  0  0  0  0  0  0  0
  150.8854  145.3273  160.3272 H   0  0  0  0  0  0  0  0  0  0  0  0
  152.8945  143.5822  161.5762 H   0  0  0  0  0  0  0  0  0  0  0  0
  151.1935  143.1844  161.3106 H   0  0  0  0  0  0  0  0  0  0  0  0
  153.0517  141.8266  159.8634 H   0  0  0  0  0  0  0  0  0  0  0  0
  1  2  3  0  0  0  0
  2  3  1  0  0  0  0
  3  8  1  0  0  0  0
  3  4  2  0  0  0  0
  4  5  1  0  0  0  0
  4 17  1  0  0  0  0
  5  6  2  0  0  0  0
  5 18  1  0  0  0  0
  6  7  1  0  0  0  0
  6 19  1  0  0  0  0
  7  8  2  0  0  0  0
  8  9  1  0  0  0  0
  9 10  1  0  0  0  0
  9 20  1  0  0  0  0
 10 15  1  0  0  0  0
 10 11  1  0  0  0  0
 10 21  1  0  0  0  0
 11 12  1  0  0  0  0
 11 22  1  0  0  0  0
 11 23  1  0  0  0  0
 12 16  1  0  0  0  0
 12 13  1  0  0  0  0
 12 24  1  0  0  0  0
 13 14  1  0  0  0  0
 13 25  1  0  0  0  0
 13 26  1  0  0  0  0
 14 15  1  0  0  0  0
 14 27  1  0  0  0  0
 14 28  1  0  0  0  0
 15 16  1  0  0  0  0
 15 29  1  0  0  0  0
M  END
> <s_m_source_file>
AV-unprocessed.smi

> <i_m_source_file_index>
2924

> <i_lp_mmshare_version>
43012

> <i_f3d_flags>
0

> <s_epik_input>
TiNDYzFbY0hdW2NIXVtjSF1uYzFbTkhdW0NASF0oW0NIMl1bQ0BASF0yMylbQ0BASF0oTzMpW0NIMl1bQ0gyXTI=

> <s_epik_cmdline>
J2VwaWtfcHl0aG9uJywgJy1waCcsICc3LjAnLCAnLXRuJywgJzgnLCAnLW1hJywgJzIwMCcsICctbWV0YWxfYmluZGluZycsICctaW1hZScsICc8aW5maWxlLm1hZT4nLCAnLW9tYWUnLCAnPG91dGZpbGUubWFlPic=

> <r_lp_tautomer_probability>
1

> <r_epik_Ionization_Penalty>
2.11559e-05

> <r_epik_Ionization_Penalty_Charging>
0

> <r_epik_Ionization_Penalty_Neutral>
2.11559e-05

> <r_epik_State_Penalty>
-0

> <r_epik_Charging_Adjusted_Penalty>
0

> <i_epik_Tot_Q>
0

> <i_epik_Tot_abs_Q>
0

> <r_epik_Metal_State_Penalty>
-0

> <b_epik_Metal_Only>
0

> <s_lp_Force_Field>
OPLS_2005

> <r_lp_Energy>
42.1946

> <b_lp_Chiralities_Consistent>
1

> <s_lp_Variant>
AV-unprocessed.smi:2924-1

> <Gold.Version>
5.8.1

> <Gold.Id.Protein>
6NUR|6NUR_protein|mol2

> <Gold.PLP.Fitness>
41.5261

> <Gold.PLP.PLP>
-37.5940

> <Gold.PLP.part.hbond>
-1.0000

> <Gold.PLP.part.metal>
0.0000

> <Gold.PLP.part.buried>
-1.6967

> <Gold.PLP.part.nonpolar>
-35.9947

> <Gold.PLP.part.repulsive>
1.2277

> <Gold.PLP.ligand.clash>
0.0000

> <Gold.PLP.ligand.torsion>
0.0214

> <Gold.PLP.Chemscore.Hbond>
0.9500

> <Gold.PLP.Chemscore.CHOScore>
0.3684

> <Gold.PLP.Chemscore.Metal>
0.0000

> <Gold.Chemscore.Hbonds>
donor molecule, donor type, donor heavy atom, donor atom, acceptor molecule, acceptor atom, score
      P1  H  7997  8010       L1     1  0.90
      L1  C     6    19       P1  8028  0.35

> <Gold.PLP.Chemscore.Internal.Correction>
0.0198

> <Gold.Rescore>
     Score         DG    S(hbond)    S(metal)    S(lipo)     H(rot)  DE(clash)    DE(int)     intcor
     16.60     -16.67       0.88        0.00      92.51       1.00       0.03       0.04       ----

> <Gold.Chemscore.Fitness>
16.6013

> <Gold.Chemscore.DG>
-16.6697

> <Gold.Chemscore.ZeroCoef>
-5.4800

> <Gold.Chemscore.Hbond>
0.8762

> <Gold.Chemscore.Metal>
0.0000

> <Gold.Chemscore.Lipo>
92.5070

> <Gold.Chemscore.Internal_Hbond>
0.0000

> <Gold.Chemscore.DEClash>
0.0298

> <Gold.Chemscore.DEInternal>
0.0386

> <Gold.Chemscore.Rot>
1.0000

> <Gold.Chemscore.Internal.Correction>
   9.000000E+99

> <Gold.Chemscore.Hbonds>
donor molecule, donor type, donor heavy atom, donor atom, acceptor molecule, acceptor atom, score
      P1  H  7997  8010       L1     1  0.17

> <Gold.Chemscore.Hbond.Weighted>
-2.9264

> <Gold.Chemscore.Metal.Weighted>
-0.0000

> <Gold.Chemscore.Lipo.Weighted>
-10.8233

> <Gold.Chemscore.Internal_Hbond.Weighted>
0.0000

> <Gold.Chemscore.DEClash.Weighted>
0.0298

> <Gold.Chemscore.DEInternal.Weighted>
0.0386

> <Gold.Chemscore.Rot.Weighted>
2.5600

> <Gold.Chemscore.Internal.Correction.Weighted>
   9.000000E+99

> <Gold.Protein.RotatedTorsions>
[ 6907 6896 6895 6894 ] final   80.80 input  -60.11 | X-H torsion
[ 7974 7965 7964 7962 ] final  103.16 input  175.53 | X-H torsion
[ 8008 7997 7996 7995 ] final   85.17 input   59.86 | X-H torsion
[ 10167 10162 10161 10158 ] final -104.73 input  -65.29 | X-H torsion
[ 10718 10713 10712 10709 ] final   83.23 input   66.30 | X-H torsion
[ 10763 10752 10751 10750 ] final  112.99 input  -60.55 | X-H torsion
[ 11005 11000 10999 10996 ] final  -52.13 input  -57.11 | X-H torsion

> <Gold.Protein.ActiveResidues>
 VAL166  LYS551  ARG553  GLY616  TRP617  ASP618  TYR619  PRO620  LYS621  CYS622 
 ASP623  PHE694  ASN695  SER759  ASP760  ASP761  ALA762  ILE779  LEU786  VAL792 
 PHE793  MET794  SER795  GLU796  ALA797  LYS798  CYS799  TRP800  GLU811  SER814 

> <Gold.Protein.RotatedAtoms>
  152.5247  134.3301  159.9179 H   0  0  0  0  0  0  0  0  0  0  0  0  # atno 6907 bound_to 6896
  151.3250  133.4017  159.2665 H   0  0  0  0  0  0  0  0  0  0  0  0  # atno 6908 bound_to 6896
  150.9927  134.9275  159.7966 H   0  0  0  0  0  0  0  0  0  0  0  0  # atno 6909 bound_to 6896
  145.3495  139.2442  143.3566 H   0  0  0  0  0  0  0  0  0  0  0  0  # atno 7974 bound_to 7965
  155.9465  140.3404  155.6372 H   0  0  0  0  0  0  0  0  0  0  0  0  # atno 8008 bound_to 7997
  155.6973  140.0756  157.2442 H   0  0  0  0  0  0  0  0  0  0  0  0  # atno 8009 bound_to 7997
  154.4113  140.1646  156.2140 H   0  0  0  0  0  0  0  0  0  0  0  0  # atno 8010 bound_to 7997
  140.2061  143.3781  152.1089 H   0  0  0  0  0  0  0  0  0  0  0  0  # atno 10167 bound_to 10162
  157.6874  131.0082  150.2492 H   0  0  0  0  0  0  0  0  0  0  0  0  # atno 10718 bound_to 10713
  153.4860  135.3669  155.2467 H   0  0  0  0  0  0  0  0  0  0  0  0  # atno 10763 bound_to 10752
  154.8754  135.3965  154.3645 H   0  0  0  0  0  0  0  0  0  0  0  0  # atno 10764 bound_to 10752
  153.4256  135.7081  153.6330 H   0  0  0  0  0  0  0  0  0  0  0  0  # atno 10765 bound_to 10752
  141.0908  133.6633  156.3978 H   0  0  0  0  0  0  0  0  0  0  0  0  # atno 11005 bound_to 11000
  146.2974  140.4109  142.8717 LP  0  0  0  0  0  0  0  0  0  0  0  0  # atno 17320 bound_to 7965
  144.8728  140.7296  143.6036 LP  0  0  0  0  0  0  0  0  0  0  0  0  # atno 17321 bound_to 7965
  139.5198  144.7024  151.5454 LP  0  0  0  0  0  0  0  0  0  0  0  0  # atno 17342 bound_to 10162
  140.6356  143.8990  150.6644 LP  0  0  0  0  0  0  0  0  0  0  0  0  # atno 17343 bound_to 10162
  156.3092  130.3769  149.7677 LP  0  0  0  0  0  0  0  0  0  0  0  0  # atno 17370 bound_to 10713
  156.5283  130.8246  151.3228 LP  0  0  0  0  0  0  0  0  0  0  0  0  # atno 17371 bound_to 10713
  140.5257  134.6261  157.5333 LP  0  0  0  0  0  0  0  0  0  0  0  0  # atno 17394 bound_to 11000
  139.9733  134.7256  155.9998 LP  0  0  0  0  0  0  0  0  0  0  0  0  # atno 17395 bound_to 11000

$$$$
