AV-unprocessed.smi:1567|AV-procd|sdf|6306|dock2
  -GOLD-   22720 6503D 1   1.00000     0.00000
 Structure written by MMmdl.
 42 44  0  0  0  0  0  0  0  0  1 V2000
  151.7629  136.7854  154.5949 O   0  0  0  0  0  0  0  0  0  0  0  0
  151.3688  136.7971  155.9504 C   0  0  0  0  0  0  0  0  0  0  0  0
  151.9635  138.0123  156.6758 C   0  0  0  0  0  0  0  0  0  0  0  0
  152.1260  139.2450  155.7705 C   0  0  0  0  0  0  0  0  0  0  0  0
  150.8177  139.7274  155.2093 C   0  0  0  0  0  0  0  0  0  0  0  0
  150.0868  138.9356  154.4225 N   0  0  0  0  0  0  0  0  0  0  0  0
  148.9922  139.7198  154.1231 C   0  0  0  0  0  0  0  0  0  0  0  0
  147.8510  139.4417  153.3375 C   0  0  0  0  0  0  0  0  0  0  0  0
  146.8466  140.4170  153.1685 C   0  0  0  0  0  0  0  0  0  0  0  0
  146.9705  141.6815  153.7796 C   0  0  0  0  0  0  0  0  0  0  0  0
  148.1008  141.9783  154.5653 C   0  0  0  0  0  0  0  0  0  0  0  0
  149.0994  140.9999  154.7334 C   0  0  0  0  0  0  0  0  0  0  0  0
  150.3078  140.9716  155.4247 N   0  0  0  0  0  0  0  0  0  0  0  0
  150.8555  142.0898  156.1859 C   0  0  0  0  0  0  0  0  0  0  0  0
  150.3578  142.1212  157.6446 C   0  0  2  0  0  0  0  0  0  0  0  0
  149.4881  143.2263  157.7831 O   0  0  0  0  0  0  0  0  0  0  0  0
  151.4926  142.1584  158.6607 C   0  0  0  0  0  0  0  0  0  0  0  0
  152.1013  140.9576  159.0892 C   0  0  0  0  0  0  0  0  0  0  0  0
  153.1585  140.9865  160.0188 C   0  0  0  0  0  0  0  0  0  0  0  0
  153.7329  139.8302  160.4263 F   0  0  0  0  0  0  0  0  0  0  0  0
  153.6157  142.2169  160.5269 C   0  0  0  0  0  0  0  0  0  0  0  0
  153.0097  143.4173  160.1094 C   0  0  0  0  0  0  0  0  0  0  0  0
  151.9494  143.3905  159.1823 C   0  0  0  0  0  0  0  0  0  0  0  0
  151.3735  144.5553  158.7992 F   0  0  0  0  0  0  0  0  0  0  0  0
  151.0341  137.0719  154.0658 H   0  0  0  0  0  0  0  0  0  0  0  0
  150.2799  136.8340  155.9923 H   0  0  0  0  0  0  0  0  0  0  0  0
  151.6774  135.8674  156.4288 H   0  0  0  0  0  0  0  0  0  0  0  0
  151.3537  138.2599  157.5457 H   0  0  0  0  0  0  0  0  0  0  0  0
  152.9409  137.7341  157.0664 H   0  0  0  0  0  0  0  0  0  0  0  0
  152.6253  140.0285  156.3338 H   0  0  0  0  0  0  0  0  0  0  0  0
  152.7863  139.0082  154.9356 H   0  0  0  0  0  0  0  0  0  0  0  0
  147.7484  138.4766  152.8638 H   0  0  0  0  0  0  0  0  0  0  0  0
  145.9780  140.1941  152.5664 H   0  0  0  0  0  0  0  0  0  0  0  0
  146.1973  142.4235  153.6444 H   0  0  0  0  0  0  0  0  0  0  0  0
  148.1981  142.9463  155.0338 H   0  0  0  0  0  0  0  0  0  0  0  0
  151.9419  142.1035  156.1361 H   0  0  0  0  0  0  0  0  0  0  0  0
  150.5389  143.0034  155.6809 H   0  0  0  0  0  0  0  0  0  0  0  0
  149.7453  141.2380  157.8267 H   0  0  0  0  0  0  0  0  0  0  0  0
  149.3122  143.5784  156.9238 H   0  0  0  0  0  0  0  0  0  0  0  0
  151.7575  140.0081  158.7057 H   0  0  0  0  0  0  0  0  0  0  0  0
  154.4263  142.2401  161.2402 H   0  0  0  0  0  0  0  0  0  0  0  0
  153.3561  144.3608  160.5042 H   0  0  0  0  0  0  0  0  0  0  0  0
  1  2  1  0  0  0  0
  1 25  1  0  0  0  0
  2  3  1  0  0  0  0
  2 26  1  0  0  0  0
  2 27  1  0  0  0  0
  3  4  1  0  0  0  0
  3 28  1  0  0  0  0
  3 29  1  0  0  0  0
  4  5  1  0  0  0  0
  4 30  1  0  0  0  0
  4 31  1  0  0  0  0
  5 13  1  0  0  0  0
  5  6  2  0  0  0  0
  6  7  1  0  0  0  0
  7 12  2  0  0  0  0
  7  8  1  0  0  0  0
  8  9  2  0  0  0  0
  8 32  1  0  0  0  0
  9 10  1  0  0  0  0
  9 33  1  0  0  0  0
 10 11  2  0  0  0  0
 10 34  1  0  0  0  0
 11 12  1  0  0  0  0
 11 35  1  0  0  0  0
 12 13  1  0  0  0  0
 13 14  1  0  0  0  0
 14 15  1  0  0  0  0
 14 36  1  0  0  0  0
 14 37  1  0  0  0  0
 15 16  1  0  0  0  0
 15 17  1  0  0  0  0
 15 38  1  0  0  0  0
 16 39  1  0  0  0  0
 17 23  1  0  0  0  0
 17 18  2  0  0  0  0
 18 19  1  0  0  0  0
 18 40  1  0  0  0  0
 19 20  1  0  0  0  0
 19 21  2  0  0  0  0
 21 22  1  0  0  0  0
 21 41  1  0  0  0  0
 22 23  2  0  0  0  0
 22 42  1  0  0  0  0
 23 24  1  0  0  0  0
M  END
> <s_m_source_file>
AV-unprocessed.smi

> <i_m_source_file_index>
1567

> <i_lp_mmshare_version>
43012

> <i_f3d_flags>
0

> <s_epik_input>
W09IXVtDSDJdW0NIMl1bQ0gyXWMobjEpbihjKGMxMilbY0hdW2NIXVtjSF1bY0hdMilbQ0gyXVtDQEhdKFtPSF0pYzNbY0hdYyhGKVtjSF1bY0hdYzNG

> <s_epik_cmdline>
J2VwaWtfcHl0aG9uJywgJy1waCcsICc3LjAnLCAnLXRuJywgJzgnLCAnLW1hJywgJzIwMCcsICctbWV0YWxfYmluZGluZycsICctaW1hZScsICc8aW5maWxlLm1hZT4nLCAnLW9tYWUnLCAnPG91dGZpbGUubWFlPic=

> <r_epik_Ionization_Penalty>
0.182562

> <r_epik_Ionization_Penalty_Charging>
0

> <r_epik_Ionization_Penalty_Neutral>
0.182562

> <r_epik_State_Penalty>
0.172086

> <r_epik_Charging_Adjusted_Penalty>
0.172086

> <i_epik_Tot_Q>
0

> <i_epik_Tot_abs_Q>
0

> <r_epik_Metal_State_Penalty>
0.000199649

> <b_epik_Metal_Only>
0

> <s_lp_Force_Field>
OPLS_2005

> <r_lp_Energy>
11.8794

> <b_lp_Chiralities_Consistent>
1

> <s_lp_Variant>
AV-unprocessed.smi:1567-1

> <Gold.Version>
5.8.1

> <Gold.Id.Protein>
6NUR|6NUR_protein|mol2

> <Gold.PLP.Fitness>
55.1508

> <Gold.PLP.PLP>
-53.0440

> <Gold.PLP.part.hbond>
-2.7446

> <Gold.PLP.part.metal>
0.0000

> <Gold.PLP.part.buried>
-0.3442

> <Gold.PLP.part.nonpolar>
-49.6950

> <Gold.PLP.part.repulsive>
0.1837

> <Gold.PLP.ligand.clash>
0.0000

> <Gold.PLP.ligand.torsion>
1.9742

> <Gold.PLP.Chemscore.Hbond>
2.0000

> <Gold.PLP.Chemscore.CHOScore>
0.0000

> <Gold.PLP.Chemscore.Metal>
0.0000

> <Gold.Chemscore.Hbonds>
donor molecule, donor type, donor heavy atom, donor atom, acceptor molecule, acceptor atom, score
      L1  H    16    39       P1  8028  1.00
      P1  H 10752 10763       L1     1  1.00

> <Gold.PLP.Chemscore.Internal.Correction>
0.0552

> <Gold.Rescore>
     Score         DG    S(hbond)    S(metal)    S(lipo)     H(rot)  DE(clash)    DE(int)     intcor
     14.62     -18.93       1.87        0.00     132.14       3.23       0.92       3.40       ----

> <Gold.Chemscore.Fitness>
14.6210

> <Gold.Chemscore.DG>
-18.9330

> <Gold.Chemscore.ZeroCoef>
-5.4800

> <Gold.Chemscore.Hbond>
1.8733

> <Gold.Chemscore.Metal>
0.0000

> <Gold.Chemscore.Lipo>
132.1368

> <Gold.Chemscore.Internal_Hbond>
0.0000

> <Gold.Chemscore.DEClash>
0.9156

> <Gold.Chemscore.DEInternal>
3.3965

> <Gold.Chemscore.Rot>
3.2281

> <Gold.Chemscore.Internal.Correction>
   9.000000E+99

> <Gold.Chemscore.Hbonds>
donor molecule, donor type, donor heavy atom, donor atom, acceptor molecule, acceptor atom, score
      L1  H    16    39       P1  8028  0.88
      P1  H 10752 10763       L1     1  0.50

> <Gold.Chemscore.Hbond.Weighted>
-6.2569

> <Gold.Chemscore.Metal.Weighted>
-0.0000

> <Gold.Chemscore.Lipo.Weighted>
-15.4600

> <Gold.Chemscore.Internal_Hbond.Weighted>
0.0000

> <Gold.Chemscore.DEClash.Weighted>
0.9156

> <Gold.Chemscore.DEInternal.Weighted>
3.3965

> <Gold.Chemscore.Rot.Weighted>
8.2639

> <Gold.Chemscore.Internal.Correction.Weighted>
   9.000000E+99

> <Gold.Protein.RotatedTorsions>
[ 6907 6896 6895 6894 ] final   10.27 input  -60.11 | X-H torsion
[ 7974 7965 7964 7962 ] final  -64.97 input  175.53 | X-H torsion
[ 8008 7997 7996 7995 ] final  -62.22 input   59.86 | X-H torsion
[ 10167 10162 10161 10158 ] final -142.68 input  -65.29 | X-H torsion
[ 10718 10713 10712 10709 ] final   34.87 input   66.30 | X-H torsion
[ 10763 10752 10751 10750 ] final   55.15 input  -60.55 | X-H torsion
[ 11005 11000 10999 10996 ] final   70.07 input  -57.11 | X-H torsion

> <Gold.Protein.ActiveResidues>
 VAL166  LYS551  ARG553  GLY616  TRP617  ASP618  TYR619  PRO620  LYS621  CYS622 
 ASP623  PHE694  ASN695  SER759  ASP760  ASP761  ALA762  ILE779  LEU786  VAL792 
 PHE793  MET794  SER795  GLU796  ALA797  LYS798  CYS799  TRP800  GLU811  SER814 

> <Gold.Protein.RotatedAtoms>
  151.7356  135.0865  160.0306 H   0  0  0  0  0  0  0  0  0  0  0  0  # atno 6907 bound_to 6896
  152.3513  133.6179  159.5955 H   0  0  0  0  0  0  0  0  0  0  0  0  # atno 6908 bound_to 6896
  150.7542  133.9486  159.3520 H   0  0  0  0  0  0  0  0  0  0  0  0  # atno 6909 bound_to 6896
  145.7601  140.8865  143.0434 H   0  0  0  0  0  0  0  0  0  0  0  0  # atno 7974 bound_to 7965
  154.4488  140.1001  156.6553 H   0  0  0  0  0  0  0  0  0  0  0  0  # atno 8008 bound_to 7997
  155.5353  140.3482  155.4416 H   0  0  0  0  0  0  0  0  0  0  0  0  # atno 8009 bound_to 7997
  156.0635  140.1332  156.9902 H   0  0  0  0  0  0  0  0  0  0  0  0  # atno 8010 bound_to 7997
  139.8065  143.7761  152.2661 H   0  0  0  0  0  0  0  0  0  0  0  0  # atno 10167 bound_to 10162
  157.3157  130.7422  149.6753 H   0  0  0  0  0  0  0  0  0  0  0  0  # atno 10718 bound_to 10713
  152.9813  135.5720  154.5020 H   0  0  0  0  0  0  0  0  0  0  0  0  # atno 10763 bound_to 10752
  154.4538  135.2779  155.1764 H   0  0  0  0  0  0  0  0  0  0  0  0  # atno 10764 bound_to 10752
  154.3381  135.6235  153.5636 H   0  0  0  0  0  0  0  0  0  0  0  0  # atno 10765 bound_to 10752
  139.9618  134.7048  156.0630 H   0  0  0  0  0  0  0  0  0  0  0  0  # atno 11005 bound_to 11000
  144.6832  139.9711  143.7482 LP  0  0  0  0  0  0  0  0  0  0  0  0  # atno 17320 bound_to 7965
  146.0272  139.3303  143.0777 LP  0  0  0  0  0  0  0  0  0  0  0  0  # atno 17321 bound_to 7965
  139.7897  144.7415  150.9972 LP  0  0  0  0  0  0  0  0  0  0  0  0  # atno 17342 bound_to 10162
  140.7819  143.4455  151.0489 LP  0  0  0  0  0  0  0  0  0  0  0  0  # atno 17343 bound_to 10162
  155.9681  130.4238  150.4579 LP  0  0  0  0  0  0  0  0  0  0  0  0  # atno 17370 bound_to 10713
  157.2586  131.0562  151.2335 LP  0  0  0  0  0  0  0  0  0  0  0  0  # atno 17371 bound_to 10713
  141.1296  133.6590  156.3427 LP  0  0  0  0  0  0  0  0  0  0  0  0  # atno 17394 bound_to 11000
  140.5483  134.6052  157.5400 LP  0  0  0  0  0  0  0  0  0  0  0  0  # atno 17395 bound_to 11000

$$$$
