AV-unprocessed.smi:66|AV-procd|sdf|623|dock2
  -GOLD-   2262016513D 1   1.00000     0.00000
 Structure written by MMmdl.
 28 30  0  0  0  0  0  0  0  0  2 V2000
  150.7445  140.7367  155.0093 O   0  0  0  0  0  0  0  0  0  0  0  0
  151.3997  140.2550  155.9591 C   0  0  0  0  0  0  0  0  0  0  0  0
  152.5517  139.7738  155.8731 O   0  5  0  0  0  0  0  0  0  0  0  0
  150.7223  140.2549  157.3377 C   0  0  2  0  0  0  0  0  0  0  0  0
  149.2766  140.7979  157.2867 C   0  0  0  0  0  0  0  0  0  0  0  0
  149.2040  141.7950  158.4433 C   0  0  2  0  0  0  0  0  0  0  0  0
  148.2926  142.8446  158.1961 O   0  0  0  0  0  0  0  0  0  0  0  0
  150.6425  142.2872  158.5535 C   0  0  0  0  0  0  0  0  0  0  0  0
  151.4518  141.1016  158.2871 N   0  0  0  0  0  0  0  0  0  0  0  0
  152.1394  140.4478  159.3355 C   0  0  0  0  0  0  0  0  0  0  0  0
  153.0456  139.4804  159.0527 N   0  0  0  0  0  0  0  0  0  0  0  0
  153.6802  138.8824  160.0695 C   0  0  0  0  0  0  0  0  0  0  0  0
  153.5557  139.0959  161.3882 N   0  0  0  0  0  0  0  0  0  0  0  0
  152.6610  140.0458  161.6902 C   0  0  0  0  0  0  0  0  0  0  0  0
  152.3231  140.4720  162.9676 N   0  0  0  0  0  0  0  0  0  0  0  0
  151.4065  141.4047  162.7131 C   0  0  0  0  0  0  0  0  0  0  0  0
  151.1197  141.6218  161.4196 N   0  0  0  0  0  0  0  0  0  0  0  0
  151.9224  140.7551  160.6961 C   0  0  0  0  0  0  0  0  0  0  0  0
  150.4551  142.2989  161.0677 H   0  0  0  0  0  0  0  0  0  0  0  0
  150.6856  139.2310  157.7133 H   0  0  0  0  0  0  0  0  0  0  0  0
  149.0762  141.3063  156.3413 H   0  0  0  0  0  0  0  0  0  0  0  0
  148.5353  140.0049  157.3891 H   0  0  0  0  0  0  0  0  0  0  0  0
  148.9225  141.2766  159.3611 H   0  0  0  0  0  0  0  0  0  0  0  0
  148.4208  143.1454  157.3092 H   0  0  0  0  0  0  0  0  0  0  0  0
  150.8594  143.0154  157.7702 H   0  0  0  0  0  0  0  0  0  0  0  0
  150.8329  142.7874  159.5029 H   0  0  0  0  0  0  0  0  0  0  0  0
  154.3927  138.1213  159.7878 H   0  0  0  0  0  0  0  0  0  0  0  0
  150.9207  141.9571  163.5038 H   0  0  0  0  0  0  0  0  0  0  0  0
  1  2  2  0  0  0  0
  2  3  1  0  0  0  0
  2  4  1  0  0  0  0
  4  9  1  0  0  0  0
  4  5  1  0  0  0  0
  4 20  1  0  0  0  0
  5  6  1  0  0  0  0
  5 21  1  0  0  0  0
  5 22  1  0  0  0  0
  6  7  1  0  0  0  0
  6  8  1  0  0  0  0
  6 23  1  0  0  0  0
  7 24  1  0  0  0  0
  8  9  1  0  0  0  0
  8 25  1  0  0  0  0
  8 26  1  0  0  0  0
  9 10  1  0  0  0  0
 10 18  1  0  0  0  0
 10 11  2  0  0  0  0
 11 12  1  0  0  0  0
 12 13  2  0  0  0  0
 12 27  1  0  0  0  0
 13 14  1  0  0  0  0
 14 18  2  0  0  0  0
 14 15  1  0  0  0  0
 15 16  2  0  0  0  0
 16 17  1  0  0  0  0
 16 28  1  0  0  0  0
 17 19  1  0  0  0  0
 17 18  1  0  0  0  0
M  CHG  1   3  -1
M  END
> <s_m_source_file>
AV-unprocessed.smi

> <i_m_source_file_index>
66

> <i_lp_mmshare_version>
43012

> <i_f3d_flags>
0

> <s_epik_input>
Tz1DKFtPSF0pW0NAQEhdMVtDSDJdW0NAQEhdKFtPSF0pW0NIMl1OMWMobltjSF1uMiljKGMyMylbbkhdW2NIXW4z

> <s_epik_cmdline>
J2VwaWtfcHl0aG9uJywgJy1waCcsICc3LjAnLCAnLXRuJywgJzgnLCAnLW1hJywgJzIwMCcsICctbWV0YWxfYmluZGluZycsICctaW1hZScsICc8aW5maWxlLm1hZT4nLCAnLW9tYWUnLCAnPG91dGZpbGUubWFlPic=

> <r_lp_tautomer_probability>
0.0419193

> <r_epik_Ionization_Penalty>
0.0157405

> <r_epik_Ionization_Penalty_Charging>
0.000248217

> <r_epik_Ionization_Penalty_Neutral>
0.0154923

> <r_epik_State_Penalty>
1.99742

> <r_epik_Charging_Adjusted_Penalty>
1.99767

> <i_epik_Tot_Q>
-1

> <i_epik_Tot_abs_Q>
1

> <r_epik_Metal_State_Penalty>
2.31035

> <b_epik_Metal_Only>
0

> <s_lp_Force_Field>
OPLS_2005

> <r_lp_Energy>
22.103

> <b_lp_Chiralities_Consistent>
1

> <s_lp_Variant>
AV-unprocessed.smi:66-7

> <Gold.Version>
5.8.1

> <Gold.Id.Protein>
6NUR|6NUR_protein|mol2

> <Gold.PLP.Fitness>
43.4474

> <Gold.PLP.PLP>
-32.2795

> <Gold.PLP.part.hbond>
-5.8856

> <Gold.PLP.part.metal>
0.0000

> <Gold.PLP.part.buried>
-4.7325

> <Gold.PLP.part.nonpolar>
-21.2984

> <Gold.PLP.part.repulsive>
0.1588

> <Gold.PLP.ligand.clash>
0.6375

> <Gold.PLP.ligand.torsion>
0.1495

> <Gold.PLP.Chemscore.Hbond>
3.9600

> <Gold.PLP.Chemscore.CHOScore>
0.0000

> <Gold.PLP.Chemscore.Metal>
0.0000

> <Gold.Chemscore.Hbonds>
donor molecule, donor type, donor heavy atom, donor atom, acceptor molecule, acceptor atom, score
      L1  H     7    24       P1  8028  0.28
      P1  H  7989  7998       L1     1  0.88
      P1  H  7997  8009       L1     3  2.00

> <Gold.PLP.Chemscore.Internal.Correction>
0.2244

> <Gold.Rescore>
     Score         DG    S(hbond)    S(metal)    S(lipo)     H(rot)  DE(clash)    DE(int)     intcor
     10.73     -11.97       2.65        0.00      34.10       2.48       0.01       1.23       ----

> <Gold.Chemscore.Fitness>
10.7303

> <Gold.Chemscore.DG>
-11.9659

> <Gold.Chemscore.ZeroCoef>
-5.4800

> <Gold.Chemscore.Hbond>
2.6454

> <Gold.Chemscore.Metal>
0.0000

> <Gold.Chemscore.Lipo>
34.0967

> <Gold.Chemscore.Internal_Hbond>
0.0000

> <Gold.Chemscore.DEClash>
0.0050

> <Gold.Chemscore.DEInternal>
1.2305

> <Gold.Chemscore.Rot>
2.4762

> <Gold.Chemscore.Internal.Correction>
   9.000000E+99

> <Gold.Chemscore.Hbonds>
donor molecule, donor type, donor heavy atom, donor atom, acceptor molecule, acceptor atom, score
      L1  H     7    24       P1  8028  0.05
      P1  H  7989  7998       L1     1  0.78
      P1  H  7997  8009       L1     3  1.00

> <Gold.Chemscore.Hbond.Weighted>
-8.8356

> <Gold.Chemscore.Metal.Weighted>
-0.0000

> <Gold.Chemscore.Lipo.Weighted>
-3.9893

> <Gold.Chemscore.Internal_Hbond.Weighted>
0.0000

> <Gold.Chemscore.DEClash.Weighted>
0.0050

> <Gold.Chemscore.DEInternal.Weighted>
1.2305

> <Gold.Chemscore.Rot.Weighted>
6.3391

> <Gold.Chemscore.Internal.Correction.Weighted>
   9.000000E+99

> <Gold.Protein.RotatedTorsions>
[ 6907 6896 6895 6894 ] final  -54.15 input  -60.11 | X-H torsion
[ 7974 7965 7964 7962 ] final   96.41 input  175.53 | X-H torsion
[ 8008 7997 7996 7995 ] final -161.76 input   59.86 | X-H torsion
[ 10167 10162 10161 10158 ] final -107.81 input  -65.29 | X-H torsion
[ 10718 10713 10712 10709 ] final   81.01 input   66.30 | X-H torsion
[ 10763 10752 10751 10750 ] final -115.76 input  -60.55 | X-H torsion
[ 11005 11000 10999 10996 ] final  -12.73 input  -57.11 | X-H torsion

> <Gold.Protein.ActiveResidues>
 VAL166  LYS551  ARG553  GLY616  TRP617  ASP618  TYR619  PRO620  LYS621  CYS622 
 ASP623  PHE694  ASN695  SER759  ASP760  ASP761  ALA762  ILE779  LEU786  VAL792 
 PHE793  MET794  SER795  GLU796  ALA797  LYS798  CYS799  TRP800  GLU811  SER814 

> <Gold.Protein.RotatedAtoms>
  150.8363  134.7638  159.6895 H   0  0  0  0  0  0  0  0  0  0  0  0  # atno 6907 bound_to 6896
  152.4459  134.5491  159.9871 H   0  0  0  0  0  0  0  0  0  0  0  0  # atno 6908 bound_to 6896
  151.5641  133.3361  159.3012 H   0  0  0  0  0  0  0  0  0  0  0  0  # atno 6909 bound_to 6896
  145.4393  139.2303  143.3101 H   0  0  0  0  0  0  0  0  0  0  0  0  # atno 7974 bound_to 7965
  155.7970  140.0886  157.1978 H   0  0  0  0  0  0  0  0  0  0  0  0  # atno 8008 bound_to 7997
  154.3983  140.1479  156.3288 H   0  0  0  0  0  0  0  0  0  0  0  0  # atno 8009 bound_to 7997
  155.8501  140.3435  155.5690 H   0  0  0  0  0  0  0  0  0  0  0  0  # atno 8010 bound_to 7997
  140.1730  143.4028  152.1340 H   0  0  0  0  0  0  0  0  0  0  0  0  # atno 10167 bound_to 10162
  157.6821  130.9985  150.2164 H   0  0  0  0  0  0  0  0  0  0  0  0  # atno 10718 bound_to 10713
  154.8494  135.4370  154.1714 H   0  0  0  0  0  0  0  0  0  0  0  0  # atno 10763 bound_to 10752
  153.2826  135.6955  153.7376 H   0  0  0  0  0  0  0  0  0  0  0  0  # atno 10764 bound_to 10752
  153.6574  135.3441  155.3092 H   0  0  0  0  0  0  0  0  0  0  0  0  # atno 10765 bound_to 10752
  140.7687  133.8456  155.9188 H   0  0  0  0  0  0  0  0  0  0  0  0  # atno 11005 bound_to 11000
  146.2565  140.5139  142.8871 LP  0  0  0  0  0  0  0  0  0  0  0  0  # atno 17320 bound_to 7965
  144.8132  140.6422  143.6401 LP  0  0  0  0  0  0  0  0  0  0  0  0  # atno 17321 bound_to 7965
  139.5329  144.7179  151.4991 LP  0  0  0  0  0  0  0  0  0  0  0  0  # atno 17342 bound_to 10162
  140.6570  143.8579  150.6846 LP  0  0  0  0  0  0  0  0  0  0  0  0  # atno 17343 bound_to 10162
  156.2824  130.3735  149.7922 LP  0  0  0  0  0  0  0  0  0  0  0  0  # atno 17370 bound_to 10713
  156.5606  130.8382  151.3327 LP  0  0  0  0  0  0  0  0  0  0  0  0  # atno 17371 bound_to 10713
  140.9594  134.1675  157.4666 LP  0  0  0  0  0  0  0  0  0  0  0  0  # atno 17394 bound_to 11000
  139.8759  134.9939  156.5668 LP  0  0  0  0  0  0  0  0  0  0  0  0  # atno 17395 bound_to 11000

$$$$
