AV-unprocessed.smi:21|AV-procd|sdf|129|dock4
  -GOLD-   2262015313D 1   1.00000     0.00000
 Structure written by MMmdl.
 62 65  0  0  0  0  0  0  0  0  2 V2000
  146.2349  130.4204  151.8885 C   0  0  0  0  0  0  0  0  0  0  0  0
  146.3488  131.8236  151.7158 O   0  0  0  0  0  0  0  0  0  0  0  0
  146.6374  132.5194  152.9192 C   0  0  1  0  0  0  0  0  0  0  0  0
  148.1249  132.4443  153.2353 C   0  0  0  0  0  0  0  0  0  0  0  0
  148.3375  133.6463  154.1583 C   0  0  1  0  0  0  0  0  0  0  0  0
  149.8010  134.1388  154.1948 C   0  0  0  0  0  0  0  0  0  0  0  0
  150.3006  134.3881  155.5463 N   0  0  0  0  0  0  0  0  0  0  0  0
  151.4920  133.6611  155.9623 C   0  0  0  0  0  0  0  0  0  0  0  0
  150.2663  135.6532  156.0315 C   0  0  0  0  0  0  0  0  0  0  0  0
  149.4106  135.8942  157.0564 N   0  0  0  0  0  0  0  0  0  0  0  0
  149.3032  137.1236  157.5688 C   0  0  0  0  0  0  0  0  0  0  0  0
  149.9472  138.2358  157.2106 N   0  0  0  0  0  0  0  0  0  0  0  0
  150.8195  137.9958  156.1904 C   0  0  0  0  0  0  0  0  0  0  0  0
  151.0481  136.7448  155.5507 C   0  0  0  0  0  0  0  0  0  0  0  0
  152.0184  136.8933  154.5649 N   0  0  0  0  0  0  0  0  0  0  0  0
  152.3347  138.1582  154.6114 C   0  0  0  0  0  0  0  0  0  0  0  0
  151.6516  138.8959  155.5504 N   0  0  0  0  0  0  0  0  0  0  0  0
  151.7850  140.3176  155.8089 C   0  0  0  0  0  0  0  0  0  0  0  0
  151.1508  140.7605  157.1504 C   0  0  2  0  0  0  0  0  0  0  0  0
  149.6801  141.2309  157.0016 C   0  0  0  0  0  0  0  0  0  0  0  0
  149.5092  142.0842  155.8874 O   0  0  0  0  0  0  0  0  0  0  0  0
  152.0613  141.8062  157.8441 C   0  0  1  0  0  0  0  0  0  0  0  0
  151.6170  143.2610  157.7277 C   0  0  0  0  0  0  0  0  0  0  0  0
  152.1859  143.8781  158.9973 C   0  0  0  0  0  0  0  0  0  0  0  0
  151.9669  142.8614  159.9601 O   0  0  0  0  0  0  0  0  0  0  0  0
  152.2641  141.6071  159.3571 C   0  0  0  0  0  0  0  0  0  0  0  0
  147.4230  134.6923  153.6451 N   0  3  2  0  0  0  0  0  0  0  0  0
  146.8808  135.5854  154.6926 C   0  0  0  0  0  0  0  0  0  0  0  0
  146.3822  134.0298  152.8232 C   0  0  0  0  0  0  0  0  0  0  0  0
  146.0804  132.0959  153.7574 H   0  0  0  0  0  0  0  0  0  0  0  0
  147.9918  133.3662  155.1546 H   0  0  0  0  0  0  0  0  0  0  0  0
  146.0304  129.9511  150.9263 H   0  0  0  0  0  0  0  0  0  0  0  0
  145.4190  130.1636  152.5649 H   0  0  0  0  0  0  0  0  0  0  0  0
  147.1602  129.9946  152.2786 H   0  0  0  0  0  0  0  0  0  0  0  0
  148.4121  131.4990  153.6970 H   0  0  0  0  0  0  0  0  0  0  0  0
  148.7071  132.5621  152.3199 H   0  0  0  0  0  0  0  0  0  0  0  0
  150.4387  133.3900  153.7232 H   0  0  0  0  0  0  0  0  0  0  0  0
  149.9193  135.0414  153.5962 H   0  0  0  0  0  0  0  0  0  0  0  0
  151.5256  133.5564  157.0472 H   0  0  0  0  0  0  0  0  0  0  0  0
  152.3943  134.1812  155.6384 H   0  0  0  0  0  0  0  0  0  0  0  0
  151.5057  132.6592  155.5327 H   0  0  0  0  0  0  0  0  0  0  0  0
  148.5968  137.2328  158.3787 H   0  0  0  0  0  0  0  0  0  0  0  0
  153.0692  138.5934  153.9496 H   0  0  0  0  0  0  0  0  0  0  0  0
  152.8490  140.5569  155.7959 H   0  0  0  0  0  0  0  0  0  0  0  0
  151.3364  140.8637  154.9783 H   0  0  0  0  0  0  0  0  0  0  0  0
  151.1492  139.8916  157.8111 H   0  0  0  0  0  0  0  0  0  0  0  0
  149.0079  140.3856  156.8592 H   0  0  0  0  0  0  0  0  0  0  0  0
  149.3432  141.7479  157.9002 H   0  0  0  0  0  0  0  0  0  0  0  0
  149.0872  142.8770  156.1812 H   0  0  0  0  0  0  0  0  0  0  0  0
  153.0535  141.7351  157.3946 H   0  0  0  0  0  0  0  0  0  0  0  0
  151.9828  143.7465  156.8225 H   0  0  0  0  0  0  0  0  0  0  0  0
  150.5316  143.3525  157.7424 H   0  0  0  0  0  0  0  0  0  0  0  0
  153.2555  144.0680  158.8980 H   0  0  0  0  0  0  0  0  0  0  0  0
  151.6914  144.8097  159.2734 H   0  0  0  0  0  0  0  0  0  0  0  0
  151.6341  140.8268  159.7836 H   0  0  0  0  0  0  0  0  0  0  0  0
  153.3001  141.3406  159.5700 H   0  0  0  0  0  0  0  0  0  0  0  0
  146.2726  135.0299  155.4079 H   0  0  0  0  0  0  0  0  0  0  0  0
  146.2606  136.3632  154.2462 H   0  0  0  0  0  0  0  0  0  0  0  0
  147.6888  136.0739  155.2377 H   0  0  0  0  0  0  0  0  0  0  0  0
  146.5066  134.3725  151.7954 H   0  0  0  0  0  0  0  0  0  0  0  0
  145.3676  134.2852  153.1330 H   0  0  0  0  0  0  0  0  0  0  0  0
  147.9610  135.2646  153.0099 H   0  0  0  0  0  0  0  0  0  0  0  0
  1  2  1  0  0  0  0
  1 32  1  0  0  0  0
  1 33  1  0  0  0  0
  1 34  1  0  0  0  0
  2  3  1  0  0  0  0
  3 30  1  0  0  0  0
  3 29  1  0  0  0  0
  3  4  1  0  0  0  0
  4  5  1  0  0  0  0
  4 35  1  0  0  0  0
  4 36  1  0  0  0  0
  5 31  1  0  0  0  0
  5  6  1  0  0  0  0
  5 27  1  0  0  0  0
  6  7  1  0  0  0  0
  6 37  1  0  0  0  0
  6 38  1  0  0  0  0
  7  8  1  0  0  0  0
  7  9  1  0  0  0  0
  8 39  1  0  0  0  0
  8 40  1  0  0  0  0
  8 41  1  0  0  0  0
  9 14  1  0  0  0  0
  9 10  2  0  0  0  0
 10 11  1  0  0  0  0
 11 12  2  0  0  0  0
 11 42  1  0  0  0  0
 12 13  1  0  0  0  0
 13 17  1  0  0  0  0
 13 14  2  0  0  0  0
 14 15  1  0  0  0  0
 15 16  2  0  0  0  0
 16 17  1  0  0  0  0
 16 43  1  0  0  0  0
 17 18  1  0  0  0  0
 18 19  1  0  0  0  0
 18 44  1  0  0  0  0
 18 45  1  0  0  0  0
 19 20  1  0  0  0  0
 19 22  1  0  0  0  0
 19 46  1  0  0  0  0
 20 21  1  0  0  0  0
 20 47  1  0  0  0  0
 20 48  1  0  0  0  0
 21 49  1  0  0  0  0
 22 26  1  0  0  0  0
 22 23  1  0  0  0  0
 22 50  1  0  0  0  0
 23 24  1  0  0  0  0
 23 51  1  0  0  0  0
 23 52  1  0  0  0  0
 24 25  1  0  0  0  0
 24 53  1  0  0  0  0
 24 54  1  0  0  0  0
 25 26  1  0  0  0  0
 26 55  1  0  0  0  0
 26 56  1  0  0  0  0
 27 28  1  0  0  0  0
 27 29  1  0  0  0  0
 27 62  1  0  0  0  0
 28 57  1  0  0  0  0
 28 58  1  0  0  0  0
 28 59  1  0  0  0  0
 29 60  1  0  0  0  0
 29 61  1  0  0  0  0
M  CHG  1  27   1
M  END
> <s_m_source_file>
AV-unprocessed.smi

> <i_m_source_file_index>
21

> <i_lp_mmshare_version>
43012

> <i_f3d_flags>
0

> <s_epik_input>
W0NIM11PW0NASF0xW0NIMl1bQ0BIXShOKFtDSDNdKVtDSDJdMSlbQ0gyXU4oW0NIM10pYyhuW2NIXW4yKWMoYzIzKW5bY0hdbjNbQ0gyXVtDQEhdKFtDSDJdW09IXSlbQ0BASF00W0NIMl1bQ0gyXU9bQ0gyXTQ=

> <s_epik_cmdline>
J2VwaWtfcHl0aG9uJywgJy1waCcsICc3LjAnLCAnLXRuJywgJzgnLCAnLW1hJywgJzIwMCcsICctbWV0YWxfYmluZGluZycsICctaW1hZScsICc8aW5maWxlLm1hZT4nLCAnLW9tYWUnLCAnPG91dGZpbGUubWFlPic=

> <r_lp_tautomer_probability>
1

> <r_epik_Ionization_Penalty>
0.0157465

> <r_epik_Ionization_Penalty_Charging>
0.015354

> <r_epik_Ionization_Penalty_Neutral>
0.000392529

> <r_epik_State_Penalty>
0.0120612

> <r_epik_Charging_Adjusted_Penalty>
0.0274152

> <i_epik_Tot_Q>
1

> <i_epik_Tot_abs_Q>
1

> <r_epik_Metal_State_Penalty>
0.0121253

> <b_epik_Metal_Only>
0

> <s_lp_Force_Field>
OPLS_2005

> <r_lp_Energy>
59.3761

> <b_lp_Chiralities_Consistent>
1

> <s_lp_Variant>
AV-unprocessed.smi:21-9

> <Gold.Version>
5.8.1

> <Gold.Id.Protein>
6NUR|6NUR_protein|mol2

> <Gold.PLP.Fitness>
49.2022

> <Gold.PLP.PLP>
-43.5214

> <Gold.PLP.part.hbond>
-3.0000

> <Gold.PLP.part.metal>
0.0000

> <Gold.PLP.part.buried>
-6.9645

> <Gold.PLP.part.nonpolar>
-34.1942

> <Gold.PLP.part.repulsive>
0.3079

> <Gold.PLP.ligand.clash>
0.0000

> <Gold.PLP.ligand.torsion>
3.6218

> <Gold.PLP.Chemscore.Hbond>
3.9920

> <Gold.PLP.Chemscore.CHOScore>
0.0000

> <Gold.PLP.Chemscore.Metal>
0.0000

> <Gold.Chemscore.Hbonds>
donor molecule, donor type, donor heavy atom, donor atom, acceptor molecule, acceptor atom, score
      L1  H    21    49       P1  8028  0.80
      L1  H    27    62       P1  7948  2.00
      P1  H 10752 10764       L1    15  0.96

> <Gold.PLP.Chemscore.Internal.Correction>
0.9483

> <Gold.Rescore>
     Score         DG    S(hbond)    S(metal)    S(lipo)     H(rot)  DE(clash)    DE(int)     intcor
     12.56     -18.85       2.97        0.00     102.79       3.35       0.14       6.15       ----

> <Gold.Chemscore.Fitness>
12.5569

> <Gold.Chemscore.DG>
-18.8476

> <Gold.Chemscore.ZeroCoef>
-5.4800

> <Gold.Chemscore.Hbond>
2.9655

> <Gold.Chemscore.Metal>
0.0000

> <Gold.Chemscore.Lipo>
102.7896

> <Gold.Chemscore.Internal_Hbond>
0.0000

> <Gold.Chemscore.DEClash>
0.1381

> <Gold.Chemscore.DEInternal>
6.1525

> <Gold.Chemscore.Rot>
3.3452

> <Gold.Chemscore.Internal.Correction>
   9.000000E+99

> <Gold.Chemscore.Hbonds>
donor molecule, donor type, donor heavy atom, donor atom, acceptor molecule, acceptor atom, score
      L1  H    21    49       P1  8028  0.79
      L1  H    27    62       P1  7948  1.00
      P1  H 10752 10764       L1    15  0.63

> <Gold.Chemscore.Hbond.Weighted>
-9.9048

> <Gold.Chemscore.Metal.Weighted>
-0.0000

> <Gold.Chemscore.Lipo.Weighted>
-12.0264

> <Gold.Chemscore.Internal_Hbond.Weighted>
0.0000

> <Gold.Chemscore.DEClash.Weighted>
0.1381

> <Gold.Chemscore.DEInternal.Weighted>
6.1525

> <Gold.Chemscore.Rot.Weighted>
8.5636

> <Gold.Chemscore.Internal.Correction.Weighted>
   9.000000E+99

> <Gold.Protein.RotatedTorsions>
[ 6907 6896 6895 6894 ] final -120.16 input  -60.11 | X-H torsion
[ 7974 7965 7964 7962 ] final  -68.20 input  175.53 | X-H torsion
[ 8008 7997 7996 7995 ] final  -42.37 input   59.86 | X-H torsion
[ 10167 10162 10161 10158 ] final   78.38 input  -65.29 | X-H torsion
[ 10718 10713 10712 10709 ] final  -62.32 input   66.30 | X-H torsion
[ 10763 10752 10751 10750 ] final  -61.46 input  -60.55 | X-H torsion
[ 11005 11000 10999 10996 ] final -110.35 input  -57.11 | X-H torsion

> <Gold.Protein.ActiveResidues>
 VAL166  LYS551  ARG553  GLY616  TRP617  ASP618  TYR619  PRO620  LYS621  CYS622 
 ASP623  PHE694  ASN695  SER759  ASP760  ASP761  ALA762  ILE779  LEU786  VAL792 
 PHE793  MET794  SER795  GLU796  ALA797  LYS798  CYS799  TRP800  GLU811  SER814 

> <Gold.Protein.RotatedAtoms>
  150.8368  133.8000  159.3076 H   0  0  0  0  0  0  0  0  0  0  0  0  # atno 6907 bound_to 6896
  151.5713  135.1060  160.0005 H   0  0  0  0  0  0  0  0  0  0  0  0  # atno 6908 bound_to 6896
  152.4439  133.7458  159.6722 H   0  0  0  0  0  0  0  0  0  0  0  0  # atno 6909 bound_to 6896
  145.7195  140.9044  143.0638 H   0  0  0  0  0  0  0  0  0  0  0  0  # atno 7974 bound_to 7965
  154.3999  140.1475  156.3343 H   0  0  0  0  0  0  0  0  0  0  0  0  # atno 8008 bound_to 7997
  155.8414  140.3462  155.5613 H   0  0  0  0  0  0  0  0  0  0  0  0  # atno 8009 bound_to 7997
  155.8082  140.0880  157.1909 H   0  0  0  0  0  0  0  0  0  0  0  0  # atno 8010 bound_to 7997
  139.9715  144.5891  150.7981 H   0  0  0  0  0  0  0  0  0  0  0  0  # atno 10167 bound_to 10162
  156.0863  130.4208  150.1118 H   0  0  0  0  0  0  0  0  0  0  0  0  # atno 10718 bound_to 10713
  154.2849  135.6265  153.5362 H   0  0  0  0  0  0  0  0  0  0  0  0  # atno 10763 bound_to 10752
  152.9860  135.5642  154.5455 H   0  0  0  0  0  0  0  0  0  0  0  0  # atno 10764 bound_to 10752
  154.5053  135.2874  155.1363 H   0  0  0  0  0  0  0  0  0  0  0  0  # atno 10765 bound_to 10752
  141.0797  133.9241  157.2315 H   0  0  0  0  0  0  0  0  0  0  0  0  # atno 11005 bound_to 11000
  144.6920  139.9183  143.7466 LP  0  0  0  0  0  0  0  0  0  0  0  0  # atno 17320 bound_to 7965
  146.0639  139.3631  143.0564 LP  0  0  0  0  0  0  0  0  0  0  0  0  # atno 17321 bound_to 7965
  140.7520  143.2982  151.3148 LP  0  0  0  0  0  0  0  0  0  0  0  0  # atno 17342 bound_to 10162
  139.6477  144.0420  152.2603 LP  0  0  0  0  0  0  0  0  0  0  0  0  # atno 17343 bound_to 10162
  156.9138  130.9660  151.3559 LP  0  0  0  0  0  0  0  0  0  0  0  0  # atno 17370 bound_to 10713
  157.5998  130.8504  149.8785 LP  0  0  0  0  0  0  0  0  0  0  0  0  # atno 17371 bound_to 10713
  139.9610  135.0154  156.9260 LP  0  0  0  0  0  0  0  0  0  0  0  0  # atno 17394 bound_to 11000
  140.5496  134.0640  155.7365 LP  0  0  0  0  0  0  0  0  0  0  0  0  # atno 17395 bound_to 11000

$$$$
