AV-unprocessed.smi:1975|AV-procd|sdf|7982|dock9
  -GOLD-   2272010163D 1   1.00000     0.00000
 Structure written by MMmdl.
 33 34  0  0  0  0  0  0  0  0  1 V2000
  151.2728  144.7264  160.3226 C   0  0  0  0  0  0  0  0  0  0  0  0
  152.1421  143.9025  161.2843 C   0  0  0  0  0  0  0  0  0  0  0  0
  152.6742  142.7094  160.6790 N   0  0  0  0  0  0  0  0  0  0  0  0
  151.9065  141.9044  159.8636 C   0  0  0  0  0  0  0  0  0  0  0  0
  152.3827  140.7735  159.3033 C   0  0  0  0  0  0  0  0  0  0  0  0
  151.5733  139.9527  158.4647 C   0  0  0  0  0  0  0  0  0  0  0  0
  150.9324  139.2672  157.7873 N   0  0  0  0  0  0  0  0  0  0  0  0
  153.7571  140.3371  159.5373 C   0  0  0  0  0  0  0  0  0  0  0  0
  154.2336  139.3070  159.0575 O   0  0  0  0  0  0  0  0  0  0  0  0
  154.5312  141.1790  160.3762 N   0  0  0  0  0  0  0  0  0  0  0  0
  155.9251  140.7890  160.6837 C   0  0  0  0  0  0  0  0  0  0  0  0
  156.8337  140.7348  159.4454 C   0  0  0  0  0  0  0  0  0  0  0  0
  156.6242  139.9267  158.5393 O   0  0  0  0  0  0  0  0  0  0  0  0
  157.8427  141.6175  159.4260 N   0  0  0  0  0  0  0  0  0  0  0  0
  158.8072  141.7525  158.3828 C   0  0  0  0  0  0  0  0  0  0  0  0
  159.1421  143.1515  157.9120 C   0  0  0  0  0  0  0  0  0  0  0  0
  158.3204  142.2454  157.0374 C   0  0  0  0  0  0  0  0  0  0  0  0
  154.0142  142.3588  160.9643 C   0  0  0  0  0  0  0  0  0  0  0  0
  154.7124  143.0525  161.7085 O   0  0  0  0  0  0  0  0  0  0  0  0
  150.9186  145.6364  160.8072 H   0  0  0  0  0  0  0  0  0  0  0  0
  150.3971  144.1675  159.9915 H   0  0  0  0  0  0  0  0  0  0  0  0
  151.8369  145.0199  159.4369 H   0  0  0  0  0  0  0  0  0  0  0  0
  153.0057  144.4816  161.6139 H   0  0  0  0  0  0  0  0  0  0  0  0
  151.6041  143.6032  162.1857 H   0  0  0  0  0  0  0  0  0  0  0  0
  150.8823  142.1881  159.6675 H   0  0  0  0  0  0  0  0  0  0  0  0
  156.3757  141.4681  161.4090 H   0  0  0  0  0  0  0  0  0  0  0  0
  155.9523  139.8181  161.1817 H   0  0  0  0  0  0  0  0  0  0  0  0
  157.9356  142.2439  160.2125 H   0  0  0  0  0  0  0  0  0  0  0  0
  159.6230  141.0312  158.3586 H   0  0  0  0  0  0  0  0  0  0  0  0
  158.6324  143.9857  158.3904 H   0  0  0  0  0  0  0  0  0  0  0  0
  160.1690  143.3462  157.6094 H   0  0  0  0  0  0  0  0  0  0  0  0
  158.7990  141.8357  156.1501 H   0  0  0  0  0  0  0  0  0  0  0  0
  157.2620  142.4751  156.9312 H   0  0  0  0  0  0  0  0  0  0  0  0
  1  2  1  0  0  0  0
  1 20  1  0  0  0  0
  1 21  1  0  0  0  0
  1 22  1  0  0  0  0
  2  3  1  0  0  0  0
  2 23  1  0  0  0  0
  2 24  1  0  0  0  0
  3 18  1  0  0  0  0
  3  4  1  0  0  0  0
  4  5  2  0  0  0  0
  4 25  1  0  0  0  0
  5  6  1  0  0  0  0
  5  8  1  0  0  0  0
  6  7  3  0  0  0  0
  8  9  2  0  0  0  0
  8 10  1  0  0  0  0
 10 11  1  0  0  0  0
 10 18  1  0  0  0  0
 11 12  1  0  0  0  0
 11 26  1  0  0  0  0
 11 27  1  0  0  0  0
 12 13  2  0  0  0  0
 12 14  1  0  0  0  0
 14 15  1  0  0  0  0
 14 28  1  0  0  0  0
 15 17  1  0  0  0  0
 15 16  1  0  0  0  0
 15 29  1  0  0  0  0
 16 17  1  0  0  0  0
 16 30  1  0  0  0  0
 16 31  1  0  0  0  0
 17 32  1  0  0  0  0
 17 33  1  0  0  0  0
 18 19  2  0  0  0  0
M  END
> <s_m_source_file>
AV-unprocessed.smi

> <i_m_source_file_index>
1975

> <i_lp_mmshare_version>
43012

> <i_f3d_flags>
0

> <s_epik_input>
W0NIM11bQ0gyXW4xW2NIXWMoQyNOKWMoPU8pbihjMT1PKVtDSDJdQyg9TylbTkhdW0NIXTJbQ0gyXVtDSDJdMg==

> <s_epik_cmdline>
J2VwaWtfcHl0aG9uJywgJy1waCcsICc3LjAnLCAnLXRuJywgJzgnLCAnLW1hJywgJzIwMCcsICctbWV0YWxfYmluZGluZycsICctaW1hZScsICc8aW5maWxlLm1hZT4nLCAnLW9tYWUnLCAnPG91dGZpbGUubWFlPic=

> <r_lp_tautomer_probability>
1

> <r_epik_Ionization_Penalty>
2.07081e-08

> <r_epik_Ionization_Penalty_Charging>
3.77987e-11

> <r_epik_Ionization_Penalty_Neutral>
2.06703e-08

> <r_epik_State_Penalty>
-0

> <r_epik_Charging_Adjusted_Penalty>
3.77987e-11

> <i_epik_Tot_Q>
0

> <i_epik_Tot_abs_Q>
0

> <r_epik_Metal_State_Penalty>
-0

> <b_epik_Metal_Only>
0

> <s_lp_Force_Field>
OPLS_2005

> <r_lp_Energy>
17.9293

> <b_lp_Chiralities_Consistent>
1

> <s_lp_Variant>
AV-unprocessed.smi:1975-1

> <Gold.Version>
5.8.1

> <Gold.Id.Protein>
6NUR|6NUR_protein|mol2

> <Gold.PLP.Fitness>
43.8450

> <Gold.PLP.PLP>
-40.5945

> <Gold.PLP.part.hbond>
-4.0000

> <Gold.PLP.part.metal>
0.0000

> <Gold.PLP.part.buried>
-2.7537

> <Gold.PLP.part.nonpolar>
-33.6078

> <Gold.PLP.part.repulsive>
0.0958

> <Gold.PLP.ligand.clash>
0.0000

> <Gold.PLP.ligand.torsion>
0.3889

> <Gold.PLP.Chemscore.Hbond>
1.3280

> <Gold.PLP.Chemscore.CHOScore>
0.0000

> <Gold.PLP.Chemscore.Metal>
0.0000

> <Gold.Chemscore.Hbonds>
donor molecule, donor type, donor heavy atom, donor atom, acceptor molecule, acceptor atom, score
      P1  H  7997  8008       L1    13  1.00

> <Gold.PLP.Chemscore.Internal.Correction>
0.0443

> <Gold.Rescore>
     Score         DG    S(hbond)    S(metal)    S(lipo)     H(rot)  DE(clash)    DE(int)     intcor
     10.80     -13.70       1.32        0.00      73.84       1.89       0.13       2.77       ----

> <Gold.Chemscore.Fitness>
10.7968

> <Gold.Chemscore.DG>
-13.6956

> <Gold.Chemscore.ZeroCoef>
-5.4800

> <Gold.Chemscore.Hbond>
1.3199

> <Gold.Chemscore.Metal>
0.0000

> <Gold.Chemscore.Lipo>
73.8395

> <Gold.Chemscore.Internal_Hbond>
0.0000

> <Gold.Chemscore.DEClash>
0.1280

> <Gold.Chemscore.DEInternal>
2.7708

> <Gold.Chemscore.Rot>
1.8876

> <Gold.Chemscore.Internal.Correction>
   9.000000E+99

> <Gold.Chemscore.Hbonds>
donor molecule, donor type, donor heavy atom, donor atom, acceptor molecule, acceptor atom, score
      P1  H  7997  8008       L1    13  0.92

> <Gold.Chemscore.Hbond.Weighted>
-4.4086

> <Gold.Chemscore.Metal.Weighted>
-0.0000

> <Gold.Chemscore.Lipo.Weighted>
-8.6392

> <Gold.Chemscore.Internal_Hbond.Weighted>
0.0000

> <Gold.Chemscore.DEClash.Weighted>
0.1280

> <Gold.Chemscore.DEInternal.Weighted>
2.7708

> <Gold.Chemscore.Rot.Weighted>
4.8323

> <Gold.Chemscore.Internal.Correction.Weighted>
   9.000000E+99

> <Gold.Protein.RotatedTorsions>
[ 6907 6896 6895 6894 ] final  101.29 input  -60.11 | X-H torsion
[ 7974 7965 7964 7962 ] final   92.89 input  175.53 | X-H torsion
[ 8008 7997 7996 7995 ] final -178.12 input   59.86 | X-H torsion
[ 10167 10162 10161 10158 ] final  -72.94 input  -65.29 | X-H torsion
[ 10718 10713 10712 10709 ] final   44.36 input   66.30 | X-H torsion
[ 10763 10752 10751 10750 ] final   33.58 input  -60.55 | X-H torsion
[ 11005 11000 10999 10996 ] final  -51.85 input  -57.11 | X-H torsion

> <Gold.Protein.ActiveResidues>
 VAL166  LYS551  ARG553  GLY616  TRP617  ASP618  TYR619  PRO620  LYS621  CYS622 
 ASP623  PHE694  ASN695  SER759  ASP760  ASP761  ALA762  ILE779  LEU786  VAL792 
 PHE793  MET794  SER795  GLU796  ALA797  LYS798  CYS799  TRP800  GLU811  SER814 

> <Gold.Protein.RotatedAtoms>
  152.5353  134.0149  159.7954 H   0  0  0  0  0  0  0  0  0  0  0  0  # atno 6907 bound_to 6896
  151.0345  133.5753  159.2664 H   0  0  0  0  0  0  0  0  0  0  0  0  # atno 6908 bound_to 6896
  151.2746  135.0702  159.9200 H   0  0  0  0  0  0  0  0  0  0  0  0  # atno 6909 bound_to 6896
  145.4862  139.2277  143.2855 H   0  0  0  0  0  0  0  0  0  0  0  0  # atno 7974 bound_to 7965
  156.0150  140.1249  157.0415 H   0  0  0  0  0  0  0  0  0  0  0  0  # atno 8008 bound_to 7997
  154.4290  140.1080  156.5953 H   0  0  0  0  0  0  0  0  0  0  0  0  # atno 8009 bound_to 7997
  155.6025  140.3470  155.4600 H   0  0  0  0  0  0  0  0  0  0  0  0  # atno 8010 bound_to 7997
  140.5151  143.2339  151.7527 H   0  0  0  0  0  0  0  0  0  0  0  0  # atno 10167 bound_to 10162
  157.4260  130.7997  149.7559 H   0  0  0  0  0  0  0  0  0  0  0  0  # atno 10718 bound_to 10713
  153.0205  135.6383  154.1534 H   0  0  0  0  0  0  0  0  0  0  0  0  # atno 10763 bound_to 10752
  154.1269  135.2843  155.3196 H   0  0  0  0  0  0  0  0  0  0  0  0  # atno 10764 bound_to 10752
  154.6222  135.5521  153.7650 H   0  0  0  0  0  0  0  0  0  0  0  0  # atno 10765 bound_to 10752
  141.0893  133.6636  156.3938 H   0  0  0  0  0  0  0  0  0  0  0  0  # atno 11005 bound_to 11000
  146.2311  140.5653  142.8975 LP  0  0  0  0  0  0  0  0  0  0  0  0  # atno 17320 bound_to 7965
  144.7860  140.5937  143.6573 LP  0  0  0  0  0  0  0  0  0  0  0  0  # atno 17321 bound_to 7965
  139.4907  144.4335  151.9845 LP  0  0  0  0  0  0  0  0  0  0  0  0  # atno 17342 bound_to 10162
  140.3429  144.3181  150.5963 LP  0  0  0  0  0  0  0  0  0  0  0  0  # atno 17343 bound_to 10162
  155.9896  130.3950  150.3063 LP  0  0  0  0  0  0  0  0  0  0  0  0  # atno 17370 bound_to 10713
  157.1215  131.0248  151.3007 LP  0  0  0  0  0  0  0  0  0  0  0  0  # atno 17371 bound_to 10713
  140.5289  134.6232  157.5343 LP  0  0  0  0  0  0  0  0  0  0  0  0  # atno 17394 bound_to 11000
  139.9716  134.7283  156.0030 LP  0  0  0  0  0  0  0  0  0  0  0  0  # atno 17395 bound_to 11000

$$$$
