AV-unprocessed.smi:2888|AV-procd|sdf|11106|dock1
  -GOLD-   2272015573D 1   1.00000     0.00000
 Structure written by MMmdl.
 34 36  0  0  0  0  0  0  0  0  2 V2000
  151.5246  138.1523  154.9024 C   0  0  0  0  0  0  0  0  0  0  0  0
  150.6499  139.3880  154.8783 C   0  0  0  0  0  0  0  0  0  0  0  0
  149.5047  139.4676  154.0673 C   0  0  0  0  0  0  0  0  0  0  0  0
  148.7691  140.6672  154.1284 C   0  0  0  0  0  0  0  0  0  0  0  0
  147.5180  140.8863  153.3047 C   0  0  0  0  0  0  0  0  0  0  0  0
  149.1762  141.6742  154.9412 N   0  3  0  0  0  0  0  0  0  0  0  0
  150.2821  141.5292  155.6873 C   0  0  0  0  0  0  0  0  0  0  0  0
  150.6513  142.5904  156.4941 N   0  0  0  0  0  0  0  0  0  0  0  0
  151.8238  142.5885  157.3614 C   0  0  2  0  0  0  0  0  0  0  0  0
  151.6181  141.7966  158.6553 C   0  0  0  0  0  0  0  0  0  0  0  0
  152.0073  142.8307  159.7216 C   0  0  2  0  0  0  0  0  0  0  0  0
  150.9147  143.8926  159.8993 C   0  0  0  0  0  0  0  0  0  0  0  0
  151.0669  144.7115  158.6187 C   0  0  0  0  0  0  0  0  0  0  0  0
  152.2150  143.9772  157.9045 C   0  0  1  0  0  0  0  0  0  0  0  0
  152.9878  143.5822  159.0252 O   0  0  0  0  0  0  0  0  0  0  0  0
  151.0230  140.4115  155.6722 N   0  0  0  0  0  0  0  0  0  0  0  0
  151.0927  137.3518  154.3011 H   0  0  0  0  0  0  0  0  0  0  0  0
  151.6385  137.7861  155.9232 H   0  0  0  0  0  0  0  0  0  0  0  0
  152.5144  138.3808  154.5059 H   0  0  0  0  0  0  0  0  0  0  0  0
  149.2041  138.6495  153.4283 H   0  0  0  0  0  0  0  0  0  0  0  0
  147.2138  139.9684  152.8009 H   0  0  0  0  0  0  0  0  0  0  0  0
  147.6933  141.6499  152.5465 H   0  0  0  0  0  0  0  0  0  0  0  0
  146.6944  141.2139  153.9396 H   0  0  0  0  0  0  0  0  0  0  0  0
  150.1747  143.4684  156.3492 H   0  0  0  0  0  0  0  0  0  0  0  0
  152.6674  142.1596  156.8185 H   0  0  0  0  0  0  0  0  0  0  0  0
  150.5987  141.4331  158.7937 H   0  0  0  0  0  0  0  0  0  0  0  0
  152.2886  140.9369  158.6827 H   0  0  0  0  0  0  0  0  0  0  0  0
  152.3548  142.3929  160.6579 H   0  0  0  0  0  0  0  0  0  0  0  0
  149.9224  143.4536  160.0079 H   0  0  0  0  0  0  0  0  0  0  0  0
  151.1119  144.5119  160.7751 H   0  0  0  0  0  0  0  0  0  0  0  0
  150.1513  144.7550  158.0287 H   0  0  0  0  0  0  0  0  0  0  0  0
  151.3593  145.7344  158.8580 H   0  0  0  0  0  0  0  0  0  0  0  0
  152.7562  144.5969  157.1889 H   0  0  0  0  0  0  0  0  0  0  0  0
  148.6343  142.5380  154.9744 H   0  0  0  0  0  0  0  0  0  0  0  0
  1  2  1  0  0  0  0
  1 17  1  0  0  0  0
  1 18  1  0  0  0  0
  1 19  1  0  0  0  0
  2 16  1  0  0  0  0
  2  3  2  0  0  0  0
  3  4  1  0  0  0  0
  3 20  1  0  0  0  0
  4  5  1  0  0  0  0
  4  6  2  0  0  0  0
  5 21  1  0  0  0  0
  5 22  1  0  0  0  0
  5 23  1  0  0  0  0
  6  7  1  0  0  0  0
  6 34  1  0  0  0  0
  7  8  1  0  0  0  0
  7 16  2  0  0  0  0
  8  9  1  0  0  0  0
  8 24  1  0  0  0  0
  9 14  1  0  0  0  0
  9 10  1  0  0  0  0
  9 25  1  0  0  0  0
 10 11  1  0  0  0  0
 10 26  1  0  0  0  0
 10 27  1  0  0  0  0
 11 15  1  0  0  0  0
 11 12  1  0  0  0  0
 11 28  1  0  0  0  0
 12 13  1  0  0  0  0
 12 29  1  0  0  0  0
 12 30  1  0  0  0  0
 13 14  1  0  0  0  0
 13 31  1  0  0  0  0
 13 32  1  0  0  0  0
 14 15  1  0  0  0  0
 14 33  1  0  0  0  0
M  CHG  1   6   1
M  END
> <s_m_source_file>
AV-unprocessed.smi

> <i_m_source_file_index>
2888

> <i_lp_mmshare_version>
43012

> <i_f3d_flags>
0

> <s_epik_input>
W0NIM11jMVtjSF1jKFtDSDNdKW5jKG4xKVtOSF1bQ0BIXShbQ0gyXVtDQEBIXTIzKVtDQEBIXShPMylbQ0gyXVtDSDJdMg==

> <s_epik_cmdline>
J2VwaWtfcHl0aG9uJywgJy1waCcsICc3LjAnLCAnLXRuJywgJzgnLCAnLW1hJywgJzIwMCcsICctbWV0YWxfYmluZGluZycsICctaW1hZScsICc8aW5maWxlLm1hZT4nLCAnLW9tYWUnLCAnPG91dGZpbGUubWFlPic=

> <r_lp_tautomer_probability>
0.505494

> <r_epik_Ionization_Penalty>
2.49163

> <r_epik_Ionization_Penalty_Charging>
2.49163

> <r_epik_Ionization_Penalty_Neutral>
3.7631e-06

> <r_epik_State_Penalty>
2.656

> <r_epik_Charging_Adjusted_Penalty>
5.14762

> <i_epik_Tot_Q>
1

> <i_epik_Tot_abs_Q>
1

> <r_epik_Metal_State_Penalty>
2.66479

> <b_epik_Metal_Only>
0

> <s_lp_Force_Field>
OPLS_2005

> <r_lp_Energy>
36.4538

> <b_lp_Chiralities_Consistent>
1

> <s_lp_Variant>
AV-unprocessed.smi:2888-7

> <Gold.Version>
5.8.1

> <Gold.Id.Protein>
6NUR|6NUR_protein|mol2

> <Gold.PLP.Fitness>
48.2393

> <Gold.PLP.PLP>
-37.5932

> <Gold.PLP.part.hbond>
-2.0000

> <Gold.PLP.part.metal>
0.0000

> <Gold.PLP.part.buried>
-3.0204

> <Gold.PLP.part.nonpolar>
-31.6506

> <Gold.PLP.part.repulsive>
0.2550

> <Gold.PLP.ligand.clash>
0.0000

> <Gold.PLP.ligand.torsion>
0.2013

> <Gold.PLP.Chemscore.Hbond>
3.6800

> <Gold.PLP.Chemscore.CHOScore>
0.0000

> <Gold.PLP.Chemscore.Metal>
0.0000

> <Gold.Chemscore.Hbonds>
donor molecule, donor type, donor heavy atom, donor atom, acceptor molecule, acceptor atom, score
      L1  H     6    34       P1  8028  0.57
      L1  H     8    24       P1  8028  2.00

> <Gold.PLP.Chemscore.Internal.Correction>
0.0087

> <Gold.Rescore>
     Score         DG    S(hbond)    S(metal)    S(lipo)     H(rot)  DE(clash)    DE(int)     intcor
     20.23     -20.43       1.74        0.00     100.10       1.00       0.16       0.04       ----

> <Gold.Chemscore.Fitness>
20.2347

> <Gold.Chemscore.DG>
-20.4283

> <Gold.Chemscore.ZeroCoef>
-5.4800

> <Gold.Chemscore.Hbond>
1.7356

> <Gold.Chemscore.Metal>
0.0000

> <Gold.Chemscore.Lipo>
100.0983

> <Gold.Chemscore.Internal_Hbond>
0.0000

> <Gold.Chemscore.DEClash>
0.1574

> <Gold.Chemscore.DEInternal>
0.0362

> <Gold.Chemscore.Rot>
1.0000

> <Gold.Chemscore.Internal.Correction>
   9.000000E+99

> <Gold.Chemscore.Hbonds>
donor molecule, donor type, donor heavy atom, donor atom, acceptor molecule, acceptor atom, score
      L1  H     6    34       P1  8028  0.30
      L1  H     8    24       P1  8028  0.99

> <Gold.Chemscore.Hbond.Weighted>
-5.7968

> <Gold.Chemscore.Metal.Weighted>
-0.0000

> <Gold.Chemscore.Lipo.Weighted>
-11.7115

> <Gold.Chemscore.Internal_Hbond.Weighted>
0.0000

> <Gold.Chemscore.DEClash.Weighted>
0.1574

> <Gold.Chemscore.DEInternal.Weighted>
0.0362

> <Gold.Chemscore.Rot.Weighted>
2.5600

> <Gold.Chemscore.Internal.Correction.Weighted>
   9.000000E+99

> <Gold.Protein.RotatedTorsions>
[ 6907 6896 6895 6894 ] final -106.67 input  -60.11 | X-H torsion
[ 7974 7965 7964 7962 ] final -170.93 input  175.53 | X-H torsion
[ 8008 7997 7996 7995 ] final   -8.96 input   59.86 | X-H torsion
[ 10167 10162 10161 10158 ] final -118.84 input  -65.29 | X-H torsion
[ 10718 10713 10712 10709 ] final   60.20 input   66.30 | X-H torsion
[ 10763 10752 10751 10750 ] final  125.03 input  -60.55 | X-H torsion
[ 11005 11000 10999 10996 ] final  109.61 input  -57.11 | X-H torsion

> <Gold.Protein.ActiveResidues>
 VAL166  LYS551  ARG553  GLY616  TRP617  ASP618  TYR619  PRO620  LYS621  CYS622 
 ASP623  PHE694  ASN695  SER759  ASP760  ASP761  ALA762  ILE779  LEU786  VAL792 
 PHE793  MET794  SER795  GLU796  ALA797  LYS798  CYS799  TRP800  GLU811  SER814 

> <Gold.Protein.RotatedAtoms>
  150.7402  133.9941  159.3616 H   0  0  0  0  0  0  0  0  0  0  0  0  # atno 6907 bound_to 6896
  151.7891  135.0738  160.0394 H   0  0  0  0  0  0  0  0  0  0  0  0  # atno 6908 bound_to 6896
  152.3220  133.5828  159.5787 H   0  0  0  0  0  0  0  0  0  0  0  0  # atno 6909 bound_to 6896
  144.7163  140.1998  143.6339 H   0  0  0  0  0  0  0  0  0  0  0  0  # atno 7974 bound_to 7965
  154.5692  140.2367  155.8217 H   0  0  0  0  0  0  0  0  0  0  0  0  # atno 8008 bound_to 7997
  156.2093  140.3030  155.9654 H   0  0  0  0  0  0  0  0  0  0  0  0  # atno 8009 bound_to 7997
  155.2744  140.0420  157.3000 H   0  0  0  0  0  0  0  0  0  0  0  0  # atno 8010 bound_to 7997
  140.0532  143.5040  152.2071 H   0  0  0  0  0  0  0  0  0  0  0  0  # atno 10167 bound_to 10162
  157.5735  130.8926  149.9307 H   0  0  0  0  0  0  0  0  0  0  0  0  # atno 10718 bound_to 10713
  153.6708  135.3330  155.3153 H   0  0  0  0  0  0  0  0  0  0  0  0  # atno 10763 bound_to 10752
  154.8491  135.4386  154.1707 H   0  0  0  0  0  0  0  0  0  0  0  0  # atno 10764 bound_to 10752
  153.2697  135.6999  153.7569 H   0  0  0  0  0  0  0  0  0  0  0  0  # atno 10765 bound_to 10752
  139.8865  134.9462  156.6151 H   0  0  0  0  0  0  0  0  0  0  0  0  # atno 11005 bound_to 11000
  145.8690  139.2262  143.1672 LP  0  0  0  0  0  0  0  0  0  0  0  0  # atno 17320 bound_to 7965
  146.0103  140.8442  142.9974 LP  0  0  0  0  0  0  0  0  0  0  0  0  # atno 17321 bound_to 7965
  139.5940  144.7560  151.3331 LP  0  0  0  0  0  0  0  0  0  0  0  0  # atno 17342 bound_to 10162
  140.7207  143.7143  150.7745 LP  0  0  0  0  0  0  0  0  0  0  0  0  # atno 17343 bound_to 10162
  156.0780  130.3676  150.0638 LP  0  0  0  0  0  0  0  0  0  0  0  0  # atno 17370 bound_to 10713
  156.8788  130.9549  151.3601 LP  0  0  0  0  0  0  0  0  0  0  0  0  # atno 17371 bound_to 10713
  140.7782  133.8682  155.8546 LP  0  0  0  0  0  0  0  0  0  0  0  0  # atno 17394 bound_to 11000
  140.9784  134.1439  157.4516 LP  0  0  0  0  0  0  0  0  0  0  0  0  # atno 17395 bound_to 11000

$$$$
