AV-unprocessed.smi:255|AV-procd|sdf|1949|dock2
  -GOLD-   2262021 83D 1   1.00000     0.00000
 Structure written by MMmdl.
 44 47  0  0  0  0  0  0  0  0  1 V2000
  151.5080  144.1770  162.1299 O   0  0  0  0  0  0  0  0  0  0  0  0
  152.2280  143.8920  160.9492 C   0  0  0  0  0  0  0  0  0  0  0  0
  152.4820  142.3779  160.8217 C   0  0  2  0  0  0  0  0  0  0  0  0
  153.5944  141.8764  161.7435 C   0  0  0  0  0  0  0  0  0  0  0  0
  153.9525  140.5436  161.0972 C   0  0  2  0  0  0  0  0  0  0  0  0
  155.1791  140.1328  161.4173 F   0  0  0  0  0  0  0  0  0  0  0  0
  153.7940  140.8170  159.5991 C   0  0  0  0  0  0  0  0  0  0  0  0
  152.9277  141.9889  159.4849 N   0  0  0  0  0  0  0  0  0  0  0  0
  151.9447  141.8993  158.5617 C   0  0  0  0  0  0  0  0  0  0  0  0
  150.8659  142.7233  158.6295 N   0  0  0  0  0  0  0  0  0  0  0  0
  149.9065  142.6415  157.7024 C   0  0  0  0  0  0  0  0  0  0  0  0
  149.8316  141.8265  156.6473 N   0  0  0  0  0  0  0  0  0  0  0  0
  150.9159  141.0011  156.5794 C   0  0  0  0  0  0  0  0  0  0  0  0
  152.0104  140.9751  157.4875 C   0  0  0  0  0  0  0  0  0  0  0  0
  152.9342  140.0147  157.0972 N   0  0  0  0  0  0  0  0  0  0  0  0
  152.4111  139.4949  156.0199 C   0  0  0  0  0  0  0  0  0  0  0  0
  151.1965  140.0230  155.6413 N   0  0  0  0  0  0  0  0  0  0  0  0
  150.3969  139.6287  154.4918 C   0  0  0  0  0  0  0  0  0  0  0  0
  149.8848  138.1718  154.5728 C   0  0  1  0  0  0  0  0  0  0  0  0
  148.9083  137.9715  153.5651 O   0  0  0  0  0  0  0  0  0  0  0  0
  150.9746  137.1158  154.4097 C   0  0  0  0  0  0  0  0  0  0  0  0
  150.4688  135.9697  155.2741 C   0  0  0  0  0  0  0  0  0  0  0  0
  149.9254  136.6467  156.3945 O   0  0  0  0  0  0  0  0  0  0  0  0
  149.2573  137.8179  155.9361 C   0  0  0  0  0  0  0  0  0  0  0  0
  151.5715  141.8334  161.0805 H   0  0  0  0  0  0  0  0  0  0  0  0
  153.2502  139.7720  161.4155 H   0  0  0  0  0  0  0  0  0  0  0  0
  151.9842  143.8215  162.8647 H   0  0  0  0  0  0  0  0  0  0  0  0
  151.7064  144.2886  160.0773 H   0  0  0  0  0  0  0  0  0  0  0  0
  153.1778  144.4227  161.0219 H   0  0  0  0  0  0  0  0  0  0  0  0
  154.4502  142.5528  161.7113 H   0  0  0  0  0  0  0  0  0  0  0  0
  153.2769  141.7745  162.7816 H   0  0  0  0  0  0  0  0  0  0  0  0
  154.7574  141.0764  159.1596 H   0  0  0  0  0  0  0  0  0  0  0  0
  153.4214  139.9389  159.0702 H   0  0  0  0  0  0  0  0  0  0  0  0
  149.0814  143.3282  157.8220 H   0  0  0  0  0  0  0  0  0  0  0  0
  152.8971  138.7021  155.4699 H   0  0  0  0  0  0  0  0  0  0  0  0
  149.5553  140.3176  154.4091 H   0  0  0  0  0  0  0  0  0  0  0  0
  150.9962  139.7703  153.5913 H   0  0  0  0  0  0  0  0  0  0  0  0
  149.1398  138.4981  152.8150 H   0  0  0  0  0  0  0  0  0  0  0  0
  151.1610  136.8279  153.3740 H   0  0  0  0  0  0  0  0  0  0  0  0
  151.9149  137.4760  154.8289 H   0  0  0  0  0  0  0  0  0  0  0  0
  149.6848  135.4075  154.7643 H   0  0  0  0  0  0  0  0  0  0  0  0
  151.2597  135.2783  155.5652 H   0  0  0  0  0  0  0  0  0  0  0  0
  149.3886  138.6117  156.6723 H   0  0  0  0  0  0  0  0  0  0  0  0
  148.1868  137.6207  155.8579 H   0  0  0  0  0  0  0  0  0  0  0  0
  1  2  1  0  0  0  0
  1 27  1  0  0  0  0
  2  3  1  0  0  0  0
  2 28  1  0  0  0  0
  2 29  1  0  0  0  0
  3 25  1  0  0  0  0
  3  8  1  0  0  0  0
  3  4  1  0  0  0  0
  4  5  1  0  0  0  0
  4 30  1  0  0  0  0
  4 31  1  0  0  0  0
  5 26  1  0  0  0  0
  5  6  1  0  0  0  0
  5  7  1  0  0  0  0
  7  8  1  0  0  0  0
  7 32  1  0  0  0  0
  7 33  1  0  0  0  0
  8  9  1  0  0  0  0
  9 14  1  0  0  0  0
  9 10  2  0  0  0  0
 10 11  1  0  0  0  0
 11 12  2  0  0  0  0
 11 34  1  0  0  0  0
 12 13  1  0  0  0  0
 13 17  1  0  0  0  0
 13 14  2  0  0  0  0
 14 15  1  0  0  0  0
 15 16  2  0  0  0  0
 16 17  1  0  0  0  0
 16 35  1  0  0  0  0
 17 18  1  0  0  0  0
 18 19  1  0  0  0  0
 18 36  1  0  0  0  0
 18 37  1  0  0  0  0
 19 24  1  0  0  0  0
 19 20  1  0  0  0  0
 19 21  1  0  0  0  0
 20 38  1  0  0  0  0
 21 22  1  0  0  0  0
 21 39  1  0  0  0  0
 21 40  1  0  0  0  0
 22 23  1  0  0  0  0
 22 41  1  0  0  0  0
 22 42  1  0  0  0  0
 23 24  1  0  0  0  0
 24 43  1  0  0  0  0
 24 44  1  0  0  0  0
M  END
> <s_m_source_file>
AV-unprocessed.smi

> <i_m_source_file_index>
255

> <i_lp_mmshare_version>
43012

> <i_f3d_flags>
0

> <s_epik_input>
W09IXVtDSDJdW0NAQEhdMVtDSDJdW0NASF0oRilbQ0gyXU4xYyhuW2NIXW4yKWMoYzIzKW5bY0hdbjNbQ0gyXVtDQEBdNChbT0hdKVtDSDJdW0NIMl1PW0NIMl00

> <s_epik_cmdline>
J2VwaWtfcHl0aG9uJywgJy1waCcsICc3LjAnLCAnLXRuJywgJzgnLCAnLW1hJywgJzIwMCcsICctbWV0YWxfYmluZGluZycsICctaW1hZScsICc8aW5maWxlLm1hZT4nLCAnLW9tYWUnLCAnPG91dGZpbGUubWFlPic=

> <r_lp_tautomer_probability>
1

> <r_epik_Ionization_Penalty>
0.0058098

> <r_epik_Ionization_Penalty_Charging>
0

> <r_epik_Ionization_Penalty_Neutral>
0.0058098

> <r_epik_State_Penalty>
0.00411166

> <r_epik_Charging_Adjusted_Penalty>
0.00411166

> <i_epik_Tot_Q>
0

> <i_epik_Tot_abs_Q>
0

> <r_epik_Metal_State_Penalty>
-0

> <b_epik_Metal_Only>
0

> <s_lp_Force_Field>
OPLS_2005

> <r_lp_Energy>
52.3254

> <b_lp_Chiralities_Consistent>
1

> <s_lp_Variant>
AV-unprocessed.smi:255-1

> <Gold.Version>
5.8.1

> <Gold.Id.Protein>
6NUR|6NUR_protein|mol2

> <Gold.PLP.Fitness>
46.5636

> <Gold.PLP.PLP>
-43.2317

> <Gold.PLP.part.hbond>
-4.0000

> <Gold.PLP.part.metal>
0.0000

> <Gold.PLP.part.buried>
-4.5140

> <Gold.PLP.part.nonpolar>
-35.0169

> <Gold.PLP.part.repulsive>
0.1862

> <Gold.PLP.ligand.clash>
0.0000

> <Gold.PLP.ligand.torsion>
0.8767

> <Gold.PLP.Chemscore.Hbond>
1.0000

> <Gold.PLP.Chemscore.CHOScore>
0.6608

> <Gold.PLP.Chemscore.Metal>
0.0000

> <Gold.Chemscore.Hbonds>
donor molecule, donor type, donor heavy atom, donor atom, acceptor molecule, acceptor atom, score
      L1  H    20    38       P1  7957  0.34
      P1  H  7997  8009       L1    15  0.90
      L1  C    11    34       P1  8028  0.53
      L1  C    11    34       P1  8029  0.01

> <Gold.PLP.Chemscore.Internal.Correction>
0.1030

> <Gold.Rescore>
     Score         DG    S(hbond)    S(metal)    S(lipo)     H(rot)  DE(clash)    DE(int)     intcor
      8.22     -12.21       1.81        0.00      78.61       3.33       0.29       3.69       ----

> <Gold.Chemscore.Fitness>
8.2242

> <Gold.Chemscore.DG>
-12.2126

> <Gold.Chemscore.ZeroCoef>
-5.4800

> <Gold.Chemscore.Hbond>
1.8125

> <Gold.Chemscore.Metal>
0.0000

> <Gold.Chemscore.Lipo>
78.6059

> <Gold.Chemscore.Internal_Hbond>
0.0000

> <Gold.Chemscore.DEClash>
0.2936

> <Gold.Chemscore.DEInternal>
3.6948

> <Gold.Chemscore.Rot>
3.3273

> <Gold.Chemscore.Internal.Correction>
   9.000000E+99

> <Gold.Chemscore.Hbonds>
donor molecule, donor type, donor heavy atom, donor atom, acceptor molecule, acceptor atom, score
      L1  H    20    38       P1  7957  0.31
      P1  H  7997  8009       L1    15  0.56

> <Gold.Chemscore.Hbond.Weighted>
-6.0537

> <Gold.Chemscore.Metal.Weighted>
-0.0000

> <Gold.Chemscore.Lipo.Weighted>
-9.1969

> <Gold.Chemscore.Internal_Hbond.Weighted>
0.0000

> <Gold.Chemscore.DEClash.Weighted>
0.2936

> <Gold.Chemscore.DEInternal.Weighted>
3.6948

> <Gold.Chemscore.Rot.Weighted>
8.5179

> <Gold.Chemscore.Internal.Correction.Weighted>
   9.000000E+99

> <Gold.Protein.RotatedTorsions>
[ 6907 6896 6895 6894 ] final -156.00 input  -60.11 | X-H torsion
[ 7974 7965 7964 7962 ] final  -38.50 input  175.53 | X-H torsion
[ 8008 7997 7996 7995 ] final  161.49 input   59.86 | X-H torsion
[ 10167 10162 10161 10158 ] final  -20.37 input  -65.29 | X-H torsion
[ 10718 10713 10712 10709 ] final  117.18 input   66.30 | X-H torsion
[ 10763 10752 10751 10750 ] final    5.98 input  -60.55 | X-H torsion
[ 11005 11000 10999 10996 ] final   96.19 input  -57.11 | X-H torsion

> <Gold.Protein.ActiveResidues>
 VAL166  LYS551  ARG553  GLY616  TRP617  ASP618  TYR619  PRO620  LYS621  CYS622 
 ASP623  PHE694  ASN695  SER759  ASP760  ASP761  ALA762  ILE779  LEU786  VAL792 
 PHE793  MET794  SER795  GLU796  ALA797  LYS798  CYS799  TRP800  GLU811  SER814 

> <Gold.Protein.RotatedAtoms>
  151.2810  133.4210  159.2626 H   0  0  0  0  0  0  0  0  0  0  0  0  # atno 6907 bound_to 6896
  151.0361  134.9574  159.8147 H   0  0  0  0  0  0  0  0  0  0  0  0  # atno 6908 bound_to 6896
  152.5356  134.2769  159.9045 H   0  0  0  0  0  0  0  0  0  0  0  0  # atno 6909 bound_to 6896
  146.0481  140.6519  142.9055 H   0  0  0  0  0  0  0  0  0  0  0  0  # atno 7974 bound_to 7965
  156.2099  140.1776  156.7717 H   0  0  0  0  0  0  0  0  0  0  0  0  # atno 8008 bound_to 7997
  154.5708  140.0683  156.8991 H   0  0  0  0  0  0  0  0  0  0  0  0  # atno 8009 bound_to 7997
  155.2677  140.3340  155.4270 H   0  0  0  0  0  0  0  0  0  0  0  0  # atno 8010 bound_to 7997
  140.7275  143.4729  151.0222 H   0  0  0  0  0  0  0  0  0  0  0  0  # atno 10167 bound_to 10162
  157.6113  131.1034  150.7579 H   0  0  0  0  0  0  0  0  0  0  0  0  # atno 10718 bound_to 10713
  153.2531  135.6915  153.7658 H   0  0  0  0  0  0  0  0  0  0  0  0  # atno 10763 bound_to 10752
  153.6745  135.3339  155.3163 H   0  0  0  0  0  0  0  0  0  0  0  0  # atno 10764 bound_to 10752
  154.8402  135.4508  154.1495 H   0  0  0  0  0  0  0  0  0  0  0  0  # atno 10765 bound_to 10752
  139.8783  134.8938  156.4122 H   0  0  0  0  0  0  0  0  0  0  0  0  # atno 11005 bound_to 11000
  144.7108  140.4031  143.7082 LP  0  0  0  0  0  0  0  0  0  0  0  0  # atno 17320 bound_to 7965
  145.6771  139.1611  143.2721 LP  0  0  0  0  0  0  0  0  0  0  0  0  # atno 17321 bound_to 7965
  139.8422  143.7548  152.3180 LP  0  0  0  0  0  0  0  0  0  0  0  0  # atno 17342 bound_to 10162
  139.7701  144.7479  151.0237 LP  0  0  0  0  0  0  0  0  0  0  0  0  # atno 17343 bound_to 10162
  156.7956  130.4904  149.5378 LP  0  0  0  0  0  0  0  0  0  0  0  0  # atno 17370 bound_to 10713
  156.1217  130.6114  151.0203 LP  0  0  0  0  0  0  0  0  0  0  0  0  # atno 17371 bound_to 10713
  140.9192  133.7657  155.9886 LP  0  0  0  0  0  0  0  0  0  0  0  0  # atno 17394 bound_to 11000
  140.8459  134.3012  157.5295 LP  0  0  0  0  0  0  0  0  0  0  0  0  # atno 17395 bound_to 11000

$$$$
