AV-unprocessed.smi:2822|AV-procd|sdf|10879|dock10
  -GOLD-   2272015323D 1   1.00000     0.00000
 Structure written by MMmdl.
 40 42  0  0  0  0  0  0  0  0  2 V2000
  150.1408  138.4378  154.1803 Cl  0  0  0  0  0  0  0  0  0  0  0  0
  149.0222  139.7549  154.1183 C   0  0  0  0  0  0  0  0  0  0  0  0
  149.4210  141.0197  154.5978 C   0  0  0  0  0  0  0  0  0  0  0  0
  148.5617  142.0599  154.5569 N   0  3  0  0  0  0  0  0  0  0  0  0
  147.3078  141.9504  154.0694 C   0  0  0  0  0  0  0  0  0  0  0  0
  146.8507  140.7116  153.5761 C   0  0  0  0  0  0  0  0  0  0  0  0
  147.7156  139.5886  153.5957 C   0  0  0  0  0  0  0  0  0  0  0  0
  147.3197  138.3289  153.1208 N   0  0  0  0  0  0  0  0  0  0  0  0
  145.9148  138.0057  152.9231 C   0  0  0  0  0  0  0  0  0  0  0  0
  145.7434  136.7473  152.0618 C   0  0  1  0  0  0  0  0  0  0  0  0
  146.2620  135.4884  152.7811 C   0  0  0  0  0  0  0  0  0  0  0  0
  146.0366  134.2827  151.9944 N   0  0  0  0  0  0  0  0  0  0  0  0
  146.5305  133.0946  152.6883 C   0  0  0  0  0  0  0  0  0  0  0  0
  146.3372  131.8120  151.8640 C   0  0  0  0  0  0  0  0  0  0  0  0
  144.8582  131.6351  151.4913 C   0  0  0  0  0  0  0  0  0  0  0  0
  144.3280  132.9076  150.8123 C   0  0  0  0  0  0  0  0  0  0  0  0
  144.6110  134.1540  151.6765 C   0  0  2  0  0  0  0  0  0  0  0  0
  144.0858  135.4282  150.9837 C   0  0  0  0  0  0  0  0  0  0  0  0
  144.3550  136.5683  151.7938 O   0  0  0  0  0  0  0  0  0  0  0  0
  150.3972  141.2288  155.0108 H   0  0  0  0  0  0  0  0  0  0  0  0
  146.7104  142.8504  154.0889 H   0  0  0  0  0  0  0  0  0  0  0  0
  145.8436  140.6428  153.1929 H   0  0  0  0  0  0  0  0  0  0  0  0
  148.0125  137.7116  152.7199 H   0  0  0  0  0  0  0  0  0  0  0  0
  145.4588  137.8388  153.8997 H   0  0  0  0  0  0  0  0  0  0  0  0
  145.3996  138.8496  152.4622 H   0  0  0  0  0  0  0  0  0  0  0  0
  146.2838  136.8740  151.1215 H   0  0  0  0  0  0  0  0  0  0  0  0
  147.3279  135.5992  152.9842 H   0  0  0  0  0  0  0  0  0  0  0  0
  145.7684  135.3944  153.7497 H   0  0  0  0  0  0  0  0  0  0  0  0
  147.5910  133.2166  152.9118 H   0  0  0  0  0  0  0  0  0  0  0  0
  146.0230  132.9884  153.6483 H   0  0  0  0  0  0  0  0  0  0  0  0
  146.9426  131.8637  150.9581 H   0  0  0  0  0  0  0  0  0  0  0  0
  146.6891  130.9470  152.4265 H   0  0  0  0  0  0  0  0  0  0  0  0
  144.7323  130.7737  150.8349 H   0  0  0  0  0  0  0  0  0  0  0  0
  144.2765  131.4315  152.3911 H   0  0  0  0  0  0  0  0  0  0  0  0
  144.7990  133.0216  149.8349 H   0  0  0  0  0  0  0  0  0  0  0  0
  143.2570  132.8087  150.6316 H   0  0  0  0  0  0  0  0  0  0  0  0
  144.0586  134.0401  152.6111 H   0  0  0  0  0  0  0  0  0  0  0  0
  144.5475  135.5582  150.0036 H   0  0  0  0  0  0  0  0  0  0  0  0
  143.0097  135.3594  150.8231 H   0  0  0  0  0  0  0  0  0  0  0  0
  148.8729  142.9656  154.9094 H   0  0  0  0  0  0  0  0  0  0  0  0
  1  2  1  0  0  0  0
  2  7  1  0  0  0  0
  2  3  2  0  0  0  0
  3  4  1  0  0  0  0
  3 20  1  0  0  0  0
  4  5  2  0  0  0  0
  4 40  1  0  0  0  0
  5  6  1  0  0  0  0
  5 21  1  0  0  0  0
  6  7  2  0  0  0  0
  6 22  1  0  0  0  0
  7  8  1  0  0  0  0
  8  9  1  0  0  0  0
  8 23  1  0  0  0  0
  9 10  1  0  0  0  0
  9 24  1  0  0  0  0
  9 25  1  0  0  0  0
 10 19  1  0  0  0  0
 10 11  1  0  0  0  0
 10 26  1  0  0  0  0
 11 12  1  0  0  0  0
 11 27  1  0  0  0  0
 11 28  1  0  0  0  0
 12 17  1  0  0  0  0
 12 13  1  0  0  0  0
 13 14  1  0  0  0  0
 13 29  1  0  0  0  0
 13 30  1  0  0  0  0
 14 15  1  0  0  0  0
 14 31  1  0  0  0  0
 14 32  1  0  0  0  0
 15 16  1  0  0  0  0
 15 33  1  0  0  0  0
 15 34  1  0  0  0  0
 16 17  1  0  0  0  0
 16 35  1  0  0  0  0
 16 36  1  0  0  0  0
 17 18  1  0  0  0  0
 17 37  1  0  0  0  0
 18 19  1  0  0  0  0
 18 38  1  0  0  0  0
 18 39  1  0  0  0  0
M  CHG  1   4   1
M  END
> <s_m_source_file>
AV-unprocessed.smi

> <i_m_source_file_index>
2822

> <i_lp_mmshare_version>
43012

> <i_f3d_flags>
0

> <s_epik_input>
Q2xjMVtjSF1uW2NIXVtjSF1jMVtOSF1bQ0gyXVtDQEhdKFtDSDJdMilPW0NIMl1bQ0BASF0oTjIzKVtDSDJdW0NIMl1bQ0gyXVtDSDJdMw==

> <s_epik_cmdline>
J2VwaWtfcHl0aG9uJywgJy1waCcsICc3LjAnLCAnLXRuJywgJzgnLCAnLW1hJywgJzIwMCcsICctbWV0YWxfYmluZGluZycsICctaW1hZScsICc8aW5maWxlLm1hZT4nLCAnLW9tYWUnLCAnPG91dGZpbGUubWFlPic=

> <r_epik_Ionization_Penalty>
1.37653

> <r_epik_Ionization_Penalty_Charging>
0.152973

> <r_epik_Ionization_Penalty_Neutral>
1.22356

> <r_epik_State_Penalty>
1.42693

> <r_epik_Charging_Adjusted_Penalty>
1.5799

> <i_epik_Tot_Q>
1

> <i_epik_Tot_abs_Q>
1

> <r_epik_Metal_State_Penalty>
4.59822

> <b_epik_Metal_Only>
0

> <s_lp_Force_Field>
OPLS_2005

> <r_lp_Energy>
43.1838

> <b_lp_Chiralities_Consistent>
1

> <s_lp_Variant>
AV-unprocessed.smi:2822-20

> <Gold.Version>
5.8.1

> <Gold.Id.Protein>
6NUR|6NUR_protein|mol2

> <Gold.PLP.Fitness>
40.5879

> <Gold.PLP.PLP>
-31.9472

> <Gold.PLP.part.hbond>
-2.0000

> <Gold.PLP.part.metal>
0.0000

> <Gold.PLP.part.buried>
-2.7323

> <Gold.PLP.part.nonpolar>
-29.9284

> <Gold.PLP.part.repulsive>
2.6338

> <Gold.PLP.ligand.clash>
0.0000

> <Gold.PLP.ligand.torsion>
0.1799

> <Gold.PLP.Chemscore.Hbond>
3.0000

> <Gold.PLP.Chemscore.CHOScore>
0.0000

> <Gold.PLP.Chemscore.Metal>
0.0000

> <Gold.Chemscore.Hbonds>
donor molecule, donor type, donor heavy atom, donor atom, acceptor molecule, acceptor atom, score
      L1  H     4    40       P1  8028  2.00
      L1  H     8    23       P1  7948  1.00

> <Gold.PLP.Chemscore.Internal.Correction>
0.0005

> <Gold.Rescore>
     Score         DG    S(hbond)    S(metal)    S(lipo)     H(rot)  DE(clash)    DE(int)     intcor
     17.85     -20.16       1.99        0.00      94.52       1.18       2.15       0.16       ----

> <Gold.Chemscore.Fitness>
17.8505

> <Gold.Chemscore.DG>
-20.1604

> <Gold.Chemscore.ZeroCoef>
-5.4800

> <Gold.Chemscore.Hbond>
1.9879

> <Gold.Chemscore.Metal>
0.0000

> <Gold.Chemscore.Lipo>
94.5157

> <Gold.Chemscore.Internal_Hbond>
0.0000

> <Gold.Chemscore.DEClash>
2.1474

> <Gold.Chemscore.DEInternal>
0.1625

> <Gold.Chemscore.Rot>
1.1788

> <Gold.Chemscore.Internal.Correction>
   9.000000E+99

> <Gold.Chemscore.Hbonds>
donor molecule, donor type, donor heavy atom, donor atom, acceptor molecule, acceptor atom, score
      L1  H     4    40       P1  8028  1.00
      L1  H     8    23       P1  7948  0.99

> <Gold.Chemscore.Hbond.Weighted>
-6.6397

> <Gold.Chemscore.Metal.Weighted>
-0.0000

> <Gold.Chemscore.Lipo.Weighted>
-11.0583

> <Gold.Chemscore.Internal_Hbond.Weighted>
0.0000

> <Gold.Chemscore.DEClash.Weighted>
2.1474

> <Gold.Chemscore.DEInternal.Weighted>
0.1625

> <Gold.Chemscore.Rot.Weighted>
3.0177

> <Gold.Chemscore.Internal.Correction.Weighted>
   9.000000E+99

> <Gold.Protein.RotatedTorsions>
[ 6907 6896 6895 6894 ] final -173.06 input  -60.11 | X-H torsion
[ 7974 7965 7964 7962 ] final   36.01 input  175.53 | X-H torsion
[ 8008 7997 7996 7995 ] final  136.56 input   59.86 | X-H torsion
[ 10167 10162 10161 10158 ] final  -15.32 input  -65.29 | X-H torsion
[ 10718 10713 10712 10709 ] final  -10.67 input   66.30 | X-H torsion
[ 10763 10752 10751 10750 ] final -177.88 input  -60.55 | X-H torsion
[ 11005 11000 10999 10996 ] final  166.54 input  -57.11 | X-H torsion

> <Gold.Protein.ActiveResidues>
 VAL166  LYS551  ARG553  GLY616  TRP617  ASP618  TYR619  PRO620  LYS621  CYS622 
 ASP623  PHE694  ASN695  SER759  ASP760  ASP761  ALA762  ILE779  LEU786  VAL792 
 PHE793  MET794  SER795  GLU796  ALA797  LYS798  CYS799  TRP800  GLU811  SER814 

> <Gold.Protein.RotatedAtoms>
  151.5500  133.3419  159.2951 H   0  0  0  0  0  0  0  0  0  0  0  0  # atno 6907 bound_to 6896
  150.8484  134.7804  159.7000 H   0  0  0  0  0  0  0  0  0  0  0  0  # atno 6908 bound_to 6896
  152.4536  134.5347  159.9873 H   0  0  0  0  0  0  0  0  0  0  0  0  # atno 6909 bound_to 6896
  146.1242  139.6071  142.9269 H   0  0  0  0  0  0  0  0  0  0  0  0  # atno 7974 bound_to 7965
  156.3004  140.2442  156.3766 H   0  0  0  0  0  0  0  0  0  0  0  0  # atno 8008 bound_to 7997
  154.8739  140.0415  157.1761 H   0  0  0  0  0  0  0  0  0  0  0  0  # atno 8009 bound_to 7997
  154.8766  140.2943  155.5454 H   0  0  0  0  0  0  0  0  0  0  0  0  # atno 8010 bound_to 7997
  140.7216  143.5231  150.9610 H   0  0  0  0  0  0  0  0  0  0  0  0  # atno 10167 bound_to 10162
  156.6701  130.5007  149.6003 H   0  0  0  0  0  0  0  0  0  0  0  0  # atno 10718 bound_to 10713
  154.5546  135.2815  155.0977 H   0  0  0  0  0  0  0  0  0  0  0  0  # atno 10763 bound_to 10752
  154.2409  135.6357  153.5210 H   0  0  0  0  0  0  0  0  0  0  0  0  # atno 10764 bound_to 10752
  153.0012  135.5560  154.6122 H   0  0  0  0  0  0  0  0  0  0  0  0  # atno 10765 bound_to 10752
  140.2674  134.7854  157.3645 H   0  0  0  0  0  0  0  0  0  0  0  0  # atno 11005 bound_to 11000
  145.5401  141.0421  143.2335 LP  0  0  0  0  0  0  0  0  0  0  0  0  # atno 17320 bound_to 7965
  144.7626  139.6920  143.7228 LP  0  0  0  0  0  0  0  0  0  0  0  0  # atno 17321 bound_to 7965
  139.8948  143.6908  152.3140 LP  0  0  0  0  0  0  0  0  0  0  0  0  # atno 17342 bound_to 10162
  139.7237  144.7597  151.0914 LP  0  0  0  0  0  0  0  0  0  0  0  0  # atno 17343 bound_to 10162
  156.1945  130.6581  151.1099 LP  0  0  0  0  0  0  0  0  0  0  0  0  # atno 17370 bound_to 10713
  157.7080  131.0747  150.6600 LP  0  0  0  0  0  0  0  0  0  0  0  0  # atno 17371 bound_to 10713
  140.1405  134.4977  155.8035 LP  0  0  0  0  0  0  0  0  0  0  0  0  # atno 17394 bound_to 11000
  141.2182  133.6824  156.7202 LP  0  0  0  0  0  0  0  0  0  0  0  0  # atno 17395 bound_to 11000

$$$$
