AV-unprocessed.smi:415|AV-procd|sdf|2524|dock1
  -GOLD-   2262022483D 1   1.00000     0.00000
 Structure written by MMmdl.
 53 54  0  0  0  0  0  0  0  0  1 V2000
  148.3685  132.7971  153.5036 C   0  0  0  0  0  0  0  0  0  0  0  0
  149.1937  133.6587  154.2715 O   0  0  0  0  0  0  0  0  0  0  0  0
  149.4401  133.1965  155.5925 C   0  0  0  0  0  0  0  0  0  0  0  0
  150.4006  134.1175  156.3724 C   0  0  0  0  0  0  0  0  0  0  0  0
  149.8563  135.4444  156.5930 N   0  0  0  0  0  0  0  0  0  0  0  0
  148.9755  135.7381  157.6304 C   0  0  0  0  0  0  0  0  0  0  0  0
  148.5668  134.7308  158.4862 N   0  0  0  0  0  0  0  0  0  0  0  0
  148.5153  136.9928  157.8310 C   0  0  0  0  0  0  0  0  0  0  0  0
  148.9176  138.1048  156.9817 C   0  0  0  0  0  0  0  0  0  0  0  0
  148.5184  139.2565  157.1556 O   0  0  0  0  0  0  0  0  0  0  0  0
  149.8156  137.7857  155.9377 N   0  0  0  0  0  0  0  0  0  0  0  0
  150.3021  138.8713  155.0580 C   0  0  0  0  0  0  0  0  0  0  0  0
  151.3967  139.7309  155.7081 C   0  0  0  0  0  0  0  0  0  0  0  0
  152.5067  139.8458  155.1862 O   0  0  0  0  0  0  0  0  0  0  0  0
  151.0615  140.3306  156.8599 N   0  0  0  0  0  0  0  0  0  0  0  0
  151.9248  141.2221  157.6306 C   0  0  2  0  0  0  0  0  0  0  0  0
  152.2213  140.5977  159.0078 C   0  0  0  0  0  0  0  0  0  0  0  0
  153.1496  141.4958  159.8388 C   0  0  0  0  0  0  0  0  0  0  0  0
  152.5852  142.9187  159.9750 C   0  0  0  0  0  0  0  0  0  0  0  0
  152.2862  143.5404  158.5958 C   0  0  2  0  0  0  0  0  0  0  0  0
  151.8212  145.0012  158.7162 C   0  0  0  0  0  0  0  0  0  0  0  0
  151.3255  142.6500  157.7632 C   0  0  2  0  0  0  0  0  0  0  0  0
  149.8695  142.6541  158.2859 C   0  0  0  0  0  0  0  0  0  0  0  0
  150.3055  136.4761  155.7288 C   0  0  0  0  0  0  0  0  0  0  0  0
  151.1094  136.2543  154.8191 O   0  0  0  0  0  0  0  0  0  0  0  0
  148.2135  133.2298  152.5153 H   0  0  0  0  0  0  0  0  0  0  0  0
  147.3899  132.6536  153.9611 H   0  0  0  0  0  0  0  0  0  0  0  0
  148.8369  131.8211  153.3713 H   0  0  0  0  0  0  0  0  0  0  0  0
  148.5011  133.0763  156.1348 H   0  0  0  0  0  0  0  0  0  0  0  0
  149.8749  132.1992  155.5202 H   0  0  0  0  0  0  0  0  0  0  0  0
  150.7196  133.6974  157.3267 H   0  0  0  0  0  0  0  0  0  0  0  0
  151.3271  134.2618  155.8170 H   0  0  0  0  0  0  0  0  0  0  0  0
  148.8906  133.7798  158.3810 H   0  0  0  0  0  0  0  0  0  0  0  0
  147.8646  134.8871  159.1950 H   0  0  0  0  0  0  0  0  0  0  0  0
  147.8338  137.1882  158.6467 H   0  0  0  0  0  0  0  0  0  0  0  0
  150.6818  138.4591  154.1213 H   0  0  0  0  0  0  0  0  0  0  0  0
  149.4925  139.5321  154.7454 H   0  0  0  0  0  0  0  0  0  0  0  0
  150.1311  140.1765  157.2199 H   0  0  0  0  0  0  0  0  0  0  0  0
  152.8777  141.3015  157.1033 H   0  0  0  0  0  0  0  0  0  0  0  0
  151.2928  140.4262  159.5534 H   0  0  0  0  0  0  0  0  0  0  0  0
  152.6853  139.6189  158.8798 H   0  0  0  0  0  0  0  0  0  0  0  0
  153.3033  141.0597  160.8262 H   0  0  0  0  0  0  0  0  0  0  0  0
  154.1314  141.5385  159.3653 H   0  0  0  0  0  0  0  0  0  0  0  0
  151.6813  142.8999  160.5844 H   0  0  0  0  0  0  0  0  0  0  0  0
  153.3016  143.5393  160.5142 H   0  0  0  0  0  0  0  0  0  0  0  0
  153.2320  143.5712  158.0524 H   0  0  0  0  0  0  0  0  0  0  0  0
  150.9282  145.0937  159.3340 H   0  0  0  0  0  0  0  0  0  0  0  0
  151.5996  145.4256  157.7366 H   0  0  0  0  0  0  0  0  0  0  0  0
  152.5960  145.6178  159.1727 H   0  0  0  0  0  0  0  0  0  0  0  0
  151.2881  143.0780  156.7602 H   0  0  0  0  0  0  0  0  0  0  0  0
  149.7976  142.2703  159.3028 H   0  0  0  0  0  0  0  0  0  0  0  0
  149.2160  142.0468  157.6597 H   0  0  0  0  0  0  0  0  0  0  0  0
  149.4466  143.6581  158.2810 H   0  0  0  0  0  0  0  0  0  0  0  0
  1  2  1  0  0  0  0
  1 26  1  0  0  0  0
  1 27  1  0  0  0  0
  1 28  1  0  0  0  0
  2  3  1  0  0  0  0
  3  4  1  0  0  0  0
  3 29  1  0  0  0  0
  3 30  1  0  0  0  0
  4  5  1  0  0  0  0
  4 31  1  0  0  0  0
  4 32  1  0  0  0  0
  5 24  1  0  0  0  0
  5  6  1  0  0  0  0
  6  7  1  0  0  0  0
  6  8  2  0  0  0  0
  7 33  1  0  0  0  0
  7 34  1  0  0  0  0
  8  9  1  0  0  0  0
  8 35  1  0  0  0  0
  9 10  2  0  0  0  0
  9 11  1  0  0  0  0
 11 12  1  0  0  0  0
 11 24  1  0  0  0  0
 12 13  1  0  0  0  0
 12 36  1  0  0  0  0
 12 37  1  0  0  0  0
 13 14  2  0  0  0  0
 13 15  1  0  0  0  0
 15 16  1  0  0  0  0
 15 38  1  0  0  0  0
 16 22  1  0  0  0  0
 16 17  1  0  0  0  0
 16 39  1  0  0  0  0
 17 18  1  0  0  0  0
 17 40  1  0  0  0  0
 17 41  1  0  0  0  0
 18 19  1  0  0  0  0
 18 42  1  0  0  0  0
 18 43  1  0  0  0  0
 19 20  1  0  0  0  0
 19 44  1  0  0  0  0
 19 45  1  0  0  0  0
 20 21  1  0  0  0  0
 20 22  1  0  0  0  0
 20 46  1  0  0  0  0
 21 47  1  0  0  0  0
 21 48  1  0  0  0  0
 21 49  1  0  0  0  0
 22 23  1  0  0  0  0
 22 50  1  0  0  0  0
 23 51  1  0  0  0  0
 23 52  1  0  0  0  0
 23 53  1  0  0  0  0
 24 25  2  0  0  0  0
M  END
> <s_m_source_file>
AV-unprocessed.smi

> <i_m_source_file_index>
415

> <i_lp_mmshare_version>
43012

> <i_f3d_flags>
0

> <s_epik_input>
W0NIM11PW0NIMl1bQ0gyXW4xYyhbTkgyXSlbY0hdYyg9TyluKGMxPU8pW0NIMl1DKD1PKVtOSF1bQ0BASF0yW0NIMl1bQ0gyXVtDSDJdW0NAQEhdKFtDSDNdKVtDQEhdMltDSDNd

> <s_epik_cmdline>
J2VwaWtfcHl0aG9uJywgJy1waCcsICc3LjAnLCAnLXRuJywgJzgnLCAnLW1hJywgJzIwMCcsICctbWV0YWxfYmluZGluZycsICctaW1hZScsICc8aW5maWxlLm1hZT4nLCAnLW9tYWUnLCAnPG91dGZpbGUubWFlPic=

> <r_lp_tautomer_probability>
1

> <r_epik_Ionization_Penalty>
8.6647e-06

> <r_epik_Ionization_Penalty_Charging>
1.81162e-08

> <r_epik_Ionization_Penalty_Neutral>
8.64658e-06

> <r_epik_State_Penalty>
-0

> <r_epik_Charging_Adjusted_Penalty>
1.81162e-08

> <i_epik_Tot_Q>
0

> <i_epik_Tot_abs_Q>
0

> <r_epik_Metal_State_Penalty>
-0

> <b_epik_Metal_Only>
0

> <s_lp_Force_Field>
OPLS_2005

> <r_lp_Energy>
23.9123

> <b_lp_Chiralities_Consistent>
1

> <s_lp_Variant>
AV-unprocessed.smi:415-7

> <Gold.Version>
5.8.1

> <Gold.Id.Protein>
6NUR|6NUR_protein|mol2

> <Gold.PLP.Fitness>
48.4776

> <Gold.PLP.PLP>
-42.7383

> <Gold.PLP.part.hbond>
-3.0000

> <Gold.PLP.part.metal>
0.0000

> <Gold.PLP.part.buried>
-7.1200

> <Gold.PLP.part.nonpolar>
-33.9045

> <Gold.PLP.part.repulsive>
0.5349

> <Gold.PLP.ligand.clash>
0.0000

> <Gold.PLP.ligand.torsion>
0.5699

> <Gold.PLP.Chemscore.Hbond>
2.2461

> <Gold.PLP.Chemscore.CHOScore>
0.0000

> <Gold.PLP.Chemscore.Metal>
0.0000

> <Gold.Chemscore.Hbonds>
donor molecule, donor type, donor heavy atom, donor atom, acceptor molecule, acceptor atom, score
      P1  H  7989  7998       L1    14  0.28
      P1  H  7997  8010       L1    14  0.83
      P1  H 10752 10764       L1    25  1.00

> <Gold.PLP.Chemscore.Internal.Correction>
0.1410

> <Gold.Rescore>
     Score         DG    S(hbond)    S(metal)    S(lipo)     H(rot)  DE(clash)    DE(int)     intcor
     17.72     -18.13       1.99        0.00     100.83       2.26       0.02       0.39       ----

> <Gold.Chemscore.Fitness>
17.7179

> <Gold.Chemscore.DG>
-18.1316

> <Gold.Chemscore.ZeroCoef>
-5.4800

> <Gold.Chemscore.Hbond>
1.9914

> <Gold.Chemscore.Metal>
0.0000

> <Gold.Chemscore.Lipo>
100.8326

> <Gold.Chemscore.Internal_Hbond>
0.0000

> <Gold.Chemscore.DEClash>
0.0212

> <Gold.Chemscore.DEInternal>
0.3926

> <Gold.Chemscore.Rot>
2.2645

> <Gold.Chemscore.Internal.Correction>
   9.000000E+99

> <Gold.Chemscore.Hbonds>
donor molecule, donor type, donor heavy atom, donor atom, acceptor molecule, acceptor atom, score
      P1  H  7989  7998       L1    14  0.02
      P1  H  7997  8010       L1    14  0.82
      P1  H 10752 10764       L1    25  0.98

> <Gold.Chemscore.Hbond.Weighted>
-6.6514

> <Gold.Chemscore.Metal.Weighted>
-0.0000

> <Gold.Chemscore.Lipo.Weighted>
-11.7974

> <Gold.Chemscore.Internal_Hbond.Weighted>
0.0000

> <Gold.Chemscore.DEClash.Weighted>
0.0212

> <Gold.Chemscore.DEInternal.Weighted>
0.3926

> <Gold.Chemscore.Rot.Weighted>
5.7972

> <Gold.Chemscore.Internal.Correction.Weighted>
   9.000000E+99

> <Gold.Protein.RotatedTorsions>
[ 6907 6896 6895 6894 ] final  -40.05 input  -60.11 | X-H torsion
[ 7974 7965 7964 7962 ] final  -25.76 input  175.53 | X-H torsion
[ 8008 7997 7996 7995 ] final  105.34 input   59.86 | X-H torsion
[ 10167 10162 10161 10158 ] final  104.66 input  -65.29 | X-H torsion
[ 10718 10713 10712 10709 ] final   -3.75 input   66.30 | X-H torsion
[ 10763 10752 10751 10750 ] final  -54.12 input  -60.55 | X-H torsion
[ 11005 11000 10999 10996 ] final   44.16 input  -57.11 | X-H torsion

> <Gold.Protein.ActiveResidues>
 VAL166  LYS551  ARG553  GLY616  TRP617  ASP618  TYR619  PRO620  LYS621  CYS622 
 ASP623  PHE694  ASN695  SER759  ASP760  ASP761  ALA762  ILE779  LEU786  VAL792 
 PHE793  MET794  SER795  GLU796  ALA797  LYS798  CYS799  TRP800  GLU811  SER814 

> <Gold.Protein.RotatedAtoms>
  150.9830  134.9182  159.7855 H   0  0  0  0  0  0  0  0  0  0  0  0  # atno 6907 bound_to 6896
  152.5228  134.3384  159.9218 H   0  0  0  0  0  0  0  0  0  0  0  0  # atno 6908 bound_to 6896
  151.3391  133.3928  159.2704 H   0  0  0  0  0  0  0  0  0  0  0  0  # atno 6909 bound_to 6896
  146.1470  140.4929  142.8627 H   0  0  0  0  0  0  0  0  0  0  0  0  # atno 7974 bound_to 7965
  156.1651  140.3132  155.8874 H   0  0  0  0  0  0  0  0  0  0  0  0  # atno 8008 bound_to 7997
  155.3703  140.0481  157.3062 H   0  0  0  0  0  0  0  0  0  0  0  0  # atno 8009 bound_to 7997
  154.5184  140.2189  155.9032 H   0  0  0  0  0  0  0  0  0  0  0  0  # atno 8010 bound_to 7997
  139.7159  144.7068  151.0952 H   0  0  0  0  0  0  0  0  0  0  0  0  # atno 10167 bound_to 10162
  156.7715  130.5301  149.5766 H   0  0  0  0  0  0  0  0  0  0  0  0  # atno 10718 bound_to 10713
  154.1698  135.6461  153.5006 H   0  0  0  0  0  0  0  0  0  0  0  0  # atno 10763 bound_to 10752
  153.0087  135.5380  154.6624 H   0  0  0  0  0  0  0  0  0  0  0  0  # atno 10764 bound_to 10752
  154.5960  135.2939  155.0557 H   0  0  0  0  0  0  0  0  0  0  0  0  # atno 10765 bound_to 10752
  140.1577  134.4380  155.8338 H   0  0  0  0  0  0  0  0  0  0  0  0  # atno 11005 bound_to 11000
  144.7858  140.5933  143.6575 LP  0  0  0  0  0  0  0  0  0  0  0  0  # atno 17320 bound_to 7965
  145.4914  139.1488  143.3707 LP  0  0  0  0  0  0  0  0  0  0  0  0  # atno 17321 bound_to 7965
  140.7743  143.5231  150.9513 LP  0  0  0  0  0  0  0  0  0  0  0  0  # atno 17342 bound_to 10162
  139.8917  143.6945  152.3144 LP  0  0  0  0  0  0  0  0  0  0  0  0  # atno 17343 bound_to 10162
  156.1275  130.6154  151.0285 LP  0  0  0  0  0  0  0  0  0  0  0  0  # atno 17370 bound_to 10713
  157.6689  131.0866  150.7662 LP  0  0  0  0  0  0  0  0  0  0  0  0  # atno 17371 bound_to 10713
  141.2206  133.6900  156.7538 LP  0  0  0  0  0  0  0  0  0  0  0  0  # atno 17394 bound_to 11000
  140.2527  134.8528  157.3683 LP  0  0  0  0  0  0  0  0  0  0  0  0  # atno 17395 bound_to 11000

$$$$
