AV-unprocessed.smi:760|AV-procd|sdf|3628|dock5
  -GOLD-   22720 1 23D 1   1.00000     0.00000
 Structure written by MMmdl.
 44 45  0  0  0  0  0  0  0  0  2 V2000
  144.9739  143.4983  157.2224 C   0  0  0  0  0  0  0  0  0  0  0  0
  144.2557  143.5695  156.0894 C   0  0  0  0  0  0  0  0  0  0  0  0
  143.7016  144.8861  155.5738 C   0  0  0  0  0  0  0  0  0  0  0  0
  143.9827  142.3383  155.2387 C   0  0  0  0  0  0  0  0  0  0  0  0
  145.2202  141.7472  154.6646 N   0  3  2  0  0  0  0  0  0  0  0  0
  145.9987  141.0076  155.6917 C   0  0  0  0  0  0  0  0  0  0  0  0
  147.1944  140.2688  155.0666 C   0  0  0  0  0  0  0  0  0  0  0  0
  148.1159  141.2250  154.2867 C   0  0  2  0  0  0  0  0  0  0  0  0
  148.8494  142.1217  155.1800 N   0  0  0  0  0  0  0  0  0  0  0  0
  149.8105  141.7421  156.0348 C   0  0  0  0  0  0  0  0  0  0  0  0
  150.1834  140.5760  156.1627 O   0  0  0  0  0  0  0  0  0  0  0  0
  150.2961  142.7881  156.7228 N   0  0  0  0  0  0  0  0  0  0  0  0
  151.3147  142.7657  157.7085 C   0  0  0  0  0  0  0  0  0  0  0  0
  152.1099  143.8358  158.2092 C   0  0  0  0  0  0  0  0  0  0  0  0
  152.9569  143.4066  159.1329 N   0  0  0  0  0  0  0  0  0  0  0  0
  152.7225  142.0758  159.2349 N   0  0  0  0  0  0  0  0  0  0  0  0
  153.4928  141.2890  160.1743 C   0  0  0  0  0  0  0  0  0  0  0  0
  151.7236  141.6531  158.3806 C   0  0  0  0  0  0  0  0  0  0  0  0
  147.2837  142.0276  153.2734 C   0  0  0  0  0  0  0  0  0  0  0  0
  146.0705  142.7179  153.9244 C   0  0  0  0  0  0  0  0  0  0  0  0
  145.1748  144.3778  157.8170 H   0  0  0  0  0  0  0  0  0  0  0  0
  145.3729  142.5578  157.5735 H   0  0  0  0  0  0  0  0  0  0  0  0
  144.1562  145.1316  154.6138 H   0  0  0  0  0  0  0  0  0  0  0  0
  143.9167  145.7027  156.2641 H   0  0  0  0  0  0  0  0  0  0  0  0
  142.6229  144.8420  155.4329 H   0  0  0  0  0  0  0  0  0  0  0  0
  143.4319  141.5918  155.8134 H   0  0  0  0  0  0  0  0  0  0  0  0
  143.3251  142.6461  154.4245 H   0  0  0  0  0  0  0  0  0  0  0  0
  146.3414  141.7012  156.4611 H   0  0  0  0  0  0  0  0  0  0  0  0
  145.3545  140.2810  156.1884 H   0  0  0  0  0  0  0  0  0  0  0  0
  147.7541  139.7405  155.8396 H   0  0  0  0  0  0  0  0  0  0  0  0
  146.8217  139.4999  154.3884 H   0  0  0  0  0  0  0  0  0  0  0  0
  148.8449  140.6341  153.7288 H   0  0  0  0  0  0  0  0  0  0  0  0
  148.6134  143.1024  155.1391 H   0  0  0  0  0  0  0  0  0  0  0  0
  149.8956  143.6930  156.5243 H   0  0  0  0  0  0  0  0  0  0  0  0
  152.1094  144.8838  157.9491 H   0  0  0  0  0  0  0  0  0  0  0  0
  153.4286  140.2317  159.9155 H   0  0  0  0  0  0  0  0  0  0  0  0
  153.1010  141.4334  161.1813 H   0  0  0  0  0  0  0  0  0  0  0  0
  154.5395  141.5949  160.1494 H   0  0  0  0  0  0  0  0  0  0  0  0
  151.4012  140.6235  158.3279 H   0  0  0  0  0  0  0  0  0  0  0  0
  147.9093  142.7657  152.7697 H   0  0  0  0  0  0  0  0  0  0  0  0
  146.9280  141.3526  152.4935 H   0  0  0  0  0  0  0  0  0  0  0  0
  145.4941  143.1920  153.1319 H   0  0  0  0  0  0  0  0  0  0  0  0
  146.3978  143.5091  154.6005 H   0  0  0  0  0  0  0  0  0  0  0  0
  144.9163  141.0580  153.9915 H   0  0  0  0  0  0  0  0  0  0  0  0
  1  2  2  0  0  0  0
  1 21  1  0  0  0  0
  1 22  1  0  0  0  0
  2  3  1  0  0  0  0
  2  4  1  0  0  0  0
  3 23  1  0  0  0  0
  3 24  1  0  0  0  0
  3 25  1  0  0  0  0
  4  5  1  0  0  0  0
  4 26  1  0  0  0  0
  4 27  1  0  0  0  0
  5 20  1  0  0  0  0
  5  6  1  0  0  0  0
  5 44  1  0  0  0  0
  6  7  1  0  0  0  0
  6 28  1  0  0  0  0
  6 29  1  0  0  0  0
  7  8  1  0  0  0  0
  7 30  1  0  0  0  0
  7 31  1  0  0  0  0
  8  9  1  0  0  0  0
  8 19  1  0  0  0  0
  8 32  1  0  0  0  0
  9 10  1  0  0  0  0
  9 33  1  0  0  0  0
 10 11  2  0  0  0  0
 10 12  1  0  0  0  0
 12 13  1  0  0  0  0
 12 34  1  0  0  0  0
 13 18  2  0  0  0  0
 13 14  1  0  0  0  0
 14 15  2  0  0  0  0
 14 35  1  0  0  0  0
 15 16  1  0  0  0  0
 16 17  1  0  0  0  0
 16 18  1  0  0  0  0
 17 36  1  0  0  0  0
 17 37  1  0  0  0  0
 17 38  1  0  0  0  0
 18 39  1  0  0  0  0
 19 20  1  0  0  0  0
 19 40  1  0  0  0  0
 19 41  1  0  0  0  0
 20 42  1  0  0  0  0
 20 43  1  0  0  0  0
M  CHG  1   5   1
M  END
> <s_m_source_file>
AV-unprocessed.smi

> <i_m_source_file_index>
760

> <i_lp_mmshare_version>
43012

> <i_f3d_flags>
0

> <s_epik_input>
W0NIMl09QyhbQ0gzXSlbQ0gyXU4xW0NIMl1bQ0gyXVtDSF0oW0NIMl1bQ0gyXTEpW05IXUMoPU8pW05IXWMyW2NIXW5uKFtDSDNdKVtjSF0y

> <s_epik_cmdline>
J2VwaWtfcHl0aG9uJywgJy1waCcsICc3LjAnLCAnLXRuJywgJzgnLCAnLW1hJywgJzIwMCcsICctbWV0YWxfYmluZGluZycsICctaW1hZScsICc8aW5maWxlLm1hZT4nLCAnLW9tYWUnLCAnPG91dGZpbGUubWFlPic=

> <r_lp_tautomer_probability>
1

> <r_epik_Ionization_Penalty>
0.0194996

> <r_epik_Ionization_Penalty_Charging>
0.0193505

> <r_epik_Ionization_Penalty_Neutral>
0.000149098

> <r_epik_State_Penalty>
0.0154499

> <r_epik_Charging_Adjusted_Penalty>
0.0348004

> <i_epik_Tot_Q>
1

> <i_epik_Tot_abs_Q>
1

> <r_epik_Metal_State_Penalty>
0.0154507

> <b_epik_Metal_Only>
0

> <s_lp_Force_Field>
OPLS_2005

> <r_lp_Energy>
20.0822

> <b_lp_Chiralities_Consistent>
1

> <s_lp_Variant>
AV-unprocessed.smi:760-2

> <Gold.Version>
5.8.1

> <Gold.Id.Protein>
6NUR|6NUR_protein|mol2

> <Gold.PLP.Fitness>
46.0673

> <Gold.PLP.PLP>
-34.6384

> <Gold.PLP.part.hbond>
-3.0000

> <Gold.PLP.part.metal>
0.0000

> <Gold.PLP.part.buried>
-6.5892

> <Gold.PLP.part.nonpolar>
-26.1743

> <Gold.PLP.part.repulsive>
0.2579

> <Gold.PLP.ligand.clash>
0.0000

> <Gold.PLP.ligand.torsion>
0.2494

> <Gold.PLP.Chemscore.Hbond>
3.9666

> <Gold.PLP.Chemscore.CHOScore>
0.0000

> <Gold.PLP.Chemscore.Metal>
0.0000

> <Gold.Chemscore.Hbonds>
donor molecule, donor type, donor heavy atom, donor atom, acceptor molecule, acceptor atom, score
      L1  H     5    44       P1 10175  1.98
      L1  H     9    33       P1  8028  1.00
      L1  H    12    34       P1  8028  1.00

> <Gold.PLP.Chemscore.Internal.Correction>
0.0278

> <Gold.Rescore>
     Score         DG    S(hbond)    S(metal)    S(lipo)     H(rot)  DE(clash)    DE(int)     intcor
     17.12     -20.54       2.67        0.00      82.72       1.38       1.76       1.66       ----

> <Gold.Chemscore.Fitness>
17.1175

> <Gold.Chemscore.DG>
-20.5396

> <Gold.Chemscore.ZeroCoef>
-5.4800

> <Gold.Chemscore.Hbond>
2.6652

> <Gold.Chemscore.Metal>
0.0000

> <Gold.Chemscore.Lipo>
82.7199

> <Gold.Chemscore.Internal_Hbond>
0.0000

> <Gold.Chemscore.DEClash>
1.7593

> <Gold.Chemscore.DEInternal>
1.6629

> <Gold.Chemscore.Rot>
1.3752

> <Gold.Chemscore.Internal.Correction>
   9.000000E+99

> <Gold.Chemscore.Hbonds>
donor molecule, donor type, donor heavy atom, donor atom, acceptor molecule, acceptor atom, score
      L1  H     5    44       P1 10175  0.72
      L1  H     9    33       P1  8028  0.95
      L1  H    12    34       P1  8028  0.97

> <Gold.Chemscore.Hbond.Weighted>
-8.9018

> <Gold.Chemscore.Metal.Weighted>
-0.0000

> <Gold.Chemscore.Lipo.Weighted>
-9.6782

> <Gold.Chemscore.Internal_Hbond.Weighted>
0.0000

> <Gold.Chemscore.DEClash.Weighted>
1.7593

> <Gold.Chemscore.DEInternal.Weighted>
1.6629

> <Gold.Chemscore.Rot.Weighted>
3.5204

> <Gold.Chemscore.Internal.Correction.Weighted>
   9.000000E+99

> <Gold.Protein.RotatedTorsions>
[ 6907 6896 6895 6894 ] final   -9.32 input  -60.11 | X-H torsion
[ 7974 7965 7964 7962 ] final  -81.48 input  175.53 | X-H torsion
[ 8008 7997 7996 7995 ] final   15.68 input   59.86 | X-H torsion
[ 10167 10162 10161 10158 ] final -123.64 input  -65.29 | X-H torsion
[ 10718 10713 10712 10709 ] final  -53.43 input   66.30 | X-H torsion
[ 10763 10752 10751 10750 ] final  161.17 input  -60.55 | X-H torsion
[ 11005 11000 10999 10996 ] final    7.96 input  -57.11 | X-H torsion

> <Gold.Protein.ActiveResidues>
 VAL166  LYS551  ARG553  GLY616  TRP617  ASP618  TYR619  PRO620  LYS621  CYS622 
 ASP623  PHE694  ASN695  SER759  ASP760  ASP761  ALA762  ILE779  LEU786  VAL792 
 PHE793  MET794  SER795  GLU796  ALA797  LYS798  CYS799  TRP800  GLU811  SER814 

> <Gold.Protein.RotatedAtoms>
  151.4196  135.0996  159.9609 H   0  0  0  0  0  0  0  0  0  0  0  0  # atno 6907 bound_to 6896
  152.4993  133.8720  159.7313 H   0  0  0  0  0  0  0  0  0  0  0  0  # atno 6908 bound_to 6896
  150.9233  133.6797  159.2855 H   0  0  0  0  0  0  0  0  0  0  0  0  # atno 6909 bound_to 6896
  145.5461  140.9503  143.1524 H   0  0  0  0  0  0  0  0  0  0  0  0  # atno 7974 bound_to 7965
  154.8661  140.2951  155.5509 H   0  0  0  0  0  0  0  0  0  0  0  0  # atno 8008 bound_to 7997
  156.3021  140.2469  156.3575 H   0  0  0  0  0  0  0  0  0  0  0  0  # atno 8009 bound_to 7997
  154.8867  140.0396  157.1803 H   0  0  0  0  0  0  0  0  0  0  0  0  # atno 8010 bound_to 7997
  140.0013  143.5538  152.2302 H   0  0  0  0  0  0  0  0  0  0  0  0  # atno 10167 bound_to 10162
  156.1536  130.4151  149.9905 H   0  0  0  0  0  0  0  0  0  0  0  0  # atno 10718 bound_to 10713
  154.2588  135.2769  155.2786 H   0  0  0  0  0  0  0  0  0  0  0  0  # atno 10763 bound_to 10752
  154.5402  135.5705  153.6836 H   0  0  0  0  0  0  0  0  0  0  0  0  # atno 10764 bound_to 10752
  152.9966  135.6249  154.2738 H   0  0  0  0  0  0  0  0  0  0  0  0  # atno 10765 bound_to 10752
  140.5424  134.0362  155.7908 H   0  0  0  0  0  0  0  0  0  0  0  0  # atno 11005 bound_to 11000
  144.7552  139.7092  143.7257 LP  0  0  0  0  0  0  0  0  0  0  0  0  # atno 17320 bound_to 7965
  146.1948  139.5208  142.9781 LP  0  0  0  0  0  0  0  0  0  0  0  0  # atno 17321 bound_to 7965
  139.6270  144.7638  151.2618 LP  0  0  0  0  0  0  0  0  0  0  0  0  # atno 17342 bound_to 10162
  140.7418  143.6547  150.8217 LP  0  0  0  0  0  0  0  0  0  0  0  0  # atno 17343 bound_to 10162
  156.7755  130.9202  151.3645 LP  0  0  0  0  0  0  0  0  0  0  0  0  # atno 17370 bound_to 10713
  157.6677  130.9022  149.9969 LP  0  0  0  0  0  0  0  0  0  0  0  0  # atno 17371 bound_to 10713
  141.1220  133.9446  157.2711 LP  0  0  0  0  0  0  0  0  0  0  0  0  # atno 17394 bound_to 11000
  139.9497  135.0177  156.8958 LP  0  0  0  0  0  0  0  0  0  0  0  0  # atno 17395 bound_to 11000

$$$$
