AV-unprocessed.smi:114|AV-procd|sdf|1118|dock8
  -GOLD-   2262018243D 1   1.00000     0.00000
 Structure written by MMmdl.
 32 34  0  0  0  0  0  0  0  0  1 V2000
  151.0917  134.4259  155.3525 N   0  0  0  0  0  0  0  0  0  0  0  0
  150.7788  135.7105  155.1315 C   0  0  0  0  0  0  0  0  0  0  0  0
  151.7733  136.5692  154.8068 N   0  0  0  0  0  0  0  0  0  0  0  0
  151.5037  137.8603  154.5781 C   0  0  0  0  0  0  0  0  0  0  0  0
  152.5576  138.6476  154.2580 F   0  0  0  0  0  0  0  0  0  0  0  0
  150.3097  138.4600  154.6297 N   0  0  0  0  0  0  0  0  0  0  0  0
  149.3033  137.5983  154.9558 C   0  0  0  0  0  0  0  0  0  0  0  0
  149.4570  136.2112  155.2219 C   0  0  0  0  0  0  0  0  0  0  0  0
  148.2248  135.6459  155.5214 N   0  0  0  0  0  0  0  0  0  0  0  0
  147.3917  136.6484  155.4364 C   0  0  0  0  0  0  0  0  0  0  0  0
  147.9545  137.8590  155.0958 N   0  0  0  0  0  0  0  0  0  0  0  0
  147.2553  139.1711  154.9173 C   0  0  1  0  0  0  0  0  0  0  0  0
  147.8963  140.1257  155.7028 O   0  0  0  0  0  0  0  0  0  0  0  0
  147.8574  141.3806  155.0336 C   0  0  1  0  0  0  0  0  0  0  0  0
  148.9108  142.3457  155.6059 C   0  0  0  0  0  0  0  0  0  0  0  0
  148.7644  142.4500  157.0065 O   0  0  0  0  0  0  0  0  0  0  0  0
  148.0398  140.9955  153.5577 C   0  0  1  0  0  0  0  0  0  0  0  0
  149.4118  140.8560  153.2308 O   0  0  0  0  0  0  0  0  0  0  0  0
  147.2728  139.6777  153.4591 C   0  0  1  0  0  0  0  0  0  0  0  0
  147.8040  138.7800  152.4972 O   0  0  0  0  0  0  0  0  0  0  0  0
  146.2446  138.9969  155.2885 H   0  0  0  0  0  0  0  0  0  0  0  0
  146.8573  141.8032  155.1517 H   0  0  0  0  0  0  0  0  0  0  0  0
  147.6175  141.7503  152.8937 H   0  0  0  0  0  0  0  0  0  0  0  0
  146.2376  139.8891  153.1879 H   0  0  0  0  0  0  0  0  0  0  0  0
  150.3665  133.7666  155.5963 H   0  0  0  0  0  0  0  0  0  0  0  0
  152.0510  134.1202  155.2757 H   0  0  0  0  0  0  0  0  0  0  0  0
  146.3331  136.5302  155.6169 H   0  0  0  0  0  0  0  0  0  0  0  0
  149.9222  142.0247  155.3533 H   0  0  0  0  0  0  0  0  0  0  0  0
  148.7719  143.3442  155.1902 H   0  0  0  0  0  0  0  0  0  0  0  0
  148.8797  143.3548  157.2531 H   0  0  0  0  0  0  0  0  0  0  0  0
  149.4855  140.2479  152.5109 H   0  0  0  0  0  0  0  0  0  0  0  0
  148.2819  139.2792  151.8527 H   0  0  0  0  0  0  0  0  0  0  0  0
  1  2  1  0  0  0  0
  1 25  1  0  0  0  0
  1 26  1  0  0  0  0
  2  8  1  0  0  0  0
  2  3  2  0  0  0  0
  3  4  1  0  0  0  0
  4  5  1  0  0  0  0
  4  6  2  0  0  0  0
  6  7  1  0  0  0  0
  7 11  1  0  0  0  0
  7  8  2  0  0  0  0
  8  9  1  0  0  0  0
  9 10  2  0  0  0  0
 10 11  1  0  0  0  0
 10 27  1  0  0  0  0
 11 12  1  0  0  0  0
 12 21  1  0  0  0  0
 12 19  1  0  0  0  0
 12 13  1  0  0  0  0
 13 14  1  0  0  0  0
 14 22  1  0  0  0  0
 14 15  1  0  0  0  0
 14 17  1  0  0  0  0
 15 16  1  0  0  0  0
 15 28  1  0  0  0  0
 15 29  1  0  0  0  0
 16 30  1  0  0  0  0
 17 23  1  0  0  0  0
 17 18  1  0  0  0  0
 17 19  1  0  0  0  0
 18 31  1  0  0  0  0
 19 24  1  0  0  0  0
 19 20  1  0  0  0  0
 20 32  1  0  0  0  0
M  END
> <s_m_source_file>
AV-unprocessed.smi

> <i_m_source_file_index>
114

> <i_lp_mmshare_version>
43012

> <i_f3d_flags>
0

> <s_epik_input>
RmMobjEpbmMoW05IMl0pYyhjMTIpbltjSF1uMltDQEBIXTNPW0NASF0oW0NIMl1bT0hdKVtDQEBIXShbT0hdKVtDQEBIXTNbT0hd

> <s_epik_cmdline>
J2VwaWtfcHl0aG9uJywgJy1waCcsICc3LjAnLCAnLXRuJywgJzgnLCAnLW1hJywgJzIwMCcsICctbWV0YWxfYmluZGluZycsICctaW1hZScsICc8aW5maWxlLm1hZT4nLCAnLW9tYWUnLCAnPG91dGZpbGUubWFlPic=

> <r_lp_tautomer_probability>
1

> <r_epik_Ionization_Penalty>
1.13199e-05

> <r_epik_Ionization_Penalty_Charging>
0

> <r_epik_Ionization_Penalty_Neutral>
1.13199e-05

> <r_epik_State_Penalty>
-0

> <r_epik_Charging_Adjusted_Penalty>
0

> <i_epik_Tot_Q>
0

> <i_epik_Tot_abs_Q>
0

> <r_epik_Metal_State_Penalty>
-0

> <b_epik_Metal_Only>
0

> <s_epik_Chemistry_Notes>
This compound contains an acetal/aminal-like group ( X-CH(R)-Y where X, Y are N, S, or O) that may be acid/base labile, releasing an aldehyde.

> <s_lp_Force_Field>
OPLS_2005

> <r_lp_Energy>
48.1785

> <b_lp_Chiralities_Consistent>
1

> <s_lp_Variant>
AV-unprocessed.smi:114-12

> <Gold.Version>
5.8.1

> <Gold.Id.Protein>
6NUR|6NUR_protein|mol2

> <Gold.PLP.Fitness>
34.0865

> <Gold.PLP.PLP>
-21.7978

> <Gold.PLP.part.hbond>
-6.2375

> <Gold.PLP.part.metal>
0.0000

> <Gold.PLP.part.buried>
0.5319

> <Gold.PLP.part.nonpolar>
-17.3059

> <Gold.PLP.part.repulsive>
0.4332

> <Gold.PLP.ligand.clash>
0.0000

> <Gold.PLP.ligand.torsion>
0.1364

> <Gold.PLP.Chemscore.Hbond>
4.1864

> <Gold.PLP.Chemscore.CHOScore>
0.0000

> <Gold.PLP.Chemscore.Metal>
0.0000

> <Gold.Chemscore.Hbonds>
donor molecule, donor type, donor heavy atom, donor atom, acceptor molecule, acceptor atom, score
      L1  H    16    30       P1  8028  0.28
      L1  H    18    31       P1  7957  0.58
      L1  H    20    32       P1  7957  1.00
      P1  H  7989  7998       L1    18  0.07
      P1  H  8011  8017       L1    18  0.90
      P1  H 10752 10764       L1     3  1.00

> <Gold.PLP.Chemscore.Internal.Correction>
0.0024

> <Gold.Rescore>
     Score         DG    S(hbond)    S(metal)    S(lipo)     H(rot)  DE(clash)    DE(int)     intcor
      6.59      -8.40       2.96        0.00      28.44       4.03       1.70       0.11       ----

> <Gold.Chemscore.Fitness>
6.5905

> <Gold.Chemscore.DG>
-8.3975

> <Gold.Chemscore.ZeroCoef>
-5.4800

> <Gold.Chemscore.Hbond>
2.9644

> <Gold.Chemscore.Metal>
0.0000

> <Gold.Chemscore.Lipo>
28.4377

> <Gold.Chemscore.Internal_Hbond>
0.0000

> <Gold.Chemscore.DEClash>
1.6965

> <Gold.Chemscore.DEInternal>
0.1105

> <Gold.Chemscore.Rot>
4.0277

> <Gold.Chemscore.Internal.Correction>
   9.000000E+99

> <Gold.Chemscore.Hbonds>
donor molecule, donor type, donor heavy atom, donor atom, acceptor molecule, acceptor atom, score
      L1  H    16    30       P1  8028  0.12
      L1  H    18    31       P1  7957  0.56
      L1  H    20    32       P1  7957  0.98
      P1  H  8011  8017       L1    18  0.08
      P1  H 10752 10764       L1     3  0.24

> <Gold.Chemscore.Hbond.Weighted>
-9.9013

> <Gold.Chemscore.Metal.Weighted>
-0.0000

> <Gold.Chemscore.Lipo.Weighted>
-3.3272

> <Gold.Chemscore.Internal_Hbond.Weighted>
0.0000

> <Gold.Chemscore.DEClash.Weighted>
1.6965

> <Gold.Chemscore.DEInternal.Weighted>
0.1105

> <Gold.Chemscore.Rot.Weighted>
10.3110

> <Gold.Chemscore.Internal.Correction.Weighted>
   9.000000E+99

> <Gold.Protein.RotatedTorsions>
[ 6907 6896 6895 6894 ] final   59.77 input  -60.11 | X-H torsion
[ 7974 7965 7964 7962 ] final  -42.41 input  175.53 | X-H torsion
[ 8008 7997 7996 7995 ] final  149.30 input   59.86 | X-H torsion
[ 10167 10162 10161 10158 ] final   99.77 input  -65.29 | X-H torsion
[ 10718 10713 10712 10709 ] final -114.31 input   66.30 | X-H torsion
[ 10763 10752 10751 10750 ] final  -52.63 input  -60.55 | X-H torsion
[ 11005 11000 10999 10996 ] final  158.92 input  -57.11 | X-H torsion

> <Gold.Protein.ActiveResidues>
 VAL166  LYS551  ARG553  GLY616  TRP617  ASP618  TYR619  PRO620  LYS621  CYS622 
 ASP623  PHE694  ASN695  SER759  ASP760  ASP761  ALA762  ILE779  LEU786  VAL792 
 PHE793  MET794  SER795  GLU796  ALA797  LYS798  CYS799  TRP800  GLU811  SER814 

> <Gold.Protein.RotatedAtoms>
  152.3944  134.6389  160.0094 H   0  0  0  0  0  0  0  0  0  0  0  0  # atno 6907 bound_to 6896
  151.6613  133.3311  159.3183 H   0  0  0  0  0  0  0  0  0  0  0  0  # atno 6908 bound_to 6896
  150.7854  134.6878  159.6524 H   0  0  0  0  0  0  0  0  0  0  0  0  # atno 6909 bound_to 6896
  146.0118  140.6955  142.9221 H   0  0  0  0  0  0  0  0  0  0  0  0  # atno 7974 bound_to 7965
  156.2760  140.2105  156.5836 H   0  0  0  0  0  0  0  0  0  0  0  0  # atno 8008 bound_to 7997
  154.7039  140.0518  157.0508 H   0  0  0  0  0  0  0  0  0  0  0  0  # atno 8009 bound_to 7997
  155.0698  140.3175  155.4637 H   0  0  0  0  0  0  0  0  0  0  0  0  # atno 8010 bound_to 7997
  139.7587  144.6961  151.0324 H   0  0  0  0  0  0  0  0  0  0  0  0  # atno 10167 bound_to 10162
  156.0822  130.6020  150.8758 H   0  0  0  0  0  0  0  0  0  0  0  0  # atno 10718 bound_to 10713
  154.1458  135.6498  153.4952 H   0  0  0  0  0  0  0  0  0  0  0  0  # atno 10763 bound_to 10752
  153.0152  135.5326  154.6858 H   0  0  0  0  0  0  0  0  0  0  0  0  # atno 10764 bound_to 10752
  154.6132  135.2956  155.0380 H   0  0  0  0  0  0  0  0  0  0  0  0  # atno 10765 bound_to 10752
  140.1911  134.8406  157.2913 H   0  0  0  0  0  0  0  0  0  0  0  0  # atno 11005 bound_to 11000
  144.6956  140.3412  143.7199 LP  0  0  0  0  0  0  0  0  0  0  0  0  # atno 17320 bound_to 7965
  145.7330  139.1742  143.2419 LP  0  0  0  0  0  0  0  0  0  0  0  0  # atno 17321 bound_to 7965
  140.7805  143.4723  151.0130 LP  0  0  0  0  0  0  0  0  0  0  0  0  # atno 17342 bound_to 10162
  139.8409  143.7565  152.3180 LP  0  0  0  0  0  0  0  0  0  0  0  0  # atno 17343 bound_to 10162
  157.5943  131.0943  150.9067 LP  0  0  0  0  0  0  0  0  0  0  0  0  # atno 17370 bound_to 10713
  156.9237  130.5324  149.5279 LP  0  0  0  0  0  0  0  0  0  0  0  0  # atno 17371 bound_to 10713
  140.2158  134.4083  155.7590 LP  0  0  0  0  0  0  0  0  0  0  0  0  # atno 17394 bound_to 11000
  141.2226  133.7141  156.8411 LP  0  0  0  0  0  0  0  0  0  0  0  0  # atno 17395 bound_to 11000

$$$$
