AV-unprocessed.smi:249|AV-procd|sdf|1916|dock3
  -GOLD-   2262021 13D 1   1.00000     0.00000
 Structure written by MMmdl.
 64 67  0  0  0  0  0  0  0  0  2 V2000
  143.2174  132.9002  151.2937 C   0  0  0  0  0  0  0  0  0  0  0  0
  144.3751  133.7192  151.8853 C   0  0  0  0  0  0  0  0  0  0  0  0
  144.2554  133.9252  153.3590 N   0  3  2  0  0  0  0  0  0  0  0  0
  143.5218  135.1648  153.7425 C   0  0  0  0  0  0  0  0  0  0  0  0
  144.3624  136.4327  153.4971 C   0  0  0  0  0  0  0  0  0  0  0  0
  145.7120  136.3458  154.2365 C   0  0  2  0  0  0  0  0  0  0  0  0
  146.5423  137.5387  154.0340 N   0  0  0  0  0  0  0  0  0  0  0  0
  146.1273  138.5614  153.0740 C   0  0  0  0  0  0  0  0  0  0  0  0
  147.2035  137.9746  155.1373 C   0  0  0  0  0  0  0  0  0  0  0  0
  147.6381  137.0762  156.0612 N   0  0  0  0  0  0  0  0  0  0  0  0
  148.3089  137.4892  157.1405 C   0  0  0  0  0  0  0  0  0  0  0  0
  148.6518  138.7317  157.4843 N   0  0  0  0  0  0  0  0  0  0  0  0
  148.2157  139.6387  156.5644 C   0  0  0  0  0  0  0  0  0  0  0  0
  147.4853  139.3493  155.3774 C   0  0  0  0  0  0  0  0  0  0  0  0
  147.1953  140.5285  154.7006 N   0  0  0  0  0  0  0  0  0  0  0  0
  147.7321  141.4605  155.4398 C   0  0  0  0  0  0  0  0  0  0  0  0
  148.3887  141.0123  156.5640 N   0  0  0  0  0  0  0  0  0  0  0  0
  149.0669  141.8321  157.5526 C   0  0  0  0  0  0  0  0  0  0  0  0
  150.4268  142.4303  157.0934 C   0  0  2  0  0  0  0  0  0  0  0  0
  151.3045  141.2958  156.5106 C   0  0  0  0  0  0  0  0  0  0  0  0
  150.8248  140.8660  155.2529 O   0  0  0  0  0  0  0  0  0  0  0  0
  151.1797  143.2049  158.2177 C   0  0  2  0  0  0  0  0  0  0  0  0
  150.3174  144.0599  159.1365 C   0  0  0  0  0  0  0  0  0  0  0  0
  151.3197  145.0307  159.7516 C   0  0  0  0  0  0  0  0  0  0  0  0
  152.3556  145.1841  158.7916 O   0  0  0  0  0  0  0  0  0  0  0  0
  152.1462  144.2842  157.7109 C   0  0  0  0  0  0  0  0  0  0  0  0
  146.4444  135.0409  153.8675 C   0  0  0  0  0  0  0  0  0  0  0  0
  145.5370  133.8193  154.1226 C   0  0  2  0  0  0  0  0  0  0  0  0
  146.2724  132.4834  153.9130 C   0  0  0  0  0  0  0  0  0  0  0  0
  143.4261  132.6428  150.2550 H   0  0  0  0  0  0  0  0  0  0  0  0
  142.2773  133.4506  151.2992 H   0  0  0  0  0  0  0  0  0  0  0  0
  143.0712  131.9677  151.8397 H   0  0  0  0  0  0  0  0  0  0  0  0
  145.2849  133.1648  151.6644 H   0  0  0  0  0  0  0  0  0  0  0  0
  144.4654  134.6713  151.3630 H   0  0  0  0  0  0  0  0  0  0  0  0
  142.5646  135.2368  153.2292 H   0  0  0  0  0  0  0  0  0  0  0  0
  143.2746  135.1010  154.8032 H   0  0  0  0  0  0  0  0  0  0  0  0
  144.5174  136.5738  152.4275 H   0  0  0  0  0  0  0  0  0  0  0  0
  143.8068  137.3062  153.8405 H   0  0  0  0  0  0  0  0  0  0  0  0
  145.4749  136.2671  155.2970 H   0  0  0  0  0  0  0  0  0  0  0  0
  146.9225  139.2921  152.9205 H   0  0  0  0  0  0  0  0  0  0  0  0
  145.2411  139.0916  153.4237 H   0  0  0  0  0  0  0  0  0  0  0  0
  145.9029  138.1248  152.1021 H   0  0  0  0  0  0  0  0  0  0  0  0
  148.6188  136.7129  157.8246 H   0  0  0  0  0  0  0  0  0  0  0  0
  147.6758  142.5064  155.1753 H   0  0  0  0  0  0  0  0  0  0  0  0
  148.3952  142.6363  157.8554 H   0  0  0  0  0  0  0  0  0  0  0  0
  149.2030  141.2047  158.4337 H   0  0  0  0  0  0  0  0  0  0  0  0
  150.2410  143.1333  156.2808 H   0  0  0  0  0  0  0  0  0  0  0  0
  152.3301  141.6240  156.3498 H   0  0  0  0  0  0  0  0  0  0  0  0
  151.3432  140.4460  157.1928 H   0  0  0  0  0  0  0  0  0  0  0  0
  150.3954  140.0315  155.3634 H   0  0  0  0  0  0  0  0  0  0  0  0
  151.7447  142.4982  158.8274 H   0  0  0  0  0  0  0  0  0  0  0  0
  149.5731  144.6090  158.5577 H   0  0  0  0  0  0  0  0  0  0  0  0
  149.8004  143.4946  159.9092 H   0  0  0  0  0  0  0  0  0  0  0  0
  150.8652  145.9891  160.0038 H   0  0  0  0  0  0  0  0  0  0  0  0
  151.7506  144.6097  160.6607 H   0  0  0  0  0  0  0  0  0  0  0  0
  153.0965  143.8728  157.3700 H   0  0  0  0  0  0  0  0  0  0  0  0
  151.7022  144.8414  156.8845 H   0  0  0  0  0  0  0  0  0  0  0  0
  146.7613  135.0494  152.8251 H   0  0  0  0  0  0  0  0  0  0  0  0
  147.3534  134.9559  154.4644 H   0  0  0  0  0  0  0  0  0  0  0  0
  145.2579  133.8367  155.1776 H   0  0  0  0  0  0  0  0  0  0  0  0
  147.0732  132.3695  154.6442 H   0  0  0  0  0  0  0  0  0  0  0  0
  146.7339  132.4151  152.9279 H   0  0  0  0  0  0  0  0  0  0  0  0
  145.5973  131.6358  154.0344 H   0  0  0  0  0  0  0  0  0  0  0  0
  143.6854  133.1574  153.6841 H   0  0  0  0  0  0  0  0  0  0  0  0
  1  2  1  0  0  0  0
  1 30  1  0  0  0  0
  1 31  1  0  0  0  0
  1 32  1  0  0  0  0
  2  3  1  0  0  0  0
  2 33  1  0  0  0  0
  2 34  1  0  0  0  0
  3 28  1  0  0  0  0
  3  4  1  0  0  0  0
  3 64  1  0  0  0  0
  4  5  1  0  0  0  0
  4 35  1  0  0  0  0
  4 36  1  0  0  0  0
  5  6  1  0  0  0  0
  5 37  1  0  0  0  0
  5 38  1  0  0  0  0
  6  7  1  0  0  0  0
  6 27  1  0  0  0  0
  6 39  1  0  0  0  0
  7  8  1  0  0  0  0
  7  9  1  0  0  0  0
  8 40  1  0  0  0  0
  8 41  1  0  0  0  0
  8 42  1  0  0  0  0
  9 14  1  0  0  0  0
  9 10  2  0  0  0  0
 10 11  1  0  0  0  0
 11 12  2  0  0  0  0
 11 43  1  0  0  0  0
 12 13  1  0  0  0  0
 13 17  1  0  0  0  0
 13 14  2  0  0  0  0
 14 15  1  0  0  0  0
 15 16  2  0  0  0  0
 16 17  1  0  0  0  0
 16 44  1  0  0  0  0
 17 18  1  0  0  0  0
 18 19  1  0  0  0  0
 18 45  1  0  0  0  0
 18 46  1  0  0  0  0
 19 20  1  0  0  0  0
 19 22  1  0  0  0  0
 19 47  1  0  0  0  0
 20 21  1  0  0  0  0
 20 48  1  0  0  0  0
 20 49  1  0  0  0  0
 21 50  1  0  0  0  0
 22 26  1  0  0  0  0
 22 23  1  0  0  0  0
 22 51  1  0  0  0  0
 23 24  1  0  0  0  0
 23 52  1  0  0  0  0
 23 53  1  0  0  0  0
 24 25  1  0  0  0  0
 24 54  1  0  0  0  0
 24 55  1  0  0  0  0
 25 26  1  0  0  0  0
 26 56  1  0  0  0  0
 26 57  1  0  0  0  0
 27 28  1  0  0  0  0
 27 58  1  0  0  0  0
 27 59  1  0  0  0  0
 28 29  1  0  0  0  0
 28 60  1  0  0  0  0
 29 61  1  0  0  0  0
 29 62  1  0  0  0  0
 29 63  1  0  0  0  0
M  CHG  1   3   1
M  END
> <s_m_source_file>
AV-unprocessed.smi

> <i_m_source_file_index>
249

> <i_lp_mmshare_version>
43012

> <i_f3d_flags>
0

> <s_epik_input>
W0NIM11bQ0gyXU4xW0NIMl1bQ0gyXVtDQEhdKFtDSDJdW0NASF0xW0NIM10pTihbQ0gzXSljKG5bY0hdbjIpYyhjMjMpbltjSF1uM1tDSDJdW0NASF0oW0NIMl1bT0hdKVtDQEBIXTRbQ0gyXVtDSDJdT1tDSDJdNA==

> <s_epik_cmdline>
J2VwaWtfcHl0aG9uJywgJy1waCcsICc3LjAnLCAnLXRuJywgJzgnLCAnLW1hJywgJzIwMCcsICctbWV0YWxfYmluZGluZycsICctaW1hZScsICc8aW5maWxlLm1hZT4nLCAnLW9tYWUnLCAnPG91dGZpbGUubWFlPic=

> <r_lp_tautomer_probability>
1

> <r_epik_Ionization_Penalty>
0.00294688

> <r_epik_Ionization_Penalty_Charging>
0.00169971

> <r_epik_Ionization_Penalty_Neutral>
0.00124717

> <r_epik_State_Penalty>
-0

> <r_epik_Charging_Adjusted_Penalty>
0.00169971

> <i_epik_Tot_Q>
1

> <i_epik_Tot_abs_Q>
1

> <r_epik_Metal_State_Penalty>
-0

> <b_epik_Metal_Only>
0

> <s_lp_Force_Field>
OPLS_2005

> <r_lp_Energy>
55.1027

> <b_lp_Chiralities_Consistent>
1

> <s_lp_Variant>
AV-unprocessed.smi:249-19

> <Gold.Version>
5.8.1

> <Gold.Id.Protein>
6NUR|6NUR_protein|mol2

> <Gold.PLP.Fitness>
43.8299

> <Gold.PLP.PLP>
-34.8562

> <Gold.PLP.part.hbond>
-2.0000

> <Gold.PLP.part.metal>
0.0000

> <Gold.PLP.part.buried>
-7.4967

> <Gold.PLP.part.nonpolar>
-26.3051

> <Gold.PLP.part.repulsive>
0.1588

> <Gold.PLP.ligand.clash>
0.0000

> <Gold.PLP.ligand.torsion>
1.7381

> <Gold.PLP.Chemscore.Hbond>
2.8305

> <Gold.PLP.Chemscore.CHOScore>
0.8940

> <Gold.PLP.Chemscore.Metal>
0.0000

> <Gold.Chemscore.Hbonds>
donor molecule, donor type, donor heavy atom, donor atom, acceptor molecule, acceptor atom, score
      L1  H     3    64       P1 10957  1.95
      P1  H  7989  7998       L1    21  0.78
      L1  C    16    44       P1  8028  0.97

> <Gold.PLP.Chemscore.Internal.Correction>
1.2763

> <Gold.Rescore>
     Score         DG    S(hbond)    S(metal)    S(lipo)     H(rot)  DE(clash)    DE(int)     intcor
     11.24     -16.07       1.83        0.00      96.37       2.65       0.35       4.48       ----

> <Gold.Chemscore.Fitness>
11.2395

> <Gold.Chemscore.DG>
-16.0712

> <Gold.Chemscore.ZeroCoef>
-5.4800

> <Gold.Chemscore.Hbond>
1.8274

> <Gold.Chemscore.Metal>
0.0000

> <Gold.Chemscore.Lipo>
96.3727

> <Gold.Chemscore.Internal_Hbond>
0.0000

> <Gold.Chemscore.DEClash>
0.3548

> <Gold.Chemscore.DEInternal>
4.4768

> <Gold.Chemscore.Rot>
2.6515

> <Gold.Chemscore.Internal.Correction>
   9.000000E+99

> <Gold.Chemscore.Hbonds>
donor molecule, donor type, donor heavy atom, donor atom, acceptor molecule, acceptor atom, score
      L1  H     3    64       P1 10957  0.88
      P1  H  7989  7998       L1    21  0.50

> <Gold.Chemscore.Hbond.Weighted>
-6.1035

> <Gold.Chemscore.Metal.Weighted>
-0.0000

> <Gold.Chemscore.Lipo.Weighted>
-11.2756

> <Gold.Chemscore.Internal_Hbond.Weighted>
0.0000

> <Gold.Chemscore.DEClash.Weighted>
0.3548

> <Gold.Chemscore.DEInternal.Weighted>
4.4768

> <Gold.Chemscore.Rot.Weighted>
6.7880

> <Gold.Chemscore.Internal.Correction.Weighted>
   9.000000E+99

> <Gold.Protein.RotatedTorsions>
[ 6907 6896 6895 6894 ] final  -91.32 input  -60.11 | X-H torsion
[ 7974 7965 7964 7962 ] final  -31.97 input  175.53 | X-H torsion
[ 8008 7997 7996 7995 ] final  -13.76 input   59.86 | X-H torsion
[ 10167 10162 10161 10158 ] final   28.97 input  -65.29 | X-H torsion
[ 10718 10713 10712 10709 ] final  -29.12 input   66.30 | X-H torsion
[ 10763 10752 10751 10750 ] final    2.45 input  -60.55 | X-H torsion
[ 11005 11000 10999 10996 ] final  136.66 input  -57.11 | X-H torsion

> <Gold.Protein.ActiveResidues>
 VAL166  LYS551  ARG553  GLY616  TRP617  ASP618  TYR619  PRO620  LYS621  CYS622 
 ASP623  PHE694  ASN695  SER759  ASP760  ASP761  ALA762  ILE779  LEU786  VAL792 
 PHE793  MET794  SER795  GLU796  ALA797  LYS798  CYS799  TRP800  GLU811  SER814 

> <Gold.Protein.RotatedAtoms>
  150.6891  134.2295  159.4428 H   0  0  0  0  0  0  0  0  0  0  0  0  # atno 6907 bound_to 6896
  152.0246  134.9800  160.0580 H   0  0  0  0  0  0  0  0  0  0  0  0  # atno 6908 bound_to 6896
  152.1364  133.4403  159.4782 H   0  0  0  0  0  0  0  0  0  0  0  0  # atno 6909 bound_to 6896
  146.1026  140.5734  142.8814 H   0  0  0  0  0  0  0  0  0  0  0  0  # atno 7974 bound_to 7965
  154.5266  140.2241  155.8880 H   0  0  0  0  0  0  0  0  0  0  0  0  # atno 8008 bound_to 7997
  156.1719  140.3120  155.8954 H   0  0  0  0  0  0  0  0  0  0  0  0  # atno 8009 bound_to 7997
  155.3539  140.0457  157.3037 H   0  0  0  0  0  0  0  0  0  0  0  0  # atno 8010 bound_to 7997
  140.4806  144.0621  150.6264 H   0  0  0  0  0  0  0  0  0  0  0  0  # atno 10167 bound_to 10162
  156.4165  130.4418  149.7214 H   0  0  0  0  0  0  0  0  0  0  0  0  # atno 10718 bound_to 10713
  153.2954  135.6952  153.7253 H   0  0  0  0  0  0  0  0  0  0  0  0  # atno 10763 bound_to 10752
  153.6188  135.3431  155.3004 H   0  0  0  0  0  0  0  0  0  0  0  0  # atno 10764 bound_to 10752
  154.8536  135.4381  154.2049 H   0  0  0  0  0  0  0  0  0  0  0  0  # atno 10765 bound_to 10752
  140.0061  134.9458  157.0177 H   0  0  0  0  0  0  0  0  0  0  0  0  # atno 11005 bound_to 11000
  144.7445  140.5031  143.6845 LP  0  0  0  0  0  0  0  0  0  0  0  0  # atno 17320 bound_to 7965
  145.5824  139.1490  143.3228 LP  0  0  0  0  0  0  0  0  0  0  0  0  # atno 17321 bound_to 7965
  140.3862  143.2776  152.0113 LP  0  0  0  0  0  0  0  0  0  0  0  0  # atno 17342 bound_to 10162
  139.4833  144.6114  151.7426 LP  0  0  0  0  0  0  0  0  0  0  0  0  # atno 17343 bound_to 10162
  156.4172  130.7751  151.2766 LP  0  0  0  0  0  0  0  0  0  0  0  0  # atno 17370 bound_to 10713
  157.7508  131.0194  150.3664 LP  0  0  0  0  0  0  0  0  0  0  0  0  # atno 17371 bound_to 10713
  140.4639  134.1456  155.7194 LP  0  0  0  0  0  0  0  0  0  0  0  0  # atno 17394 bound_to 11000
  141.1678  133.8669  157.1664 LP  0  0  0  0  0  0  0  0  0  0  0  0  # atno 17395 bound_to 11000

$$$$
