AV-unprocessed.smi:3068|AV-procd|sdf|11708|dock7
  -GOLD-   2272017113D 1   1.00000     0.00000
 Structure written by MMmdl.
 39 41  0  0  0  0  0  0  0  0  1 V2000
  153.3653  138.8849  155.5081 N   0  0  0  0  0  0  0  0  0  0  0  0
  152.2461  139.1782  155.4852 C   0  0  0  0  0  0  0  0  0  0  0  0
  150.8365  139.5479  155.4561 C   0  0  0  0  0  0  0  0  0  0  0  0
  150.3817  140.1161  154.3152 N   0  0  0  0  0  0  0  0  0  0  0  0
  149.0777  140.4628  154.2743 C   0  0  0  0  0  0  0  0  0  0  0  0
  148.2219  140.2443  155.3711 C   0  0  0  0  0  0  0  0  0  0  0  0
  148.6674  139.6796  156.5130 N   0  0  0  0  0  0  0  0  0  0  0  0
  149.9756  139.3241  156.5677 C   0  0  0  0  0  0  0  0  0  0  0  0
  150.4563  138.7365  157.7529 N   0  0  0  0  0  0  0  0  0  0  0  0
  151.0577  139.5333  158.8160 C   0  0  0  0  0  0  0  0  0  0  0  0
  152.2900  140.3279  158.3325 C   0  0  2  0  0  0  0  0  0  0  0  0
  153.0103  141.0660  159.4767 C   0  0  0  0  0  0  0  0  0  0  0  0
  152.2618  142.2169  159.9672 N   0  0  0  0  0  0  0  0  0  0  0  0
  152.9884  142.8993  161.0372 C   0  0  0  0  0  0  0  0  0  0  0  0
  152.2131  144.1000  161.6010 C   0  0  0  0  0  0  0  0  0  0  0  0
  151.8759  145.0890  160.4767 C   0  0  0  0  0  0  0  0  0  0  0  0
  151.1572  144.3585  159.3322 C   0  0  0  0  0  0  0  0  0  0  0  0
  151.9671  143.1320  158.8612 C   0  0  2  0  0  0  0  0  0  0  0  0
  151.2236  142.4023  157.7250 C   0  0  0  0  0  0  0  0  0  0  0  0
  151.9597  141.2583  157.2992 O   0  0  0  0  0  0  0  0  0  0  0  0
  148.7156  140.9165  153.3637 H   0  0  0  0  0  0  0  0  0  0  0  0
  147.1794  140.5233  155.3325 H   0  0  0  0  0  0  0  0  0  0  0  0
  150.2019  137.7820  157.9635 H   0  0  0  0  0  0  0  0  0  0  0  0
  150.2972  140.2041  159.2139 H   0  0  0  0  0  0  0  0  0  0  0  0
  151.3339  138.8829  159.6464 H   0  0  0  0  0  0  0  0  0  0  0  0
  153.0019  139.6227  157.9031 H   0  0  0  0  0  0  0  0  0  0  0  0
  153.2041  140.3715  160.2950 H   0  0  0  0  0  0  0  0  0  0  0  0
  153.9867  141.3965  159.1187 H   0  0  0  0  0  0  0  0  0  0  0  0
  153.1924  142.1973  161.8467 H   0  0  0  0  0  0  0  0  0  0  0  0
  153.9590  143.2356  160.6695 H   0  0  0  0  0  0  0  0  0  0  0  0
  151.2945  143.7526  162.0757 H   0  0  0  0  0  0  0  0  0  0  0  0
  152.7978  144.5958  162.3761 H   0  0  0  0  0  0  0  0  0  0  0  0
  151.2559  145.9008  160.8581 H   0  0  0  0  0  0  0  0  0  0  0  0
  152.7933  145.5443  160.1013 H   0  0  0  0  0  0  0  0  0  0  0  0
  150.1694  144.0410  159.6695 H   0  0  0  0  0  0  0  0  0  0  0  0
  150.9948  145.0456  158.5012 H   0  0  0  0  0  0  0  0  0  0  0  0
  152.9121  143.4956  158.4533 H   0  0  0  0  0  0  0  0  0  0  0  0
  150.2215  142.1092  158.0391 H   0  0  0  0  0  0  0  0  0  0  0  0
  151.0973  143.0664  156.8697 H   0  0  0  0  0  0  0  0  0  0  0  0
  1  2  3  0  0  0  0
  2  3  1  0  0  0  0
  3  8  1  0  0  0  0
  3  4  2  0  0  0  0
  4  5  1  0  0  0  0
  5  6  2  0  0  0  0
  5 21  1  0  0  0  0
  6  7  1  0  0  0  0
  6 22  1  0  0  0  0
  7  8  2  0  0  0  0
  8  9  1  0  0  0  0
  9 10  1  0  0  0  0
  9 23  1  0  0  0  0
 10 11  1  0  0  0  0
 10 24  1  0  0  0  0
 10 25  1  0  0  0  0
 11 20  1  0  0  0  0
 11 12  1  0  0  0  0
 11 26  1  0  0  0  0
 12 13  1  0  0  0  0
 12 27  1  0  0  0  0
 12 28  1  0  0  0  0
 13 18  1  0  0  0  0
 13 14  1  0  0  0  0
 14 15  1  0  0  0  0
 14 29  1  0  0  0  0
 14 30  1  0  0  0  0
 15 16  1  0  0  0  0
 15 31  1  0  0  0  0
 15 32  1  0  0  0  0
 16 17  1  0  0  0  0
 16 33  1  0  0  0  0
 16 34  1  0  0  0  0
 17 18  1  0  0  0  0
 17 35  1  0  0  0  0
 17 36  1  0  0  0  0
 18 19  1  0  0  0  0
 18 37  1  0  0  0  0
 19 20  1  0  0  0  0
 19 38  1  0  0  0  0
 19 39  1  0  0  0  0
M  END
> <s_m_source_file>
AV-unprocessed.smi

> <i_m_source_file_index>
3068

> <i_lp_mmshare_version>
43012

> <i_f3d_flags>
0

> <s_epik_input>
TiNDYzFuW2NIXVtjSF1uYzFbTkhdW0NIMl1bQ0BIXShbQ0gyXTIpT1tDSDJdW0NAQEhdKE4yMylbQ0gyXVtDSDJdW0NIMl1bQ0gyXTM=

> <s_epik_cmdline>
J2VwaWtfcHl0aG9uJywgJy1waCcsICc3LjAnLCAnLXRuJywgJzgnLCAnLW1hJywgJzIwMCcsICctbWV0YWxfYmluZGluZycsICctaW1hZScsICc8aW5maWxlLm1hZT4nLCAnLW9tYWUnLCAnPG91dGZpbGUubWFlPic=

> <r_epik_Ionization_Penalty>
1.22359

> <r_epik_Ionization_Penalty_Charging>
0

> <r_epik_Ionization_Penalty_Neutral>
1.22359

> <r_epik_State_Penalty>
1.29103

> <r_epik_Charging_Adjusted_Penalty>
1.29103

> <i_epik_Tot_Q>
0

> <i_epik_Tot_abs_Q>
0

> <r_epik_Metal_State_Penalty>
1.29103

> <b_epik_Metal_Only>
0

> <s_lp_Force_Field>
OPLS_2005

> <r_lp_Energy>
49.2937

> <b_lp_Chiralities_Consistent>
1

> <s_lp_Variant>
AV-unprocessed.smi:3068-11

> <Gold.Version>
5.8.1

> <Gold.Id.Protein>
6NUR|6NUR_protein|mol2

> <Gold.PLP.Fitness>
44.7089

> <Gold.PLP.PLP>
-37.9036

> <Gold.PLP.part.hbond>
-2.0000

> <Gold.PLP.part.metal>
0.0000

> <Gold.PLP.part.buried>
-4.8940

> <Gold.PLP.part.nonpolar>
-31.6902

> <Gold.PLP.part.repulsive>
0.1722

> <Gold.PLP.ligand.clash>
0.0000

> <Gold.PLP.ligand.torsion>
0.7575

> <Gold.PLP.Chemscore.Hbond>
2.0000

> <Gold.PLP.Chemscore.CHOScore>
0.7718

> <Gold.PLP.Chemscore.Metal>
0.0000

> <Gold.Chemscore.Hbonds>
donor molecule, donor type, donor heavy atom, donor atom, acceptor molecule, acceptor atom, score
      P1  H  7989  7998       L1     4  1.00
      P1  H  7997  8008       L1     1  1.00
      L1  C     5    21       P1  7957  0.77

> <Gold.PLP.Chemscore.Internal.Correction>
0.0048

> <Gold.Rescore>
     Score         DG    S(hbond)    S(metal)    S(lipo)     H(rot)  DE(clash)    DE(int)     intcor
     14.76     -19.36       1.65        0.00      99.94       1.30       0.09       4.50       ----

> <Gold.Chemscore.Fitness>
14.7614

> <Gold.Chemscore.DG>
-19.3576

> <Gold.Chemscore.ZeroCoef>
-5.4800

> <Gold.Chemscore.Hbond>
1.6519

> <Gold.Chemscore.Metal>
0.0000

> <Gold.Chemscore.Lipo>
99.9394

> <Gold.Chemscore.Internal_Hbond>
0.0000

> <Gold.Chemscore.DEClash>
0.0938

> <Gold.Chemscore.DEInternal>
4.5024

> <Gold.Chemscore.Rot>
1.3019

> <Gold.Chemscore.Internal.Correction>
   9.000000E+99

> <Gold.Chemscore.Hbonds>
donor molecule, donor type, donor heavy atom, donor atom, acceptor molecule, acceptor atom, score
      P1  H  7989  7998       L1     4  0.77
      P1  H  7997  8008       L1     1  0.85

> <Gold.Chemscore.Hbond.Weighted>
-5.5174

> <Gold.Chemscore.Metal.Weighted>
-0.0000

> <Gold.Chemscore.Lipo.Weighted>
-11.6929

> <Gold.Chemscore.Internal_Hbond.Weighted>
0.0000

> <Gold.Chemscore.DEClash.Weighted>
0.0938

> <Gold.Chemscore.DEInternal.Weighted>
4.5024

> <Gold.Chemscore.Rot.Weighted>
3.3327

> <Gold.Chemscore.Internal.Correction.Weighted>
   9.000000E+99

> <Gold.Protein.RotatedTorsions>
[ 6907 6896 6895 6894 ] final -134.22 input  -60.11 | X-H torsion
[ 7974 7965 7964 7962 ] final  147.61 input  175.53 | X-H torsion
[ 8008 7997 7996 7995 ] final  -28.55 input   59.86 | X-H torsion
[ 10167 10162 10161 10158 ] final    7.55 input  -65.29 | X-H torsion
[ 10718 10713 10712 10709 ] final -146.89 input   66.30 | X-H torsion
[ 10763 10752 10751 10750 ] final  -20.92 input  -60.55 | X-H torsion
[ 11005 11000 10999 10996 ] final -143.90 input  -57.11 | X-H torsion

> <Gold.Protein.ActiveResidues>
 VAL166  LYS551  ARG553  GLY616  TRP617  ASP618  TYR619  PRO620  LYS621  CYS622 
 ASP623  PHE694  ASN695  SER759  ASP760  ASP761  ALA762  ILE779  LEU786  VAL792 
 PHE793  MET794  SER795  GLU796  ALA797  LYS798  CYS799  TRP800  GLU811  SER814 

> <Gold.Protein.RotatedAtoms>
  150.9833  133.6223  159.2719 H   0  0  0  0  0  0  0  0  0  0  0  0  # atno 6907 bound_to 6896
  151.3470  135.0875  159.9400 H   0  0  0  0  0  0  0  0  0  0  0  0  # atno 6908 bound_to 6896
  152.5222  133.9433  159.7691 H   0  0  0  0  0  0  0  0  0  0  0  0  # atno 6909 bound_to 6896
  144.8578  139.6051  143.5944 H   0  0  0  0  0  0  0  0  0  0  0  0  # atno 7974 bound_to 7965
  154.4327  140.1842  156.1107 H   0  0  0  0  0  0  0  0  0  0  0  0  # atno 8008 bound_to 7997
  156.0220  140.3340  155.7023 H   0  0  0  0  0  0  0  0  0  0  0  0  # atno 8009 bound_to 7997
  155.5963  140.0636  157.2736 H   0  0  0  0  0  0  0  0  0  0  0  0  # atno 8010 bound_to 7997
  140.6365  143.7873  150.7367 H   0  0  0  0  0  0  0  0  0  0  0  0  # atno 10167 bound_to 10162
  156.4006  130.7932  151.2142 H   0  0  0  0  0  0  0  0  0  0  0  0  # atno 10718 bound_to 10713
  153.6280  135.6990  153.5286 H   0  0  0  0  0  0  0  0  0  0  0  0  # atno 10763 bound_to 10752
  153.2883  135.4165  155.1142 H   0  0  0  0  0  0  0  0  0  0  0  0  # atno 10764 bound_to 10752
  154.8528  135.3619  154.5822 H   0  0  0  0  0  0  0  0  0  0  0  0  # atno 10765 bound_to 10752
  140.8078  134.2780  157.4953 H   0  0  0  0  0  0  0  0  0  0  0  0  # atno 11005 bound_to 11000
  146.2836  139.6944  142.9211 LP  0  0  0  0  0  0  0  0  0  0  0  0  # atno 17320 bound_to 7965
  145.4372  141.0420  143.2877 LP  0  0  0  0  0  0  0  0  0  0  0  0  # atno 17321 bound_to 7965
  140.1495  143.4370  152.2140 LP  0  0  0  0  0  0  0  0  0  0  0  0  # atno 17342 bound_to 10162
  139.5576  144.7383  151.4250 LP  0  0  0  0  0  0  0  0  0  0  0  0  # atno 17343 bound_to 10162
  157.7503  131.0288  150.4064 LP  0  0  0  0  0  0  0  0  0  0  0  0  # atno 17370 bound_to 10713
  156.4343  130.3978  149.6739 LP  0  0  0  0  0  0  0  0  0  0  0  0  # atno 17371 bound_to 10713
  139.8716  134.9466  156.3943 LP  0  0  0  0  0  0  0  0  0  0  0  0  # atno 17394 bound_to 11000
  140.9228  133.7633  155.9928 LP  0  0  0  0  0  0  0  0  0  0  0  0  # atno 17395 bound_to 11000

$$$$
