AV-unprocessed.smi:1056|AV-procd|sdf|4640|dock5
  -GOLD-   22720 3143D 1   1.00000     0.00000
 Structure written by MMmdl.
 45 47  0  0  0  0  0  0  0  0  2 V2000
  152.1780  144.4854  160.8326 C   0  0  0  0  0  0  0  0  0  0  0  0
  152.0058  143.4188  159.7644 C   0  0  0  0  0  0  0  0  0  0  0  0
  151.1394  143.6851  158.6800 C   0  0  0  0  0  0  0  0  0  0  0  0
  150.9996  142.6891  157.7209 C   0  0  0  0  0  0  0  0  0  0  0  0
  150.2359  142.6438  156.5524 N   0  3  0  0  0  0  0  0  0  0  0  0
  150.4246  141.4459  155.9325 C   0  0  0  0  0  0  0  0  0  0  0  0
  151.2971  140.7264  156.6890 N   0  0  0  0  0  0  0  0  0  0  0  0
  151.8373  139.3763  156.4805 C   0  0  0  0  0  0  0  0  0  0  0  0
  150.9836  138.5273  155.5158 C   0  0  2  0  0  0  0  0  0  0  0  0
  151.1042  139.0777  154.2172 O   0  0  0  0  0  0  0  0  0  0  0  0
  149.4935  138.5049  155.9264 C   0  0  0  0  0  0  0  0  0  0  0  0
  149.1089  137.4235  156.8395 N   0  0  0  0  0  0  0  0  0  0  0  0
  147.9555  136.6523  156.3743 C   0  0  0  0  0  0  0  0  0  0  0  0
  147.6619  135.4535  157.2896 C   0  0  0  0  0  0  0  0  0  0  0  0
  147.6810  135.8233  158.7009 N   0  0  0  0  0  0  0  0  0  0  0  0
  148.2701  136.9261  159.1910 C   0  0  0  0  0  0  0  0  0  0  0  0
  148.3031  137.1593  160.3972 O   0  0  0  0  0  0  0  0  0  0  0  0
  148.8883  137.9330  158.2023 C   0  0  0  0  0  0  0  0  0  0  0  0
  151.6843  141.4620  157.8135 C   0  0  0  0  0  0  0  0  0  0  0  0
  152.5432  141.1836  158.8736 C   0  0  0  0  0  0  0  0  0  0  0  0
  152.7006  142.1848  159.8588 C   0  0  0  0  0  0  0  0  0  0  0  0
  153.6313  141.9107  161.0280 C   0  0  0  0  0  0  0  0  0  0  0  0
  151.5713  145.3660  160.6189 H   0  0  0  0  0  0  0  0  0  0  0  0
  153.2189  144.8045  160.8912 H   0  0  0  0  0  0  0  0  0  0  0  0
  151.8769  144.1023  161.8080 H   0  0  0  0  0  0  0  0  0  0  0  0
  150.6083  144.6223  158.6006 H   0  0  0  0  0  0  0  0  0  0  0  0
  149.9674  141.1253  155.0075 H   0  0  0  0  0  0  0  0  0  0  0  0
  152.8618  139.4710  156.1183 H   0  0  0  0  0  0  0  0  0  0  0  0
  151.8975  138.8940  157.4572 H   0  0  0  0  0  0  0  0  0  0  0  0
  151.3771  137.5101  155.5005 H   0  0  0  0  0  0  0  0  0  0  0  0
  150.9594  138.3898  153.5856 H   0  0  0  0  0  0  0  0  0  0  0  0
  149.2828  139.4483  156.4329 H   0  0  0  0  0  0  0  0  0  0  0  0
  148.8504  138.5101  155.0440 H   0  0  0  0  0  0  0  0  0  0  0  0
  147.0775  137.2990  156.3206 H   0  0  0  0  0  0  0  0  0  0  0  0
  148.1227  136.2730  155.3670 H   0  0  0  0  0  0  0  0  0  0  0  0
  146.6958  135.0131  157.0431 H   0  0  0  0  0  0  0  0  0  0  0  0
  148.4130  134.6781  157.1361 H   0  0  0  0  0  0  0  0  0  0  0  0
  147.2571  135.1796  159.3531 H   0  0  0  0  0  0  0  0  0  0  0  0
  149.8303  138.2942  158.6174 H   0  0  0  0  0  0  0  0  0  0  0  0
  148.2150  138.7912  158.1703 H   0  0  0  0  0  0  0  0  0  0  0  0
  153.0705  140.2436  158.9441 H   0  0  0  0  0  0  0  0  0  0  0  0
  154.1250  140.9435  160.9272 H   0  0  0  0  0  0  0  0  0  0  0  0
  153.0752  141.9054  161.9658 H   0  0  0  0  0  0  0  0  0  0  0  0
  154.4077  142.6735  161.0891 H   0  0  0  0  0  0  0  0  0  0  0  0
  149.6304  143.3743  156.2008 H   0  0  0  0  0  0  0  0  0  0  0  0
  1  2  1  0  0  0  0
  1 23  1  0  0  0  0
  1 24  1  0  0  0  0
  1 25  1  0  0  0  0
  2 21  1  0  0  0  0
  2  3  2  0  0  0  0
  3  4  1  0  0  0  0
  3 26  1  0  0  0  0
  4 19  2  0  0  0  0
  4  5  1  0  0  0  0
  5  6  2  0  0  0  0
  5 45  1  0  0  0  0
  6  7  1  0  0  0  0
  6 27  1  0  0  0  0
  7  8  1  0  0  0  0
  7 19  1  0  0  0  0
  8  9  1  0  0  0  0
  8 28  1  0  0  0  0
  8 29  1  0  0  0  0
  9 10  1  0  0  0  0
  9 11  1  0  0  0  0
  9 30  1  0  0  0  0
 10 31  1  0  0  0  0
 11 12  1  0  0  0  0
 11 32  1  0  0  0  0
 11 33  1  0  0  0  0
 12 18  1  0  0  0  0
 12 13  1  0  0  0  0
 13 14  1  0  0  0  0
 13 34  1  0  0  0  0
 13 35  1  0  0  0  0
 14 15  1  0  0  0  0
 14 36  1  0  0  0  0
 14 37  1  0  0  0  0
 15 16  1  0  0  0  0
 15 38  1  0  0  0  0
 16 17  2  0  0  0  0
 16 18  1  0  0  0  0
 18 39  1  0  0  0  0
 18 40  1  0  0  0  0
 19 20  1  0  0  0  0
 20 21  2  0  0  0  0
 20 41  1  0  0  0  0
 21 22  1  0  0  0  0
 22 42  1  0  0  0  0
 22 43  1  0  0  0  0
 22 44  1  0  0  0  0
M  CHG  1   5   1
M  END
> <s_m_source_file>
AV-unprocessed.smi

> <i_m_source_file_index>
1056

> <i_lp_mmshare_version>
43012

> <i_f3d_flags>
0

> <s_epik_input>
W0NIM11jKFtjSF0xKWMoW0NIM10pW2NIXWMoYzEyKW4oW2NIXW4yKVtDSDJdW0NASF0oW09IXSlbQ0gyXU4zW0NIMl1bQ0gyXVtOSF1DKD1PKVtDSDJdMw==

> <s_epik_cmdline>
J2VwaWtfcHl0aG9uJywgJy1waCcsICc3LjAnLCAnLXRuJywgJzgnLCAnLW1hJywgJzIwMCcsICctbWV0YWxfYmluZGluZycsICctaW1hZScsICc8aW5maWxlLm1hZT4nLCAnLW9tYWUnLCAnPG91dGZpbGUubWFlPic=

> <r_epik_Ionization_Penalty>
2.47196

> <r_epik_Ionization_Penalty_Charging>
1.21809

> <r_epik_Ionization_Penalty_Neutral>
1.25387

> <r_epik_State_Penalty>
2.6255

> <r_epik_Charging_Adjusted_Penalty>
3.84359

> <i_epik_Tot_Q>
1

> <i_epik_Tot_abs_Q>
1

> <r_epik_Metal_State_Penalty>
2.76698

> <b_epik_Metal_Only>
0

> <s_lp_Force_Field>
OPLS_2005

> <r_lp_Energy>
35.3562

> <b_lp_Chiralities_Consistent>
1

> <s_lp_Variant>
AV-unprocessed.smi:1056-11

> <Gold.Version>
5.8.1

> <Gold.Id.Protein>
6NUR|6NUR_protein|mol2

> <Gold.PLP.Fitness>
48.0560

> <Gold.PLP.PLP>
-38.2917

> <Gold.PLP.part.hbond>
-4.0000

> <Gold.PLP.part.metal>
0.0000

> <Gold.PLP.part.buried>
-4.7992

> <Gold.PLP.part.nonpolar>
-30.0523

> <Gold.PLP.part.repulsive>
0.1097

> <Gold.PLP.ligand.clash>
0.0000

> <Gold.PLP.ligand.torsion>
1.3740

> <Gold.PLP.Chemscore.Hbond>
4.1616

> <Gold.PLP.Chemscore.CHOScore>
0.0000

> <Gold.PLP.Chemscore.Metal>
0.0000

> <Gold.Chemscore.Hbonds>
donor molecule, donor type, donor heavy atom, donor atom, acceptor molecule, acceptor atom, score
      L1  H     5    45       P1  8028  2.00
      P1  H  6931  6943       L1    17  0.72
      P1  H  6934  6947       L1    17  0.31
      P1  H  7989  7998       L1    10  1.00

> <Gold.PLP.Chemscore.Internal.Correction>
0.0274

> <Gold.Rescore>
     Score         DG    S(hbond)    S(metal)    S(lipo)     H(rot)  DE(clash)    DE(int)     intcor
     18.56     -21.42       3.15        0.00      98.24       2.37       0.33       2.53       ----

> <Gold.Chemscore.Fitness>
18.5579

> <Gold.Chemscore.DG>
-21.4168

> <Gold.Chemscore.ZeroCoef>
-5.4800

> <Gold.Chemscore.Hbond>
3.1486

> <Gold.Chemscore.Metal>
0.0000

> <Gold.Chemscore.Lipo>
98.2394

> <Gold.Chemscore.Internal_Hbond>
0.0000

> <Gold.Chemscore.DEClash>
0.3250

> <Gold.Chemscore.DEInternal>
2.5339

> <Gold.Chemscore.Rot>
2.3724

> <Gold.Chemscore.Internal.Correction>
   9.000000E+99

> <Gold.Chemscore.Hbonds>
donor molecule, donor type, donor heavy atom, donor atom, acceptor molecule, acceptor atom, score
      L1  H     5    45       P1  8028  0.99
      P1  H  6931  6943       L1    17  0.70
      P1  H  6934  6947       L1    17  0.25
      P1  H  7989  7998       L1    10  0.89

> <Gold.Chemscore.Hbond.Weighted>
-10.5162

> <Gold.Chemscore.Metal.Weighted>
-0.0000

> <Gold.Chemscore.Lipo.Weighted>
-11.4940

> <Gold.Chemscore.Internal_Hbond.Weighted>
0.0000

> <Gold.Chemscore.DEClash.Weighted>
0.3250

> <Gold.Chemscore.DEInternal.Weighted>
2.5339

> <Gold.Chemscore.Rot.Weighted>
6.0734

> <Gold.Chemscore.Internal.Correction.Weighted>
   9.000000E+99

> <Gold.Protein.RotatedTorsions>
[ 6907 6896 6895 6894 ] final -116.90 input  -60.11 | X-H torsion
[ 7974 7965 7964 7962 ] final  122.99 input  175.53 | X-H torsion
[ 8008 7997 7996 7995 ] final  -92.85 input   59.86 | X-H torsion
[ 10167 10162 10161 10158 ] final   56.52 input  -65.29 | X-H torsion
[ 10718 10713 10712 10709 ] final -165.16 input   66.30 | X-H torsion
[ 10763 10752 10751 10750 ] final   75.68 input  -60.55 | X-H torsion
[ 11005 11000 10999 10996 ] final  149.61 input  -57.11 | X-H torsion

> <Gold.Protein.ActiveResidues>
 VAL166  LYS551  ARG553  GLY616  TRP617  ASP618  TYR619  PRO620  LYS621  CYS622 
 ASP623  PHE694  ASN695  SER759  ASP760  ASP761  ALA762  ILE779  LEU786  VAL792 
 PHE793  MET794  SER795  GLU796  ALA797  LYS798  CYS799  TRP800  GLU811  SER814 

> <Gold.Protein.RotatedAtoms>
  150.8093  133.8451  159.3189 H   0  0  0  0  0  0  0  0  0  0  0  0  # atno 6907 bound_to 6896
  151.6241  135.1027  160.0117 H   0  0  0  0  0  0  0  0  0  0  0  0  # atno 6908 bound_to 6896
  152.4185  133.7037  159.6495 H   0  0  0  0  0  0  0  0  0  0  0  0  # atno 6909 bound_to 6896
  145.1011  139.3518  143.4811 H   0  0  0  0  0  0  0  0  0  0  0  0  # atno 7974 bound_to 7965
  154.7283  140.0505  157.0703 H   0  0  0  0  0  0  0  0  0  0  0  0  # atno 8008 bound_to 7997
  155.0335  140.3160  155.4730 H   0  0  0  0  0  0  0  0  0  0  0  0  # atno 8009 bound_to 7997
  156.2835  140.2145  156.5457 H   0  0  0  0  0  0  0  0  0  0  0  0  # atno 8010 bound_to 7997
  140.2079  144.3920  150.6501 H   0  0  0  0  0  0  0  0  0  0  0  0  # atno 10167 bound_to 10162
  156.6495  130.9001  151.3010 H   0  0  0  0  0  0  0  0  0  0  0  0  # atno 10718 bound_to 10713
  153.0672  135.4979  154.8225 H   0  0  0  0  0  0  0  0  0  0  0  0  # atno 10763 bound_to 10752
  154.6970  135.2994  154.9399 H   0  0  0  0  0  0  0  0  0  0  0  0  # atno 10764 bound_to 10752
  154.0135  135.6751  153.4820 H   0  0  0  0  0  0  0  0  0  0  0  0  # atno 10765 bound_to 10752
  140.1059  134.8954  157.1865 H   0  0  0  0  0  0  0  0  0  0  0  0  # atno 11005 bound_to 11000
  146.3529  140.0889  142.8613 LP  0  0  0  0  0  0  0  0  0  0  0  0  # atno 17320 bound_to 7965
  145.0954  140.9311  143.4744 LP  0  0  0  0  0  0  0  0  0  0  0  0  # atno 17321 bound_to 7965
  140.6345  143.2192  151.6425 LP  0  0  0  0  0  0  0  0  0  0  0  0  # atno 17342 bound_to 10162
  139.5191  144.3262  152.0866 LP  0  0  0  0  0  0  0  0  0  0  0  0  # atno 17343 bound_to 10162
  157.7145  130.9481  150.1207 LP  0  0  0  0  0  0  0  0  0  0  0  0  # atno 17370 bound_to 10713
  156.2096  130.3666  149.8687 LP  0  0  0  0  0  0  0  0  0  0  0  0  # atno 17371 bound_to 10713
  140.3156  134.2974  155.7257 LP  0  0  0  0  0  0  0  0  0  0  0  0  # atno 17394 bound_to 11000
  141.2118  133.7677  156.9838 LP  0  0  0  0  0  0  0  0  0  0  0  0  # atno 17395 bound_to 11000

$$$$
