AV-unprocessed.smi:1494|AV-procd|sdf|6052|dock2
  -GOLD-   22720 6163D 1   1.00000     0.00000
 Structure written by MMmdl.
 30 31  0  0  0  0  0  0  0  0  1 V2000
  145.1229  138.0547  152.9572 O   0  0  0  0  0  0  0  0  0  0  0  0
  146.1686  137.4700  152.6758 C   0  0  0  0  0  0  0  0  0  0  0  0
  146.2062  136.2589  152.1030 N   0  0  0  0  0  0  0  0  0  0  0  0
  145.0379  135.4626  151.7466 C   0  0  0  0  0  0  0  0  0  0  0  0
  145.4122  134.3164  150.8109 C   0  0  0  0  0  0  0  0  0  0  0  0
  144.3620  133.2582  150.4388 C   0  0  0  0  0  0  0  0  0  0  0  0
  145.4840  132.2170  150.4270 C   0  0  0  0  0  0  0  0  0  0  0  0
  146.2784  133.1610  151.3338 C   0  0  0  0  0  0  0  0  0  0  0  0
  147.4090  137.9456  152.8803 N   0  0  0  0  0  0  0  0  0  0  0  0
  147.8070  139.1926  153.4348 C   0  0  0  0  0  0  0  0  0  0  0  0
  149.0387  139.4216  154.0955 C   0  0  0  0  0  0  0  0  0  0  0  0
  149.3144  140.7106  154.5910 C   0  0  0  0  0  0  0  0  0  0  0  0
  148.3548  141.7241  154.4026 C   0  0  0  0  0  0  0  0  0  0  0  0
  147.1836  141.5239  153.7627 N   0  0  0  0  0  0  0  0  0  0  0  0
  146.9264  140.2857  153.2903 C   0  0  0  0  0  0  0  0  0  0  0  0
  147.1094  135.8542  151.9040 H   0  0  0  0  0  0  0  0  0  0  0  0
  144.5527  135.0823  152.6468 H   0  0  0  0  0  0  0  0  0  0  0  0
  144.3150  136.1234  151.2678 H   0  0  0  0  0  0  0  0  0  0  0  0
  145.8653  134.6971  149.8928 H   0  0  0  0  0  0  0  0  0  0  0  0
  143.6344  133.0848  151.2335 H   0  0  0  0  0  0  0  0  0  0  0  0
  143.8754  133.4190  149.4763 H   0  0  0  0  0  0  0  0  0  0  0  0
  145.2240  131.2587  150.8779 H   0  0  0  0  0  0  0  0  0  0  0  0
  145.9375  132.0945  149.4420 H   0  0  0  0  0  0  0  0  0  0  0  0
  147.3392  133.2405  151.0945 H   0  0  0  0  0  0  0  0  0  0  0  0
  146.1199  132.9569  152.3943 H   0  0  0  0  0  0  0  0  0  0  0  0
  148.1634  137.3675  152.5397 H   0  0  0  0  0  0  0  0  0  0  0  0
  149.7791  138.6477  154.2228 H   0  0  0  0  0  0  0  0  0  0  0  0
  150.2431  140.9180  155.1016 H   0  0  0  0  0  0  0  0  0  0  0  0
  148.5351  142.7232  154.7712 H   0  0  0  0  0  0  0  0  0  0  0  0
  145.9806  140.1629  152.7824 H   0  0  0  0  0  0  0  0  0  0  0  0
  1  2  2  0  0  0  0
  2  3  1  0  0  0  0
  2  9  1  0  0  0  0
  3  4  1  0  0  0  0
  3 16  1  0  0  0  0
  4  5  1  0  0  0  0
  4 17  1  0  0  0  0
  4 18  1  0  0  0  0
  5  8  1  0  0  0  0
  5  6  1  0  0  0  0
  5 19  1  0  0  0  0
  6  7  1  0  0  0  0
  6 20  1  0  0  0  0
  6 21  1  0  0  0  0
  7  8  1  0  0  0  0
  7 22  1  0  0  0  0
  7 23  1  0  0  0  0
  8 24  1  0  0  0  0
  8 25  1  0  0  0  0
  9 10  1  0  0  0  0
  9 26  1  0  0  0  0
 10 15  1  0  0  0  0
 10 11  2  0  0  0  0
 11 12  1  0  0  0  0
 11 27  1  0  0  0  0
 12 13  2  0  0  0  0
 12 28  1  0  0  0  0
 13 14  1  0  0  0  0
 13 29  1  0  0  0  0
 14 15  2  0  0  0  0
 15 30  1  0  0  0  0
M  END
> <s_m_source_file>
AV-unprocessed.smi

> <i_m_source_file_index>
1494

> <i_lp_mmshare_version>
43012

> <i_f3d_flags>
0

> <s_epik_input>
W0NIMl0xW0NIMl1bQ0gyXVtDSF0xW0NIMl1bTkhdQyg9TylbTkhdYzJbY0hdW2NIXVtjSF1uW2NIXTI=

> <s_epik_cmdline>
J2VwaWtfcHl0aG9uJywgJy1waCcsICc3LjAnLCAnLXRuJywgJzgnLCAnLW1hJywgJzIwMCcsICctbWV0YWxfYmluZGluZycsICctaW1hZScsICc8aW5maWxlLm1hZT4nLCAnLW9tYWUnLCAnPG91dGZpbGUubWFlPic=

> <r_epik_Ionization_Penalty>
0.00485471

> <r_epik_Ionization_Penalty_Charging>
0

> <r_epik_Ionization_Penalty_Neutral>
0.00485471

> <r_epik_State_Penalty>
0.00349083

> <r_epik_Charging_Adjusted_Penalty>
0.00349083

> <i_epik_Tot_Q>
0

> <i_epik_Tot_abs_Q>
0

> <r_epik_Metal_State_Penalty>
-0

> <b_epik_Metal_Only>
0

> <s_lp_Force_Field>
OPLS_2005

> <r_lp_Energy>
15.2707

> <b_lp_Chiralities_Consistent>
1

> <s_lp_Variant>
AV-unprocessed.smi:1494-1

> <Gold.Version>
5.8.1

> <Gold.Id.Protein>
6NUR|6NUR_protein|mol2

> <Gold.PLP.Fitness>
37.2514

> <Gold.PLP.PLP>
-26.0458

> <Gold.PLP.part.hbond>
-1.9428

> <Gold.PLP.part.metal>
0.0000

> <Gold.PLP.part.buried>
-2.0548

> <Gold.PLP.part.nonpolar>
-24.0369

> <Gold.PLP.part.repulsive>
2.0841

> <Gold.PLP.ligand.clash>
0.0000

> <Gold.PLP.ligand.torsion>
0.2711

> <Gold.PLP.Chemscore.Hbond>
1.8960

> <Gold.PLP.Chemscore.CHOScore>
2.0000

> <Gold.PLP.Chemscore.Metal>
0.0000

> <Gold.Chemscore.Hbonds>
donor molecule, donor type, donor heavy atom, donor atom, acceptor molecule, acceptor atom, score
      L1  H     3    16       P1  7948  0.88
      L1  H     9    26       P1  7948  0.99
      L1  C    13    29       P1  8028  1.00
      L1  C    15    30       P1 10175  1.00

> <Gold.PLP.Chemscore.Internal.Correction>
0.0598

> <Gold.Rescore>
     Score         DG    S(hbond)    S(metal)    S(lipo)     H(rot)  DE(clash)    DE(int)     intcor
     15.13     -16.91       1.92        0.00      69.21       1.20       0.24       1.53       ----

> <Gold.Chemscore.Fitness>
15.1300

> <Gold.Chemscore.DG>
-16.9088

> <Gold.Chemscore.ZeroCoef>
-5.4800

> <Gold.Chemscore.Hbond>
1.9184

> <Gold.Chemscore.Metal>
0.0000

> <Gold.Chemscore.Lipo>
69.2066

> <Gold.Chemscore.Internal_Hbond>
0.0000

> <Gold.Chemscore.DEClash>
0.2447

> <Gold.Chemscore.DEInternal>
1.5341

> <Gold.Chemscore.Rot>
1.2015

> <Gold.Chemscore.Internal.Correction>
   9.000000E+99

> <Gold.Chemscore.Hbonds>
donor molecule, donor type, donor heavy atom, donor atom, acceptor molecule, acceptor atom, score
      L1  H     3    16       P1  7948  0.86
      L1  H     9    26       P1  7948  0.92

> <Gold.Chemscore.Hbond.Weighted>
-6.4074

> <Gold.Chemscore.Metal.Weighted>
-0.0000

> <Gold.Chemscore.Lipo.Weighted>
-8.0972

> <Gold.Chemscore.Internal_Hbond.Weighted>
0.0000

> <Gold.Chemscore.DEClash.Weighted>
0.2447

> <Gold.Chemscore.DEInternal.Weighted>
1.5341

> <Gold.Chemscore.Rot.Weighted>
3.0758

> <Gold.Chemscore.Internal.Correction.Weighted>
   9.000000E+99

> <Gold.Protein.RotatedTorsions>
[ 6907 6896 6895 6894 ] final   63.75 input  -60.11 | X-H torsion
[ 7974 7965 7964 7962 ] final -129.23 input  175.53 | X-H torsion
[ 8008 7997 7996 7995 ] final   40.10 input   59.86 | X-H torsion
[ 10167 10162 10161 10158 ] final  -35.09 input  -65.29 | X-H torsion
[ 10718 10713 10712 10709 ] final   53.84 input   66.30 | X-H torsion
[ 10763 10752 10751 10750 ] final -121.41 input  -60.55 | X-H torsion
[ 11005 11000 10999 10996 ] final    7.55 input  -57.11 | X-H torsion

> <Gold.Protein.ActiveResidues>
 VAL166  LYS551  ARG553  GLY616  TRP617  ASP618  TYR619  PRO620  LYS621  CYS622 
 ASP623  PHE694  ASN695  SER759  ASP760  ASP761  ALA762  ILE779  LEU786  VAL792 
 PHE793  MET794  SER795  GLU796  ALA797  LYS798  CYS799  TRP800  GLU811  SER814 

> <Gold.Protein.RotatedAtoms>
  152.4278  134.5836  159.9954 H   0  0  0  0  0  0  0  0  0  0  0  0  # atno 6907 bound_to 6896
  151.5968  133.3355  159.3047 H   0  0  0  0  0  0  0  0  0  0  0  0  # atno 6908 bound_to 6896
  150.8168  134.7391  159.6802 H   0  0  0  0  0  0  0  0  0  0  0  0  # atno 6909 bound_to 6896
  144.9593  140.7429  143.4739 H   0  0  0  0  0  0  0  0  0  0  0  0  # atno 7974 bound_to 7965
  155.2475  140.3350  155.4285 H   0  0  0  0  0  0  0  0  0  0  0  0  # atno 8008 bound_to 7997
  156.2230  140.1817  156.7476 H   0  0  0  0  0  0  0  0  0  0  0  0  # atno 8009 bound_to 7997
  154.5854  140.0646  156.9149 H   0  0  0  0  0  0  0  0  0  0  0  0  # atno 8010 bound_to 7997
  140.7172  143.3501  151.2173 H   0  0  0  0  0  0  0  0  0  0  0  0  # atno 10167 bound_to 10162
  157.5203  130.8561  149.8550 H   0  0  0  0  0  0  0  0  0  0  0  0  # atno 10718 bound_to 10713
  154.8667  135.4169  154.2615 H   0  0  0  0  0  0  0  0  0  0  0  0  # atno 10763 bound_to 10752
  153.3542  135.7000  153.6769 H   0  0  0  0  0  0  0  0  0  0  0  0  # atno 10764 bound_to 10752
  153.5697  135.3594  155.2805 H   0  0  0  0  0  0  0  0  0  0  0  0  # atno 10765 bound_to 10752
  140.5470  134.0320  155.7923 H   0  0  0  0  0  0  0  0  0  0  0  0  # atno 11005 bound_to 11000
  145.2725  139.1949  143.4834 LP  0  0  0  0  0  0  0  0  0  0  0  0  # atno 17320 bound_to 7965
  146.3347  140.2673  142.8604 LP  0  0  0  0  0  0  0  0  0  0  0  0  # atno 17321 bound_to 7965
  139.7030  143.9501  152.2914 LP  0  0  0  0  0  0  0  0  0  0  0  0  # atno 17342 bound_to 10162
  139.9201  144.6805  150.8471 LP  0  0  0  0  0  0  0  0  0  0  0  0  # atno 17343 bound_to 10162
  156.0349  130.3754  150.1587 LP  0  0  0  0  0  0  0  0  0  0  0  0  # atno 17370 bound_to 10713
  156.9775  130.9854  151.3445 LP  0  0  0  0  0  0  0  0  0  0  0  0  # atno 17371 bound_to 10713
  141.1194  133.9486  157.2759 LP  0  0  0  0  0  0  0  0  0  0  0  0  # atno 17394 bound_to 11000
  139.9475  135.0181  156.8894 LP  0  0  0  0  0  0  0  0  0  0  0  0  # atno 17395 bound_to 11000

$$$$
