AV-unprocessed.smi:1512|AV-procd|sdf|6103|dock9
  -GOLD-   22720 6233D 1   1.00000     0.00000
 Structure written by MMmdl.
 44 46  0  0  0  0  0  0  0  0  3 V2000
  147.6451  132.4266  153.0030 C   0  0  0  0  0  0  0  0  0  0  0  0
  146.4828  133.4338  153.0291 C   0  0  1  0  0  0  0  0  0  0  0  0
  146.9927  134.7663  153.3332 N   0  0  0  0  0  0  0  0  0  0  0  0
  146.6501  135.5263  154.3868 C   0  0  0  0  0  0  0  0  0  0  0  0
  145.8673  135.1472  155.2569 O   0  0  0  0  0  0  0  0  0  0  0  0
  147.2594  136.9356  154.4901 C   0  0  0  0  0  0  0  0  0  0  0  0
  148.6838  136.9644  154.8734 N   0  0  0  0  0  0  0  0  0  0  0  0
  149.2587  135.7377  155.2553 C   0  0  0  0  0  0  0  0  0  0  0  0
  150.5394  135.6440  155.6392 C   0  0  0  0  0  0  0  0  0  0  0  0
  151.3347  136.8472  155.6621 C   0  0  0  0  0  0  0  0  0  0  0  0
  150.8029  138.0394  155.3059 C   0  0  0  0  0  0  0  0  0  0  0  0
  151.6513  139.2077  155.3695 N   0  3  0  0  0  0  0  0  0  0  0  0
  151.1664  140.3071  155.1205 O   0  0  0  0  0  0  0  0  0  0  0  0
  152.8277  139.0609  155.6876 O   0  5  0  0  0  0  0  0  0  0  0  0
  149.3932  138.1360  154.8724 C   0  0  0  0  0  0  0  0  0  0  0  0
  148.8703  139.1975  154.5290 O   0  0  0  0  0  0  0  0  0  0  0  0
  145.7224  133.4751  151.6828 C   0  0  1  0  0  0  0  0  0  0  0  0
  146.6091  133.3017  150.4296 C   0  0  0  0  0  0  0  0  0  0  0  0
  145.8720  132.2089  149.6327 C   0  0  1  0  0  0  0  0  0  0  0  0
  146.0887  130.8501  150.3237 C   0  0  0  0  0  0  0  0  0  0  0  0
  145.2117  130.9684  151.5834 C   0  0  0  0  0  0  0  0  0  0  0  0
  144.6332  132.3936  151.4647 C   0  0  2  0  0  0  0  0  0  0  0  0
  144.4115  132.4988  149.9593 C   0  0  0  0  0  0  0  0  0  0  0  0
  147.2904  131.4175  152.7929 H   0  0  0  0  0  0  0  0  0  0  0  0
  148.1626  132.3948  153.9624 H   0  0  0  0  0  0  0  0  0  0  0  0
  148.3789  132.6864  152.2394 H   0  0  0  0  0  0  0  0  0  0  0  0
  145.7906  133.1304  153.8157 H   0  0  0  0  0  0  0  0  0  0  0  0
  147.6450  135.1564  152.6689 H   0  0  0  0  0  0  0  0  0  0  0  0
  147.1245  137.4317  153.5279 H   0  0  0  0  0  0  0  0  0  0  0  0
  146.6592  137.5202  155.1893 H   0  0  0  0  0  0  0  0  0  0  0  0
  148.5934  134.8868  155.2212 H   0  0  0  0  0  0  0  0  0  0  0  0
  150.9626  134.6943  155.9314 H   0  0  0  0  0  0  0  0  0  0  0  0
  152.3638  136.7830  155.9847 H   0  0  0  0  0  0  0  0  0  0  0  0
  145.2265  134.4456  151.6141 H   0  0  0  0  0  0  0  0  0  0  0  0
  146.6579  134.2336  149.8652 H   0  0  0  0  0  0  0  0  0  0  0  0
  147.6319  133.0059  150.6667 H   0  0  0  0  0  0  0  0  0  0  0  0
  146.1166  132.2022  148.5701 H   0  0  0  0  0  0  0  0  0  0  0  0
  145.7425  130.0312  149.6917 H   0  0  0  0  0  0  0  0  0  0  0  0
  147.1376  130.6692  150.5615 H   0  0  0  0  0  0  0  0  0  0  0  0
  144.4096  130.2299  151.5546 H   0  0  0  0  0  0  0  0  0  0  0  0
  145.7694  130.8018  152.5042 H   0  0  0  0  0  0  0  0  0  0  0  0
  143.7348  132.5498  152.0633 H   0  0  0  0  0  0  0  0  0  0  0  0
  144.0827  133.4879  149.6352 H   0  0  0  0  0  0  0  0  0  0  0  0
  143.7231  131.7475  149.5676 H   0  0  0  0  0  0  0  0  0  0  0  0
  1  2  1  0  0  0  0
  1 24  1  0  0  0  0
  1 25  1  0  0  0  0
  1 26  1  0  0  0  0
  2  3  1  0  0  0  0
  2 17  1  0  0  0  0
  2 27  1  0  0  0  0
  3  4  1  0  0  0  0
  3 28  1  0  0  0  0
  4  5  2  0  0  0  0
  4  6  1  0  0  0  0
  6  7  1  0  0  0  0
  6 29  1  0  0  0  0
  6 30  1  0  0  0  0
  7 15  1  0  0  0  0
  7  8  1  0  0  0  0
  8  9  2  0  0  0  0
  8 31  1  0  0  0  0
  9 10  1  0  0  0  0
  9 32  1  0  0  0  0
 10 11  2  0  0  0  0
 10 33  1  0  0  0  0
 11 12  1  0  0  0  0
 11 15  1  0  0  0  0
 12 13  2  0  0  0  0
 12 14  1  0  0  0  0
 15 16  2  0  0  0  0
 17 22  1  0  0  0  0
 17 18  1  0  0  0  0
 17 34  1  0  0  0  0
 18 19  1  0  0  0  0
 18 35  1  0  0  0  0
 18 36  1  0  0  0  0
 19 23  1  0  0  0  0
 19 20  1  0  0  0  0
 19 37  1  0  0  0  0
 20 21  1  0  0  0  0
 20 38  1  0  0  0  0
 20 39  1  0  0  0  0
 21 22  1  0  0  0  0
 21 40  1  0  0  0  0
 21 41  1  0  0  0  0
 22 23  1  0  0  0  0
 22 42  1  0  0  0  0
 23 43  1  0  0  0  0
 23 44  1  0  0  0  0
M  CHG  1  12   1
M  CHG  1  14  -1
M  END
> <s_m_source_file>
AV-unprocessed.smi

> <i_m_source_file_index>
1512

> <i_lp_mmshare_version>
43012

> <i_f3d_flags>
0

> <s_epik_input>
W0NIMl0xW0NIMl1bQ0BIXShbQ0gyXTIpW0NAQEhdKFtDSDJdW0NAQEhdMTIpW0NASF0oW0NIM10pW05IXUMoPU8pW0NIMl1uM1tjSF1bY0hdW2NIXWMoW04rXSg9TylbTy1dKWMzPU8=

> <s_epik_cmdline>
J2VwaWtfcHl0aG9uJywgJy1waCcsICc3LjAnLCAnLXRuJywgJzgnLCAnLW1hJywgJzIwMCcsICctbWV0YWxfYmluZGluZycsICctaW1hZScsICc8aW5maWxlLm1hZT4nLCAnLW9tYWUnLCAnPG91dGZpbGUubWFlPic=

> <r_lp_tautomer_probability>
1

> <r_epik_Ionization_Penalty>
2.17697e-08

> <r_epik_Ionization_Penalty_Charging>
1.42735e-10

> <r_epik_Ionization_Penalty_Neutral>
2.16269e-08

> <r_epik_State_Penalty>
-0

> <r_epik_Charging_Adjusted_Penalty>
1.42735e-10

> <i_epik_Tot_Q>
0

> <i_epik_Tot_abs_Q>
2

> <r_epik_Metal_State_Penalty>
-0

> <b_epik_Metal_Only>
0

> <s_lp_Force_Field>
OPLS_2005

> <r_lp_Energy>
64.3313

> <b_lp_Chiralities_Consistent>
1

> <s_lp_Variant>
AV-unprocessed.smi:1512-4

> <Gold.Version>
5.8.1

> <Gold.Id.Protein>
6NUR|6NUR_protein|mol2

> <Gold.PLP.Fitness>
41.6885

> <Gold.PLP.PLP>
-34.1477

> <Gold.PLP.part.hbond>
-3.0000

> <Gold.PLP.part.metal>
0.0000

> <Gold.PLP.part.buried>
-3.3326

> <Gold.PLP.part.nonpolar>
-27.6576

> <Gold.PLP.part.repulsive>
0.2132

> <Gold.PLP.ligand.clash>
0.0000

> <Gold.PLP.ligand.torsion>
0.7435

> <Gold.PLP.Chemscore.Hbond>
3.0000

> <Gold.PLP.Chemscore.CHOScore>
0.0000

> <Gold.PLP.Chemscore.Metal>
0.0000

> <Gold.Chemscore.Hbonds>
donor molecule, donor type, donor heavy atom, donor atom, acceptor molecule, acceptor atom, score
      L1  H     3    28       P1  7948  1.00
      P1  H  7989  7998       L1    13  1.00
      P1  H  7997  8008       L1    14  1.00

> <Gold.PLP.Chemscore.Internal.Correction>
0.0278

> <Gold.Rescore>
     Score         DG    S(hbond)    S(metal)    S(lipo)     H(rot)  DE(clash)    DE(int)     intcor
     17.88     -21.23       2.93        0.00      89.21       1.75       0.24       3.11       ----

> <Gold.Chemscore.Fitness>
17.8790

> <Gold.Chemscore.DG>
-21.2276

> <Gold.Chemscore.ZeroCoef>
-5.4800

> <Gold.Chemscore.Hbond>
2.9292

> <Gold.Chemscore.Metal>
0.0000

> <Gold.Chemscore.Lipo>
89.2087

> <Gold.Chemscore.Internal_Hbond>
0.0000

> <Gold.Chemscore.DEClash>
0.2381

> <Gold.Chemscore.DEInternal>
3.1105

> <Gold.Chemscore.Rot>
1.7474

> <Gold.Chemscore.Internal.Correction>
   9.000000E+99

> <Gold.Chemscore.Hbonds>
donor molecule, donor type, donor heavy atom, donor atom, acceptor molecule, acceptor atom, score
      L1  H     3    28       P1  7948  1.00
      P1  H  7989  7998       L1    13  0.80
      P1  H  7997  8008       L1    14  0.99

> <Gold.Chemscore.Hbond.Weighted>
-9.7835

> <Gold.Chemscore.Metal.Weighted>
-0.0000

> <Gold.Chemscore.Lipo.Weighted>
-10.4374

> <Gold.Chemscore.Internal_Hbond.Weighted>
0.0000

> <Gold.Chemscore.DEClash.Weighted>
0.2381

> <Gold.Chemscore.DEInternal.Weighted>
3.1105

> <Gold.Chemscore.Rot.Weighted>
4.4733

> <Gold.Chemscore.Internal.Correction.Weighted>
   9.000000E+99

> <Gold.Protein.RotatedTorsions>
[ 6907 6896 6895 6894 ] final -158.18 input  -60.11 | X-H torsion
[ 7974 7965 7964 7962 ] final   67.05 input  175.53 | X-H torsion
[ 8008 7997 7996 7995 ] final  -24.54 input   59.86 | X-H torsion
[ 10167 10162 10161 10158 ] final  154.56 input  -65.29 | X-H torsion
[ 10718 10713 10712 10709 ] final -128.87 input   66.30 | X-H torsion
[ 10763 10752 10751 10750 ] final  174.68 input  -60.55 | X-H torsion
[ 11005 11000 10999 10996 ] final  175.97 input  -57.11 | X-H torsion

> <Gold.Protein.ActiveResidues>
 VAL166  LYS551  ARG553  GLY616  TRP617  ASP618  TYR619  PRO620  LYS621  CYS622 
 ASP623  PHE694  ASN695  SER759  ASP760  ASP761  ALA762  ILE779  LEU786  VAL792 
 PHE793  MET794  SER795  GLU796  ALA797  LYS798  CYS799  TRP800  GLU811  SER814 

> <Gold.Protein.RotatedAtoms>
  151.3142  133.4067  159.2649 H   0  0  0  0  0  0  0  0  0  0  0  0  # atno 6907 bound_to 6896
  151.0088  134.9381  159.8006 H   0  0  0  0  0  0  0  0  0  0  0  0  # atno 6908 bound_to 6896
  152.5295  134.3107  159.9165 H   0  0  0  0  0  0  0  0  0  0  0  0  # atno 6909 bound_to 6896
  145.8193  139.3075  143.1053 H   0  0  0  0  0  0  0  0  0  0  0  0  # atno 7974 bound_to 7965
  154.4524  140.1951  156.0480 H   0  0  0  0  0  0  0  0  0  0  0  0  # atno 8008 bound_to 7997
  156.0675  140.3289  155.7508 H   0  0  0  0  0  0  0  0  0  0  0  0  # atno 8009 bound_to 7997
  155.5315  140.0578  157.2879 H   0  0  0  0  0  0  0  0  0  0  0  0  # atno 8010 bound_to 7997
  139.4823  144.5176  151.7927 H   0  0  0  0  0  0  0  0  0  0  0  0  # atno 10167 bound_to 10162
  156.1992  130.6846  151.0518 H   0  0  0  0  0  0  0  0  0  0  0  0  # atno 10718 bound_to 10713
  154.4573  135.2766  155.1738 H   0  0  0  0  0  0  0  0  0  0  0  0  # atno 10763 bound_to 10752
  154.3541  135.6143  153.5661 H   0  0  0  0  0  0  0  0  0  0  0  0  # atno 10764 bound_to 10752
  152.9852  135.5818  154.4928 H   0  0  0  0  0  0  0  0  0  0  0  0  # atno 10765 bound_to 10752
  140.3680  134.7054  157.4374 H   0  0  0  0  0  0  0  0  0  0  0  0  # atno 11005 bound_to 11000
  145.9692  140.8773  143.0171 LP  0  0  0  0  0  0  0  0  0  0  0  0  # atno 17320 bound_to 7965
  144.6749  140.1922  143.7395 LP  0  0  0  0  0  0  0  0  0  0  0  0  # atno 17321 bound_to 7965
  140.4686  144.1619  150.5915 LP  0  0  0  0  0  0  0  0  0  0  0  0  # atno 17342 bound_to 10162
  140.4406  143.2528  151.9477 LP  0  0  0  0  0  0  0  0  0  0  0  0  # atno 17343 bound_to 10162
  157.6975  131.0788  150.6922 LP  0  0  0  0  0  0  0  0  0  0  0  0  # atno 17370 bound_to 10713
  156.6980  130.4614  149.5581 LP  0  0  0  0  0  0  0  0  0  0  0  0  # atno 17371 bound_to 10713
  140.0574  134.6044  155.8789 LP  0  0  0  0  0  0  0  0  0  0  0  0  # atno 17394 bound_to 11000
  141.1963  133.6591  156.5687 LP  0  0  0  0  0  0  0  0  0  0  0  0  # atno 17395 bound_to 11000

$$$$
