AV-unprocessed.smi:2507|AV-procd|sdf|9863|dock5
  -GOLD-   2272013493D 1   1.00000     0.00000
 Structure written by MMmdl.
 44 45  0  0  0  0  0  0  0  0  1 V2000
  143.8226  145.9753  156.7321 C   0  0  0  0  0  0  0  0  0  0  0  0
  144.9573  145.9087  157.7604 C   0  0  0  0  0  0  0  0  0  0  0  0
  144.8062  144.7383  158.6934 C   0  0  0  0  0  0  0  0  0  0  0  0
  143.7530  144.6652  159.4964 N   0  0  0  0  0  0  0  0  0  0  0  0
  143.9132  143.5129  160.1898 N   0  0  0  0  0  0  0  0  0  0  0  0
  142.9188  143.1309  161.1691 C   0  0  0  0  0  0  0  0  0  0  0  0
  145.0671  142.8451  159.8349 C   0  0  0  0  0  0  0  0  0  0  0  0
  145.6586  143.6148  158.8733 C   0  0  0  0  0  0  0  0  0  0  0  0
  146.8690  143.3907  158.1677 N   0  0  0  0  0  0  0  0  0  0  0  0
  147.3413  142.2205  157.7080 C   0  0  0  0  0  0  0  0  0  0  0  0
  146.7680  141.1356  157.8086 O   0  0  0  0  0  0  0  0  0  0  0  0
  148.5331  142.3744  157.1162 N   0  0  0  0  0  0  0  0  0  0  0  0
  149.3027  141.2894  156.5232 C   0  0  0  0  0  0  0  0  0  0  0  0
  150.7751  141.3720  156.9518 C   0  0  0  0  0  0  0  0  0  0  0  0
  150.9444  141.7093  158.4419 C   0  0  2  0  0  0  0  0  0  0  0  0
  151.5738  143.1005  158.6517 C   0  0  0  0  0  0  0  0  0  0  0  0
  151.7996  143.3707  160.1437 C   0  0  0  0  0  0  0  0  0  0  0  0
  152.5996  142.2197  160.7625 C   0  0  0  0  0  0  0  0  0  0  0  0
  151.9323  140.8723  160.4435 C   0  0  0  0  0  0  0  0  0  0  0  0
  151.7880  140.7233  159.0344 O   0  0  0  0  0  0  0  0  0  0  0  0
  143.9554  146.8251  156.0623 H   0  0  0  0  0  0  0  0  0  0  0  0
  142.8541  146.0861  157.2208 H   0  0  0  0  0  0  0  0  0  0  0  0
  143.7902  145.0717  156.1225 H   0  0  0  0  0  0  0  0  0  0  0  0
  145.9127  145.8499  157.2386 H   0  0  0  0  0  0  0  0  0  0  0  0
  144.9841  146.8383  158.3301 H   0  0  0  0  0  0  0  0  0  0  0  0
  143.1601  142.1523  161.5849 H   0  0  0  0  0  0  0  0  0  0  0  0
  141.9357  143.0829  160.6997 H   0  0  0  0  0  0  0  0  0  0  0  0
  142.8964  143.8640  161.9761 H   0  0  0  0  0  0  0  0  0  0  0  0
  145.3504  141.9078  160.2905 H   0  0  0  0  0  0  0  0  0  0  0  0
  147.4426  144.2062  158.0099 H   0  0  0  0  0  0  0  0  0  0  0  0
  148.9338  143.2999  157.0735 H   0  0  0  0  0  0  0  0  0  0  0  0
  148.8801  140.3309  156.8295 H   0  0  0  0  0  0  0  0  0  0  0  0
  149.2193  141.3470  155.4369 H   0  0  0  0  0  0  0  0  0  0  0  0
  151.2789  140.4299  156.7312 H   0  0  0  0  0  0  0  0  0  0  0  0
  151.2747  142.1351  156.3533 H   0  0  0  0  0  0  0  0  0  0  0  0
  149.9648  141.6809  158.9228 H   0  0  0  0  0  0  0  0  0  0  0  0
  152.5260  143.1579  158.1228 H   0  0  0  0  0  0  0  0  0  0  0  0
  150.9334  143.8744  158.2271 H   0  0  0  0  0  0  0  0  0  0  0  0
  152.3219  144.3172  160.2851 H   0  0  0  0  0  0  0  0  0  0  0  0
  150.8378  143.4634  160.6499 H   0  0  0  0  0  0  0  0  0  0  0  0
  153.6156  142.2253  160.3664 H   0  0  0  0  0  0  0  0  0  0  0  0
  152.6828  142.3541  161.8413 H   0  0  0  0  0  0  0  0  0  0  0  0
  152.5431  140.0530  160.8227 H   0  0  0  0  0  0  0  0  0  0  0  0
  150.9586  140.7943  160.9292 H   0  0  0  0  0  0  0  0  0  0  0  0
  1  2  1  0  0  0  0
  1 21  1  0  0  0  0
  1 22  1  0  0  0  0
  1 23  1  0  0  0  0
  2  3  1  0  0  0  0
  2 24  1  0  0  0  0
  2 25  1  0  0  0  0
  3  8  1  0  0  0  0
  3  4  2  0  0  0  0
  4  5  1  0  0  0  0
  5  6  1  0  0  0  0
  5  7  1  0  0  0  0
  6 26  1  0  0  0  0
  6 27  1  0  0  0  0
  6 28  1  0  0  0  0
  7  8  2  0  0  0  0
  7 29  1  0  0  0  0
  8  9  1  0  0  0  0
  9 10  1  0  0  0  0
  9 30  1  0  0  0  0
 10 11  2  0  0  0  0
 10 12  1  0  0  0  0
 12 13  1  0  0  0  0
 12 31  1  0  0  0  0
 13 14  1  0  0  0  0
 13 32  1  0  0  0  0
 13 33  1  0  0  0  0
 14 15  1  0  0  0  0
 14 34  1  0  0  0  0
 14 35  1  0  0  0  0
 15 20  1  0  0  0  0
 15 16  1  0  0  0  0
 15 36  1  0  0  0  0
 16 17  1  0  0  0  0
 16 37  1  0  0  0  0
 16 38  1  0  0  0  0
 17 18  1  0  0  0  0
 17 39  1  0  0  0  0
 17 40  1  0  0  0  0
 18 19  1  0  0  0  0
 18 41  1  0  0  0  0
 18 42  1  0  0  0  0
 19 20  1  0  0  0  0
 19 43  1  0  0  0  0
 19 44  1  0  0  0  0
M  END
> <s_m_source_file>
AV-unprocessed.smi

> <i_m_source_file_index>
2507

> <i_lp_mmshare_version>
43012

> <i_f3d_flags>
0

> <s_epik_input>
W0NIM11bQ0gyXWMxbm4oW0NIM10pW2NIXWMxW05IXUMoPU8pW05IXVtDSDJdW0NIMl1bQ0BASF0yW0NIMl1bQ0gyXVtDSDJdW0NIMl1PMg==

> <s_epik_cmdline>
J2VwaWtfcHl0aG9uJywgJy1waCcsICc3LjAnLCAnLXRuJywgJzgnLCAnLW1hJywgJzIwMCcsICctbWV0YWxfYmluZGluZycsICctaW1hZScsICc8aW5maWxlLm1hZT4nLCAnLW9tYWUnLCAnPG91dGZpbGUubWFlPic=

> <r_lp_tautomer_probability>
1

> <r_epik_Ionization_Penalty>
0.00072031

> <r_epik_Ionization_Penalty_Charging>
0

> <r_epik_Ionization_Penalty_Neutral>
0.00072031

> <r_epik_State_Penalty>
-0

> <r_epik_Charging_Adjusted_Penalty>
0

> <i_epik_Tot_Q>
0

> <i_epik_Tot_abs_Q>
0

> <r_epik_Metal_State_Penalty>
-0

> <b_epik_Metal_Only>
0

> <s_lp_Force_Field>
OPLS_2005

> <r_lp_Energy>
7.60695

> <b_lp_Chiralities_Consistent>
1

> <s_lp_Variant>
AV-unprocessed.smi:2507-1

> <Gold.Version>
5.8.1

> <Gold.Id.Protein>
6NUR|6NUR_protein|mol2

> <Gold.PLP.Fitness>
44.2907

> <Gold.PLP.PLP>
-39.4470

> <Gold.PLP.part.hbond>
-3.0000

> <Gold.PLP.part.metal>
0.0000

> <Gold.PLP.part.buried>
-5.3691

> <Gold.PLP.part.nonpolar>
-31.6551

> <Gold.PLP.part.repulsive>
0.2164

> <Gold.PLP.ligand.clash>
0.0000

> <Gold.PLP.ligand.torsion>
1.1869

> <Gold.PLP.Chemscore.Hbond>
2.3921

> <Gold.PLP.Chemscore.CHOScore>
0.0000

> <Gold.PLP.Chemscore.Metal>
0.0000

> <Gold.Chemscore.Hbonds>
donor molecule, donor type, donor heavy atom, donor atom, acceptor molecule, acceptor atom, score
      L1  H     9    30       P1  8029  1.00
      L1  H    12    31       P1  8028  0.66

> <Gold.PLP.Chemscore.Internal.Correction>
0.0412

> <Gold.Rescore>
     Score         DG    S(hbond)    S(metal)    S(lipo)     H(rot)  DE(clash)    DE(int)     intcor
     15.96     -17.02       1.39        0.00      91.85       1.50       0.04       1.02       ----

> <Gold.Chemscore.Fitness>
15.9615

> <Gold.Chemscore.DG>
-17.0246

> <Gold.Chemscore.ZeroCoef>
-5.4800

> <Gold.Chemscore.Hbond>
1.3920

> <Gold.Chemscore.Metal>
0.0000

> <Gold.Chemscore.Lipo>
91.8470

> <Gold.Chemscore.Internal_Hbond>
0.0000

> <Gold.Chemscore.DEClash>
0.0389

> <Gold.Chemscore.DEInternal>
1.0242

> <Gold.Chemscore.Rot>
1.5042

> <Gold.Chemscore.Internal.Correction>
   9.000000E+99

> <Gold.Chemscore.Hbonds>
donor molecule, donor type, donor heavy atom, donor atom, acceptor molecule, acceptor atom, score
      L1  H     9    30       P1  8029  0.25
      L1  H    12    31       P1  8028  0.40

> <Gold.Chemscore.Hbond.Weighted>
-4.6491

> <Gold.Chemscore.Metal.Weighted>
-0.0000

> <Gold.Chemscore.Lipo.Weighted>
-10.7461

> <Gold.Chemscore.Internal_Hbond.Weighted>
0.0000

> <Gold.Chemscore.DEClash.Weighted>
0.0389

> <Gold.Chemscore.DEInternal.Weighted>
1.0242

> <Gold.Chemscore.Rot.Weighted>
3.8507

> <Gold.Chemscore.Internal.Correction.Weighted>
   9.000000E+99

> <Gold.Protein.RotatedTorsions>
[ 6907 6896 6895 6894 ] final   40.00 input  -60.11 | X-H torsion
[ 7974 7965 7964 7962 ] final  145.03 input  175.53 | X-H torsion
[ 8008 7997 7996 7995 ] final   99.23 input   59.86 | X-H torsion
[ 10167 10162 10161 10158 ] final   11.15 input  -65.29 | X-H torsion
[ 10718 10713 10712 10709 ] final    1.36 input   66.30 | X-H torsion
[ 10763 10752 10751 10750 ] final -102.95 input  -60.55 | X-H torsion
[ 11005 11000 10999 10996 ] final -170.75 input  -57.11 | X-H torsion

> <Gold.Protein.ActiveResidues>
 VAL166  LYS551  ARG553  GLY616  TRP617  ASP618  TYR619  PRO620  LYS621  CYS622 
 ASP623  PHE694  ASN695  SER759  ASP760  ASP761  ALA762  ILE779  LEU786  VAL792 
 PHE793  MET794  SER795  GLU796  ALA797  LYS798  CYS799  TRP800  GLU811  SER814 

> <Gold.Protein.RotatedAtoms>
  152.1768  134.8788  160.0529 H   0  0  0  0  0  0  0  0  0  0  0  0  # atno 6907 bound_to 6896
  151.9727  133.3726  159.4085 H   0  0  0  0  0  0  0  0  0  0  0  0  # atno 6908 bound_to 6896
  150.6911  134.4046  159.5178 H   0  0  0  0  0  0  0  0  0  0  0  0  # atno 6909 bound_to 6896
  144.8786  139.5734  143.5853 H   0  0  0  0  0  0  0  0  0  0  0  0  # atno 7974 bound_to 7965
  156.1084  140.3232  155.8038 H   0  0  0  0  0  0  0  0  0  0  0  0  # atno 8008 bound_to 7997
  155.4716  140.0547  157.2996 H   0  0  0  0  0  0  0  0  0  0  0  0  # atno 8009 bound_to 7997
  154.4743  140.2025  155.9931 H   0  0  0  0  0  0  0  0  0  0  0  0  # atno 8010 bound_to 7997
  140.6150  143.8328  150.7108 H   0  0  0  0  0  0  0  0  0  0  0  0  # atno 10167 bound_to 10162
  156.8471  130.5541  149.5673 H   0  0  0  0  0  0  0  0  0  0  0  0  # atno 10718 bound_to 10713
  154.7772  135.4841  153.9769 H   0  0  0  0  0  0  0  0  0  0  0  0  # atno 10763 bound_to 10752
  153.1445  135.6779  153.8984 H   0  0  0  0  0  0  0  0  0  0  0  0  # atno 10764 bound_to 10752
  153.8648  135.3151  155.3418 H   0  0  0  0  0  0  0  0  0  0  0  0  # atno 10765 bound_to 10752
  140.5160  134.5756  157.5033 H   0  0  0  0  0  0  0  0  0  0  0  0  # atno 11005 bound_to 11000
  146.2979  139.7336  142.9113 LP  0  0  0  0  0  0  0  0  0  0  0  0  # atno 17320 bound_to 7965
  145.3996  141.0383  143.3078 LP  0  0  0  0  0  0  0  0  0  0  0  0  # atno 17321 bound_to 7965
  140.1905  143.4040  152.1867 LP  0  0  0  0  0  0  0  0  0  0  0  0  # atno 17342 bound_to 10162
  139.5391  144.7239  151.4793 LP  0  0  0  0  0  0  0  0  0  0  0  0  # atno 17343 bound_to 10162
  156.0849  130.5850  150.9629 LP  0  0  0  0  0  0  0  0  0  0  0  0  # atno 17370 bound_to 10713
  157.6324  131.0919  150.8415 LP  0  0  0  0  0  0  0  0  0  0  0  0  # atno 17371 bound_to 10713
  139.9632  134.7417  156.0192 LP  0  0  0  0  0  0  0  0  0  0  0  0  # atno 17394 bound_to 11000
  141.1360  133.6575  156.3595 LP  0  0  0  0  0  0  0  0  0  0  0  0  # atno 17395 bound_to 11000

$$$$
