AV-unprocessed.smi:1220|AV-procd|sdf|5114|dock3
  -GOLD-   22720 4173D 1   1.00000     0.00000
 Structure written by MMmdl.
 35 36  0  0  0  0  0  0  0  0  1 V2000
  153.1831  142.3536  161.4091 C   0  0  0  0  0  0  0  0  0  0  0  0
  153.5613  141.8302  160.0169 C   0  0  2  0  0  0  0  0  0  0  0  0
  152.3778  141.9475  159.0320 C   0  0  0  0  0  0  0  0  0  0  0  0
  151.7470  143.2556  159.0625 N   0  0  0  0  0  0  0  0  0  0  0  0
  152.3442  144.4970  158.9949 C   0  0  0  0  0  0  0  0  0  0  0  0
  151.3518  145.4304  159.0826 C   0  0  0  0  0  0  0  0  0  0  0  0
  150.1659  144.6526  159.1969 C   0  0  0  0  0  0  0  0  0  0  0  0
  150.4052  143.3512  159.1802 N   0  0  0  0  0  0  0  0  0  0  0  0
  154.0003  140.4401  160.1350 N   0  0  0  0  0  0  0  0  0  0  0  0
  155.1561  139.9406  159.6684 C   0  0  0  0  0  0  0  0  0  0  0  0
  156.0167  140.6253  159.1149 O   0  0  0  0  0  0  0  0  0  0  0  0
  155.3577  138.4298  159.8306 C   0  0  2  0  0  0  0  0  0  0  0  0
  156.7395  137.9608  159.3265 C   0  0  0  0  0  0  0  0  0  0  0  0
  156.7244  136.4320  159.2222 C   0  0  0  0  0  0  0  0  0  0  0  0
  155.0147  135.9847  158.7408 S   0  0  0  0  0  0  0  0  0  0  0  0
  154.9646  135.7204  157.2951 O   0  0  0  0  0  0  0  0  0  0  0  0
  154.4859  135.0109  159.7075 O   0  0  0  0  0  0  0  0  0  0  0  0
  154.2836  137.6324  159.0697 C   0  0  0  0  0  0  0  0  0  0  0  0
  152.8774  143.3993  161.3645 H   0  0  0  0  0  0  0  0  0  0  0  0
  154.0272  142.2876  162.0964 H   0  0  0  0  0  0  0  0  0  0  0  0
  152.3577  141.7842  161.8378 H   0  0  0  0  0  0  0  0  0  0  0  0
  154.3831  142.4501  159.6537 H   0  0  0  0  0  0  0  0  0  0  0  0
  152.7067  141.7424  158.0124 H   0  0  0  0  0  0  0  0  0  0  0  0
  151.6178  141.2013  159.2683 H   0  0  0  0  0  0  0  0  0  0  0  0
  153.4140  144.6113  158.9001 H   0  0  0  0  0  0  0  0  0  0  0  0
  151.4566  146.5052  159.0691 H   0  0  0  0  0  0  0  0  0  0  0  0
  149.1452  144.9923  159.2902 H   0  0  0  0  0  0  0  0  0  0  0  0
  153.3571  139.8001  160.5779 H   0  0  0  0  0  0  0  0  0  0  0  0
  155.2853  138.1674  160.8877 H   0  0  0  0  0  0  0  0  0  0  0  0
  156.9370  138.3743  158.3363 H   0  0  0  0  0  0  0  0  0  0  0  0
  157.5436  138.3016  159.9793 H   0  0  0  0  0  0  0  0  0  0  0  0
  157.4367  136.0454  158.4933 H   0  0  0  0  0  0  0  0  0  0  0  0
  156.9321  135.9760  160.1902 H   0  0  0  0  0  0  0  0  0  0  0  0
  153.3630  137.5176  159.6421 H   0  0  0  0  0  0  0  0  0  0  0  0
  154.0374  138.0879  158.1092 H   0  0  0  0  0  0  0  0  0  0  0  0
  1  2  1  0  0  0  0
  1 19  1  0  0  0  0
  1 20  1  0  0  0  0
  1 21  1  0  0  0  0
  2  3  1  0  0  0  0
  2  9  1  0  0  0  0
  2 22  1  0  0  0  0
  3  4  1  0  0  0  0
  3 23  1  0  0  0  0
  3 24  1  0  0  0  0
  4  8  1  0  0  0  0
  4  5  1  0  0  0  0
  5  6  2  0  0  0  0
  5 25  1  0  0  0  0
  6  7  1  0  0  0  0
  6 26  1  0  0  0  0
  7  8  2  0  0  0  0
  7 27  1  0  0  0  0
  9 10  1  0  0  0  0
  9 28  1  0  0  0  0
 10 11  2  0  0  0  0
 10 12  1  0  0  0  0
 12 18  1  0  0  0  0
 12 13  1  0  0  0  0
 12 29  1  0  0  0  0
 13 14  1  0  0  0  0
 13 30  1  0  0  0  0
 13 31  1  0  0  0  0
 14 15  1  0  0  0  0
 14 32  1  0  0  0  0
 14 33  1  0  0  0  0
 15 16  2  0  0  0  0
 15 17  2  0  0  0  0
 15 18  1  0  0  0  0
 18 34  1  0  0  0  0
 18 35  1  0  0  0  0
M  END
> <s_m_source_file>
AV-unprocessed.smi

> <i_m_source_file_index>
1220

> <i_lp_mmshare_version>
43012

> <i_f3d_flags>
0

> <s_epik_input>
bjFbY0hdW2NIXVtjSF1uMVtDSDJdW0NAQEhdKFtDSDNdKVtOSF1DKD1PKVtDQEBIXShbQ0gyXTIpW0NIMl1bQ0gyXVMyKD1PKT1P

> <s_epik_cmdline>
J2VwaWtfcHl0aG9uJywgJy1waCcsICc3LjAnLCAnLXRuJywgJzgnLCAnLW1hJywgJzIwMCcsICctbWV0YWxfYmluZGluZycsICctaW1hZScsICc8aW5maWxlLm1hZT4nLCAnLW9tYWUnLCAnPG91dGZpbGUubWFlPic=

> <r_lp_tautomer_probability>
1

> <r_epik_Ionization_Penalty>
0.000293905

> <r_epik_Ionization_Penalty_Charging>
0

> <r_epik_Ionization_Penalty_Neutral>
0.000293905

> <r_epik_State_Penalty>
-0

> <r_epik_Charging_Adjusted_Penalty>
0

> <i_epik_Tot_Q>
0

> <i_epik_Tot_abs_Q>
0

> <r_epik_Metal_State_Penalty>
-0

> <b_epik_Metal_Only>
0

> <s_lp_Force_Field>
OPLS_2005

> <r_lp_Energy>
3.03909

> <b_lp_Chiralities_Consistent>
1

> <s_lp_Variant>
AV-unprocessed.smi:1220-1

> <Gold.Version>
5.8.1

> <Gold.Id.Protein>
6NUR|6NUR_protein|mol2

> <Gold.PLP.Fitness>
42.0930

> <Gold.PLP.PLP>
-30.8764

> <Gold.PLP.part.hbond>
-3.0000

> <Gold.PLP.part.metal>
0.0000

> <Gold.PLP.part.buried>
-3.7333

> <Gold.PLP.part.nonpolar>
-23.5226

> <Gold.PLP.part.repulsive>
0.1829

> <Gold.PLP.ligand.clash>
0.0000

> <Gold.PLP.ligand.torsion>
0.2590

> <Gold.PLP.Chemscore.Hbond>
2.9120

> <Gold.PLP.Chemscore.CHOScore>
0.9940

> <Gold.PLP.Chemscore.Metal>
0.0000

> <Gold.Chemscore.Hbonds>
donor molecule, donor type, donor heavy atom, donor atom, acceptor molecule, acceptor atom, score
      P1  H  6896  6908       L1    17  0.99
      P1  H  7997  8008       L1    11  0.64
      P1  H 10752 10764       L1    16  0.80
      L1  C     7    27       P1  8029  0.77

> <Gold.PLP.Chemscore.Internal.Correction>
0.0165

> <Gold.Rescore>
     Score         DG    S(hbond)    S(metal)    S(lipo)     H(rot)  DE(clash)    DE(int)     intcor
     18.64     -18.83       2.60        0.00      78.15       1.75       0.05       0.14       ----

> <Gold.Chemscore.Fitness>
18.6356

> <Gold.Chemscore.DG>
-18.8293

> <Gold.Chemscore.ZeroCoef>
-5.4800

> <Gold.Chemscore.Hbond>
2.5974

> <Gold.Chemscore.Metal>
0.0000

> <Gold.Chemscore.Lipo>
78.1505

> <Gold.Chemscore.Internal_Hbond>
0.0000

> <Gold.Chemscore.DEClash>
0.0491

> <Gold.Chemscore.DEInternal>
0.1446

> <Gold.Chemscore.Rot>
1.7460

> <Gold.Chemscore.Internal.Correction>
   9.000000E+99

> <Gold.Chemscore.Hbonds>
donor molecule, donor type, donor heavy atom, donor atom, acceptor molecule, acceptor atom, score
      P1  H  6896  6908       L1    17  0.92
      P1  H  7997  8008       L1    11  0.22
      P1  H 10752 10764       L1    16  0.79

> <Gold.Chemscore.Hbond.Weighted>
-8.6754

> <Gold.Chemscore.Metal.Weighted>
-0.0000

> <Gold.Chemscore.Lipo.Weighted>
-9.1436

> <Gold.Chemscore.Internal_Hbond.Weighted>
0.0000

> <Gold.Chemscore.DEClash.Weighted>
0.0491

> <Gold.Chemscore.DEInternal.Weighted>
0.1446

> <Gold.Chemscore.Rot.Weighted>
4.4697

> <Gold.Chemscore.Internal.Correction.Weighted>
   9.000000E+99

> <Gold.Protein.RotatedTorsions>
[ 6907 6896 6895 6894 ] final  -32.72 input  -60.11 | X-H torsion
[ 7974 7965 7964 7962 ] final   16.81 input  175.53 | X-H torsion
[ 8008 7997 7996 7995 ] final -162.25 input   59.86 | X-H torsion
[ 10167 10162 10161 10158 ] final  -44.34 input  -65.29 | X-H torsion
[ 10718 10713 10712 10709 ] final  145.65 input   66.30 | X-H torsion
[ 10763 10752 10751 10750 ] final   42.95 input  -60.55 | X-H torsion
[ 11005 11000 10999 10996 ] final  -39.15 input  -57.11 | X-H torsion

> <Gold.Protein.ActiveResidues>
 VAL166  LYS551  ARG553  GLY616  TRP617  ASP618  TYR619  PRO620  LYS621  CYS622 
 ASP623  PHE694  ASN695  SER759  ASP760  ASP761  ALA762  ILE779  LEU786  VAL792 
 PHE793  MET794  SER795  GLU796  ALA797  LYS798  CYS799  TRP800  GLU811  SER814 

> <Gold.Protein.RotatedAtoms>
  151.0750  134.9822  159.8327 H   0  0  0  0  0  0  0  0  0  0  0  0  # atno 6907 bound_to 6896
  152.5413  134.2252  159.8813 H   0  0  0  0  0  0  0  0  0  0  0  0  # atno 6908 bound_to 6896
  151.2279  133.4423  159.2636 H   0  0  0  0  0  0  0  0  0  0  0  0  # atno 6909 bound_to 6896
  146.2238  139.8694  142.8590 H   0  0  0  0  0  0  0  0  0  0  0  0  # atno 7974 bound_to 7965
  155.8040  140.0896  157.1941 H   0  0  0  0  0  0  0  0  0  0  0  0  # atno 8008 bound_to 7997
  154.3981  140.1467  156.3367 H   0  0  0  0  0  0  0  0  0  0  0  0  # atno 8009 bound_to 7997
  155.8433  140.3438  155.5648 H   0  0  0  0  0  0  0  0  0  0  0  0  # atno 8010 bound_to 7997
  140.6900  143.2935  151.3481 H   0  0  0  0  0  0  0  0  0  0  0  0  # atno 10167 bound_to 10162
  157.3427  131.0938  151.1068 H   0  0  0  0  0  0  0  0  0  0  0  0  # atno 10718 bound_to 10713
  152.9871  135.6116  154.3033 H   0  0  0  0  0  0  0  0  0  0  0  0  # atno 10763 bound_to 10752
  154.2752  135.2778  155.2723 H   0  0  0  0  0  0  0  0  0  0  0  0  # atno 10764 bound_to 10752
  154.5086  135.5847  153.6644 H   0  0  0  0  0  0  0  0  0  0  0  0  # atno 10765 bound_to 10752
  141.0081  133.6921  156.2149 H   0  0  0  0  0  0  0  0  0  0  0  0  # atno 11005 bound_to 11000
  145.2624  141.0081  143.3819 LP  0  0  0  0  0  0  0  0  0  0  0  0  # atno 17320 bound_to 7965
  144.9288  139.4323  143.6505 LP  0  0  0  0  0  0  0  0  0  0  0  0  # atno 17321 bound_to 7965
  139.6295  144.0749  152.2463 LP  0  0  0  0  0  0  0  0  0  0  0  0  # atno 17342 bound_to 10162
  140.0219  144.6146  150.7559 LP  0  0  0  0  0  0  0  0  0  0  0  0  # atno 17343 bound_to 10162
  157.2274  130.6509  149.5835 LP  0  0  0  0  0  0  0  0  0  0  0  0  # atno 17370 bound_to 10713
  155.9710  130.4610  150.6092 LP  0  0  0  0  0  0  0  0  0  0  0  0  # atno 17371 bound_to 10713
  140.6779  134.4798  157.5588 LP  0  0  0  0  0  0  0  0  0  0  0  0  # atno 17394 bound_to 11000
  139.9074  134.8418  156.1653 LP  0  0  0  0  0  0  0  0  0  0  0  0  # atno 17395 bound_to 11000

$$$$
