AV-unprocessed.smi:3335|AV-procd|sdf|12848|dock8
  -GOLD-   2272019233D 1   1.00000     0.00000
 Structure written by MMmdl.
 46 47  0  0  0  0  0  0  0  0  1 V2000
  144.1161  144.8881  153.7965 C   0  0  0  0  0  0  0  0  0  0  0  0
  144.8424  143.7675  154.4829 C   0  0  0  0  0  0  0  0  0  0  0  0
  144.9031  143.4915  155.8781 C   0  0  0  0  0  0  0  0  0  0  0  0
  145.6307  142.4234  156.1598 N   0  0  0  0  0  0  0  0  0  0  0  0
  146.0627  141.9793  154.9580 N   0  0  0  0  0  0  0  0  0  0  0  0
  146.9014  140.7901  154.8701 C   0  0  1  0  0  0  0  0  0  0  0  0
  146.8104  140.1840  153.4562 C   0  0  0  0  0  0  0  0  0  0  0  0
  148.3625  141.0775  155.3121 C   0  0  1  0  0  0  0  0  0  0  0  0
  149.2055  141.7730  154.2262 C   0  0  0  0  0  0  0  0  0  0  0  0
  148.3483  141.9638  156.4766 N   0  0  0  0  0  0  0  0  0  0  0  0
  149.5477  141.8786  157.3308 C   0  0  2  0  0  0  0  0  0  0  0  0
  149.7251  140.4366  157.8289 C   0  0  0  0  0  0  0  0  0  0  0  0
  149.5009  142.8471  158.5344 C   0  0  0  0  0  0  0  0  0  0  0  0
  148.5751  142.7420  159.3409 O   0  0  0  0  0  0  0  0  0  0  0  0
  150.4644  143.7834  158.6764 N   0  0  0  0  0  0  0  0  0  0  0  0
  151.6262  143.9754  157.8087 C   0  0  0  0  0  0  0  0  0  0  0  0
  152.5266  144.9771  158.5318 C   0  0  0  0  0  0  0  0  0  0  0  0
  151.5717  145.7637  159.4177 C   0  0  0  0  0  0  0  0  0  0  0  0
  150.4760  144.7568  159.7675 C   0  0  0  0  0  0  0  0  0  0  0  0
  145.5992  142.7736  153.9299 C   0  0  0  0  0  0  0  0  0  0  0  0
  144.6884  145.8153  153.8285 H   0  0  0  0  0  0  0  0  0  0  0  0
  143.1513  145.0888  154.2628 H   0  0  0  0  0  0  0  0  0  0  0  0
  143.9242  144.6642  152.7470 H   0  0  0  0  0  0  0  0  0  0  0  0
  144.4414  144.0332  156.6904 H   0  0  0  0  0  0  0  0  0  0  0  0
  146.4757  140.0634  155.5642 H   0  0  0  0  0  0  0  0  0  0  0  0
  147.2928  139.2079  153.4097 H   0  0  0  0  0  0  0  0  0  0  0  0
  147.2862  140.8253  152.7139 H   0  0  0  0  0  0  0  0  0  0  0  0
  145.7712  140.0426  153.1574 H   0  0  0  0  0  0  0  0  0  0  0  0
  148.8448  140.1268  155.5441 H   0  0  0  0  0  0  0  0  0  0  0  0
  149.3396  141.1361  153.3518 H   0  0  0  0  0  0  0  0  0  0  0  0
  150.2025  142.0169  154.5939 H   0  0  0  0  0  0  0  0  0  0  0  0
  148.7381  142.7001  153.8929 H   0  0  0  0  0  0  0  0  0  0  0  0
  148.1740  142.9141  156.1819 H   0  0  0  0  0  0  0  0  0  0  0  0
  150.4016  142.1086  156.6965 H   0  0  0  0  0  0  0  0  0  0  0  0
  150.6325  140.3325  158.4253 H   0  0  0  0  0  0  0  0  0  0  0  0
  149.8042  139.7416  156.9925 H   0  0  0  0  0  0  0  0  0  0  0  0
  148.8834  140.1182  158.4454 H   0  0  0  0  0  0  0  0  0  0  0  0
  152.1580  143.0423  157.6180 H   0  0  0  0  0  0  0  0  0  0  0  0
  151.2937  144.3840  156.8531 H   0  0  0  0  0  0  0  0  0  0  0  0
  153.2430  144.4407  159.1553 H   0  0  0  0  0  0  0  0  0  0  0  0
  153.0893  145.6119  157.8469 H   0  0  0  0  0  0  0  0  0  0  0  0
  152.0583  146.1832  160.2986 H   0  0  0  0  0  0  0  0  0  0  0  0
  151.1419  146.5887  158.8482 H   0  0  0  0  0  0  0  0  0  0  0  0
  149.5102  145.2501  159.8883 H   0  0  0  0  0  0  0  0  0  0  0  0
  150.7127  144.2419  160.6999 H   0  0  0  0  0  0  0  0  0  0  0  0
  145.8417  142.5663  152.8978 H   0  0  0  0  0  0  0  0  0  0  0  0
  1  2  1  0  0  0  0
  1 21  1  0  0  0  0
  1 22  1  0  0  0  0
  1 23  1  0  0  0  0
  2 20  2  0  0  0  0
  2  3  1  0  0  0  0
  3  4  2  0  0  0  0
  3 24  1  0  0  0  0
  4  5  1  0  0  0  0
  5  6  1  0  0  0  0
  5 20  1  0  0  0  0
  6  7  1  0  0  0  0
  6  8  1  0  0  0  0
  6 25  1  0  0  0  0
  7 26  1  0  0  0  0
  7 27  1  0  0  0  0
  7 28  1  0  0  0  0
  8  9  1  0  0  0  0
  8 10  1  0  0  0  0
  8 29  1  0  0  0  0
  9 30  1  0  0  0  0
  9 31  1  0  0  0  0
  9 32  1  0  0  0  0
 10 11  1  0  0  0  0
 10 33  1  0  0  0  0
 11 12  1  0  0  0  0
 11 13  1  0  0  0  0
 11 34  1  0  0  0  0
 12 35  1  0  0  0  0
 12 36  1  0  0  0  0
 12 37  1  0  0  0  0
 13 14  2  0  0  0  0
 13 15  1  0  0  0  0
 15 19  1  0  0  0  0
 15 16  1  0  0  0  0
 16 17  1  0  0  0  0
 16 38  1  0  0  0  0
 16 39  1  0  0  0  0
 17 18  1  0  0  0  0
 17 40  1  0  0  0  0
 17 41  1  0  0  0  0
 18 19  1  0  0  0  0
 18 42  1  0  0  0  0
 18 43  1  0  0  0  0
 19 44  1  0  0  0  0
 19 45  1  0  0  0  0
 20 46  1  0  0  0  0
M  END
> <s_m_source_file>
AV-unprocessed.smi

> <i_m_source_file_index>
3335

> <i_lp_mmshare_version>
43012

> <i_f3d_flags>
0

> <s_epik_input>
W0NIM11jMVtjSF1ubihbY0hdMSlbQ0BIXShbQ0gzXSlbQ0BIXShbQ0gzXSlbTkhdW0NASF0oW0NIM10pQyg9TylOMltDSDJdW0NIMl1bQ0gyXVtDSDJdMg==

> <s_epik_cmdline>
J2VwaWtfcHl0aG9uJywgJy1waCcsICc3LjAnLCAnLXRuJywgJzgnLCAnLW1hJywgJzIwMCcsICctbWV0YWxfYmluZGluZycsICctaW1hZScsICc8aW5maWxlLm1hZT4nLCAnLW9tYWUnLCAnPG91dGZpbGUubWFlPic=

> <r_lp_tautomer_probability>
1

> <r_epik_Ionization_Penalty>
0.918803

> <r_epik_Ionization_Penalty_Charging>
0

> <r_epik_Ionization_Penalty_Neutral>
0.918803

> <r_epik_State_Penalty>
0.958258

> <r_epik_Charging_Adjusted_Penalty>
0.958258

> <i_epik_Tot_Q>
0

> <i_epik_Tot_abs_Q>
0

> <r_epik_Metal_State_Penalty>
0.956786

> <b_epik_Metal_Only>
0

> <s_lp_Force_Field>
OPLS_2005

> <r_lp_Energy>
37.1843

> <b_lp_Chiralities_Consistent>
1

> <s_lp_Variant>
AV-unprocessed.smi:3335-12

> <Gold.Version>
5.8.1

> <Gold.Id.Protein>
6NUR|6NUR_protein|mol2

> <Gold.PLP.Fitness>
43.8594

> <Gold.PLP.PLP>
-42.0038

> <Gold.PLP.part.hbond>
-2.0000

> <Gold.PLP.part.metal>
0.0000

> <Gold.PLP.part.buried>
-3.6748

> <Gold.PLP.part.nonpolar>
-36.1412

> <Gold.PLP.part.repulsive>
0.2637

> <Gold.PLP.ligand.clash>
0.0000

> <Gold.PLP.ligand.torsion>
1.0301

> <Gold.PLP.Chemscore.Hbond>
1.2730

> <Gold.PLP.Chemscore.CHOScore>
0.0000

> <Gold.PLP.Chemscore.Metal>
0.0000

> <Gold.Chemscore.Hbonds>
donor molecule, donor type, donor heavy atom, donor atom, acceptor molecule, acceptor atom, score
      L1  H    10    33       P1  8028  1.00
      P1  H  6933  6944       L1    14  0.27

> <Gold.PLP.Chemscore.Internal.Correction>
0.0968

> <Gold.Rescore>
     Score         DG    S(hbond)    S(metal)    S(lipo)     H(rot)  DE(clash)    DE(int)     intcor
     16.46     -17.70       1.34        0.00     101.54       1.62       0.11       1.13       ----

> <Gold.Chemscore.Fitness>
16.4555

> <Gold.Chemscore.DG>
-17.6968

> <Gold.Chemscore.ZeroCoef>
-5.4800

> <Gold.Chemscore.Hbond>
1.3426

> <Gold.Chemscore.Metal>
0.0000

> <Gold.Chemscore.Lipo>
101.5429

> <Gold.Chemscore.Internal_Hbond>
0.0000

> <Gold.Chemscore.DEClash>
0.1133

> <Gold.Chemscore.DEInternal>
1.1279

> <Gold.Chemscore.Rot>
1.6204

> <Gold.Chemscore.Internal.Correction>
   9.000000E+99

> <Gold.Chemscore.Hbonds>
donor molecule, donor type, donor heavy atom, donor atom, acceptor molecule, acceptor atom, score
      L1  H    10    33       P1  8028  0.69
      P1  H  6933  6944       L1    14  0.27

> <Gold.Chemscore.Hbond.Weighted>
-4.4844

> <Gold.Chemscore.Metal.Weighted>
-0.0000

> <Gold.Chemscore.Lipo.Weighted>
-11.8805

> <Gold.Chemscore.Internal_Hbond.Weighted>
0.0000

> <Gold.Chemscore.DEClash.Weighted>
0.1133

> <Gold.Chemscore.DEInternal.Weighted>
1.1279

> <Gold.Chemscore.Rot.Weighted>
4.1482

> <Gold.Chemscore.Internal.Correction.Weighted>
   9.000000E+99

> <Gold.Protein.RotatedTorsions>
[ 6907 6896 6895 6894 ] final -119.06 input  -60.11 | X-H torsion
[ 7974 7965 7964 7962 ] final  136.80 input  175.53 | X-H torsion
[ 8008 7997 7996 7995 ] final -110.66 input   59.86 | X-H torsion
[ 10167 10162 10161 10158 ] final -159.93 input  -65.29 | X-H torsion
[ 10718 10713 10712 10709 ] final -136.37 input   66.30 | X-H torsion
[ 10763 10752 10751 10750 ] final  155.76 input  -60.55 | X-H torsion
[ 11005 11000 10999 10996 ] final  116.49 input  -57.11 | X-H torsion

> <Gold.Protein.ActiveResidues>
 VAL166  LYS551  ARG553  GLY616  TRP617  ASP618  TYR619  PRO620  LYS621  CYS622 
 ASP623  PHE694  ASN695  SER759  ASP760  ASP761  ALA762  ILE779  LEU786  VAL792 
 PHE793  MET794  SER795  GLU796  ALA797  LYS798  CYS799  TRP800  GLU811  SER814 

> <Gold.Protein.RotatedAtoms>
  150.8272  133.8151  159.3113 H   0  0  0  0  0  0  0  0  0  0  0  0  # atno 6907 bound_to 6896
  151.5892  135.1052  160.0044 H   0  0  0  0  0  0  0  0  0  0  0  0  # atno 6908 bound_to 6896
  152.4356  133.7314  159.6646 H   0  0  0  0  0  0  0  0  0  0  0  0  # atno 6909 bound_to 6896
  144.9529  139.4798  143.5517 H   0  0  0  0  0  0  0  0  0  0  0  0  # atno 7974 bound_to 7965
  154.9779  140.0396  157.2264 H   0  0  0  0  0  0  0  0  0  0  0  0  # atno 8008 bound_to 7997
  154.7741  140.2807  155.6092 H   0  0  0  0  0  0  0  0  0  0  0  0  # atno 8009 bound_to 7997
  156.2926  140.2604  156.2551 H   0  0  0  0  0  0  0  0  0  0  0  0  # atno 8010 bound_to 7997
  139.6577  143.9968  152.2205 H   0  0  0  0  0  0  0  0  0  0  0  0  # atno 10167 bound_to 10162
  156.2763  130.7295  151.1278 H   0  0  0  0  0  0  0  0  0  0  0  0  # atno 10718 bound_to 10713
  154.1735  135.2803  155.3074 H   0  0  0  0  0  0  0  0  0  0  0  0  # atno 10763 bound_to 10752
  154.6057  135.5515  153.7424 H   0  0  0  0  0  0  0  0  0  0  0  0  # atno 10764 bound_to 10752
  153.0158  135.6403  154.1875 H   0  0  0  0  0  0  0  0  0  0  0  0  # atno 10765 bound_to 10752
  139.9043  134.9598  156.7205 H   0  0  0  0  0  0  0  0  0  0  0  0  # atno 11005 bound_to 11000
  146.3327  139.8627  142.8853 LP  0  0  0  0  0  0  0  0  0  0  0  0  # atno 17320 bound_to 7965
  145.2816  141.0140  143.3714 LP  0  0  0  0  0  0  0  0  0  0  0  0  # atno 17321 bound_to 7965
  139.9699  144.6501  150.7999 LP  0  0  0  0  0  0  0  0  0  0  0  0  # atno 17342 bound_to 10162
  140.7566  143.3070  151.2937 LP  0  0  0  0  0  0  0  0  0  0  0  0  # atno 17343 bound_to 10162
  157.7300  131.0619  150.5745 LP  0  0  0  0  0  0  0  0  0  0  0  0  # atno 17370 bound_to 10713
  156.5847  130.4313  149.5962 LP  0  0  0  0  0  0  0  0  0  0  0  0  # atno 17371 bound_to 10713
  140.7004  133.9311  155.8021 LP  0  0  0  0  0  0  0  0  0  0  0  0  # atno 17394 bound_to 11000
  141.0376  134.0668  157.3941 LP  0  0  0  0  0  0  0  0  0  0  0  0  # atno 17395 bound_to 11000

$$$$
