AV-unprocessed.smi:3241|AV-procd|sdf|12385|dock1
  -GOLD-   2272018253D 1   1.00000     0.00000
 Structure written by MMmdl.
 44 45  0  0  0  0  0  0  0  0  2 V2000
  151.5357  145.4376  159.4570 C   0  0  0  0  0  0  0  0  0  0  0  0
  151.7833  144.0092  159.9695 C   0  0  2  0  0  0  0  0  0  0  0  0
  152.2984  144.0362  161.4227 C   0  0  0  0  0  0  0  0  0  0  0  0
  152.5588  142.6219  161.9618 C   0  0  0  0  0  0  0  0  0  0  0  0
  153.5358  141.8592  161.0570 C   0  0  0  0  0  0  0  0  0  0  0  0
  153.0269  141.8160  159.6088 C   0  0  0  0  0  0  0  0  0  0  0  0
  152.7609  143.2334  159.0572 C   0  0  1  0  0  0  0  0  0  0  0  0
  152.1709  143.1436  157.7656 O   0  0  0  0  0  0  0  0  0  0  0  0
  150.8514  142.6189  157.7520 C   0  0  0  0  0  0  0  0  0  0  0  0
  150.6501  141.8456  156.4450 C   0  0  0  0  0  0  0  0  0  0  0  0
  149.2798  142.0274  155.9273 N   0  3  0  0  0  0  0  0  0  0  0  0
  149.0506  141.4114  154.6065 C   0  0  0  0  0  0  0  0  0  0  0  0
  147.5873  141.5717  154.1703 C   0  0  0  0  0  0  0  0  0  0  0  0
  147.0553  140.3443  153.6109 N   0  0  0  0  0  0  0  0  0  0  0  0
  146.9627  139.9736  152.2858 C   0  0  0  0  0  0  0  0  0  0  0  0
  146.3907  138.7341  152.2502 C   0  0  0  0  0  0  0  0  0  0  0  0
  146.1633  138.4271  153.6209 C   0  0  0  0  0  0  0  0  0  0  0  0
  146.5614  139.3937  154.4328 N   0  0  0  0  0  0  0  0  0  0  0  0
  152.4616  146.0125  159.4230 H   0  0  0  0  0  0  0  0  0  0  0  0
  150.8374  145.9699  160.1032 H   0  0  0  0  0  0  0  0  0  0  0  0
  151.1101  145.4328  158.4533 H   0  0  0  0  0  0  0  0  0  0  0  0
  150.8263  143.4852  159.9650 H   0  0  0  0  0  0  0  0  0  0  0  0
  153.2192  144.6191  161.4768 H   0  0  0  0  0  0  0  0  0  0  0  0
  151.5768  144.5419  162.0653 H   0  0  0  0  0  0  0  0  0  0  0  0
  152.9567  142.6776  162.9754 H   0  0  0  0  0  0  0  0  0  0  0  0
  151.6171  142.0755  162.0287 H   0  0  0  0  0  0  0  0  0  0  0  0
  154.5148  142.3393  161.0872 H   0  0  0  0  0  0  0  0  0  0  0  0
  153.6760  140.8452  161.4327 H   0  0  0  0  0  0  0  0  0  0  0  0
  153.7562  141.2921  158.9916 H   0  0  0  0  0  0  0  0  0  0  0  0
  152.1084  141.2290  159.5658 H   0  0  0  0  0  0  0  0  0  0  0  0
  153.6992  143.7894  159.0051 H   0  0  0  0  0  0  0  0  0  0  0  0
  150.7188  141.9422  158.5974 H   0  0  0  0  0  0  0  0  0  0  0  0
  150.1053  143.4085  157.8439 H   0  0  0  0  0  0  0  0  0  0  0  0
  151.3766  142.1729  155.7001 H   0  0  0  0  0  0  0  0  0  0  0  0
  150.8227  140.7826  156.6180 H   0  0  0  0  0  0  0  0  0  0  0  0
  148.6290  141.6271  156.5880 H   0  0  0  0  0  0  0  0  0  0  0  0
  149.7102  141.8777  153.8731 H   0  0  0  0  0  0  0  0  0  0  0  0
  149.3169  140.3547  154.6551 H   0  0  0  0  0  0  0  0  0  0  0  0
  146.9640  141.8657  155.0161 H   0  0  0  0  0  0  0  0  0  0  0  0
  147.4986  142.3602  153.4217 H   0  0  0  0  0  0  0  0  0  0  0  0
  147.3072  140.6139  151.4872 H   0  0  0  0  0  0  0  0  0  0  0  0
  146.1670  138.1379  151.3780 H   0  0  0  0  0  0  0  0  0  0  0  0
  145.7232  137.5373  154.0465 H   0  0  0  0  0  0  0  0  0  0  0  0
  149.0983  143.0185  155.8547 H   0  0  0  0  0  0  0  0  0  0  0  0
  1  2  1  0  0  0  0
  1 19  1  0  0  0  0
  1 20  1  0  0  0  0
  1 21  1  0  0  0  0
  2  7  1  0  0  0  0
  2  3  1  0  0  0  0
  2 22  1  0  0  0  0
  3  4  1  0  0  0  0
  3 23  1  0  0  0  0
  3 24  1  0  0  0  0
  4  5  1  0  0  0  0
  4 25  1  0  0  0  0
  4 26  1  0  0  0  0
  5  6  1  0  0  0  0
  5 27  1  0  0  0  0
  5 28  1  0  0  0  0
  6  7  1  0  0  0  0
  6 29  1  0  0  0  0
  6 30  1  0  0  0  0
  7  8  1  0  0  0  0
  7 31  1  0  0  0  0
  8  9  1  0  0  0  0
  9 10  1  0  0  0  0
  9 32  1  0  0  0  0
  9 33  1  0  0  0  0
 10 11  1  0  0  0  0
 10 34  1  0  0  0  0
 10 35  1  0  0  0  0
 11 12  1  0  0  0  0
 11 36  1  0  0  0  0
 11 44  1  0  0  0  0
 12 13  1  0  0  0  0
 12 37  1  0  0  0  0
 12 38  1  0  0  0  0
 13 14  1  0  0  0  0
 13 39  1  0  0  0  0
 13 40  1  0  0  0  0
 14 18  1  0  0  0  0
 14 15  1  0  0  0  0
 15 16  2  0  0  0  0
 15 41  1  0  0  0  0
 16 17  1  0  0  0  0
 16 42  1  0  0  0  0
 17 18  2  0  0  0  0
 17 43  1  0  0  0  0
M  CHG  1  11   1
M  END
> <s_m_source_file>
AV-unprocessed.smi

> <i_m_source_file_index>
3241

> <i_lp_mmshare_version>
43012

> <i_f3d_flags>
0

> <s_epik_input>
W0NIM11bQ0BASF0xW0NIMl1bQ0gyXVtDSDJdW0NIMl1bQ0BIXTFPW0NIMl1bQ0gyXVtOSF1bQ0gyXVtDSDJdbjJbY0hdW2NIXVtjSF1uMg==

> <s_epik_cmdline>
J2VwaWtfcHl0aG9uJywgJy1waCcsICc3LjAnLCAnLXRuJywgJzgnLCAnLW1hJywgJzIwMCcsICctbWV0YWxfYmluZGluZycsICctaW1hZScsICc8aW5maWxlLm1hZT4nLCAnLW9tYWUnLCAnPG91dGZpbGUubWFlPic=

> <r_lp_tautomer_probability>
1

> <r_epik_Ionization_Penalty>
0.00924946

> <r_epik_Ionization_Penalty_Charging>
0.00924645

> <r_epik_Ionization_Penalty_Neutral>
3.00629e-06

> <r_epik_State_Penalty>
0.0070118

> <r_epik_Charging_Adjusted_Penalty>
0.0162583

> <i_epik_Tot_Q>
1

> <i_epik_Tot_abs_Q>
1

> <r_epik_Metal_State_Penalty>
0.00702523

> <b_epik_Metal_Only>
0

> <s_lp_Force_Field>
OPLS_2005

> <r_lp_Energy>
13.7412

> <b_lp_Chiralities_Consistent>
1

> <s_lp_Variant>
AV-unprocessed.smi:3241-1

> <Gold.Version>
5.8.1

> <Gold.Id.Protein>
6NUR|6NUR_protein|mol2

> <Gold.PLP.Fitness>
52.6767

> <Gold.PLP.PLP>
-47.3501

> <Gold.PLP.part.hbond>
-1.0000

> <Gold.PLP.part.metal>
0.0000

> <Gold.PLP.part.buried>
0.4024

> <Gold.PLP.part.nonpolar>
-47.9390

> <Gold.PLP.part.repulsive>
0.2891

> <Gold.PLP.ligand.clash>
0.0000

> <Gold.PLP.ligand.torsion>
1.1589

> <Gold.PLP.Chemscore.Hbond>
2.0000

> <Gold.PLP.Chemscore.CHOScore>
0.4470

> <Gold.PLP.Chemscore.Metal>
0.0000

> <Gold.Chemscore.Hbonds>
donor molecule, donor type, donor heavy atom, donor atom, acceptor molecule, acceptor atom, score
      L1  H    11    44       P1  8028  2.00
      L1  C    15    41       P1  7957  0.53

> <Gold.PLP.Chemscore.Internal.Correction>
0.3034

> <Gold.Rescore>
     Score         DG    S(hbond)    S(metal)    S(lipo)     H(rot)  DE(clash)    DE(int)     intcor
     16.66     -19.42       1.00        0.00     131.99       1.89       1.52       1.24       ----

> <Gold.Chemscore.Fitness>
16.6635

> <Gold.Chemscore.DG>
-19.4231

> <Gold.Chemscore.ZeroCoef>
-5.4800

> <Gold.Chemscore.Hbond>
1.0000

> <Gold.Chemscore.Metal>
0.0000

> <Gold.Chemscore.Lipo>
131.9927

> <Gold.Chemscore.Internal_Hbond>
0.0000

> <Gold.Chemscore.DEClash>
1.5168

> <Gold.Chemscore.DEInternal>
1.2428

> <Gold.Chemscore.Rot>
1.8906

> <Gold.Chemscore.Internal.Correction>
   9.000000E+99

> <Gold.Chemscore.Hbonds>
donor molecule, donor type, donor heavy atom, donor atom, acceptor molecule, acceptor atom, score
      L1  H    11    44       P1  8028  1.00

> <Gold.Chemscore.Hbond.Weighted>
-3.3400

> <Gold.Chemscore.Metal.Weighted>
-0.0000

> <Gold.Chemscore.Lipo.Weighted>
-15.4431

> <Gold.Chemscore.Internal_Hbond.Weighted>
0.0000

> <Gold.Chemscore.DEClash.Weighted>
1.5168

> <Gold.Chemscore.DEInternal.Weighted>
1.2428

> <Gold.Chemscore.Rot.Weighted>
4.8400

> <Gold.Chemscore.Internal.Correction.Weighted>
   9.000000E+99

> <Gold.Protein.RotatedTorsions>
[ 6907 6896 6895 6894 ] final   96.63 input  -60.11 | X-H torsion
[ 7974 7965 7964 7962 ] final  -43.88 input  175.53 | X-H torsion
[ 8008 7997 7996 7995 ] final -172.09 input   59.86 | X-H torsion
[ 10167 10162 10161 10158 ] final -179.48 input  -65.29 | X-H torsion
[ 10718 10713 10712 10709 ] final   15.76 input   66.30 | X-H torsion
[ 10763 10752 10751 10750 ] final -117.72 input  -60.55 | X-H torsion
[ 11005 11000 10999 10996 ] final  -30.58 input  -57.11 | X-H torsion

> <Gold.Protein.ActiveResidues>
 VAL166  LYS551  ARG553  GLY616  TRP617  ASP618  TYR619  PRO620  LYS621  CYS622 
 ASP623  PHE694  ASN695  SER759  ASP760  ASP761  ALA762  ILE779  LEU786  VAL792 
 PHE793  MET794  SER795  GLU796  ALA797  LYS798  CYS799  TRP800  GLU811  SER814 

> <Gold.Protein.RotatedAtoms>
  152.5433  134.0857  159.8254 H   0  0  0  0  0  0  0  0  0  0  0  0  # atno 6907 bound_to 6896
  151.0953  133.5277  159.2620 H   0  0  0  0  0  0  0  0  0  0  0  0  # atno 6908 bound_to 6896
  151.2052  135.0468  159.8943 H   0  0  0  0  0  0  0  0  0  0  0  0  # atno 6909 bound_to 6896
  145.9976  140.7111  142.9286 H   0  0  0  0  0  0  0  0  0  0  0  0  # atno 7974 bound_to 7965
  155.9401  140.1107  157.1062 H   0  0  0  0  0  0  0  0  0  0  0  0  # atno 8008 bound_to 7997
  154.4087  140.1220  156.4982 H   0  0  0  0  0  0  0  0  0  0  0  0  # atno 8009 bound_to 7997
  155.6972  140.3472  155.4920 H   0  0  0  0  0  0  0  0  0  0  0  0  # atno 8010 bound_to 7997
  139.5384  144.2431  152.0844 H   0  0  0  0  0  0  0  0  0  0  0  0  # atno 10167 bound_to 10162
  157.0581  130.6297  149.5780 H   0  0  0  0  0  0  0  0  0  0  0  0  # atno 10718 bound_to 10713
  154.8564  135.4299  154.2024 H   0  0  0  0  0  0  0  0  0  0  0  0  # atno 10763 bound_to 10752
  153.3068  135.6973  153.7158 H   0  0  0  0  0  0  0  0  0  0  0  0  # atno 10764 bound_to 10752
  153.6266  135.3492  155.3002 H   0  0  0  0  0  0  0  0  0  0  0  0  # atno 10765 bound_to 10752
  140.9395  133.7287  156.1055 H   0  0  0  0  0  0  0  0  0  0  0  0  # atno 11005 bound_to 11000
  144.6909  140.3177  143.7237 LP  0  0  0  0  0  0  0  0  0  0  0  0  # atno 17320 bound_to 7965
  145.7536  139.1802  143.2307 LP  0  0  0  0  0  0  0  0  0  0  0  0  # atno 17321 bound_to 7965
  140.1906  144.4756  150.6481 LP  0  0  0  0  0  0  0  0  0  0  0  0  # atno 17342 bound_to 10162
  140.6603  143.2250  151.5873 LP  0  0  0  0  0  0  0  0  0  0  0  0  # atno 17343 bound_to 10162
  155.9987  130.5061  150.7579 LP  0  0  0  0  0  0  0  0  0  0  0  0  # atno 17370 bound_to 10713
  157.4976  131.0916  151.0352 LP  0  0  0  0  0  0  0  0  0  0  0  0  # atno 17371 bound_to 10713
  140.7753  134.3786  157.5499 LP  0  0  0  0  0  0  0  0  0  0  0  0  # atno 17394 bound_to 11000
  139.8816  134.9048  156.2885 LP  0  0  0  0  0  0  0  0  0  0  0  0  # atno 17395 bound_to 11000

$$$$
