AV-unprocessed.smi:2007|AV-procd|sdf|8134|dock10
  -GOLD-   2272010373D 1   1.00000     0.00000
 Structure written by MMmdl.
 36 37  0  0  0  0  0  0  0  0  1 V2000
  147.8120  141.7069  154.1406 C   0  0  0  0  0  0  0  0  0  0  0  0
  148.3694  141.3985  155.5366 C   0  0  1  0  0  0  0  0  0  0  0  0
  149.9117  141.3179  155.5140 C   0  0  0  0  0  0  0  0  0  0  0  0
  150.4776  139.9686  155.5508 N   0  0  0  0  0  0  0  0  0  0  0  0
  150.1736  139.1957  154.3481 C   0  0  0  0  0  0  0  0  0  0  0  0
  150.7864  137.7857  154.4055 C   0  0  0  0  0  0  0  0  0  0  0  0
  152.1933  137.8832  154.6032 O   0  0  0  0  0  0  0  0  0  0  0  0
  152.5329  138.5956  155.7883 C   0  0  0  0  0  0  0  0  0  0  0  0
  151.9241  140.0076  155.7326 C   0  0  0  0  0  0  0  0  0  0  0  0
  147.9293  142.4402  156.4636 N   0  0  0  0  0  0  0  0  0  0  0  0
  147.3910  142.2371  157.6755 C   0  0  0  0  0  0  0  0  0  0  0  0
  147.1775  141.1210  158.1500 O   0  0  0  0  0  0  0  0  0  0  0  0
  147.1259  143.4039  158.2887 N   0  0  0  0  0  0  0  0  0  0  0  0
  146.5772  143.6114  159.5813 C   0  0  0  0  0  0  0  0  0  0  0  0
  146.7348  142.7729  160.6124 N   0  0  0  0  0  0  0  0  0  0  0  0
  146.0885  143.2300  161.7636 C   0  0  0  0  0  0  0  0  0  0  0  0
  145.4386  144.4266  161.5899 C   0  0  0  0  0  0  0  0  0  0  0  0
  145.6134  145.0305  159.9636 S   0  0  0  0  0  0  0  0  0  0  0  0
  148.1023  140.9376  153.4245 H   0  0  0  0  0  0  0  0  0  0  0  0
  148.1786  142.6637  153.7672 H   0  0  0  0  0  0  0  0  0  0  0  0
  146.7223  141.7487  154.1534 H   0  0  0  0  0  0  0  0  0  0  0  0
  147.9549  140.4337  155.8303 H   0  0  0  0  0  0  0  0  0  0  0  0
  150.2874  141.8410  154.6333 H   0  0  0  0  0  0  0  0  0  0  0  0
  150.2847  141.8799  156.3714 H   0  0  0  0  0  0  0  0  0  0  0  0
  149.0970  139.0996  154.2169 H   0  0  0  0  0  0  0  0  0  0  0  0
  150.5498  139.7177  153.4672 H   0  0  0  0  0  0  0  0  0  0  0  0
  150.3373  137.2039  155.2119 H   0  0  0  0  0  0  0  0  0  0  0  0
  150.5925  137.2496  153.4766 H   0  0  0  0  0  0  0  0  0  0  0  0
  152.1713  138.0535  156.6635 H   0  0  0  0  0  0  0  0  0  0  0  0
  153.6181  138.6531  155.8715 H   0  0  0  0  0  0  0  0  0  0  0  0
  152.3848  140.5676  154.9172 H   0  0  0  0  0  0  0  0  0  0  0  0
  152.1678  140.5394  156.6529 H   0  0  0  0  0  0  0  0  0  0  0  0
  148.0652  143.3941  156.1632 H   0  0  0  0  0  0  0  0  0  0  0  0
  147.3521  144.2424  157.7745 H   0  0  0  0  0  0  0  0  0  0  0  0
  146.1430  142.6391  162.6658 H   0  0  0  0  0  0  0  0  0  0  0  0
  144.8703  144.9871  162.3173 H   0  0  0  0  0  0  0  0  0  0  0  0
  1  2  1  0  0  0  0
  1 19  1  0  0  0  0
  1 20  1  0  0  0  0
  1 21  1  0  0  0  0
  2  3  1  0  0  0  0
  2 10  1  0  0  0  0
  2 22  1  0  0  0  0
  3  4  1  0  0  0  0
  3 23  1  0  0  0  0
  3 24  1  0  0  0  0
  4  9  1  0  0  0  0
  4  5  1  0  0  0  0
  5  6  1  0  0  0  0
  5 25  1  0  0  0  0
  5 26  1  0  0  0  0
  6  7  1  0  0  0  0
  6 27  1  0  0  0  0
  6 28  1  0  0  0  0
  7  8  1  0  0  0  0
  8  9  1  0  0  0  0
  8 29  1  0  0  0  0
  8 30  1  0  0  0  0
  9 31  1  0  0  0  0
  9 32  1  0  0  0  0
 10 11  1  0  0  0  0
 10 33  1  0  0  0  0
 11 12  2  0  0  0  0
 11 13  1  0  0  0  0
 13 14  1  0  0  0  0
 13 34  1  0  0  0  0
 14 18  1  0  0  0  0
 14 15  2  0  0  0  0
 15 16  1  0  0  0  0
 16 17  2  0  0  0  0
 16 35  1  0  0  0  0
 17 18  1  0  0  0  0
 17 36  1  0  0  0  0
M  END
> <s_m_source_file>
AV-unprocessed.smi

> <i_m_source_file_index>
2007

> <i_lp_mmshare_version>
43012

> <i_f3d_flags>
0

> <s_epik_input>
W0NIMl0xW0NIMl1PW0NIMl1bQ0gyXU4xW0NIMl1bQ0BASF0oW0NIM10pW05IXUMoPU8pW05IXWMybltjSF1bY0hdczI=

> <s_epik_cmdline>
J2VwaWtfcHl0aG9uJywgJy1waCcsICc3LjAnLCAnLXRuJywgJzgnLCAnLW1hJywgJzIwMCcsICctbWV0YWxfYmluZGluZycsICctaW1hZScsICc8aW5maWxlLm1hZT4nLCAnLW9tYWUnLCAnPG91dGZpbGUubWFlPic=

> <r_lp_tautomer_probability>
0.999

> <r_epik_Ionization_Penalty>
0.219197

> <r_epik_Ionization_Penalty_Charging>
0

> <r_epik_Ionization_Penalty_Neutral>
0.219197

> <r_epik_State_Penalty>
0.209349

> <r_epik_Charging_Adjusted_Penalty>
0.209349

> <i_epik_Tot_Q>
0

> <i_epik_Tot_abs_Q>
0

> <r_epik_Metal_State_Penalty>
0.254604

> <b_epik_Metal_Only>
0

> <s_lp_Force_Field>
OPLS_2005

> <r_lp_Energy>
23.7512

> <b_lp_Chiralities_Consistent>
1

> <s_lp_Variant>
AV-unprocessed.smi:2007-2

> <Gold.Version>
5.8.1

> <Gold.Id.Protein>
6NUR|6NUR_protein|mol2

> <Gold.PLP.Fitness>
41.7122

> <Gold.PLP.PLP>
-33.3033

> <Gold.PLP.part.hbond>
-5.5396

> <Gold.PLP.part.metal>
0.0000

> <Gold.PLP.part.buried>
-3.5771

> <Gold.PLP.part.nonpolar>
-25.7900

> <Gold.PLP.part.repulsive>
0.2272

> <Gold.PLP.ligand.clash>
0.0000

> <Gold.PLP.ligand.torsion>
0.9858

> <Gold.PLP.Chemscore.Hbond>
3.4556

> <Gold.PLP.Chemscore.CHOScore>
0.0000

> <Gold.PLP.Chemscore.Metal>
0.0000

> <Gold.Chemscore.Hbonds>
donor molecule, donor type, donor heavy atom, donor atom, acceptor molecule, acceptor atom, score
      L1  H    10    33       P1  8028  1.00
      L1  H    13    34       P1  8029  0.70
      P1  H  6933  6944       L1    15  0.78
      P1  H  6934  6946       L1    15  0.93

> <Gold.PLP.Chemscore.Internal.Correction>
0.0137

> <Gold.Rescore>
     Score         DG    S(hbond)    S(metal)    S(lipo)     H(rot)  DE(clash)    DE(int)     intcor
     14.23     -16.48       2.23        0.00      64.99       1.58       0.20       2.06       ----

> <Gold.Chemscore.Fitness>
14.2267

> <Gold.Chemscore.DG>
-16.4843

> <Gold.Chemscore.ZeroCoef>
-5.4800

> <Gold.Chemscore.Hbond>
2.2311

> <Gold.Chemscore.Metal>
0.0000

> <Gold.Chemscore.Lipo>
64.9900

> <Gold.Chemscore.Internal_Hbond>
0.0000

> <Gold.Chemscore.DEClash>
0.2013

> <Gold.Chemscore.DEInternal>
2.0563

> <Gold.Chemscore.Rot>
1.5825

> <Gold.Chemscore.Internal.Correction>
   9.000000E+99

> <Gold.Chemscore.Hbonds>
donor molecule, donor type, donor heavy atom, donor atom, acceptor molecule, acceptor atom, score
      L1  H    10    33       P1  8028  0.25
      L1  H    13    34       P1  8029  0.07
      P1  H  6933  6944       L1    15  0.15
      P1  H  6934  6946       L1    15  0.62

> <Gold.Chemscore.Hbond.Weighted>
-7.4517

> <Gold.Chemscore.Metal.Weighted>
-0.0000

> <Gold.Chemscore.Lipo.Weighted>
-7.6038

> <Gold.Chemscore.Internal_Hbond.Weighted>
0.0000

> <Gold.Chemscore.DEClash.Weighted>
0.2013

> <Gold.Chemscore.DEInternal.Weighted>
2.0563

> <Gold.Chemscore.Rot.Weighted>
4.0512

> <Gold.Chemscore.Internal.Correction.Weighted>
   9.000000E+99

> <Gold.Protein.RotatedTorsions>
[ 6907 6896 6895 6894 ] final   19.05 input  -60.11 | X-H torsion
[ 7974 7965 7964 7962 ] final  -78.15 input  175.53 | X-H torsion
[ 8008 7997 7996 7995 ] final  -62.22 input   59.86 | X-H torsion
[ 10167 10162 10161 10158 ] final   -4.82 input  -65.29 | X-H torsion
[ 10718 10713 10712 10709 ] final  178.29 input   66.30 | X-H torsion
[ 10763 10752 10751 10750 ] final  125.02 input  -60.55 | X-H torsion
[ 11005 11000 10999 10996 ] final  -10.58 input  -57.11 | X-H torsion

> <Gold.Protein.ActiveResidues>
 VAL166  LYS551  ARG553  GLY616  TRP617  ASP618  TYR619  PRO620  LYS621  CYS622 
 ASP623  PHE694  ASN695  SER759  ASP760  ASP761  ALA762  ILE779  LEU786  VAL792 
 PHE793  MET794  SER795  GLU796  ALA797  LYS798  CYS799  TRP800  GLU811  SER814 

> <Gold.Protein.RotatedAtoms>
  151.8748  135.0476  160.0482 H   0  0  0  0  0  0  0  0  0  0  0  0  # atno 6907 bound_to 6896
  152.2560  133.5251  159.5361 H   0  0  0  0  0  0  0  0  0  0  0  0  # atno 6908 bound_to 6896
  150.7100  134.0812  159.3941 H   0  0  0  0  0  0  0  0  0  0  0  0  # atno 6909 bound_to 6896
  145.5902  140.9431  143.1296 H   0  0  0  0  0  0  0  0  0  0  0  0  # atno 7974 bound_to 7965
  154.4488  140.1001  156.6553 H   0  0  0  0  0  0  0  0  0  0  0  0  # atno 8008 bound_to 7997
  155.5353  140.3482  155.4416 H   0  0  0  0  0  0  0  0  0  0  0  0  # atno 8009 bound_to 7997
  156.0635  140.1332  156.9902 H   0  0  0  0  0  0  0  0  0  0  0  0  # atno 8010 bound_to 7997
  140.6941  143.6379  150.8462 H   0  0  0  0  0  0  0  0  0  0  0  0  # atno 10167 bound_to 10162
  156.8927  130.9853  151.3047 H   0  0  0  0  0  0  0  0  0  0  0  0  # atno 10718 bound_to 10713
  153.6707  135.3331  155.3152 H   0  0  0  0  0  0  0  0  0  0  0  0  # atno 10763 bound_to 10752
  154.8491  135.4385  154.1708 H   0  0  0  0  0  0  0  0  0  0  0  0  # atno 10764 bound_to 10752
  153.2698  135.6999  153.7568 H   0  0  0  0  0  0  0  0  0  0  0  0  # atno 10765 bound_to 10752
  140.7462  133.8629  155.9007 H   0  0  0  0  0  0  0  0  0  0  0  0  # atno 11005 bound_to 11000
  144.7354  139.7600  143.7331 LP  0  0  0  0  0  0  0  0  0  0  0  0  # atno 17320 bound_to 7965
  146.1652  139.4781  142.9963 LP  0  0  0  0  0  0  0  0  0  0  0  0  # atno 17321 bound_to 7965
  140.0095  143.5657  152.2844 LP  0  0  0  0  0  0  0  0  0  0  0  0  # atno 17342 bound_to 10162
  139.6376  144.7651  151.2405 LP  0  0  0  0  0  0  0  0  0  0  0  0  # atno 17343 bound_to 10162
  157.6074  130.8557  149.8897 LP  0  0  0  0  0  0  0  0  0  0  0  0  # atno 17370 bound_to 10713
  156.0621  130.3698  150.0959 LP  0  0  0  0  0  0  0  0  0  0  0  0  # atno 17371 bound_to 10713
  140.9792  134.1428  157.4509 LP  0  0  0  0  0  0  0  0  0  0  0  0  # atno 17394 bound_to 11000
  139.8796  135.0005  156.6012 LP  0  0  0  0  0  0  0  0  0  0  0  0  # atno 17395 bound_to 11000

$$$$
