AV-unprocessed.smi:2412|AV-procd|sdf|9532|dock3
  -GOLD-   2272013163D 1   1.00000     0.00000
 Structure written by MMmdl.
 37 38  0  0  0  0  0  0  0  0  1 V2000
  145.3840  135.7145  151.1892 C   0  0  0  0  0  0  0  0  0  0  0  0
  145.2864  134.2047  151.0561 C   0  0  0  0  0  0  0  0  0  0  0  0
  144.2114  133.6295  150.3445 C   0  0  0  0  0  0  0  0  0  0  0  0
  144.0535  132.3005  150.1767 N   0  0  0  0  0  0  0  0  0  0  0  0
  144.9811  131.4845  150.7174 C   0  0  0  0  0  0  0  0  0  0  0  0
  146.0931  131.9495  151.4458 C   0  0  0  0  0  0  0  0  0  0  0  0
  146.2504  133.3439  151.6354 C   0  0  0  0  0  0  0  0  0  0  0  0
  147.3487  133.9184  152.3365 N   0  0  0  0  0  0  0  0  0  0  0  0
  148.0117  133.4396  153.4035 C   0  0  0  0  0  0  0  0  0  0  0  0
  147.7481  132.3953  153.9996 O   0  0  0  0  0  0  0  0  0  0  0  0
  149.0091  134.2617  153.7626 N   0  0  0  0  0  0  0  0  0  0  0  0
  149.9381  134.0242  154.8663 C   0  0  0  0  0  0  0  0  0  0  0  0
  150.5273  135.3184  155.4581 C   0  0  0  0  0  0  0  0  0  0  0  0
  151.3314  135.9845  154.8032 O   0  0  0  0  0  0  0  0  0  0  0  0
  150.1269  135.6943  156.6906 N   0  0  0  0  0  0  0  0  0  0  0  0
  149.1697  134.9798  157.5351 C   0  0  0  0  0  0  0  0  0  0  0  0
  149.2057  135.6855  158.8915 C   0  0  0  0  0  0  0  0  0  0  0  0
  149.6838  137.0941  158.5689 C   0  0  0  0  0  0  0  0  0  0  0  0
  150.5928  136.9108  157.3536 C   0  0  0  0  0  0  0  0  0  0  0  0
  144.5394  136.2103  150.7099 H   0  0  0  0  0  0  0  0  0  0  0  0
  146.2988  136.0795  150.7215 H   0  0  0  0  0  0  0  0  0  0  0  0
  145.3918  136.0048  152.2401 H   0  0  0  0  0  0  0  0  0  0  0  0
  143.4544  134.2533  149.8921 H   0  0  0  0  0  0  0  0  0  0  0  0
  144.8375  130.4260  150.5585 H   0  0  0  0  0  0  0  0  0  0  0  0
  146.8029  131.2326  151.8280 H   0  0  0  0  0  0  0  0  0  0  0  0
  147.6324  134.8318  152.0147 H   0  0  0  0  0  0  0  0  0  0  0  0
  149.1555  135.0997  153.2192 H   0  0  0  0  0  0  0  0  0  0  0  0
  149.4003  133.4918  155.6511 H   0  0  0  0  0  0  0  0  0  0  0  0
  150.7416  133.3670  154.5310 H   0  0  0  0  0  0  0  0  0  0  0  0
  148.1760  135.0561  157.0914 H   0  0  0  0  0  0  0  0  0  0  0  0
  149.4158  133.9228  157.6436 H   0  0  0  0  0  0  0  0  0  0  0  0
  148.2418  135.6720  159.4011 H   0  0  0  0  0  0  0  0  0  0  0  0
  149.9328  135.1944  159.5396 H   0  0  0  0  0  0  0  0  0  0  0  0
  148.8293  137.7151  158.2965 H   0  0  0  0  0  0  0  0  0  0  0  0
  150.1905  137.5720  159.4077 H   0  0  0  0  0  0  0  0  0  0  0  0
  151.6280  136.7678  157.6669 H   0  0  0  0  0  0  0  0  0  0  0  0
  150.5546  137.7808  156.6959 H   0  0  0  0  0  0  0  0  0  0  0  0
  1  2  1  0  0  0  0
  1 20  1  0  0  0  0
  1 21  1  0  0  0  0
  1 22  1  0  0  0  0
  2  7  1  0  0  0  0
  2  3  2  0  0  0  0
  3  4  1  0  0  0  0
  3 23  1  0  0  0  0
  4  5  2  0  0  0  0
  5  6  1  0  0  0  0
  5 24  1  0  0  0  0
  6  7  2  0  0  0  0
  6 25  1  0  0  0  0
  7  8  1  0  0  0  0
  8  9  1  0  0  0  0
  8 26  1  0  0  0  0
  9 10  2  0  0  0  0
  9 11  1  0  0  0  0
 11 12  1  0  0  0  0
 11 27  1  0  0  0  0
 12 13  1  0  0  0  0
 12 28  1  0  0  0  0
 12 29  1  0  0  0  0
 13 14  2  0  0  0  0
 13 15  1  0  0  0  0
 15 19  1  0  0  0  0
 15 16  1  0  0  0  0
 16 17  1  0  0  0  0
 16 30  1  0  0  0  0
 16 31  1  0  0  0  0
 17 18  1  0  0  0  0
 17 32  1  0  0  0  0
 17 33  1  0  0  0  0
 18 19  1  0  0  0  0
 18 34  1  0  0  0  0
 18 35  1  0  0  0  0
 19 36  1  0  0  0  0
 19 37  1  0  0  0  0
M  END
> <s_m_source_file>
AV-unprocessed.smi

> <i_m_source_file_index>
2412

> <i_lp_mmshare_version>
43012

> <i_f3d_flags>
0

> <s_epik_input>
W0NIM11jMVtjSF1uW2NIXVtjSF1jMVtOSF1DKD1PKVtOSF1bQ0gyXUMoPU8pTjJbQ0gyXVtDSDJdW0NIMl1bQ0gyXTI=

> <s_epik_cmdline>
J2VwaWtfcHl0aG9uJywgJy1waCcsICc3LjAnLCAnLXRuJywgJzgnLCAnLW1hJywgJzIwMCcsICctbWV0YWxfYmluZGluZycsICctaW1hZScsICc8aW5maWxlLm1hZT4nLCAnLW9tYWUnLCAnPG91dGZpbGUubWFlPic=

> <r_epik_Ionization_Penalty>
0.157619

> <r_epik_Ionization_Penalty_Charging>
0

> <r_epik_Ionization_Penalty_Neutral>
0.157619

> <r_epik_State_Penalty>
0.146889

> <r_epik_Charging_Adjusted_Penalty>
0.146889

> <i_epik_Tot_Q>
0

> <i_epik_Tot_abs_Q>
0

> <r_epik_Metal_State_Penalty>
0.115729

> <b_epik_Metal_Only>
0

> <s_lp_Force_Field>
OPLS_2005

> <r_lp_Energy>
29.7149

> <b_lp_Chiralities_Consistent>
1

> <s_lp_Variant>
AV-unprocessed.smi:2412-1

> <Gold.Version>
5.8.1

> <Gold.Id.Protein>
6NUR|6NUR_protein|mol2

> <Gold.PLP.Fitness>
40.7572

> <Gold.PLP.PLP>
-29.7775

> <Gold.PLP.part.hbond>
-3.0000

> <Gold.PLP.part.metal>
0.0000

> <Gold.PLP.part.buried>
-5.9119

> <Gold.PLP.part.nonpolar>
-21.4798

> <Gold.PLP.part.repulsive>
0.3962

> <Gold.PLP.ligand.clash>
0.0000

> <Gold.PLP.ligand.torsion>
0.5109

> <Gold.PLP.Chemscore.Hbond>
3.0000

> <Gold.PLP.Chemscore.CHOScore>
1.0000

> <Gold.PLP.Chemscore.Metal>
0.0000

> <Gold.Chemscore.Hbonds>
donor molecule, donor type, donor heavy atom, donor atom, acceptor molecule, acceptor atom, score
      L1  H     8    26       P1  7948  1.00
      L1  H    11    27       P1  7948  0.80
      P1  H 10752 10765       L1    14  1.00
      L1  C     3    23       P1 10186  1.00

> <Gold.PLP.Chemscore.Internal.Correction>
0.0014

> <Gold.Rescore>
     Score         DG    S(hbond)    S(metal)    S(lipo)     H(rot)  DE(clash)    DE(int)     intcor
     16.86     -17.40       2.60        0.00      55.19       1.26       0.01       0.53       ----

> <Gold.Chemscore.Fitness>
16.8589

> <Gold.Chemscore.DG>
-17.3953

> <Gold.Chemscore.ZeroCoef>
-5.4800

> <Gold.Chemscore.Hbond>
2.6025

> <Gold.Chemscore.Metal>
0.0000

> <Gold.Chemscore.Lipo>
55.1873

> <Gold.Chemscore.Internal_Hbond>
0.0000

> <Gold.Chemscore.DEClash>
0.0073

> <Gold.Chemscore.DEInternal>
0.5291

> <Gold.Chemscore.Rot>
1.2633

> <Gold.Chemscore.Internal.Correction>
   9.000000E+99

> <Gold.Chemscore.Hbonds>
donor molecule, donor type, donor heavy atom, donor atom, acceptor molecule, acceptor atom, score
      L1  H     8    26       P1  7948  0.71
      L1  H    11    27       P1  7948  0.12
      P1  H 10752 10765       L1    14  1.00

> <Gold.Chemscore.Hbond.Weighted>
-8.6925

> <Gold.Chemscore.Metal.Weighted>
-0.0000

> <Gold.Chemscore.Lipo.Weighted>
-6.4569

> <Gold.Chemscore.Internal_Hbond.Weighted>
0.0000

> <Gold.Chemscore.DEClash.Weighted>
0.0073

> <Gold.Chemscore.DEInternal.Weighted>
0.5291

> <Gold.Chemscore.Rot.Weighted>
3.2341

> <Gold.Chemscore.Internal.Correction.Weighted>
   9.000000E+99

> <Gold.Protein.RotatedTorsions>
[ 6907 6896 6895 6894 ] final   62.55 input  -60.11 | X-H torsion
[ 7974 7965 7964 7962 ] final  159.62 input  175.53 | X-H torsion
[ 8008 7997 7996 7995 ] final   11.63 input   59.86 | X-H torsion
[ 10167 10162 10161 10158 ] final -171.03 input  -65.29 | X-H torsion
[ 10718 10713 10712 10709 ] final   -7.45 input   66.30 | X-H torsion
[ 10763 10752 10751 10750 ] final  173.08 input  -60.55 | X-H torsion
[ 11005 11000 10999 10996 ] final -147.64 input  -57.11 | X-H torsion

> <Gold.Protein.ActiveResidues>
 VAL166  LYS551  ARG553  GLY616  TRP617  ASP618  TYR619  PRO620  LYS621  CYS622 
 ASP623  PHE694  ASN695  SER759  ASP760  ASP761  ALA762  ILE779  LEU786  VAL792 
 PHE793  MET794  SER795  GLU796  ALA797  LYS798  CYS799  TRP800  GLU811  SER814 

> <Gold.Protein.RotatedAtoms>
  152.4181  134.6005  159.9998 H   0  0  0  0  0  0  0  0  0  0  0  0  # atno 6907 bound_to 6896
  151.6162  133.3337  159.3086 H   0  0  0  0  0  0  0  0  0  0  0  0  # atno 6908 bound_to 6896
  150.8069  134.7239  159.6718 H   0  0  0  0  0  0  0  0  0  0  0  0  # atno 6909 bound_to 6896
  144.7780  139.7643  143.6271 H   0  0  0  0  0  0  0  0  0  0  0  0  # atno 7974 bound_to 7965
  154.8095  140.2866  155.5863 H   0  0  0  0  0  0  0  0  0  0  0  0  # atno 8008 bound_to 7997
  156.2986  140.2571  156.2910 H   0  0  0  0  0  0  0  0  0  0  0  0  # atno 8009 bound_to 7997
  154.9463  140.0380  157.2111 H   0  0  0  0  0  0  0  0  0  0  0  0  # atno 8010 bound_to 7997
  139.5826  144.1389  152.1535 H   0  0  0  0  0  0  0  0  0  0  0  0  # atno 10167 bound_to 10162
  156.7170  130.5139  149.5877 H   0  0  0  0  0  0  0  0  0  0  0  0  # atno 10718 bound_to 10713
  154.4351  135.2760  155.1886 H   0  0  0  0  0  0  0  0  0  0  0  0  # atno 10763 bound_to 10752
  154.3776  135.6095  153.5777 H   0  0  0  0  0  0  0  0  0  0  0  0  # atno 10764 bound_to 10752
  152.9838  135.5872  154.4669 H   0  0  0  0  0  0  0  0  0  0  0  0  # atno 10765 bound_to 10752
  140.7696  134.3205  157.5079 H   0  0  0  0  0  0  0  0  0  0  0  0  # atno 11005 bound_to 11000
  146.1972  139.5245  142.9767 LP  0  0  0  0  0  0  0  0  0  0  0  0  # atno 17320 bound_to 7965
  145.6130  141.0336  143.1956 LP  0  0  0  0  0  0  0  0  0  0  0  0  # atno 17321 bound_to 7965
  140.0945  144.5592  150.7031 LP  0  0  0  0  0  0  0  0  0  0  0  0  # atno 17342 bound_to 10162
  140.7102  143.2499  151.4603 LP  0  0  0  0  0  0  0  0  0  0  0  0  # atno 17343 bound_to 10162
  156.1621  130.6381  151.0732 LP  0  0  0  0  0  0  0  0  0  0  0  0  # atno 17370 bound_to 10713
  157.6913  131.0809  150.7098 LP  0  0  0  0  0  0  0  0  0  0  0  0  # atno 17371 bound_to 10713
  139.8758  134.9252  156.3370 LP  0  0  0  0  0  0  0  0  0  0  0  0  # atno 17394 bound_to 11000
  140.9587  133.7403  156.0370 LP  0  0  0  0  0  0  0  0  0  0  0  0  # atno 17395 bound_to 11000

$$$$
