AV-unprocessed.smi:2330|AV-procd|sdf|9311|dock10
  -GOLD-   2272012533D 1   1.00000     0.00000
 Structure written by MMmdl.
 42 43  0  0  0  0  0  0  0  0  1 V2000
  143.6328  132.4661  149.3041 C   0  0  0  0  0  0  0  0  0  0  0  0
  144.6291  133.4376  149.9524 C   0  0  2  0  0  0  0  0  0  0  0  0
  145.1468  132.8989  151.2999 C   0  0  0  0  0  0  0  0  0  0  0  0
  146.1441  133.8696  151.9536 C   0  0  0  0  0  0  0  0  0  0  0  0
  145.5367  135.2748  152.1249 C   0  0  1  0  0  0  0  0  0  0  0  0
  146.5397  136.1916  152.6576 N   0  0  0  0  0  0  0  0  0  0  0  0
  146.3406  137.0852  153.6361 C   0  0  0  0  0  0  0  0  0  0  0  0
  145.2731  137.2424  154.2284 O   0  0  0  0  0  0  0  0  0  0  0  0
  147.4451  137.8035  153.8780 N   0  0  0  0  0  0  0  0  0  0  0  0
  147.5315  138.9205  154.8142 C   0  0  0  0  0  0  0  0  0  0  0  0
  148.6600  139.9133  154.4566 C   0  0  1  0  0  0  0  0  0  0  0  0
  148.5571  141.2385  155.2247 C   0  0  0  0  0  0  0  0  0  0  0  0
  150.0288  139.3089  154.5505 C   0  0  0  0  0  0  0  0  0  0  0  0
  150.4454  138.2907  153.7907 N   0  0  0  0  0  0  0  0  0  0  0  0
  151.7694  137.9320  154.0548 C   0  0  0  0  0  0  0  0  0  0  0  0
  152.3594  138.6957  155.0295 C   0  0  0  0  0  0  0  0  0  0  0  0
  151.2669  139.8992  155.6561 S   0  0  0  0  0  0  0  0  0  0  0  0
  145.0108  135.8126  150.7818 C   0  0  0  0  0  0  0  0  0  0  0  0
  144.0128  134.8374  150.1375 C   0  0  0  0  0  0  0  0  0  0  0  0
  142.7546  132.3199  149.9335 H   0  0  0  0  0  0  0  0  0  0  0  0
  144.0892  131.4900  149.1365 H   0  0  0  0  0  0  0  0  0  0  0  0
  143.2921  132.8398  148.3381 H   0  0  0  0  0  0  0  0  0  0  0  0
  145.4811  133.5319  149.2775 H   0  0  0  0  0  0  0  0  0  0  0  0
  144.3082  132.7315  151.9773 H   0  0  0  0  0  0  0  0  0  0  0  0
  145.6242  131.9291  151.1557 H   0  0  0  0  0  0  0  0  0  0  0  0
  146.4567  133.4768  152.9218 H   0  0  0  0  0  0  0  0  0  0  0  0
  147.0437  133.9283  151.3392 H   0  0  0  0  0  0  0  0  0  0  0  0
  144.6913  135.2058  152.8120 H   0  0  0  0  0  0  0  0  0  0  0  0
  147.4564  136.1502  152.2373 H   0  0  0  0  0  0  0  0  0  0  0  0
  148.2748  137.5963  153.3417 H   0  0  0  0  0  0  0  0  0  0  0  0
  146.5714  139.4354  154.8784 H   0  0  0  0  0  0  0  0  0  0  0  0
  147.7196  138.4970  155.8012 H   0  0  0  0  0  0  0  0  0  0  0  0
  148.5209  140.1699  153.4057 H   0  0  0  0  0  0  0  0  0  0  0  0
  149.3036  141.9527  154.8760 H   0  0  0  0  0  0  0  0  0  0  0  0
  148.7113  141.0902  156.2939 H   0  0  0  0  0  0  0  0  0  0  0  0
  147.5758  141.6944  155.0910 H   0  0  0  0  0  0  0  0  0  0  0  0
  152.2147  137.1199  153.4996 H   0  0  0  0  0  0  0  0  0  0  0  0
  153.3657  138.6241  155.4148 H   0  0  0  0  0  0  0  0  0  0  0  0
  144.5330  136.7820  150.9298 H   0  0  0  0  0  0  0  0  0  0  0  0
  145.8435  135.9802  150.0969 H   0  0  0  0  0  0  0  0  0  0  0  0
  143.6874  135.2331  149.1750 H   0  0  0  0  0  0  0  0  0  0  0  0
  143.1195  134.7684  150.7601 H   0  0  0  0  0  0  0  0  0  0  0  0
  1  2  1  0  0  0  0
  1 20  1  0  0  0  0
  1 21  1  0  0  0  0
  1 22  1  0  0  0  0
  2 19  1  0  0  0  0
  2  3  1  0  0  0  0
  2 23  1  0  0  0  0
  3  4  1  0  0  0  0
  3 24  1  0  0  0  0
  3 25  1  0  0  0  0
  4  5  1  0  0  0  0
  4 26  1  0  0  0  0
  4 27  1  0  0  0  0
  5  6  1  0  0  0  0
  5 18  1  0  0  0  0
  5 28  1  0  0  0  0
  6  7  1  0  0  0  0
  6 29  1  0  0  0  0
  7  8  2  0  0  0  0
  7  9  1  0  0  0  0
  9 10  1  0  0  0  0
  9 30  1  0  0  0  0
 10 11  1  0  0  0  0
 10 31  1  0  0  0  0
 10 32  1  0  0  0  0
 11 12  1  0  0  0  0
 11 13  1  0  0  0  0
 11 33  1  0  0  0  0
 12 34  1  0  0  0  0
 12 35  1  0  0  0  0
 12 36  1  0  0  0  0
 13 17  1  0  0  0  0
 13 14  2  0  0  0  0
 14 15  1  0  0  0  0
 15 16  2  0  0  0  0
 15 37  1  0  0  0  0
 16 17  1  0  0  0  0
 16 38  1  0  0  0  0
 18 19  1  0  0  0  0
 18 39  1  0  0  0  0
 18 40  1  0  0  0  0
 19 41  1  0  0  0  0
 19 42  1  0  0  0  0
M  END
> <s_m_source_file>
AV-unprocessed.smi

> <i_m_source_file_index>
2330

> <i_lp_mmshare_version>
43012

> <i_f3d_flags>
0

> <s_epik_input>
W0NIM11bQ0BASF0xW0NIMl1bQ0gyXVtDQEhdKFtDSDJdW0NIMl0xKVtOSF1DKD1PKVtOSF1bQ0gyXVtDQEhdKFtDSDNdKWMybltjSF1bY0hdczI=

> <s_epik_cmdline>
J2VwaWtfcHl0aG9uJywgJy1waCcsICc3LjAnLCAnLXRuJywgJzgnLCAnLW1hJywgJzIwMCcsICctbWV0YWxfYmluZGluZycsICctaW1hZScsICc8aW5maWxlLm1hZT4nLCAnLW9tYWUnLCAnPG91dGZpbGUubWFlPic=

> <r_lp_tautomer_probability>
1

> <r_epik_Ionization_Penalty>
0.000331107

> <r_epik_Ionization_Penalty_Charging>
0

> <r_epik_Ionization_Penalty_Neutral>
0.000331107

> <r_epik_State_Penalty>
-0

> <r_epik_Charging_Adjusted_Penalty>
0

> <i_epik_Tot_Q>
0

> <i_epik_Tot_abs_Q>
0

> <r_epik_Metal_State_Penalty>
-0

> <b_epik_Metal_Only>
0

> <s_lp_Force_Field>
OPLS_2005

> <r_lp_Energy>
-1.29202

> <b_lp_Chiralities_Consistent>
1

> <s_lp_Variant>
AV-unprocessed.smi:2330-2

> <Gold.Version>
5.8.1

> <Gold.Id.Protein>
6NUR|6NUR_protein|mol2

> <Gold.PLP.Fitness>
40.3055

> <Gold.PLP.PLP>
-34.7588

> <Gold.PLP.part.hbond>
-2.0000

> <Gold.PLP.part.metal>
0.0000

> <Gold.PLP.part.buried>
-2.3378

> <Gold.PLP.part.nonpolar>
-31.7620

> <Gold.PLP.part.repulsive>
0.3971

> <Gold.PLP.ligand.clash>
0.0000

> <Gold.PLP.ligand.torsion>
0.5728

> <Gold.PLP.Chemscore.Hbond>
1.6232

> <Gold.PLP.Chemscore.CHOScore>
0.5697

> <Gold.PLP.Chemscore.Metal>
0.0000

> <Gold.Chemscore.Hbonds>
donor molecule, donor type, donor heavy atom, donor atom, acceptor molecule, acceptor atom, score
      L1  H     6    29       P1  7948  0.99
      L1  H     9    30       P1  7948  0.64
      L1  C    15    37       P1  7949  0.91

> <Gold.PLP.Chemscore.Internal.Correction>
0.1137

> <Gold.Rescore>
     Score         DG    S(hbond)    S(metal)    S(lipo)     H(rot)  DE(clash)    DE(int)     intcor
     17.76     -18.84       1.77        0.00      95.33       1.45       0.31       0.76       ----

> <Gold.Chemscore.Fitness>
17.7622

> <Gold.Chemscore.DG>
-18.8379

> <Gold.Chemscore.ZeroCoef>
-5.4800

> <Gold.Chemscore.Hbond>
1.7742

> <Gold.Chemscore.Metal>
0.0000

> <Gold.Chemscore.Lipo>
95.3257

> <Gold.Chemscore.Internal_Hbond>
0.0000

> <Gold.Chemscore.DEClash>
0.3117

> <Gold.Chemscore.DEInternal>
0.7640

> <Gold.Chemscore.Rot>
1.4536

> <Gold.Chemscore.Internal.Correction>
   9.000000E+99

> <Gold.Chemscore.Hbonds>
donor molecule, donor type, donor heavy atom, donor atom, acceptor molecule, acceptor atom, score
      L1  H     6    29       P1  7948  0.93
      L1  H     9    30       P1  7948  0.64

> <Gold.Chemscore.Hbond.Weighted>
-5.9260

> <Gold.Chemscore.Metal.Weighted>
-0.0000

> <Gold.Chemscore.Lipo.Weighted>
-11.1531

> <Gold.Chemscore.Internal_Hbond.Weighted>
0.0000

> <Gold.Chemscore.DEClash.Weighted>
0.3117

> <Gold.Chemscore.DEInternal.Weighted>
0.7640

> <Gold.Chemscore.Rot.Weighted>
3.7212

> <Gold.Chemscore.Internal.Correction.Weighted>
   9.000000E+99

> <Gold.Protein.RotatedTorsions>
[ 6907 6896 6895 6894 ] final  -38.11 input  -60.11 | X-H torsion
[ 7974 7965 7964 7962 ] final  -60.89 input  175.53 | X-H torsion
[ 8008 7997 7996 7995 ] final   33.59 input   59.86 | X-H torsion
[ 10167 10162 10161 10158 ] final  -56.14 input  -65.29 | X-H torsion
[ 10718 10713 10712 10709 ] final    1.89 input   66.30 | X-H torsion
[ 10763 10752 10751 10750 ] final  110.35 input  -60.55 | X-H torsion
[ 11005 11000 10999 10996 ] final  -30.81 input  -57.11 | X-H torsion

> <Gold.Protein.ActiveResidues>
 VAL166  LYS551  ARG553  GLY616  TRP617  ASP618  TYR619  PRO620  LYS621  CYS622 
 ASP623  PHE694  ASN695  SER759  ASP760  ASP761  ALA762  ILE779  LEU786  VAL792 
 PHE793  MET794  SER795  GLU796  ALA797  LYS798  CYS799  TRP800  GLU811  SER814 

> <Gold.Protein.RotatedAtoms>
  151.0065  134.9363  159.7982 H   0  0  0  0  0  0  0  0  0  0  0  0  # atno 6907 bound_to 6896
  152.5291  134.3085  159.9114 H   0  0  0  0  0  0  0  0  0  0  0  0  # atno 6908 bound_to 6896
  151.3091  133.4047  159.2680 H   0  0  0  0  0  0  0  0  0  0  0  0  # atno 6909 bound_to 6896
  145.8101  140.8604  143.0186 H   0  0  0  0  0  0  0  0  0  0  0  0  # atno 7974 bound_to 7965
  155.1411  140.3266  155.4452 H   0  0  0  0  0  0  0  0  0  0  0  0  # atno 8008 bound_to 7997
  156.2604  140.1993  156.6476 H   0  0  0  0  0  0  0  0  0  0  0  0  # atno 8009 bound_to 7997
  154.6542  140.0555  156.9976 H   0  0  0  0  0  0  0  0  0  0  0  0  # atno 8010 bound_to 7997
  140.6334  143.2470  151.5181 H   0  0  0  0  0  0  0  0  0  0  0  0  # atno 10167 bound_to 10162
  156.8549  130.5566  149.5667 H   0  0  0  0  0  0  0  0  0  0  0  0  # atno 10718 bound_to 10713
  153.4477  135.3751  155.2265 H   0  0  0  0  0  0  0  0  0  0  0  0  # atno 10763 bound_to 10752
  154.8755  135.3878  154.4076 H   0  0  0  0  0  0  0  0  0  0  0  0  # atno 10764 bound_to 10752
  153.4631  135.7087  153.6102 H   0  0  0  0  0  0  0  0  0  0  0  0  # atno 10765 bound_to 10752
  140.9415  133.7276  156.1082 H   0  0  0  0  0  0  0  0  0  0  0  0  # atno 11005 bound_to 11000
  144.6758  140.0383  143.7481 LP  0  0  0  0  0  0  0  0  0  0  0  0  # atno 17320 bound_to 7965
  145.9787  139.2924  143.1055 LP  0  0  0  0  0  0  0  0  0  0  0  0  # atno 17321 bound_to 7965
  139.5546  144.2307  152.1591 LP  0  0  0  0  0  0  0  0  0  0  0  0  # atno 17342 bound_to 10162
  140.1557  144.5073  150.6661 LP  0  0  0  0  0  0  0  0  0  0  0  0  # atno 17343 bound_to 10162
  156.0808  130.5819  150.9559 LP  0  0  0  0  0  0  0  0  0  0  0  0  # atno 17370 bound_to 10713
  157.6283  131.0923  150.8492 LP  0  0  0  0  0  0  0  0  0  0  0  0  # atno 17371 bound_to 10713
  140.7728  134.3813  157.5504 LP  0  0  0  0  0  0  0  0  0  0  0  0  # atno 17394 bound_to 11000
  139.8821  134.9033  156.2851 LP  0  0  0  0  0  0  0  0  0  0  0  0  # atno 17395 bound_to 11000

$$$$
