AV-unprocessed.smi:2814|AV-procd|sdf|10839|dock3
  -GOLD-   2272015283D 1   1.00000     0.00000
 Structure written by MMmdl.
 37 38  0  0  0  0  0  0  0  0  1 V2000
  146.2254  130.2591  151.7031 C   0  0  0  0  0  0  0  0  0  0  0  0
  145.6299  131.6287  151.4518 C   0  0  0  0  0  0  0  0  0  0  0  0
  146.3722  132.8003  151.7124 C   0  0  0  0  0  0  0  0  0  0  0  0
  145.7686  134.0554  151.4574 C   0  0  0  0  0  0  0  0  0  0  0  0
  146.3990  135.3066  151.6954 N   0  0  0  0  0  0  0  0  0  0  0  0
  145.8354  136.4807  152.0283 C   0  0  0  0  0  0  0  0  0  0  0  0
  144.6334  136.6660  152.2180 O   0  0  0  0  0  0  0  0  0  0  0  0
  146.7612  137.4435  152.1456 N   0  0  0  0  0  0  0  0  0  0  0  0
  146.5047  138.8396  152.4938 C   0  0  0  0  0  0  0  0  0  0  0  0
  147.3991  139.3332  153.6538 C   0  0  0  0  0  0  0  0  0  0  0  0
  148.7197  138.8769  153.4189 O   0  0  0  0  0  0  0  0  0  0  0  0
  147.4128  140.8526  153.8788 C   0  0  0  0  0  0  0  0  0  0  0  0
  147.8489  141.0563  155.3353 C   0  0  0  0  0  0  0  0  0  0  0  0
  147.5731  139.7308  156.0608 C   0  0  0  0  0  0  0  0  0  0  0  0
  146.9587  138.7876  155.0186 C   0  0  0  0  0  0  0  0  0  0  0  0
  144.4426  134.0693  150.9784 C   0  0  0  0  0  0  0  0  0  0  0  0
  143.7900  132.8419  150.7500 C   0  0  0  0  0  0  0  0  0  0  0  0
  144.3658  131.6427  150.9762 N   0  0  0  0  0  0  0  0  0  0  0  0
  147.2369  130.3337  152.1033 H   0  0  0  0  0  0  0  0  0  0  0  0
  146.2678  129.6888  150.7749 H   0  0  0  0  0  0  0  0  0  0  0  0
  145.6167  129.7064  152.4192 H   0  0  0  0  0  0  0  0  0  0  0  0
  147.3723  132.7186  152.1094 H   0  0  0  0  0  0  0  0  0  0  0  0
  147.4076  135.2950  151.6584 H   0  0  0  0  0  0  0  0  0  0  0  0
  147.7243  137.1975  151.9691 H   0  0  0  0  0  0  0  0  0  0  0  0
  146.6482  139.4719  151.6160 H   0  0  0  0  0  0  0  0  0  0  0  0
  145.4523  138.9406  152.7615 H   0  0  0  0  0  0  0  0  0  0  0  0
  149.0176  139.2369  152.5975 H   0  0  0  0  0  0  0  0  0  0  0  0
  148.0502  141.3854  153.1717 H   0  0  0  0  0  0  0  0  0  0  0  0
  146.4018  141.2450  153.7614 H   0  0  0  0  0  0  0  0  0  0  0  0
  148.9137  141.2879  155.3808 H   0  0  0  0  0  0  0  0  0  0  0  0
  147.3152  141.8894  155.7942 H   0  0  0  0  0  0  0  0  0  0  0  0
  148.5094  139.3159  156.4361 H   0  0  0  0  0  0  0  0  0  0  0  0
  146.9108  139.8639  156.9168 H   0  0  0  0  0  0  0  0  0  0  0  0
  145.8719  138.8400  155.0996 H   0  0  0  0  0  0  0  0  0  0  0  0
  147.2409  137.7454  155.1762 H   0  0  0  0  0  0  0  0  0  0  0  0
  143.9327  135.0011  150.7816 H   0  0  0  0  0  0  0  0  0  0  0  0
  142.7772  132.8233  150.3763 H   0  0  0  0  0  0  0  0  0  0  0  0
  1  2  1  0  0  0  0
  1 19  1  0  0  0  0
  1 20  1  0  0  0  0
  1 21  1  0  0  0  0
  2 18  1  0  0  0  0
  2  3  2  0  0  0  0
  3  4  1  0  0  0  0
  3 22  1  0  0  0  0
  4  5  1  0  0  0  0
  4 16  2  0  0  0  0
  5  6  1  0  0  0  0
  5 23  1  0  0  0  0
  6  7  2  0  0  0  0
  6  8  1  0  0  0  0
  8  9  1  0  0  0  0
  8 24  1  0  0  0  0
  9 10  1  0  0  0  0
  9 25  1  0  0  0  0
  9 26  1  0  0  0  0
 10 15  1  0  0  0  0
 10 11  1  0  0  0  0
 10 12  1  0  0  0  0
 11 27  1  0  0  0  0
 12 13  1  0  0  0  0
 12 28  1  0  0  0  0
 12 29  1  0  0  0  0
 13 14  1  0  0  0  0
 13 30  1  0  0  0  0
 13 31  1  0  0  0  0
 14 15  1  0  0  0  0
 14 32  1  0  0  0  0
 14 33  1  0  0  0  0
 15 34  1  0  0  0  0
 15 35  1  0  0  0  0
 16 17  1  0  0  0  0
 16 36  1  0  0  0  0
 17 18  2  0  0  0  0
 17 37  1  0  0  0  0
M  END
> <s_m_source_file>
AV-unprocessed.smi

> <i_m_source_file_index>
2814

> <i_lp_mmshare_version>
43012

> <i_f3d_flags>
0

> <s_epik_input>
W0NIM11jMVtjSF1jKFtjSF1bY0hdbjEpW05IXUMoPU8pW05IXVtDSDJdQzIoW09IXSlbQ0gyXVtDSDJdW0NIMl1bQ0gyXTI=

> <s_epik_cmdline>
J2VwaWtfcHl0aG9uJywgJy1waCcsICc3LjAnLCAnLXRuJywgJzgnLCAnLW1hJywgJzIwMCcsICctbWV0YWxfYmluZGluZycsICctaW1hZScsICc8aW5maWxlLm1hZT4nLCAnLW9tYWUnLCAnPG91dGZpbGUubWFlPic=

> <r_epik_Ionization_Penalty>
0.405099

> <r_epik_Ionization_Penalty_Charging>
0

> <r_epik_Ionization_Penalty_Neutral>
0.405099

> <r_epik_State_Penalty>
0.404681

> <r_epik_Charging_Adjusted_Penalty>
0.404681

> <i_epik_Tot_Q>
0

> <i_epik_Tot_abs_Q>
0

> <r_epik_Metal_State_Penalty>
0.238286

> <b_epik_Metal_Only>
0

> <s_lp_Force_Field>
OPLS_2005

> <r_lp_Energy>
28.9703

> <b_lp_Chiralities_Consistent>
1

> <s_lp_Variant>
AV-unprocessed.smi:2814-1

> <Gold.Version>
5.8.1

> <Gold.Id.Protein>
6NUR|6NUR_protein|mol2

> <Gold.PLP.Fitness>
42.9704

> <Gold.PLP.PLP>
-31.7823

> <Gold.PLP.part.hbond>
-3.6972

> <Gold.PLP.part.metal>
0.0000

> <Gold.PLP.part.buried>
-5.4983

> <Gold.PLP.part.nonpolar>
-24.6567

> <Gold.PLP.part.repulsive>
1.9030

> <Gold.PLP.ligand.clash>
0.0000

> <Gold.PLP.ligand.torsion>
0.3718

> <Gold.PLP.Chemscore.Hbond>
2.9760

> <Gold.PLP.Chemscore.CHOScore>
1.0000

> <Gold.PLP.Chemscore.Metal>
0.0000

> <Gold.Chemscore.Hbonds>
donor molecule, donor type, donor heavy atom, donor atom, acceptor molecule, acceptor atom, score
      L1  H     5    23       P1  7948  0.98
      L1  H     8    24       P1  7948  1.00
      L1  H    11    27       P1  7957  1.00
      L1  C    17    37       P1 10186  1.00

> <Gold.PLP.Chemscore.Internal.Correction>
0.0037

> <Gold.Rescore>
     Score         DG    S(hbond)    S(metal)    S(lipo)     H(rot)  DE(clash)    DE(int)     intcor
     17.18     -19.04       2.94        0.00      69.45       1.71       0.12       1.74       ----

> <Gold.Chemscore.Fitness>
17.1787

> <Gold.Chemscore.DG>
-19.0392

> <Gold.Chemscore.ZeroCoef>
-5.4800

> <Gold.Chemscore.Hbond>
2.9379

> <Gold.Chemscore.Metal>
0.0000

> <Gold.Chemscore.Lipo>
69.4452

> <Gold.Chemscore.Internal_Hbond>
0.0000

> <Gold.Chemscore.DEClash>
0.1230

> <Gold.Chemscore.DEInternal>
1.7374

> <Gold.Chemscore.Rot>
1.7103

> <Gold.Chemscore.Internal.Correction>
   9.000000E+99

> <Gold.Chemscore.Hbonds>
donor molecule, donor type, donor heavy atom, donor atom, acceptor molecule, acceptor atom, score
      L1  H     5    23       P1  7948  0.87
      L1  H     8    24       P1  7948  0.93
      L1  H    11    27       P1  7957  1.00

> <Gold.Chemscore.Hbond.Weighted>
-9.8126

> <Gold.Chemscore.Metal.Weighted>
-0.0000

> <Gold.Chemscore.Lipo.Weighted>
-8.1251

> <Gold.Chemscore.Internal_Hbond.Weighted>
0.0000

> <Gold.Chemscore.DEClash.Weighted>
0.1230

> <Gold.Chemscore.DEInternal.Weighted>
1.7374

> <Gold.Chemscore.Rot.Weighted>
4.3785

> <Gold.Chemscore.Internal.Correction.Weighted>
   9.000000E+99

> <Gold.Protein.RotatedTorsions>
[ 6907 6896 6895 6894 ] final   38.06 input  -60.11 | X-H torsion
[ 7974 7965 7964 7962 ] final  -44.44 input  175.53 | X-H torsion
[ 8008 7997 7996 7995 ] final -137.43 input   59.86 | X-H torsion
[ 10167 10162 10161 10158 ] final   -4.49 input  -65.29 | X-H torsion
[ 10718 10713 10712 10709 ] final   87.18 input   66.30 | X-H torsion
[ 10763 10752 10751 10750 ] final   13.39 input  -60.55 | X-H torsion
[ 11005 11000 10999 10996 ] final -147.65 input  -57.11 | X-H torsion

> <Gold.Protein.ActiveResidues>
 VAL166  LYS551  ARG553  GLY616  TRP617  ASP618  TYR619  PRO620  LYS621  CYS622 
 ASP623  PHE694  ASN695  SER759  ASP760  ASP761  ALA762  ILE779  LEU786  VAL792 
 PHE793  MET794  SER795  GLU796  ALA797  LYS798  CYS799  TRP800  GLU811  SER814 

> <Gold.Protein.RotatedAtoms>
  152.1514  134.8985  160.0547 H   0  0  0  0  0  0  0  0  0  0  0  0  # atno 6907 bound_to 6896
  152.0015  133.3822  159.4192 H   0  0  0  0  0  0  0  0  0  0  0  0  # atno 6908 bound_to 6896
  150.6876  134.3750  159.5053 H   0  0  0  0  0  0  0  0  0  0  0  0  # atno 6909 bound_to 6896
  145.9920  140.7170  142.9312 H   0  0  0  0  0  0  0  0  0  0  0  0  # atno 7974 bound_to 7965
  155.4117  140.0512  157.3031 H   0  0  0  0  0  0  0  0  0  0  0  0  # atno 8008 bound_to 7997
  154.4943  140.2132  155.9441 H   0  0  0  0  0  0  0  0  0  0  0  0  # atno 8009 bound_to 7997
  156.1384  140.3159  155.8462 H   0  0  0  0  0  0  0  0  0  0  0  0  # atno 8010 bound_to 7997
  140.6929  143.6418  150.8429 H   0  0  0  0  0  0  0  0  0  0  0  0  # atno 10167 bound_to 10162
  157.6937  131.0245  150.3084 H   0  0  0  0  0  0  0  0  0  0  0  0  # atno 10718 bound_to 10713
  153.1726  135.6815  153.8587 H   0  0  0  0  0  0  0  0  0  0  0  0  # atno 10763 bound_to 10752
  153.7946  135.3164  155.3384 H   0  0  0  0  0  0  0  0  0  0  0  0  # atno 10764 bound_to 10752
  154.8008  135.4779  154.0363 H   0  0  0  0  0  0  0  0  0  0  0  0  # atno 10765 bound_to 10752
  140.7694  134.3206  157.5079 H   0  0  0  0  0  0  0  0  0  0  0  0  # atno 11005 bound_to 11000
  144.6892  140.3086  143.7251 LP  0  0  0  0  0  0  0  0  0  0  0  0  # atno 17320 bound_to 7965
  145.7615  139.1826  143.2264 LP  0  0  0  0  0  0  0  0  0  0  0  0  # atno 17321 bound_to 7965
  140.0133  143.5619  152.2830 LP  0  0  0  0  0  0  0  0  0  0  0  0  # atno 17342 bound_to 10162
  139.6351  144.7649  151.2454 LP  0  0  0  0  0  0  0  0  0  0  0  0  # atno 17343 bound_to 10162
  156.3589  130.3843  149.7267 LP  0  0  0  0  0  0  0  0  0  0  0  0  # atno 17370 bound_to 10713
  156.4720  130.8001  151.3019 LP  0  0  0  0  0  0  0  0  0  0  0  0  # atno 17371 bound_to 10713
  139.8758  134.9251  156.3367 LP  0  0  0  0  0  0  0  0  0  0  0  0  # atno 17394 bound_to 11000
  140.9588  133.7402  156.0372 LP  0  0  0  0  0  0  0  0  0  0  0  0  # atno 17395 bound_to 11000

$$$$
