AV-unprocessed.smi:385|AV-procd|sdf|2472|dock3
  -GOLD-   2262022413D 1   1.00000     0.00000
 Structure written by MMmdl.
 38 39  0  0  0  0  0  0  0  0  3 V2000
  150.7612  140.6536  155.2402 O   0  0  0  0  0  0  0  0  0  0  0  0
  149.9042  141.5307  155.3468 C   0  0  0  0  0  0  0  0  0  0  0  0
  150.0600  142.6210  156.1133 N   0  0  0  0  0  0  0  0  0  0  0  0
  151.2433  142.9274  156.9127 C   0  0  0  0  0  0  0  0  0  0  0  0
  151.4511  141.9537  158.0914 C   0  0  0  0  0  0  0  0  0  0  0  0
  151.7451  142.6460  159.4110 C   0  0  0  0  0  0  0  0  0  0  0  0
  151.6217  144.0440  159.5690 C   0  0  0  0  0  0  0  0  0  0  0  0
  151.9021  144.6231  160.8239 C   0  0  0  0  0  0  0  0  0  0  0  0
  152.2995  143.7939  161.8931 C   0  0  0  0  0  0  0  0  0  0  0  0
  152.4081  142.4044  161.6794 C   0  0  0  0  0  0  0  0  0  0  0  0
  152.1310  141.8872  160.4622 N   0  3  0  0  0  0  0  0  0  0  0  0
  148.5846  141.4206  154.5720 C   0  0  0  0  0  0  0  0  0  0  0  0
  147.3712  141.6062  155.5069 C   0  0  0  0  0  0  0  0  0  0  0  0
  146.0497  141.4426  154.7370 C   0  0  0  0  0  0  0  0  0  0  0  0
  146.0006  140.1318  154.0538 N   0  3  0  0  0  0  0  0  0  0  0  0
  147.1301  139.9255  153.1213 C   0  0  0  0  0  0  0  0  0  0  0  0
  148.4757  140.0585  153.8552 C   0  0  0  0  0  0  0  0  0  0  0  0
  149.3026  143.2882  156.1482 H   0  0  0  0  0  0  0  0  0  0  0  0
  152.1038  142.8734  156.2453 H   0  0  0  0  0  0  0  0  0  0  0  0
  151.1988  143.9565  157.2725 H   0  0  0  0  0  0  0  0  0  0  0  0
  150.5673  141.3255  158.2088 H   0  0  0  0  0  0  0  0  0  0  0  0
  152.2718  141.2720  157.8645 H   0  0  0  0  0  0  0  0  0  0  0  0
  151.3131  144.6651  158.7404 H   0  0  0  0  0  0  0  0  0  0  0  0
  151.8135  145.6907  160.9641 H   0  0  0  0  0  0  0  0  0  0  0  0
  152.5193  144.2178  162.8621 H   0  0  0  0  0  0  0  0  0  0  0  0
  152.7064  141.6964  162.4391 H   0  0  0  0  0  0  0  0  0  0  0  0
  148.5587  142.2084  153.8168 H   0  0  0  0  0  0  0  0  0  0  0  0
  147.4041  140.8792  156.3203 H   0  0  0  0  0  0  0  0  0  0  0  0
  147.4025  142.5919  155.9731 H   0  0  0  0  0  0  0  0  0  0  0  0
  145.2025  141.5204  155.4188 H   0  0  0  0  0  0  0  0  0  0  0  0
  145.9388  142.2380  153.9988 H   0  0  0  0  0  0  0  0  0  0  0  0
  146.0246  139.4040  154.7540 H   0  0  0  0  0  0  0  0  0  0  0  0
  147.0417  138.9374  152.6689 H   0  0  0  0  0  0  0  0  0  0  0  0
  147.0656  140.6535  152.3115 H   0  0  0  0  0  0  0  0  0  0  0  0
  149.2936  139.9417  153.1427 H   0  0  0  0  0  0  0  0  0  0  0  0
  148.5743  139.2432  154.5741 H   0  0  0  0  0  0  0  0  0  0  0  0
  145.1335  140.0611  153.5405 H   0  0  0  0  0  0  0  0  0  0  0  0
  152.2167  140.8790  160.3304 H   0  0  0  0  0  0  0  0  0  0  0  0
  1  2  2  0  0  0  0
  2  3  1  0  0  0  0
  2 12  1  0  0  0  0
  3  4  1  0  0  0  0
  3 18  1  0  0  0  0
  4  5  1  0  0  0  0
  4 19  1  0  0  0  0
  4 20  1  0  0  0  0
  5  6  1  0  0  0  0
  5 21  1  0  0  0  0
  5 22  1  0  0  0  0
  6 11  1  0  0  0  0
  6  7  2  0  0  0  0
  7  8  1  0  0  0  0
  7 23  1  0  0  0  0
  8  9  2  0  0  0  0
  8 24  1  0  0  0  0
  9 10  1  0  0  0  0
  9 25  1  0  0  0  0
 10 11  2  0  0  0  0
 10 26  1  0  0  0  0
 11 38  1  0  0  0  0
 12 17  1  0  0  0  0
 12 13  1  0  0  0  0
 12 27  1  0  0  0  0
 13 14  1  0  0  0  0
 13 28  1  0  0  0  0
 13 29  1  0  0  0  0
 14 15  1  0  0  0  0
 14 30  1  0  0  0  0
 14 31  1  0  0  0  0
 15 16  1  0  0  0  0
 15 32  1  0  0  0  0
 15 37  1  0  0  0  0
 16 17  1  0  0  0  0
 16 33  1  0  0  0  0
 16 34  1  0  0  0  0
 17 35  1  0  0  0  0
 17 36  1  0  0  0  0
M  CHG  1  11   1
M  CHG  1  15   1
M  END
> <s_m_source_file>
AV-unprocessed.smi

> <i_m_source_file_index>
385

> <i_lp_mmshare_version>
43012

> <i_f3d_flags>
0

> <s_epik_input>
W0NIMl0xW0NIMl1bTkhdW0NIMl1bQ0gyXVtDSF0xQyg9TylbTkhdW0NIMl1bQ0gyXWMyW2NIXVtjSF1bY0hdW2NIXW4y

> <s_epik_cmdline>
J2VwaWtfcHl0aG9uJywgJy1waCcsICc3LjAnLCAnLXRuJywgJzgnLCAnLW1hJywgJzIwMCcsICctbWV0YWxfYmluZGluZycsICctaW1hZScsICc8aW5maWxlLm1hZT4nLCAnLW9tYWUnLCAnPG91dGZpbGUubWFlPic=

> <r_epik_Ionization_Penalty>
1.95053

> <r_epik_Ionization_Penalty_Charging>
1.95053

> <r_epik_Ionization_Penalty_Neutral>
3.30626e-08

> <r_epik_State_Penalty>
2.07441

> <r_epik_Charging_Adjusted_Penalty>
4.02494

> <i_epik_Tot_Q>
2

> <i_epik_Tot_abs_Q>
2

> <r_epik_Metal_State_Penalty>
2.09624

> <b_epik_Metal_Only>
0

> <s_lp_Force_Field>
OPLS_2005

> <r_lp_Energy>
22.1472

> <b_lp_Chiralities_Consistent>
1

> <s_lp_Variant>
AV-unprocessed.smi:385-2

> <Gold.Version>
5.8.1

> <Gold.Id.Protein>
6NUR|6NUR_protein|mol2

> <Gold.PLP.Fitness>
48.9846

> <Gold.PLP.PLP>
-38.1972

> <Gold.PLP.part.hbond>
-2.9126

> <Gold.PLP.part.metal>
0.0000

> <Gold.PLP.part.buried>
-4.7768

> <Gold.PLP.part.nonpolar>
-30.2447

> <Gold.PLP.part.repulsive>
0.3146

> <Gold.PLP.ligand.clash>
0.0000

> <Gold.PLP.ligand.torsion>
0.5519

> <Gold.PLP.Chemscore.Hbond>
3.9600

> <Gold.PLP.Chemscore.CHOScore>
0.0000

> <Gold.PLP.Chemscore.Metal>
0.0000

> <Gold.Chemscore.Hbonds>
donor molecule, donor type, donor heavy atom, donor atom, acceptor molecule, acceptor atom, score
      L1  H     3    18       P1  8028  0.85
      L1  H    15    37       P1 10175  2.00
      P1  H  7989  7998       L1     1  0.91

> <Gold.PLP.Chemscore.Internal.Correction>
0.0112

> <Gold.Rescore>
     Score         DG    S(hbond)    S(metal)    S(lipo)     H(rot)  DE(clash)    DE(int)     intcor
     20.48     -21.28       2.48        0.00     100.78       1.67       0.04       0.77       ----

> <Gold.Chemscore.Fitness>
20.4792

> <Gold.Chemscore.DG>
-21.2847

> <Gold.Chemscore.ZeroCoef>
-5.4800

> <Gold.Chemscore.Hbond>
2.4822

> <Gold.Chemscore.Metal>
0.0000

> <Gold.Chemscore.Lipo>
100.7816

> <Gold.Chemscore.Internal_Hbond>
0.0000

> <Gold.Chemscore.DEClash>
0.0380

> <Gold.Chemscore.DEInternal>
0.7675

> <Gold.Chemscore.Rot>
1.6708

> <Gold.Chemscore.Internal.Correction>
   9.000000E+99

> <Gold.Chemscore.Hbonds>
donor molecule, donor type, donor heavy atom, donor atom, acceptor molecule, acceptor atom, score
      L1  H     3    18       P1  8028  0.82
      L1  H    15    37       P1 10175  1.00
      P1  H  7989  7998       L1     1  0.53

> <Gold.Chemscore.Hbond.Weighted>
-8.2905

> <Gold.Chemscore.Metal.Weighted>
-0.0000

> <Gold.Chemscore.Lipo.Weighted>
-11.7914

> <Gold.Chemscore.Internal_Hbond.Weighted>
0.0000

> <Gold.Chemscore.DEClash.Weighted>
0.0380

> <Gold.Chemscore.DEInternal.Weighted>
0.7675

> <Gold.Chemscore.Rot.Weighted>
4.2772

> <Gold.Chemscore.Internal.Correction.Weighted>
   9.000000E+99

> <Gold.Protein.RotatedTorsions>
[ 6907 6896 6895 6894 ] final   31.34 input  -60.11 | X-H torsion
[ 7974 7965 7964 7962 ] final   96.54 input  175.53 | X-H torsion
[ 8008 7997 7996 7995 ] final  109.80 input   59.86 | X-H torsion
[ 10167 10162 10161 10158 ] final  168.65 input  -65.29 | X-H torsion
[ 10718 10713 10712 10709 ] final    2.49 input   66.30 | X-H torsion
[ 10763 10752 10751 10750 ] final -157.55 input  -60.55 | X-H torsion
[ 11005 11000 10999 10996 ] final  -68.14 input  -57.11 | X-H torsion

> <Gold.Protein.ActiveResidues>
 VAL166  LYS551  ARG553  GLY616  TRP617  ASP618  TYR619  PRO620  LYS621  CYS622 
 ASP623  PHE694  ASN695  SER759  ASP760  ASP761  ALA762  ILE779  LEU786  VAL792 
 PHE793  MET794  SER795  GLU796  ALA797  LYS798  CYS799  TRP800  GLU811  SER814 

> <Gold.Protein.RotatedAtoms>
  152.0589  134.9607  160.0574 H   0  0  0  0  0  0  0  0  0  0  0  0  # atno 6907 bound_to 6896
  152.0978  133.4229  159.4581 H   0  0  0  0  0  0  0  0  0  0  0  0  # atno 6908 bound_to 6896
  150.6838  134.2715  159.4633 H   0  0  0  0  0  0  0  0  0  0  0  0  # atno 6909 bound_to 6896
  145.4375  139.2304  143.3110 H   0  0  0  0  0  0  0  0  0  0  0  0  # atno 7974 bound_to 7965
  156.2006  140.3051  155.9518 H   0  0  0  0  0  0  0  0  0  0  0  0  # atno 8008 bound_to 7997
  155.2963  140.0444  157.3043 H   0  0  0  0  0  0  0  0  0  0  0  0  # atno 8009 bound_to 7997
  154.5566  140.2307  155.8410 H   0  0  0  0  0  0  0  0  0  0  0  0  # atno 8010 bound_to 7997
  139.4973  144.3792  151.9641 H   0  0  0  0  0  0  0  0  0  0  0  0  # atno 10167 bound_to 10162
  156.8638  130.5596  149.5661 H   0  0  0  0  0  0  0  0  0  0  0  0  # atno 10718 bound_to 10713
  154.7627  135.3122  154.8346 H   0  0  0  0  0  0  0  0  0  0  0  0  # atno 10763 bound_to 10752
  153.9103  135.6806  153.4755 H   0  0  0  0  0  0  0  0  0  0  0  0  # atno 10764 bound_to 10752
  153.1230  135.4814  154.9158 H   0  0  0  0  0  0  0  0  0  0  0  0  # atno 10765 bound_to 10752
  141.1525  133.6734  156.6400 H   0  0  0  0  0  0  0  0  0  0  0  0  # atno 11005 bound_to 11000
  146.2574  140.5119  142.8868 LP  0  0  0  0  0  0  0  0  0  0  0  0  # atno 17320 bound_to 7965
  144.8143  140.6440  143.6395 LP  0  0  0  0  0  0  0  0  0  0  0  0  # atno 17321 bound_to 7965
  140.3228  144.3407  150.6005 LP  0  0  0  0  0  0  0  0  0  0  0  0  # atno 17342 bound_to 10162
  140.5708  143.2181  151.7602 LP  0  0  0  0  0  0  0  0  0  0  0  0  # atno 17343 bound_to 10162
  156.0762  130.5784  150.9478 LP  0  0  0  0  0  0  0  0  0  0  0  0  # atno 17370 bound_to 10713
  157.6235  131.0927  150.8578 LP  0  0  0  0  0  0  0  0  0  0  0  0  # atno 17371 bound_to 10713
  140.3400  134.7857  157.4391 LP  0  0  0  0  0  0  0  0  0  0  0  0  # atno 17394 bound_to 11000
  140.0945  134.5555  155.8411 LP  0  0  0  0  0  0  0  0  0  0  0  0  # atno 17395 bound_to 11000

$$$$
