AV-unprocessed.smi:761|AV-procd|sdf|3632|dock2
  -GOLD-   22720 1 23D 1   1.00000     0.00000
 Structure written by MMmdl.
 34 35  0  0  0  0  0  0  0  0  4 V2000
  147.3281  132.1245  153.3668 O   0  0  0  0  0  0  0  0  0  0  0  0
  147.8945  133.2085  153.1859 C   0  0  0  0  0  0  0  0  0  0  0  0
  149.0320  133.6601  153.7797 N   0  5  0  0  0  0  0  0  0  0  0  0
  149.0780  134.4851  154.9862 C   0  0  0  0  0  0  0  0  0  0  0  0
  150.3433  135.3651  154.9605 C   0  0  0  0  0  0  0  0  0  0  0  0
  150.1181  136.6734  154.2928 N   0  3  0  0  0  0  0  0  0  0  0  0
  151.3124  137.5684  154.1912 C   0  0  0  0  0  0  0  0  0  0  0  0
  150.7395  138.9379  154.4208 C   0  0  0  0  0  0  0  0  0  0  0  0
  149.4646  138.8757  154.7870 C   0  0  0  0  0  0  0  0  0  0  0  0
  148.9828  137.4546  154.8621 C   0  0  0  0  0  0  0  0  0  0  0  0
  147.4033  134.0893  152.2957 N   0  0  0  0  0  0  0  0  0  0  0  0
  146.2115  134.0124  151.5256 C   0  0  0  0  0  0  0  0  0  0  0  0
  145.7094  135.2100  150.9705 C   0  0  0  0  0  0  0  0  0  0  0  0
  144.5155  135.1815  150.2217 C   0  0  0  0  0  0  0  0  0  0  0  0
  143.8560  134.0155  150.0514 N   0  3  0  0  0  0  0  0  0  0  0  0
  144.2879  132.8487  150.5766 C   0  0  0  0  0  0  0  0  0  0  0  0
  145.4757  132.8154  151.3349 C   0  0  0  0  0  0  0  0  0  0  0  0
  148.2061  135.1328  155.0866 H   0  0  0  0  0  0  0  0  0  0  0  0
  149.0928  133.8705  155.8867 H   0  0  0  0  0  0  0  0  0  0  0  0
  150.6447  135.5513  155.9929 H   0  0  0  0  0  0  0  0  0  0  0  0
  151.1771  134.8455  154.4857 H   0  0  0  0  0  0  0  0  0  0  0  0
  152.0596  137.3547  154.9567 H   0  0  0  0  0  0  0  0  0  0  0  0
  151.7760  137.4909  153.2074 H   0  0  0  0  0  0  0  0  0  0  0  0
  151.3230  139.8407  154.3145 H   0  0  0  0  0  0  0  0  0  0  0  0
  148.8360  139.7197  155.0303 H   0  0  0  0  0  0  0  0  0  0  0  0
  148.0752  137.3059  154.2768 H   0  0  0  0  0  0  0  0  0  0  0  0
  148.7853  137.1961  155.9037 H   0  0  0  0  0  0  0  0  0  0  0  0
  147.9868  134.8938  152.1177 H   0  0  0  0  0  0  0  0  0  0  0  0
  146.2369  136.1426  151.1110 H   0  0  0  0  0  0  0  0  0  0  0  0
  144.0703  136.0506  149.7600 H   0  0  0  0  0  0  0  0  0  0  0  0
  143.6713  131.9833  150.3828 H   0  0  0  0  0  0  0  0  0  0  0  0
  145.7951  131.8793  151.7675 H   0  0  0  0  0  0  0  0  0  0  0  0
  149.8452  136.4643  153.3431 H   0  0  0  0  0  0  0  0  0  0  0  0
  142.9923  134.0169  149.5083 H   0  0  0  0  0  0  0  0  0  0  0  0
  1  2  2  0  0  0  0
  2  3  1  0  0  0  0
  2 11  1  0  0  0  0
  3  4  1  0  0  0  0
  4  5  1  0  0  0  0
  4 18  1  0  0  0  0
  4 19  1  0  0  0  0
  5  6  1  0  0  0  0
  5 20  1  0  0  0  0
  5 21  1  0  0  0  0
  6 10  1  0  0  0  0
  6  7  1  0  0  0  0
  6 33  1  0  0  0  0
  7  8  1  0  0  0  0
  7 22  1  0  0  0  0
  7 23  1  0  0  0  0
  8  9  2  0  0  0  0
  8 24  1  0  0  0  0
  9 10  1  0  0  0  0
  9 25  1  0  0  0  0
 10 26  1  0  0  0  0
 10 27  1  0  0  0  0
 11 12  1  0  0  0  0
 11 28  1  0  0  0  0
 12 17  1  0  0  0  0
 12 13  2  0  0  0  0
 13 14  1  0  0  0  0
 13 29  1  0  0  0  0
 14 15  2  0  0  0  0
 14 30  1  0  0  0  0
 15 16  1  0  0  0  0
 15 34  1  0  0  0  0
 16 17  2  0  0  0  0
 16 31  1  0  0  0  0
 17 32  1  0  0  0  0
M  CHG  1   3  -1
M  CHG  1   6   1
M  CHG  1  15   1
M  END
> <s_m_source_file>
AV-unprocessed.smi

> <i_m_source_file_index>
761

> <i_lp_mmshare_version>
43012

> <i_f3d_flags>
0

> <s_epik_input>
W2NIXTFbY0hdbltjSF1bY0hdYzFbTkhdQyg9TylbTkhdW0NIMl1bQ0gyXU4yW0NIMl1bQ0hdPVtDSF1bQ0gyXTI=

> <s_epik_cmdline>
J2VwaWtfcHl0aG9uJywgJy1waCcsICc3LjAnLCAnLXRuJywgJzgnLCAnLW1hJywgJzIwMCcsICctbWV0YWxfYmluZGluZycsICctaW1hZScsICc8aW5maWxlLm1hZT4nLCAnLW9tYWUnLCAnPG91dGZpbGUubWFlPic=

> <r_epik_Ionization_Penalty>
8.30346

> <r_epik_Ionization_Penalty_Charging>
8.30346

> <r_epik_Ionization_Penalty_Neutral>
3.3887e-06

> <r_epik_State_Penalty>
7.87421

> <r_epik_Charging_Adjusted_Penalty>
16.1777

> <i_epik_Tot_Q>
1

> <i_epik_Tot_abs_Q>
3

> <r_epik_Metal_State_Penalty>
3.87237

> <b_epik_Metal_Only>
1

> <s_lp_Force_Field>
OPLS_2005

> <r_lp_Energy>
27.0573

> <b_lp_Chiralities_Consistent>
1

> <s_lp_Variant>
AV-unprocessed.smi:761-3

> <Gold.Version>
5.8.1

> <Gold.Id.Protein>
6NUR|6NUR_protein|mol2

> <Gold.PLP.Fitness>
44.6660

> <Gold.PLP.PLP>
-31.9568

> <Gold.PLP.part.hbond>
-3.6037

> <Gold.PLP.part.metal>
0.0000

> <Gold.PLP.part.buried>
-5.1471

> <Gold.PLP.part.nonpolar>
-24.2627

> <Gold.PLP.part.repulsive>
0.3876

> <Gold.PLP.ligand.clash>
0.0000

> <Gold.PLP.ligand.torsion>
1.1910

> <Gold.PLP.Chemscore.Hbond>
5.0000

> <Gold.PLP.Chemscore.CHOScore>
0.0000

> <Gold.PLP.Chemscore.Metal>
0.0000

> <Gold.Chemscore.Hbonds>
donor molecule, donor type, donor heavy atom, donor atom, acceptor molecule, acceptor atom, score
      L1  H     6    33       P1  7948  1.70
      L1  H    11    28       P1  7948  1.00
      L1  H    15    34       P1 10186  1.82

> <Gold.PLP.Chemscore.Internal.Correction>
0.0913

> <Gold.Rescore>
     Score         DG    S(hbond)    S(metal)    S(lipo)     H(rot)  DE(clash)    DE(int)     intcor
     15.36     -18.08       2.81        0.00      60.50       1.51       0.15       2.57       ----

> <Gold.Chemscore.Fitness>
15.3623

> <Gold.Chemscore.DG>
-18.0755

> <Gold.Chemscore.ZeroCoef>
-5.4800

> <Gold.Chemscore.Hbond>
2.8105

> <Gold.Chemscore.Metal>
0.0000

> <Gold.Chemscore.Lipo>
60.5013

> <Gold.Chemscore.Internal_Hbond>
0.0000

> <Gold.Chemscore.DEClash>
0.1461

> <Gold.Chemscore.DEInternal>
2.5670

> <Gold.Chemscore.Rot>
1.5117

> <Gold.Chemscore.Internal.Correction>
   9.000000E+99

> <Gold.Chemscore.Hbonds>
donor molecule, donor type, donor heavy atom, donor atom, acceptor molecule, acceptor atom, score
      L1  H     6    33       P1  7948  0.15
      L1  H    11    28       P1  7948  0.55
      L1  H    15    34       P1 10186  0.83

> <Gold.Chemscore.Hbond.Weighted>
-9.3869

> <Gold.Chemscore.Metal.Weighted>
-0.0000

> <Gold.Chemscore.Lipo.Weighted>
-7.0787

> <Gold.Chemscore.Internal_Hbond.Weighted>
0.0000

> <Gold.Chemscore.DEClash.Weighted>
0.1461

> <Gold.Chemscore.DEInternal.Weighted>
2.5670

> <Gold.Chemscore.Rot.Weighted>
3.8700

> <Gold.Chemscore.Internal.Correction.Weighted>
   9.000000E+99

> <Gold.Protein.RotatedTorsions>
[ 6907 6896 6895 6894 ] final  -27.65 input  -60.11 | X-H torsion
[ 7974 7965 7964 7962 ] final  -31.98 input  175.53 | X-H torsion
[ 8008 7997 7996 7995 ] final -118.61 input   59.86 | X-H torsion
[ 10167 10162 10161 10158 ] final -143.48 input  -65.29 | X-H torsion
[ 10718 10713 10712 10709 ] final  131.94 input   66.30 | X-H torsion
[ 10763 10752 10751 10750 ] final  119.50 input  -60.55 | X-H torsion
[ 11005 11000 10999 10996 ] final -125.88 input  -57.11 | X-H torsion

> <Gold.Protein.ActiveResidues>
 VAL166  LYS551  ARG553  GLY616  TRP617  ASP618  TYR619  PRO620  LYS621  CYS622 
 ASP623  PHE694  ASN695  SER759  ASP760  ASP761  ALA762  ILE779  LEU786  VAL792 
 PHE793  MET794  SER795  GLU796  ALA797  LYS798  CYS799  TRP800  GLU811  SER814 

> <Gold.Protein.RotatedAtoms>
  151.1439  135.0193  159.8637 H   0  0  0  0  0  0  0  0  0  0  0  0  # atno 6907 bound_to 6896
  152.5453  134.1467  159.8511 H   0  0  0  0  0  0  0  0  0  0  0  0  # atno 6908 bound_to 6896
  151.1545  133.4839  159.2627 H   0  0  0  0  0  0  0  0  0  0  0  0  # atno 6909 bound_to 6896
  146.1025  140.5735  142.8814 H   0  0  0  0  0  0  0  0  0  0  0  0  # atno 7974 bound_to 7965
  155.1024  140.0396  157.2700 H   0  0  0  0  0  0  0  0  0  0  0  0  # atno 8008 bound_to 7997
  154.6748  140.2620  155.6944 H   0  0  0  0  0  0  0  0  0  0  0  0  # atno 8009 bound_to 7997
  156.2672  140.2790  156.1270 H   0  0  0  0  0  0  0  0  0  0  0  0  # atno 8010 bound_to 7997
  139.7989  143.7861  152.2656 H   0  0  0  0  0  0  0  0  0  0  0  0  # atno 10167 bound_to 10162
  157.4919  131.1091  150.9545 H   0  0  0  0  0  0  0  0  0  0  0  0  # atno 10718 bound_to 10713
  153.5841  135.3478  155.2886 H   0  0  0  0  0  0  0  0  0  0  0  0  # atno 10763 bound_to 10752
  154.8663  135.4189  154.2588 H   0  0  0  0  0  0  0  0  0  0  0  0  # atno 10764 bound_to 10752
  153.3381  135.7048  153.6961 H   0  0  0  0  0  0  0  0  0  0  0  0  # atno 10765 bound_to 10752
  140.9726  134.0784  157.3852 H   0  0  0  0  0  0  0  0  0  0  0  0  # atno 11005 bound_to 11000
  144.7444  140.5029  143.6846 LP  0  0  0  0  0  0  0  0  0  0  0  0  # atno 17320 bound_to 7965
  145.5825  139.1490  143.3227 LP  0  0  0  0  0  0  0  0  0  0  0  0  # atno 17321 bound_to 7965
  139.7975  144.7387  150.9870 LP  0  0  0  0  0  0  0  0  0  0  0  0  # atno 17342 bound_to 10162
  140.7820  143.4378  151.0596 LP  0  0  0  0  0  0  0  0  0  0  0  0  # atno 17343 bound_to 10162
  157.0243  130.5686  149.5335 LP  0  0  0  0  0  0  0  0  0  0  0  0  # atno 17370 bound_to 10713
  156.0178  130.5273  150.8187 LP  0  0  0  0  0  0  0  0  0  0  0  0  # atno 17371 bound_to 10713
  139.8918  135.0121  156.6812 LP  0  0  0  0  0  0  0  0  0  0  0  0  # atno 17394 bound_to 11000
  140.7306  133.9062  155.8208 LP  0  0  0  0  0  0  0  0  0  0  0  0  # atno 17395 bound_to 11000

$$$$
