AV-unprocessed.smi:3162|AV-procd|sdf|12063|dock3
  -GOLD-   2272017493D 1   1.00000     0.00000
 Structure written by MMmdl.
 37 37  0  0  0  0  0  0  0  0  2 V2000
  146.7919  142.5746  154.3136 C   0  0  0  0  0  0  0  0  0  0  0  0
  147.8455  141.5894  153.7830 C   0  0  0  0  0  0  0  0  0  0  0  0
  148.7221  140.9330  154.8724 C   0  0  2  0  0  0  0  0  0  0  0  0
  149.7257  141.9179  155.3436 N   0  3  0  0  0  0  0  0  0  0  0  0
  150.3720  141.6384  156.6485 C   0  0  2  0  0  0  0  0  0  0  0  0
  149.2848  141.2983  157.6819 C   0  0  0  0  0  0  0  0  0  0  0  0
  151.2792  142.8072  157.0989 C   0  0  0  0  0  0  0  0  0  0  0  0
  151.8603  142.5996  158.4131 N   0  0  0  0  0  0  0  0  0  0  0  0
  151.8189  143.4359  159.5084 C   0  0  0  0  0  0  0  0  0  0  0  0
  152.5006  142.8221  160.5207 C   0  0  0  0  0  0  0  0  0  0  0  0
  152.7474  143.3130  161.9183 C   0  0  0  0  0  0  0  0  0  0  0  0
  152.9269  141.5954  159.9360 C   0  0  0  0  0  0  0  0  0  0  0  0
  152.5409  141.4643  158.6772 N   0  0  0  0  0  0  0  0  0  0  0  0
  149.4146  139.6664  154.3446 C   0  0  0  0  0  0  0  0  0  0  0  0
  148.6523  138.7702  153.7124 N   0  0  0  0  0  0  0  0  0  0  0  0
  150.6224  139.5001  154.5041 O   0  0  0  0  0  0  0  0  0  0  0  0
  146.2682  143.0590  153.4892 H   0  0  0  0  0  0  0  0  0  0  0  0
  147.2521  143.3569  154.9174 H   0  0  0  0  0  0  0  0  0  0  0  0
  146.0408  142.0744  154.9249 H   0  0  0  0  0  0  0  0  0  0  0  0
  147.3522  140.8214  153.1849 H   0  0  0  0  0  0  0  0  0  0  0  0
  148.4925  142.1329  153.0929 H   0  0  0  0  0  0  0  0  0  0  0  0
  148.0732  140.6640  155.7079 H   0  0  0  0  0  0  0  0  0  0  0  0
  150.4319  142.0340  154.6301 H   0  0  0  0  0  0  0  0  0  0  0  0
  150.9870  140.7451  156.5304 H   0  0  0  0  0  0  0  0  0  0  0  0
  149.7162  140.9705  158.6279 H   0  0  0  0  0  0  0  0  0  0  0  0
  148.6444  140.4907  157.3263 H   0  0  0  0  0  0  0  0  0  0  0  0
  148.6496  142.1609  157.8868 H   0  0  0  0  0  0  0  0  0  0  0  0
  152.1034  142.9464  156.3996 H   0  0  0  0  0  0  0  0  0  0  0  0
  150.7158  143.7422  157.1059 H   0  0  0  0  0  0  0  0  0  0  0  0
  151.3131  144.3900  159.4770 H   0  0  0  0  0  0  0  0  0  0  0  0
  153.0672  142.5078  162.5800 H   0  0  0  0  0  0  0  0  0  0  0  0
  151.8500  143.7497  162.3569 H   0  0  0  0  0  0  0  0  0  0  0  0
  153.5239  144.0777  161.9445 H   0  0  0  0  0  0  0  0  0  0  0  0
  153.5014  140.8003  160.3878 H   0  0  0  0  0  0  0  0  0  0  0  0
  149.0590  137.9178  153.3548 H   0  0  0  0  0  0  0  0  0  0  0  0
  147.6636  138.9449  153.6005 H   0  0  0  0  0  0  0  0  0  0  0  0
  149.2387  142.7961  155.4493 H   0  0  0  0  0  0  0  0  0  0  0  0
  1  2  1  0  0  0  0
  1 17  1  0  0  0  0
  1 18  1  0  0  0  0
  1 19  1  0  0  0  0
  2  3  1  0  0  0  0
  2 20  1  0  0  0  0
  2 21  1  0  0  0  0
  3  4  1  0  0  0  0
  3 14  1  0  0  0  0
  3 22  1  0  0  0  0
  4  5  1  0  0  0  0
  4 23  1  0  0  0  0
  4 37  1  0  0  0  0
  5  6  1  0  0  0  0
  5  7  1  0  0  0  0
  5 24  1  0  0  0  0
  6 25  1  0  0  0  0
  6 26  1  0  0  0  0
  6 27  1  0  0  0  0
  7  8  1  0  0  0  0
  7 28  1  0  0  0  0
  7 29  1  0  0  0  0
  8 13  1  0  0  0  0
  8  9  1  0  0  0  0
  9 10  2  0  0  0  0
  9 30  1  0  0  0  0
 10 11  1  0  0  0  0
 10 12  1  0  0  0  0
 11 31  1  0  0  0  0
 11 32  1  0  0  0  0
 11 33  1  0  0  0  0
 12 13  2  0  0  0  0
 12 34  1  0  0  0  0
 14 15  1  0  0  0  0
 14 16  2  0  0  0  0
 15 35  1  0  0  0  0
 15 36  1  0  0  0  0
M  CHG  1   4   1
M  END
> <s_m_source_file>
AV-unprocessed.smi

> <i_m_source_file_index>
3162

> <i_lp_mmshare_version>
43012

> <i_f3d_flags>
0

> <s_epik_input>
W0NIM11bQ0gyXVtDQEBIXShDKD1PKVtOSDJdKVtOSF1bQ0BIXShbQ0gzXSlbQ0gyXW4xW2NIXWMoW0NIM10pW2NIXW4x

> <s_epik_cmdline>
J2VwaWtfcHl0aG9uJywgJy1waCcsICc3LjAnLCAnLXRuJywgJzgnLCAnLW1hJywgJzIwMCcsICctbWV0YWxfYmluZGluZycsICctaW1hZScsICc8aW5maWxlLm1hZT4nLCAnLW9tYWUnLCAnPG91dGZpbGUubWFlPic=

> <r_lp_tautomer_probability>
1

> <r_epik_Ionization_Penalty>
0.112112

> <r_epik_Ionization_Penalty_Charging>
0.112102

> <r_epik_Ionization_Penalty_Neutral>
9.73799e-06

> <r_epik_State_Penalty>
0.101811

> <r_epik_Charging_Adjusted_Penalty>
0.213914

> <i_epik_Tot_Q>
1

> <i_epik_Tot_abs_Q>
1

> <r_epik_Metal_State_Penalty>
0.101821

> <b_epik_Metal_Only>
0

> <s_lp_Force_Field>
OPLS_2005

> <r_lp_Energy>
5.61804

> <b_lp_Chiralities_Consistent>
1

> <s_lp_Variant>
AV-unprocessed.smi:3162-1

> <Gold.Version>
5.8.1

> <Gold.Id.Protein>
6NUR|6NUR_protein|mol2

> <Gold.PLP.Fitness>
48.8798

> <Gold.PLP.PLP>
-39.1629

> <Gold.PLP.part.hbond>
-3.8067

> <Gold.PLP.part.metal>
0.0000

> <Gold.PLP.part.buried>
-3.9121

> <Gold.PLP.part.nonpolar>
-30.1992

> <Gold.PLP.part.repulsive>
0.3741

> <Gold.PLP.ligand.clash>
0.0000

> <Gold.PLP.ligand.torsion>
0.5646

> <Gold.PLP.Chemscore.Hbond>
3.5429

> <Gold.PLP.Chemscore.CHOScore>
0.0000

> <Gold.PLP.Chemscore.Metal>
0.0000

> <Gold.Chemscore.Hbonds>
donor molecule, donor type, donor heavy atom, donor atom, acceptor molecule, acceptor atom, score
      L1  H     4    37       P1  8028  2.00
      L1  H    15    35       P1  7948  0.48
      P1  H  7989  7998       L1    16  1.00

> <Gold.PLP.Chemscore.Internal.Correction>
0.2174

> <Gold.Rescore>
     Score         DG    S(hbond)    S(metal)    S(lipo)     H(rot)  DE(clash)    DE(int)     intcor
     17.15     -18.06       2.73        0.00      84.30       2.51       0.27       0.64       ----

> <Gold.Chemscore.Fitness>
17.1453

> <Gold.Chemscore.DG>
-18.0576

> <Gold.Chemscore.ZeroCoef>
-5.4800

> <Gold.Chemscore.Hbond>
2.7336

> <Gold.Chemscore.Metal>
0.0000

> <Gold.Chemscore.Lipo>
84.2999

> <Gold.Chemscore.Internal_Hbond>
0.0000

> <Gold.Chemscore.DEClash>
0.2723

> <Gold.Chemscore.DEInternal>
0.6399

> <Gold.Chemscore.Rot>
2.5062

> <Gold.Chemscore.Internal.Correction>
   9.000000E+99

> <Gold.Chemscore.Hbonds>
donor molecule, donor type, donor heavy atom, donor atom, acceptor molecule, acceptor atom, score
      L1  H     4    37       P1  8028  0.98
      L1  H    15    35       P1  7948  0.46
      P1  H  7989  7998       L1    16  0.73

> <Gold.Chemscore.Hbond.Weighted>
-9.1304

> <Gold.Chemscore.Metal.Weighted>
-0.0000

> <Gold.Chemscore.Lipo.Weighted>
-9.8631

> <Gold.Chemscore.Internal_Hbond.Weighted>
0.0000

> <Gold.Chemscore.DEClash.Weighted>
0.2723

> <Gold.Chemscore.DEInternal.Weighted>
0.6399

> <Gold.Chemscore.Rot.Weighted>
6.4159

> <Gold.Chemscore.Internal.Correction.Weighted>
   9.000000E+99

> <Gold.Protein.RotatedTorsions>
[ 6907 6896 6895 6894 ] final  120.38 input  -60.11 | X-H torsion
[ 7974 7965 7964 7962 ] final -148.94 input  175.53 | X-H torsion
[ 8008 7997 7996 7995 ] final -150.94 input   59.86 | X-H torsion
[ 10167 10162 10161 10158 ] final -107.60 input  -65.29 | X-H torsion
[ 10718 10713 10712 10709 ] final  -60.19 input   66.30 | X-H torsion
[ 10763 10752 10751 10750 ] final  112.45 input  -60.55 | X-H torsion
[ 11005 11000 10999 10996 ] final  100.81 input  -57.11 | X-H torsion

> <Gold.Protein.ActiveResidues>
 VAL166  LYS551  ARG553  GLY616  TRP617  ASP618  TYR619  PRO620  LYS621  CYS622 
 ASP623  PHE694  ASN695  SER759  ASP760  ASP761  ALA762  ILE779  LEU786  VAL792 
 PHE793  MET794  SER795  GLU796  ALA797  LYS798  CYS799  TRP800  GLU811  SER814 

> <Gold.Protein.RotatedAtoms>
  152.4402  133.7434  159.6653 H   0  0  0  0  0  0  0  0  0  0  0  0  # atno 6907 bound_to 6896
  150.8292  133.8110  159.3112 H   0  0  0  0  0  0  0  0  0  0  0  0  # atno 6908 bound_to 6896
  151.5769  135.1062  160.0060 H   0  0  0  0  0  0  0  0  0  0  0  0  # atno 6909 bound_to 6896
  144.7998  140.5130  143.5715 H   0  0  0  0  0  0  0  0  0  0  0  0  # atno 7974 bound_to 7965
  155.6316  140.0692  157.2647 H   0  0  0  0  0  0  0  0  0  0  0  0  # atno 8008 bound_to 7997
  154.4204  140.1766  156.1527 H   0  0  0  0  0  0  0  0  0  0  0  0  # atno 8009 bound_to 7997
  155.9928  140.3343  155.6773 H   0  0  0  0  0  0  0  0  0  0  0  0  # atno 8010 bound_to 7997
  140.1752  143.4010  152.1324 H   0  0  0  0  0  0  0  0  0  0  0  0  # atno 10167 bound_to 10162
  156.1008  130.4186  150.0819 H   0  0  0  0  0  0  0  0  0  0  0  0  # atno 10718 bound_to 10713
  153.4780  135.3686  155.2427 H   0  0  0  0  0  0  0  0  0  0  0  0  # atno 10763 bound_to 10752
  154.8756  135.3947  154.3733 H   0  0  0  0  0  0  0  0  0  0  0  0  # atno 10764 bound_to 10752
  153.4332  135.7083  153.6282 H   0  0  0  0  0  0  0  0  0  0  0  0  # atno 10765 bound_to 10752
  139.8772  134.9156  156.4812 H   0  0  0  0  0  0  0  0  0  0  0  0  # atno 11005 bound_to 11000
  145.5581  139.1478  143.3356 LP  0  0  0  0  0  0  0  0  0  0  0  0  # atno 17320 bound_to 7965
  146.2276  140.5718  142.8989 LP  0  0  0  0  0  0  0  0  0  0  0  0  # atno 17321 bound_to 7965
  139.5320  144.7169  151.5023 LP  0  0  0  0  0  0  0  0  0  0  0  0  # atno 17342 bound_to 10162
  140.6556  143.8607  150.6831 LP  0  0  0  0  0  0  0  0  0  0  0  0  # atno 17343 bound_to 10162
  156.8807  130.9555  151.3599 LP  0  0  0  0  0  0  0  0  0  0  0  0  # atno 17370 bound_to 10713
  157.6178  130.8631  149.9057 LP  0  0  0  0  0  0  0  0  0  0  0  0  # atno 17371 bound_to 10713
  140.8726  133.7977  155.9380 LP  0  0  0  0  0  0  0  0  0  0  0  0  # atno 17394 bound_to 11000
  140.8937  134.2463  157.5080 LP  0  0  0  0  0  0  0  0  0  0  0  0  # atno 17395 bound_to 11000

$$$$
