AV-unprocessed.smi:33|AV-procd|sdf|199|dock3
  -GOLD-   2262015473D 1   1.00000     0.00000
 Structure written by MMmdl.
 67 72  0  0  0  0  0  0  0  0  1 V2000
  151.6225  143.0000  157.8076 O   0  0  0  0  0  0  0  0  0  0  0  0
  151.6765  142.1510  158.6997 C   0  0  0  0  0  0  0  0  0  0  0  0
  151.1964  140.9007  158.5684 O   0  0  0  0  0  0  0  0  0  0  0  0
  150.5945  140.4912  157.3517 C   0  0  0  0  0  0  0  0  0  0  0  0
  149.5055  139.4632  157.6731 C   0  0  2  0  0  0  0  0  0  0  0  0
  149.3290  138.5526  156.5962 O   0  0  0  0  0  0  0  0  0  0  0  0
  148.1048  137.9002  156.7526 C   0  0  1  0  0  0  0  0  0  0  0  0
  148.3588  136.5627  157.3833 N   0  0  0  0  0  0  0  0  0  0  0  0
  149.5336  136.0317  157.8765 C   0  0  0  0  0  0  0  0  0  0  0  0
  149.4387  134.8244  158.3653 N   0  0  0  0  0  0  0  0  0  0  0  0
  148.1021  134.4939  158.1859 C   0  0  0  0  0  0  0  0  0  0  0  0
  147.3162  133.3488  158.4839 C   0  0  0  0  0  0  0  0  0  0  0  0
  147.8233  132.2471  159.0848 N   0  0  0  0  0  0  0  0  0  0  0  0
  148.2595  131.1503  158.2083 C   0  0  0  0  0  0  0  0  0  0  0  0
  148.2779  129.9963  158.6409 O   0  0  0  0  0  0  0  0  0  0  0  0
  148.6384  131.4216  156.7801 C   0  0  0  0  0  0  0  0  0  0  0  0
  148.1716  130.5749  155.7509 C   0  0  0  0  0  0  0  0  0  0  0  0
  148.5368  130.8166  154.4123 C   0  0  0  0  0  0  0  0  0  0  0  0
  149.3853  131.8948  154.0968 C   0  0  0  0  0  0  0  0  0  0  0  0
  149.8777  132.7252  155.1214 C   0  0  0  0  0  0  0  0  0  0  0  0
  149.5131  132.4844  156.4601 C   0  0  0  0  0  0  0  0  0  0  0  0
  147.8884  132.2473  160.5536 C   0  0  0  0  0  0  0  0  0  0  0  0
  148.7110  131.5294  161.1255 O   0  0  0  0  0  0  0  0  0  0  0  0
  147.0004  133.1556  161.3559 C   0  0  0  0  0  0  0  0  0  0  0  0
  145.6238  132.8670  161.4814 C   0  0  0  0  0  0  0  0  0  0  0  0
  144.7841  133.7209  162.2224 C   0  0  0  0  0  0  0  0  0  0  0  0
  145.3113  134.8784  162.8255 C   0  0  0  0  0  0  0  0  0  0  0  0
  146.6772  135.1872  162.6803 C   0  0  0  0  0  0  0  0  0  0  0  0
  147.5181  134.3329  161.9414 C   0  0  0  0  0  0  0  0  0  0  0  0
  146.0000  133.3738  158.1478 N   0  0  0  0  0  0  0  0  0  0  0  0
  145.4856  134.4574  157.5578 C   0  0  0  0  0  0  0  0  0  0  0  0
  146.0967  135.5975  157.2250 N   0  0  0  0  0  0  0  0  0  0  0  0
  147.4191  135.5714  157.5608 C   0  0  0  0  0  0  0  0  0  0  0  0
  147.2160  138.8171  157.6325 C   0  0  1  0  0  0  0  0  0  0  0  0
  146.8538  138.2698  158.8888 O   0  0  0  0  0  0  0  0  0  0  0  0
  148.1008  140.0397  157.8345 C   0  0  2  0  0  0  0  0  0  0  0  0
  147.8493  140.9347  156.8766 F   0  0  0  0  0  0  0  0  0  0  0  0
  152.2816  142.4005  160.0399 C   0  0  0  0  0  0  0  0  0  0  0  0
  151.9679  143.5939  160.7310 C   0  0  0  0  0  0  0  0  0  0  0  0
  152.5245  143.8569  161.9978 C   0  0  0  0  0  0  0  0  0  0  0  0
  153.4022  142.9296  162.5890 C   0  0  0  0  0  0  0  0  0  0  0  0
  153.7229  141.7389  161.9114 C   0  0  0  0  0  0  0  0  0  0  0  0
  153.1669  141.4738  160.6447 C   0  0  0  0  0  0  0  0  0  0  0  0
  150.1537  141.3605  156.8619 H   0  0  0  0  0  0  0  0  0  0  0  0
  151.3384  140.0681  156.6751 H   0  0  0  0  0  0  0  0  0  0  0  0
  149.7678  138.9165  158.5804 H   0  0  0  0  0  0  0  0  0  0  0  0
  147.6706  137.6653  155.7801 H   0  0  0  0  0  0  0  0  0  0  0  0
  150.4738  136.5634  157.8651 H   0  0  0  0  0  0  0  0  0  0  0  0
  147.5204  129.7443  155.9817 H   0  0  0  0  0  0  0  0  0  0  0  0
  148.1667  130.1736  153.6275 H   0  0  0  0  0  0  0  0  0  0  0  0
  149.6644  132.0804  153.0701 H   0  0  0  0  0  0  0  0  0  0  0  0
  150.5372  133.5461  154.8812 H   0  0  0  0  0  0  0  0  0  0  0  0
  149.9021  133.1244  157.2392 H   0  0  0  0  0  0  0  0  0  0  0  0
  145.2086  131.9807  161.0233 H   0  0  0  0  0  0  0  0  0  0  0  0
  143.7349  133.4871  162.3275 H   0  0  0  0  0  0  0  0  0  0  0  0
  144.6669  135.5327  163.3941 H   0  0  0  0  0  0  0  0  0  0  0  0
  147.0808  136.0799  163.1346 H   0  0  0  0  0  0  0  0  0  0  0  0
  148.5640  134.5821  161.8332 H   0  0  0  0  0  0  0  0  0  0  0  0
  144.4335  134.4040  157.3198 H   0  0  0  0  0  0  0  0  0  0  0  0
  146.3045  139.0687  157.0891 H   0  0  0  0  0  0  0  0  0  0  0  0
  146.0510  137.7824  158.7811 H   0  0  0  0  0  0  0  0  0  0  0  0
  147.9487  140.5419  158.7908 H   0  0  0  0  0  0  0  0  0  0  0  0
  151.2969  144.3213  160.2969 H   0  0  0  0  0  0  0  0  0  0  0  0
  152.2773  144.7717  162.5158 H   0  0  0  0  0  0  0  0  0  0  0  0
  153.8291  143.1314  163.5603 H   0  0  0  0  0  0  0  0  0  0  0  0
  154.3971  141.0266  162.3638 H   0  0  0  0  0  0  0  0  0  0  0  0
  153.4346  140.5503  160.1524 H   0  0  0  0  0  0  0  0  0  0  0  0
  1  2  2  0  0  0  0
  2  3  1  0  0  0  0
  2 38  1  0  0  0  0
  3  4  1  0  0  0  0
  4  5  1  0  0  0  0
  4 44  1  0  0  0  0
  4 45  1  0  0  0  0
  5 36  1  0  0  0  0
  5  6  1  0  0  0  0
  5 46  1  0  0  0  0
  6  7  1  0  0  0  0
  7  8  1  0  0  0  0
  7 34  1  0  0  0  0
  7 47  1  0  0  0  0
  8 33  1  0  0  0  0
  8  9  1  0  0  0  0
  9 10  2  0  0  0  0
  9 48  1  0  0  0  0
 10 11  1  0  0  0  0
 11 33  2  0  0  0  0
 11 12  1  0  0  0  0
 12 13  1  0  0  0  0
 12 30  2  0  0  0  0
 13 14  1  0  0  0  0
 13 22  1  0  0  0  0
 14 15  2  0  0  0  0
 14 16  1  0  0  0  0
 16 21  1  0  0  0  0
 16 17  2  0  0  0  0
 17 18  1  0  0  0  0
 17 49  1  0  0  0  0
 18 19  2  0  0  0  0
 18 50  1  0  0  0  0
 19 20  1  0  0  0  0
 19 51  1  0  0  0  0
 20 21  2  0  0  0  0
 20 52  1  0  0  0  0
 21 53  1  0  0  0  0
 22 23  2  0  0  0  0
 22 24  1  0  0  0  0
 24 29  1  0  0  0  0
 24 25  2  0  0  0  0
 25 26  1  0  0  0  0
 25 54  1  0  0  0  0
 26 27  2  0  0  0  0
 26 55  1  0  0  0  0
 27 28  1  0  0  0  0
 27 56  1  0  0  0  0
 28 29  2  0  0  0  0
 28 57  1  0  0  0  0
 29 58  1  0  0  0  0
 30 31  1  0  0  0  0
 31 32  2  0  0  0  0
 31 59  1  0  0  0  0
 32 33  1  0  0  0  0
 34 35  1  0  0  0  0
 34 36  1  0  0  0  0
 34 60  1  0  0  0  0
 35 61  1  0  0  0  0
 36 37  1  0  0  0  0
 36 62  1  0  0  0  0
 38 43  1  0  0  0  0
 38 39  2  0  0  0  0
 39 40  1  0  0  0  0
 39 63  1  0  0  0  0
 40 41  2  0  0  0  0
 40 64  1  0  0  0  0
 41 42  1  0  0  0  0
 41 65  1  0  0  0  0
 42 43  2  0  0  0  0
 42 66  1  0  0  0  0
 43 67  1  0  0  0  0
M  END
> <s_m_source_file>
AV-unprocessed.smi

> <i_m_source_file_index>
33

> <i_lp_mmshare_version>
43012

> <i_f3d_flags>
0

> <s_epik_input>
W2NIXTFbY0hdW2NIXVtjSF1bY0hdYzFDKD1PKU9bQ0gyXVtDQEBIXTJPW0NASF0oW0NAQEhdKFtPSF0pW0NAQEhdMkYpbihbY0hdbjMpYyhjMzQpbltjSF1uYzROKEMoPU8pYzVbY0hdW2NIXVtjSF1bY0hdW2NIXTUpQyg9TyljNltjSF1bY0hdW2NIXVtjSF1bY0hdNg==

> <s_epik_cmdline>
J2VwaWtfcHl0aG9uJywgJy1waCcsICc3LjAnLCAnLXRuJywgJzgnLCAnLW1hJywgJzIwMCcsICctbWV0YWxfYmluZGluZycsICctaW1hZScsICc8aW5maWxlLm1hZT4nLCAnLW9tYWUnLCAnPG91dGZpbGUubWFlPic=

> <r_lp_tautomer_probability>
1

> <r_epik_Ionization_Penalty>
0.00067664

> <r_epik_Ionization_Penalty_Charging>
0

> <r_epik_Ionization_Penalty_Neutral>
0.00067664

> <r_epik_State_Penalty>
0.000428095

> <r_epik_Charging_Adjusted_Penalty>
0.000428095

> <i_epik_Tot_Q>
0

> <i_epik_Tot_abs_Q>
0

> <r_epik_Metal_State_Penalty>
-0

> <b_epik_Metal_Only>
0

> <s_epik_Chemistry_Notes>
This compound has an ester and may undergo hydrolysis at high or low pH. This compound contains an acetal/aminal-like group ( X-CH(R)-Y where X, Y are N, S, or O) that may be acid/base labile, releasing an aldehyde.

> <s_lp_Force_Field>
OPLS_2005

> <r_lp_Energy>
71.8737

> <b_lp_Chiralities_Consistent>
1

> <s_lp_Variant>
AV-unprocessed.smi:33-1

> <Gold.Version>
5.8.1

> <Gold.Id.Protein>
6NUR|6NUR_protein|mol2

> <Gold.PLP.Fitness>
55.3455

> <Gold.PLP.PLP>
-57.4833

> <Gold.PLP.part.hbond>
-2.0000

> <Gold.PLP.part.metal>
0.0000

> <Gold.PLP.part.buried>
-6.6021

> <Gold.PLP.part.nonpolar>
-47.8545

> <Gold.PLP.part.repulsive>
0.0693

> <Gold.PLP.ligand.clash>
0.0000

> <Gold.PLP.ligand.torsion>
5.6113

> <Gold.PLP.Chemscore.Hbond>
1.2621

> <Gold.PLP.Chemscore.CHOScore>
0.0000

> <Gold.PLP.Chemscore.Metal>
0.0000

> <Gold.Chemscore.Hbonds>
donor molecule, donor type, donor heavy atom, donor atom, acceptor molecule, acceptor atom, score
      P1  H  6896  6909       L1    10  1.00
      P1  H  6934  6947       L1    35  0.28

> <Gold.PLP.Chemscore.Internal.Correction>
5.2986

> <Gold.Rescore>
     Score         DG    S(hbond)    S(metal)    S(lipo)     H(rot)  DE(clash)    DE(int)     intcor
     12.75     -20.31       1.26        0.00     146.06       2.52       0.16       7.40       ----

> <Gold.Chemscore.Fitness>
12.7523

> <Gold.Chemscore.DG>
-20.3085

> <Gold.Chemscore.ZeroCoef>
-5.4800

> <Gold.Chemscore.Hbond>
1.2582

> <Gold.Chemscore.Metal>
0.0000

> <Gold.Chemscore.Lipo>
146.0641

> <Gold.Chemscore.Internal_Hbond>
0.0000

> <Gold.Chemscore.DEClash>
0.1559

> <Gold.Chemscore.DEInternal>
7.4003

> <Gold.Chemscore.Rot>
2.5247

> <Gold.Chemscore.Internal.Correction>
   9.000000E+99

> <Gold.Chemscore.Hbonds>
donor molecule, donor type, donor heavy atom, donor atom, acceptor molecule, acceptor atom, score
      P1  H  6896  6909       L1    10  0.96
      P1  H  6934  6947       L1    35  0.26

> <Gold.Chemscore.Hbond.Weighted>
-4.2022

> <Gold.Chemscore.Metal.Weighted>
-0.0000

> <Gold.Chemscore.Lipo.Weighted>
-17.0895

> <Gold.Chemscore.Internal_Hbond.Weighted>
0.0000

> <Gold.Chemscore.DEClash.Weighted>
0.1559

> <Gold.Chemscore.DEInternal.Weighted>
7.4003

> <Gold.Chemscore.Rot.Weighted>
6.4633

> <Gold.Chemscore.Internal.Correction.Weighted>
   9.000000E+99

> <Gold.Protein.RotatedTorsions>
[ 6907 6896 6895 6894 ] final   17.13 input  -60.11 | X-H torsion
[ 7974 7965 7964 7962 ] final  153.87 input  175.53 | X-H torsion
[ 8008 7997 7996 7995 ] final  -34.75 input   59.86 | X-H torsion
[ 10167 10162 10161 10158 ] final   86.21 input  -65.29 | X-H torsion
[ 10718 10713 10712 10709 ] final   60.56 input   66.30 | X-H torsion
[ 10763 10752 10751 10750 ] final -125.03 input  -60.55 | X-H torsion
[ 11005 11000 10999 10996 ] final   -9.24 input  -57.11 | X-H torsion

> <Gold.Protein.ActiveResidues>
 VAL166  LYS551  ARG553  GLY616  TRP617  ASP618  TYR619  PRO620  LYS621  CYS622 
 ASP623  PHE694  ASN695  SER759  ASP760  ASP761  ALA762  ILE779  LEU786  VAL792 
 PHE793  MET794  SER795  GLU796  ALA797  LYS798  CYS799  TRP800  GLU811  SER814 

> <Gold.Protein.RotatedAtoms>
  151.8448  135.0578  160.0451 H   0  0  0  0  0  0  0  0  0  0  0  0  # atno 6907 bound_to 6896
  152.2781  133.5440  159.5489 H   0  0  0  0  0  0  0  0  0  0  0  0  # atno 6908 bound_to 6896
  150.7178  134.0519  159.3843 H   0  0  0  0  0  0  0  0  0  0  0  0  # atno 6909 bound_to 6896
  144.8126  139.6858  143.6135 H   0  0  0  0  0  0  0  0  0  0  0  0  # atno 7974 bound_to 7965
  154.4112  140.1675  156.2100 H   0  0  0  0  0  0  0  0  0  0  0  0  # atno 8008 bound_to 7997
  155.9452  140.3405  155.6337 H   0  0  0  0  0  0  0  0  0  0  0  0  # atno 8009 bound_to 7997
  155.6939  140.0737  157.2428 H   0  0  0  0  0  0  0  0  0  0  0  0  # atno 8010 bound_to 7997
  139.8898  144.6392  150.8751 H   0  0  0  0  0  0  0  0  0  0  0  0  # atno 10167 bound_to 10162
  157.5762  130.8945  149.9351 H   0  0  0  0  0  0  0  0  0  0  0  0  # atno 10718 bound_to 10713
  154.8731  135.4043  154.3202 H   0  0  0  0  0  0  0  0  0  0  0  0  # atno 10763 bound_to 10752
  153.4031  135.7018  153.6417 H   0  0  0  0  0  0  0  0  0  0  0  0  # atno 10764 bound_to 10752
  153.5151  135.3699  155.2576 H   0  0  0  0  0  0  0  0  0  0  0  0  # atno 10765 bound_to 10752
  140.7320  133.8741  155.8900 H   0  0  0  0  0  0  0  0  0  0  0  0  # atno 11005 bound_to 11000
  146.2426  139.6032  142.9481 LP  0  0  0  0  0  0  0  0  0  0  0  0  # atno 17320 bound_to 7965
  145.5289  141.0428  143.2394 LP  0  0  0  0  0  0  0  0  0  0  0  0  # atno 17321 bound_to 7965
  140.7728  143.3519  151.1998 LP  0  0  0  0  0  0  0  0  0  0  0  0  # atno 17342 bound_to 10162
  139.7120  143.9362  152.2951 LP  0  0  0  0  0  0  0  0  0  0  0  0  # atno 17343 bound_to 10162
  156.0807  130.3673  150.0587 LP  0  0  0  0  0  0  0  0  0  0  0  0  # atno 17370 bound_to 10713
  156.8733  130.9531  151.3607 LP  0  0  0  0  0  0  0  0  0  0  0  0  # atno 17371 bound_to 10713
  140.9913  134.1275  157.4406 LP  0  0  0  0  0  0  0  0  0  0  0  0  # atno 17394 bound_to 11000
  139.8824  135.0041  156.6228 LP  0  0  0  0  0  0  0  0  0  0  0  0  # atno 17395 bound_to 11000

$$$$
