AV-unprocessed.smi:3116|AV-procd|sdf|11871|dock7
  -GOLD-   2272017253D 1   1.00000     0.00000
 Structure written by MMmdl.
 33 33  0  0  0  0  0  0  0  0  1 V2000
  146.8088  137.2417  154.1842 C   0  0  0  0  0  0  0  0  0  0  0  0
  146.9098  138.5913  153.4410 C   0  0  1  0  0  0  0  0  0  0  0  0
  148.3089  139.0350  153.3279 N   0  0  0  0  0  0  0  0  0  0  0  0
  148.7465  139.9244  154.4024 C   0  0  2  0  0  0  0  0  0  0  0  0
  148.2597  141.3520  154.0757 C   0  0  0  0  0  0  0  0  0  0  0  0
  150.2901  139.8124  154.5269 C   0  0  2  0  0  0  0  0  0  0  0  0
  150.7830  138.3554  154.4229 C   0  0  0  0  0  0  0  0  0  0  0  0
  150.7903  140.4223  155.7532 N   0  0  0  0  0  0  0  0  0  0  0  0
  150.6123  141.7170  156.1955 C   0  0  0  0  0  0  0  0  0  0  0  0
  151.2591  141.8333  157.3925 C   0  0  0  0  0  0  0  0  0  0  0  0
  151.8122  140.5401  157.6045 C   0  0  0  0  0  0  0  0  0  0  0  0
  151.5311  139.6985  156.6235 N   0  0  0  0  0  0  0  0  0  0  0  0
  146.2839  138.5116  152.0412 C   0  0  0  0  0  0  0  0  0  0  0  0
  145.0063  138.1273  151.9778 N   0  0  0  0  0  0  0  0  0  0  0  0
  146.9251  138.8008  151.0321 O   0  0  0  0  0  0  0  0  0  0  0  0
  145.7839  136.8685  154.1884 H   0  0  0  0  0  0  0  0  0  0  0  0
  147.1153  137.3253  155.2262 H   0  0  0  0  0  0  0  0  0  0  0  0
  147.4375  136.4813  153.7190 H   0  0  0  0  0  0  0  0  0  0  0  0
  146.3348  139.3338  153.9962 H   0  0  0  0  0  0  0  0  0  0  0  0
  148.4840  139.4886  152.4428 H   0  0  0  0  0  0  0  0  0  0  0  0
  148.3092  139.6231  155.3542 H   0  0  0  0  0  0  0  0  0  0  0  0
  148.4983  142.0504  154.8780 H   0  0  0  0  0  0  0  0  0  0  0  0
  147.1790  141.3913  153.9406 H   0  0  0  0  0  0  0  0  0  0  0  0
  148.7210  141.7284  153.1621 H   0  0  0  0  0  0  0  0  0  0  0  0
  150.7383  140.3707  153.7029 H   0  0  0  0  0  0  0  0  0  0  0  0
  150.5279  137.9157  153.4585 H   0  0  0  0  0  0  0  0  0  0  0  0
  150.3413  137.7268  155.1968 H   0  0  0  0  0  0  0  0  0  0  0  0
  151.8668  138.2995  154.5276 H   0  0  0  0  0  0  0  0  0  0  0  0
  150.0455  142.4405  155.6284 H   0  0  0  0  0  0  0  0  0  0  0  0
  151.3266  142.7089  158.0209 H   0  0  0  0  0  0  0  0  0  0  0  0
  152.4056  140.1900  158.4361 H   0  0  0  0  0  0  0  0  0  0  0  0
  144.5426  138.0627  151.0832 H   0  0  0  0  0  0  0  0  0  0  0  0
  144.5074  137.9079  152.8278 H   0  0  0  0  0  0  0  0  0  0  0  0
  1  2  1  0  0  0  0
  1 16  1  0  0  0  0
  1 17  1  0  0  0  0
  1 18  1  0  0  0  0
  2  3  1  0  0  0  0
  2 13  1  0  0  0  0
  2 19  1  0  0  0  0
  3  4  1  0  0  0  0
  3 20  1  0  0  0  0
  4  5  1  0  0  0  0
  4  6  1  0  0  0  0
  4 21  1  0  0  0  0
  5 22  1  0  0  0  0
  5 23  1  0  0  0  0
  5 24  1  0  0  0  0
  6  7  1  0  0  0  0
  6  8  1  0  0  0  0
  6 25  1  0  0  0  0
  7 26  1  0  0  0  0
  7 27  1  0  0  0  0
  7 28  1  0  0  0  0
  8 12  1  0  0  0  0
  8  9  1  0  0  0  0
  9 10  2  0  0  0  0
  9 29  1  0  0  0  0
 10 11  1  0  0  0  0
 10 30  1  0  0  0  0
 11 12  2  0  0  0  0
 11 31  1  0  0  0  0
 13 14  1  0  0  0  0
 13 15  2  0  0  0  0
 14 32  1  0  0  0  0
 14 33  1  0  0  0  0
M  END
> <s_m_source_file>
AV-unprocessed.smi

> <i_m_source_file_index>
3116

> <i_lp_mmshare_version>
43012

> <i_f3d_flags>
0

> <s_epik_input>
W05IMl1DKD1PKVtDQEhdKFtDSDNdKVtOSF1bQ0BIXShbQ0gzXSlbQ0BIXShbQ0gzXSluMVtjSF1bY0hdW2NIXW4x

> <s_epik_cmdline>
J2VwaWtfcHl0aG9uJywgJy1waCcsICc3LjAnLCAnLXRuJywgJzgnLCAnLW1hJywgJzIwMCcsICctbWV0YWxfYmluZGluZycsICctaW1hZScsICc8aW5maWxlLm1hZT4nLCAnLW9tYWUnLCAnPG91dGZpbGUubWFlPic=

> <r_lp_tautomer_probability>
1

> <r_epik_Ionization_Penalty>
0.865977

> <r_epik_Ionization_Penalty_Charging>
0

> <r_epik_Ionization_Penalty_Neutral>
0.865977

> <r_epik_State_Penalty>
0.901888

> <r_epik_Charging_Adjusted_Penalty>
0.901888

> <i_epik_Tot_Q>
0

> <i_epik_Tot_abs_Q>
0

> <r_epik_Metal_State_Penalty>
0.901181

> <b_epik_Metal_Only>
0

> <s_lp_Force_Field>
OPLS_2005

> <r_lp_Energy>
9.31489

> <b_lp_Chiralities_Consistent>
1

> <s_lp_Variant>
AV-unprocessed.smi:3116-10

> <Gold.Version>
5.8.1

> <Gold.Id.Protein>
6NUR|6NUR_protein|mol2

> <Gold.PLP.Fitness>
40.7728

> <Gold.PLP.PLP>
-30.6241

> <Gold.PLP.part.hbond>
-4.5073

> <Gold.PLP.part.metal>
0.0000

> <Gold.PLP.part.buried>
-3.5453

> <Gold.PLP.part.nonpolar>
-24.2357

> <Gold.PLP.part.repulsive>
1.1478

> <Gold.PLP.ligand.clash>
0.0000

> <Gold.PLP.ligand.torsion>
0.9665

> <Gold.PLP.Chemscore.Hbond>
2.9920

> <Gold.PLP.Chemscore.CHOScore>
1.0000

> <Gold.PLP.Chemscore.Metal>
0.0000

> <Gold.Chemscore.Hbonds>
donor molecule, donor type, donor heavy atom, donor atom, acceptor molecule, acceptor atom, score
      L1  H     3    20       P1  7957  1.00
      L1  H    14    32       P1 10171  0.99
      P1  H  7954  7966       L1    15  0.90
      L1  C     9    29       P1  8028  0.94

> <Gold.PLP.Chemscore.Internal.Correction>
0.1056

> <Gold.Rescore>
     Score         DG    S(hbond)    S(metal)    S(lipo)     H(rot)  DE(clash)    DE(int)     intcor
     14.18     -15.54       2.86        0.00      56.47       2.38       0.47       0.90       ----

> <Gold.Chemscore.Fitness>
14.1819

> <Gold.Chemscore.DG>
-15.5444

> <Gold.Chemscore.ZeroCoef>
-5.4800

> <Gold.Chemscore.Hbond>
2.8621

> <Gold.Chemscore.Metal>
0.0000

> <Gold.Chemscore.Lipo>
56.4684

> <Gold.Chemscore.Internal_Hbond>
0.0000

> <Gold.Chemscore.DEClash>
0.4668

> <Gold.Chemscore.DEInternal>
0.8956

> <Gold.Chemscore.Rot>
2.3836

> <Gold.Chemscore.Internal.Correction>
   9.000000E+99

> <Gold.Chemscore.Hbonds>
donor molecule, donor type, donor heavy atom, donor atom, acceptor molecule, acceptor atom, score
      L1  H     3    20       P1  7957  0.96
      L1  H    14    32       P1 10171  0.92
      P1  H  7954  7966       L1    15  0.88

> <Gold.Chemscore.Hbond.Weighted>
-9.5596

> <Gold.Chemscore.Metal.Weighted>
-0.0000

> <Gold.Chemscore.Lipo.Weighted>
-6.6068

> <Gold.Chemscore.Internal_Hbond.Weighted>
0.0000

> <Gold.Chemscore.DEClash.Weighted>
0.4668

> <Gold.Chemscore.DEInternal.Weighted>
0.8956

> <Gold.Chemscore.Rot.Weighted>
6.1020

> <Gold.Chemscore.Internal.Correction.Weighted>
   9.000000E+99

> <Gold.Protein.RotatedTorsions>
[ 6907 6896 6895 6894 ] final  116.01 input  -60.11 | X-H torsion
[ 7974 7965 7964 7962 ] final -179.83 input  175.53 | X-H torsion
[ 8008 7997 7996 7995 ] final  166.61 input   59.86 | X-H torsion
[ 10167 10162 10161 10158 ] final  -20.96 input  -65.29 | X-H torsion
[ 10718 10713 10712 10709 ] final   42.83 input   66.30 | X-H torsion
[ 10763 10752 10751 10750 ] final   79.00 input  -60.55 | X-H torsion
[ 11005 11000 10999 10996 ] final -152.02 input  -57.11 | X-H torsion

> <Gold.Protein.ActiveResidues>
 VAL166  LYS551  ARG553  GLY616  TRP617  ASP618  TYR619  PRO620  LYS621  CYS622 
 ASP623  PHE694  ASN695  SER759  ASP760  ASP761  ALA762  ILE779  LEU786  VAL792 
 PHE793  MET794  SER795  GLU796  ALA797  LYS798  CYS799  TRP800  GLU811  SER814 

> <Gold.Protein.RotatedAtoms>
  152.4705  133.8019  159.6957 H   0  0  0  0  0  0  0  0  0  0  0  0  # atno 6907 bound_to 6896
  150.8692  133.7521  159.2973 H   0  0  0  0  0  0  0  0  0  0  0  0  # atno 6908 bound_to 6896
  151.5061  135.1067  159.9894 H   0  0  0  0  0  0  0  0  0  0  0  0  # atno 6909 bound_to 6896
  144.7139  140.0659  143.6431 H   0  0  0  0  0  0  0  0  0  0  0  0  # atno 7974 bound_to 7965
  156.1704  140.1639  156.8457 H   0  0  0  0  0  0  0  0  0  0  0  0  # atno 8008 bound_to 7997
  154.5251  140.0769  156.8277 H   0  0  0  0  0  0  0  0  0  0  0  0  # atno 8009 bound_to 7997
  155.3524  140.3391  155.4242 H   0  0  0  0  0  0  0  0  0  0  0  0  # atno 8010 bound_to 7997
  140.7279  143.4673  151.0296 H   0  0  0  0  0  0  0  0  0  0  0  0  # atno 10167 bound_to 10162
  157.4092  130.7904  149.7415 H   0  0  0  0  0  0  0  0  0  0  0  0  # atno 10718 bound_to 10713
  153.0918  135.4856  154.8705 H   0  0  0  0  0  0  0  0  0  0  0  0  # atno 10763 bound_to 10752
  154.7278  135.3053  154.8944 H   0  0  0  0  0  0  0  0  0  0  0  0  # atno 10764 bound_to 10752
  153.9588  135.6815  153.4798 H   0  0  0  0  0  0  0  0  0  0  0  0  # atno 10765 bound_to 10752
  140.7233  134.3703  157.5179 H   0  0  0  0  0  0  0  0  0  0  0  0  # atno 11005 bound_to 11000
  145.9825  139.2952  143.1033 LP  0  0  0  0  0  0  0  0  0  0  0  0  # atno 17320 bound_to 7965
  145.8995  140.9252  143.0510 LP  0  0  0  0  0  0  0  0  0  0  0  0  # atno 17321 bound_to 7965
  139.8362  143.7625  152.3180 LP  0  0  0  0  0  0  0  0  0  0  0  0  # atno 17342 bound_to 10162
  139.7758  144.7461  151.0159 LP  0  0  0  0  0  0  0  0  0  0  0  0  # atno 17343 bound_to 10162
  155.9845  130.3990  150.3306 LP  0  0  0  0  0  0  0  0  0  0  0  0  # atno 17370 bound_to 10713
  157.1442  131.0304  151.2914 LP  0  0  0  0  0  0  0  0  0  0  0  0  # atno 17371 bound_to 10713
  139.8843  134.8969  156.2712 LP  0  0  0  0  0  0  0  0  0  0  0  0  # atno 17394 bound_to 11000
  140.9984  133.7166  156.0922 LP  0  0  0  0  0  0  0  0  0  0  0  0  # atno 17395 bound_to 11000

$$$$
