AV-unprocessed.smi:1180|AV-procd|sdf|4961|dock4
  -GOLD-   22720 3553D 1   1.00000     0.00000
 Structure written by MMmdl.
 38 39  0  0  0  0  0  0  0  0  1 V2000
  146.5043  138.2157  152.0819 C   0  0  0  0  0  0  0  0  0  0  0  0
  147.2543  139.2679  152.8712 C   0  0  0  0  0  0  0  0  0  0  0  0
  146.7511  140.4089  153.2103 N   0  0  0  0  0  0  0  0  0  0  0  0
  147.5451  141.3055  153.9394 C   0  0  0  0  0  0  0  0  0  0  0  0
  146.8865  142.6273  154.2940 C   0  0  0  0  0  0  0  0  0  0  0  0
  148.8259  140.9981  154.2991 C   0  0  0  0  0  0  0  0  0  0  0  0
  149.7186  141.9547  155.0890 C   0  0  0  0  0  0  0  0  0  0  0  0
  149.7917  141.7202  156.6006 C   0  0  0  0  0  0  0  0  0  0  0  0
  148.8091  141.3154  157.2228 O   0  0  0  0  0  0  0  0  0  0  0  0
  150.9713  141.9813  157.1809 N   0  0  0  0  0  0  0  0  0  0  0  0
  151.2426  141.8186  158.6033 C   0  0  0  0  0  0  0  0  0  0  0  0
  152.5567  142.5167  159.0059 C   0  0  1  0  0  0  0  0  0  0  0  0
  152.6053  143.9677  158.5615 C   0  0  0  0  0  0  0  0  0  0  0  0
  151.9255  144.7158  159.7098 C   0  0  0  0  0  0  0  0  0  0  0  0
  151.9940  143.8577  160.8455 O   0  0  0  0  0  0  0  0  0  0  0  0
  152.7225  142.6814  160.5180 C   0  0  0  0  0  0  0  0  0  0  0  0
  149.3898  139.6918  153.9070 C   0  0  0  0  0  0  0  0  0  0  0  0
  150.5305  139.3165  154.1726 O   0  0  0  0  0  0  0  0  0  0  0  0
  148.5548  138.8935  153.2049 N   0  0  0  0  0  0  0  0  0  0  0  0
  148.8953  137.9895  152.9115 H   0  0  0  0  0  0  0  0  0  0  0  0
  146.1859  138.6231  151.1219 H   0  0  0  0  0  0  0  0  0  0  0  0
  145.6175  137.8970  152.6302 H   0  0  0  0  0  0  0  0  0  0  0  0
  147.1224  137.3372  151.8915 H   0  0  0  0  0  0  0  0  0  0  0  0
  146.7709  142.7181  155.3743 H   0  0  0  0  0  0  0  0  0  0  0  0
  145.8964  142.7100  153.8437 H   0  0  0  0  0  0  0  0  0  0  0  0
  147.4853  143.4650  153.9362 H   0  0  0  0  0  0  0  0  0  0  0  0
  150.7311  141.8955  154.6887 H   0  0  0  0  0  0  0  0  0  0  0  0
  149.4121  142.9871  154.9167 H   0  0  0  0  0  0  0  0  0  0  0  0
  151.7287  142.3127  156.6014 H   0  0  0  0  0  0  0  0  0  0  0  0
  150.4105  142.2425  159.1676 H   0  0  0  0  0  0  0  0  0  0  0  0
  151.2839  140.7556  158.8471 H   0  0  0  0  0  0  0  0  0  0  0  0
  153.3949  141.9604  158.5837 H   0  0  0  0  0  0  0  0  0  0  0  0
  153.6446  144.2893  158.4822 H   0  0  0  0  0  0  0  0  0  0  0  0
  152.1294  144.1458  157.5966 H   0  0  0  0  0  0  0  0  0  0  0  0
  152.4078  145.6724  159.9115 H   0  0  0  0  0  0  0  0  0  0  0  0
  150.8767  144.9083  159.4817 H   0  0  0  0  0  0  0  0  0  0  0  0
  152.3762  141.8230  161.0940 H   0  0  0  0  0  0  0  0  0  0  0  0
  153.7725  142.8452  160.7649 H   0  0  0  0  0  0  0  0  0  0  0  0
  1  2  1  0  0  0  0
  1 21  1  0  0  0  0
  1 22  1  0  0  0  0
  1 23  1  0  0  0  0
  2 19  1  0  0  0  0
  2  3  2  0  0  0  0
  3  4  1  0  0  0  0
  4  5  1  0  0  0  0
  4  6  2  0  0  0  0
  5 24  1  0  0  0  0
  5 25  1  0  0  0  0
  5 26  1  0  0  0  0
  6  7  1  0  0  0  0
  6 17  1  0  0  0  0
  7  8  1  0  0  0  0
  7 27  1  0  0  0  0
  7 28  1  0  0  0  0
  8  9  2  0  0  0  0
  8 10  1  0  0  0  0
 10 11  1  0  0  0  0
 10 29  1  0  0  0  0
 11 12  1  0  0  0  0
 11 30  1  0  0  0  0
 11 31  1  0  0  0  0
 12 16  1  0  0  0  0
 12 13  1  0  0  0  0
 12 32  1  0  0  0  0
 13 14  1  0  0  0  0
 13 33  1  0  0  0  0
 13 34  1  0  0  0  0
 14 15  1  0  0  0  0
 14 35  1  0  0  0  0
 14 36  1  0  0  0  0
 15 16  1  0  0  0  0
 16 37  1  0  0  0  0
 16 38  1  0  0  0  0
 17 18  2  0  0  0  0
 17 19  1  0  0  0  0
 19 20  1  0  0  0  0
M  END
> <s_m_source_file>
AV-unprocessed.smi

> <i_m_source_file_index>
1180

> <i_lp_mmshare_version>
43012

> <i_f3d_flags>
0

> <s_epik_input>
W0NIM11jMW5jKFtDSDNdKWMoYyg9TylbbkhdMSlbQ0gyXUMoPU8pW05IXVtDSDJdW0NAQEhdMltDSDJdW0NIMl1PW0NIMl0y

> <s_epik_cmdline>
J2VwaWtfcHl0aG9uJywgJy1waCcsICc3LjAnLCAnLXRuJywgJzgnLCAnLW1hJywgJzIwMCcsICctbWV0YWxfYmluZGluZycsICctaW1hZScsICc8aW5maWxlLm1hZT4nLCAnLW9tYWUnLCAnPG91dGZpbGUubWFlPic=

> <r_lp_tautomer_probability>
0.839158

> <r_epik_Ionization_Penalty>
0.000395459

> <r_epik_Ionization_Penalty_Charging>
0.000363703

> <r_epik_Ionization_Penalty_Neutral>
3.17556e-05

> <r_epik_State_Penalty>
0.0471244

> <r_epik_Charging_Adjusted_Penalty>
0.0474881

> <i_epik_Tot_Q>
0

> <i_epik_Tot_abs_Q>
0

> <r_epik_Metal_State_Penalty>
0.225307

> <b_epik_Metal_Only>
0

> <s_lp_Force_Field>
OPLS_2005

> <r_lp_Energy>
22.3305

> <b_lp_Chiralities_Consistent>
1

> <s_lp_Variant>
AV-unprocessed.smi:1180-2

> <Gold.Version>
5.8.1

> <Gold.Id.Protein>
6NUR|6NUR_protein|mol2

> <Gold.PLP.Fitness>
44.4093

> <Gold.PLP.PLP>
-40.0410

> <Gold.PLP.part.hbond>
-3.0000

> <Gold.PLP.part.metal>
0.0000

> <Gold.PLP.part.buried>
1.5914

> <Gold.PLP.part.nonpolar>
-39.4786

> <Gold.PLP.part.repulsive>
0.6841

> <Gold.PLP.ligand.clash>
0.0000

> <Gold.PLP.ligand.torsion>
0.8258

> <Gold.PLP.Chemscore.Hbond>
2.0000

> <Gold.PLP.Chemscore.CHOScore>
0.0000

> <Gold.PLP.Chemscore.Metal>
0.0000

> <Gold.Chemscore.Hbonds>
donor molecule, donor type, donor heavy atom, donor atom, acceptor molecule, acceptor atom, score
      L1  H    19    20       P1  7948  1.00
      P1  H  7989  7998       L1    18  1.00

> <Gold.PLP.Chemscore.Internal.Correction>
0.0198

> <Gold.Rescore>
     Score         DG    S(hbond)    S(metal)    S(lipo)     H(rot)  DE(clash)    DE(int)     intcor
     14.47     -16.82       1.55        0.00      92.15       1.81       1.51       0.84       ----

> <Gold.Chemscore.Fitness>
14.4739

> <Gold.Chemscore.DG>
-16.8199

> <Gold.Chemscore.ZeroCoef>
-5.4800

> <Gold.Chemscore.Hbond>
1.5519

> <Gold.Chemscore.Metal>
0.0000

> <Gold.Chemscore.Lipo>
92.1470

> <Gold.Chemscore.Internal_Hbond>
0.0000

> <Gold.Chemscore.DEClash>
1.5107

> <Gold.Chemscore.DEInternal>
0.8353

> <Gold.Chemscore.Rot>
1.8065

> <Gold.Chemscore.Internal.Correction>
   9.000000E+99

> <Gold.Chemscore.Hbonds>
donor molecule, donor type, donor heavy atom, donor atom, acceptor molecule, acceptor atom, score
      L1  H    19    20       P1  7948  0.94
      P1  H  7989  7998       L1    18  0.28

> <Gold.Chemscore.Hbond.Weighted>
-5.1833

> <Gold.Chemscore.Metal.Weighted>
-0.0000

> <Gold.Chemscore.Lipo.Weighted>
-10.7812

> <Gold.Chemscore.Internal_Hbond.Weighted>
0.0000

> <Gold.Chemscore.DEClash.Weighted>
1.5107

> <Gold.Chemscore.DEInternal.Weighted>
0.8353

> <Gold.Chemscore.Rot.Weighted>
4.6246

> <Gold.Chemscore.Internal.Correction.Weighted>
   9.000000E+99

> <Gold.Protein.RotatedTorsions>
[ 6907 6896 6895 6894 ] final   53.24 input  -60.11 | X-H torsion
[ 7974 7965 7964 7962 ] final -108.93 input  175.53 | X-H torsion
[ 8008 7997 7996 7995 ] final   80.08 input   59.86 | X-H torsion
[ 10167 10162 10161 10158 ] final  153.62 input  -65.29 | X-H torsion
[ 10718 10713 10712 10709 ] final -102.53 input   66.30 | X-H torsion
[ 10763 10752 10751 10750 ] final  152.25 input  -60.55 | X-H torsion
[ 11005 11000 10999 10996 ] final   -6.68 input  -57.11 | X-H torsion

> <Gold.Protein.ActiveResidues>
 VAL166  LYS551  ARG553  GLY616  TRP617  ASP618  TYR619  PRO620  LYS621  CYS622 
 ASP623  PHE694  ASN695  SER759  ASP760  ASP761  ALA762  ILE779  LEU786  VAL792 
 PHE793  MET794  SER795  GLU796  ALA797  LYS798  CYS799  TRP800  GLU811  SER814 

> <Gold.Protein.RotatedAtoms>
  152.3317  134.7251  160.0287 H   0  0  0  0  0  0  0  0  0  0  0  0  # atno 6907 bound_to 6896
  151.7666  133.3332  159.3440 H   0  0  0  0  0  0  0  0  0  0  0  0  # atno 6908 bound_to 6896
  150.7426  134.5989  159.6071 H   0  0  0  0  0  0  0  0  0  0  0  0  # atno 6909 bound_to 6896
  145.1868  140.8996  143.3448 H   0  0  0  0  0  0  0  0  0  0  0  0  # atno 7974 bound_to 7965
  155.8785  140.3445  155.5871 H   0  0  0  0  0  0  0  0  0  0  0  0  # atno 8008 bound_to 7997
  155.7747  140.0850  157.2109 H   0  0  0  0  0  0  0  0  0  0  0  0  # atno 8009 bound_to 7997
  154.4022  140.1512  156.2969 H   0  0  0  0  0  0  0  0  0  0  0  0  # atno 8010 bound_to 7997
  139.4826  144.5257  151.7804 H   0  0  0  0  0  0  0  0  0  0  0  0  # atno 10167 bound_to 10162
  156.0232  130.5424  150.7122 H   0  0  0  0  0  0  0  0  0  0  0  0  # atno 10718 bound_to 10713
  154.1170  135.2835  155.3217 H   0  0  0  0  0  0  0  0  0  0  0  0  # atno 10763 bound_to 10752
  154.6450  135.5389  153.7837 H   0  0  0  0  0  0  0  0  0  0  0  0  # atno 10764 bound_to 10752
  153.0326  135.6496  154.1326 H   0  0  0  0  0  0  0  0  0  0  0  0  # atno 10765 bound_to 10752
  140.7046  133.8960  155.8707 H   0  0  0  0  0  0  0  0  0  0  0  0  # atno 11005 bound_to 11000
  145.0081  139.3535  143.6134 LP  0  0  0  0  0  0  0  0  0  0  0  0  # atno 17320 bound_to 7965
  146.3443  139.9332  142.8751 LP  0  0  0  0  0  0  0  0  0  0  0  0  # atno 17321 bound_to 7965
  140.4777  144.1495  150.5927 LP  0  0  0  0  0  0  0  0  0  0  0  0  # atno 17342 bound_to 10162
  140.4312  143.2567  151.9593 LP  0  0  0  0  0  0  0  0  0  0  0  0  # atno 17343 bound_to 10162
  157.4757  131.0897  151.0592 LP  0  0  0  0  0  0  0  0  0  0  0  0  # atno 17370 bound_to 10713
  157.1040  130.5993  149.5466 LP  0  0  0  0  0  0  0  0  0  0  0  0  # atno 17371 bound_to 10713
  141.0135  134.0988  157.4197 LP  0  0  0  0  0  0  0  0  0  0  0  0  # atno 17394 bound_to 11000
  139.8887  135.0100  156.6638 LP  0  0  0  0  0  0  0  0  0  0  0  0  # atno 17395 bound_to 11000

$$$$
