AV-unprocessed.smi:37|AV-procd|sdf|320|dock10
  -GOLD-   2262016143D 1   1.00000     0.00000
 Structure written by MMmdl.
 43 44  0  0  0  0  0  0  0  0  2 V2000
  152.4164  143.9955  158.6197 C   0  0  0  0  0  0  0  0  0  0  0  0
  152.3862  142.4682  158.7798 C   0  0  0  0  0  0  0  0  0  0  0  0
  151.0508  141.8363  158.3813 C   0  0  0  0  0  0  0  0  0  0  0  0
  149.9933  142.1053  158.9542 O   0  0  0  0  0  0  0  0  0  0  0  0
  151.1910  140.9806  157.3606 O   0  0  0  0  0  0  0  0  0  0  0  0
  150.0457  140.4090  156.7499 C   0  0  0  0  0  0  0  0  0  0  0  0
  150.4426  139.5622  155.5278 C   0  0  1  0  0  0  0  0  0  0  0  0
  150.8538  138.2622  155.9435 O   0  0  0  0  0  0  0  0  0  0  0  0
  150.6156  137.3986  154.8777 C   0  0  1  0  0  0  0  0  0  0  0  0
  150.7804  135.9552  155.3246 N   0  0  0  0  0  0  0  0  0  0  0  0
  150.0747  134.9250  154.7216 C   0  0  0  0  0  0  0  0  0  0  0  0
  150.2550  133.6386  155.0837 C   0  0  0  0  0  0  0  0  0  0  0  0
  149.5490  132.6677  154.4788 F   0  0  0  0  0  0  0  0  0  0  0  0
  151.2312  133.3099  156.1187 C   0  0  0  0  0  0  0  0  0  0  0  0
  151.3670  132.1393  156.4716 O   0  0  0  0  0  0  0  0  0  0  0  0
  151.9651  134.3314  156.6455 N   0  5  0  0  0  0  0  0  0  0  0  0
  151.8004  135.6326  156.2653 C   0  0  0  0  0  0  0  0  0  0  0  0
  152.5091  136.5438  156.6927 O   0  0  0  0  0  0  0  0  0  0  0  0
  149.2020  137.8110  154.4420 C   0  0  1  0  0  0  0  0  0  0  0  0
  147.8165  137.2936  155.7967 Br  0  0  0  0  0  0  0  0  0  0  0  0
  149.3700  139.3301  154.4397 C   0  0  1  0  0  0  0  0  0  0  0  0
  148.1529  140.0383  154.6539 O   0  0  0  0  0  0  0  0  0  0  0  0
  148.0341  141.3204  154.2690 C   0  0  0  0  0  0  0  0  0  0  0  0
  148.9657  142.0700  153.9707 O   0  0  0  0  0  0  0  0  0  0  0  0
  146.5725  141.7700  154.2277 C   0  0  0  0  0  0  0  0  0  0  0  0
  146.4002  143.2821  154.0186 C   0  0  0  0  0  0  0  0  0  0  0  0
  153.3908  144.3914  158.9052 H   0  0  0  0  0  0  0  0  0  0  0  0
  151.6676  144.4769  159.2498 H   0  0  0  0  0  0  0  0  0  0  0  0
  152.2310  144.2907  157.5861 H   0  0  0  0  0  0  0  0  0  0  0  0
  153.1735  142.0205  158.1726 H   0  0  0  0  0  0  0  0  0  0  0  0
  152.5991  142.2022  159.8154 H   0  0  0  0  0  0  0  0  0  0  0  0
  149.5122  139.7853  157.4687 H   0  0  0  0  0  0  0  0  0  0  0  0
  149.3657  141.2054  156.4456 H   0  0  0  0  0  0  0  0  0  0  0  0
  151.3017  140.0387  155.0538 H   0  0  0  0  0  0  0  0  0  0  0  0
  151.3615  137.5338  154.0916 H   0  0  0  0  0  0  0  0  0  0  0  0
  149.3687  135.1339  153.9335 H   0  0  0  0  0  0  0  0  0  0  0  0
  148.9321  137.3980  153.4699 H   0  0  0  0  0  0  0  0  0  0  0  0
  149.8088  139.6350  153.4878 H   0  0  0  0  0  0  0  0  0  0  0  0
  146.0687  141.2290  153.4261 H   0  0  0  0  0  0  0  0  0  0  0  0
  146.0929  141.4710  155.1598 H   0  0  0  0  0  0  0  0  0  0  0  0
  145.3435  143.5469  153.9812 H   0  0  0  0  0  0  0  0  0  0  0  0
  146.8541  143.6089  153.0821 H   0  0  0  0  0  0  0  0  0  0  0  0
  146.8534  143.8504  154.8317 H   0  0  0  0  0  0  0  0  0  0  0  0
  1  2  1  0  0  0  0
  1 27  1  0  0  0  0
  1 28  1  0  0  0  0
  1 29  1  0  0  0  0
  2  3  1  0  0  0  0
  2 30  1  0  0  0  0
  2 31  1  0  0  0  0
  3  4  2  0  0  0  0
  3  5  1  0  0  0  0
  5  6  1  0  0  0  0
  6  7  1  0  0  0  0
  6 32  1  0  0  0  0
  6 33  1  0  0  0  0
  7 21  1  0  0  0  0
  7  8  1  0  0  0  0
  7 34  1  0  0  0  0
  8  9  1  0  0  0  0
  9 10  1  0  0  0  0
  9 19  1  0  0  0  0
  9 35  1  0  0  0  0
 10 17  1  0  0  0  0
 10 11  1  0  0  0  0
 11 12  2  0  0  0  0
 11 36  1  0  0  0  0
 12 13  1  0  0  0  0
 12 14  1  0  0  0  0
 14 15  2  0  0  0  0
 14 16  1  0  0  0  0
 16 17  1  0  0  0  0
 17 18  2  0  0  0  0
 19 20  1  0  0  0  0
 19 21  1  0  0  0  0
 19 37  1  0  0  0  0
 21 22  1  0  0  0  0
 21 38  1  0  0  0  0
 22 23  1  0  0  0  0
 23 24  2  0  0  0  0
 23 25  1  0  0  0  0
 25 26  1  0  0  0  0
 25 39  1  0  0  0  0
 25 40  1  0  0  0  0
 26 41  1  0  0  0  0
 26 42  1  0  0  0  0
 26 43  1  0  0  0  0
M  CHG  1  16  -1
M  END
> <s_m_source_file>
AV-unprocessed.smi

> <i_m_source_file_index>
37

> <i_lp_mmshare_version>
43012

> <i_f3d_flags>
0

> <s_epik_input>
W0NIM11bQ0gyXUMoPU8pT1tDSDJdW0NAQEhdMU9bQ0BASF0objJbY0hdYyhGKWMoPU8pW25IXWMyPU8pW0NAQEhdKEJyKVtDQEhdMU9DKD1PKVtDSDJdW0NIM10=

> <s_epik_cmdline>
J2VwaWtfcHl0aG9uJywgJy1waCcsICc3LjAnLCAnLXRuJywgJzgnLCAnLW1hJywgJzIwMCcsICctbWV0YWxfYmluZGluZycsICctaW1hZScsICc8aW5maWxlLm1hZT4nLCAnLW9tYWUnLCAnPG91dGZpbGUubWFlPic=

> <r_epik_Ionization_Penalty>
1.08158

> <r_epik_Ionization_Penalty_Charging>
9.05154e-09

> <r_epik_Ionization_Penalty_Neutral>
1.08158

> <r_epik_State_Penalty>
1.13706

> <r_epik_Charging_Adjusted_Penalty>
1.13706

> <i_epik_Tot_Q>
-1

> <i_epik_Tot_abs_Q>
1

> <r_epik_Metal_State_Penalty>
0.00343535

> <b_epik_Metal_Only>
0

> <s_epik_Chemistry_Notes>
This compound has an ester and may undergo hydrolysis at high or low pH. This compound contains an acetal/aminal-like group ( X-CH(R)-Y where X, Y are N, S, or O) that may be acid/base labile, releasing an aldehyde.

> <s_lp_Force_Field>
OPLS_2005

> <r_lp_Energy>
41.8028

> <b_lp_Chiralities_Consistent>
1

> <s_lp_Variant>
AV-unprocessed.smi:37-18

> <Gold.Version>
5.8.1

> <Gold.Id.Protein>
6NUR|6NUR_protein|mol2

> <Gold.PLP.Fitness>
40.5624

> <Gold.PLP.PLP>
-39.0556

> <Gold.PLP.part.hbond>
-3.4721

> <Gold.PLP.part.metal>
0.0000

> <Gold.PLP.part.buried>
-2.2951

> <Gold.PLP.part.nonpolar>
-33.3045

> <Gold.PLP.part.repulsive>
0.3932

> <Gold.PLP.ligand.clash>
0.0000

> <Gold.PLP.ligand.torsion>
1.5249

> <Gold.PLP.Chemscore.Hbond>
0.4480

> <Gold.PLP.Chemscore.CHOScore>
0.9994

> <Gold.PLP.Chemscore.Metal>
0.0000

> <Gold.Chemscore.Hbonds>
donor molecule, donor type, donor heavy atom, donor atom, acceptor molecule, acceptor atom, score
      P1  H  8011  8017       L1    24  0.38
      L1  C    11    36       P1  7948  1.00

> <Gold.PLP.Chemscore.Internal.Correction>
0.2145

> <Gold.Rescore>
     Score         DG    S(hbond)    S(metal)    S(lipo)     H(rot)  DE(clash)    DE(int)     intcor
      4.01      -6.83       0.58        0.00      66.45       3.27       0.01       2.81       ----

> <Gold.Chemscore.Fitness>
4.0069

> <Gold.Chemscore.DG>
-6.8290

> <Gold.Chemscore.ZeroCoef>
-5.4800

> <Gold.Chemscore.Hbond>
0.5800

> <Gold.Chemscore.Metal>
0.0000

> <Gold.Chemscore.Lipo>
66.4542

> <Gold.Chemscore.Internal_Hbond>
0.0000

> <Gold.Chemscore.DEClash>
0.0103

> <Gold.Chemscore.DEInternal>
2.8118

> <Gold.Chemscore.Rot>
3.2669

> <Gold.Chemscore.Internal.Correction>
   9.000000E+99

> <Gold.Chemscore.Hbonds>
donor molecule, donor type, donor heavy atom, donor atom, acceptor molecule, acceptor atom, score
      P1  H  8011  8017       L1    24  0.38

> <Gold.Chemscore.Hbond.Weighted>
-1.9372

> <Gold.Chemscore.Metal.Weighted>
-0.0000

> <Gold.Chemscore.Lipo.Weighted>
-7.7751

> <Gold.Chemscore.Internal_Hbond.Weighted>
0.0000

> <Gold.Chemscore.DEClash.Weighted>
0.0103

> <Gold.Chemscore.DEInternal.Weighted>
2.8118

> <Gold.Chemscore.Rot.Weighted>
8.3634

> <Gold.Chemscore.Internal.Correction.Weighted>
   9.000000E+99

> <Gold.Protein.RotatedTorsions>
[ 6907 6896 6895 6894 ] final  106.41 input  -60.11 | X-H torsion
[ 7974 7965 7964 7962 ] final  172.74 input  175.53 | X-H torsion
[ 8008 7997 7996 7995 ] final  156.41 input   59.86 | X-H torsion
[ 10167 10162 10161 10158 ] final  -39.53 input  -65.29 | X-H torsion
[ 10718 10713 10712 10709 ] final   73.11 input   66.30 | X-H torsion
[ 10763 10752 10751 10750 ] final -155.51 input  -60.55 | X-H torsion
[ 11005 11000 10999 10996 ] final  126.67 input  -57.11 | X-H torsion

> <Gold.Protein.ActiveResidues>
 VAL166  LYS551  ARG553  GLY616  TRP617  ASP618  TYR619  PRO620  LYS621  CYS622 
 ASP623  PHE694  ASN695  SER759  ASP760  ASP761  ALA762  ILE779  LEU786  VAL792 
 PHE793  MET794  SER795  GLU796  ALA797  LYS798  CYS799  TRP800  GLU811  SER814 

> <Gold.Protein.RotatedAtoms>
  152.5194  133.9384  159.7614 H   0  0  0  0  0  0  0  0  0  0  0  0  # atno 6907 bound_to 6896
  150.9720  133.6326  159.2743 H   0  0  0  0  0  0  0  0  0  0  0  0  # atno 6908 bound_to 6896
  151.3534  135.0895  159.9463 H   0  0  0  0  0  0  0  0  0  0  0  0  # atno 6909 bound_to 6896
  144.7260  139.9544  143.6433 H   0  0  0  0  0  0  0  0  0  0  0  0  # atno 7974 bound_to 7965
  156.2424  140.1913  156.6951 H   0  0  0  0  0  0  0  0  0  0  0  0  # atno 8008 bound_to 7997
  154.6223  140.0607  156.9656 H   0  0  0  0  0  0  0  0  0  0  0  0  # atno 8009 bound_to 7997
  155.1842  140.3279  155.4372 H   0  0  0  0  0  0  0  0  0  0  0  0  # atno 8010 bound_to 7997
  140.7061  143.3208  151.2796 H   0  0  0  0  0  0  0  0  0  0  0  0  # atno 10167 bound_to 10162
  157.6532  130.9612  150.1023 H   0  0  0  0  0  0  0  0  0  0  0  0  # atno 10718 bound_to 10713
  154.7781  135.3166  154.8048 H   0  0  0  0  0  0  0  0  0  0  0  0  # atno 10763 bound_to 10752
  153.8766  135.6839  153.4774 H   0  0  0  0  0  0  0  0  0  0  0  0  # atno 10764 bound_to 10752
  153.1410  135.4739  154.9433 H   0  0  0  0  0  0  0  0  0  0  0  0  # atno 10765 bound_to 10752
  139.9468  134.9628  156.8742 H   0  0  0  0  0  0  0  0  0  0  0  0  # atno 11005 bound_to 11000
  146.0686  139.3676  143.0537 LP  0  0  0  0  0  0  0  0  0  0  0  0  # atno 17320 bound_to 7965
  145.7998  140.9776  143.1005 LP  0  0  0  0  0  0  0  0  0  0  0  0  # atno 17321 bound_to 7965
  139.6662  144.0101  152.2724 LP  0  0  0  0  0  0  0  0  0  0  0  0  # atno 17342 bound_to 10162
  139.9685  144.6510  150.8012 LP  0  0  0  0  0  0  0  0  0  0  0  0  # atno 17343 bound_to 10162
  156.1942  130.3656  149.8870 LP  0  0  0  0  0  0  0  0  0  0  0  0  # atno 17370 bound_to 10713
  156.6791  130.8851  151.3573 LP  0  0  0  0  0  0  0  0  0  0  0  0  # atno 17371 bound_to 10713
  140.5815  134.0347  155.7466 LP  0  0  0  0  0  0  0  0  0  0  0  0  # atno 17394 bound_to 11000
  141.1120  133.9600  157.2892 LP  0  0  0  0  0  0  0  0  0  0  0  0  # atno 17395 bound_to 11000

$$$$
