AV-unprocessed.smi:2095|AV-procd|sdf|8560|dock4
  -GOLD-   2272011283D 1   1.00000     0.00000
 Structure written by MMmdl.
 42 43  0  0  0  0  0  0  0  0  2 V2000
  152.8937  144.6688  158.2539 C   0  0  0  0  0  0  0  0  0  0  0  0
  151.7085  143.9909  158.9641 C   0  0  2  0  0  0  0  0  0  0  0  0
  152.1565  142.9919  160.0481 C   0  0  0  0  0  0  0  0  0  0  0  0
  152.7078  141.7001  159.4261 C   0  0  0  0  0  0  0  0  0  0  0  0
  151.7002  141.0924  158.4381 C   0  0  0  0  0  0  0  0  0  0  0  0
  151.3337  142.0796  157.3864 N   0  3  1  0  0  0  0  0  0  0  0  0
  150.5519  141.5331  156.2392 C   0  0  1  0  0  0  0  0  0  0  0  0
  151.2196  140.2608  155.6838 C   0  0  0  0  0  0  0  0  0  0  0  0
  149.0523  141.3215  156.5687 C   0  0  0  0  0  0  0  0  0  0  0  0
  148.1788  142.0801  155.6804 N   0  0  0  0  0  0  0  0  0  0  0  0
  147.4126  141.5445  154.7169 C   0  0  0  0  0  0  0  0  0  0  0  0
  147.3633  140.3364  154.4871 O   0  0  0  0  0  0  0  0  0  0  0  0
  146.5636  142.5150  153.8943 C   0  0  0  0  0  0  0  0  0  0  0  0
  145.6538  143.2669  154.7385 N   0  0  0  0  0  0  0  0  0  0  0  0
  144.5840  144.0054  154.4361 C   0  0  0  0  0  0  0  0  0  0  0  0
  144.0378  144.5392  155.5181 N   0  0  0  0  0  0  0  0  0  0  0  0
  144.8492  144.0780  156.5412 N   0  0  0  0  0  0  0  0  0  0  0  0
  145.8097  143.3222  156.0849 N   0  0  0  0  0  0  0  0  0  0  0  0
  150.7418  143.3141  157.9700 C   0  0  0  0  0  0  0  0  0  0  0  0
  153.5001  143.9539  157.6976 H   0  0  0  0  0  0  0  0  0  0  0  0
  153.5456  145.1682  158.9711 H   0  0  0  0  0  0  0  0  0  0  0  0
  152.5465  145.4241  157.5484 H   0  0  0  0  0  0  0  0  0  0  0  0
  151.1564  144.7871  159.4653 H   0  0  0  0  0  0  0  0  0  0  0  0
  152.9008  143.4453  160.7038 H   0  0  0  0  0  0  0  0  0  0  0  0
  151.3033  142.7447  160.6813 H   0  0  0  0  0  0  0  0  0  0  0  0
  153.6499  141.9023  158.9153 H   0  0  0  0  0  0  0  0  0  0  0  0
  152.9361  140.9801  160.2124 H   0  0  0  0  0  0  0  0  0  0  0  0
  152.1358  140.2001  157.9895 H   0  0  0  0  0  0  0  0  0  0  0  0
  150.8082  140.7745  158.9796 H   0  0  0  0  0  0  0  0  0  0  0  0
  150.6189  142.2718  155.4394 H   0  0  0  0  0  0  0  0  0  0  0  0
  150.7680  139.9577  154.7389 H   0  0  0  0  0  0  0  0  0  0  0  0
  151.1293  139.4195  156.3706 H   0  0  0  0  0  0  0  0  0  0  0  0
  152.2806  140.4252  155.4938 H   0  0  0  0  0  0  0  0  0  0  0  0
  148.7819  140.2711  156.4596 H   0  0  0  0  0  0  0  0  0  0  0  0
  148.8346  141.5894  157.6033 H   0  0  0  0  0  0  0  0  0  0  0  0
  148.1608  143.0833  155.7999 H   0  0  0  0  0  0  0  0  0  0  0  0
  147.2072  143.2172  153.3626 H   0  0  0  0  0  0  0  0  0  0  0  0
  145.9939  141.9660  153.1431 H   0  0  0  0  0  0  0  0  0  0  0  0
  144.2117  144.1538  153.4331 H   0  0  0  0  0  0  0  0  0  0  0  0
  149.8108  143.0629  158.4795 H   0  0  0  0  0  0  0  0  0  0  0  0
  150.4823  144.0201  157.1801 H   0  0  0  0  0  0  0  0  0  0  0  0
  152.2077  142.3815  156.9798 H   0  0  0  0  0  0  0  0  0  0  0  0
  1  2  1  0  0  0  0
  1 20  1  0  0  0  0
  1 21  1  0  0  0  0
  1 22  1  0  0  0  0
  2 19  1  0  0  0  0
  2  3  1  0  0  0  0
  2 23  1  0  0  0  0
  3  4  1  0  0  0  0
  3 24  1  0  0  0  0
  3 25  1  0  0  0  0
  4  5  1  0  0  0  0
  4 26  1  0  0  0  0
  4 27  1  0  0  0  0
  5  6  1  0  0  0  0
  5 28  1  0  0  0  0
  5 29  1  0  0  0  0
  6  7  1  0  0  0  0
  6 19  1  0  0  0  0
  6 42  1  0  0  0  0
  7  8  1  0  0  0  0
  7  9  1  0  0  0  0
  7 30  1  0  0  0  0
  8 31  1  0  0  0  0
  8 32  1  0  0  0  0
  8 33  1  0  0  0  0
  9 10  1  0  0  0  0
  9 34  1  0  0  0  0
  9 35  1  0  0  0  0
 10 11  1  0  0  0  0
 10 36  1  0  0  0  0
 11 12  2  0  0  0  0
 11 13  1  0  0  0  0
 13 14  1  0  0  0  0
 13 37  1  0  0  0  0
 13 38  1  0  0  0  0
 14 18  1  0  0  0  0
 14 15  1  0  0  0  0
 15 16  2  0  0  0  0
 15 39  1  0  0  0  0
 16 17  1  0  0  0  0
 17 18  2  0  0  0  0
 19 40  1  0  0  0  0
 19 41  1  0  0  0  0
M  CHG  1   6   1
M  END
> <s_m_source_file>
AV-unprocessed.smi

> <i_m_source_file_index>
2095

> <i_lp_mmshare_version>
43012

> <i_f3d_flags>
0

> <s_epik_input>
W0NIM11bQ0BASF0xW0NIMl1bQ0gyXVtDSDJdTihbQ0gyXTEpW0NASF0oW0NIM10pW0NIMl1bTkhdQyg9TylbQ0gyXW4yW2NIXW5ubjI=

> <s_epik_cmdline>
J2VwaWtfcHl0aG9uJywgJy1waCcsICc3LjAnLCAnLXRuJywgJzgnLCAnLW1hJywgJzIwMCcsICctbWV0YWxfYmluZGluZycsICctaW1hZScsICc8aW5maWxlLm1hZT4nLCAnLW9tYWUnLCAnPG91dGZpbGUubWFlPic=

> <r_lp_tautomer_probability>
1

> <r_epik_Ionization_Penalty>
0.00268321

> <r_epik_Ionization_Penalty_Charging>
0.00267875

> <r_epik_Ionization_Penalty_Neutral>
4.46125e-06

> <r_epik_State_Penalty>
0.00186642

> <r_epik_Charging_Adjusted_Penalty>
0.00454517

> <i_epik_Tot_Q>
1

> <i_epik_Tot_abs_Q>
1

> <r_epik_Metal_State_Penalty>
-0

> <b_epik_Metal_Only>
0

> <s_lp_Force_Field>
OPLS_2005

> <r_lp_Energy>
24.9707

> <b_lp_Chiralities_Consistent>
1

> <s_lp_Variant>
AV-unprocessed.smi:2095-7

> <Gold.Version>
5.8.1

> <Gold.Id.Protein>
6NUR|6NUR_protein|mol2

> <Gold.PLP.Fitness>
42.0073

> <Gold.PLP.PLP>
-38.1031

> <Gold.PLP.part.hbond>
-1.0000

> <Gold.PLP.part.metal>
0.0000

> <Gold.PLP.part.buried>
-5.1196

> <Gold.PLP.part.nonpolar>
-33.7227

> <Gold.PLP.part.repulsive>
0.5448

> <Gold.PLP.ligand.clash>
0.0000

> <Gold.PLP.ligand.torsion>
1.1082

> <Gold.PLP.Chemscore.Hbond>
1.0000

> <Gold.PLP.Chemscore.CHOScore>
1.0000

> <Gold.PLP.Chemscore.Metal>
0.0000

> <Gold.Chemscore.Hbonds>
donor molecule, donor type, donor heavy atom, donor atom, acceptor molecule, acceptor atom, score
      L1  H    10    36       P1  8028  1.00
      L1  C    15    39       P1 10174  0.75

> <Gold.PLP.Chemscore.Internal.Correction>
0.1206

> <Gold.Rescore>
     Score         DG    S(hbond)    S(metal)    S(lipo)     H(rot)  DE(clash)    DE(int)     intcor
     10.22     -12.52       0.98        0.00      89.96       2.64       0.01       2.29       ----

> <Gold.Chemscore.Fitness>
10.2234

> <Gold.Chemscore.DG>
-12.5186

> <Gold.Chemscore.ZeroCoef>
-5.4800

> <Gold.Chemscore.Hbond>
0.9824

> <Gold.Chemscore.Metal>
0.0000

> <Gold.Chemscore.Lipo>
89.9640

> <Gold.Chemscore.Internal_Hbond>
0.0000

> <Gold.Chemscore.DEClash>
0.0089

> <Gold.Chemscore.DEInternal>
2.2862

> <Gold.Chemscore.Rot>
2.6439

> <Gold.Chemscore.Internal.Correction>
   9.000000E+99

> <Gold.Chemscore.Hbonds>
donor molecule, donor type, donor heavy atom, donor atom, acceptor molecule, acceptor atom, score
      L1  H    10    36       P1  8028  0.80

> <Gold.Chemscore.Hbond.Weighted>
-3.2812

> <Gold.Chemscore.Metal.Weighted>
-0.0000

> <Gold.Chemscore.Lipo.Weighted>
-10.5258

> <Gold.Chemscore.Internal_Hbond.Weighted>
0.0000

> <Gold.Chemscore.DEClash.Weighted>
0.0089

> <Gold.Chemscore.DEInternal.Weighted>
2.2862

> <Gold.Chemscore.Rot.Weighted>
6.7685

> <Gold.Chemscore.Internal.Correction.Weighted>
   9.000000E+99

> <Gold.Protein.RotatedTorsions>
[ 6907 6896 6895 6894 ] final   21.25 input  -60.11 | X-H torsion
[ 7974 7965 7964 7962 ] final -155.03 input  175.53 | X-H torsion
[ 8008 7997 7996 7995 ] final   90.78 input   59.86 | X-H torsion
[ 10167 10162 10161 10158 ] final   25.96 input  -65.29 | X-H torsion
[ 10718 10713 10712 10709 ] final  -45.06 input   66.30 | X-H torsion
[ 10763 10752 10751 10750 ] final  158.78 input  -60.55 | X-H torsion
[ 11005 11000 10999 10996 ] final   83.30 input  -57.11 | X-H torsion

> <Gold.Protein.ActiveResidues>
 VAL166  LYS551  ARG553  GLY616  TRP617  ASP618  TYR619  PRO620  LYS621  CYS622 
 ASP623  PHE694  ASN695  SER759  ASP760  ASP761  ALA762  ILE779  LEU786  VAL792 
 PHE793  MET794  SER795  GLU796  ALA797  LYS798  CYS799  TRP800  GLU811  SER814 

> <Gold.Protein.RotatedAtoms>
  151.9088  135.0347  160.0512 H   0  0  0  0  0  0  0  0  0  0  0  0  # atno 6907 bound_to 6896
  152.2296  133.5043  159.5217 H   0  0  0  0  0  0  0  0  0  0  0  0  # atno 6908 bound_to 6896
  150.7022  134.1150  159.4056 H   0  0  0  0  0  0  0  0  0  0  0  0  # atno 6909 bound_to 6896
  144.7660  140.4306  143.5941 H   0  0  0  0  0  0  0  0  0  0  0  0  # atno 7974 bound_to 7965
  156.0161  140.3345  155.6990 H   0  0  0  0  0  0  0  0  0  0  0  0  # atno 8008 bound_to 7997
  155.6089  140.0663  157.2729 H   0  0  0  0  0  0  0  0  0  0  0  0  # atno 8009 bound_to 7997
  154.4298  140.1797  156.1239 H   0  0  0  0  0  0  0  0  0  0  0  0  # atno 8010 bound_to 7997
  140.5063  144.0234  150.6353 H   0  0  0  0  0  0  0  0  0  0  0  0  # atno 10167 bound_to 10162
  156.2322  130.4173  149.8861 H   0  0  0  0  0  0  0  0  0  0  0  0  # atno 10718 bound_to 10713
  154.2215  135.2782  155.2923 H   0  0  0  0  0  0  0  0  0  0  0  0  # atno 10763 bound_to 10752
  154.5698  135.5622  153.7087 H   0  0  0  0  0  0  0  0  0  0  0  0  # atno 10764 bound_to 10752
  153.0040  135.6318  154.2355 H   0  0  0  0  0  0  0  0  0  0  0  0  # atno 10765 bound_to 10752
  139.9035  134.8135  156.2291 H   0  0  0  0  0  0  0  0  0  0  0  0  # atno 11005 bound_to 11000
  145.6469  139.1558  143.2884 LP  0  0  0  0  0  0  0  0  0  0  0  0  # atno 17320 bound_to 7965
  146.1768  140.6561  142.9208 LP  0  0  0  0  0  0  0  0  0  0  0  0  # atno 17321 bound_to 7965
  140.3544  143.2944  152.0452 LP  0  0  0  0  0  0  0  0  0  0  0  0  # atno 17342 bound_to 10162
  139.4884  144.6350  151.6994 LP  0  0  0  0  0  0  0  0  0  0  0  0  # atno 17343 bound_to 10162
  156.6471  130.8728  151.3524 LP  0  0  0  0  0  0  0  0  0  0  0  0  # atno 17370 bound_to 10713
  157.7138  130.9472  150.1183 LP  0  0  0  0  0  0  0  0  0  0  0  0  # atno 17371 bound_to 10713
  141.0357  133.6965  156.1508 LP  0  0  0  0  0  0  0  0  0  0  0  0  # atno 17394 bound_to 11000
  140.7031  134.4543  157.5585 LP  0  0  0  0  0  0  0  0  0  0  0  0  # atno 17395 bound_to 11000

$$$$
