AV-unprocessed.smi:92|AV-procd|sdf|847|dock1
  -GOLD-   2262017283D 1   1.00000     0.00000
 Structure written by MMmdl.
 61 64  0  0  0  0  0  0  0  0  2 V2000
  150.6564  143.3986  158.2037 C   0  0  0  0  0  0  0  0  0  0  0  0
  149.1805  143.0049  158.3602 C   0  0  0  0  0  0  0  0  0  0  0  0
  148.5232  142.7154  157.0601 N   0  3  2  0  0  0  0  0  0  0  0  0
  147.0532  142.5253  157.1753 C   0  0  0  0  0  0  0  0  0  0  0  0
  146.3892  142.3181  155.7996 C   0  0  0  0  0  0  0  0  0  0  0  0
  147.0677  141.2539  154.9119 C   0  0  2  0  0  0  0  0  0  0  0  0
  146.5844  139.8828  155.1579 N   0  0  0  0  0  0  0  0  0  0  0  0
  146.7289  139.1878  156.4356 C   0  0  0  0  0  0  0  0  0  0  0  0
  146.3592  139.1043  154.0678 C   0  0  0  0  0  0  0  0  0  0  0  0
  146.7485  139.5517  152.8446 N   0  0  0  0  0  0  0  0  0  0  0  0
  146.5176  138.8165  151.7535 C   0  0  0  0  0  0  0  0  0  0  0  0
  145.9281  137.6236  151.6621 N   0  0  0  0  0  0  0  0  0  0  0  0
  145.5492  137.1583  152.8871 C   0  0  0  0  0  0  0  0  0  0  0  0
  145.7262  137.8300  154.1303 C   0  0  0  0  0  0  0  0  0  0  0  0
  145.2262  137.0487  155.1652 N   0  0  0  0  0  0  0  0  0  0  0  0
  144.7695  135.9823  154.5679 C   0  0  0  0  0  0  0  0  0  0  0  0
  144.9227  135.9616  153.1994 N   0  0  0  0  0  0  0  0  0  0  0  0
  144.5025  134.9135  152.3106 C   0  0  0  0  0  0  0  0  0  0  0  0
  145.1813  133.5401  152.3085 C   0  0  0  0  0  0  0  0  0  0  0  0
  144.9415  133.4366  150.7835 C   0  0  0  0  0  0  0  0  0  0  0  0
  146.0924  132.8465  149.9447 C   0  0  0  0  0  0  0  0  0  0  0  0
  146.3226  131.4796  150.2233 O   0  0  0  0  0  0  0  0  0  0  0  0
  143.6601  132.6713  150.4029 C   0  0  0  0  0  0  0  0  0  0  0  0
  143.2912  132.9059  149.0587 O   0  0  0  0  0  0  0  0  0  0  0  0
  144.8078  134.9778  150.8124 C   0  0  0  0  0  0  0  0  0  0  0  0
  148.6072  141.4268  154.9237 C   0  0  2  0  0  0  0  0  0  0  0  0
  149.3589  140.3644  154.1039 C   0  0  0  0  0  0  0  0  0  0  0  0
  149.1720  141.5846  156.3484 C   0  0  0  0  0  0  0  0  0  0  0  0
  151.1297  143.5005  159.1805 H   0  0  0  0  0  0  0  0  0  0  0  0
  150.7753  144.3515  157.6887 H   0  0  0  0  0  0  0  0  0  0  0  0
  151.2098  142.6415  157.6473 H   0  0  0  0  0  0  0  0  0  0  0  0
  149.1434  142.1129  158.9870 H   0  0  0  0  0  0  0  0  0  0  0  0
  148.6295  143.7798  158.8954 H   0  0  0  0  0  0  0  0  0  0  0  0
  146.8401  141.6988  157.8494 H   0  0  0  0  0  0  0  0  0  0  0  0
  146.6035  143.4038  157.6360 H   0  0  0  0  0  0  0  0  0  0  0  0
  145.3284  142.0946  155.9181 H   0  0  0  0  0  0  0  0  0  0  0  0
  146.4300  143.2699  155.2682 H   0  0  0  0  0  0  0  0  0  0  0  0
  146.7770  141.5075  153.8929 H   0  0  0  0  0  0  0  0  0  0  0  0
  146.0745  138.3158  156.4767 H   0  0  0  0  0  0  0  0  0  0  0  0
  146.4559  139.8185  157.2756 H   0  0  0  0  0  0  0  0  0  0  0  0
  147.7528  138.8432  156.5787 H   0  0  0  0  0  0  0  0  0  0  0  0
  146.8517  139.2452  150.8200 H   0  0  0  0  0  0  0  0  0  0  0  0
  144.3047  135.1759  155.1164 H   0  0  0  0  0  0  0  0  0  0  0  0
  143.4285  134.7915  152.4631 H   0  0  0  0  0  0  0  0  0  0  0  0
  146.2343  133.5863  152.5868 H   0  0  0  0  0  0  0  0  0  0  0  0
  144.6640  132.7862  152.9027 H   0  0  0  0  0  0  0  0  0  0  0  0
  145.8837  132.9399  148.8783 H   0  0  0  0  0  0  0  0  0  0  0  0
  147.0258  133.3787  150.1301 H   0  0  0  0  0  0  0  0  0  0  0  0
  147.2450  131.3575  150.3887 H   0  0  0  0  0  0  0  0  0  0  0  0
  143.7869  131.5979  150.5487 H   0  0  0  0  0  0  0  0  0  0  0  0
  142.8215  132.9664  151.0340 H   0  0  0  0  0  0  0  0  0  0  0  0
  142.4091  133.2453  149.0432 H   0  0  0  0  0  0  0  0  0  0  0  0
  143.9937  135.3806  150.2093 H   0  0  0  0  0  0  0  0  0  0  0  0
  145.7398  135.5004  150.5945 H   0  0  0  0  0  0  0  0  0  0  0  0
  148.8027  142.3756  154.4212 H   0  0  0  0  0  0  0  0  0  0  0  0
  149.2961  139.3778  154.5619 H   0  0  0  0  0  0  0  0  0  0  0  0
  150.4160  140.6157  154.0159 H   0  0  0  0  0  0  0  0  0  0  0  0
  148.9546  140.2892  153.0938 H   0  0  0  0  0  0  0  0  0  0  0  0
  150.2436  141.7755  156.2790 H   0  0  0  0  0  0  0  0  0  0  0  0
  149.0596  140.6690  156.9277 H   0  0  0  0  0  0  0  0  0  0  0  0
  148.6694  143.5293  156.4801 H   0  0  0  0  0  0  0  0  0  0  0  0
  1  2  1  0  0  0  0
  1 29  1  0  0  0  0
  1 30  1  0  0  0  0
  1 31  1  0  0  0  0
  2  3  1  0  0  0  0
  2 32  1  0  0  0  0
  2 33  1  0  0  0  0
  3 28  1  0  0  0  0
  3  4  1  0  0  0  0
  3 61  1  0  0  0  0
  4  5  1  0  0  0  0
  4 34  1  0  0  0  0
  4 35  1  0  0  0  0
  5  6  1  0  0  0  0
  5 36  1  0  0  0  0
  5 37  1  0  0  0  0
  6  7  1  0  0  0  0
  6 26  1  0  0  0  0
  6 38  1  0  0  0  0
  7  8  1  0  0  0  0
  7  9  1  0  0  0  0
  8 39  1  0  0  0  0
  8 40  1  0  0  0  0
  8 41  1  0  0  0  0
  9 14  1  0  0  0  0
  9 10  2  0  0  0  0
 10 11  1  0  0  0  0
 11 12  2  0  0  0  0
 11 42  1  0  0  0  0
 12 13  1  0  0  0  0
 13 17  1  0  0  0  0
 13 14  2  0  0  0  0
 14 15  1  0  0  0  0
 15 16  2  0  0  0  0
 16 17  1  0  0  0  0
 16 43  1  0  0  0  0
 17 18  1  0  0  0  0
 18 25  1  0  0  0  0
 18 19  1  0  0  0  0
 18 44  1  0  0  0  0
 19 20  1  0  0  0  0
 19 45  1  0  0  0  0
 19 46  1  0  0  0  0
 20 21  1  0  0  0  0
 20 23  1  0  0  0  0
 20 25  1  0  0  0  0
 21 22  1  0  0  0  0
 21 47  1  0  0  0  0
 21 48  1  0  0  0  0
 22 49  1  0  0  0  0
 23 24  1  0  0  0  0
 23 50  1  0  0  0  0
 23 51  1  0  0  0  0
 24 52  1  0  0  0  0
 25 53  1  0  0  0  0
 25 54  1  0  0  0  0
 26 27  1  0  0  0  0
 26 28  1  0  0  0  0
 26 55  1  0  0  0  0
 27 56  1  0  0  0  0
 27 57  1  0  0  0  0
 27 58  1  0  0  0  0
 28 59  1  0  0  0  0
 28 60  1  0  0  0  0
M  CHG  1   3   1
M  END
> <s_m_source_file>
AV-unprocessed.smi

> <i_m_source_file_index>
92

> <i_lp_mmshare_version>
43012

> <i_f3d_flags>
0

> <s_epik_input>
W0NIM11bQ0gyXU4xW0NIMl1bQ0gyXVtDQEhdKFtDQEBIXShbQ0gzXSlbQ0gyXTEpTihbQ0gzXSljKG5bY0hdbjIpYyhjMjMpbltjSF1uM1tDSF0oW0NIMl00KVtDSDJdQzQoW0NIMl1bT0hdKVtDSDJdW09IXQ==

> <s_epik_cmdline>
J2VwaWtfcHl0aG9uJywgJy1waCcsICc3LjAnLCAnLXRuJywgJzgnLCAnLW1hJywgJzIwMCcsICctbWV0YWxfYmluZGluZycsICctaW1hZScsICc8aW5maWxlLm1hZT4nLCAnLW9tYWUnLCAnPG91dGZpbGUubWFlPic=

> <r_lp_tautomer_probability>
1

> <r_epik_Ionization_Penalty>
0.00235514

> <r_epik_Ionization_Penalty_Charging>
0.00137877

> <r_epik_Ionization_Penalty_Neutral>
0.000976366

> <r_epik_State_Penalty>
-0

> <r_epik_Charging_Adjusted_Penalty>
0.00137877

> <i_epik_Tot_Q>
1

> <i_epik_Tot_abs_Q>
1

> <r_epik_Metal_State_Penalty>
-0

> <b_epik_Metal_Only>
0

> <s_lp_Force_Field>
OPLS_2005

> <r_lp_Energy>
59.507

> <b_lp_Chiralities_Consistent>
1

> <s_lp_Variant>
AV-unprocessed.smi:92-7

> <Gold.Version>
5.8.1

> <Gold.Id.Protein>
6NUR|6NUR_protein|mol2

> <Gold.PLP.Fitness>
52.1712

> <Gold.PLP.PLP>
-38.4317

> <Gold.PLP.part.hbond>
-3.0000

> <Gold.PLP.part.metal>
0.0000

> <Gold.PLP.part.buried>
-5.9886

> <Gold.PLP.part.nonpolar>
-29.5320

> <Gold.PLP.part.repulsive>
0.9135

> <Gold.PLP.ligand.clash>
0.0000

> <Gold.PLP.ligand.torsion>
0.7487

> <Gold.PLP.Chemscore.Hbond>
3.9920

> <Gold.PLP.Chemscore.CHOScore>
0.7435

> <Gold.PLP.Chemscore.Metal>
0.0000

> <Gold.Chemscore.Hbonds>
donor molecule, donor type, donor heavy atom, donor atom, acceptor molecule, acceptor atom, score
      L1  H     3    61       P1  8028  1.59
      L1  H    22    49       P1 10747  1.00
      L1  H    24    52       P1 10186  1.00
      L1  C    11    42       P1  7957  0.15

> <Gold.PLP.Chemscore.Internal.Correction>
1.0304

> <Gold.Rescore>
     Score         DG    S(hbond)    S(metal)    S(lipo)     H(rot)  DE(clash)    DE(int)     intcor
     13.71     -16.83       2.97        0.00      82.64       3.22       0.09       3.03       ----

> <Gold.Chemscore.Fitness>
13.7062

> <Gold.Chemscore.DG>
-16.8327

> <Gold.Chemscore.ZeroCoef>
-5.4800

> <Gold.Chemscore.Hbond>
2.9738

> <Gold.Chemscore.Metal>
0.0000

> <Gold.Chemscore.Lipo>
82.6351

> <Gold.Chemscore.Internal_Hbond>
0.0000

> <Gold.Chemscore.DEClash>
0.0931

> <Gold.Chemscore.DEInternal>
3.0334

> <Gold.Chemscore.Rot>
3.2219

> <Gold.Chemscore.Internal.Correction>
   9.000000E+99

> <Gold.Chemscore.Hbonds>
donor molecule, donor type, donor heavy atom, donor atom, acceptor molecule, acceptor atom, score
      L1  H     3    61       P1  8028  0.55
      L1  H    22    49       P1 10747  1.00
      L1  H    24    52       P1 10186  0.98

> <Gold.Chemscore.Hbond.Weighted>
-9.9326

> <Gold.Chemscore.Metal.Weighted>
-0.0000

> <Gold.Chemscore.Lipo.Weighted>
-9.6683

> <Gold.Chemscore.Internal_Hbond.Weighted>
0.0000

> <Gold.Chemscore.DEClash.Weighted>
0.0931

> <Gold.Chemscore.DEInternal.Weighted>
3.0334

> <Gold.Chemscore.Rot.Weighted>
8.2482

> <Gold.Chemscore.Internal.Correction.Weighted>
   9.000000E+99

> <Gold.Protein.RotatedTorsions>
[ 6907 6896 6895 6894 ] final   91.49 input  -60.11 | X-H torsion
[ 7974 7965 7964 7962 ] final -133.13 input  175.53 | X-H torsion
[ 8008 7997 7996 7995 ] final   91.65 input   59.86 | X-H torsion
[ 10167 10162 10161 10158 ] final   40.09 input  -65.29 | X-H torsion
[ 10718 10713 10712 10709 ] final -160.29 input   66.30 | X-H torsion
[ 10763 10752 10751 10750 ] final  115.16 input  -60.55 | X-H torsion
[ 11005 11000 10999 10996 ] final  128.81 input  -57.11 | X-H torsion

> <Gold.Protein.ActiveResidues>
 VAL166  LYS551  ARG553  GLY616  TRP617  ASP618  TYR619  PRO620  LYS621  CYS622 
 ASP623  PHE694  ASN695  SER759  ASP760  ASP761  ALA762  ILE779  LEU786  VAL792 
 PHE793  MET794  SER795  GLU796  ALA797  LYS798  CYS799  TRP800  GLU811  SER814 

> <Gold.Protein.RotatedAtoms>
  152.5450  134.1648  159.8572 H   0  0  0  0  0  0  0  0  0  0  0  0  # atno 6907 bound_to 6896
  151.1663  133.4805  159.2601 H   0  0  0  0  0  0  0  0  0  0  0  0  # atno 6908 bound_to 6896
  151.1320  135.0146  159.8642 H   0  0  0  0  0  0  0  0  0  0  0  0  # atno 6909 bound_to 6896
  144.9221  140.7027  143.4959 H   0  0  0  0  0  0  0  0  0  0  0  0  # atno 7974 bound_to 7965
  156.0263  140.3335  155.7092 H   0  0  0  0  0  0  0  0  0  0  0  0  # atno 8008 bound_to 7997
  155.5950  140.0650  157.2766 H   0  0  0  0  0  0  0  0  0  0  0  0  # atno 8009 bound_to 7997
  154.4335  140.1820  156.1102 H   0  0  0  0  0  0  0  0  0  0  0  0  # atno 8010 bound_to 7997
  140.3776  144.2022  150.6131 H   0  0  0  0  0  0  0  0  0  0  0  0  # atno 10167 bound_to 10162
  156.5800  130.8725  151.2862 H   0  0  0  0  0  0  0  0  0  0  0  0  # atno 10718 bound_to 10713
  153.5181  135.3604  155.2619 H   0  0  0  0  0  0  0  0  0  0  0  0  # atno 10763 bound_to 10752
  154.8737  135.4039  154.3291 H   0  0  0  0  0  0  0  0  0  0  0  0  # atno 10764 bound_to 10752
  153.3957  135.7073  153.6529 H   0  0  0  0  0  0  0  0  0  0  0  0  # atno 10765 bound_to 10752
  139.9581  134.9608  156.9056 H   0  0  0  0  0  0  0  0  0  0  0  0  # atno 11005 bound_to 11000
  145.3279  139.1768  143.4552 LP  0  0  0  0  0  0  0  0  0  0  0  0  # atno 17320 bound_to 7965
  146.3209  140.3305  142.8640 LP  0  0  0  0  0  0  0  0  0  0  0  0  # atno 17321 bound_to 7965
  140.4970  143.2329  151.8735 LP  0  0  0  0  0  0  0  0  0  0  0  0  # atno 17342 bound_to 10162
  139.4798  144.5102  151.8943 LP  0  0  0  0  0  0  0  0  0  0  0  0  # atno 17343 bound_to 10162
  157.7328  130.9721  150.1949 LP  0  0  0  0  0  0  0  0  0  0  0  0  # atno 17370 bound_to 10713
  156.2639  130.3714  149.8101 LP  0  0  0  0  0  0  0  0  0  0  0  0  # atno 17371 bound_to 10713
  140.5563  134.0578  155.7385 LP  0  0  0  0  0  0  0  0  0  0  0  0  # atno 17394 bound_to 11000
  141.1255  133.9391  157.2644 LP  0  0  0  0  0  0  0  0  0  0  0  0  # atno 17395 bound_to 11000

$$$$
