AV-unprocessed.smi:2106|AV-procd|sdf|8596|dock2
  -GOLD-   2272011333D 1   1.00000     0.00000
 Structure written by MMmdl.
 48 49  0  0  0  0  0  0  0  0  2 V2000
  151.5399  144.8353  158.3019 C   0  0  0  0  0  0  0  0  0  0  0  0
  152.0461  143.4933  158.7412 C   0  0  0  0  0  0  0  0  0  0  0  0
  153.0204  143.2026  159.7363 C   0  0  0  0  0  0  0  0  0  0  0  0
  153.1052  141.8390  159.7382 C   0  0  0  0  0  0  0  0  0  0  0  0
  153.9543  140.9296  160.5640 C   0  0  0  0  0  0  0  0  0  0  0  0
  152.2145  141.3802  158.7834 N   0  0  0  0  0  0  0  0  0  0  0  0
  151.9077  140.0125  158.3956 C   0  0  0  0  0  0  0  0  0  0  0  0
  152.3056  139.7514  156.9421 C   0  0  0  0  0  0  0  0  0  0  0  0
  153.4720  139.4752  156.6623 O   0  0  0  0  0  0  0  0  0  0  0  0
  151.3273  139.8377  156.0271 N   0  0  0  0  0  0  0  0  0  0  0  0
  151.4895  139.5822  154.6006 C   0  0  0  0  0  0  0  0  0  0  0  0
  151.0790  138.1442  154.2254 C   0  0  0  0  0  0  0  0  0  0  0  0
  149.6096  137.9838  154.0882 N   0  3  1  0  0  0  0  0  0  0  0  0
  148.9986  137.3762  155.2946 C   0  0  0  0  0  0  0  0  0  0  0  0
  147.4848  137.1727  155.0955 C   0  0  1  0  0  0  0  0  0  0  0  0
  146.8043  136.6234  156.3542 C   0  0  0  0  0  0  0  0  0  0  0  0
  146.8861  138.4248  154.7812 O   0  0  0  0  0  0  0  0  0  0  0  0
  147.3921  138.9860  153.5754 C   0  0  1  0  0  0  0  0  0  0  0  0
  146.6171  140.2767  153.2877 C   0  0  0  0  0  0  0  0  0  0  0  0
  148.9034  139.2396  153.7323 C   0  0  0  0  0  0  0  0  0  0  0  0
  151.5672  142.3981  158.1741 N   0  0  0  0  0  0  0  0  0  0  0  0
  152.0542  145.6407  158.8267 H   0  0  0  0  0  0  0  0  0  0  0  0
  150.4734  144.9374  158.5025 H   0  0  0  0  0  0  0  0  0  0  0  0
  151.6954  144.9840  157.2330 H   0  0  0  0  0  0  0  0  0  0  0  0
  153.5738  143.8919  160.3567 H   0  0  0  0  0  0  0  0  0  0  0  0
  154.5632  141.4985  161.2668 H   0  0  0  0  0  0  0  0  0  0  0  0
  154.6267  140.3466  159.9345 H   0  0  0  0  0  0  0  0  0  0  0  0
  153.3398  140.2370  161.1388 H   0  0  0  0  0  0  0  0  0  0  0  0
  152.4276  139.3214  159.0615 H   0  0  0  0  0  0  0  0  0  0  0  0
  150.8404  139.8324  158.5276 H   0  0  0  0  0  0  0  0  0  0  0  0
  150.3975  140.0649  156.3502 H   0  0  0  0  0  0  0  0  0  0  0  0
  150.9113  140.3218  154.0463 H   0  0  0  0  0  0  0  0  0  0  0  0
  152.5361  139.7490  154.3444 H   0  0  0  0  0  0  0  0  0  0  0  0
  151.5532  137.8934  153.2752 H   0  0  0  0  0  0  0  0  0  0  0  0
  151.4533  137.4253  154.9557 H   0  0  0  0  0  0  0  0  0  0  0  0
  149.4730  136.4167  155.5040 H   0  0  0  0  0  0  0  0  0  0  0  0
  149.1822  138.0196  156.1570 H   0  0  0  0  0  0  0  0  0  0  0  0
  147.3116  136.4748  154.2743 H   0  0  0  0  0  0  0  0  0  0  0  0
  147.2234  135.6579  156.6383 H   0  0  0  0  0  0  0  0  0  0  0  0
  145.7353  136.4856  156.1901 H   0  0  0  0  0  0  0  0  0  0  0  0
  146.9263  137.3029  157.1983 H   0  0  0  0  0  0  0  0  0  0  0  0
  147.2193  138.2880  152.7541 H   0  0  0  0  0  0  0  0  0  0  0  0
  146.9612  140.7442  152.3649 H   0  0  0  0  0  0  0  0  0  0  0  0
  146.7394  140.9999  154.0947 H   0  0  0  0  0  0  0  0  0  0  0  0
  145.5510  140.0753  153.1798 H   0  0  0  0  0  0  0  0  0  0  0  0
  149.0808  139.9884  154.5061 H   0  0  0  0  0  0  0  0  0  0  0  0
  149.2938  139.6457  152.7999 H   0  0  0  0  0  0  0  0  0  0  0  0
  149.4568  137.3317  153.3321 H   0  0  0  0  0  0  0  0  0  0  0  0
  1  2  1  0  0  0  0
  1 22  1  0  0  0  0
  1 23  1  0  0  0  0
  1 24  1  0  0  0  0
  2 21  2  0  0  0  0
  2  3  1  0  0  0  0
  3  4  2  0  0  0  0
  3 25  1  0  0  0  0
  4  5  1  0  0  0  0
  4  6  1  0  0  0  0
  5 26  1  0  0  0  0
  5 27  1  0  0  0  0
  5 28  1  0  0  0  0
  6  7  1  0  0  0  0
  6 21  1  0  0  0  0
  7  8  1  0  0  0  0
  7 29  1  0  0  0  0
  7 30  1  0  0  0  0
  8  9  2  0  0  0  0
  8 10  1  0  0  0  0
 10 11  1  0  0  0  0
 10 31  1  0  0  0  0
 11 12  1  0  0  0  0
 11 32  1  0  0  0  0
 11 33  1  0  0  0  0
 12 13  1  0  0  0  0
 12 34  1  0  0  0  0
 12 35  1  0  0  0  0
 13 20  1  0  0  0  0
 13 14  1  0  0  0  0
 13 48  1  0  0  0  0
 14 15  1  0  0  0  0
 14 36  1  0  0  0  0
 14 37  1  0  0  0  0
 15 16  1  0  0  0  0
 15 17  1  0  0  0  0
 15 38  1  0  0  0  0
 16 39  1  0  0  0  0
 16 40  1  0  0  0  0
 16 41  1  0  0  0  0
 17 18  1  0  0  0  0
 18 19  1  0  0  0  0
 18 20  1  0  0  0  0
 18 42  1  0  0  0  0
 19 43  1  0  0  0  0
 19 44  1  0  0  0  0
 19 45  1  0  0  0  0
 20 46  1  0  0  0  0
 20 47  1  0  0  0  0
M  CHG  1  13   1
M  END
> <s_m_source_file>
AV-unprocessed.smi

> <i_m_source_file_index>
2106

> <i_lp_mmshare_version>
43012

> <i_f3d_flags>
0

> <s_epik_input>
W0NIM11jMVtjSF1jKFtDSDNdKW4objEpW0NIMl1DKD1PKVtOSF1bQ0gyXVtDSDJdTjJbQ0gyXVtDQEBIXShbQ0gzXSlPW0NAQEhdKFtDSDNdKVtDSDJdMg==

> <s_epik_cmdline>
J2VwaWtfcHl0aG9uJywgJy1waCcsICc3LjAnLCAnLXRuJywgJzgnLCAnLW1hJywgJzIwMCcsICctbWV0YWxfYmluZGluZycsICctaW1hZScsICc8aW5maWxlLm1hZT4nLCAnLW9tYWUnLCAnPG91dGZpbGUubWFlPic=

> <r_lp_tautomer_probability>
1

> <r_epik_Ionization_Penalty>
0.748586

> <r_epik_Ionization_Penalty_Charging>
0.748396

> <r_epik_Ionization_Penalty_Neutral>
0.000189656

> <r_epik_State_Penalty>
0.775162

> <r_epik_Charging_Adjusted_Penalty>
1.52356

> <i_epik_Tot_Q>
1

> <i_epik_Tot_abs_Q>
1

> <r_epik_Metal_State_Penalty>
0.775295

> <b_epik_Metal_Only>
0

> <s_lp_Force_Field>
OPLS_2005

> <r_lp_Energy>
12.4658

> <b_lp_Chiralities_Consistent>
1

> <s_lp_Variant>
AV-unprocessed.smi:2106-4

> <Gold.Version>
5.8.1

> <Gold.Id.Protein>
6NUR|6NUR_protein|mol2

> <Gold.PLP.Fitness>
45.3409

> <Gold.PLP.PLP>
-38.5385

> <Gold.PLP.part.hbond>
-1.8425

> <Gold.PLP.part.metal>
0.0000

> <Gold.PLP.part.buried>
-0.3677

> <Gold.PLP.part.nonpolar>
-36.1482

> <Gold.PLP.part.repulsive>
0.2193

> <Gold.PLP.ligand.clash>
0.0226

> <Gold.PLP.ligand.torsion>
1.1062

> <Gold.PLP.Chemscore.Hbond>
3.0000

> <Gold.PLP.Chemscore.CHOScore>
0.0000

> <Gold.PLP.Chemscore.Metal>
0.0000

> <Gold.Chemscore.Hbonds>
donor molecule, donor type, donor heavy atom, donor atom, acceptor molecule, acceptor atom, score
      L1  H    13    48       P1  7948  2.00

> <Gold.PLP.Chemscore.Internal.Correction>
0.0375

> <Gold.Rescore>
     Score         DG    S(hbond)    S(metal)    S(lipo)     H(rot)  DE(clash)    DE(int)     intcor
     17.35     -18.67       1.88        0.00      96.93       1.73       0.01       1.31       ----

> <Gold.Chemscore.Fitness>
17.3490

> <Gold.Chemscore.DG>
-18.6676

> <Gold.Chemscore.ZeroCoef>
-5.4800

> <Gold.Chemscore.Hbond>
1.8801

> <Gold.Chemscore.Metal>
0.0000

> <Gold.Chemscore.Lipo>
96.9317

> <Gold.Chemscore.Internal_Hbond>
0.0000

> <Gold.Chemscore.DEClash>
0.0089

> <Gold.Chemscore.DEInternal>
1.3098

> <Gold.Chemscore.Rot>
1.7316

> <Gold.Chemscore.Internal.Correction>
   9.000000E+99

> <Gold.Chemscore.Hbonds>
donor molecule, donor type, donor heavy atom, donor atom, acceptor molecule, acceptor atom, score
      L1  H    13    48       P1  7948  0.93
      P1  H  7997  8008       L1     9  0.03

> <Gold.Chemscore.Hbond.Weighted>
-6.2796

> <Gold.Chemscore.Metal.Weighted>
-0.0000

> <Gold.Chemscore.Lipo.Weighted>
-11.3410

> <Gold.Chemscore.Internal_Hbond.Weighted>
0.0000

> <Gold.Chemscore.DEClash.Weighted>
0.0089

> <Gold.Chemscore.DEInternal.Weighted>
1.3098

> <Gold.Chemscore.Rot.Weighted>
4.4330

> <Gold.Chemscore.Internal.Correction.Weighted>
   9.000000E+99

> <Gold.Protein.RotatedTorsions>
[ 6907 6896 6895 6894 ] final  143.75 input  -60.11 | X-H torsion
[ 7974 7965 7964 7962 ] final -150.46 input  175.53 | X-H torsion
[ 8008 7997 7996 7995 ] final  -57.78 input   59.86 | X-H torsion
[ 10167 10162 10161 10158 ] final  -14.42 input  -65.29 | X-H torsion
[ 10718 10713 10712 10709 ] final   33.38 input   66.30 | X-H torsion
[ 10763 10752 10751 10750 ] final -168.10 input  -60.55 | X-H torsion
[ 11005 11000 10999 10996 ] final -170.95 input  -57.11 | X-H torsion

> <Gold.Protein.ActiveResidues>
 VAL166  LYS551  ARG553  GLY616  TRP617  ASP618  TYR619  PRO620  LYS621  CYS622 
 ASP623  PHE694  ASN695  SER759  ASP760  ASP761  ALA762  ILE779  LEU786  VAL792 
 PHE793  MET794  SER795  GLU796  ALA797  LYS798  CYS799  TRP800  GLU811  SER814 

> <Gold.Protein.RotatedAtoms>
  152.2024  133.4850  159.5065 H   0  0  0  0  0  0  0  0  0  0  0  0  # atno 6907 bound_to 6896
  150.6972  134.1573  159.4172 H   0  0  0  0  0  0  0  0  0  0  0  0  # atno 6908 bound_to 6896
  151.9491  135.0177  160.0591 H   0  0  0  0  0  0  0  0  0  0  0  0  # atno 6909 bound_to 6896
  144.7906  140.4929  143.5775 H   0  0  0  0  0  0  0  0  0  0  0  0  # atno 7974 bound_to 7965
  154.4281  140.1099  156.5851 H   0  0  0  0  0  0  0  0  0  0  0  0  # atno 8008 bound_to 7997
  155.6071  140.3494  155.4592 H   0  0  0  0  0  0  0  0  0  0  0  0  # atno 8009 bound_to 7997
  156.0128  140.1223  157.0426 H   0  0  0  0  0  0  0  0  0  0  0  0  # atno 8010 bound_to 7997
  140.7201  143.5323  150.9505 H   0  0  0  0  0  0  0  0  0  0  0  0  # atno 10167 bound_to 10162
  157.2971  130.7332  149.6645 H   0  0  0  0  0  0  0  0  0  0  0  0  # atno 10718 bound_to 10713
  154.6664  135.2932  154.9800 H   0  0  0  0  0  0  0  0  0  0  0  0  # atno 10763 bound_to 10752
  154.0842  135.6600  153.4846 H   0  0  0  0  0  0  0  0  0  0  0  0  # atno 10764 bound_to 10752
  153.0460  135.5204  154.7639 H   0  0  0  0  0  0  0  0  0  0  0  0  # atno 10765 bound_to 10752
  140.5137  134.5777  157.5027 H   0  0  0  0  0  0  0  0  0  0  0  0  # atno 11005 bound_to 11000
  145.5804  139.1488  143.3238 LP  0  0  0  0  0  0  0  0  0  0  0  0  # atno 17320 bound_to 7965
  146.2157  140.5934  142.9040 LP  0  0  0  0  0  0  0  0  0  0  0  0  # atno 17321 bound_to 7965
  139.9044  143.6796  152.3126 LP  0  0  0  0  0  0  0  0  0  0  0  0  # atno 17342 bound_to 10162
  139.7157  144.7612  151.1037 LP  0  0  0  0  0  0  0  0  0  0  0  0  # atno 17343 bound_to 10162
  155.9669  130.4291  150.4818 LP  0  0  0  0  0  0  0  0  0  0  0  0  # atno 17370 bound_to 10713
  157.2792  131.0603  151.2209 LP  0  0  0  0  0  0  0  0  0  0  0  0  # atno 17371 bound_to 10713
  139.9644  134.7397  156.0168 LP  0  0  0  0  0  0  0  0  0  0  0  0  # atno 17394 bound_to 11000
  141.1372  133.6572  156.3626 LP  0  0  0  0  0  0  0  0  0  0  0  0  # atno 17395 bound_to 11000

$$$$
