AV-unprocessed.smi:2439|AV-procd|sdf|9607|dock2
  -GOLD-   2272013243D 1   1.00000     0.00000
 Structure written by MMmdl.
 41 43  0  0  0  0  0  0  0  0  2 V2000
  148.7149  133.0062  153.1796 N   0  0  0  0  0  0  0  0  0  0  0  0
  147.6932  133.0048  152.6365 C   0  0  0  0  0  0  0  0  0  0  0  0
  146.4049  133.0028  151.9542 C   0  0  0  0  0  0  0  0  0  0  0  0
  145.7319  131.7775  151.7644 C   0  0  0  0  0  0  0  0  0  0  0  0
  144.4903  131.7723  151.1024 C   0  0  0  0  0  0  0  0  0  0  0  0
  143.9682  132.9999  150.6562 C   0  0  0  0  0  0  0  0  0  0  0  0
  144.6005  134.1790  150.8320 N   0  0  0  0  0  0  0  0  0  0  0  0
  145.7986  134.1914  151.4664 C   0  0  0  0  0  0  0  0  0  0  0  0
  146.4316  135.4358  151.6337 N   0  0  0  0  0  0  0  0  0  0  0  0
  145.8610  136.6425  151.0516 C   0  0  0  0  0  0  0  0  0  0  0  0
  145.5465  137.6943  152.1236 C   0  0  2  0  0  0  0  0  0  0  0  0
  146.6728  138.7384  152.2363 C   0  0  0  0  0  0  0  0  0  0  0  0
  146.4002  139.6871  153.3445 N   0  3  2  0  0  0  0  0  0  0  0  0
  147.4213  140.7582  153.4838 C   0  0  0  0  0  0  0  0  0  0  0  0
  148.7274  140.2395  154.1160 C   0  0  0  0  0  0  0  0  0  0  0  0
  148.4534  139.5391  155.4540 C   0  0  0  0  0  0  0  0  0  0  0  0
  147.4021  138.4346  155.2752 C   0  0  0  0  0  0  0  0  0  0  0  0
  146.1143  138.9932  154.6305 C   0  0  2  0  0  0  0  0  0  0  0  0
  145.0367  137.9116  154.4219 C   0  0  0  0  0  0  0  0  0  0  0  0
  145.4228  137.0286  153.3762 O   0  0  0  0  0  0  0  0  0  0  0  0
  146.1576  130.8496  152.1192 H   0  0  0  0  0  0  0  0  0  0  0  0
  143.9517  130.8503  150.9409 H   0  0  0  0  0  0  0  0  0  0  0  0
  143.0177  133.0375  150.1449 H   0  0  0  0  0  0  0  0  0  0  0  0
  147.3935  135.4581  151.9411 H   0  0  0  0  0  0  0  0  0  0  0  0
  146.5472  137.0549  150.3107 H   0  0  0  0  0  0  0  0  0  0  0  0
  144.9439  136.3717  150.5271 H   0  0  0  0  0  0  0  0  0  0  0  0
  144.6084  138.1943  151.8737 H   0  0  0  0  0  0  0  0  0  0  0  0
  147.6275  138.2356  152.3917 H   0  0  0  0  0  0  0  0  0  0  0  0
  146.7577  139.2924  151.3008 H   0  0  0  0  0  0  0  0  0  0  0  0
  147.6207  141.2123  152.5123 H   0  0  0  0  0  0  0  0  0  0  0  0
  147.0048  141.5474  154.1112 H   0  0  0  0  0  0  0  0  0  0  0  0
  149.2281  139.5507  153.4350 H   0  0  0  0  0  0  0  0  0  0  0  0
  149.4184  141.0688  154.2686 H   0  0  0  0  0  0  0  0  0  0  0  0
  149.3762  139.1189  155.8546 H   0  0  0  0  0  0  0  0  0  0  0  0
  148.0996  140.2677  156.1845 H   0  0  0  0  0  0  0  0  0  0  0  0
  147.8152  137.6296  154.6663 H   0  0  0  0  0  0  0  0  0  0  0  0
  147.1705  137.9921  156.2445 H   0  0  0  0  0  0  0  0  0  0  0  0
  145.7031  139.7382  155.3133 H   0  0  0  0  0  0  0  0  0  0  0  0
  144.8888  137.3381  155.3373 H   0  0  0  0  0  0  0  0  0  0  0  0
  144.0748  138.3677  154.1815 H   0  0  0  0  0  0  0  0  0  0  0  0
  145.5432  140.1550  153.0861 H   0  0  0  0  0  0  0  0  0  0  0  0
  1  2  3  0  0  0  0
  2  3  1  0  0  0  0
  3  8  1  0  0  0  0
  3  4  2  0  0  0  0
  4  5  1  0  0  0  0
  4 21  1  0  0  0  0
  5  6  2  0  0  0  0
  5 22  1  0  0  0  0
  6  7  1  0  0  0  0
  6 23  1  0  0  0  0
  7  8  2  0  0  0  0
  8  9  1  0  0  0  0
  9 10  1  0  0  0  0
  9 24  1  0  0  0  0
 10 11  1  0  0  0  0
 10 25  1  0  0  0  0
 10 26  1  0  0  0  0
 11 20  1  0  0  0  0
 11 12  1  0  0  0  0
 11 27  1  0  0  0  0
 12 13  1  0  0  0  0
 12 28  1  0  0  0  0
 12 29  1  0  0  0  0
 13 18  1  0  0  0  0
 13 14  1  0  0  0  0
 13 41  1  0  0  0  0
 14 15  1  0  0  0  0
 14 30  1  0  0  0  0
 14 31  1  0  0  0  0
 15 16  1  0  0  0  0
 15 32  1  0  0  0  0
 15 33  1  0  0  0  0
 16 17  1  0  0  0  0
 16 34  1  0  0  0  0
 16 35  1  0  0  0  0
 17 18  1  0  0  0  0
 17 36  1  0  0  0  0
 17 37  1  0  0  0  0
 18 19  1  0  0  0  0
 18 38  1  0  0  0  0
 19 20  1  0  0  0  0
 19 39  1  0  0  0  0
 19 40  1  0  0  0  0
M  CHG  1  13   1
M  END
> <s_m_source_file>
AV-unprocessed.smi

> <i_m_source_file_index>
2439

> <i_lp_mmshare_version>
43012

> <i_f3d_flags>
0

> <s_epik_input>
TiNDYzFbY0hdW2NIXVtjSF1uYzFbTkhdW0NIMl1bQ0BIXShbQ0gyXTIpT1tDSDJdW0NAQEhdKE4yMylbQ0gyXVtDSDJdW0NIMl1bQ0gyXTM=

> <s_epik_cmdline>
J2VwaWtfcHl0aG9uJywgJy1waCcsICc3LjAnLCAnLXRuJywgJzgnLCAnLW1hJywgJzIwMCcsICctbWV0YWxfYmluZGluZycsICctaW1hZScsICc8aW5maWxlLm1hZT4nLCAnLW9tYWUnLCAnPG91dGZpbGUubWFlPic=

> <r_epik_Ionization_Penalty>
0.0803594

> <r_epik_Ionization_Penalty_Charging>
0.0803403

> <r_epik_Ionization_Penalty_Neutral>
1.90988e-05

> <r_epik_State_Penalty>
0.0711481

> <r_epik_Charging_Adjusted_Penalty>
0.151488

> <i_epik_Tot_Q>
1

> <i_epik_Tot_abs_Q>
1

> <r_epik_Metal_State_Penalty>
0.0711482

> <b_epik_Metal_Only>
0

> <s_lp_Force_Field>
OPLS_2005

> <r_lp_Energy>
31.0257

> <b_lp_Chiralities_Consistent>
1

> <s_lp_Variant>
AV-unprocessed.smi:2439-5

> <Gold.Version>
5.8.1

> <Gold.Id.Protein>
6NUR|6NUR_protein|mol2

> <Gold.PLP.Fitness>
41.2846

> <Gold.PLP.PLP>
-30.3521

> <Gold.PLP.part.hbond>
-2.0000

> <Gold.PLP.part.metal>
0.0000

> <Gold.PLP.part.buried>
-0.5337

> <Gold.PLP.part.nonpolar>
-29.0525

> <Gold.PLP.part.repulsive>
0.6191

> <Gold.PLP.ligand.clash>
0.0000

> <Gold.PLP.ligand.torsion>
0.5299

> <Gold.PLP.Chemscore.Hbond>
2.9920

> <Gold.PLP.Chemscore.CHOScore>
1.0000

> <Gold.PLP.Chemscore.Metal>
0.0000

> <Gold.Chemscore.Hbonds>
donor molecule, donor type, donor heavy atom, donor atom, acceptor molecule, acceptor atom, score
      L1  H     9    24       P1  7948  0.96
      L1  H    13    41       P1 10175  2.00
      L1  C     6    23       P1 10186  1.00

> <Gold.PLP.Chemscore.Internal.Correction>
0.0164

> <Gold.Rescore>
     Score         DG    S(hbond)    S(metal)    S(lipo)     H(rot)  DE(clash)    DE(int)     intcor
     16.12     -16.83       1.87        0.00      71.47       1.27       0.18       0.53       ----

> <Gold.Chemscore.Fitness>
16.1223

> <Gold.Chemscore.DG>
-16.8328

> <Gold.Chemscore.ZeroCoef>
-5.4800

> <Gold.Chemscore.Hbond>
1.8656

> <Gold.Chemscore.Metal>
0.0000

> <Gold.Chemscore.Lipo>
71.4734

> <Gold.Chemscore.Internal_Hbond>
0.0000

> <Gold.Chemscore.DEClash>
0.1767

> <Gold.Chemscore.DEInternal>
0.5338

> <Gold.Chemscore.Rot>
1.2659

> <Gold.Chemscore.Internal.Correction>
   9.000000E+99

> <Gold.Chemscore.Hbonds>
donor molecule, donor type, donor heavy atom, donor atom, acceptor molecule, acceptor atom, score
      L1  H     9    24       P1  7948  0.92
      L1  H    13    41       P1 10175  0.96

> <Gold.Chemscore.Hbond.Weighted>
-6.2312

> <Gold.Chemscore.Metal.Weighted>
-0.0000

> <Gold.Chemscore.Lipo.Weighted>
-8.3624

> <Gold.Chemscore.Internal_Hbond.Weighted>
0.0000

> <Gold.Chemscore.DEClash.Weighted>
0.1767

> <Gold.Chemscore.DEInternal.Weighted>
0.5338

> <Gold.Chemscore.Rot.Weighted>
3.2408

> <Gold.Chemscore.Internal.Correction.Weighted>
   9.000000E+99

> <Gold.Protein.RotatedTorsions>
[ 6907 6896 6895 6894 ] final    4.62 input  -60.11 | X-H torsion
[ 7974 7965 7964 7962 ] final   51.64 input  175.53 | X-H torsion
[ 8008 7997 7996 7995 ] final  -35.87 input   59.86 | X-H torsion
[ 10167 10162 10161 10158 ] final -151.50 input  -65.29 | X-H torsion
[ 10718 10713 10712 10709 ] final   83.11 input   66.30 | X-H torsion
[ 10763 10752 10751 10750 ] final  -13.68 input  -60.55 | X-H torsion
[ 11005 11000 10999 10996 ] final -131.57 input  -57.11 | X-H torsion

> <Gold.Protein.ActiveResidues>
 VAL166  LYS551  ARG553  GLY616  TRP617  ASP618  TYR619  PRO620  LYS621  CYS622 
 ASP623  PHE694  ASN695  SER759  ASP760  ASP761  ALA762  ILE779  LEU786  VAL792 
 PHE793  MET794  SER795  GLU796  ALA797  LYS798  CYS799  TRP800  GLU811  SER814 

> <Gold.Protein.RotatedAtoms>
  151.6442  135.1009  160.0147 H   0  0  0  0  0  0  0  0  0  0  0  0  # atno 6907 bound_to 6896
  152.4037  133.6852  159.6346 H   0  0  0  0  0  0  0  0  0  0  0  0  # atno 6908 bound_to 6896
  150.7934  133.8663  159.3287 H   0  0  0  0  0  0  0  0  0  0  0  0  # atno 6909 bound_to 6896
  145.9893  139.4323  143.0083 H   0  0  0  0  0  0  0  0  0  0  0  0  # atno 7974 bound_to 7965
  154.4085  140.1646  156.2281 H   0  0  0  0  0  0  0  0  0  0  0  0  # atno 8008 bound_to 7997
  155.9306  140.3415  155.6223 H   0  0  0  0  0  0  0  0  0  0  0  0  # atno 8009 bound_to 7997
  155.7111  140.0757  157.2361 H   0  0  0  0  0  0  0  0  0  0  0  0  # atno 8010 bound_to 7997
  139.7262  143.8879  152.2520 H   0  0  0  0  0  0  0  0  0  0  0  0  # atno 10167 bound_to 10162
  157.6872  131.0077  150.2475 H   0  0  0  0  0  0  0  0  0  0  0  0  # atno 10718 bound_to 10713
  153.5170  135.7016  153.5751 H   0  0  0  0  0  0  0  0  0  0  0  0  # atno 10763 bound_to 10752
  153.3817  135.3918  155.1861 H   0  0  0  0  0  0  0  0  0  0  0  0  # atno 10764 bound_to 10752
  154.8698  135.3836  154.4655 H   0  0  0  0  0  0  0  0  0  0  0  0  # atno 10765 bound_to 10752
  140.9247  134.1398  157.4285 H   0  0  0  0  0  0  0  0  0  0  0  0  # atno 11005 bound_to 11000
  145.7653  140.9919  143.1178 LP  0  0  0  0  0  0  0  0  0  0  0  0  # atno 17320 bound_to 7965
  144.6884  139.9380  143.7474 LP  0  0  0  0  0  0  0  0  0  0  0  0  # atno 17321 bound_to 7965
  139.8789  144.7028  150.8900 LP  0  0  0  0  0  0  0  0  0  0  0  0  # atno 17342 bound_to 10162
  140.7763  143.3677  151.1708 LP  0  0  0  0  0  0  0  0  0  0  0  0  # atno 17343 bound_to 10162
  156.3078  130.3767  149.7690 LP  0  0  0  0  0  0  0  0  0  0  0  0  # atno 17370 bound_to 10713
  156.5300  130.8253  151.3234 LP  0  0  0  0  0  0  0  0  0  0  0  0  # atno 17371 bound_to 10713
  139.8783  134.9984  156.5897 LP  0  0  0  0  0  0  0  0  0  0  0  0  # atno 17394 bound_to 11000
  140.7942  133.8558  155.8671 LP  0  0  0  0  0  0  0  0  0  0  0  0  # atno 17395 bound_to 11000

$$$$
