AV-unprocessed.smi:1644|AV-procd|sdf|6595|dock6
  -GOLD-   22720 7293D 1   1.00000     0.00000
 Structure written by MMmdl.
 48 50  0  0  0  0  0  0  0  0  2 V2000
  151.0467  141.8886  159.4116 C   0  0  0  0  0  0  0  0  0  0  0  0
  151.3899  140.7340  158.4644 C   0  0  0  0  0  0  0  0  0  0  0  0
  151.1095  141.0826  156.9867 C   0  0  0  0  0  0  0  0  0  0  0  0
  151.2571  139.9227  155.9716 C   0  0  1  0  0  0  0  0  0  0  0  0
  152.6283  139.4691  155.8696 N   0  5  0  0  0  0  0  0  0  0  0  0
  152.6620  138.1447  156.1490 C   0  0  0  0  0  0  0  0  0  0  0  0
  153.6586  137.4227  156.1681 O   0  0  0  0  0  0  0  0  0  0  0  0
  151.4302  137.6753  156.4294 N   0  0  0  0  0  0  0  0  0  0  0  0
  151.1208  136.2943  156.8131 C   0  0  0  0  0  0  0  0  0  0  0  0
  150.3571  135.5500  155.6983 C   0  0  1  0  0  0  0  0  0  0  0  0
  150.9819  135.8175  154.4571 O   0  0  0  0  0  0  0  0  0  0  0  0
  150.3607  134.0267  155.9264 C   0  0  0  0  0  0  0  0  0  0  0  0
  149.6001  133.3128  154.9167 N   0  0  0  0  0  0  0  0  0  0  0  0
  148.6992  133.8271  154.0577 C   0  0  0  0  0  0  0  0  0  0  0  0
  148.1204  132.9850  153.2059 N   0  0  0  0  0  0  0  0  0  0  0  0
  148.7141  131.7839  153.5551 C   0  0  0  0  0  0  0  0  0  0  0  0
  148.5352  130.4853  153.0296 C   0  0  0  0  0  0  0  0  0  0  0  0
  149.2588  129.3876  153.5484 C   0  0  0  0  0  0  0  0  0  0  0  0
  149.0347  128.0081  152.9543 C   0  0  0  0  0  0  0  0  0  0  0  0
  150.1798  129.5809  154.6095 C   0  0  0  0  0  0  0  0  0  0  0  0
  150.9670  128.4170  155.1852 C   0  0  0  0  0  0  0  0  0  0  0  0
  150.3714  130.8717  155.1448 C   0  0  0  0  0  0  0  0  0  0  0  0
  149.6450  131.9553  154.6207 C   0  0  0  0  0  0  0  0  0  0  0  0
  150.5244  138.6554  156.3627 C   0  0  0  0  0  0  0  0  0  0  0  0
  149.3141  138.5836  156.5792 O   0  0  0  0  0  0  0  0  0  0  0  0
  151.2540  141.6154  160.4464 H   0  0  0  0  0  0  0  0  0  0  0  0
  149.9917  142.1544  159.3420 H   0  0  0  0  0  0  0  0  0  0  0  0
  151.6336  142.7772  159.1780 H   0  0  0  0  0  0  0  0  0  0  0  0
  152.4408  140.4729  158.5919 H   0  0  0  0  0  0  0  0  0  0  0  0
  150.8166  139.8558  158.7624 H   0  0  0  0  0  0  0  0  0  0  0  0
  150.0988  141.4854  156.9084 H   0  0  0  0  0  0  0  0  0  0  0  0
  151.7706  141.8956  156.6834 H   0  0  0  0  0  0  0  0  0  0  0  0
  150.8733  140.2496  155.0043 H   0  0  0  0  0  0  0  0  0  0  0  0
  152.0218  135.7495  157.1010 H   0  0  0  0  0  0  0  0  0  0  0  0
  150.5098  136.3280  157.7167 H   0  0  0  0  0  0  0  0  0  0  0  0
  149.3244  135.8980  155.6514 H   0  0  0  0  0  0  0  0  0  0  0  0
  150.3307  136.1490  153.8584 H   0  0  0  0  0  0  0  0  0  0  0  0
  151.3816  133.6415  155.9392 H   0  0  0  0  0  0  0  0  0  0  0  0
  149.9262  133.7918  156.8990 H   0  0  0  0  0  0  0  0  0  0  0  0
  148.4534  134.8791  154.0586 H   0  0  0  0  0  0  0  0  0  0  0  0
  147.8333  130.3390  152.2218 H   0  0  0  0  0  0  0  0  0  0  0  0
  149.9578  127.6271  152.5172 H   0  0  0  0  0  0  0  0  0  0  0  0
  148.2772  128.0298  152.1704 H   0  0  0  0  0  0  0  0  0  0  0  0
  148.7008  127.3100  153.7221 H   0  0  0  0  0  0  0  0  0  0  0  0
  151.6430  128.7459  155.9752 H   0  0  0  0  0  0  0  0  0  0  0  0
  151.5665  127.9390  154.4103 H   0  0  0  0  0  0  0  0  0  0  0  0
  150.2924  127.6737  155.6106 H   0  0  0  0  0  0  0  0  0  0  0  0
  151.0672  131.0338  155.9553 H   0  0  0  0  0  0  0  0  0  0  0  0
  1  2  1  0  0  0  0
  1 26  1  0  0  0  0
  1 27  1  0  0  0  0
  1 28  1  0  0  0  0
  2  3  1  0  0  0  0
  2 29  1  0  0  0  0
  2 30  1  0  0  0  0
  3  4  1  0  0  0  0
  3 31  1  0  0  0  0
  3 32  1  0  0  0  0
  4 24  1  0  0  0  0
  4  5  1  0  0  0  0
  4 33  1  0  0  0  0
  5  6  1  0  0  0  0
  6  7  2  0  0  0  0
  6  8  1  0  0  0  0
  8  9  1  0  0  0  0
  8 24  1  0  0  0  0
  9 10  1  0  0  0  0
  9 34  1  0  0  0  0
  9 35  1  0  0  0  0
 10 11  1  0  0  0  0
 10 12  1  0  0  0  0
 10 36  1  0  0  0  0
 11 37  1  0  0  0  0
 12 13  1  0  0  0  0
 12 38  1  0  0  0  0
 12 39  1  0  0  0  0
 13 23  1  0  0  0  0
 13 14  1  0  0  0  0
 14 15  2  0  0  0  0
 14 40  1  0  0  0  0
 15 16  1  0  0  0  0
 16 23  2  0  0  0  0
 16 17  1  0  0  0  0
 17 18  2  0  0  0  0
 17 41  1  0  0  0  0
 18 19  1  0  0  0  0
 18 20  1  0  0  0  0
 19 42  1  0  0  0  0
 19 43  1  0  0  0  0
 19 44  1  0  0  0  0
 20 21  1  0  0  0  0
 20 22  2  0  0  0  0
 21 45  1  0  0  0  0
 21 46  1  0  0  0  0
 21 47  1  0  0  0  0
 22 23  1  0  0  0  0
 22 48  1  0  0  0  0
 24 25  2  0  0  0  0
M  CHG  1   5  -1
M  END
> <s_m_source_file>
AV-unprocessed.smi

> <i_m_source_file_index>
1644

> <i_lp_mmshare_version>
43012

> <i_f3d_flags>
0

> <s_epik_input>
W0NIM11bQ0gyXVtDSDJdW0NAQEhdMVtOSF1DKD1PKU4oQzE9TylbQ0gyXVtDQEhdKFtPSF0pW0NIMl1uKFtjSF1uMiljKGMyMylbY0hdYyhbQ0gzXSljKFtjSF0zKVtDSDNd

> <s_epik_cmdline>
J2VwaWtfcHl0aG9uJywgJy1waCcsICc3LjAnLCAnLXRuJywgJzgnLCAnLW1hJywgJzIwMCcsICctbWV0YWxfYmluZGluZycsICctaW1hZScsICc8aW5maWxlLm1hZT4nLCAnLW9tYWUnLCAnPG91dGZpbGUubWFlPic=

> <r_lp_tautomer_probability>
1

> <r_epik_Ionization_Penalty>
5.95212

> <r_epik_Ionization_Penalty_Charging>
5.84419

> <r_epik_Ionization_Penalty_Neutral>
0.107924

> <r_epik_State_Penalty>
5.94088

> <r_epik_Charging_Adjusted_Penalty>
11.7851

> <i_epik_Tot_Q>
-1

> <i_epik_Tot_abs_Q>
1

> <r_epik_Metal_State_Penalty>
1.99095

> <b_epik_Metal_Only>
1

> <s_lp_Force_Field>
OPLS_2005

> <r_lp_Energy>
19.6047

> <b_lp_Chiralities_Consistent>
1

> <s_lp_Variant>
AV-unprocessed.smi:1644-12

> <Gold.Version>
5.8.1

> <Gold.Id.Protein>
6NUR|6NUR_protein|mol2

> <Gold.PLP.Fitness>
51.6701

> <Gold.PLP.PLP>
-40.6942

> <Gold.PLP.part.hbond>
-5.3480

> <Gold.PLP.part.metal>
0.0000

> <Gold.PLP.part.buried>
-1.3429

> <Gold.PLP.part.nonpolar>
-33.9703

> <Gold.PLP.part.repulsive>
0.1571

> <Gold.PLP.ligand.clash>
0.0000

> <Gold.PLP.ligand.torsion>
0.5031

> <Gold.PLP.Chemscore.Hbond>
3.2210

> <Gold.PLP.Chemscore.CHOScore>
0.7301

> <Gold.PLP.Chemscore.Metal>
0.0000

> <Gold.Chemscore.Hbonds>
donor molecule, donor type, donor heavy atom, donor atom, acceptor molecule, acceptor atom, score
      L1  H    11    37       P1  7948  0.06
      P1  H  7997  8009       L1     5  2.00
      P1  H 10752 10763       L1    11  1.00
      L1  C    14    40       P1  7948  0.59

> <Gold.PLP.Chemscore.Internal.Correction>
0.1291

> <Gold.Rescore>
     Score         DG    S(hbond)    S(metal)    S(lipo)     H(rot)  DE(clash)    DE(int)     intcor
     10.84     -11.46       1.08        0.00      78.17       2.65       0.01       0.62       ----

> <Gold.Chemscore.Fitness>
10.8363

> <Gold.Chemscore.DG>
-11.4598

> <Gold.Chemscore.ZeroCoef>
-5.4800

> <Gold.Chemscore.Hbond>
1.0821

> <Gold.Chemscore.Metal>
0.0000

> <Gold.Chemscore.Lipo>
78.1718

> <Gold.Chemscore.Internal_Hbond>
0.0000

> <Gold.Chemscore.DEClash>
0.0073

> <Gold.Chemscore.DEInternal>
0.6162

> <Gold.Chemscore.Rot>
2.6486

> <Gold.Chemscore.Internal.Correction>
   9.000000E+99

> <Gold.Chemscore.Hbonds>
donor molecule, donor type, donor heavy atom, donor atom, acceptor molecule, acceptor atom, score
      P1  H  7997  8009       L1     5  0.68
      P1  H 10752 10763       L1    11  0.84
      P1  H 10752 10764       L1     7  0.01

> <Gold.Chemscore.Hbond.Weighted>
-3.6142

> <Gold.Chemscore.Metal.Weighted>
-0.0000

> <Gold.Chemscore.Lipo.Weighted>
-9.1461

> <Gold.Chemscore.Internal_Hbond.Weighted>
0.0000

> <Gold.Chemscore.DEClash.Weighted>
0.0073

> <Gold.Chemscore.DEInternal.Weighted>
0.6162

> <Gold.Chemscore.Rot.Weighted>
6.7804

> <Gold.Chemscore.Internal.Correction.Weighted>
   9.000000E+99

> <Gold.Protein.RotatedTorsions>
[ 6907 6896 6895 6894 ] final   61.46 input  -60.11 | X-H torsion
[ 7974 7965 7964 7962 ] final    3.95 input  175.53 | X-H torsion
[ 8008 7997 7996 7995 ] final -137.65 input   59.86 | X-H torsion
[ 10167 10162 10161 10158 ] final  -47.73 input  -65.29 | X-H torsion
[ 10718 10713 10712 10709 ] final  -54.76 input   66.30 | X-H torsion
[ 10763 10752 10751 10750 ] final   56.65 input  -60.55 | X-H torsion
[ 11005 11000 10999 10996 ] final   63.02 input  -57.11 | X-H torsion

> <Gold.Protein.ActiveResidues>
 VAL166  LYS551  ARG553  GLY616  TRP617  ASP618  TYR619  PRO620  LYS621  CYS622 
 ASP623  PHE694  ASN695  SER759  ASP760  ASP761  ALA762  ILE779  LEU786  VAL792 
 PHE793  MET794  SER795  GLU796  ALA797  LYS798  CYS799  TRP800  GLU811  SER814 

> <Gold.Protein.RotatedAtoms>
  152.4091  134.6156  160.0037 H   0  0  0  0  0  0  0  0  0  0  0  0  # atno 6907 bound_to 6896
  151.6339  133.3324  159.3123 H   0  0  0  0  0  0  0  0  0  0  0  0  # atno 6908 bound_to 6896
  150.7983  134.7099  159.6643 H   0  0  0  0  0  0  0  0  0  0  0  0  # atno 6909 bound_to 6896
  146.2444  140.0607  142.8368 H   0  0  0  0  0  0  0  0  0  0  0  0  # atno 7974 bound_to 7965
  155.4153  140.0515  157.3029 H   0  0  0  0  0  0  0  0  0  0  0  0  # atno 8008 bound_to 7997
  154.4927  140.2126  155.9472 H   0  0  0  0  0  0  0  0  0  0  0  0  # atno 8009 bound_to 7997
  156.1364  140.3162  155.8433 H   0  0  0  0  0  0  0  0  0  0  0  0  # atno 8010 bound_to 7997
  140.6762  143.2771  151.3969 H   0  0  0  0  0  0  0  0  0  0  0  0  # atno 10167 bound_to 10162
  156.1424  130.4154  150.0081 H   0  0  0  0  0  0  0  0  0  0  0  0  # atno 10718 bound_to 10713
  152.9836  135.5669  154.5264 H   0  0  0  0  0  0  0  0  0  0  0  0  # atno 10763 bound_to 10752
  154.4743  135.2786  155.1621 H   0  0  0  0  0  0  0  0  0  0  0  0  # atno 10764 bound_to 10752
  154.3156  135.6279  153.5538 H   0  0  0  0  0  0  0  0  0  0  0  0  # atno 10765 bound_to 10752
  140.0053  134.6380  155.9866 H   0  0  0  0  0  0  0  0  0  0  0  0  # atno 11005 bound_to 11000
  145.0902  140.9279  143.4773 LP  0  0  0  0  0  0  0  0  0  0  0  0  # atno 17320 bound_to 7965
  145.0778  139.2982  143.5799 LP  0  0  0  0  0  0  0  0  0  0  0  0  # atno 17321 bound_to 7965
  139.6056  144.1204  152.2245 LP  0  0  0  0  0  0  0  0  0  0  0  0  # atno 17342 bound_to 10162
  140.0602  144.5863  150.7269 LP  0  0  0  0  0  0  0  0  0  0  0  0  # atno 17343 bound_to 10162
  156.7963  130.9274  151.3646 LP  0  0  0  0  0  0  0  0  0  0  0  0  # atno 17370 bound_to 10713
  157.6587  130.8947  149.9783 LP  0  0  0  0  0  0  0  0  0  0  0  0  # atno 17371 bound_to 10713
  141.1672  133.6537  156.4521 LP  0  0  0  0  0  0  0  0  0  0  0  0  # atno 17394 bound_to 11000
  140.4653  134.6803  157.5104 LP  0  0  0  0  0  0  0  0  0  0  0  0  # atno 17395 bound_to 11000

$$$$
