AV-unprocessed.smi:111|AV-procd|sdf|1081|dock8
  -GOLD-   2262018173D 1   1.00000     0.00000
 Structure written by MMmdl.
 46 48  0  0  0  0  0  0  0  0  1 V2000
  150.6175  136.8907  159.8593 O   0  0  0  0  0  0  0  0  0  0  0  0
  150.6076  137.5126  158.7958 C   0  0  0  0  0  0  0  0  0  0  0  0
  149.3829  137.8282  158.0685 C   0  0  0  0  0  0  0  0  0  0  0  0
  148.1948  137.4598  158.5771 F   0  0  0  0  0  0  0  0  0  0  0  0
  149.4204  138.4806  156.8870 C   0  0  0  0  0  0  0  0  0  0  0  0
  150.5993  138.8949  156.2900 N   0  0  0  0  0  0  0  0  0  0  0  0
  150.6031  139.6133  154.9579 C   0  0  2  0  0  0  0  0  0  0  0  0
  149.9236  140.9798  155.0896 C   0  0  0  0  0  0  0  0  0  0  0  0
  148.4893  140.6437  154.7446 C   0  0  0  0  0  0  0  0  0  0  0  0
  148.6719  139.5691  153.6780 C   0  0  0  0  0  0  0  0  0  0  0  0
  149.8640  138.8699  154.0318 O   0  0  0  0  0  0  0  0  0  0  0  0
  151.8314  138.6566  156.9357 C   0  0  0  0  0  0  0  0  0  0  0  0
  152.8911  139.0395  156.4341 O   0  0  0  0  0  0  0  0  0  0  0  0
  151.7972  137.9647  158.1699 N   0  0  0  0  0  0  0  0  0  0  0  0
  153.0755  137.6569  158.7967 C   0  0  0  0  0  0  0  0  0  0  0  0
  153.6773  138.8319  159.6012 C   0  0  1  0  0  0  0  0  0  0  0  0
  154.9160  139.1783  159.0173 O   0  0  0  0  0  0  0  0  0  0  0  0
  152.7809  140.0887  159.6598 C   0  0  0  0  0  0  0  0  0  0  0  0
  153.2702  141.1613  160.6502 C   0  0  0  0  0  0  0  0  0  0  0  0
  152.6117  142.5132  160.4264 C   0  0  0  0  0  0  0  0  0  0  0  0
  151.9180  143.1456  161.4804 C   0  0  0  0  0  0  0  0  0  0  0  0
  151.3334  144.4118  161.2853 C   0  0  0  0  0  0  0  0  0  0  0  0
  151.4349  145.0489  160.0338 C   0  0  0  0  0  0  0  0  0  0  0  0
  152.1215  144.4194  158.9777 C   0  0  0  0  0  0  0  0  0  0  0  0
  152.7092  143.1543  159.1732 C   0  0  0  0  0  0  0  0  0  0  0  0
  148.4784  138.6845  156.4004 H   0  0  0  0  0  0  0  0  0  0  0  0
  151.6473  139.6615  154.6443 H   0  0  0  0  0  0  0  0  0  0  0  0
  150.0542  141.4188  156.0794 H   0  0  0  0  0  0  0  0  0  0  0  0
  150.3489  141.6532  154.3447 H   0  0  0  0  0  0  0  0  0  0  0  0
  147.9789  140.2320  155.6160 H   0  0  0  0  0  0  0  0  0  0  0  0
  147.9203  141.5036  154.3905 H   0  0  0  0  0  0  0  0  0  0  0  0
  147.8180  138.8948  153.6129 H   0  0  0  0  0  0  0  0  0  0  0  0
  148.8172  140.0285  152.6997 H   0  0  0  0  0  0  0  0  0  0  0  0
  152.8951  136.7918  159.4383 H   0  0  0  0  0  0  0  0  0  0  0  0
  153.7691  137.2983  158.0358 H   0  0  0  0  0  0  0  0  0  0  0  0
  153.8927  138.4861  160.6113 H   0  0  0  0  0  0  0  0  0  0  0  0
  155.5429  139.3266  159.7087 H   0  0  0  0  0  0  0  0  0  0  0  0
  152.6865  140.5194  158.6625 H   0  0  0  0  0  0  0  0  0  0  0  0
  151.7701  139.8118  159.9546 H   0  0  0  0  0  0  0  0  0  0  0  0
  153.0988  140.8297  161.6749 H   0  0  0  0  0  0  0  0  0  0  0  0
  154.3486  141.2864  160.5481 H   0  0  0  0  0  0  0  0  0  0  0  0
  151.8396  142.6646  162.4443 H   0  0  0  0  0  0  0  0  0  0  0  0
  150.8084  144.8947  162.0961 H   0  0  0  0  0  0  0  0  0  0  0  0
  150.9868  146.0200  159.8836 H   0  0  0  0  0  0  0  0  0  0  0  0
  152.2005  144.9088  158.0181 H   0  0  0  0  0  0  0  0  0  0  0  0
  153.2423  142.6828  158.3607 H   0  0  0  0  0  0  0  0  0  0  0  0
  1  2  2  0  0  0  0
  2 14  1  0  0  0  0
  2  3  1  0  0  0  0
  3  4  1  0  0  0  0
  3  5  2  0  0  0  0
  5  6  1  0  0  0  0
  5 26  1  0  0  0  0
  6  7  1  0  0  0  0
  6 12  1  0  0  0  0
  7 11  1  0  0  0  0
  7  8  1  0  0  0  0
  7 27  1  0  0  0  0
  8  9  1  0  0  0  0
  8 28  1  0  0  0  0
  8 29  1  0  0  0  0
  9 10  1  0  0  0  0
  9 30  1  0  0  0  0
  9 31  1  0  0  0  0
 10 11  1  0  0  0  0
 10 32  1  0  0  0  0
 10 33  1  0  0  0  0
 12 13  2  0  0  0  0
 12 14  1  0  0  0  0
 14 15  1  0  0  0  0
 15 16  1  0  0  0  0
 15 34  1  0  0  0  0
 15 35  1  0  0  0  0
 16 17  1  0  0  0  0
 16 18  1  0  0  0  0
 16 36  1  0  0  0  0
 17 37  1  0  0  0  0
 18 19  1  0  0  0  0
 18 38  1  0  0  0  0
 18 39  1  0  0  0  0
 19 20  1  0  0  0  0
 19 40  1  0  0  0  0
 19 41  1  0  0  0  0
 20 25  1  0  0  0  0
 20 21  2  0  0  0  0
 21 22  1  0  0  0  0
 21 42  1  0  0  0  0
 22 23  2  0  0  0  0
 22 43  1  0  0  0  0
 23 24  1  0  0  0  0
 23 44  1  0  0  0  0
 24 25  2  0  0  0  0
 24 45  1  0  0  0  0
 25 46  1  0  0  0  0
M  END
> <s_m_source_file>
AV-unprocessed.smi

> <i_m_source_file_index>
111

> <i_lp_mmshare_version>
43012

> <i_f3d_flags>
0

> <s_epik_input>
TzFbQ0gyXVtDSDJdW0NIMl1bQ0BIXTFuKFtjSF1jKEYpYzI9TyljKD1PKW4yW0NIMl1bQ0BIXShbT0hdKVtDSDJdW0NIMl1jM1tjSF1bY0hdW2NIXVtjSF1bY0hdMw==

> <s_epik_cmdline>
J2VwaWtfcHl0aG9uJywgJy1waCcsICc3LjAnLCAnLXRuJywgJzgnLCAnLW1hJywgJzIwMCcsICctbWV0YWxfYmluZGluZycsICctaW1hZScsICc8aW5maWxlLm1hZT4nLCAnLW9tYWUnLCAnPG91dGZpbGUubWFlPic=

> <r_lp_tautomer_probability>
1

> <r_epik_Ionization_Penalty>
1.88248e-07

> <r_epik_Ionization_Penalty_Charging>
4.03974e-08

> <r_epik_Ionization_Penalty_Neutral>
1.47851e-07

> <r_epik_State_Penalty>
-0

> <r_epik_Charging_Adjusted_Penalty>
4.03974e-08

> <i_epik_Tot_Q>
0

> <i_epik_Tot_abs_Q>
0

> <r_epik_Metal_State_Penalty>
-0

> <b_epik_Metal_Only>
0

> <s_epik_Chemistry_Notes>
This compound contains an acetal/aminal-like group ( X-CH(R)-Y where X, Y are N, S, or O) that may be acid/base labile, releasing an aldehyde.

> <s_lp_Force_Field>
OPLS_2005

> <r_lp_Energy>
35.2037

> <b_lp_Chiralities_Consistent>
1

> <s_lp_Variant>
AV-unprocessed.smi:111-3

> <Gold.Version>
5.8.1

> <Gold.Id.Protein>
6NUR|6NUR_protein|mol2

> <Gold.PLP.Fitness>
55.9497

> <Gold.PLP.PLP>
-49.3819

> <Gold.PLP.part.hbond>
-3.0000

> <Gold.PLP.part.metal>
0.0000

> <Gold.PLP.part.buried>
-2.0620

> <Gold.PLP.part.nonpolar>
-44.2793

> <Gold.PLP.part.repulsive>
0.2180

> <Gold.PLP.ligand.clash>
0.0000

> <Gold.PLP.ligand.torsion>
1.2522

> <Gold.PLP.Chemscore.Hbond>
3.0000

> <Gold.PLP.Chemscore.CHOScore>
0.0000

> <Gold.PLP.Chemscore.Metal>
0.0000

> <Gold.Chemscore.Hbonds>
donor molecule, donor type, donor heavy atom, donor atom, acceptor molecule, acceptor atom, score
      P1  H  6896  6907       L1     1  1.00
      P1  H  7997  8009       L1    17  0.85
      P1  H  7997  8010       L1    13  1.00

> <Gold.PLP.Chemscore.Internal.Correction>
0.0722

> <Gold.Rescore>
     Score         DG    S(hbond)    S(metal)    S(lipo)     H(rot)  DE(clash)    DE(int)     intcor
     21.52     -22.94       2.89        0.00     125.38       2.67       0.08       1.34       ----

> <Gold.Chemscore.Fitness>
21.5219

> <Gold.Chemscore.DG>
-22.9416

> <Gold.Chemscore.ZeroCoef>
-5.4800

> <Gold.Chemscore.Hbond>
2.8857

> <Gold.Chemscore.Metal>
0.0000

> <Gold.Chemscore.Lipo>
125.3825

> <Gold.Chemscore.Internal_Hbond>
0.0000

> <Gold.Chemscore.DEClash>
0.0824

> <Gold.Chemscore.DEInternal>
1.3373

> <Gold.Chemscore.Rot>
2.6743

> <Gold.Chemscore.Internal.Correction>
   9.000000E+99

> <Gold.Chemscore.Hbonds>
donor molecule, donor type, donor heavy atom, donor atom, acceptor molecule, acceptor atom, score
      P1  H  6896  6907       L1     1  0.97
      P1  H  7997  8009       L1    17  0.51
      P1  H  7997  8010       L1    13  0.96

> <Gold.Chemscore.Hbond.Weighted>
-9.6381

> <Gold.Chemscore.Metal.Weighted>
-0.0000

> <Gold.Chemscore.Lipo.Weighted>
-14.6698

> <Gold.Chemscore.Internal_Hbond.Weighted>
0.0000

> <Gold.Chemscore.DEClash.Weighted>
0.0824

> <Gold.Chemscore.DEInternal.Weighted>
1.3373

> <Gold.Chemscore.Rot.Weighted>
6.8463

> <Gold.Chemscore.Internal.Correction.Weighted>
   9.000000E+99

> <Gold.Protein.RotatedTorsions>
[ 6907 6896 6895 6894 ] final  -27.74 input  -60.11 | X-H torsion
[ 7974 7965 7964 7962 ] final  -79.78 input  175.53 | X-H torsion
[ 8008 7997 7996 7995 ] final   88.97 input   59.86 | X-H torsion
[ 10167 10162 10161 10158 ] final -166.91 input  -65.29 | X-H torsion
[ 10718 10713 10712 10709 ] final  108.09 input   66.30 | X-H torsion
[ 10763 10752 10751 10750 ] final -173.89 input  -60.55 | X-H torsion
[ 11005 11000 10999 10996 ] final  141.54 input  -57.11 | X-H torsion

> <Gold.Protein.ActiveResidues>
 VAL166  LYS551  ARG553  GLY616  TRP617  ASP618  TYR619  PRO620  LYS621  CYS622 
 ASP623  PHE694  ASN695  SER759  ASP760  ASP761  ALA762  ILE779  LEU786  VAL792 
 PHE793  MET794  SER795  GLU796  ALA797  LYS798  CYS799  TRP800  GLU811  SER814 

> <Gold.Protein.RotatedAtoms>
  151.1427  135.0188  159.8632 H   0  0  0  0  0  0  0  0  0  0  0  0  # atno 6907 bound_to 6896
  152.5452  134.1480  159.8516 H   0  0  0  0  0  0  0  0  0  0  0  0  # atno 6908 bound_to 6896
  151.1557  133.4832  159.2627 H   0  0  0  0  0  0  0  0  0  0  0  0  # atno 6909 bound_to 6896
  145.5686  140.9470  143.1408 H   0  0  0  0  0  0  0  0  0  0  0  0  # atno 7974 bound_to 7965
  155.9942  140.3366  155.6783 H   0  0  0  0  0  0  0  0  0  0  0  0  # atno 8008 bound_to 7997
  155.6379  140.0692  157.2646 H   0  0  0  0  0  0  0  0  0  0  0  0  # atno 8009 bound_to 7997
  154.4229  140.1748  156.1529 H   0  0  0  0  0  0  0  0  0  0  0  0  # atno 8010 bound_to 7997
  139.6084  144.0865  152.1816 H   0  0  0  0  0  0  0  0  0  0  0  0  # atno 10167 bound_to 10162
  157.6601  131.0886  150.6253 H   0  0  0  0  0  0  0  0  0  0  0  0  # atno 10718 bound_to 10713
  154.6026  135.2856  155.0519 H   0  0  0  0  0  0  0  0  0  0  0  0  # atno 10763 bound_to 10752
  154.1778  135.6462  153.5030 H   0  0  0  0  0  0  0  0  0  0  0  0  # atno 10764 bound_to 10752
  153.0163  135.5416  154.6751 H   0  0  0  0  0  0  0  0  0  0  0  0  # atno 10765 bound_to 10752
  140.0409  134.9305  157.0841 H   0  0  0  0  0  0  0  0  0  0  0  0  # atno 11005 bound_to 11000
  144.7448  139.7349  143.7296 LP  0  0  0  0  0  0  0  0  0  0  0  0  # atno 17320 bound_to 7965
  146.1800  139.4988  142.9872 LP  0  0  0  0  0  0  0  0  0  0  0  0  # atno 17321 bound_to 7965
  140.0478  144.5956  150.7360 LP  0  0  0  0  0  0  0  0  0  0  0  0  # atno 17342 bound_to 10162
  140.7301  143.2680  151.3981 LP  0  0  0  0  0  0  0  0  0  0  0  0  # atno 17343 bound_to 10162
  156.6557  130.4498  149.5704 LP  0  0  0  0  0  0  0  0  0  0  0  0  # atno 17370 bound_to 10713
  156.2104  130.6675  151.1264 LP  0  0  0  0  0  0  0  0  0  0  0  0  # atno 17371 bound_to 10713
  140.4071  134.2021  155.7163 LP  0  0  0  0  0  0  0  0  0  0  0  0  # atno 17394 bound_to 11000
  141.1882  133.8264  157.1002 LP  0  0  0  0  0  0  0  0  0  0  0  0  # atno 17395 bound_to 11000

$$$$
