AV-unprocessed.smi:827|AV-procd|sdf|3857|dock8
  -GOLD-   22720 1313D 1   1.00000     0.00000
 Structure written by MMmdl.
 47 48  0  0  0  0  0  0  0  0  2 V2000
  152.8119  138.2878  154.7977 C   0  0  0  0  0  0  0  0  0  0  0  0
  151.4028  138.4799  154.7369 O   0  0  0  0  0  0  0  0  0  0  0  0
  150.8735  139.6493  155.2489 C   0  0  0  0  0  0  0  0  0  0  0  0
  151.5370  140.2708  156.2561 N   0  0  0  0  0  0  0  0  0  0  0  0
  151.0211  141.4112  156.7582 C   0  0  0  0  0  0  0  0  0  0  0  0
  149.8238  141.9850  156.2928 C   0  0  0  0  0  0  0  0  0  0  0  0
  149.1332  141.3422  155.2490 C   0  0  0  0  0  0  0  0  0  0  0  0
  149.6699  140.1516  154.7006 C   0  0  0  0  0  0  0  0  0  0  0  0
  149.0501  139.4113  153.6555 N   0  0  0  0  0  0  0  0  0  0  0  0
  147.7414  139.2027  153.4331 C   0  0  0  0  0  0  0  0  0  0  0  0
  146.8201  139.6329  154.1266 O   0  0  0  0  0  0  0  0  0  0  0  0
  147.5481  138.4684  152.3282 N   0  0  0  0  0  0  0  0  0  0  0  0
  146.2444  138.0631  151.8149 C   0  0  0  0  0  0  0  0  0  0  0  0
  145.7012  136.8255  152.5561 C   0  0  0  0  0  0  0  0  0  0  0  0
  146.4260  135.5814  152.1943 N   0  3  0  0  0  0  0  0  0  0  0  0
  146.7223  134.7098  153.3659 C   0  0  0  0  0  0  0  0  0  0  0  0
  147.4638  133.4284  152.9431 C   0  0  0  0  0  0  0  0  0  0  0  0
  146.6755  132.7354  151.9200 N   0  0  0  0  0  0  0  0  0  0  0  0
  146.0504  131.5442  152.0800 C   0  0  0  0  0  0  0  0  0  0  0  0
  145.1902  130.9904  150.9420 C   0  0  0  0  0  0  0  0  0  0  0  0
  146.1454  130.8779  153.1106 O   0  0  0  0  0  0  0  0  0  0  0  0
  146.5197  133.5600  150.7188 C   0  0  0  0  0  0  0  0  0  0  0  0
  145.7565  134.8453  151.0878 C   0  0  0  0  0  0  0  0  0  0  0  0
  153.0646  137.3273  154.3494 H   0  0  0  0  0  0  0  0  0  0  0  0
  153.1688  138.2760  155.8286 H   0  0  0  0  0  0  0  0  0  0  0  0
  153.3445  139.0614  154.2424 H   0  0  0  0  0  0  0  0  0  0  0  0
  151.5767  141.8774  157.5582 H   0  0  0  0  0  0  0  0  0  0  0  0
  149.4413  142.8953  156.7305 H   0  0  0  0  0  0  0  0  0  0  0  0
  148.2042  141.7674  154.9030 H   0  0  0  0  0  0  0  0  0  0  0  0
  149.6820  139.0537  152.9537 H   0  0  0  0  0  0  0  0  0  0  0  0
  148.3603  138.1579  151.8146 H   0  0  0  0  0  0  0  0  0  0  0  0
  145.5572  138.9006  151.9377 H   0  0  0  0  0  0  0  0  0  0  0  0
  146.3279  137.8846  150.7426 H   0  0  0  0  0  0  0  0  0  0  0  0
  145.7381  136.9648  153.6376 H   0  0  0  0  0  0  0  0  0  0  0  0
  144.6470  136.7137  152.2974 H   0  0  0  0  0  0  0  0  0  0  0  0
  147.3300  135.2461  154.0936 H   0  0  0  0  0  0  0  0  0  0  0  0
  145.7890  134.4452  153.8660 H   0  0  0  0  0  0  0  0  0  0  0  0
  148.4392  133.6842  152.5263 H   0  0  0  0  0  0  0  0  0  0  0  0
  147.6748  132.8199  153.8213 H   0  0  0  0  0  0  0  0  0  0  0  0
  145.7857  130.8471  150.0399 H   0  0  0  0  0  0  0  0  0  0  0  0
  144.3631  131.6650  150.7191 H   0  0  0  0  0  0  0  0  0  0  0  0
  144.7657  130.0238  151.2165 H   0  0  0  0  0  0  0  0  0  0  0  0
  147.5061  133.8084  150.3241 H   0  0  0  0  0  0  0  0  0  0  0  0
  145.9996  133.0417  149.9121 H   0  0  0  0  0  0  0  0  0  0  0  0
  144.7366  134.5958  151.3857 H   0  0  0  0  0  0  0  0  0  0  0  0
  145.6832  135.4890  150.2103 H   0  0  0  0  0  0  0  0  0  0  0  0
  147.3193  135.8710  151.8227 H   0  0  0  0  0  0  0  0  0  0  0  0
  1  2  1  0  0  0  0
  1 24  1  0  0  0  0
  1 25  1  0  0  0  0
  1 26  1  0  0  0  0
  2  3  1  0  0  0  0
  3  8  1  0  0  0  0
  3  4  2  0  0  0  0
  4  5  1  0  0  0  0
  5  6  2  0  0  0  0
  5 27  1  0  0  0  0
  6  7  1  0  0  0  0
  6 28  1  0  0  0  0
  7  8  2  0  0  0  0
  7 29  1  0  0  0  0
  8  9  1  0  0  0  0
  9 10  1  0  0  0  0
  9 30  1  0  0  0  0
 10 11  2  0  0  0  0
 10 12  1  0  0  0  0
 12 13  1  0  0  0  0
 12 31  1  0  0  0  0
 13 14  1  0  0  0  0
 13 32  1  0  0  0  0
 13 33  1  0  0  0  0
 14 15  1  0  0  0  0
 14 34  1  0  0  0  0
 14 35  1  0  0  0  0
 15 23  1  0  0  0  0
 15 16  1  0  0  0  0
 15 47  1  0  0  0  0
 16 17  1  0  0  0  0
 16 36  1  0  0  0  0
 16 37  1  0  0  0  0
 17 18  1  0  0  0  0
 17 38  1  0  0  0  0
 17 39  1  0  0  0  0
 18 19  1  0  0  0  0
 18 22  1  0  0  0  0
 19 20  1  0  0  0  0
 19 21  2  0  0  0  0
 20 40  1  0  0  0  0
 20 41  1  0  0  0  0
 20 42  1  0  0  0  0
 22 23  1  0  0  0  0
 22 43  1  0  0  0  0
 22 44  1  0  0  0  0
 23 45  1  0  0  0  0
 23 46  1  0  0  0  0
M  CHG  1  15   1
M  END
> <s_m_source_file>
AV-unprocessed.smi

> <i_m_source_file_index>
827

> <i_lp_mmshare_version>
43012

> <i_f3d_flags>
0

> <s_epik_input>
W0NIM11PYzFuW2NIXVtjSF1bY0hdYzFbTkhdQyg9TylbTkhdW0NIMl1bQ0gyXU4yW0NIMl1bQ0gyXU4oQyg9TylbQ0gzXSlbQ0gyXVtDSDJdMg==

> <s_epik_cmdline>
J2VwaWtfcHl0aG9uJywgJy1waCcsICc3LjAnLCAnLXRuJywgJzgnLCAnLW1hJywgJzIwMCcsICctbWV0YWxfYmluZGluZycsICctaW1hZScsICc8aW5maWxlLm1hZT4nLCAnLW9tYWUnLCAnPG91dGZpbGUubWFlPic=

> <r_lp_tautomer_probability>
1

> <r_epik_Ionization_Penalty>
0.63011

> <r_epik_Ionization_Penalty_Charging>
0.630034

> <r_epik_Ionization_Penalty_Neutral>
7.67152e-05

> <r_epik_State_Penalty>
0.646805

> <r_epik_Charging_Adjusted_Penalty>
1.27684

> <i_epik_Tot_Q>
1

> <i_epik_Tot_abs_Q>
1

> <r_epik_Metal_State_Penalty>
0.64681

> <b_epik_Metal_Only>
0

> <s_lp_Force_Field>
OPLS_2005

> <r_lp_Energy>
42.7203

> <b_lp_Chiralities_Consistent>
1

> <s_lp_Variant>
AV-unprocessed.smi:827-2

> <Gold.Version>
5.8.1

> <Gold.Id.Protein>
6NUR|6NUR_protein|mol2

> <Gold.PLP.Fitness>
45.7711

> <Gold.PLP.PLP>
-39.7972

> <Gold.PLP.part.hbond>
-4.0000

> <Gold.PLP.part.metal>
0.0000

> <Gold.PLP.part.buried>
-2.4306

> <Gold.PLP.part.nonpolar>
-34.4030

> <Gold.PLP.part.repulsive>
0.6128

> <Gold.PLP.ligand.clash>
0.0000

> <Gold.PLP.ligand.torsion>
1.3612

> <Gold.PLP.Chemscore.Hbond>
2.8800

> <Gold.PLP.Chemscore.CHOScore>
0.0000

> <Gold.PLP.Chemscore.Metal>
0.0000

> <Gold.Chemscore.Hbonds>
donor molecule, donor type, donor heavy atom, donor atom, acceptor molecule, acceptor atom, score
      L1  H     9    30       P1  7957  0.30
      L1  H    12    31       P1  7948  0.46
      L1  H    15    47       P1  7948  2.00

> <Gold.PLP.Chemscore.Internal.Correction>
0.0562

> <Gold.Rescore>
     Score         DG    S(hbond)    S(metal)    S(lipo)     H(rot)  DE(clash)    DE(int)     intcor
     15.13     -16.33       1.91        0.00      79.14       1.87       0.27       0.94       ----

> <Gold.Chemscore.Fitness>
15.1295

> <Gold.Chemscore.DG>
-16.3342

> <Gold.Chemscore.ZeroCoef>
-5.4800

> <Gold.Chemscore.Hbond>
1.9133

> <Gold.Chemscore.Metal>
0.0000

> <Gold.Chemscore.Lipo>
79.1400

> <Gold.Chemscore.Internal_Hbond>
0.0000

> <Gold.Chemscore.DEClash>
0.2689

> <Gold.Chemscore.DEInternal>
0.9358

> <Gold.Chemscore.Rot>
1.8732

> <Gold.Chemscore.Internal.Correction>
   9.000000E+99

> <Gold.Chemscore.Hbonds>
donor molecule, donor type, donor heavy atom, donor atom, acceptor molecule, acceptor atom, score
      L1  H     9    30       P1  7957  0.27
      L1  H    12    31       P1  7948  0.45
      L1  H    15    47       P1  7948  0.99

> <Gold.Chemscore.Hbond.Weighted>
-6.3903

> <Gold.Chemscore.Metal.Weighted>
-0.0000

> <Gold.Chemscore.Lipo.Weighted>
-9.2594

> <Gold.Chemscore.Internal_Hbond.Weighted>
0.0000

> <Gold.Chemscore.DEClash.Weighted>
0.2689

> <Gold.Chemscore.DEInternal.Weighted>
0.9358

> <Gold.Chemscore.Rot.Weighted>
4.7955

> <Gold.Chemscore.Internal.Correction.Weighted>
   9.000000E+99

> <Gold.Protein.RotatedTorsions>
[ 6907 6896 6895 6894 ] final -165.40 input  -60.11 | X-H torsion
[ 7974 7965 7964 7962 ] final  123.90 input  175.53 | X-H torsion
[ 8008 7997 7996 7995 ] final   88.92 input   59.86 | X-H torsion
[ 10167 10162 10161 10158 ] final  -77.81 input  -65.29 | X-H torsion
[ 10718 10713 10712 10709 ] final -168.48 input   66.30 | X-H torsion
[ 10763 10752 10751 10750 ] final  -79.56 input  -60.55 | X-H torsion
[ 11005 11000 10999 10996 ] final  -33.32 input  -57.11 | X-H torsion

> <Gold.Protein.ActiveResidues>
 VAL166  LYS551  ARG553  GLY616  TRP617  ASP618  TYR619  PRO620  LYS621  CYS622 
 ASP623  PHE694  ASN695  SER759  ASP760  ASP761  ALA762  ILE779  LEU786  VAL792 
 PHE793  MET794  SER795  GLU796  ALA797  LYS798  CYS799  TRP800  GLU811  SER814 

> <Gold.Protein.RotatedAtoms>
  151.4271  133.3681  159.2763 H   0  0  0  0  0  0  0  0  0  0  0  0  # atno 6907 bound_to 6896
  150.9252  134.8670  159.7526 H   0  0  0  0  0  0  0  0  0  0  0  0  # atno 6908 bound_to 6896
  152.5001  134.4211  159.9533 H   0  0  0  0  0  0  0  0  0  0  0  0  # atno 6909 bound_to 6896
  145.0906  139.3589  143.4862 H   0  0  0  0  0  0  0  0  0  0  0  0  # atno 7974 bound_to 7965
  155.9937  140.3366  155.6777 H   0  0  0  0  0  0  0  0  0  0  0  0  # atno 8008 bound_to 7997
  155.6386  140.0693  157.2644 H   0  0  0  0  0  0  0  0  0  0  0  0  # atno 8009 bound_to 7997
  154.4227  140.1747  156.1536 H   0  0  0  0  0  0  0  0  0  0  0  0  # atno 8010 bound_to 7997
  140.4737  143.2420  151.8165 H   0  0  0  0  0  0  0  0  0  0  0  0  # atno 10167 bound_to 10162
  156.6976  130.9184  151.3076 H   0  0  0  0  0  0  0  0  0  0  0  0  # atno 10718 bound_to 10713
  154.5402  135.5691  153.6832 H   0  0  0  0  0  0  0  0  0  0  0  0  # atno 10763 bound_to 10752
  152.9961  135.6226  154.2513 H   0  0  0  0  0  0  0  0  0  0  0  0  # atno 10764 bound_to 10752
  154.2443  135.2861  155.2821 H   0  0  0  0  0  0  0  0  0  0  0  0  # atno 10765 bound_to 10752
  140.9625  133.7156  156.1392 H   0  0  0  0  0  0  0  0  0  0  0  0  # atno 11005 bound_to 11000
  146.3531  140.0739  142.8621 LP  0  0  0  0  0  0  0  0  0  0  0  0  # atno 17320 bound_to 7965
  145.1070  140.9381  143.4679 LP  0  0  0  0  0  0  0  0  0  0  0  0  # atno 17321 bound_to 7965
  139.4822  144.4859  151.9247 LP  0  0  0  0  0  0  0  0  0  0  0  0  # atno 17342 bound_to 10162
  140.3945  144.2573  150.5897 LP  0  0  0  0  0  0  0  0  0  0  0  0  # atno 17343 bound_to 10162
  157.6985  130.9308  150.0715 LP  0  0  0  0  0  0  0  0  0  0  0  0  # atno 17370 bound_to 10713
  156.1752  130.3648  149.9110 LP  0  0  0  0  0  0  0  0  0  0  0  0  # atno 17371 bound_to 10713
  140.7446  134.4112  157.5550 LP  0  0  0  0  0  0  0  0  0  0  0  0  # atno 17394 bound_to 11000
  139.8883  134.8860  156.2481 LP  0  0  0  0  0  0  0  0  0  0  0  0  # atno 17395 bound_to 11000

$$$$
