AV-unprocessed.smi:281|AV-procd|sdf|2109|dock8
  -GOLD-   2262021403D 1   1.00000     0.00000
 Structure written by MMmdl.
 55 59  0  0  0  0  0  0  0  0  1 V2000
  146.4324  132.1696  161.4636 C   0  0  0  0  0  0  0  0  0  0  0  0
  146.4919  133.6011  160.9212 C   0  0  2  0  0  0  0  0  0  0  0  0
  147.6598  133.7969  159.9391 C   0  0  0  0  0  0  0  0  0  0  0  0
  147.7460  135.1960  159.5379 N   0  0  0  0  0  0  0  0  0  0  0  0
  148.5116  135.4375  158.4436 C   0  0  0  0  0  0  0  0  0  0  0  0
  149.0029  134.3991  157.7152 N   0  0  0  0  0  0  0  0  0  0  0  0
  149.7492  134.6273  156.6309 C   0  0  0  0  0  0  0  0  0  0  0  0
  150.1235  135.7955  156.1067 N   0  0  0  0  0  0  0  0  0  0  0  0
  149.6462  136.8420  156.8391 C   0  0  0  0  0  0  0  0  0  0  0  0
  148.8379  136.7532  158.0079 C   0  0  0  0  0  0  0  0  0  0  0  0
  148.5501  138.0284  158.4800 N   0  0  0  0  0  0  0  0  0  0  0  0
  149.1434  138.8240  157.6332 C   0  0  0  0  0  0  0  0  0  0  0  0
  149.8384  138.1960  156.6240 N   0  0  0  0  0  0  0  0  0  0  0  0
  150.5947  138.8355  155.5575 C   0  0  0  0  0  0  0  0  0  0  0  0
  151.8049  139.6805  156.0371 C   0  0  1  0  0  0  0  0  0  0  0  0
  152.7318  139.7372  154.9703 O   0  0  0  0  0  0  0  0  0  0  0  0
  151.4473  141.0989  156.4795 C   0  0  0  0  0  0  0  0  0  0  0  0
  151.3698  141.0249  158.0094 C   0  0  0  0  0  0  0  0  0  0  0  0
  151.7519  139.7018  158.3653 O   0  0  0  0  0  0  0  0  0  0  0  0
  152.4913  139.1379  157.2942 C   0  0  0  0  0  0  0  0  0  0  0  0
  147.8607  136.1060  160.6739 C   0  0  0  0  0  0  0  0  0  0  0  0
  146.7043  135.8751  161.6796 C   0  0  2  0  0  0  0  0  0  0  0  0
  145.3592  136.3756  161.1605 C   0  0  0  0  0  0  0  0  0  0  0  0
  145.3786  137.8554  161.5241 C   0  0  0  0  0  0  0  0  0  0  0  0
  146.1311  137.9401  162.7276 O   0  0  0  0  0  0  0  0  0  0  0  0
  146.8127  136.7118  162.9710 C   0  0  2  0  0  0  0  0  0  0  0  0
  148.2249  136.9717  163.5148 C   0  0  0  0  0  0  0  0  0  0  0  0
  146.6442  134.4889  162.0293 O   0  0  0  0  0  0  0  0  0  0  0  0
  146.3024  131.4492  160.6557 H   0  0  0  0  0  0  0  0  0  0  0  0
  145.5969  132.0494  162.1535 H   0  0  0  0  0  0  0  0  0  0  0  0
  147.3467  131.9117  161.9990 H   0  0  0  0  0  0  0  0  0  0  0  0
  145.5505  133.8096  160.4115 H   0  0  0  0  0  0  0  0  0  0  0  0
  148.6001  133.5090  160.4114 H   0  0  0  0  0  0  0  0  0  0  0  0
  147.5260  133.1412  159.0797 H   0  0  0  0  0  0  0  0  0  0  0  0
  150.0960  133.7478  156.1088 H   0  0  0  0  0  0  0  0  0  0  0  0
  149.0970  139.8990  157.7286 H   0  0  0  0  0  0  0  0  0  0  0  0
  150.9308  138.0593  154.8685 H   0  0  0  0  0  0  0  0  0  0  0  0
  149.9058  139.4633  154.9907 H   0  0  0  0  0  0  0  0  0  0  0  0
  152.7683  138.8868  154.5599 H   0  0  0  0  0  0  0  0  0  0  0  0
  152.2361  141.8015  156.2047 H   0  0  0  0  0  0  0  0  0  0  0  0
  150.5259  141.4656  156.0271 H   0  0  0  0  0  0  0  0  0  0  0  0
  152.0521  141.7422  158.4669 H   0  0  0  0  0  0  0  0  0  0  0  0
  150.3646  141.2307  158.3786 H   0  0  0  0  0  0  0  0  0  0  0  0
  152.5175  138.0494  157.3387 H   0  0  0  0  0  0  0  0  0  0  0  0
  153.5193  139.4985  157.3651 H   0  0  0  0  0  0  0  0  0  0  0  0
  148.8220  135.9191  161.1539 H   0  0  0  0  0  0  0  0  0  0  0  0
  147.8667  137.1421  160.3330 H   0  0  0  0  0  0  0  0  0  0  0  0
  145.2025  136.2060  160.0948 H   0  0  0  0  0  0  0  0  0  0  0  0
  144.5475  135.8835  161.6986 H   0  0  0  0  0  0  0  0  0  0  0  0
  145.8862  138.4340  160.7518 H   0  0  0  0  0  0  0  0  0  0  0  0
  144.3769  138.2664  161.6501 H   0  0  0  0  0  0  0  0  0  0  0  0
  146.2374  136.2057  163.7483 H   0  0  0  0  0  0  0  0  0  0  0  0
  148.7583  136.0360  163.6843 H   0  0  0  0  0  0  0  0  0  0  0  0
  148.1791  137.5036  164.4653 H   0  0  0  0  0  0  0  0  0  0  0  0
  148.8145  137.5809  162.8295 H   0  0  0  0  0  0  0  0  0  0  0  0
  1  2  1  0  0  0  0
  1 29  1  0  0  0  0
  1 30  1  0  0  0  0
  1 31  1  0  0  0  0
  2 28  1  0  0  0  0
  2  3  1  0  0  0  0
  2 32  1  0  0  0  0
  3  4  1  0  0  0  0
  3 33  1  0  0  0  0
  3 34  1  0  0  0  0
  4  5  1  0  0  0  0
  4 21  1  0  0  0  0
  5 10  1  0  0  0  0
  5  6  2  0  0  0  0
  6  7  1  0  0  0  0
  7  8  2  0  0  0  0
  7 35  1  0  0  0  0
  8  9  1  0  0  0  0
  9 13  1  0  0  0  0
  9 10  2  0  0  0  0
 10 11  1  0  0  0  0
 11 12  2  0  0  0  0
 12 13  1  0  0  0  0
 12 36  1  0  0  0  0
 13 14  1  0  0  0  0
 14 15  1  0  0  0  0
 14 37  1  0  0  0  0
 14 38  1  0  0  0  0
 15 20  1  0  0  0  0
 15 16  1  0  0  0  0
 15 17  1  0  0  0  0
 16 39  1  0  0  0  0
 17 18  1  0  0  0  0
 17 40  1  0  0  0  0
 17 41  1  0  0  0  0
 18 19  1  0  0  0  0
 18 42  1  0  0  0  0
 18 43  1  0  0  0  0
 19 20  1  0  0  0  0
 20 44  1  0  0  0  0
 20 45  1  0  0  0  0
 21 22  1  0  0  0  0
 21 46  1  0  0  0  0
 21 47  1  0  0  0  0
 22 26  1  0  0  0  0
 22 23  1  0  0  0  0
 22 28  1  0  0  0  0
 23 24  1  0  0  0  0
 23 48  1  0  0  0  0
 23 49  1  0  0  0  0
 24 25  1  0  0  0  0
 24 50  1  0  0  0  0
 24 51  1  0  0  0  0
 25 26  1  0  0  0  0
 26 27  1  0  0  0  0
 26 52  1  0  0  0  0
 27 53  1  0  0  0  0
 27 54  1  0  0  0  0
 27 55  1  0  0  0  0
M  END
> <s_m_source_file>
AV-unprocessed.smi

> <i_m_source_file_index>
281

> <i_lp_mmshare_version>
43012

> <i_f3d_flags>
0

> <s_epik_input>
W0NIM11bQ0BASF0xT1tDSDJdW0NIMl1bQ0BAXTEyW0NIMl1OKFtDSDJdW0NASF0oTzIpW0NIM10pYyhuW2NIXW4zKWMoYzM0KW5bY0hdbjRbQ0gyXVtDQEBdNShbT0hdKVtDSDJdW0NIMl1PW0NIMl01

> <s_epik_cmdline>
J2VwaWtfcHl0aG9uJywgJy1waCcsICc3LjAnLCAnLXRuJywgJzgnLCAnLW1hJywgJzIwMCcsICctbWV0YWxfYmluZGluZycsICctaW1hZScsICc8aW5maWxlLm1hZT4nLCAnLW9tYWUnLCAnPG91dGZpbGUubWFlPic=

> <r_lp_tautomer_probability>
1

> <r_epik_Ionization_Penalty>
0.00571331

> <r_epik_Ionization_Penalty_Charging>
0

> <r_epik_Ionization_Penalty_Neutral>
0.00571331

> <r_epik_State_Penalty>
0.00399586

> <r_epik_Charging_Adjusted_Penalty>
0.00399586

> <i_epik_Tot_Q>
0

> <i_epik_Tot_abs_Q>
0

> <r_epik_Metal_State_Penalty>
-0

> <b_epik_Metal_Only>
0

> <s_lp_Force_Field>
OPLS_2005

> <r_lp_Energy>
56.9386

> <b_lp_Chiralities_Consistent>
1

> <s_lp_Variant>
AV-unprocessed.smi:281-9

> <Gold.Version>
5.8.1

> <Gold.Id.Protein>
6NUR|6NUR_protein|mol2

> <Gold.PLP.Fitness>
39.4043

> <Gold.PLP.PLP>
-33.1898

> <Gold.PLP.part.hbond>
-4.0000

> <Gold.PLP.part.metal>
0.0000

> <Gold.PLP.part.buried>
-2.4557

> <Gold.PLP.part.nonpolar>
-26.8352

> <Gold.PLP.part.repulsive>
0.0222

> <Gold.PLP.ligand.clash>
0.0000

> <Gold.PLP.ligand.torsion>
0.8387

> <Gold.PLP.Chemscore.Hbond>
2.5280

> <Gold.PLP.Chemscore.CHOScore>
0.0000

> <Gold.PLP.Chemscore.Metal>
0.0000

> <Gold.Chemscore.Hbonds>
donor molecule, donor type, donor heavy atom, donor atom, acceptor molecule, acceptor atom, score
      P1  H  6896  6909       L1     6  0.07
      P1  H  7989  7998       L1    16  0.40
      P1  H  7997  8010       L1    16  1.00

> <Gold.PLP.Chemscore.Internal.Correction>
0.3078

> <Gold.Rescore>
     Score         DG    S(hbond)    S(metal)    S(lipo)     H(rot)  DE(clash)    DE(int)     intcor
     10.39     -13.68       0.83        0.00      92.01       2.09       0.47       2.81       ----

> <Gold.Chemscore.Fitness>
10.3920

> <Gold.Chemscore.DG>
-13.6757

> <Gold.Chemscore.ZeroCoef>
-5.4800

> <Gold.Chemscore.Hbond>
0.8348

> <Gold.Chemscore.Metal>
0.0000

> <Gold.Chemscore.Lipo>
92.0072

> <Gold.Chemscore.Internal_Hbond>
0.0000

> <Gold.Chemscore.DEClash>
0.4726

> <Gold.Chemscore.DEInternal>
2.8111

> <Gold.Chemscore.Rot>
2.0927

> <Gold.Chemscore.Internal.Correction>
   9.000000E+99

> <Gold.Chemscore.Hbonds>
donor molecule, donor type, donor heavy atom, donor atom, acceptor molecule, acceptor atom, score
      P1  H  7989  7998       L1    16  0.05
      P1  H  7997  8010       L1    16  0.31

> <Gold.Chemscore.Hbond.Weighted>
-2.7882

> <Gold.Chemscore.Metal.Weighted>
-0.0000

> <Gold.Chemscore.Lipo.Weighted>
-10.7648

> <Gold.Chemscore.Internal_Hbond.Weighted>
0.0000

> <Gold.Chemscore.DEClash.Weighted>
0.4726

> <Gold.Chemscore.DEInternal.Weighted>
2.8111

> <Gold.Chemscore.Rot.Weighted>
5.3573

> <Gold.Chemscore.Internal.Correction.Weighted>
   9.000000E+99

> <Gold.Protein.RotatedTorsions>
[ 6907 6896 6895 6894 ] final    6.37 input  -60.11 | X-H torsion
[ 7974 7965 7964 7962 ] final -117.17 input  175.53 | X-H torsion
[ 8008 7997 7996 7995 ] final  103.97 input   59.86 | X-H torsion
[ 10167 10162 10161 10158 ] final -129.67 input  -65.29 | X-H torsion
[ 10718 10713 10712 10709 ] final   47.17 input   66.30 | X-H torsion
[ 10763 10752 10751 10750 ] final   69.46 input  -60.55 | X-H torsion
[ 11005 11000 10999 10996 ] final  -41.42 input  -57.11 | X-H torsion

> <Gold.Protein.ActiveResidues>
 VAL166  LYS551  ARG553  GLY616  TRP617  ASP618  TYR619  PRO620  LYS621  CYS622 
 ASP623  PHE694  ASN695  SER759  ASP760  ASP761  ALA762  ILE779  LEU786  VAL792 
 PHE793  MET794  SER795  GLU796  ALA797  LYS798  CYS799  TRP800  GLU811  SER814 

> <Gold.Protein.RotatedAtoms>
  151.6726  135.0974  160.0200 H   0  0  0  0  0  0  0  0  0  0  0  0  # atno 6907 bound_to 6896
  152.3882  133.6637  159.6225 H   0  0  0  0  0  0  0  0  0  0  0  0  # atno 6908 bound_to 6896
  150.7803  133.8915  159.3356 H   0  0  0  0  0  0  0  0  0  0  0  0  # atno 6909 bound_to 6896
  145.0882  140.8472  143.3998 H   0  0  0  0  0  0  0  0  0  0  0  0  # atno 7974 bound_to 7965
  156.1531  140.3156  155.8681 H   0  0  0  0  0  0  0  0  0  0  0  0  # atno 8008 bound_to 7997
  155.3931  140.0495  157.3057 H   0  0  0  0  0  0  0  0  0  0  0  0  # atno 8009 bound_to 7997
  154.5077  140.2153  155.9230 H   0  0  0  0  0  0  0  0  0  0  0  0  # atno 8010 bound_to 7997
  139.9374  143.6202  152.2513 H   0  0  0  0  0  0  0  0  0  0  0  0  # atno 10167 bound_to 10162
  157.4558  130.8166  149.7835 H   0  0  0  0  0  0  0  0  0  0  0  0  # atno 10718 bound_to 10713
  153.0288  135.5210  154.7292 H   0  0  0  0  0  0  0  0  0  0  0  0  # atno 10763 bound_to 10752
  154.6325  135.2902  155.0202 H   0  0  0  0  0  0  0  0  0  0  0  0  # atno 10764 bound_to 10752
  154.1149  135.6616  153.4944 H   0  0  0  0  0  0  0  0  0  0  0  0  # atno 10765 bound_to 10752
  141.0244  133.6848  156.2455 H   0  0  0  0  0  0  0  0  0  0  0  0  # atno 11005 bound_to 11000
  145.1097  139.2766  143.5644 LP  0  0  0  0  0  0  0  0  0  0  0  0  # atno 17320 bound_to 7965
  146.3531  140.0688  142.8624 LP  0  0  0  0  0  0  0  0  0  0  0  0  # atno 17321 bound_to 7965
  139.6732  144.7660  151.1744 LP  0  0  0  0  0  0  0  0  0  0  0  0  # atno 17342 bound_to 10162
  140.7620  143.5833  150.8872 LP  0  0  0  0  0  0  0  0  0  0  0  0  # atno 17343 bound_to 10162
  156.0006  130.3882  150.2619 LP  0  0  0  0  0  0  0  0  0  0  0  0  # atno 17370 bound_to 10713
  157.0794  131.0139  151.3162 LP  0  0  0  0  0  0  0  0  0  0  0  0  # atno 17371 bound_to 10713
  140.6516  134.5061  157.5578 LP  0  0  0  0  0  0  0  0  0  0  0  0  # atno 17394 bound_to 11000
  139.9167  134.8233  156.1345 LP  0  0  0  0  0  0  0  0  0  0  0  0  # atno 17395 bound_to 11000

$$$$
