AV-unprocessed.smi:557|AV-procd|sdf|2914|dock9
  -GOLD-   2262023403D 1   1.00000     0.00000
 Structure written by MMmdl.
 47 49  0  0  0  0  0  0  0  0  2 V2000
  153.6633  137.9328  154.5351 C   0  0  0  0  0  0  0  0  0  0  0  0
  152.4394  138.6677  154.7729 N   0  0  0  0  0  0  0  0  0  0  0  0
  151.2033  138.4924  154.1892 C   0  0  0  0  0  0  0  0  0  0  0  0
  150.3592  139.4208  154.7304 C   0  0  0  0  0  0  0  0  0  0  0  0
  148.9053  139.6564  154.4316 C   0  0  0  0  0  0  0  0  0  0  0  0
  148.0152  138.6179  155.1260 C   0  0  0  0  0  0  0  0  0  0  0  0
  147.9508  137.3881  154.3413 N   0  0  0  0  0  0  0  0  0  0  0  0
  147.3733  136.2280  154.6962 C   0  0  0  0  0  0  0  0  0  0  0  0
  146.8042  136.0870  155.7766 O   0  0  0  0  0  0  0  0  0  0  0  0
  147.4640  135.2538  153.7744 N   0  0  0  0  0  0  0  0  0  0  0  0
  146.9273  133.9018  153.9177 C   0  0  2  0  0  0  0  0  0  0  0  0
  148.0258  132.8234  153.9820 C   0  0  0  0  0  0  0  0  0  0  0  0
  147.4793  131.6630  153.1442 C   0  0  0  0  0  0  0  0  0  0  0  0
  146.7025  132.3472  152.1042 N   0  3  1  0  0  0  0  0  0  0  0  0
  145.8163  131.5423  151.2391 C   0  0  0  0  0  0  0  0  0  0  0  0
  145.2660  132.4547  150.1218 C   0  0  0  0  0  0  0  0  0  0  0  0
  144.6178  133.7412  150.6824 C   0  0  0  0  0  0  0  0  0  0  0  0
  145.5465  134.4657  151.6810 C   0  0  0  0  0  0  0  0  0  0  0  0
  145.9999  133.4645  152.7586 C   0  0  2  0  0  0  0  0  0  0  0  0
  151.1876  140.1237  155.6513 C   0  0  0  0  0  0  0  0  0  0  0  0
  152.4309  139.6717  155.6735 N   0  0  0  0  0  0  0  0  0  0  0  0
  153.5257  137.2343  153.7090 H   0  0  0  0  0  0  0  0  0  0  0  0
  153.9376  137.3744  155.4304 H   0  0  0  0  0  0  0  0  0  0  0  0
  154.4678  138.6242  154.2827 H   0  0  0  0  0  0  0  0  0  0  0  0
  151.0275  137.7308  153.4437 H   0  0  0  0  0  0  0  0  0  0  0  0
  148.6087  140.6571  154.7486 H   0  0  0  0  0  0  0  0  0  0  0  0
  148.7281  139.6216  153.3559 H   0  0  0  0  0  0  0  0  0  0  0  0
  148.4101  138.3975  156.1194 H   0  0  0  0  0  0  0  0  0  0  0  0
  147.0081  139.0183  155.2558 H   0  0  0  0  0  0  0  0  0  0  0  0
  148.3902  137.4186  153.4324 H   0  0  0  0  0  0  0  0  0  0  0  0
  147.9517  135.4636  152.9153 H   0  0  0  0  0  0  0  0  0  0  0  0
  146.3571  133.8493  154.8475 H   0  0  0  0  0  0  0  0  0  0  0  0
  148.9462  133.1926  153.5265 H   0  0  0  0  0  0  0  0  0  0  0  0
  148.2625  132.5242  155.0037 H   0  0  0  0  0  0  0  0  0  0  0  0
  148.2674  131.0394  152.7217 H   0  0  0  0  0  0  0  0  0  0  0  0
  146.8199  131.0328  153.7432 H   0  0  0  0  0  0  0  0  0  0  0  0
  146.3771  130.7135  150.8060 H   0  0  0  0  0  0  0  0  0  0  0  0
  145.0041  131.1127  151.8276 H   0  0  0  0  0  0  0  0  0  0  0  0
  146.0821  132.7312  149.4527 H   0  0  0  0  0  0  0  0  0  0  0  0
  144.5450  131.9075  149.5142 H   0  0  0  0  0  0  0  0  0  0  0  0
  144.3496  134.4127  149.8660 H   0  0  0  0  0  0  0  0  0  0  0  0
  143.6847  133.4809  151.1836 H   0  0  0  0  0  0  0  0  0  0  0  0
  146.4095  134.8800  151.1581 H   0  0  0  0  0  0  0  0  0  0  0  0
  145.0156  135.3032  152.1340 H   0  0  0  0  0  0  0  0  0  0  0  0
  145.1029  133.0548  153.2285 H   0  0  0  0  0  0  0  0  0  0  0  0
  150.9230  140.9465  156.2991 H   0  0  0  0  0  0  0  0  0  0  0  0
  147.3881  132.7702  151.4948 H   0  0  0  0  0  0  0  0  0  0  0  0
  1  2  1  0  0  0  0
  1 22  1  0  0  0  0
  1 23  1  0  0  0  0
  1 24  1  0  0  0  0
  2 21  1  0  0  0  0
  2  3  1  0  0  0  0
  3  4  2  0  0  0  0
  3 25  1  0  0  0  0
  4  5  1  0  0  0  0
  4 20  1  0  0  0  0
  5  6  1  0  0  0  0
  5 26  1  0  0  0  0
  5 27  1  0  0  0  0
  6  7  1  0  0  0  0
  6 28  1  0  0  0  0
  6 29  1  0  0  0  0
  7  8  1  0  0  0  0
  7 30  1  0  0  0  0
  8  9  2  0  0  0  0
  8 10  1  0  0  0  0
 10 11  1  0  0  0  0
 10 31  1  0  0  0  0
 11 19  1  0  0  0  0
 11 12  1  0  0  0  0
 11 32  1  0  0  0  0
 12 13  1  0  0  0  0
 12 33  1  0  0  0  0
 12 34  1  0  0  0  0
 13 14  1  0  0  0  0
 13 35  1  0  0  0  0
 13 36  1  0  0  0  0
 14 19  1  0  0  0  0
 14 15  1  0  0  0  0
 14 47  1  0  0  0  0
 15 16  1  0  0  0  0
 15 37  1  0  0  0  0
 15 38  1  0  0  0  0
 16 17  1  0  0  0  0
 16 39  1  0  0  0  0
 16 40  1  0  0  0  0
 17 18  1  0  0  0  0
 17 41  1  0  0  0  0
 17 42  1  0  0  0  0
 18 19  1  0  0  0  0
 18 43  1  0  0  0  0
 18 44  1  0  0  0  0
 19 45  1  0  0  0  0
 20 21  2  0  0  0  0
 20 46  1  0  0  0  0
M  CHG  1  14   1
M  END
> <s_m_source_file>
AV-unprocessed.smi

> <i_m_source_file_index>
557

> <i_lp_mmshare_version>
43012

> <i_f3d_flags>
0

> <s_epik_input>
W0NIM11uMVtjSF1jKFtjSF1uMSlbQ0gyXVtDSDJdW05IXUMoPU8pW05IXVtDQEhdKFtDSDJdW0NIMl0yKVtDQEhdKE4yMylbQ0gyXVtDSDJdW0NIMl1bQ0gyXTM=

> <s_epik_cmdline>
J2VwaWtfcHl0aG9uJywgJy1waCcsICc3LjAnLCAnLXRuJywgJzgnLCAnLW1hJywgJzIwMCcsICctbWV0YWxfYmluZGluZycsICctaW1hZScsICc8aW5maWxlLm1hZT4nLCAnLW9tYWUnLCAnPG91dGZpbGUubWFlPic=

> <r_lp_tautomer_probability>
1

> <r_epik_Ionization_Penalty>
0.000956547

> <r_epik_Ionization_Penalty_Charging>
0.000435796

> <r_epik_Ionization_Penalty_Neutral>
0.000520752

> <r_epik_State_Penalty>
-0

> <r_epik_Charging_Adjusted_Penalty>
0.000435796

> <i_epik_Tot_Q>
1

> <i_epik_Tot_abs_Q>
1

> <r_epik_Metal_State_Penalty>
-0

> <b_epik_Metal_Only>
0

> <s_lp_Force_Field>
OPLS_2005

> <r_lp_Energy>
46.5188

> <b_lp_Chiralities_Consistent>
1

> <s_lp_Variant>
AV-unprocessed.smi:557-1

> <Gold.Version>
5.8.1

> <Gold.Id.Protein>
6NUR|6NUR_protein|mol2

> <Gold.PLP.Fitness>
43.6117

> <Gold.PLP.PLP>
-33.2805

> <Gold.PLP.part.hbond>
-3.5770

> <Gold.PLP.part.metal>
0.0000

> <Gold.PLP.part.buried>
-0.4104

> <Gold.PLP.part.nonpolar>
-29.2341

> <Gold.PLP.part.repulsive>
0.0289

> <Gold.PLP.ligand.clash>
0.0000

> <Gold.PLP.ligand.torsion>
0.4220

> <Gold.PLP.Chemscore.Hbond>
2.8480

> <Gold.PLP.Chemscore.CHOScore>
0.8752

> <Gold.PLP.Chemscore.Metal>
0.0000

> <Gold.Chemscore.Hbonds>
donor molecule, donor type, donor heavy atom, donor atom, acceptor molecule, acceptor atom, score
      L1  H     7    30       P1  7948  0.84
      L1  H    10    31       P1  7948  1.00
      P1  H  7997  8008       L1    21  0.96
      L1  C     3    25       P1  7949  0.78

> <Gold.PLP.Chemscore.Internal.Correction>
0.0054

> <Gold.Rescore>
     Score         DG    S(hbond)    S(metal)    S(lipo)     H(rot)  DE(clash)    DE(int)     intcor
     19.06     -21.31       2.86        0.00      88.67       1.60       1.91       0.34       ----

> <Gold.Chemscore.Fitness>
19.0585

> <Gold.Chemscore.DG>
-21.3112

> <Gold.Chemscore.ZeroCoef>
-5.4800

> <Gold.Chemscore.Hbond>
2.8616

> <Gold.Chemscore.Metal>
0.0000

> <Gold.Chemscore.Lipo>
88.6662

> <Gold.Chemscore.Internal_Hbond>
0.0000

> <Gold.Chemscore.DEClash>
1.9123

> <Gold.Chemscore.DEInternal>
0.3403

> <Gold.Chemscore.Rot>
1.6018

> <Gold.Chemscore.Internal.Correction>
   9.000000E+99

> <Gold.Chemscore.Hbonds>
donor molecule, donor type, donor heavy atom, donor atom, acceptor molecule, acceptor atom, score
      L1  H     7    30       P1  7948  0.78
      L1  H    10    31       P1  7948  0.99
      P1  H  7997  8008       L1    21  0.54

> <Gold.Chemscore.Hbond.Weighted>
-9.5579

> <Gold.Chemscore.Metal.Weighted>
-0.0000

> <Gold.Chemscore.Lipo.Weighted>
-10.3739

> <Gold.Chemscore.Internal_Hbond.Weighted>
0.0000

> <Gold.Chemscore.DEClash.Weighted>
1.9123

> <Gold.Chemscore.DEInternal.Weighted>
0.3403

> <Gold.Chemscore.Rot.Weighted>
4.1006

> <Gold.Chemscore.Internal.Correction.Weighted>
   9.000000E+99

> <Gold.Protein.RotatedTorsions>
[ 6907 6896 6895 6894 ] final  154.73 input  -60.11 | X-H torsion
[ 7974 7965 7964 7962 ] final  133.07 input  175.53 | X-H torsion
[ 8008 7997 7996 7995 ] final  -25.50 input   59.86 | X-H torsion
[ 10167 10162 10161 10158 ] final  156.95 input  -65.29 | X-H torsion
[ 10718 10713 10712 10709 ] final   71.17 input   66.30 | X-H torsion
[ 10763 10752 10751 10750 ] final  -82.71 input  -60.55 | X-H torsion
[ 11005 11000 10999 10996 ] final  -34.02 input  -57.11 | X-H torsion

> <Gold.Protein.ActiveResidues>
 VAL166  LYS551  ARG553  GLY616  TRP617  ASP618  TYR619  PRO620  LYS621  CYS622 
 ASP623  PHE694  ASN695  SER759  ASP760  ASP761  ALA762  ILE779  LEU786  VAL792 
 PHE793  MET794  SER795  GLU796  ALA797  LYS798  CYS799  TRP800  GLU811  SER814 

> <Gold.Protein.RotatedAtoms>
  152.0543  133.4033  159.4390 H   0  0  0  0  0  0  0  0  0  0  0  0  # atno 6907 bound_to 6896
  150.6869  134.3272  159.4821 H   0  0  0  0  0  0  0  0  0  0  0  0  # atno 6908 bound_to 6896
  152.1086  134.9290  160.0618 H   0  0  0  0  0  0  0  0  0  0  0  0  # atno 6909 bound_to 6896
  144.9903  139.4413  143.5342 H   0  0  0  0  0  0  0  0  0  0  0  0  # atno 7974 bound_to 7965
  154.4472  140.1925  156.0629 H   0  0  0  0  0  0  0  0  0  0  0  0  # atno 8008 bound_to 7997
  156.0569  140.3301  155.7389 H   0  0  0  0  0  0  0  0  0  0  0  0  # atno 8009 bound_to 7997
  155.5472  140.0591  157.2848 H   0  0  0  0  0  0  0  0  0  0  0  0  # atno 8010 bound_to 7997
  139.4822  144.4962  151.8236 H   0  0  0  0  0  0  0  0  0  0  0  0  # atno 10167 bound_to 10162
  157.6438  130.9515  150.0752 H   0  0  0  0  0  0  0  0  0  0  0  0  # atno 10718 bound_to 10713
  154.5790  135.5581  153.7167 H   0  0  0  0  0  0  0  0  0  0  0  0  # atno 10763 bound_to 10752
  153.0075  135.6315  154.2008 H   0  0  0  0  0  0  0  0  0  0  0  0  # atno 10764 bound_to 10752
  154.1949  135.2880  155.2990 H   0  0  0  0  0  0  0  0  0  0  0  0  # atno 10765 bound_to 10752
  140.9682  133.7124  156.1480 H   0  0  0  0  0  0  0  0  0  0  0  0  # atno 11005 bound_to 11000
  146.3430  139.9230  142.8764 LP  0  0  0  0  0  0  0  0  0  0  0  0  # atno 17320 bound_to 7965
  145.2295  140.9967  143.3999 LP  0  0  0  0  0  0  0  0  0  0  0  0  # atno 17321 bound_to 7965
  140.4451  144.1933  150.5893 LP  0  0  0  0  0  0  0  0  0  0  0  0  # atno 17342 bound_to 10162
  140.4643  143.2437  151.9176 LP  0  0  0  0  0  0  0  0  0  0  0  0  # atno 17343 bound_to 10162
  156.1745  130.3647  149.9120 LP  0  0  0  0  0  0  0  0  0  0  0  0  # atno 17370 bound_to 10713
  156.7087  130.8961  151.3607 LP  0  0  0  0  0  0  0  0  0  0  0  0  # atno 17371 bound_to 10713
  140.7367  134.4195  157.5559 LP  0  0  0  0  0  0  0  0  0  0  0  0  # atno 17394 bound_to 11000
  139.8902  134.8810  156.2380 LP  0  0  0  0  0  0  0  0  0  0  0  0  # atno 17395 bound_to 11000

$$$$
