AV-unprocessed.smi:248|AV-procd|sdf|1896|dock9
  -GOLD-   2262020563D 1   1.00000     0.00000
 Structure written by MMmdl.
 62 65  0  0  0  0  0  0  0  0  1 V2000
  152.3158  145.0181  159.5593 C   0  0  0  0  0  0  0  0  0  0  0  0
  152.1003  143.4986  159.4933 C   0  0  0  0  0  0  0  0  0  0  0  0
  153.0875  142.7794  160.4286 C   0  0  0  0  0  0  0  0  0  0  0  0
  152.1636  143.0075  158.0270 C   0  0  0  0  0  0  0  0  0  0  0  0
  151.5201  141.7012  157.8214 N   0  0  0  0  0  0  0  0  0  0  0  0
  150.2361  141.7645  157.1131 C   0  0  0  0  0  0  0  0  0  0  0  0
  149.3610  140.5347  157.3702 C   0  0  0  0  0  0  0  0  0  0  0  0
  150.1440  139.3312  157.1371 N   0  0  0  0  0  0  0  0  0  0  0  0
  149.3701  138.2249  157.0562 C   0  0  0  0  0  0  0  0  0  0  0  0
  149.2845  137.5392  155.8864 N   0  0  0  0  0  0  0  0  0  0  0  0
  148.5283  136.4398  155.8144 C   0  0  0  0  0  0  0  0  0  0  0  0
  147.7929  135.8681  156.7707 N   0  0  0  0  0  0  0  0  0  0  0  0
  147.8745  136.5598  157.9436 C   0  0  0  0  0  0  0  0  0  0  0  0
  148.6407  137.7366  158.1709 C   0  0  0  0  0  0  0  0  0  0  0  0
  148.4957  138.1565  159.4858 N   0  0  0  0  0  0  0  0  0  0  0  0
  147.6895  137.2738  160.0097 C   0  0  0  0  0  0  0  0  0  0  0  0
  147.2519  136.2884  159.1510 N   0  0  0  0  0  0  0  0  0  0  0  0
  146.3594  135.1832  159.4766 C   0  0  0  0  0  0  0  0  0  0  0  0
  146.9405  134.1224  160.4655 C   0  0  0  0  0  0  0  0  0  0  0  0
  147.9785  133.2469  159.7080 C   0  0  0  0  0  0  0  0  0  0  0  0
  149.0047  133.9968  159.0877 O   0  0  0  0  0  0  0  0  0  0  0  0
  147.6129  134.7885  161.6941 C   0  0  0  0  0  0  0  0  0  0  0  0
  146.5936  135.4586  162.6345 C   0  0  0  0  0  0  0  0  0  0  0  0
  145.6215  134.5090  163.0535 O   0  0  0  0  0  0  0  0  0  0  0  0
  144.8588  133.9856  161.9735 C   0  0  0  0  0  0  0  0  0  0  0  0
  145.7803  133.2373  160.9925 C   0  0  0  0  0  0  0  0  0  0  0  0
  151.3736  139.1939  157.9299 C   0  0  1  0  0  0  0  0  0  0  0  0
  152.3072  138.1407  157.2916 C   0  0  0  0  0  0  0  0  0  0  0  0
  152.1161  140.5322  158.1688 C   0  0  0  0  0  0  0  0  0  0  0  0
  153.2247  140.4968  158.7053 O   0  0  0  0  0  0  0  0  0  0  0  0
  153.3073  145.2931  159.1987 H   0  0  0  0  0  0  0  0  0  0  0  0
  152.2197  145.3863  160.5811 H   0  0  0  0  0  0  0  0  0  0  0  0
  151.5818  145.5470  158.9509 H   0  0  0  0  0  0  0  0  0  0  0  0
  151.0958  143.3024  159.8700 H   0  0  0  0  0  0  0  0  0  0  0  0
  154.1141  142.8835  160.0763 H   0  0  0  0  0  0  0  0  0  0  0  0
  152.8647  141.7154  160.5061 H   0  0  0  0  0  0  0  0  0  0  0  0
  153.0399  143.1887  161.4380 H   0  0  0  0  0  0  0  0  0  0  0  0
  151.6752  143.7389  157.3810 H   0  0  0  0  0  0  0  0  0  0  0  0
  153.2008  142.9873  157.6882 H   0  0  0  0  0  0  0  0  0  0  0  0
  149.6874  142.6635  157.3961 H   0  0  0  0  0  0  0  0  0  0  0  0
  150.4437  141.8490  156.0454 H   0  0  0  0  0  0  0  0  0  0  0  0
  148.9974  140.5438  158.3994 H   0  0  0  0  0  0  0  0  0  0  0  0
  148.4857  140.5614  156.7186 H   0  0  0  0  0  0  0  0  0  0  0  0
  148.5103  135.9465  154.8535 H   0  0  0  0  0  0  0  0  0  0  0  0
  147.3837  137.3217  161.0447 H   0  0  0  0  0  0  0  0  0  0  0  0
  145.4313  135.6122  159.8514 H   0  0  0  0  0  0  0  0  0  0  0  0
  146.0908  134.6957  158.5382 H   0  0  0  0  0  0  0  0  0  0  0  0
  148.4462  132.5367  160.3908 H   0  0  0  0  0  0  0  0  0  0  0  0
  147.4951  132.6632  158.9247 H   0  0  0  0  0  0  0  0  0  0  0  0
  148.8588  133.9923  158.1542 H   0  0  0  0  0  0  0  0  0  0  0  0
  148.1459  134.0361  162.2764 H   0  0  0  0  0  0  0  0  0  0  0  0
  148.3714  135.5067  161.3847 H   0  0  0  0  0  0  0  0  0  0  0  0
  147.1033  135.8451  163.5169 H   0  0  0  0  0  0  0  0  0  0  0  0
  146.1039  136.3098  162.1619 H   0  0  0  0  0  0  0  0  0  0  0  0
  144.1153  133.2980  162.3770 H   0  0  0  0  0  0  0  0  0  0  0  0
  144.3040  134.7843  161.4807 H   0  0  0  0  0  0  0  0  0  0  0  0
  145.1962  132.8392  160.1622 H   0  0  0  0  0  0  0  0  0  0  0  0
  146.1755  132.3701  161.5218 H   0  0  0  0  0  0  0  0  0  0  0  0
  151.0995  138.8405  158.9252 H   0  0  0  0  0  0  0  0  0  0  0  0
  153.2341  138.0260  157.8544 H   0  0  0  0  0  0  0  0  0  0  0  0
  152.5714  138.4162  156.2699 H   0  0  0  0  0  0  0  0  0  0  0  0
  151.8416  137.1554  157.2586 H   0  0  0  0  0  0  0  0  0  0  0  0
  1  2  1  0  0  0  0
  1 31  1  0  0  0  0
  1 32  1  0  0  0  0
  1 33  1  0  0  0  0
  2  3  1  0  0  0  0
  2  4  1  0  0  0  0
  2 34  1  0  0  0  0
  3 35  1  0  0  0  0
  3 36  1  0  0  0  0
  3 37  1  0  0  0  0
  4  5  1  0  0  0  0
  4 38  1  0  0  0  0
  4 39  1  0  0  0  0
  5 29  1  0  0  0  0
  5  6  1  0  0  0  0
  6  7  1  0  0  0  0
  6 40  1  0  0  0  0
  6 41  1  0  0  0  0
  7  8  1  0  0  0  0
  7 42  1  0  0  0  0
  7 43  1  0  0  0  0
  8  9  1  0  0  0  0
  8 27  1  0  0  0  0
  9 14  1  0  0  0  0
  9 10  2  0  0  0  0
 10 11  1  0  0  0  0
 11 12  2  0  0  0  0
 11 44  1  0  0  0  0
 12 13  1  0  0  0  0
 13 17  1  0  0  0  0
 13 14  2  0  0  0  0
 14 15  1  0  0  0  0
 15 16  2  0  0  0  0
 16 17  1  0  0  0  0
 16 45  1  0  0  0  0
 17 18  1  0  0  0  0
 18 19  1  0  0  0  0
 18 46  1  0  0  0  0
 18 47  1  0  0  0  0
 19 26  1  0  0  0  0
 19 20  1  0  0  0  0
 19 22  1  0  0  0  0
 20 21  1  0  0  0  0
 20 48  1  0  0  0  0
 20 49  1  0  0  0  0
 21 50  1  0  0  0  0
 22 23  1  0  0  0  0
 22 51  1  0  0  0  0
 22 52  1  0  0  0  0
 23 24  1  0  0  0  0
 23 53  1  0  0  0  0
 23 54  1  0  0  0  0
 24 25  1  0  0  0  0
 25 26  1  0  0  0  0
 25 55  1  0  0  0  0
 25 56  1  0  0  0  0
 26 57  1  0  0  0  0
 26 58  1  0  0  0  0
 27 28  1  0  0  0  0
 27 29  1  0  0  0  0
 27 59  1  0  0  0  0
 28 60  1  0  0  0  0
 28 61  1  0  0  0  0
 28 62  1  0  0  0  0
 29 30  2  0  0  0  0
M  END
> <s_m_source_file>
AV-unprocessed.smi

> <i_m_source_file_index>
248

> <i_lp_mmshare_version>
43012

> <i_f3d_flags>
0

> <s_epik_input>
W0NIM11bQ0hdKFtDSDNdKVtDSDJdTjFbQ0gyXVtDSDJdTihbQ0BASF0oW0NIM10pQzE9TyljKG5bY0hdbjIpYyhjMjMpbltjSF1uM1tDSDJdQzQoW0NIMl1bT0hdKVtDSDJdW0NIMl1PW0NIMl1bQ0gyXTQ=

> <s_epik_cmdline>
J2VwaWtfcHl0aG9uJywgJy1waCcsICc3LjAnLCAnLXRuJywgJzgnLCAnLW1hJywgJzIwMCcsICctbWV0YWxfYmluZGluZycsICctaW1hZScsICc8aW5maWxlLm1hZT4nLCAnLW9tYWUnLCAnPG91dGZpbGUubWFlPic=

> <r_lp_tautomer_probability>
1

> <r_epik_Ionization_Penalty>
0.000593973

> <r_epik_Ionization_Penalty_Charging>
0

> <r_epik_Ionization_Penalty_Neutral>
0.000593973

> <r_epik_State_Penalty>
0.000283267

> <r_epik_Charging_Adjusted_Penalty>
0.000283267

> <i_epik_Tot_Q>
0

> <i_epik_Tot_abs_Q>
0

> <r_epik_Metal_State_Penalty>
-0

> <b_epik_Metal_Only>
0

> <s_lp_Force_Field>
OPLS_2005

> <r_lp_Energy>
46.1111

> <b_lp_Chiralities_Consistent>
1

> <s_lp_Variant>
AV-unprocessed.smi:248-1

> <Gold.Version>
5.8.1

> <Gold.Id.Protein>
6NUR|6NUR_protein|mol2

> <Gold.PLP.Fitness>
45.3144

> <Gold.PLP.PLP>
-37.9331

> <Gold.PLP.part.hbond>
-3.4646

> <Gold.PLP.part.metal>
0.0000

> <Gold.PLP.part.buried>
-5.2851

> <Gold.PLP.part.nonpolar>
-27.3726

> <Gold.PLP.part.repulsive>
0.1161

> <Gold.PLP.ligand.clash>
0.0000

> <Gold.PLP.ligand.torsion>
0.7298

> <Gold.PLP.Chemscore.Hbond>
1.8480

> <Gold.PLP.Chemscore.CHOScore>
0.9634

> <Gold.PLP.Chemscore.Metal>
0.0000

> <Gold.Chemscore.Hbonds>
donor molecule, donor type, donor heavy atom, donor atom, acceptor molecule, acceptor atom, score
      P1  H  6896  6909       L1    21  0.58
      P1  H  7997  8008       L1    30  0.48

> <Gold.PLP.Chemscore.Internal.Correction>
0.4068

> <Gold.Rescore>
     Score         DG    S(hbond)    S(metal)    S(lipo)     H(rot)  DE(clash)    DE(int)     intcor
     11.31     -16.11       1.71        0.00     102.28       2.75       1.56       3.24       ----

> <Gold.Chemscore.Fitness>
11.3135

> <Gold.Chemscore.DG>
-16.1119

> <Gold.Chemscore.ZeroCoef>
-5.4800

> <Gold.Chemscore.Hbond>
1.7100

> <Gold.Chemscore.Metal>
0.0000

> <Gold.Chemscore.Lipo>
102.2769

> <Gold.Chemscore.Internal_Hbond>
0.0000

> <Gold.Chemscore.DEClash>
1.5588

> <Gold.Chemscore.DEInternal>
3.2397

> <Gold.Chemscore.Rot>
2.7523

> <Gold.Chemscore.Internal.Correction>
   9.000000E+99

> <Gold.Chemscore.Hbonds>
donor molecule, donor type, donor heavy atom, donor atom, acceptor molecule, acceptor atom, score
      P1  H  6896  6909       L1    21  0.29
      P1  H  7997  8008       L1    30  0.26

> <Gold.Chemscore.Hbond.Weighted>
-5.7114

> <Gold.Chemscore.Metal.Weighted>
-0.0000

> <Gold.Chemscore.Lipo.Weighted>
-11.9664

> <Gold.Chemscore.Internal_Hbond.Weighted>
0.0000

> <Gold.Chemscore.DEClash.Weighted>
1.5588

> <Gold.Chemscore.DEInternal.Weighted>
3.2397

> <Gold.Chemscore.Rot.Weighted>
7.0459

> <Gold.Chemscore.Internal.Correction.Weighted>
   9.000000E+99

> <Gold.Protein.RotatedTorsions>
[ 6907 6896 6895 6894 ] final   -7.91 input  -60.11 | X-H torsion
[ 7974 7965 7964 7962 ] final -124.62 input  175.53 | X-H torsion
[ 8008 7997 7996 7995 ] final  -91.36 input   59.86 | X-H torsion
[ 10167 10162 10161 10158 ] final -152.72 input  -65.29 | X-H torsion
[ 10718 10713 10712 10709 ] final   16.37 input   66.30 | X-H torsion
[ 10763 10752 10751 10750 ] final  151.39 input  -60.55 | X-H torsion
[ 11005 11000 10999 10996 ] final   -0.90 input  -57.11 | X-H torsion

> <Gold.Protein.ActiveResidues>
 VAL166  LYS551  ARG553  GLY616  TRP617  ASP618  TYR619  PRO620  LYS621  CYS622 
 ASP623  PHE694  ASN695  SER759  ASP760  ASP761  ALA762  ILE779  LEU786  VAL792 
 PHE793  MET794  SER795  GLU796  ALA797  LYS798  CYS799  TRP800  GLU811  SER814 

> <Gold.Protein.RotatedAtoms>
  151.4421  135.1021  159.9672 H   0  0  0  0  0  0  0  0  0  0  0  0  # atno 6907 bound_to 6896
  152.4919  133.8519  159.7216 H   0  0  0  0  0  0  0  0  0  0  0  0  # atno 6908 bound_to 6896
  150.9081  133.6973  159.2889 H   0  0  0  0  0  0  0  0  0  0  0  0  # atno 6909 bound_to 6896
  145.0062  140.7865  143.4466 H   0  0  0  0  0  0  0  0  0  0  0  0  # atno 7974 bound_to 7965
  154.7098  140.0520  157.0539 H   0  0  0  0  0  0  0  0  0  0  0  0  # atno 8008 bound_to 7997
  155.0571  140.3185  155.4654 H   0  0  0  0  0  0  0  0  0  0  0  0  # atno 8009 bound_to 7997
  156.2786  140.2105  156.5697 H   0  0  0  0  0  0  0  0  0  0  0  0  # atno 8010 bound_to 7997
  139.7158  143.9036  152.2485 H   0  0  0  0  0  0  0  0  0  0  0  0  # atno 10167 bound_to 10162
  157.0669  130.6332  149.5797 H   0  0  0  0  0  0  0  0  0  0  0  0  # atno 10718 bound_to 10713
  154.1030  135.2844  155.3247 H   0  0  0  0  0  0  0  0  0  0  0  0  # atno 10763 bound_to 10752
  154.6542  135.5358  153.7942 H   0  0  0  0  0  0  0  0  0  0  0  0  # atno 10764 bound_to 10752
  153.0372  135.6517  154.1193 H   0  0  0  0  0  0  0  0  0  0  0  0  # atno 10765 bound_to 10752
  140.6414  133.9486  155.8328 H   0  0  0  0  0  0  0  0  0  0  0  0  # atno 11005 bound_to 11000
  145.2086  139.2216  143.5155 LP  0  0  0  0  0  0  0  0  0  0  0  0  # atno 17320 bound_to 7965
  146.3461  140.1919  142.8589 LP  0  0  0  0  0  0  0  0  0  0  0  0  # atno 17321 bound_to 7965
  139.8918  144.6961  150.8762 LP  0  0  0  0  0  0  0  0  0  0  0  0  # atno 17342 bound_to 10162
  140.7743  143.3580  151.1883 LP  0  0  0  0  0  0  0  0  0  0  0  0  # atno 17343 bound_to 10162
  155.9962  130.5030  150.7486 LP  0  0  0  0  0  0  0  0  0  0  0  0  # atno 17370 bound_to 10713
  157.4909  131.0911  151.0428 LP  0  0  0  0  0  0  0  0  0  0  0  0  # atno 17371 bound_to 10713
  141.0604  134.0355  157.3666 LP  0  0  0  0  0  0  0  0  0  0  0  0  # atno 17394 bound_to 11000
  139.9079  135.0184  156.7565 LP  0  0  0  0  0  0  0  0  0  0  0  0  # atno 17395 bound_to 11000

$$$$
