AV-unprocessed.smi:1880|AV-procd|sdf|7636|dock9
  -GOLD-   22720 9363D 1   1.00000     0.00000
 Structure written by MMmdl.
 36 38  0  0  0  0  0  0  0  0  1 V2000
  150.3622  139.7466  154.0396 O   0  0  0  0  0  0  0  0  0  0  0  0
  149.4519  140.5463  154.7693 C   0  0  1  0  0  0  0  0  0  0  0  0
  150.2549  141.5581  155.6012 C   0  0  0  0  0  0  0  0  0  0  0  0
  150.8214  140.8924  156.7178 O   0  0  0  0  0  0  0  0  0  0  0  0
  150.3227  141.3766  157.9527 C   0  0  0  0  0  0  0  0  0  0  0  0
  151.0115  142.6731  158.2113 C   0  0  0  0  0  0  0  0  0  0  0  0
  151.8456  143.1145  159.2011 C   0  0  0  0  0  0  0  0  0  0  0  0
  152.1715  144.4612  158.8799 C   0  0  0  0  0  0  0  0  0  0  0  0
  151.5116  144.7409  157.7172 C   0  0  0  0  0  0  0  0  0  0  0  0
  150.7994  143.6603  157.2957 O   0  0  0  0  0  0  0  0  0  0  0  0
  148.4935  141.2439  153.7846 C   0  0  0  0  0  0  0  0  0  0  0  0
  147.3352  141.8182  154.4464 N   0  0  0  0  0  0  0  0  0  0  0  0
  146.8746  141.5173  155.6757 C   0  0  0  0  0  0  0  0  0  0  0  0
  145.7914  142.1641  156.0962 N   0  0  0  0  0  0  0  0  0  0  0  0
  145.5152  142.9804  155.0127 C   0  0  0  0  0  0  0  0  0  0  0  0
  144.4821  143.9243  154.8157 C   0  0  0  0  0  0  0  0  0  0  0  0
  144.3978  144.6508  153.6096 C   0  0  0  0  0  0  0  0  0  0  0  0
  143.4015  145.5517  153.4372 F   0  0  0  0  0  0  0  0  0  0  0  0
  145.3440  144.4446  152.5837 C   0  0  0  0  0  0  0  0  0  0  0  0
  145.2554  145.1459  151.4289 F   0  0  0  0  0  0  0  0  0  0  0  0
  146.3828  143.5100  152.7577 C   0  0  0  0  0  0  0  0  0  0  0  0
  146.4632  142.7879  153.9628 C   0  0  0  0  0  0  0  0  0  0  0  0
  150.0167  139.6218  153.1686 H   0  0  0  0  0  0  0  0  0  0  0  0
  148.8715  139.9050  155.4344 H   0  0  0  0  0  0  0  0  0  0  0  0
  151.0207  142.0479  154.9968 H   0  0  0  0  0  0  0  0  0  0  0  0
  149.5885  142.3387  155.9719 H   0  0  0  0  0  0  0  0  0  0  0  0
  149.2426  141.5221  157.9022 H   0  0  0  0  0  0  0  0  0  0  0  0
  150.5316  140.6702  158.7573 H   0  0  0  0  0  0  0  0  0  0  0  0
  152.1806  142.5383  160.0507 H   0  0  0  0  0  0  0  0  0  0  0  0
  152.8083  145.1389  159.4293 H   0  0  0  0  0  0  0  0  0  0  0  0
  151.4425  145.6142  157.0855 H   0  0  0  0  0  0  0  0  0  0  0  0
  149.0131  142.0458  153.2585 H   0  0  0  0  0  0  0  0  0  0  0  0
  148.1507  140.5439  153.0214 H   0  0  0  0  0  0  0  0  0  0  0  0
  147.3628  140.7804  156.2968 H   0  0  0  0  0  0  0  0  0  0  0  0
  143.7520  144.0901  155.5939 H   0  0  0  0  0  0  0  0  0  0  0  0
  147.1070  143.3480  151.9734 H   0  0  0  0  0  0  0  0  0  0  0  0
  1  2  1  0  0  0  0
  1 23  1  0  0  0  0
  2  3  1  0  0  0  0
  2 11  1  0  0  0  0
  2 24  1  0  0  0  0
  3  4  1  0  0  0  0
  3 25  1  0  0  0  0
  3 26  1  0  0  0  0
  4  5  1  0  0  0  0
  5  6  1  0  0  0  0
  5 27  1  0  0  0  0
  5 28  1  0  0  0  0
  6 10  1  0  0  0  0
  6  7  2  0  0  0  0
  7  8  1  0  0  0  0
  7 29  1  0  0  0  0
  8  9  2  0  0  0  0
  8 30  1  0  0  0  0
  9 10  1  0  0  0  0
  9 31  1  0  0  0  0
 11 12  1  0  0  0  0
 11 32  1  0  0  0  0
 11 33  1  0  0  0  0
 12 22  1  0  0  0  0
 12 13  1  0  0  0  0
 13 14  2  0  0  0  0
 13 34  1  0  0  0  0
 14 15  1  0  0  0  0
 15 22  2  0  0  0  0
 15 16  1  0  0  0  0
 16 17  2  0  0  0  0
 16 35  1  0  0  0  0
 17 18  1  0  0  0  0
 17 19  1  0  0  0  0
 19 20  1  0  0  0  0
 19 21  2  0  0  0  0
 21 22  1  0  0  0  0
 21 36  1  0  0  0  0
M  END
> <s_m_source_file>
AV-unprocessed.smi

> <i_m_source_file_index>
1880

> <i_lp_mmshare_version>
43012

> <i_f3d_flags>
0

> <s_epik_input>
W2NIXTFjKEYpYyhGKVtjSF1jKGMxMiluKFtjSF1uMilbQ0gyXVtDQEhdKFtPSF0pW0NIMl1PW0NIMl1jM1tjSF1bY0hdW2NIXW8z

> <s_epik_cmdline>
J2VwaWtfcHl0aG9uJywgJy1waCcsICc3LjAnLCAnLXRuJywgJzgnLCAnLW1hJywgJzIwMCcsICctbWV0YWxfYmluZGluZycsICctaW1hZScsICc8aW5maWxlLm1hZT4nLCAnLW9tYWUnLCAnPG91dGZpbGUubWFlPic=

> <r_epik_Ionization_Penalty>
0.0152348

> <r_epik_Ionization_Penalty_Charging>
0

> <r_epik_Ionization_Penalty_Neutral>
0.0152348

> <r_epik_State_Penalty>
0.0119607

> <r_epik_Charging_Adjusted_Penalty>
0.0119607

> <i_epik_Tot_Q>
0

> <i_epik_Tot_abs_Q>
0

> <r_epik_Metal_State_Penalty>
1.20821e-05

> <b_epik_Metal_Only>
0

> <s_lp_Force_Field>
OPLS_2005

> <r_lp_Energy>
7.94545

> <b_lp_Chiralities_Consistent>
1

> <s_lp_Variant>
AV-unprocessed.smi:1880-2

> <Gold.Version>
5.8.1

> <Gold.Id.Protein>
6NUR|6NUR_protein|mol2

> <Gold.PLP.Fitness>
53.2132

> <Gold.PLP.PLP>
-48.9998

> <Gold.PLP.part.hbond>
-2.0000

> <Gold.PLP.part.metal>
0.0000

> <Gold.PLP.part.buried>
-5.0893

> <Gold.PLP.part.nonpolar>
-42.1738

> <Gold.PLP.part.repulsive>
0.2173

> <Gold.PLP.ligand.clash>
0.0000

> <Gold.PLP.ligand.torsion>
0.9156

> <Gold.PLP.Chemscore.Hbond>
2.0000

> <Gold.PLP.Chemscore.CHOScore>
0.0000

> <Gold.PLP.Chemscore.Metal>
0.0000

> <Gold.Chemscore.Hbonds>
donor molecule, donor type, donor heavy atom, donor atom, acceptor molecule, acceptor atom, score
      L1  H     1    23       P1  7957  0.86
      P1  H  7989  7998       L1     1  0.65

> <Gold.PLP.Chemscore.Internal.Correction>
0.0446

> <Gold.Rescore>
     Score         DG    S(hbond)    S(metal)    S(lipo)     H(rot)  DE(clash)    DE(int)     intcor
     11.83     -14.70       1.36        0.00     102.53       2.85       0.07       2.80       ----

> <Gold.Chemscore.Fitness>
11.8269

> <Gold.Chemscore.DG>
-14.7012

> <Gold.Chemscore.ZeroCoef>
-5.4800

> <Gold.Chemscore.Hbond>
1.3550

> <Gold.Chemscore.Metal>
0.0000

> <Gold.Chemscore.Lipo>
102.5296

> <Gold.Chemscore.Internal_Hbond>
0.0000

> <Gold.Chemscore.DEClash>
0.0701

> <Gold.Chemscore.DEInternal>
2.8042

> <Gold.Chemscore.Rot>
2.8518

> <Gold.Chemscore.Internal.Correction>
   9.000000E+99

> <Gold.Chemscore.Hbonds>
donor molecule, donor type, donor heavy atom, donor atom, acceptor molecule, acceptor atom, score
      L1  H     1    23       P1  7957  0.83
      P1  H  7989  7998       L1     1  0.03

> <Gold.Chemscore.Hbond.Weighted>
-4.5258

> <Gold.Chemscore.Metal.Weighted>
-0.0000

> <Gold.Chemscore.Lipo.Weighted>
-11.9960

> <Gold.Chemscore.Internal_Hbond.Weighted>
0.0000

> <Gold.Chemscore.DEClash.Weighted>
0.0701

> <Gold.Chemscore.DEInternal.Weighted>
2.8042

> <Gold.Chemscore.Rot.Weighted>
7.3005

> <Gold.Chemscore.Internal.Correction.Weighted>
   9.000000E+99

> <Gold.Protein.RotatedTorsions>
[ 6907 6896 6895 6894 ] final  -33.78 input  -60.11 | X-H torsion
[ 7974 7965 7964 7962 ] final -129.58 input  175.53 | X-H torsion
[ 8008 7997 7996 7995 ] final  -75.38 input   59.86 | X-H torsion
[ 10167 10162 10161 10158 ] final -154.41 input  -65.29 | X-H torsion
[ 10718 10713 10712 10709 ] final  -41.98 input   66.30 | X-H torsion
[ 10763 10752 10751 10750 ] final   48.26 input  -60.55 | X-H torsion
[ 11005 11000 10999 10996 ] final -102.37 input  -57.11 | X-H torsion

> <Gold.Protein.ActiveResidues>
 VAL166  LYS551  ARG553  GLY616  TRP617  ASP618  TYR619  PRO620  LYS621  CYS622 
 ASP623  PHE694  ASN695  SER759  ASP760  ASP761  ALA762  ILE779  LEU786  VAL792 
 PHE793  MET794  SER795  GLU796  ALA797  LYS798  CYS799  TRP800  GLU811  SER814 

> <Gold.Protein.RotatedAtoms>
  151.0612  134.9737  159.8260 H   0  0  0  0  0  0  0  0  0  0  0  0  # atno 6907 bound_to 6896
  152.5395  134.2416  159.8874 H   0  0  0  0  0  0  0  0  0  0  0  0  # atno 6908 bound_to 6896
  151.2435  133.4344  159.2642 H   0  0  0  0  0  0  0  0  0  0  0  0  # atno 6909 bound_to 6896
  144.9558  140.7393  143.4760 H   0  0  0  0  0  0  0  0  0  0  0  0  # atno 7974 bound_to 7965
  154.5412  140.0745  156.8513 H   0  0  0  0  0  0  0  0  0  0  0  0  # atno 8008 bound_to 7997
  155.3177  140.3394  155.4224 H   0  0  0  0  0  0  0  0  0  0  0  0  # atno 8009 bound_to 7997
  156.1876  140.1674  156.8141 H   0  0  0  0  0  0  0  0  0  0  0  0  # atno 8010 bound_to 7997
  139.7015  143.9255  152.2431 H   0  0  0  0  0  0  0  0  0  0  0  0  # atno 10167 bound_to 10162
  156.2646  130.4200  149.8505 H   0  0  0  0  0  0  0  0  0  0  0  0  # atno 10718 bound_to 10713
  152.9793  135.5950  154.3897 H   0  0  0  0  0  0  0  0  0  0  0  0  # atno 10763 bound_to 10752
  154.3554  135.2767  155.2351 H   0  0  0  0  0  0  0  0  0  0  0  0  # atno 10764 bound_to 10752
  154.4372  135.6022  153.6161 H   0  0  0  0  0  0  0  0  0  0  0  0  # atno 10765 bound_to 10752
  141.1192  133.8553  157.1350 H   0  0  0  0  0  0  0  0  0  0  0  0  # atno 11005 bound_to 11000
  145.2775  139.1931  143.4809 LP  0  0  0  0  0  0  0  0  0  0  0  0  # atno 17320 bound_to 7965
  146.3336  140.2731  142.8607 LP  0  0  0  0  0  0  0  0  0  0  0  0  # atno 17321 bound_to 7965
  139.9099  144.6863  150.8574 LP  0  0  0  0  0  0  0  0  0  0  0  0  # atno 17342 bound_to 10162
  140.7711  143.3451  151.2127 LP  0  0  0  0  0  0  0  0  0  0  0  0  # atno 17343 bound_to 10162
  156.6008  130.8546  151.3431 LP  0  0  0  0  0  0  0  0  0  0  0  0  # atno 17370 bound_to 10713
  157.7262  130.9627  150.1648 LP  0  0  0  0  0  0  0  0  0  0  0  0  # atno 17371 bound_to 10713
  140.0136  134.9977  157.0447 LP  0  0  0  0  0  0  0  0  0  0  0  0  # atno 17394 bound_to 11000
  140.4557  134.1536  155.7186 LP  0  0  0  0  0  0  0  0  0  0  0  0  # atno 17395 bound_to 11000

$$$$
