AV-unprocessed.smi:2076|AV-procd|sdf|8460|dock1
  -GOLD-   2272011163D 1   1.00000     0.00000
 Structure written by MMmdl.
 45 46  0  0  0  0  0  0  0  0  2 V2000
  151.6477  145.3582  159.7431 C   0  0  0  0  0  0  0  0  0  0  0  0
  152.1347  143.9406  159.8012 C   0  0  0  0  0  0  0  0  0  0  0  0
  152.7805  143.2749  160.8799 C   0  0  0  0  0  0  0  0  0  0  0  0
  153.0064  142.0116  160.4108 C   0  0  0  0  0  0  0  0  0  0  0  0
  153.6516  140.8392  161.0741 C   0  0  0  0  0  0  0  0  0  0  0  0
  152.5083  141.9677  159.1207 N   0  0  0  0  0  0  0  0  0  0  0  0
  152.4865  140.8563  158.1827 C   0  0  0  0  0  0  0  0  0  0  0  0
  151.0890  140.6609  157.5931 C   0  0  0  0  0  0  0  0  0  0  0  0
  150.1645  141.3930  157.9442 O   0  0  0  0  0  0  0  0  0  0  0  0
  150.9496  139.6670  156.7012 N   0  0  0  0  0  0  0  0  0  0  0  0
  149.7247  139.3431  155.9738 C   0  0  0  0  0  0  0  0  0  0  0  0
  149.9813  138.7184  154.5731 C   0  0  1  0  0  0  0  0  0  0  0  0
  151.0008  137.5561  154.6691 C   0  0  0  0  0  0  0  0  0  0  0  0
  148.7056  138.2810  153.9098 N   0  3  0  0  0  0  0  0  0  0  0  0
  147.9083  137.3114  154.7140 C   0  0  0  0  0  0  0  0  0  0  0  0
  146.6158  136.8981  153.9900 C   0  0  0  0  0  0  0  0  0  0  0  0
  145.8455  138.0494  153.6873 O   0  0  0  0  0  0  0  0  0  0  0  0
  146.5447  138.9145  152.8076 C   0  0  0  0  0  0  0  0  0  0  0  0
  147.8330  139.4124  153.4839 C   0  0  0  0  0  0  0  0  0  0  0  0
  151.9735  143.1523  158.7509 N   0  0  0  0  0  0  0  0  0  0  0  0
  151.9462  145.9137  160.6324 H   0  0  0  0  0  0  0  0  0  0  0  0
  150.5601  145.3962  159.6779 H   0  0  0  0  0  0  0  0  0  0  0  0
  152.0535  145.8794  158.8757 H   0  0  0  0  0  0  0  0  0  0  0  0
  153.0388  143.6663  161.8527 H   0  0  0  0  0  0  0  0  0  0  0  0
  153.9373  141.0799  162.0982 H   0  0  0  0  0  0  0  0  0  0  0  0
  154.5509  140.5360  160.5378 H   0  0  0  0  0  0  0  0  0  0  0  0
  152.9722  139.9877  161.1088 H   0  0  0  0  0  0  0  0  0  0  0  0
  153.2076  141.0390  157.3841 H   0  0  0  0  0  0  0  0  0  0  0  0
  152.8077  139.9492  158.6956 H   0  0  0  0  0  0  0  0  0  0  0  0
  151.7694  139.1196  156.4796 H   0  0  0  0  0  0  0  0  0  0  0  0
  149.0752  138.6950  156.5647 H   0  0  0  0  0  0  0  0  0  0  0  0
  149.2086  140.2973  155.8851 H   0  0  0  0  0  0  0  0  0  0  0  0
  150.4262  139.4923  153.9451 H   0  0  0  0  0  0  0  0  0  0  0  0
  151.9109  137.8489  155.1902 H   0  0  0  0  0  0  0  0  0  0  0  0
  151.3394  137.2169  153.6915 H   0  0  0  0  0  0  0  0  0  0  0  0
  150.5791  136.7022  155.2002 H   0  0  0  0  0  0  0  0  0  0  0  0
  148.4699  136.3980  154.8988 H   0  0  0  0  0  0  0  0  0  0  0  0
  147.6685  137.7501  155.6839 H   0  0  0  0  0  0  0  0  0  0  0  0
  146.8397  136.3411  153.0786 H   0  0  0  0  0  0  0  0  0  0  0  0
  146.0257  136.2386  154.6268 H   0  0  0  0  0  0  0  0  0  0  0  0
  146.7676  138.4028  151.8697 H   0  0  0  0  0  0  0  0  0  0  0  0
  145.9011  139.7593  152.5617 H   0  0  0  0  0  0  0  0  0  0  0  0
  147.5850  140.0283  154.3499 H   0  0  0  0  0  0  0  0  0  0  0  0
  148.3411  140.0522  152.7650 H   0  0  0  0  0  0  0  0  0  0  0  0
  148.9744  137.7960  153.0654 H   0  0  0  0  0  0  0  0  0  0  0  0
  1  2  1  0  0  0  0
  1 21  1  0  0  0  0
  1 22  1  0  0  0  0
  1 23  1  0  0  0  0
  2 20  2  0  0  0  0
  2  3  1  0  0  0  0
  3  4  2  0  0  0  0
  3 24  1  0  0  0  0
  4  5  1  0  0  0  0
  4  6  1  0  0  0  0
  5 25  1  0  0  0  0
  5 26  1  0  0  0  0
  5 27  1  0  0  0  0
  6  7  1  0  0  0  0
  6 20  1  0  0  0  0
  7  8  1  0  0  0  0
  7 28  1  0  0  0  0
  7 29  1  0  0  0  0
  8  9  2  0  0  0  0
  8 10  1  0  0  0  0
 10 11  1  0  0  0  0
 10 30  1  0  0  0  0
 11 12  1  0  0  0  0
 11 31  1  0  0  0  0
 11 32  1  0  0  0  0
 12 13  1  0  0  0  0
 12 14  1  0  0  0  0
 12 33  1  0  0  0  0
 13 34  1  0  0  0  0
 13 35  1  0  0  0  0
 13 36  1  0  0  0  0
 14 19  1  0  0  0  0
 14 15  1  0  0  0  0
 14 45  1  0  0  0  0
 15 16  1  0  0  0  0
 15 37  1  0  0  0  0
 15 38  1  0  0  0  0
 16 17  1  0  0  0  0
 16 39  1  0  0  0  0
 16 40  1  0  0  0  0
 17 18  1  0  0  0  0
 18 19  1  0  0  0  0
 18 41  1  0  0  0  0
 18 42  1  0  0  0  0
 19 43  1  0  0  0  0
 19 44  1  0  0  0  0
M  CHG  1  14   1
M  END
> <s_m_source_file>
AV-unprocessed.smi

> <i_m_source_file_index>
2076

> <i_lp_mmshare_version>
43012

> <i_f3d_flags>
0

> <s_epik_input>
W0NIM11jMVtjSF1jKFtDSDNdKW4objEpW0NIMl1DKD1PKVtOSF1bQ0gyXVtDQEhdKFtDSDNdKU4yW0NIMl1bQ0gyXU9bQ0gyXVtDSDJdMg==

> <s_epik_cmdline>
J2VwaWtfcHl0aG9uJywgJy1waCcsICc3LjAnLCAnLXRuJywgJzgnLCAnLW1hJywgJzIwMCcsICctbWV0YWxfYmluZGluZycsICctaW1hZScsICc8aW5maWxlLm1hZT4nLCAnLW9tYWUnLCAnPG91dGZpbGUubWFlPic=

> <r_lp_tautomer_probability>
1

> <r_epik_Ionization_Penalty>
0.748594

> <r_epik_Ionization_Penalty_Charging>
0.748396

> <r_epik_Ionization_Penalty_Neutral>
0.000197403

> <r_epik_State_Penalty>
0.775162

> <r_epik_Charging_Adjusted_Penalty>
1.52356

> <i_epik_Tot_Q>
1

> <i_epik_Tot_abs_Q>
1

> <r_epik_Metal_State_Penalty>
0.77529

> <b_epik_Metal_Only>
0

> <s_lp_Force_Field>
OPLS_2005

> <r_lp_Energy>
19.0856

> <b_lp_Chiralities_Consistent>
1

> <s_lp_Variant>
AV-unprocessed.smi:2076-4

> <Gold.Version>
5.8.1

> <Gold.Id.Protein>
6NUR|6NUR_protein|mol2

> <Gold.PLP.Fitness>
41.2955

> <Gold.PLP.PLP>
-36.0142

> <Gold.PLP.part.hbond>
-1.0000

> <Gold.PLP.part.metal>
0.0000

> <Gold.PLP.part.buried>
-3.7394

> <Gold.PLP.part.nonpolar>
-31.2956

> <Gold.PLP.part.repulsive>
0.2727

> <Gold.PLP.ligand.clash>
0.0000

> <Gold.PLP.ligand.torsion>
0.4163

> <Gold.PLP.Chemscore.Hbond>
2.0000

> <Gold.PLP.Chemscore.CHOScore>
0.0000

> <Gold.PLP.Chemscore.Metal>
0.0000

> <Gold.Chemscore.Hbonds>
donor molecule, donor type, donor heavy atom, donor atom, acceptor molecule, acceptor atom, score
      L1  H    14    45       P1  7948  2.00

> <Gold.PLP.Chemscore.Internal.Correction>
0.1139

> <Gold.Rescore>
     Score         DG    S(hbond)    S(metal)    S(lipo)     H(rot)  DE(clash)    DE(int)     intcor
     14.04     -16.02       0.99        0.00     100.62       1.78       0.19       1.79       ----

> <Gold.Chemscore.Fitness>
14.0411

> <Gold.Chemscore.DG>
-16.0194

> <Gold.Chemscore.ZeroCoef>
-5.4800

> <Gold.Chemscore.Hbond>
0.9921

> <Gold.Chemscore.Metal>
0.0000

> <Gold.Chemscore.Lipo>
100.6180

> <Gold.Chemscore.Internal_Hbond>
0.0000

> <Gold.Chemscore.DEClash>
0.1913

> <Gold.Chemscore.DEInternal>
1.7870

> <Gold.Chemscore.Rot>
1.7760

> <Gold.Chemscore.Internal.Correction>
   9.000000E+99

> <Gold.Chemscore.Hbonds>
donor molecule, donor type, donor heavy atom, donor atom, acceptor molecule, acceptor atom, score
      L1  H    14    45       P1  7948  0.96

> <Gold.Chemscore.Hbond.Weighted>
-3.3135

> <Gold.Chemscore.Metal.Weighted>
-0.0000

> <Gold.Chemscore.Lipo.Weighted>
-11.7723

> <Gold.Chemscore.Internal_Hbond.Weighted>
0.0000

> <Gold.Chemscore.DEClash.Weighted>
0.1913

> <Gold.Chemscore.DEInternal.Weighted>
1.7870

> <Gold.Chemscore.Rot.Weighted>
4.5464

> <Gold.Chemscore.Internal.Correction.Weighted>
   9.000000E+99

> <Gold.Protein.RotatedTorsions>
[ 6907 6896 6895 6894 ] final  122.77 input  -60.11 | X-H torsion
[ 7974 7965 7964 7962 ] final  150.58 input  175.53 | X-H torsion
[ 8008 7997 7996 7995 ] final   84.87 input   59.86 | X-H torsion
[ 10167 10162 10161 10158 ] final   17.48 input  -65.29 | X-H torsion
[ 10718 10713 10712 10709 ] final   87.59 input   66.30 | X-H torsion
[ 10763 10752 10751 10750 ] final   73.31 input  -60.55 | X-H torsion
[ 11005 11000 10999 10996 ] final -172.75 input  -57.11 | X-H torsion

> <Gold.Protein.ActiveResidues>
 VAL166  LYS551  ARG553  GLY616  TRP617  ASP618  TYR619  PRO620  LYS621  CYS622 
 ASP623  PHE694  ASN695  SER759  ASP760  ASP761  ALA762  ILE779  LEU786  VAL792 
 PHE793  MET794  SER795  GLU796  ALA797  LYS798  CYS799  TRP800  GLU811  SER814 

> <Gold.Protein.RotatedAtoms>
  152.4216  133.7125  159.6486 H   0  0  0  0  0  0  0  0  0  0  0  0  # atno 6907 bound_to 6896
  150.8092  133.8443  159.3196 H   0  0  0  0  0  0  0  0  0  0  0  0  # atno 6908 bound_to 6896
  151.6158  135.1038  160.0142 H   0  0  0  0  0  0  0  0  0  0  0  0  # atno 6909 bound_to 6896
  144.8353  139.6427  143.6040 H   0  0  0  0  0  0  0  0  0  0  0  0  # atno 7974 bound_to 7965
  155.9427  140.3407  155.6341 H   0  0  0  0  0  0  0  0  0  0  0  0  # atno 8008 bound_to 7997
  155.7020  140.0761  157.2425 H   0  0  0  0  0  0  0  0  0  0  0  0  # atno 8009 bound_to 7997
  154.4106  140.1638  156.2188 H   0  0  0  0  0  0  0  0  0  0  0  0  # atno 8010 bound_to 7997
  140.5723  143.9138  150.6722 H   0  0  0  0  0  0  0  0  0  0  0  0  # atno 10167 bound_to 10162
  157.6941  131.0261  150.3146 H   0  0  0  0  0  0  0  0  0  0  0  0  # atno 10718 bound_to 10713
  153.0513  135.5067  154.7875 H   0  0  0  0  0  0  0  0  0  0  0  0  # atno 10763 bound_to 10752
  154.6734  135.2956  154.9713 H   0  0  0  0  0  0  0  0  0  0  0  0  # atno 10764 bound_to 10752
  154.0523  135.6702  153.4854 H   0  0  0  0  0  0  0  0  0  0  0  0  # atno 10765 bound_to 10752
  140.4935  134.5962  157.4963 H   0  0  0  0  0  0  0  0  0  0  0  0  # atno 11005 bound_to 11000
  146.2653  139.6505  142.9334 LP  0  0  0  0  0  0  0  0  0  0  0  0  # atno 17320 bound_to 7965
  145.4807  141.0438  143.2647 LP  0  0  0  0  0  0  0  0  0  0  0  0  # atno 17321 bound_to 7965
  140.2616  143.3520  152.1317 LP  0  0  0  0  0  0  0  0  0  0  0  0  # atno 17342 bound_to 10162
  139.5124  144.6916  151.5744 LP  0  0  0  0  0  0  0  0  0  0  0  0  # atno 17343 bound_to 10162
  156.3642  130.3852  149.7227 LP  0  0  0  0  0  0  0  0  0  0  0  0  # atno 17370 bound_to 10713
  156.4663  130.7975  151.2994 LP  0  0  0  0  0  0  0  0  0  0  0  0  # atno 17371 bound_to 10713
  139.9755  134.7222  155.9958 LP  0  0  0  0  0  0  0  0  0  0  0  0  # atno 17394 bound_to 11000
  141.1472  133.6554  156.3903 LP  0  0  0  0  0  0  0  0  0  0  0  0  # atno 17395 bound_to 11000

$$$$
