AV-unprocessed.smi:2799|AV-procd|sdf|10791|dock9
  -GOLD-   2272015223D 1   1.00000     0.00000
 Structure written by MMmdl.
 52 53  0  0  0  0  0  0  0  0  2 V2000
  146.8777  139.6011  151.6374 C   0  0  0  0  0  0  0  0  0  0  0  0
  146.8784  138.2534  152.3742 C   0  0  0  0  0  0  0  0  0  0  0  0
  145.5002  137.5801  152.2604 C   0  0  0  0  0  0  0  0  0  0  0  0
  147.3110  138.4442  153.8453 C   0  0  0  0  0  0  0  0  0  0  0  0
  148.6653  137.9106  154.1636 N   0  3  2  0  0  0  0  0  0  0  0  0
  148.6711  137.1346  155.4340 C   0  0  0  0  0  0  0  0  0  0  0  0
  149.9990  136.3867  155.6311 C   0  0  0  0  0  0  0  0  0  0  0  0
  151.1892  137.3485  155.5638 C   0  0  0  0  0  0  0  0  0  0  0  0
  151.1414  138.1384  154.2495 C   0  0  0  0  0  0  0  0  0  0  0  0
  149.7986  138.8864  154.0678 C   0  0  2  0  0  0  0  0  0  0  0  0
  149.6265  140.1174  154.9988 C   0  0  0  0  0  0  0  0  0  0  0  0
  150.7664  140.3008  155.8936 N   0  0  0  0  0  0  0  0  0  0  0  0
  150.7448  140.9646  157.0587 C   0  0  0  0  0  0  0  0  0  0  0  0
  149.7344  141.5010  157.5123 O   0  0  0  0  0  0  0  0  0  0  0  0
  151.9520  140.9314  157.6519 N   0  0  0  0  0  0  0  0  0  0  0  0
  152.3611  141.5091  158.8663 C   0  0  0  0  0  0  0  0  0  0  0  0
  153.0415  140.8533  159.8401 C   0  0  0  0  0  0  0  0  0  0  0  0
  153.4132  141.5216  161.0639 C   0  0  0  0  0  0  0  0  0  0  0  0
  153.0617  142.8054  161.2212 C   0  0  0  0  0  0  0  0  0  0  0  0
  152.3481  143.5011  160.2306 N   0  0  0  0  0  0  0  0  0  0  0  0
  152.0097  144.9016  160.4958 C   0  0  0  0  0  0  0  0  0  0  0  0
  151.9711  142.9204  159.0526 C   0  0  0  0  0  0  0  0  0  0  0  0
  151.3421  143.5537  158.2009 O   0  0  0  0  0  0  0  0  0  0  0  0
  146.1637  140.2966  152.0802 H   0  0  0  0  0  0  0  0  0  0  0  0
  146.6112  139.4757  150.5875 H   0  0  0  0  0  0  0  0  0  0  0  0
  147.8622  140.0687  151.6710 H   0  0  0  0  0  0  0  0  0  0  0  0
  147.6081  137.6275  151.8615 H   0  0  0  0  0  0  0  0  0  0  0  0
  144.7288  138.1683  152.7586 H   0  0  0  0  0  0  0  0  0  0  0  0
  145.5017  136.5857  152.7070 H   0  0  0  0  0  0  0  0  0  0  0  0
  145.2060  137.4648  151.2168 H   0  0  0  0  0  0  0  0  0  0  0  0
  147.2514  139.4950  154.1288 H   0  0  0  0  0  0  0  0  0  0  0  0
  146.5835  137.9316  154.4766 H   0  0  0  0  0  0  0  0  0  0  0  0
  148.4766  137.7945  156.2797 H   0  0  0  0  0  0  0  0  0  0  0  0
  147.8603  136.4052  155.4207 H   0  0  0  0  0  0  0  0  0  0  0  0
  149.9949  135.8647  156.5885 H   0  0  0  0  0  0  0  0  0  0  0  0
  150.1042  135.6204  154.8618 H   0  0  0  0  0  0  0  0  0  0  0  0
  151.1672  138.0286  156.4155 H   0  0  0  0  0  0  0  0  0  0  0  0
  152.1251  136.7933  155.6345 H   0  0  0  0  0  0  0  0  0  0  0  0
  151.9882  138.8218  154.1909 H   0  0  0  0  0  0  0  0  0  0  0  0
  151.2729  137.4431  153.4191 H   0  0  0  0  0  0  0  0  0  0  0  0
  149.8206  139.2637  153.0463 H   0  0  0  0  0  0  0  0  0  0  0  0
  149.5595  141.0307  154.4090 H   0  0  0  0  0  0  0  0  0  0  0  0
  148.6965  140.0577  155.5645 H   0  0  0  0  0  0  0  0  0  0  0  0
  151.6414  139.8889  155.6031 H   0  0  0  0  0  0  0  0  0  0  0  0
  152.6642  140.3842  157.1903 H   0  0  0  0  0  0  0  0  0  0  0  0
  153.3113  139.8140  159.7445 H   0  0  0  0  0  0  0  0  0  0  0  0
  153.9618  140.9998  161.8341 H   0  0  0  0  0  0  0  0  0  0  0  0
  153.3028  143.3743  162.1073 H   0  0  0  0  0  0  0  0  0  0  0  0
  152.4612  145.5526  159.7456 H   0  0  0  0  0  0  0  0  0  0  0  0
  152.3564  145.2420  161.4723 H   0  0  0  0  0  0  0  0  0  0  0  0
  150.9287  145.0473  160.4669 H   0  0  0  0  0  0  0  0  0  0  0  0
  148.8494  137.2266  153.4435 H   0  0  0  0  0  0  0  0  0  0  0  0
  1  2  1  0  0  0  0
  1 24  1  0  0  0  0
  1 25  1  0  0  0  0
  1 26  1  0  0  0  0
  2  3  1  0  0  0  0
  2  4  1  0  0  0  0
  2 27  1  0  0  0  0
  3 28  1  0  0  0  0
  3 29  1  0  0  0  0
  3 30  1  0  0  0  0
  4  5  1  0  0  0  0
  4 31  1  0  0  0  0
  4 32  1  0  0  0  0
  5 10  1  0  0  0  0
  5  6  1  0  0  0  0
  5 52  1  0  0  0  0
  6  7  1  0  0  0  0
  6 33  1  0  0  0  0
  6 34  1  0  0  0  0
  7  8  1  0  0  0  0
  7 35  1  0  0  0  0
  7 36  1  0  0  0  0
  8  9  1  0  0  0  0
  8 37  1  0  0  0  0
  8 38  1  0  0  0  0
  9 10  1  0  0  0  0
  9 39  1  0  0  0  0
  9 40  1  0  0  0  0
 10 11  1  0  0  0  0
 10 41  1  0  0  0  0
 11 12  1  0  0  0  0
 11 42  1  0  0  0  0
 11 43  1  0  0  0  0
 12 13  1  0  0  0  0
 12 44  1  0  0  0  0
 13 14  2  0  0  0  0
 13 15  1  0  0  0  0
 15 16  1  0  0  0  0
 15 45  1  0  0  0  0
 16 22  1  0  0  0  0
 16 17  2  0  0  0  0
 17 18  1  0  0  0  0
 17 46  1  0  0  0  0
 18 19  2  0  0  0  0
 18 47  1  0  0  0  0
 19 20  1  0  0  0  0
 19 48  1  0  0  0  0
 20 21  1  0  0  0  0
 20 22  1  0  0  0  0
 21 49  1  0  0  0  0
 21 50  1  0  0  0  0
 21 51  1  0  0  0  0
 22 23  2  0  0  0  0
M  CHG  1   5   1
M  END
> <s_m_source_file>
AV-unprocessed.smi

> <i_m_source_file_index>
2799

> <i_lp_mmshare_version>
43012

> <i_f3d_flags>
0

> <s_epik_input>
W0NIM11bQ0hdKFtDSDNdKVtDSDJdTjFbQ0gyXVtDSDJdW0NIMl1bQ0gyXVtDQEhdMVtDSDJdW05IXUMoPU8pW05IXWMyW2NIXVtjSF1bY0hdbihbQ0gzXSljMj1P

> <s_epik_cmdline>
J2VwaWtfcHl0aG9uJywgJy1waCcsICc3LjAnLCAnLXRuJywgJzgnLCAnLW1hJywgJzIwMCcsICctbWV0YWxfYmluZGluZycsICctaW1hZScsICc8aW5maWxlLm1hZT4nLCAnLW9tYWUnLCAnPG91dGZpbGUubWFlPic=

> <r_lp_tautomer_probability>
1

> <r_epik_Ionization_Penalty>
0.0010885

> <r_epik_Ionization_Penalty_Charging>
0.00106921

> <r_epik_Ionization_Penalty_Neutral>
1.92865e-05

> <r_epik_State_Penalty>
0.000697184

> <r_epik_Charging_Adjusted_Penalty>
0.0017664

> <i_epik_Tot_Q>
1

> <i_epik_Tot_abs_Q>
1

> <r_epik_Metal_State_Penalty>
-0

> <b_epik_Metal_Only>
0

> <s_lp_Force_Field>
OPLS_2005

> <r_lp_Energy>
36.9818

> <b_lp_Chiralities_Consistent>
1

> <s_lp_Variant>
AV-unprocessed.smi:2799-3

> <Gold.Version>
5.8.1

> <Gold.Id.Protein>
6NUR|6NUR_protein|mol2

> <Gold.PLP.Fitness>
44.1042

> <Gold.PLP.PLP>
-43.4515

> <Gold.PLP.part.hbond>
-1.0000

> <Gold.PLP.part.metal>
0.0000

> <Gold.PLP.part.buried>
-0.9126

> <Gold.PLP.part.nonpolar>
-42.0667

> <Gold.PLP.part.repulsive>
0.3895

> <Gold.PLP.ligand.clash>
0.2829

> <Gold.PLP.ligand.torsion>
2.5682

> <Gold.PLP.Chemscore.Hbond>
2.0000

> <Gold.PLP.Chemscore.CHOScore>
0.0000

> <Gold.PLP.Chemscore.Metal>
0.0000

> <Gold.Chemscore.Hbonds>
donor molecule, donor type, donor heavy atom, donor atom, acceptor molecule, acceptor atom, score
      L1  H     5    52       P1  7948  2.00

> <Gold.PLP.Chemscore.Internal.Correction>
0.0720

> <Gold.Rescore>
     Score         DG    S(hbond)    S(metal)    S(lipo)     H(rot)  DE(clash)    DE(int)     intcor
     11.12     -17.59       0.99        0.00     109.54       1.57       0.38       6.09       ----

> <Gold.Chemscore.Fitness>
11.1222

> <Gold.Chemscore.DG>
-17.5897

> <Gold.Chemscore.ZeroCoef>
-5.4800

> <Gold.Chemscore.Hbond>
0.9909

> <Gold.Chemscore.Metal>
0.0000

> <Gold.Chemscore.Lipo>
109.5404

> <Gold.Chemscore.Internal_Hbond>
0.0000

> <Gold.Chemscore.DEClash>
0.3758

> <Gold.Chemscore.DEInternal>
6.0916

> <Gold.Chemscore.Rot>
1.5688

> <Gold.Chemscore.Internal.Correction>
   9.000000E+99

> <Gold.Chemscore.Hbonds>
donor molecule, donor type, donor heavy atom, donor atom, acceptor molecule, acceptor atom, score
      L1  H     5    52       P1  7948  1.00

> <Gold.Chemscore.Hbond.Weighted>
-3.3095

> <Gold.Chemscore.Metal.Weighted>
-0.0000

> <Gold.Chemscore.Lipo.Weighted>
-12.8162

> <Gold.Chemscore.Internal_Hbond.Weighted>
0.0000

> <Gold.Chemscore.DEClash.Weighted>
0.3758

> <Gold.Chemscore.DEInternal.Weighted>
6.0916

> <Gold.Chemscore.Rot.Weighted>
4.0161

> <Gold.Chemscore.Internal.Correction.Weighted>
   9.000000E+99

> <Gold.Protein.RotatedTorsions>
[ 6907 6896 6895 6894 ] final -144.07 input  -60.11 | X-H torsion
[ 7974 7965 7964 7962 ] final  -12.80 input  175.53 | X-H torsion
[ 8008 7997 7996 7995 ] final  -55.17 input   59.86 | X-H torsion
[ 10167 10162 10161 10158 ] final  168.08 input  -65.29 | X-H torsion
[ 10718 10713 10712 10709 ] final    7.72 input   66.30 | X-H torsion
[ 10763 10752 10751 10750 ] final  154.80 input  -60.55 | X-H torsion
[ 11005 11000 10999 10996 ] final -124.08 input  -57.11 | X-H torsion

> <Gold.Protein.ActiveResidues>
 VAL166  LYS551  ARG553  GLY616  TRP617  ASP618  TYR619  PRO620  LYS621  CYS622 
 ASP623  PHE694  ASN695  SER759  ASP760  ASP761  ALA762  ILE779  LEU786  VAL792 
 PHE793  MET794  SER795  GLU796  ALA797  LYS798  CYS799  TRP800  GLU811  SER814 

> <Gold.Protein.RotatedAtoms>
  151.1090  133.5186  159.2606 H   0  0  0  0  0  0  0  0  0  0  0  0  # atno 6907 bound_to 6896
  151.1988  135.0433  159.8873 H   0  0  0  0  0  0  0  0  0  0  0  0  # atno 6908 bound_to 6896
  152.5449  134.0921  159.8335 H   0  0  0  0  0  0  0  0  0  0  0  0  # atno 6909 bound_to 6896
  146.2138  140.3110  142.8382 H   0  0  0  0  0  0  0  0  0  0  0  0  # atno 7974 bound_to 7965
  154.4186  140.1159  156.5434 H   0  0  0  0  0  0  0  0  0  0  0  0  # atno 8008 bound_to 7997
  155.6485  140.3496  155.4720 H   0  0  0  0  0  0  0  0  0  0  0  0  # atno 8009 bound_to 7997
  155.9812  140.1160  157.0714 H   0  0  0  0  0  0  0  0  0  0  0  0  # atno 8010 bound_to 7997
  139.4959  144.3853  151.9577 H   0  0  0  0  0  0  0  0  0  0  0  0  # atno 10167 bound_to 10162
  156.9410  130.5861  149.5652 H   0  0  0  0  0  0  0  0  0  0  0  0  # atno 10718 bound_to 10713
  154.1582  135.2811  155.3116 H   0  0  0  0  0  0  0  0  0  0  0  0  # atno 10763 bound_to 10752
  154.6167  135.5481  153.7534 H   0  0  0  0  0  0  0  0  0  0  0  0  # atno 10764 bound_to 10752
  153.0200  135.6428  154.1724 H   0  0  0  0  0  0  0  0  0  0  0  0  # atno 10765 bound_to 10752
  140.9869  134.0594  157.3700 H   0  0  0  0  0  0  0  0  0  0  0  0  # atno 11005 bound_to 11000
  144.8988  140.7617  143.5880 LP  0  0  0  0  0  0  0  0  0  0  0  0  # atno 17320 bound_to 7965
  145.3035  139.1842  143.4677 LP  0  0  0  0  0  0  0  0  0  0  0  0  # atno 17321 bound_to 7965
  140.3290  144.3338  150.5991 LP  0  0  0  0  0  0  0  0  0  0  0  0  # atno 17342 bound_to 10162
  140.5660  143.2186  151.7682 LP  0  0  0  0  0  0  0  0  0  0  0  0  # atno 17343 bound_to 10162
  156.0404  130.5487  150.8757 LP  0  0  0  0  0  0  0  0  0  0  0  0  # atno 17370 bound_to 10713
  157.5785  131.0946  150.9309 LP  0  0  0  0  0  0  0  0  0  0  0  0  # atno 17371 bound_to 10713
  139.8974  135.0150  156.7101 LP  0  0  0  0  0  0  0  0  0  0  0  0  # atno 17394 bound_to 11000
  140.7100  133.9231  155.8078 LP  0  0  0  0  0  0  0  0  0  0  0  0  # atno 17395 bound_to 11000

$$$$
