AV-unprocessed.smi:2996|AV-procd|sdf|11410|dock5
  -GOLD-   2272016333D 1   1.00000     0.00000
 Structure written by MMmdl.
 46 47  0  0  0  0  0  0  0  0  1 V2000
  147.8762  141.4089  153.9766 C   0  0  0  0  0  0  0  0  0  0  0  0
  148.3029  139.9385  154.0470 C   0  0  0  0  0  0  0  0  0  0  0  0
  149.7119  139.7834  154.5496 C   0  0  0  0  0  0  0  0  0  0  0  0
  150.4109  140.8483  154.9087 N   0  0  0  0  0  0  0  0  0  0  0  0
  151.6719  140.3765  155.3036 O   0  0  0  0  0  0  0  0  0  0  0  0
  151.7083  139.0232  155.1672 C   0  0  0  0  0  0  0  0  0  0  0  0
  153.0098  138.3655  155.4888 C   0  0  0  0  0  0  0  0  0  0  0  0
  150.4847  138.6044  154.7166 C   0  0  0  0  0  0  0  0  0  0  0  0
  150.0378  137.2995  154.3867 N   0  0  0  0  0  0  0  0  0  0  0  0
  150.2608  136.1653  155.0675 C   0  0  0  0  0  0  0  0  0  0  0  0
  150.8889  136.0863  156.1223 O   0  0  0  0  0  0  0  0  0  0  0  0
  149.6831  135.1171  154.4658 N   0  0  0  0  0  0  0  0  0  0  0  0
  149.6991  133.7444  154.9671 C   0  0  2  0  0  0  0  0  0  0  0  0
  149.3911  132.7468  153.8680 C   0  0  0  0  0  0  0  0  0  0  0  0
  148.8652  131.5296  154.6387 C   0  0  0  0  0  0  0  0  0  0  0  0
  147.7355  130.8079  153.8879 C   0  0  0  0  0  0  0  0  0  0  0  0
  149.9939  130.5517  155.0070 C   0  0  0  0  0  0  0  0  0  0  0  0
  148.3387  132.0487  155.8594 O   0  0  0  0  0  0  0  0  0  0  0  0
  148.5969  133.4443  156.0059 C   0  0  0  0  0  0  0  0  0  0  0  0
  149.0699  133.6858  157.4481 C   0  0  0  0  0  0  0  0  0  0  0  0
  147.2602  134.1690  155.7421 C   0  0  0  0  0  0  0  0  0  0  0  0
  146.8533  141.4995  153.6109 H   0  0  0  0  0  0  0  0  0  0  0  0
  148.5225  141.9731  153.3035 H   0  0  0  0  0  0  0  0  0  0  0  0
  147.9214  141.8804  154.9587 H   0  0  0  0  0  0  0  0  0  0  0  0
  147.6147  139.3930  154.6934 H   0  0  0  0  0  0  0  0  0  0  0  0
  148.2069  139.4868  153.0594 H   0  0  0  0  0  0  0  0  0  0  0  0
  153.2016  137.5305  154.8150 H   0  0  0  0  0  0  0  0  0  0  0  0
  153.0106  137.9885  156.5115 H   0  0  0  0  0  0  0  0  0  0  0  0
  153.8372  139.0685  155.3898 H   0  0  0  0  0  0  0  0  0  0  0  0
  149.4102  137.2361  153.5987 H   0  0  0  0  0  0  0  0  0  0  0  0
  149.1816  135.2793  153.6051 H   0  0  0  0  0  0  0  0  0  0  0  0
  150.6808  133.5011  155.3787 H   0  0  0  0  0  0  0  0  0  0  0  0
  148.6151  133.1436  153.2113 H   0  0  0  0  0  0  0  0  0  0  0  0
  150.2581  132.5201  153.2465 H   0  0  0  0  0  0  0  0  0  0  0  0
  148.0867  130.4106  152.9353 H   0  0  0  0  0  0  0  0  0  0  0  0
  146.9035  131.4817  153.6811 H   0  0  0  0  0  0  0  0  0  0  0  0
  147.3439  129.9750  154.4725 H   0  0  0  0  0  0  0  0  0  0  0  0
  150.4520  130.1245  154.1145 H   0  0  0  0  0  0  0  0  0  0  0  0
  149.6169  129.7271  155.6128 H   0  0  0  0  0  0  0  0  0  0  0  0
  150.7797  131.0447  155.5799 H   0  0  0  0  0  0  0  0  0  0  0  0
  149.2760  134.7412  157.6264 H   0  0  0  0  0  0  0  0  0  0  0  0
  149.9809  133.1273  157.6641 H   0  0  0  0  0  0  0  0  0  0  0  0
  148.3142  133.3705  158.1680 H   0  0  0  0  0  0  0  0  0  0  0  0
  147.3537  135.2468  155.8771 H   0  0  0  0  0  0  0  0  0  0  0  0
  146.4881  133.8224  156.4298 H   0  0  0  0  0  0  0  0  0  0  0  0
  146.8968  133.9900  154.7301 H   0  0  0  0  0  0  0  0  0  0  0  0
  1  2  1  0  0  0  0
  1 22  1  0  0  0  0
  1 23  1  0  0  0  0
  1 24  1  0  0  0  0
  2  3  1  0  0  0  0
  2 25  1  0  0  0  0
  2 26  1  0  0  0  0
  3  8  1  0  0  0  0
  3  4  2  0  0  0  0
  4  5  1  0  0  0  0
  5  6  1  0  0  0  0
  6  7  1  0  0  0  0
  6  8  2  0  0  0  0
  7 27  1  0  0  0  0
  7 28  1  0  0  0  0
  7 29  1  0  0  0  0
  8  9  1  0  0  0  0
  9 10  1  0  0  0  0
  9 30  1  0  0  0  0
 10 11  2  0  0  0  0
 10 12  1  0  0  0  0
 12 13  1  0  0  0  0
 12 31  1  0  0  0  0
 13 19  1  0  0  0  0
 13 14  1  0  0  0  0
 13 32  1  0  0  0  0
 14 15  1  0  0  0  0
 14 33  1  0  0  0  0
 14 34  1  0  0  0  0
 15 16  1  0  0  0  0
 15 17  1  0  0  0  0
 15 18  1  0  0  0  0
 16 35  1  0  0  0  0
 16 36  1  0  0  0  0
 16 37  1  0  0  0  0
 17 38  1  0  0  0  0
 17 39  1  0  0  0  0
 17 40  1  0  0  0  0
 18 19  1  0  0  0  0
 19 20  1  0  0  0  0
 19 21  1  0  0  0  0
 20 41  1  0  0  0  0
 20 42  1  0  0  0  0
 20 43  1  0  0  0  0
 21 44  1  0  0  0  0
 21 45  1  0  0  0  0
 21 46  1  0  0  0  0
M  END
> <s_m_source_file>
AV-unprocessed.smi

> <i_m_source_file_index>
2996

> <i_lp_mmshare_version>
43012

> <i_f3d_flags>
0

> <s_epik_input>
W0NIM11bQ0gyXWMxbm9jKFtDSDNdKWMxW05IXUMoPU8pW05IXVtDQEBIXShDKE8yKShbQ0gzXSlbQ0gzXSlbQ0gyXUMyKFtDSDNdKVtDSDNd

> <s_epik_cmdline>
J2VwaWtfcHl0aG9uJywgJy1waCcsICc3LjAnLCAnLXRuJywgJzgnLCAnLW1hJywgJzIwMCcsICctbWV0YWxfYmluZGluZycsICctaW1hZScsICc8aW5maWxlLm1hZT4nLCAnLW9tYWUnLCAnPG91dGZpbGUubWFlPic=

> <r_lp_tautomer_probability>
1

> <r_epik_Ionization_Penalty>
3.17207e-05

> <r_epik_Ionization_Penalty_Charging>
0

> <r_epik_Ionization_Penalty_Neutral>
3.17207e-05

> <r_epik_State_Penalty>
-0

> <r_epik_Charging_Adjusted_Penalty>
0

> <i_epik_Tot_Q>
0

> <i_epik_Tot_abs_Q>
0

> <r_epik_Metal_State_Penalty>
-0

> <b_epik_Metal_Only>
0

> <s_lp_Force_Field>
OPLS_2005

> <r_lp_Energy>
17.7476

> <b_lp_Chiralities_Consistent>
1

> <s_lp_Variant>
AV-unprocessed.smi:2996-1

> <Gold.Version>
5.8.1

> <Gold.Id.Protein>
6NUR|6NUR_protein|mol2

> <Gold.PLP.Fitness>
39.5305

> <Gold.PLP.PLP>
-34.9561

> <Gold.PLP.part.hbond>
-4.0095

> <Gold.PLP.part.metal>
0.0000

> <Gold.PLP.part.buried>
-3.2343

> <Gold.PLP.part.nonpolar>
-26.9044

> <Gold.PLP.part.repulsive>
0.2387

> <Gold.PLP.ligand.clash>
0.0000

> <Gold.PLP.ligand.torsion>
0.6355

> <Gold.PLP.Chemscore.Hbond>
1.8960

> <Gold.PLP.Chemscore.CHOScore>
0.0000

> <Gold.PLP.Chemscore.Metal>
0.0000

> <Gold.Chemscore.Hbonds>
donor molecule, donor type, donor heavy atom, donor atom, acceptor molecule, acceptor atom, score
      L1  H     9    30       P1  7948  0.89
      L1  H    12    31       P1  7948  1.00

> <Gold.PLP.Chemscore.Internal.Correction>
0.1574

> <Gold.Rescore>
     Score         DG    S(hbond)    S(metal)    S(lipo)     H(rot)  DE(clash)    DE(int)     intcor
     15.03     -15.69       1.20        0.00      78.37       1.16       0.05       0.61       ----

> <Gold.Chemscore.Fitness>
15.0311

> <Gold.Chemscore.DG>
-15.6881

> <Gold.Chemscore.ZeroCoef>
-5.4800

> <Gold.Chemscore.Hbond>
1.1993

> <Gold.Chemscore.Metal>
0.0000

> <Gold.Chemscore.Lipo>
78.3704

> <Gold.Chemscore.Internal_Hbond>
0.0000

> <Gold.Chemscore.DEClash>
0.0511

> <Gold.Chemscore.DEInternal>
0.6059

> <Gold.Chemscore.Rot>
1.1590

> <Gold.Chemscore.Internal.Correction>
   9.000000E+99

> <Gold.Chemscore.Hbonds>
donor molecule, donor type, donor heavy atom, donor atom, acceptor molecule, acceptor atom, score
      L1  H     9    30       P1  7948  0.78
      L1  H    12    31       P1  7948  0.37

> <Gold.Chemscore.Hbond.Weighted>
-4.0058

> <Gold.Chemscore.Metal.Weighted>
-0.0000

> <Gold.Chemscore.Lipo.Weighted>
-9.1693

> <Gold.Chemscore.Internal_Hbond.Weighted>
0.0000

> <Gold.Chemscore.DEClash.Weighted>
0.0511

> <Gold.Chemscore.DEInternal.Weighted>
0.6059

> <Gold.Chemscore.Rot.Weighted>
2.9671

> <Gold.Chemscore.Internal.Correction.Weighted>
   9.000000E+99

> <Gold.Protein.RotatedTorsions>
[ 6907 6896 6895 6894 ] final  128.15 input  -60.11 | X-H torsion
[ 7974 7965 7964 7962 ] final -148.24 input  175.53 | X-H torsion
[ 8008 7997 7996 7995 ] final -156.70 input   59.86 | X-H torsion
[ 10167 10162 10161 10158 ] final  -55.40 input  -65.29 | X-H torsion
[ 10718 10713 10712 10709 ] final   14.37 input   66.30 | X-H torsion
[ 10763 10752 10751 10750 ] final  151.36 input  -60.55 | X-H torsion
[ 11005 11000 10999 10996 ] final   78.57 input  -57.11 | X-H torsion

> <Gold.Protein.ActiveResidues>
 VAL166  LYS551  ARG553  GLY616  TRP617  ASP618  TYR619  PRO620  LYS621  CYS622 
 ASP623  PHE694  ASN695  SER759  ASP760  ASP761  ALA762  ILE779  LEU786  VAL792 
 PHE793  MET794  SER795  GLU796  ALA797  LYS798  CYS799  TRP800  GLU811  SER814 

> <Gold.Protein.RotatedAtoms>
  152.3746  133.6464  159.6113 H   0  0  0  0  0  0  0  0  0  0  0  0  # atno 6907 bound_to 6896
  150.7694  133.9214  159.3408 H   0  0  0  0  0  0  0  0  0  0  0  0  # atno 6908 bound_to 6896
  151.7031  135.0928  160.0305 H   0  0  0  0  0  0  0  0  0  0  0  0  # atno 6909 bound_to 6896
  144.8042  140.5222  143.5686 H   0  0  0  0  0  0  0  0  0  0  0  0  # atno 7974 bound_to 7965
  155.7212  140.0790  157.2329 H   0  0  0  0  0  0  0  0  0  0  0  0  # atno 8008 bound_to 7997
  154.4045  140.1612  156.2459 H   0  0  0  0  0  0  0  0  0  0  0  0  # atno 8009 bound_to 7997
  155.9194  140.3398  155.6164 H   0  0  0  0  0  0  0  0  0  0  0  0  # atno 8010 bound_to 7997
  140.6377  143.2491  151.5074 H   0  0  0  0  0  0  0  0  0  0  0  0  # atno 10167 bound_to 10162
  157.0382  130.6220  149.5746 H   0  0  0  0  0  0  0  0  0  0  0  0  # atno 10718 bound_to 10713
  154.1024  135.2844  155.3248 H   0  0  0  0  0  0  0  0  0  0  0  0  # atno 10763 bound_to 10752
  154.6546  135.5356  153.7946 H   0  0  0  0  0  0  0  0  0  0  0  0  # atno 10764 bound_to 10752
  153.0374  135.6518  154.1187 H   0  0  0  0  0  0  0  0  0  0  0  0  # atno 10765 bound_to 10752
  139.9207  134.7774  156.1666 H   0  0  0  0  0  0  0  0  0  0  0  0  # atno 11005 bound_to 11000
  145.5479  139.1476  143.3411 LP  0  0  0  0  0  0  0  0  0  0  0  0  # atno 17320 bound_to 7965
  146.2330  140.5617  142.8967 LP  0  0  0  0  0  0  0  0  0  0  0  0  # atno 17321 bound_to 7965
  139.5587  144.2212  152.1655 LP  0  0  0  0  0  0  0  0  0  0  0  0  # atno 17342 bound_to 10162
  140.1473  144.5147  150.6708 LP  0  0  0  0  0  0  0  0  0  0  0  0  # atno 17343 bound_to 10162
  156.0047  130.5132  150.7787 LP  0  0  0  0  0  0  0  0  0  0  0  0  # atno 17370 bound_to 10713
  157.5125  131.0926  151.0180 LP  0  0  0  0  0  0  0  0  0  0  0  0  # atno 17371 bound_to 10713
  141.0726  133.6790  156.2170 LP  0  0  0  0  0  0  0  0  0  0  0  0  # atno 17394 bound_to 11000
  140.6482  134.5094  157.5575 LP  0  0  0  0  0  0  0  0  0  0  0  0  # atno 17395 bound_to 11000

$$$$
