AV-unprocessed.smi:596|AV-procd|sdf|3019|dock7
  -GOLD-   2262023533D 1   1.00000     0.00000
 Structure written by MMmdl.
 41 42  0  0  0  0  0  0  0  0  3 V2000
  147.2884  137.4229  154.8167 O   0  0  0  0  0  0  0  0  0  0  0  0
  146.9019  137.9442  153.7713 C   0  0  0  0  0  0  0  0  0  0  0  0
  147.5988  139.2235  153.2758 C   0  0  0  0  0  0  0  0  0  0  0  0
  148.6888  139.7135  154.1393 N   0  0  0  0  0  0  0  0  0  0  0  0
  149.8478  138.9159  154.2161 C   0  0  0  0  0  0  0  0  0  0  0  0
  150.9103  139.2670  154.9664 C   0  0  0  0  0  0  0  0  0  0  0  0
  152.0969  138.4419  155.0231 N   0  3  0  0  0  0  0  0  0  0  0  0
  153.0632  138.8443  155.6626 O   0  0  0  0  0  0  0  0  0  0  0  0
  152.1035  137.3672  154.4301 O   0  5  0  0  0  0  0  0  0  0  0  0
  150.8285  140.5081  155.7117 C   0  0  0  0  0  0  0  0  0  0  0  0
  149.7246  141.2776  155.6392 C   0  0  0  0  0  0  0  0  0  0  0  0
  148.5730  140.8980  154.8144 C   0  0  0  0  0  0  0  0  0  0  0  0
  147.5688  141.6046  154.7310 O   0  0  0  0  0  0  0  0  0  0  0  0
  145.8966  137.4377  153.0366 N   0  0  0  0  0  0  0  0  0  0  0  0
  145.1456  136.2298  153.3547 C   0  0  0  0  0  0  0  0  0  0  0  0
  146.0576  134.9910  153.3750 C   0  0  0  0  0  0  0  0  0  0  0  0
  145.7011  133.9822  152.2962 C   0  0  0  0  0  0  0  0  0  0  0  0
  146.6275  133.4778  151.4579 C   0  0  0  0  0  0  0  0  0  0  0  0
  146.3320  132.4552  150.3745 C   0  0  0  0  0  0  0  0  0  0  0  0
  144.9509  131.8009  150.5464 C   0  0  0  0  0  0  0  0  0  0  0  0
  143.8854  132.8432  150.9076 C   0  0  0  0  0  0  0  0  0  0  0  0
  144.2348  133.5713  152.2182 C   0  0  0  0  0  0  0  0  0  0  0  0
  147.9626  139.0468  152.2622 H   0  0  0  0  0  0  0  0  0  0  0  0
  146.8383  139.9979  153.1656 H   0  0  0  0  0  0  0  0  0  0  0  0
  149.8114  138.0165  153.6182 H   0  0  0  0  0  0  0  0  0  0  0  0
  151.6510  140.8294  156.3338 H   0  0  0  0  0  0  0  0  0  0  0  0
  149.6849  142.1984  156.2025 H   0  0  0  0  0  0  0  0  0  0  0  0
  145.6362  137.9239  152.1909 H   0  0  0  0  0  0  0  0  0  0  0  0
  144.6344  136.3454  154.3120 H   0  0  0  0  0  0  0  0  0  0  0  0
  144.3685  136.1168  152.5986 H   0  0  0  0  0  0  0  0  0  0  0  0
  147.0993  135.2872  153.2455 H   0  0  0  0  0  0  0  0  0  0  0  0
  145.9967  134.5071  154.3508 H   0  0  0  0  0  0  0  0  0  0  0  0
  147.6541  133.8062  151.5308 H   0  0  0  0  0  0  0  0  0  0  0  0
  146.3924  132.9598  149.4099 H   0  0  0  0  0  0  0  0  0  0  0  0
  147.1079  131.6893  150.3813 H   0  0  0  0  0  0  0  0  0  0  0  0
  144.6731  131.2717  149.6345 H   0  0  0  0  0  0  0  0  0  0  0  0
  144.9984  131.0504  151.3368 H   0  0  0  0  0  0  0  0  0  0  0  0
  143.8074  133.5698  150.0975 H   0  0  0  0  0  0  0  0  0  0  0  0
  142.9065  132.3712  150.9937 H   0  0  0  0  0  0  0  0  0  0  0  0
  144.0164  132.9229  153.0673 H   0  0  0  0  0  0  0  0  0  0  0  0
  143.6021  134.4532  152.3232 H   0  0  0  0  0  0  0  0  0  0  0  0
  1  2  2  0  0  0  0
  2  3  1  0  0  0  0
  2 14  1  0  0  0  0
  3  4  1  0  0  0  0
  3 23  1  0  0  0  0
  3 24  1  0  0  0  0
  4 12  1  0  0  0  0
  4  5  1  0  0  0  0
  5  6  2  0  0  0  0
  5 25  1  0  0  0  0
  6  7  1  0  0  0  0
  6 10  1  0  0  0  0
  7  8  2  0  0  0  0
  7  9  1  0  0  0  0
 10 11  2  0  0  0  0
 10 26  1  0  0  0  0
 11 12  1  0  0  0  0
 11 27  1  0  0  0  0
 12 13  2  0  0  0  0
 14 15  1  0  0  0  0
 14 28  1  0  0  0  0
 15 16  1  0  0  0  0
 15 29  1  0  0  0  0
 15 30  1  0  0  0  0
 16 17  1  0  0  0  0
 16 31  1  0  0  0  0
 16 32  1  0  0  0  0
 17 22  1  0  0  0  0
 17 18  2  0  0  0  0
 18 19  1  0  0  0  0
 18 33  1  0  0  0  0
 19 20  1  0  0  0  0
 19 34  1  0  0  0  0
 19 35  1  0  0  0  0
 20 21  1  0  0  0  0
 20 36  1  0  0  0  0
 20 37  1  0  0  0  0
 21 22  1  0  0  0  0
 21 38  1  0  0  0  0
 21 39  1  0  0  0  0
 22 40  1  0  0  0  0
 22 41  1  0  0  0  0
M  CHG  1   7   1
M  CHG  1   9  -1
M  END
> <s_m_source_file>
AV-unprocessed.smi

> <i_m_source_file_index>
596

> <i_lp_mmshare_version>
43012

> <i_f3d_flags>
0

> <s_epik_input>
Tz1jMVtjSF1bY0hdYyhbTitdKD1PKVtPLV0pW2NIXW4xW0NIMl1DKD1PKVtOSF1bQ0gyXVtDSDJdQzI9W0NIXVtDSDJdW0NIMl1bQ0gyXVtDSDJdMg==

> <s_epik_cmdline>
J2VwaWtfcHl0aG9uJywgJy1waCcsICc3LjAnLCAnLXRuJywgJzgnLCAnLW1hJywgJzIwMCcsICctbWV0YWxfYmluZGluZycsICctaW1hZScsICc8aW5maWxlLm1hZT4nLCAnLW9tYWUnLCAnPG91dGZpbGUubWFlPic=

> <r_lp_tautomer_probability>
1

> <r_epik_Ionization_Penalty>
1.81809e-08

> <r_epik_Ionization_Penalty_Charging>
7.7346e-11

> <r_epik_Ionization_Penalty_Neutral>
1.81035e-08

> <r_epik_State_Penalty>
-0

> <r_epik_Charging_Adjusted_Penalty>
7.7346e-11

> <i_epik_Tot_Q>
0

> <i_epik_Tot_abs_Q>
2

> <r_epik_Metal_State_Penalty>
-0

> <b_epik_Metal_Only>
0

> <s_lp_Force_Field>
OPLS_2005

> <r_lp_Energy>
18.9868

> <b_lp_Chiralities_Consistent>
1

> <s_lp_Variant>
AV-unprocessed.smi:596-1

> <Gold.Version>
5.8.1

> <Gold.Id.Protein>
6NUR|6NUR_protein|mol2

> <Gold.PLP.Fitness>
46.8464

> <Gold.PLP.PLP>
-39.2471

> <Gold.PLP.part.hbond>
-2.0000

> <Gold.PLP.part.metal>
0.0000

> <Gold.PLP.part.buried>
-1.6771

> <Gold.PLP.part.nonpolar>
-35.6710

> <Gold.PLP.part.repulsive>
0.3675

> <Gold.PLP.ligand.clash>
0.0000

> <Gold.PLP.ligand.torsion>
0.5133

> <Gold.PLP.Chemscore.Hbond>
1.8800

> <Gold.PLP.Chemscore.CHOScore>
0.9666

> <Gold.PLP.Chemscore.Metal>
0.0000

> <Gold.Chemscore.Hbonds>
donor molecule, donor type, donor heavy atom, donor atom, acceptor molecule, acceptor atom, score
      P1  H  7997  8008       L1     8  0.98
      P1  H 10752 10765       L1     9  0.80
      L1  C     5    25       P1  7948  0.80

> <Gold.PLP.Chemscore.Internal.Correction>
0.0861

> <Gold.Rescore>
     Score         DG    S(hbond)    S(metal)    S(lipo)     H(rot)  DE(clash)    DE(int)     intcor
     15.18     -16.31       1.85        0.00      83.26       1.98       0.00       1.12       ----

> <Gold.Chemscore.Fitness>
15.1849

> <Gold.Chemscore.DG>
-16.3105

> <Gold.Chemscore.ZeroCoef>
-5.4800

> <Gold.Chemscore.Hbond>
1.8464

> <Gold.Chemscore.Metal>
0.0000

> <Gold.Chemscore.Lipo>
83.2583

> <Gold.Chemscore.Internal_Hbond>
0.0000

> <Gold.Chemscore.DEClash>
0.0045

> <Gold.Chemscore.DEInternal>
1.1211

> <Gold.Chemscore.Rot>
1.9835

> <Gold.Chemscore.Internal.Correction>
   9.000000E+99

> <Gold.Chemscore.Hbonds>
donor molecule, donor type, donor heavy atom, donor atom, acceptor molecule, acceptor atom, score
      P1  H  7997  8008       L1     8  0.93
      P1  H 10752 10765       L1     9  0.79

> <Gold.Chemscore.Hbond.Weighted>
-6.1671

> <Gold.Chemscore.Metal.Weighted>
-0.0000

> <Gold.Chemscore.Lipo.Weighted>
-9.7412

> <Gold.Chemscore.Internal_Hbond.Weighted>
0.0000

> <Gold.Chemscore.DEClash.Weighted>
0.0045

> <Gold.Chemscore.DEInternal.Weighted>
1.1211

> <Gold.Chemscore.Rot.Weighted>
5.0778

> <Gold.Chemscore.Internal.Correction.Weighted>
   9.000000E+99

> <Gold.Protein.RotatedTorsions>
[ 6907 6896 6895 6894 ] final  154.67 input  -60.11 | X-H torsion
[ 7974 7965 7964 7962 ] final   37.47 input  175.53 | X-H torsion
[ 8008 7997 7996 7995 ] final  -15.78 input   59.86 | X-H torsion
[ 10167 10162 10161 10158 ] final   81.62 input  -65.29 | X-H torsion
[ 10718 10713 10712 10709 ] final  145.35 input   66.30 | X-H torsion
[ 10763 10752 10751 10750 ] final  147.62 input  -60.55 | X-H torsion
[ 11005 11000 10999 10996 ] final  -33.05 input  -57.11 | X-H torsion

> <Gold.Protein.ActiveResidues>
 VAL166  LYS551  ARG553  GLY616  TRP617  ASP618  TYR619  PRO620  LYS621  CYS622 
 ASP623  PHE694  ASN695  SER759  ASP760  ASP761  ALA762  ILE779  LEU786  VAL792 
 PHE793  MET794  SER795  GLU796  ALA797  LYS798  CYS799  TRP800  GLU811  SER814 

> <Gold.Protein.RotatedAtoms>
  152.0552  133.4037  159.4393 H   0  0  0  0  0  0  0  0  0  0  0  0  # atno 6907 bound_to 6896
  150.6868  134.3263  159.4817 H   0  0  0  0  0  0  0  0  0  0  0  0  # atno 6908 bound_to 6896
  152.1078  134.9296  160.0618 H   0  0  0  0  0  0  0  0  0  0  0  0  # atno 6909 bound_to 6896
  146.1135  139.5890  142.9337 H   0  0  0  0  0  0  0  0  0  0  0  0  # atno 7974 bound_to 7965
  154.5103  140.2187  155.9169 H   0  0  0  0  0  0  0  0  0  0  0  0  # atno 8008 bound_to 7997
  156.1544  140.3155  155.8668 H   0  0  0  0  0  0  0  0  0  0  0  0  # atno 8009 bound_to 7997
  155.3875  140.0476  157.3032 H   0  0  0  0  0  0  0  0  0  0  0  0  # atno 8010 bound_to 7997
  139.9374  144.6112  150.8285 H   0  0  0  0  0  0  0  0  0  0  0  0  # atno 10167 bound_to 10162
  157.3464  131.0944  151.1038 H   0  0  0  0  0  0  0  0  0  0  0  0  # atno 10718 bound_to 10713
  154.0413  135.2889  155.3354 H   0  0  0  0  0  0  0  0  0  0  0  0  # atno 10763 bound_to 10752
  154.6927  135.5220  153.8418 H   0  0  0  0  0  0  0  0  0  0  0  0  # atno 10764 bound_to 10752
  153.0599  135.6609  154.0617 H   0  0  0  0  0  0  0  0  0  0  0  0  # atno 10765 bound_to 10752
  140.9602  133.7169  156.1358 H   0  0  0  0  0  0  0  0  0  0  0  0  # atno 11005 bound_to 11000
  145.5616  141.0404  143.2223 LP  0  0  0  0  0  0  0  0  0  0  0  0  # atno 17320 bound_to 7965
  144.7532  139.7141  143.7265 LP  0  0  0  0  0  0  0  0  0  0  0  0  # atno 17321 bound_to 7965
  140.7620  143.3189  151.2668 LP  0  0  0  0  0  0  0  0  0  0  0  0  # atno 17342 bound_to 10162
  139.6732  143.9983  152.2766 LP  0  0  0  0  0  0  0  0  0  0  0  0  # atno 17343 bound_to 10162
  157.2231  130.6490  149.5819 LP  0  0  0  0  0  0  0  0  0  0  0  0  # atno 17370 bound_to 10713
  155.9715  130.4623  150.6140 LP  0  0  0  0  0  0  0  0  0  0  0  0  # atno 17371 bound_to 10713
  140.7478  134.4079  157.5546 LP  0  0  0  0  0  0  0  0  0  0  0  0  # atno 17394 bound_to 11000
  139.8875  134.8879  156.2522 LP  0  0  0  0  0  0  0  0  0  0  0  0  # atno 17395 bound_to 11000

$$$$
