AV-unprocessed.smi:2131|AV-procd|sdf|8689|dock1
  -GOLD-   2272011443D 1   1.00000     0.00000
 Structure written by MMmdl.
 41 43  0  0  0  0  0  0  0  0  2 V2000
  146.5718  137.5059  162.1357 N   0  0  0  0  0  0  0  0  0  0  0  0
  147.1660  136.8310  161.4076 C   0  0  0  0  0  0  0  0  0  0  0  0
  147.9213  135.9734  160.4816 C   0  0  0  0  0  0  0  0  0  0  0  0
  148.4085  136.7382  159.2681 C   0  0  0  0  0  0  0  0  0  0  0  0
  147.4855  137.3529  158.4000 C   0  0  0  0  0  0  0  0  0  0  0  0
  147.9412  138.0609  157.2712 C   0  0  0  0  0  0  0  0  0  0  0  0
  149.3195  138.1662  156.9919 C   0  0  0  0  0  0  0  0  0  0  0  0
  149.6774  138.8763  155.8657 O   0  0  0  0  0  0  0  0  0  0  0  0
  150.8823  138.5202  155.2004 C   0  0  0  0  0  0  0  0  0  0  0  0
  151.9832  139.5202  155.5846 C   0  0  2  0  0  0  0  0  0  0  0  0
  153.2350  138.9515  155.2552 O   0  0  0  0  0  0  0  0  0  0  0  0
  151.9470  139.8928  157.0802 C   0  0  0  0  0  0  0  0  0  0  0  0
  151.5033  141.2751  157.3103 N   0  0  0  0  0  0  0  0  0  0  0  0
  150.7016  142.0660  156.5468 C   0  0  0  0  0  0  0  0  0  0  0  0
  150.5845  143.2664  157.1790 N   0  3  0  0  0  0  0  0  0  0  0  0
  151.3229  143.2435  158.3639 C   0  0  0  0  0  0  0  0  0  0  0  0
  151.5119  144.2197  159.3371 C   0  0  0  0  0  0  0  0  0  0  0  0
  152.3335  143.8731  160.4299 C   0  0  0  0  0  0  0  0  0  0  0  0
  152.9309  142.5994  160.5245 C   0  0  0  0  0  0  0  0  0  0  0  0
  152.7320  141.6173  159.5318 C   0  0  0  0  0  0  0  0  0  0  0  0
  151.9171  141.9667  158.4552 C   0  0  0  0  0  0  0  0  0  0  0  0
  150.2430  137.5447  157.8706 C   0  0  0  0  0  0  0  0  0  0  0  0
  149.7877  136.8364  158.9997 C   0  0  0  0  0  0  0  0  0  0  0  0
  148.7671  135.5445  161.0196 H   0  0  0  0  0  0  0  0  0  0  0  0
  147.2784  135.1493  160.1717 H   0  0  0  0  0  0  0  0  0  0  0  0
  146.4259  137.2814  158.5967 H   0  0  0  0  0  0  0  0  0  0  0  0
  147.2243  138.5275  156.6114 H   0  0  0  0  0  0  0  0  0  0  0  0
  151.1870  137.5065  155.4669 H   0  0  0  0  0  0  0  0  0  0  0  0
  150.7212  138.5527  154.1213 H   0  0  0  0  0  0  0  0  0  0  0  0
  151.8678  140.4234  154.9841 H   0  0  0  0  0  0  0  0  0  0  0  0
  153.3453  138.1587  155.7580 H   0  0  0  0  0  0  0  0  0  0  0  0
  151.2483  139.2430  157.6086 H   0  0  0  0  0  0  0  0  0  0  0  0
  152.9182  139.7405  157.5514 H   0  0  0  0  0  0  0  0  0  0  0  0
  150.2426  141.7912  155.6079 H   0  0  0  0  0  0  0  0  0  0  0  0
  151.0566  145.1967  159.2664 H   0  0  0  0  0  0  0  0  0  0  0  0
  152.5100  144.5989  161.2105 H   0  0  0  0  0  0  0  0  0  0  0  0
  153.5563  142.3707  161.3753 H   0  0  0  0  0  0  0  0  0  0  0  0
  153.2000  140.6475  159.6118 H   0  0  0  0  0  0  0  0  0  0  0  0
  151.3076  137.5951  157.7003 H   0  0  0  0  0  0  0  0  0  0  0  0
  150.5018  136.3660  159.6596 H   0  0  0  0  0  0  0  0  0  0  0  0
  150.0415  144.0433  156.8246 H   0  0  0  0  0  0  0  0  0  0  0  0
  1  2  3  0  0  0  0
  2  3  1  0  0  0  0
  3  4  1  0  0  0  0
  3 24  1  0  0  0  0
  3 25  1  0  0  0  0
  4 23  1  0  0  0  0
  4  5  2  0  0  0  0
  5  6  1  0  0  0  0
  5 26  1  0  0  0  0
  6  7  2  0  0  0  0
  6 27  1  0  0  0  0
  7  8  1  0  0  0  0
  7 22  1  0  0  0  0
  8  9  1  0  0  0  0
  9 10  1  0  0  0  0
  9 28  1  0  0  0  0
  9 29  1  0  0  0  0
 10 11  1  0  0  0  0
 10 12  1  0  0  0  0
 10 30  1  0  0  0  0
 11 31  1  0  0  0  0
 12 13  1  0  0  0  0
 12 32  1  0  0  0  0
 12 33  1  0  0  0  0
 13 21  1  0  0  0  0
 13 14  1  0  0  0  0
 14 15  2  0  0  0  0
 14 34  1  0  0  0  0
 15 16  1  0  0  0  0
 15 41  1  0  0  0  0
 16 21  2  0  0  0  0
 16 17  1  0  0  0  0
 17 18  2  0  0  0  0
 17 35  1  0  0  0  0
 18 19  1  0  0  0  0
 18 36  1  0  0  0  0
 19 20  2  0  0  0  0
 19 37  1  0  0  0  0
 20 21  1  0  0  0  0
 20 38  1  0  0  0  0
 22 23  2  0  0  0  0
 22 39  1  0  0  0  0
 23 40  1  0  0  0  0
M  CHG  1  15   1
M  END
> <s_m_source_file>
AV-unprocessed.smi

> <i_m_source_file_index>
2131

> <i_lp_mmshare_version>
43012

> <i_f3d_flags>
0

> <s_epik_input>
TiNDW0NIMl1jMVtjSF1bY0hdYyhbY0hdW2NIXTEpT1tDSDJdW0NASF0oW09IXSlbQ0gyXW4oW2NIXW4yKWMoYzIzKVtjSF1bY0hdW2NIXVtjSF0z

> <s_epik_cmdline>
J2VwaWtfcHl0aG9uJywgJy1waCcsICc3LjAnLCAnLXRuJywgJzgnLCAnLW1hJywgJzIwMCcsICctbWV0YWxfYmluZGluZycsICctaW1hZScsICc8aW5maWxlLm1hZT4nLCAnLW9tYWUnLCAnPG91dGZpbGUubWFlPic=

> <r_lp_tautomer_probability>
1

> <r_epik_Ionization_Penalty>
1.3774

> <r_epik_Ionization_Penalty_Charging>
1.37739

> <r_epik_Ionization_Penalty_Neutral>
2.3994e-06

> <r_epik_State_Penalty>
1.45762

> <r_epik_Charging_Adjusted_Penalty>
2.83501

> <i_epik_Tot_Q>
1

> <i_epik_Tot_abs_Q>
1

> <r_epik_Metal_State_Penalty>
5.49752

> <b_epik_Metal_Only>
0

> <s_lp_Force_Field>
OPLS_2005

> <r_lp_Energy>
20.896

> <b_lp_Chiralities_Consistent>
1

> <s_lp_Variant>
AV-unprocessed.smi:2131-3

> <Gold.Version>
5.8.1

> <Gold.Id.Protein>
6NUR|6NUR_protein|mol2

> <Gold.PLP.Fitness>
50.4646

> <Gold.PLP.PLP>
-43.9198

> <Gold.PLP.part.hbond>
-3.7693

> <Gold.PLP.part.metal>
0.0000

> <Gold.PLP.part.buried>
-4.9305

> <Gold.PLP.part.nonpolar>
-35.8564

> <Gold.PLP.part.repulsive>
0.0192

> <Gold.PLP.ligand.clash>
0.0000

> <Gold.PLP.ligand.torsion>
1.8857

> <Gold.PLP.Chemscore.Hbond>
3.3168

> <Gold.PLP.Chemscore.CHOScore>
0.0000

> <Gold.PLP.Chemscore.Metal>
0.0000

> <Gold.Chemscore.Hbonds>
donor molecule, donor type, donor heavy atom, donor atom, acceptor molecule, acceptor atom, score
      L1  H    15    41       P1  8028  2.00
      P1  H  6934  6947       L1     1  0.22
      P1  H  7997  8010       L1    11  1.00

> <Gold.PLP.Chemscore.Internal.Correction>
0.3658

> <Gold.Rescore>
     Score         DG    S(hbond)    S(metal)    S(lipo)     H(rot)  DE(clash)    DE(int)     intcor
     13.84     -15.73       1.56        0.00     104.80       2.81       0.02       1.87       ----

> <Gold.Chemscore.Fitness>
13.8423

> <Gold.Chemscore.DG>
-15.7345

> <Gold.Chemscore.ZeroCoef>
-5.4800

> <Gold.Chemscore.Hbond>
1.5558

> <Gold.Chemscore.Metal>
0.0000

> <Gold.Chemscore.Lipo>
104.8046

> <Gold.Chemscore.Internal_Hbond>
0.0000

> <Gold.Chemscore.DEClash>
0.0181

> <Gold.Chemscore.DEInternal>
1.8741

> <Gold.Chemscore.Rot>
2.8140

> <Gold.Chemscore.Internal.Correction>
   9.000000E+99

> <Gold.Chemscore.Hbonds>
donor molecule, donor type, donor heavy atom, donor atom, acceptor molecule, acceptor atom, score
      L1  H    15    41       P1  8028  0.94
      P1  H  7997  8010       L1    11  0.27

> <Gold.Chemscore.Hbond.Weighted>
-5.1963

> <Gold.Chemscore.Metal.Weighted>
-0.0000

> <Gold.Chemscore.Lipo.Weighted>
-12.2621

> <Gold.Chemscore.Internal_Hbond.Weighted>
0.0000

> <Gold.Chemscore.DEClash.Weighted>
0.0181

> <Gold.Chemscore.DEInternal.Weighted>
1.8741

> <Gold.Chemscore.Rot.Weighted>
7.2039

> <Gold.Chemscore.Internal.Correction.Weighted>
   9.000000E+99

> <Gold.Protein.RotatedTorsions>
[ 6907 6896 6895 6894 ] final -167.57 input  -60.11 | X-H torsion
[ 7974 7965 7964 7962 ] final  -57.25 input  175.53 | X-H torsion
[ 8008 7997 7996 7995 ] final  105.62 input   59.86 | X-H torsion
[ 10167 10162 10161 10158 ] final  -52.24 input  -65.29 | X-H torsion
[ 10718 10713 10712 10709 ] final  -66.13 input   66.30 | X-H torsion
[ 10763 10752 10751 10750 ] final -178.94 input  -60.55 | X-H torsion
[ 11005 11000 10999 10996 ] final  -91.11 input  -57.11 | X-H torsion

> <Gold.Protein.ActiveResidues>
 VAL166  LYS551  ARG553  GLY616  TRP617  ASP618  TYR619  PRO620  LYS621  CYS622 
 ASP623  PHE694  ASN695  SER759  ASP760  ASP761  ALA762  ILE779  LEU786  VAL792 
 PHE793  MET794  SER795  GLU796  ALA797  LYS798  CYS799  TRP800  GLU811  SER814 

> <Gold.Protein.RotatedAtoms>
  151.4616  133.3591  159.2809 H   0  0  0  0  0  0  0  0  0  0  0  0  # atno 6907 bound_to 6896
  150.9022  134.8436  159.7378 H   0  0  0  0  0  0  0  0  0  0  0  0  # atno 6908 bound_to 6896
  152.4885  134.4537  159.9635 H   0  0  0  0  0  0  0  0  0  0  0  0  # atno 6909 bound_to 6896
  145.8532  140.8337  142.9975 H   0  0  0  0  0  0  0  0  0  0  0  0  # atno 7974 bound_to 7965
  156.1674  140.3127  155.8913 H   0  0  0  0  0  0  0  0  0  0  0  0  # atno 8008 bound_to 7997
  155.3658  140.0479  157.3063 H   0  0  0  0  0  0  0  0  0  0  0  0  # atno 8009 bound_to 7997
  154.5206  140.2197  155.8993 H   0  0  0  0  0  0  0  0  0  0  0  0  # atno 8010 bound_to 7997
  140.6547  143.2591  151.4620 H   0  0  0  0  0  0  0  0  0  0  0  0  # atno 10167 bound_to 10162
  156.0630  130.4257  150.1664 H   0  0  0  0  0  0  0  0  0  0  0  0  # atno 10718 bound_to 10713
  154.5413  135.2806  155.1093 H   0  0  0  0  0  0  0  0  0  0  0  0  # atno 10763 bound_to 10752
  154.2574  135.6328  153.5266 H   0  0  0  0  0  0  0  0  0  0  0  0  # atno 10764 bound_to 10752
  152.9979  135.5597  154.5953 H   0  0  0  0  0  0  0  0  0  0  0  0  # atno 10765 bound_to 10752
  141.1552  133.7734  156.9832 H   0  0  0  0  0  0  0  0  0  0  0  0  # atno 11005 bound_to 11000
  144.6728  140.0985  143.7461 LP  0  0  0  0  0  0  0  0  0  0  0  0  # atno 17320 bound_to 7965
  145.9333  139.2620  143.1312 LP  0  0  0  0  0  0  0  0  0  0  0  0  # atno 17321 bound_to 7965
  139.5768  144.1801  152.1914 LP  0  0  0  0  0  0  0  0  0  0  0  0  # atno 17342 bound_to 10162
  140.1114  144.5454  150.6922 LP  0  0  0  0  0  0  0  0  0  0  0  0  # atno 17343 bound_to 10162
  156.9729  130.9840  151.3455 LP  0  0  0  0  0  0  0  0  0  0  0  0  # atno 17370 bound_to 10713
  157.5652  130.8272  149.8318 LP  0  0  0  0  0  0  0  0  0  0  0  0  # atno 17371 bound_to 10713
  140.1052  134.9511  157.1983 LP  0  0  0  0  0  0  0  0  0  0  0  0  # atno 17394 bound_to 11000
  140.3266  134.2856  155.7236 LP  0  0  0  0  0  0  0  0  0  0  0  0  # atno 17395 bound_to 11000

$$$$
