AV-unprocessed.smi:1388|AV-procd|sdf|5645|dock10
  -GOLD-   22720 5263D 1   1.00000     0.00000
 Structure written by MMmdl.
 45 46  0  0  0  0  0  0  0  0  3 V2000
  148.9814  134.1959  157.2620 C   0  0  0  0  0  0  0  0  0  0  0  0
  150.4094  134.4506  157.4123 N   0  5  0  0  0  0  0  0  0  0  0  0
  151.1692  135.0531  156.4562 C   0  0  0  0  0  0  0  0  0  0  0  0
  152.2694  135.6087  156.5332 O   0  0  0  0  0  0  0  0  0  0  0  0
  150.4818  134.9925  155.0864 C   0  0  0  0  0  0  0  0  0  0  0  0
  150.1241  136.3538  154.6110 N   0  3  2  0  0  0  0  0  0  0  0  0
  151.3014  137.2554  154.5410 C   0  0  0  0  0  0  0  0  0  0  0  0
  150.9327  138.6089  153.9064 C   0  0  0  0  0  0  0  0  0  0  0  0
  149.7648  139.2912  154.6389 C   0  0  2  0  0  0  0  0  0  0  0  0
  150.1977  139.7738  155.9500 N   0  0  0  0  0  0  0  0  0  0  0  0
  150.2622  141.0606  156.3222 C   0  0  0  0  0  0  0  0  0  0  0  0
  149.9454  141.9956  155.5866 O   0  0  0  0  0  0  0  0  0  0  0  0
  150.7096  141.1773  157.5851 N   0  0  0  0  0  0  0  0  0  0  0  0
  150.9336  142.3631  158.3403 C   0  0  0  0  0  0  0  0  0  0  0  0
  150.0602  143.4011  158.3490 N   0  0  0  0  0  0  0  0  0  0  0  0
  150.3368  144.4973  159.0845 C   0  0  0  0  0  0  0  0  0  0  0  0
  151.5020  144.6278  159.8591 C   0  0  0  0  0  0  0  0  0  0  0  0
  152.4167  143.5609  159.8627 C   0  0  0  0  0  0  0  0  0  0  0  0
  152.1357  142.4100  159.0959 C   0  0  0  0  0  0  0  0  0  0  0  0
  153.1243  141.2553  159.0987 C   0  0  0  0  0  0  0  0  0  0  0  0
  148.5806  138.3111  154.7519 C   0  0  0  0  0  0  0  0  0  0  0  0
  149.0016  136.9664  155.3705 C   0  0  0  0  0  0  0  0  0  0  0  0
  148.5769  133.6472  158.1122 H   0  0  0  0  0  0  0  0  0  0  0  0
  148.7556  133.6012  156.3763 H   0  0  0  0  0  0  0  0  0  0  0  0
  148.4010  135.1155  157.1820 H   0  0  0  0  0  0  0  0  0  0  0  0
  151.1182  134.4902  154.3560 H   0  0  0  0  0  0  0  0  0  0  0  0
  149.5855  134.3786  155.1915 H   0  0  0  0  0  0  0  0  0  0  0  0
  151.7086  137.4012  155.5426 H   0  0  0  0  0  0  0  0  0  0  0  0
  152.0864  136.7869  153.9461 H   0  0  0  0  0  0  0  0  0  0  0  0
  151.8039  139.2650  153.8888 H   0  0  0  0  0  0  0  0  0  0  0  0
  150.6547  138.4475  152.8639 H   0  0  0  0  0  0  0  0  0  0  0  0
  149.4529  140.1539  154.0471 H   0  0  0  0  0  0  0  0  0  0  0  0
  150.4818  139.0741  156.6198 H   0  0  0  0  0  0  0  0  0  0  0  0
  150.9228  140.3158  158.0649 H   0  0  0  0  0  0  0  0  0  0  0  0
  149.6073  145.2931  159.0535 H   0  0  0  0  0  0  0  0  0  0  0  0
  151.6886  145.5221  160.4351 H   0  0  0  0  0  0  0  0  0  0  0  0
  153.3219  143.6285  160.4478 H   0  0  0  0  0  0  0  0  0  0  0  0
  153.9824  141.4689  159.7367 H   0  0  0  0  0  0  0  0  0  0  0  0
  153.4950  141.0671  158.0906 H   0  0  0  0  0  0  0  0  0  0  0  0
  152.6492  140.3468  159.4699 H   0  0  0  0  0  0  0  0  0  0  0  0
  147.7692  138.7529  155.3316 H   0  0  0  0  0  0  0  0  0  0  0  0
  148.1726  138.1288  153.7566 H   0  0  0  0  0  0  0  0  0  0  0  0
  148.1419  136.2957  155.3745 H   0  0  0  0  0  0  0  0  0  0  0  0
  149.2958  137.1041  156.4121 H   0  0  0  0  0  0  0  0  0  0  0  0
  149.8032  136.2265  153.6608 H   0  0  0  0  0  0  0  0  0  0  0  0
  1  2  1  0  0  0  0
  1 23  1  0  0  0  0
  1 24  1  0  0  0  0
  1 25  1  0  0  0  0
  2  3  1  0  0  0  0
  3  4  2  0  0  0  0
  3  5  1  0  0  0  0
  5  6  1  0  0  0  0
  5 26  1  0  0  0  0
  5 27  1  0  0  0  0
  6 22  1  0  0  0  0
  6  7  1  0  0  0  0
  6 45  1  0  0  0  0
  7  8  1  0  0  0  0
  7 28  1  0  0  0  0
  7 29  1  0  0  0  0
  8  9  1  0  0  0  0
  8 30  1  0  0  0  0
  8 31  1  0  0  0  0
  9 10  1  0  0  0  0
  9 21  1  0  0  0  0
  9 32  1  0  0  0  0
 10 11  1  0  0  0  0
 10 33  1  0  0  0  0
 11 12  2  0  0  0  0
 11 13  1  0  0  0  0
 13 14  1  0  0  0  0
 13 34  1  0  0  0  0
 14 19  1  0  0  0  0
 14 15  2  0  0  0  0
 15 16  1  0  0  0  0
 16 17  2  0  0  0  0
 16 35  1  0  0  0  0
 17 18  1  0  0  0  0
 17 36  1  0  0  0  0
 18 19  2  0  0  0  0
 18 37  1  0  0  0  0
 19 20  1  0  0  0  0
 20 38  1  0  0  0  0
 20 39  1  0  0  0  0
 20 40  1  0  0  0  0
 21 22  1  0  0  0  0
 21 41  1  0  0  0  0
 21 42  1  0  0  0  0
 22 43  1  0  0  0  0
 22 44  1  0  0  0  0
M  CHG  1   2  -1
M  CHG  1   6   1
M  END
> <s_m_source_file>
AV-unprocessed.smi

> <i_m_source_file_index>
1388

> <i_lp_mmshare_version>
43012

> <i_f3d_flags>
0

> <s_epik_input>
W0NIM11bTkhdQyg9TylbQ0gyXU4xW0NIMl1bQ0gyXVtDSF0oW0NIMl1bQ0gyXTEpW05IXUMoPU8pW05IXWMybltjSF1bY0hdW2NIXWMyW0NIM10=

> <s_epik_cmdline>
J2VwaWtfcHl0aG9uJywgJy1waCcsICc3LjAnLCAnLXRuJywgJzgnLCAnLW1hJywgJzIwMCcsICctbWV0YWxfYmluZGluZycsICctaW1hZScsICc8aW5maWxlLm1hZT4nLCAnLW9tYWUnLCAnPG91dGZpbGUubWFlPic=

> <r_epik_Ionization_Penalty>
6.13951

> <r_epik_Ionization_Penalty_Charging>
6.13946

> <r_epik_Ionization_Penalty_Neutral>
4.54304e-05

> <r_epik_State_Penalty>
6.9595

> <r_epik_Charging_Adjusted_Penalty>
13.099

> <i_epik_Tot_Q>
0

> <i_epik_Tot_abs_Q>
2

> <r_epik_Metal_State_Penalty>
2.89141

> <b_epik_Metal_Only>
1

> <s_lp_Force_Field>
OPLS_2005

> <r_lp_Energy>
12.9207

> <b_lp_Chiralities_Consistent>
1

> <s_lp_Variant>
AV-unprocessed.smi:1388-5

> <Gold.Version>
5.8.1

> <Gold.Id.Protein>
6NUR|6NUR_protein|mol2

> <Gold.PLP.Fitness>
49.8646

> <Gold.PLP.PLP>
-34.0576

> <Gold.PLP.part.hbond>
-3.0000

> <Gold.PLP.part.metal>
0.0000

> <Gold.PLP.part.buried>
-6.1249

> <Gold.PLP.part.nonpolar>
-27.1403

> <Gold.PLP.part.repulsive>
1.4240

> <Gold.PLP.ligand.clash>
0.0000

> <Gold.PLP.ligand.torsion>
0.5132

> <Gold.PLP.Chemscore.Hbond>
4.6960

> <Gold.PLP.Chemscore.CHOScore>
0.8850

> <Gold.PLP.Chemscore.Metal>
0.0000

> <Gold.Chemscore.Hbonds>
donor molecule, donor type, donor heavy atom, donor atom, acceptor molecule, acceptor atom, score
      L1  H     6    45       P1  7948  2.00
      P1  H  6896  6909       L1     2  1.28
      P1  H 10752 10763       L1     4  1.00
      L1  C    16    35       P1  8029  0.96

> <Gold.PLP.Chemscore.Internal.Correction>
0.0902

> <Gold.Rescore>
     Score         DG    S(hbond)    S(metal)    S(lipo)     H(rot)  DE(clash)    DE(int)     intcor
     17.03     -20.03       2.58        0.00      86.37       1.63       1.06       1.94       ----

> <Gold.Chemscore.Fitness>
17.0251

> <Gold.Chemscore.DG>
-20.0261

> <Gold.Chemscore.ZeroCoef>
-5.4800

> <Gold.Chemscore.Hbond>
2.5790

> <Gold.Chemscore.Metal>
0.0000

> <Gold.Chemscore.Lipo>
86.3739

> <Gold.Chemscore.Internal_Hbond>
0.0000

> <Gold.Chemscore.DEClash>
1.0635

> <Gold.Chemscore.DEInternal>
1.9374

> <Gold.Chemscore.Rot>
1.6303

> <Gold.Chemscore.Internal.Correction>
   9.000000E+99

> <Gold.Chemscore.Hbonds>
donor molecule, donor type, donor heavy atom, donor atom, acceptor molecule, acceptor atom, score
      L1  H     6    45       P1  7948  0.25
      P1  H  6896  6909       L1     2  0.22
      P1  H 10752 10763       L1     4  0.94

> <Gold.Chemscore.Hbond.Weighted>
-8.6138

> <Gold.Chemscore.Metal.Weighted>
-0.0000

> <Gold.Chemscore.Lipo.Weighted>
-10.1057

> <Gold.Chemscore.Internal_Hbond.Weighted>
0.0000

> <Gold.Chemscore.DEClash.Weighted>
1.0635

> <Gold.Chemscore.DEInternal.Weighted>
1.9374

> <Gold.Chemscore.Rot.Weighted>
4.1735

> <Gold.Chemscore.Internal.Correction.Weighted>
   9.000000E+99

> <Gold.Protein.RotatedTorsions>
[ 6907 6896 6895 6894 ] final   19.48 input  -60.11 | X-H torsion
[ 7974 7965 7964 7962 ] final   99.35 input  175.53 | X-H torsion
[ 8008 7997 7996 7995 ] final   70.25 input   59.86 | X-H torsion
[ 10167 10162 10161 10158 ] final   -0.11 input  -65.29 | X-H torsion
[ 10718 10713 10712 10709 ] final   70.87 input   66.30 | X-H torsion
[ 10763 10752 10751 10750 ] final  103.90 input  -60.55 | X-H torsion
[ 11005 11000 10999 10996 ] final  165.05 input  -57.11 | X-H torsion

> <Gold.Protein.ActiveResidues>
 VAL166  LYS551  ARG553  GLY616  TRP617  ASP618  TYR619  PRO620  LYS621  CYS622 
 ASP623  PHE694  ASN695  SER759  ASP760  ASP761  ALA762  ILE779  LEU786  VAL792 
 PHE793  MET794  SER795  GLU796  ALA797  LYS798  CYS799  TRP800  GLU811  SER814 

> <Gold.Protein.RotatedAtoms>
  151.8815  135.0452  160.0488 H   0  0  0  0  0  0  0  0  0  0  0  0  # atno 6907 bound_to 6896
  152.2509  133.5210  159.5333 H   0  0  0  0  0  0  0  0  0  0  0  0  # atno 6908 bound_to 6896
  150.7083  134.0878  159.3963 H   0  0  0  0  0  0  0  0  0  0  0  0  # atno 6909 bound_to 6896
  145.4000  139.2349  143.3305 H   0  0  0  0  0  0  0  0  0  0  0  0  # atno 7974 bound_to 7965
  155.7360  140.3491  155.5081 H   0  0  0  0  0  0  0  0  0  0  0  0  # atno 8008 bound_to 7997
  155.9139  140.1055  157.1280 H   0  0  0  0  0  0  0  0  0  0  0  0  # atno 8009 bound_to 7997
  154.4060  140.1262  156.4579 H   0  0  0  0  0  0  0  0  0  0  0  0  # atno 8010 bound_to 7997
  140.6753  143.6933  150.8010 H   0  0  0  0  0  0  0  0  0  0  0  0  # atno 10167 bound_to 10162
  157.6422  130.9499  150.0710 H   0  0  0  0  0  0  0  0  0  0  0  0  # atno 10718 bound_to 10713
  153.3588  135.3961  155.1703 H   0  0  0  0  0  0  0  0  0  0  0  0  # atno 10763 bound_to 10752
  154.8675  135.3674  154.5126 H   0  0  0  0  0  0  0  0  0  0  0  0  # atno 10764 bound_to 10752
  153.5583  135.7081  153.5619 H   0  0  0  0  0  0  0  0  0  0  0  0  # atno 10765 bound_to 10752
  140.2522  134.7968  157.3512 H   0  0  0  0  0  0  0  0  0  0  0  0  # atno 11005 bound_to 11000
  146.2756  140.4696  142.8797 LP  0  0  0  0  0  0  0  0  0  0  0  0  # atno 17320 bound_to 7965
  144.8380  140.6813  143.6248 LP  0  0  0  0  0  0  0  0  0  0  0  0  # atno 17321 bound_to 7965
  140.0625  143.5140  152.2620 LP  0  0  0  0  0  0  0  0  0  0  0  0  # atno 17342 bound_to 10162
  139.6042  144.7591  151.3100 LP  0  0  0  0  0  0  0  0  0  0  0  0  # atno 17343 bound_to 10162
  156.1714  130.3646  149.9159 LP  0  0  0  0  0  0  0  0  0  0  0  0  # atno 17370 bound_to 10713
  156.7134  130.8979  151.3611 LP  0  0  0  0  0  0  0  0  0  0  0  0  # atno 17371 bound_to 10713
  140.1547  134.4805  155.7936 LP  0  0  0  0  0  0  0  0  0  0  0  0  # atno 17394 bound_to 11000
  141.2200  133.6877  156.7440 LP  0  0  0  0  0  0  0  0  0  0  0  0  # atno 17395 bound_to 11000

$$$$
