AV-unprocessed.smi:1749|AV-procd|sdf|7047|dock7
  -GOLD-   22720 8263D 1   1.00000     0.00000
 Structure written by MMmdl.
 32 33  0  0  0  0  0  0  0  0  1 V2000
  146.3901  132.1246  151.9917 C   0  0  0  0  0  0  0  0  0  0  0  0
  146.1641  133.6421  151.9430 C   0  0  1  0  0  0  0  0  0  0  0  0
  145.1995  134.0320  150.8067 C   0  0  0  0  0  0  0  0  0  0  0  0
  144.9670  135.5504  150.7573 C   0  0  0  0  0  0  0  0  0  0  0  0
  144.4624  136.0845  152.1093 C   0  0  0  0  0  0  0  0  0  0  0  0
  145.4004  135.7020  153.2702 C   0  0  2  0  0  0  0  0  0  0  0  0
  146.6581  136.4368  153.1605 N   0  0  0  0  0  0  0  0  0  0  0  0
  146.9632  137.5830  153.7905 C   0  0  0  0  0  0  0  0  0  0  0  0
  146.1654  138.1810  154.5105 O   0  0  0  0  0  0  0  0  0  0  0  0
  148.2094  138.0594  153.5839 N   0  0  0  0  0  0  0  0  0  0  0  0
  148.8643  139.2244  154.0800 C   0  0  0  0  0  0  0  0  0  0  0  0
  150.1189  139.2433  154.5602 N   0  0  0  0  0  0  0  0  0  0  0  0
  150.4935  140.5067  154.9960 N   0  0  0  0  0  0  0  0  0  0  0  0
  149.5043  141.3907  154.8412 C   0  0  0  0  0  0  0  0  0  0  0  0
  148.0185  140.7643  154.1484 S   0  0  0  0  0  0  0  0  0  0  0  0
  145.6489  134.1784  153.2956 C   0  0  0  0  0  0  0  0  0  0  0  0
  145.4611  131.5909  152.1934 H   0  0  0  0  0  0  0  0  0  0  0  0
  147.1029  131.8596  152.7730 H   0  0  0  0  0  0  0  0  0  0  0  0
  146.7872  131.7565  151.0454 H   0  0  0  0  0  0  0  0  0  0  0  0
  147.1301  134.1061  151.7376 H   0  0  0  0  0  0  0  0  0  0  0  0
  145.5948  133.6930  149.8486 H   0  0  0  0  0  0  0  0  0  0  0  0
  144.2442  133.5235  150.9433 H   0  0  0  0  0  0  0  0  0  0  0  0
  145.8948  136.0538  150.4825 H   0  0  0  0  0  0  0  0  0  0  0  0
  144.2468  135.7890  149.9743 H   0  0  0  0  0  0  0  0  0  0  0  0
  144.3410  137.1674  152.0621 H   0  0  0  0  0  0  0  0  0  0  0  0
  143.4696  135.6768  152.3036 H   0  0  0  0  0  0  0  0  0  0  0  0
  144.9142  135.9933  154.2031 H   0  0  0  0  0  0  0  0  0  0  0  0
  147.3737  136.0175  152.5836 H   0  0  0  0  0  0  0  0  0  0  0  0
  148.7527  137.5307  152.9170 H   0  0  0  0  0  0  0  0  0  0  0  0
  149.6491  142.4181  155.1404 H   0  0  0  0  0  0  0  0  0  0  0  0
  144.7164  133.6728  153.5501 H   0  0  0  0  0  0  0  0  0  0  0  0
  146.3519  133.9266  154.0907 H   0  0  0  0  0  0  0  0  0  0  0  0
  1  2  1  0  0  0  0
  1 17  1  0  0  0  0
  1 18  1  0  0  0  0
  1 19  1  0  0  0  0
  2 16  1  0  0  0  0
  2  3  1  0  0  0  0
  2 20  1  0  0  0  0
  3  4  1  0  0  0  0
  3 21  1  0  0  0  0
  3 22  1  0  0  0  0
  4  5  1  0  0  0  0
  4 23  1  0  0  0  0
  4 24  1  0  0  0  0
  5  6  1  0  0  0  0
  5 25  1  0  0  0  0
  5 26  1  0  0  0  0
  6  7  1  0  0  0  0
  6 16  1  0  0  0  0
  6 27  1  0  0  0  0
  7  8  1  0  0  0  0
  7 28  1  0  0  0  0
  8  9  2  0  0  0  0
  8 10  1  0  0  0  0
 10 11  1  0  0  0  0
 10 29  1  0  0  0  0
 11 15  1  0  0  0  0
 11 12  2  0  0  0  0
 12 13  1  0  0  0  0
 13 14  2  0  0  0  0
 14 15  1  0  0  0  0
 14 30  1  0  0  0  0
 16 31  1  0  0  0  0
 16 32  1  0  0  0  0
M  END
> <s_m_source_file>
AV-unprocessed.smi

> <i_m_source_file_index>
1749

> <i_lp_mmshare_version>
43012

> <i_f3d_flags>
0

> <s_epik_input>
W0NIM11bQ0BASF0xW0NIMl1bQ0gyXVtDSDJdW0NASF0oW0NIMl0xKVtOSF1DKD1PKVtOSF1jMm5uW2NIXXMy

> <s_epik_cmdline>
J2VwaWtfcHl0aG9uJywgJy1waCcsICc3LjAnLCAnLXRuJywgJzgnLCAnLW1hJywgJzIwMCcsICctbWV0YWxfYmluZGluZycsICctaW1hZScsICc8aW5maWxlLm1hZT4nLCAnLW9tYWUnLCAnPG91dGZpbGUubWFlPic=

> <r_lp_tautomer_probability>
1

> <r_epik_Ionization_Penalty>
0.000318591

> <r_epik_Ionization_Penalty_Charging>
0

> <r_epik_Ionization_Penalty_Neutral>
0.000318591

> <r_epik_State_Penalty>
-0

> <r_epik_Charging_Adjusted_Penalty>
0

> <i_epik_Tot_Q>
0

> <i_epik_Tot_abs_Q>
0

> <r_epik_Metal_State_Penalty>
0.169791

> <b_epik_Metal_Only>
0

> <s_lp_Force_Field>
OPLS_2005

> <r_lp_Energy>
10.2473

> <b_lp_Chiralities_Consistent>
1

> <s_lp_Variant>
AV-unprocessed.smi:1749-4

> <Gold.Version>
5.8.1

> <Gold.Id.Protein>
6NUR|6NUR_protein|mol2

> <Gold.PLP.Fitness>
33.6051

> <Gold.PLP.PLP>
-23.7736

> <Gold.PLP.part.hbond>
-3.0000

> <Gold.PLP.part.metal>
0.0000

> <Gold.PLP.part.buried>
-2.8571

> <Gold.PLP.part.nonpolar>
-18.3751

> <Gold.PLP.part.repulsive>
0.3321

> <Gold.PLP.ligand.clash>
0.0000

> <Gold.PLP.ligand.torsion>
0.6790

> <Gold.PLP.Chemscore.Hbond>
2.7280

> <Gold.PLP.Chemscore.CHOScore>
1.0000

> <Gold.PLP.Chemscore.Metal>
0.0000

> <Gold.Chemscore.Hbonds>
donor molecule, donor type, donor heavy atom, donor atom, acceptor molecule, acceptor atom, score
      L1  H     7    28       P1  7948  0.93
      L1  H    10    29       P1  7948  1.00
      P1  H  7989  7998       L1    13  0.80
      L1  C    14    30       P1  8028  1.00

> <Gold.PLP.Chemscore.Internal.Correction>
0.0054

> <Gold.Rescore>
     Score         DG    S(hbond)    S(metal)    S(lipo)     H(rot)  DE(clash)    DE(int)     intcor
     14.42     -15.07       1.92        0.00      49.08       1.00       0.04       0.61       ----

> <Gold.Chemscore.Fitness>
14.4210

> <Gold.Chemscore.DG>
-15.0676

> <Gold.Chemscore.ZeroCoef>
-5.4800

> <Gold.Chemscore.Hbond>
1.9176

> <Gold.Chemscore.Metal>
0.0000

> <Gold.Chemscore.Lipo>
49.0828

> <Gold.Chemscore.Internal_Hbond>
0.0000

> <Gold.Chemscore.DEClash>
0.0356

> <Gold.Chemscore.DEInternal>
0.6110

> <Gold.Chemscore.Rot>
1.0000

> <Gold.Chemscore.Internal.Correction>
   9.000000E+99

> <Gold.Chemscore.Hbonds>
donor molecule, donor type, donor heavy atom, donor atom, acceptor molecule, acceptor atom, score
      L1  H     7    28       P1  7948  0.91
      L1  H    10    29       P1  7948  0.97
      P1  H  7989  7998       L1    13  0.04

> <Gold.Chemscore.Hbond.Weighted>
-6.4049

> <Gold.Chemscore.Metal.Weighted>
-0.0000

> <Gold.Chemscore.Lipo.Weighted>
-5.7427

> <Gold.Chemscore.Internal_Hbond.Weighted>
0.0000

> <Gold.Chemscore.DEClash.Weighted>
0.0356

> <Gold.Chemscore.DEInternal.Weighted>
0.6110

> <Gold.Chemscore.Rot.Weighted>
2.5600

> <Gold.Chemscore.Internal.Correction.Weighted>
   9.000000E+99

> <Gold.Protein.RotatedTorsions>
[ 6907 6896 6895 6894 ] final -169.99 input  -60.11 | X-H torsion
[ 7974 7965 7964 7962 ] final   52.74 input  175.53 | X-H torsion
[ 8008 7997 7996 7995 ] final  106.37 input   59.86 | X-H torsion
[ 10167 10162 10161 10158 ] final  157.89 input  -65.29 | X-H torsion
[ 10718 10713 10712 10709 ] final  179.76 input   66.30 | X-H torsion
[ 10763 10752 10751 10750 ] final   75.28 input  -60.55 | X-H torsion
[ 11005 11000 10999 10996 ] final   54.36 input  -57.11 | X-H torsion

> <Gold.Protein.ActiveResidues>
 VAL166  LYS551  ARG553  GLY616  TRP617  ASP618  TYR619  PRO620  LYS621  CYS622 
 ASP623  PHE694  ASN695  SER759  ASP760  ASP761  ALA762  ILE779  LEU786  VAL792 
 PHE793  MET794  SER795  GLU796  ALA797  LYS798  CYS799  TRP800  GLU811  SER814 

> <Gold.Protein.RotatedAtoms>
  151.5005  133.3505  159.2867 H   0  0  0  0  0  0  0  0  0  0  0  0  # atno 6907 bound_to 6896
  150.8776  134.8163  159.7212 H   0  0  0  0  0  0  0  0  0  0  0  0  # atno 6908 bound_to 6896
  152.4741  134.4899  159.9743 H   0  0  0  0  0  0  0  0  0  0  0  0  # atno 6909 bound_to 6896
  145.9783  139.4216  143.0148 H   0  0  0  0  0  0  0  0  0  0  0  0  # atno 7974 bound_to 7965
  156.1737  140.3114  155.9021 H   0  0  0  0  0  0  0  0  0  0  0  0  # atno 8008 bound_to 7997
  155.3532  140.0472  157.3063 H   0  0  0  0  0  0  0  0  0  0  0  0  # atno 8009 bound_to 7997
  154.5268  140.2217  155.8886 H   0  0  0  0  0  0  0  0  0  0  0  0  # atno 8010 bound_to 7997
  139.4824  144.4875  151.8355 H   0  0  0  0  0  0  0  0  0  0  0  0  # atno 10167 bound_to 10162
  156.8710  130.9783  151.3073 H   0  0  0  0  0  0  0  0  0  0  0  0  # atno 10718 bound_to 10713
  153.0644  135.4994  154.8166 H   0  0  0  0  0  0  0  0  0  0  0  0  # atno 10763 bound_to 10752
  154.6931  135.2988  154.9453 H   0  0  0  0  0  0  0  0  0  0  0  0  # atno 10764 bound_to 10752
  154.0202  135.6743  153.4824 H   0  0  0  0  0  0  0  0  0  0  0  0  # atno 10765 bound_to 10752
  140.0693  134.5493  155.9065 H   0  0  0  0  0  0  0  0  0  0  0  0  # atno 11005 bound_to 11000
  145.7807  140.9857  143.1101 LP  0  0  0  0  0  0  0  0  0  0  0  0  # atno 17320 bound_to 7965
  144.6854  139.9561  143.7479 LP  0  0  0  0  0  0  0  0  0  0  0  0  # atno 17321 bound_to 7965
  140.4357  144.2055  150.5889 LP  0  0  0  0  0  0  0  0  0  0  0  0  # atno 17342 bound_to 10162
  140.4734  143.2404  151.9056 LP  0  0  0  0  0  0  0  0  0  0  0  0  # atno 17343 bound_to 10162
  157.6196  130.8645  149.9086 LP  0  0  0  0  0  0  0  0  0  0  0  0  # atno 17370 bound_to 10713
  156.0727  130.3683  150.0743 LP  0  0  0  0  0  0  0  0  0  0  0  0  # atno 17371 bound_to 10713
  141.2005  133.6613  156.5901 LP  0  0  0  0  0  0  0  0  0  0  0  0  # atno 17394 bound_to 11000
  140.3652  134.7653  157.4561 LP  0  0  0  0  0  0  0  0  0  0  0  0  # atno 17395 bound_to 11000

$$$$
