AV-unprocessed.smi:2339|AV-procd|sdf|9340|dock7
  -GOLD-   2272012563D 1   1.00000     0.00000
 Structure written by MMmdl.
 49 52  0  0  0  0  0  0  0  0  1 V2000
  145.3221  131.8263  151.3560 C   0  0  0  0  0  0  0  0  0  0  0  0
  146.0078  133.1951  151.4279 C   0  0  0  0  0  0  0  0  0  0  0  0
  145.1121  134.2214  151.9420 N   0  0  0  0  0  0  0  0  0  0  0  0
  143.7994  133.9245  152.2928 C   0  0  0  0  0  0  0  0  0  0  0  0
  142.9047  134.8402  152.7111 C   0  0  0  0  0  0  0  0  0  0  0  0
  143.3111  136.2565  152.8094 C   0  0  0  0  0  0  0  0  0  0  0  0
  142.5182  137.1187  153.1874 O   0  0  0  0  0  0  0  0  0  0  0  0
  144.7132  136.5752  152.4308 C   0  0  0  0  0  0  0  0  0  0  0  0
  145.0914  137.9235  152.5379 N   0  0  0  0  0  0  0  0  0  0  0  0
  146.2983  138.4618  152.8073 C   0  0  0  0  0  0  0  0  0  0  0  0
  147.3392  137.8311  152.9753 O   0  0  0  0  0  0  0  0  0  0  0  0
  146.2856  139.8032  152.8895 N   0  0  0  0  0  0  0  0  0  0  0  0
  147.4129  140.6941  153.1656 C   0  0  2  0  0  0  0  0  0  0  0  0
  148.2409  140.2146  154.3586 C   0  0  1  0  0  0  0  0  0  0  0  0
  149.6133  139.6652  154.5191 C   0  0  0  0  0  0  0  0  0  0  0  0
  150.0541  140.5389  155.7233 C   0  0  0  0  0  0  0  0  0  0  0  0
  149.0335  141.5560  155.8704 O   0  0  0  0  0  0  0  0  0  0  0  0
  148.4997  141.6919  154.5690 C   0  0  2  0  0  0  0  0  0  0  0  0
  147.0590  141.9320  154.0778 C   0  0  0  0  0  0  0  0  0  0  0  0
  145.9065  141.8502  155.0910 C   0  0  0  0  0  0  0  0  0  0  0  0
  144.7088  142.5579  154.4599 C   0  0  0  0  0  0  0  0  0  0  0  0
  145.3052  143.6132  153.5289 C   0  0  0  0  0  0  0  0  0  0  0  0
  146.7920  143.2666  153.3807 C   0  0  0  0  0  0  0  0  0  0  0  0
  145.5114  135.5535  152.0278 C   0  0  0  0  0  0  0  0  0  0  0  0
  146.0054  131.0712  150.9675 H   0  0  0  0  0  0  0  0  0  0  0  0
  144.4508  131.8560  150.7010 H   0  0  0  0  0  0  0  0  0  0  0  0
  144.9906  131.4997  152.3421 H   0  0  0  0  0  0  0  0  0  0  0  0
  146.8927  133.1337  152.0625 H   0  0  0  0  0  0  0  0  0  0  0  0
  146.3618  133.4842  150.4377 H   0  0  0  0  0  0  0  0  0  0  0  0
  143.5420  132.8783  152.2105 H   0  0  0  0  0  0  0  0  0  0  0  0
  141.8954  134.5623  152.9770 H   0  0  0  0  0  0  0  0  0  0  0  0
  144.3347  138.5793  152.4084 H   0  0  0  0  0  0  0  0  0  0  0  0
  145.3949  140.2554  152.7417 H   0  0  0  0  0  0  0  0  0  0  0  0
  148.0251  140.9330  152.2908 H   0  0  0  0  0  0  0  0  0  0  0  0
  147.5888  139.7915  155.1286 H   0  0  0  0  0  0  0  0  0  0  0  0
  149.6196  138.5997  154.7495 H   0  0  0  0  0  0  0  0  0  0  0  0
  150.2299  139.8438  153.6370 H   0  0  0  0  0  0  0  0  0  0  0  0
  150.1258  139.9586  156.6436 H   0  0  0  0  0  0  0  0  0  0  0  0
  151.0257  140.9977  155.5350 H   0  0  0  0  0  0  0  0  0  0  0  0
  149.2439  142.1163  153.8852 H   0  0  0  0  0  0  0  0  0  0  0  0
  145.6422  140.8320  155.3755 H   0  0  0  0  0  0  0  0  0  0  0  0
  146.1881  142.3676  156.0091 H   0  0  0  0  0  0  0  0  0  0  0  0
  144.1266  141.8443  153.8764 H   0  0  0  0  0  0  0  0  0  0  0  0
  144.0418  142.9894  155.2069 H   0  0  0  0  0  0  0  0  0  0  0  0
  144.7962  143.6117  152.5643 H   0  0  0  0  0  0  0  0  0  0  0  0
  145.1930  144.6113  153.9538 H   0  0  0  0  0  0  0  0  0  0  0  0
  147.3900  144.0539  153.8410 H   0  0  0  0  0  0  0  0  0  0  0  0
  147.0826  143.2383  152.3311 H   0  0  0  0  0  0  0  0  0  0  0  0
  146.5432  135.6876  151.7461 H   0  0  0  0  0  0  0  0  0  0  0  0
  1  2  1  0  0  0  0
  1 25  1  0  0  0  0
  1 26  1  0  0  0  0
  1 27  1  0  0  0  0
  2  3  1  0  0  0  0
  2 28  1  0  0  0  0
  2 29  1  0  0  0  0
  3 24  1  0  0  0  0
  3  4  1  0  0  0  0
  4  5  2  0  0  0  0
  4 30  1  0  0  0  0
  5  6  1  0  0  0  0
  5 31  1  0  0  0  0
  6  7  2  0  0  0  0
  6  8  1  0  0  0  0
  8  9  1  0  0  0  0
  8 24  2  0  0  0  0
  9 10  1  0  0  0  0
  9 32  1  0  0  0  0
 10 11  2  0  0  0  0
 10 12  1  0  0  0  0
 12 13  1  0  0  0  0
 12 33  1  0  0  0  0
 13 19  1  0  0  0  0
 13 14  1  0  0  0  0
 13 34  1  0  0  0  0
 14 18  1  0  0  0  0
 14 15  1  0  0  0  0
 14 35  1  0  0  0  0
 15 16  1  0  0  0  0
 15 36  1  0  0  0  0
 15 37  1  0  0  0  0
 16 17  1  0  0  0  0
 16 38  1  0  0  0  0
 16 39  1  0  0  0  0
 17 18  1  0  0  0  0
 18 19  1  0  0  0  0
 18 40  1  0  0  0  0
 19 23  1  0  0  0  0
 19 20  1  0  0  0  0
 20 21  1  0  0  0  0
 20 41  1  0  0  0  0
 20 42  1  0  0  0  0
 21 22  1  0  0  0  0
 21 43  1  0  0  0  0
 21 44  1  0  0  0  0
 22 23  1  0  0  0  0
 22 45  1  0  0  0  0
 22 46  1  0  0  0  0
 23 47  1  0  0  0  0
 23 48  1  0  0  0  0
 24 49  1  0  0  0  0
M  END
> <s_m_source_file>
AV-unprocessed.smi

> <i_m_source_file_index>
2339

> <i_lp_mmshare_version>
43012

> <i_f3d_flags>
0

> <s_epik_input>
W0NIM11bQ0gyXW4xW2NIXVtjSF1jKD1PKWMoW2NIXTEpW05IXUMoPU8pW05IXVtDQEBIXTJbQ0BASF0oW0NIMl1bQ0gyXU8zKVtDQEBIXTNDMjRbQ0gyXVtDSDJdW0NIMl1bQ0gyXTQ=

> <s_epik_cmdline>
J2VwaWtfcHl0aG9uJywgJy1waCcsICc3LjAnLCAnLXRuJywgJzgnLCAnLW1hJywgJzIwMCcsICctbWV0YWxfYmluZGluZycsICctaW1hZScsICc8aW5maWxlLm1hZT4nLCAnLW9tYWUnLCAnPG91dGZpbGUubWFlPic=

> <r_lp_tautomer_probability>
1

> <r_epik_Ionization_Penalty>
0.00145966

> <r_epik_Ionization_Penalty_Charging>
0.00143969

> <r_epik_Ionization_Penalty_Neutral>
1.99697e-05

> <r_epik_State_Penalty>
0.000961843

> <r_epik_Charging_Adjusted_Penalty>
0.00240153

> <i_epik_Tot_Q>
0

> <i_epik_Tot_abs_Q>
0

> <r_epik_Metal_State_Penalty>
-0

> <b_epik_Metal_Only>
0

> <s_lp_Force_Field>
OPLS_2005

> <r_lp_Energy>
78.6194

> <b_lp_Chiralities_Consistent>
1

> <s_lp_Variant>
AV-unprocessed.smi:2339-5

> <Gold.Version>
5.8.1

> <Gold.Id.Protein>
6NUR|6NUR_protein|mol2

> <Gold.PLP.Fitness>
48.6716

> <Gold.PLP.PLP>
-40.2447

> <Gold.PLP.part.hbond>
-3.0000

> <Gold.PLP.part.metal>
0.0000

> <Gold.PLP.part.buried>
0.0775

> <Gold.PLP.part.nonpolar>
-41.2907

> <Gold.PLP.part.repulsive>
5.2505

> <Gold.PLP.ligand.clash>
0.0000

> <Gold.PLP.ligand.torsion>
0.4198

> <Gold.PLP.Chemscore.Hbond>
1.9920

> <Gold.PLP.Chemscore.CHOScore>
1.0000

> <Gold.PLP.Chemscore.Metal>
0.0000

> <Gold.Chemscore.Hbonds>
donor molecule, donor type, donor heavy atom, donor atom, acceptor molecule, acceptor atom, score
      L1  H     9    32       P1 10175  1.00
      L1  H    12    33       P1 10175  1.00
      L1  C     4    30       P1 10957  0.02
      L1  C    24    49       P1  7948  1.00

> <Gold.PLP.Chemscore.Internal.Correction>
0.2905

> <Gold.Rescore>
     Score         DG    S(hbond)    S(metal)    S(lipo)     H(rot)  DE(clash)    DE(int)     intcor
     15.98     -19.90       1.91        0.00      94.24       1.17       1.85       2.06       ----

> <Gold.Chemscore.Fitness>
15.9845

> <Gold.Chemscore.DG>
-19.8995

> <Gold.Chemscore.ZeroCoef>
-5.4800

> <Gold.Chemscore.Hbond>
1.9105

> <Gold.Chemscore.Metal>
0.0000

> <Gold.Chemscore.Lipo>
94.2382

> <Gold.Chemscore.Internal_Hbond>
0.0000

> <Gold.Chemscore.DEClash>
1.8506

> <Gold.Chemscore.DEInternal>
2.0644

> <Gold.Chemscore.Rot>
1.1670

> <Gold.Chemscore.Internal.Correction>
   9.000000E+99

> <Gold.Chemscore.Hbonds>
donor molecule, donor type, donor heavy atom, donor atom, acceptor molecule, acceptor atom, score
      L1  H     9    32       P1 10175  0.92
      L1  H    12    33       P1 10175  0.92

> <Gold.Chemscore.Hbond.Weighted>
-6.3811

> <Gold.Chemscore.Metal.Weighted>
-0.0000

> <Gold.Chemscore.Lipo.Weighted>
-11.0259

> <Gold.Chemscore.Internal_Hbond.Weighted>
0.0000

> <Gold.Chemscore.DEClash.Weighted>
1.8506

> <Gold.Chemscore.DEInternal.Weighted>
2.0644

> <Gold.Chemscore.Rot.Weighted>
2.9874

> <Gold.Chemscore.Internal.Correction.Weighted>
   9.000000E+99

> <Gold.Protein.RotatedTorsions>
[ 6907 6896 6895 6894 ] final  159.82 input  -60.11 | X-H torsion
[ 7974 7965 7964 7962 ] final  -16.41 input  175.53 | X-H torsion
[ 8008 7997 7996 7995 ] final  -96.51 input   59.86 | X-H torsion
[ 10167 10162 10161 10158 ] final  -41.13 input  -65.29 | X-H torsion
[ 10718 10713 10712 10709 ] final -145.93 input   66.30 | X-H torsion
[ 10763 10752 10751 10750 ] final  -96.10 input  -60.55 | X-H torsion
[ 11005 11000 10999 10996 ] final   70.68 input  -57.11 | X-H torsion

> <Gold.Protein.ActiveResidues>
 VAL166  LYS551  ARG553  GLY616  TRP617  ASP618  TYR619  PRO620  LYS621  CYS622 
 ASP623  PHE694  ASN695  SER759  ASP760  ASP761  ALA762  ILE779  LEU786  VAL792 
 PHE793  MET794  SER795  GLU796  ALA797  LYS798  CYS799  TRP800  GLU811  SER814 

> <Gold.Protein.RotatedAtoms>
  151.9799  133.3754  159.4103 H   0  0  0  0  0  0  0  0  0  0  0  0  # atno 6907 bound_to 6896
  150.6936  134.4050  159.5145 H   0  0  0  0  0  0  0  0  0  0  0  0  # atno 6908 bound_to 6896
  152.1767  134.8788  160.0580 H   0  0  0  0  0  0  0  0  0  0  0  0  # atno 6909 bound_to 6896
  146.1989  140.3632  142.8430 H   0  0  0  0  0  0  0  0  0  0  0  0  # atno 7974 bound_to 7965
  154.7754  140.0471  157.1085 H   0  0  0  0  0  0  0  0  0  0  0  0  # atno 8008 bound_to 7997
  154.9769  140.3096  155.4944 H   0  0  0  0  0  0  0  0  0  0  0  0  # atno 8009 bound_to 7997
  156.2928  140.2243  156.4865 H   0  0  0  0  0  0  0  0  0  0  0  0  # atno 8010 bound_to 7997
  140.7012  143.3113  151.3022 H   0  0  0  0  0  0  0  0  0  0  0  0  # atno 10167 bound_to 10162
  156.3885  130.7874  151.2073 H   0  0  0  0  0  0  0  0  0  0  0  0  # atno 10718 bound_to 10713
  154.7209  135.5096  153.8810 H   0  0  0  0  0  0  0  0  0  0  0  0  # atno 10763 bound_to 10752
  153.0861  135.6646  153.9954 H   0  0  0  0  0  0  0  0  0  0  0  0  # atno 10764 bound_to 10752
  153.9777  135.3032  155.3402 H   0  0  0  0  0  0  0  0  0  0  0  0  # atno 10765 bound_to 10752
  139.9584  134.7103  156.0700 H   0  0  0  0  0  0  0  0  0  0  0  0  # atno 11005 bound_to 11000
  144.8639  140.7178  143.6090 LP  0  0  0  0  0  0  0  0  0  0  0  0  # atno 17320 bound_to 7965
  145.3552  139.1696  143.4413 LP  0  0  0  0  0  0  0  0  0  0  0  0  # atno 17321 bound_to 7965
  139.6536  144.0316  152.2644 LP  0  0  0  0  0  0  0  0  0  0  0  0  # atno 17342 bound_to 10162
  139.9861  144.6394  150.7856 LP  0  0  0  0  0  0  0  0  0  0  0  0  # atno 17343 bound_to 10162
  157.7497  131.0322  150.4218 LP  0  0  0  0  0  0  0  0  0  0  0  0  # atno 17370 bound_to 10713
  156.4475  130.4004  149.6657 LP  0  0  0  0  0  0  0  0  0  0  0  0  # atno 17371 bound_to 10713
  141.1259  133.6599  156.3335 LP  0  0  0  0  0  0  0  0  0  0  0  0  # atno 17394 bound_to 11000
  140.5555  134.5985  157.5419 LP  0  0  0  0  0  0  0  0  0  0  0  0  # atno 17395 bound_to 11000

$$$$
