AV-unprocessed.smi:1554|AV-procd|sdf|6258|dock3
  -GOLD-   22720 6443D 1   1.00000     0.00000
 Structure written by MMmdl.
 49 51  0  0  0  0  0  0  0  0  3 V2000
  152.4988  143.5136  161.6505 C   0  0  0  0  0  0  0  0  0  0  0  0
  152.3106  142.7908  160.3274 C   0  0  0  0  0  0  0  0  0  0  0  0
  151.4141  143.3378  159.3815 C   0  0  0  0  0  0  0  0  0  0  0  0
  151.2672  142.6565  158.1790 C   0  0  0  0  0  0  0  0  0  0  0  0
  150.4783  142.9321  157.0600 N   0  3  0  0  0  0  0  0  0  0  0  0
  150.6749  141.9699  156.1164 C   0  0  0  0  0  0  0  0  0  0  0  0
  151.5804  141.0849  156.6161 N   0  0  0  0  0  0  0  0  0  0  0  0
  152.1522  139.8721  156.0156 C   0  0  0  0  0  0  0  0  0  0  0  0
  151.0746  138.9154  155.4682 C   0  0  2  0  0  0  0  0  0  0  0  0
  150.4179  139.5333  154.3779 O   0  0  0  0  0  0  0  0  0  0  0  0
  150.0297  138.5455  156.5399 C   0  0  0  0  0  0  0  0  0  0  0  0
  150.6319  137.8302  157.6979 N   0  3  2  0  0  0  0  0  0  0  0  0
  151.3811  136.6071  157.3198 C   0  0  0  0  0  0  0  0  0  0  0  0
  150.4252  135.4351  157.0343 C   0  0  0  0  0  0  0  0  0  0  0  0
  149.6082  135.2033  158.1755 O   0  0  0  0  0  0  0  0  0  0  0  0
  148.7914  136.3234  158.4986 C   0  0  1  0  0  0  0  0  0  0  0  0
  147.9084  135.9417  159.6916 C   0  0  0  0  0  0  0  0  0  0  0  0
  149.6919  137.5387  158.8116 C   0  0  0  0  0  0  0  0  0  0  0  0
  151.9741  141.4705  157.9017 C   0  0  0  0  0  0  0  0  0  0  0  0
  152.8581  140.9156  158.8238 C   0  0  0  0  0  0  0  0  0  0  0  0
  153.0225  141.5944  160.0523 C   0  0  0  0  0  0  0  0  0  0  0  0
  153.9820  141.0140  161.0773 C   0  0  0  0  0  0  0  0  0  0  0  0
  151.8735  144.4047  161.7111 H   0  0  0  0  0  0  0  0  0  0  0  0
  153.5364  143.8261  161.7708 H   0  0  0  0  0  0  0  0  0  0  0  0
  152.2337  142.8631  162.4841 H   0  0  0  0  0  0  0  0  0  0  0  0
  150.8683  144.2477  159.5846 H   0  0  0  0  0  0  0  0  0  0  0  0
  150.2019  141.9222  155.1460 H   0  0  0  0  0  0  0  0  0  0  0  0
  152.8438  140.1750  155.2283 H   0  0  0  0  0  0  0  0  0  0  0  0
  152.7516  139.3761  156.7807 H   0  0  0  0  0  0  0  0  0  0  0  0
  151.5657  138.0173  155.0966 H   0  0  0  0  0  0  0  0  0  0  0  0
  149.9577  138.8708  153.8851 H   0  0  0  0  0  0  0  0  0  0  0  0
  149.5101  139.4396  156.8846 H   0  0  0  0  0  0  0  0  0  0  0  0
  149.2677  137.9184  156.0747 H   0  0  0  0  0  0  0  0  0  0  0  0
  152.0296  136.7987  156.4642 H   0  0  0  0  0  0  0  0  0  0  0  0
  152.0399  136.3393  158.1471 H   0  0  0  0  0  0  0  0  0  0  0  0
  149.8062  135.6319  156.1577 H   0  0  0  0  0  0  0  0  0  0  0  0
  150.9958  134.5309  156.8223 H   0  0  0  0  0  0  0  0  0  0  0  0
  148.1389  136.5439  157.6530 H   0  0  0  0  0  0  0  0  0  0  0  0
  147.2481  136.7636  159.9701 H   0  0  0  0  0  0  0  0  0  0  0  0
  148.5101  135.6851  160.5640 H   0  0  0  0  0  0  0  0  0  0  0  0
  147.2835  135.0806  159.4536 H   0  0  0  0  0  0  0  0  0  0  0  0
  150.2866  137.3263  159.7013 H   0  0  0  0  0  0  0  0  0  0  0  0
  149.0864  138.4104  159.0562 H   0  0  0  0  0  0  0  0  0  0  0  0
  153.4001  140.0056  158.6141 H   0  0  0  0  0  0  0  0  0  0  0  0
  154.4565  140.1036  160.7096 H   0  0  0  0  0  0  0  0  0  0  0  0
  153.4536  140.7654  161.9980 H   0  0  0  0  0  0  0  0  0  0  0  0
  154.7711  141.7288  161.3123 H   0  0  0  0  0  0  0  0  0  0  0  0
  151.3223  138.4708  158.0642 H   0  0  0  0  0  0  0  0  0  0  0  0
  149.8525  143.7194  156.9453 H   0  0  0  0  0  0  0  0  0  0  0  0
  1  2  1  0  0  0  0
  1 23  1  0  0  0  0
  1 24  1  0  0  0  0
  1 25  1  0  0  0  0
  2 21  1  0  0  0  0
  2  3  2  0  0  0  0
  3  4  1  0  0  0  0
  3 26  1  0  0  0  0
  4 19  2  0  0  0  0
  4  5  1  0  0  0  0
  5  6  2  0  0  0  0
  5 49  1  0  0  0  0
  6  7  1  0  0  0  0
  6 27  1  0  0  0  0
  7  8  1  0  0  0  0
  7 19  1  0  0  0  0
  8  9  1  0  0  0  0
  8 28  1  0  0  0  0
  8 29  1  0  0  0  0
  9 10  1  0  0  0  0
  9 11  1  0  0  0  0
  9 30  1  0  0  0  0
 10 31  1  0  0  0  0
 11 12  1  0  0  0  0
 11 32  1  0  0  0  0
 11 33  1  0  0  0  0
 12 18  1  0  0  0  0
 12 13  1  0  0  0  0
 12 48  1  0  0  0  0
 13 14  1  0  0  0  0
 13 34  1  0  0  0  0
 13 35  1  0  0  0  0
 14 15  1  0  0  0  0
 14 36  1  0  0  0  0
 14 37  1  0  0  0  0
 15 16  1  0  0  0  0
 16 17  1  0  0  0  0
 16 18  1  0  0  0  0
 16 38  1  0  0  0  0
 17 39  1  0  0  0  0
 17 40  1  0  0  0  0
 17 41  1  0  0  0  0
 18 42  1  0  0  0  0
 18 43  1  0  0  0  0
 19 20  1  0  0  0  0
 20 21  2  0  0  0  0
 20 44  1  0  0  0  0
 21 22  1  0  0  0  0
 22 45  1  0  0  0  0
 22 46  1  0  0  0  0
 22 47  1  0  0  0  0
M  CHG  1   5   1
M  CHG  1  12   1
M  END
> <s_m_source_file>
AV-unprocessed.smi

> <i_m_source_file_index>
1554

> <i_lp_mmshare_version>
43012

> <i_f3d_flags>
0

> <s_epik_input>
W0NIM11jKFtjSF0xKWMoW0NIM10pW2NIXWMoYzEyKW4oW2NIXW4yKVtDSDJdW0NASF0oW09IXSlbQ0gyXU4zW0NIMl1bQ0gyXU9bQ0BASF0oW0NIM10pW0NIMl0z

> <s_epik_cmdline>
J2VwaWtfcHl0aG9uJywgJy1waCcsICc3LjAnLCAnLXRuJywgJzgnLCAnLW1hJywgJzIwMCcsICctbWV0YWxfYmluZGluZycsICctaW1hZScsICc8aW5maWxlLm1hZT4nLCAnLW9tYWUnLCAnPG91dGZpbGUubWFlPic=

> <r_epik_Ionization_Penalty>
1.8848

> <r_epik_Ionization_Penalty_Charging>
1.88479

> <r_epik_Ionization_Penalty_Neutral>
1.42224e-05

> <r_epik_State_Penalty>
1.94551

> <r_epik_Charging_Adjusted_Penalty>
3.8303

> <i_epik_Tot_Q>
2

> <i_epik_Tot_abs_Q>
2

> <r_epik_Metal_State_Penalty>
5.95849

> <b_epik_Metal_Only>
0

> <s_lp_Force_Field>
OPLS_2005

> <r_lp_Energy>
31.481

> <b_lp_Chiralities_Consistent>
1

> <s_lp_Variant>
AV-unprocessed.smi:1554-19

> <Gold.Version>
5.8.1

> <Gold.Id.Protein>
6NUR|6NUR_protein|mol2

> <Gold.PLP.Fitness>
52.2115

> <Gold.PLP.PLP>
-40.4388

> <Gold.PLP.part.hbond>
-3.0503

> <Gold.PLP.part.metal>
0.0000

> <Gold.PLP.part.buried>
-5.9470

> <Gold.PLP.part.nonpolar>
-30.4785

> <Gold.PLP.part.repulsive>
0.0702

> <Gold.PLP.ligand.clash>
0.0000

> <Gold.PLP.ligand.torsion>
0.1044

> <Gold.PLP.Chemscore.Hbond>
3.9840

> <Gold.PLP.Chemscore.CHOScore>
0.0000

> <Gold.PLP.Chemscore.Metal>
0.0000

> <Gold.Chemscore.Hbonds>
donor molecule, donor type, donor heavy atom, donor atom, acceptor molecule, acceptor atom, score
      L1  H     5    49       P1  8028  1.79
      P1  H  6896  6908       L1    15  1.00
      P1  H  7989  7998       L1    10  1.00

> <Gold.PLP.Chemscore.Internal.Correction>
0.0295

> <Gold.Rescore>
     Score         DG    S(hbond)    S(metal)    S(lipo)     H(rot)  DE(clash)    DE(int)     intcor
     20.50     -21.54       2.59        0.00     109.66       2.11       0.22       0.82       ----

> <Gold.Chemscore.Fitness>
20.5041

> <Gold.Chemscore.DG>
-21.5399

> <Gold.Chemscore.ZeroCoef>
-5.4800

> <Gold.Chemscore.Hbond>
2.5859

> <Gold.Chemscore.Metal>
0.0000

> <Gold.Chemscore.Lipo>
109.6607

> <Gold.Chemscore.Internal_Hbond>
0.0000

> <Gold.Chemscore.DEClash>
0.2164

> <Gold.Chemscore.DEInternal>
0.8194

> <Gold.Chemscore.Rot>
2.1122

> <Gold.Chemscore.Internal.Correction>
   9.000000E+99

> <Gold.Chemscore.Hbonds>
donor molecule, donor type, donor heavy atom, donor atom, acceptor molecule, acceptor atom, score
      L1  H     5    49       P1  8028  0.84
      P1  H  6896  6908       L1    15  0.62
      P1  H  7989  7998       L1    10  0.74

> <Gold.Chemscore.Hbond.Weighted>
-8.6369

> <Gold.Chemscore.Metal.Weighted>
-0.0000

> <Gold.Chemscore.Lipo.Weighted>
-12.8303

> <Gold.Chemscore.Internal_Hbond.Weighted>
0.0000

> <Gold.Chemscore.DEClash.Weighted>
0.2164

> <Gold.Chemscore.DEInternal.Weighted>
0.8194

> <Gold.Chemscore.Rot.Weighted>
5.4073

> <Gold.Chemscore.Internal.Correction.Weighted>
   9.000000E+99

> <Gold.Protein.RotatedTorsions>
[ 6907 6896 6895 6894 ] final  165.65 input  -60.11 | X-H torsion
[ 7974 7965 7964 7962 ] final   25.96 input  175.53 | X-H torsion
[ 8008 7997 7996 7995 ] final   50.07 input   59.86 | X-H torsion
[ 10167 10162 10161 10158 ] final  130.16 input  -65.29 | X-H torsion
[ 10718 10713 10712 10709 ] final   55.06 input   66.30 | X-H torsion
[ 10763 10752 10751 10750 ] final   62.93 input  -60.55 | X-H torsion
[ 11005 11000 10999 10996 ] final  107.28 input  -57.11 | X-H torsion

> <Gold.Protein.ActiveResidues>
 VAL166  LYS551  ARG553  GLY616  TRP617  ASP618  TYR619  PRO620  LYS621  CYS622 
 ASP623  PHE694  ASN695  SER759  ASP760  ASP761  ALA762  ILE779  LEU786  VAL792 
 PHE793  MET794  SER795  GLU796  ALA797  LYS798  CYS799  TRP800  GLU811  SER814 

> <Gold.Protein.RotatedAtoms>
  151.8912  133.3516  159.3798 H   0  0  0  0  0  0  0  0  0  0  0  0  # atno 6907 bound_to 6896
  150.7103  134.4922  159.5530 H   0  0  0  0  0  0  0  0  0  0  0  0  # atno 6908 bound_to 6896
  152.2492  134.8150  160.0499 H   0  0  0  0  0  0  0  0  0  0  0  0  # atno 6909 bound_to 6896
  146.1862  139.7394  142.8865 H   0  0  0  0  0  0  0  0  0  0  0  0  # atno 7974 bound_to 7965
  155.4127  140.3443  155.4265 H   0  0  0  0  0  0  0  0  0  0  0  0  # atno 8008 bound_to 7997
  156.1439  140.1550  156.8908 H   0  0  0  0  0  0  0  0  0  0  0  0  # atno 8009 bound_to 7997
  154.4994  140.0819  156.7747 H   0  0  0  0  0  0  0  0  0  0  0  0  # atno 8010 bound_to 7997
  139.5443  144.6759  151.4523 H   0  0  0  0  0  0  0  0  0  0  0  0  # atno 10167 bound_to 10162
  157.5312  130.8632  149.8690 H   0  0  0  0  0  0  0  0  0  0  0  0  # atno 10718 bound_to 10713
  153.0000  135.5447  154.6272 H   0  0  0  0  0  0  0  0  0  0  0  0  # atno 10763 bound_to 10752
  154.5558  135.2830  155.0968 H   0  0  0  0  0  0  0  0  0  0  0  0  # atno 10764 bound_to 10752
  154.2190  135.6454  153.5191 H   0  0  0  0  0  0  0  0  0  0  0  0  # atno 10765 bound_to 10752
  139.8826  134.9396  156.5796 H   0  0  0  0  0  0  0  0  0  0  0  0  # atno 11005 bound_to 11000
  145.3931  141.0375  143.3113 LP  0  0  0  0  0  0  0  0  0  0  0  0  # atno 17320 bound_to 7965
  144.8402  139.5485  143.6904 LP  0  0  0  0  0  0  0  0  0  0  0  0  # atno 17321 bound_to 7965
  140.6685  143.8345  150.6971 LP  0  0  0  0  0  0  0  0  0  0  0  0  # atno 17342 bound_to 10162
  140.1762  143.4153  152.1966 LP  0  0  0  0  0  0  0  0  0  0  0  0  # atno 17343 bound_to 10162
  156.0424  130.3736  150.1402 LP  0  0  0  0  0  0  0  0  0  0  0  0  # atno 17370 bound_to 10713
  156.9586  130.9798  151.3483 LP  0  0  0  0  0  0  0  0  0  0  0  0  # atno 17371 bound_to 10713
  140.8037  133.8485  155.8749 LP  0  0  0  0  0  0  0  0  0  0  0  0  # atno 17394 bound_to 11000
  140.9569  134.1706  157.4684 LP  0  0  0  0  0  0  0  0  0  0  0  0  # atno 17395 bound_to 11000

$$$$
