AV-unprocessed.smi:1963|AV-procd|sdf|7927|dock9
  -GOLD-   2272010 93D 1   1.00000     0.00000
 Structure written by MMmdl.
 47 48  0  0  0  0  0  0  0  0  1 V2000
  147.4398  127.8579  151.3453 C   0  0  0  0  0  0  0  0  0  0  0  0
  146.6787  128.8965  152.1616 C   0  0  0  0  0  0  0  0  0  0  0  0
  145.6980  128.5640  152.8264 O   0  0  0  0  0  0  0  0  0  0  0  0
  147.1426  130.1545  152.1005 N   0  0  0  0  0  0  0  0  0  0  0  0
  146.5768  131.3049  152.8091 C   0  0  1  0  0  0  0  0  0  0  0  0
  147.7300  132.1843  153.3318 C   0  0  0  0  0  0  0  0  0  0  0  0
  148.8952  131.8008  153.2195 O   0  0  0  0  0  0  0  0  0  0  0  0
  147.3649  133.3689  153.8561 N   0  0  0  0  0  0  0  0  0  0  0  0
  148.1918  134.3918  154.3925 C   0  0  0  0  0  0  0  0  0  0  0  0
  149.5798  134.1617  154.4460 C   0  0  0  0  0  0  0  0  0  0  0  0
  150.4246  135.1627  154.9614 C   0  0  0  0  0  0  0  0  0  0  0  0
  149.8596  136.3810  155.4063 C   0  0  0  0  0  0  0  0  0  0  0  0
  150.6864  137.3971  155.9336 N   0  0  0  0  0  0  0  0  0  0  0  0
  151.4613  138.1556  154.9545 C   0  0  0  0  0  0  0  0  0  0  0  0
  152.0686  139.4099  155.6063 C   0  0  0  0  0  0  0  0  0  0  0  0
  152.8325  139.0394  156.7493 O   0  0  0  0  0  0  0  0  0  0  0  0
  152.0302  138.4023  157.7377 C   0  0  0  0  0  0  0  0  0  0  0  0
  151.4271  137.1104  157.1611 C   0  0  0  0  0  0  0  0  0  0  0  0
  148.5256  136.6110  155.3310 N   0  0  0  0  0  0  0  0  0  0  0  0
  147.7181  135.6480  154.8383 C   0  0  0  0  0  0  0  0  0  0  0  0
  145.6904  132.1187  151.8196 C   0  0  0  0  0  0  0  0  0  0  0  0
  144.6906  131.2408  151.0378 C   0  0  0  0  0  0  0  0  0  0  0  0
  146.5410  132.9242  150.8176 C   0  0  0  0  0  0  0  0  0  0  0  0
  148.4772  127.8002  151.6760 H   0  0  0  0  0  0  0  0  0  0  0  0
  147.4274  128.1215  150.2874 H   0  0  0  0  0  0  0  0  0  0  0  0
  146.9902  126.8706  151.4567 H   0  0  0  0  0  0  0  0  0  0  0  0
  147.9592  130.3302  151.5332 H   0  0  0  0  0  0  0  0  0  0  0  0
  145.9634  130.9572  153.6434 H   0  0  0  0  0  0  0  0  0  0  0  0
  146.3807  133.5888  153.8047 H   0  0  0  0  0  0  0  0  0  0  0  0
  149.9970  133.2273  154.0998 H   0  0  0  0  0  0  0  0  0  0  0  0
  151.4899  134.9904  154.9951 H   0  0  0  0  0  0  0  0  0  0  0  0
  152.2553  137.5173  154.5646 H   0  0  0  0  0  0  0  0  0  0  0  0
  150.8530  138.4591  154.1037 H   0  0  0  0  0  0  0  0  0  0  0  0
  152.7184  139.9232  154.8973 H   0  0  0  0  0  0  0  0  0  0  0  0
  151.2872  140.1166  155.8909 H   0  0  0  0  0  0  0  0  0  0  0  0
  152.6501  138.1724  158.6042 H   0  0  0  0  0  0  0  0  0  0  0  0
  151.2457  139.0801  158.0779 H   0  0  0  0  0  0  0  0  0  0  0  0
  150.7687  136.6572  157.9034 H   0  0  0  0  0  0  0  0  0  0  0  0
  152.2197  136.3927  156.9451 H   0  0  0  0  0  0  0  0  0  0  0  0
  146.6741  135.9156  154.7900 H   0  0  0  0  0  0  0  0  0  0  0  0
  145.1053  132.8404  152.3927 H   0  0  0  0  0  0  0  0  0  0  0  0
  145.2047  130.4542  150.4846 H   0  0  0  0  0  0  0  0  0  0  0  0
  144.1262  131.8350  150.3186 H   0  0  0  0  0  0  0  0  0  0  0  0
  143.9596  130.7661  151.6924 H   0  0  0  0  0  0  0  0  0  0  0  0
  147.1821  132.2682  150.2278 H   0  0  0  0  0  0  0  0  0  0  0  0
  147.1797  133.6538  151.3161 H   0  0  0  0  0  0  0  0  0  0  0  0
  145.9090  133.4799  150.1243 H   0  0  0  0  0  0  0  0  0  0  0  0
  1  2  1  0  0  0  0
  1 24  1  0  0  0  0
  1 25  1  0  0  0  0
  1 26  1  0  0  0  0
  2  3  2  0  0  0  0
  2  4  1  0  0  0  0
  4  5  1  0  0  0  0
  4 27  1  0  0  0  0
  5  6  1  0  0  0  0
  5 21  1  0  0  0  0
  5 28  1  0  0  0  0
  6  7  2  0  0  0  0
  6  8  1  0  0  0  0
  8  9  1  0  0  0  0
  8 29  1  0  0  0  0
  9 20  1  0  0  0  0
  9 10  2  0  0  0  0
 10 11  1  0  0  0  0
 10 30  1  0  0  0  0
 11 12  2  0  0  0  0
 11 31  1  0  0  0  0
 12 13  1  0  0  0  0
 12 19  1  0  0  0  0
 13 18  1  0  0  0  0
 13 14  1  0  0  0  0
 14 15  1  0  0  0  0
 14 32  1  0  0  0  0
 14 33  1  0  0  0  0
 15 16  1  0  0  0  0
 15 34  1  0  0  0  0
 15 35  1  0  0  0  0
 16 17  1  0  0  0  0
 17 18  1  0  0  0  0
 17 36  1  0  0  0  0
 17 37  1  0  0  0  0
 18 38  1  0  0  0  0
 18 39  1  0  0  0  0
 19 20  2  0  0  0  0
 20 40  1  0  0  0  0
 21 22  1  0  0  0  0
 21 23  1  0  0  0  0
 21 41  1  0  0  0  0
 22 42  1  0  0  0  0
 22 43  1  0  0  0  0
 22 44  1  0  0  0  0
 23 45  1  0  0  0  0
 23 46  1  0  0  0  0
 23 47  1  0  0  0  0
M  END
> <s_m_source_file>
AV-unprocessed.smi

> <i_m_source_file_index>
1963

> <i_lp_mmshare_version>
43012

> <i_f3d_flags>
0

> <s_epik_input>
W0NIM11DKD1PKVtOSF1bQ0BASF0oW0NIXShbQ0gzXSlbQ0gzXSlDKD1PKVtOSF1jMVtjSF1bY0hdYyhuW2NIXTEpTjJbQ0gyXVtDSDJdT1tDSDJdW0NIMl0y

> <s_epik_cmdline>
J2VwaWtfcHl0aG9uJywgJy1waCcsICc3LjAnLCAnLXRuJywgJzgnLCAnLW1hJywgJzIwMCcsICctbWV0YWxfYmluZGluZycsICctaW1hZScsICc8aW5maWxlLm1hZT4nLCAnLW9tYWUnLCAnPG91dGZpbGUubWFlPic=

> <r_lp_tautomer_probability>
1

> <r_epik_Ionization_Penalty>
0.00051446

> <r_epik_Ionization_Penalty_Charging>
0

> <r_epik_Ionization_Penalty_Neutral>
0.00051446

> <r_epik_State_Penalty>
0.00031949

> <r_epik_Charging_Adjusted_Penalty>
0.00031949

> <i_epik_Tot_Q>
0

> <i_epik_Tot_abs_Q>
0

> <r_epik_Metal_State_Penalty>
-0

> <b_epik_Metal_Only>
0

> <s_lp_Force_Field>
OPLS_2005

> <r_lp_Energy>
25.5716

> <b_lp_Chiralities_Consistent>
1

> <s_lp_Variant>
AV-unprocessed.smi:1963-2

> <Gold.Version>
5.8.1

> <Gold.Id.Protein>
6NUR|6NUR_protein|mol2

> <Gold.PLP.Fitness>
40.7874

> <Gold.PLP.PLP>
-36.0304

> <Gold.PLP.part.hbond>
-2.0000

> <Gold.PLP.part.metal>
0.0000

> <Gold.PLP.part.buried>
-5.7704

> <Gold.PLP.part.nonpolar>
-29.4174

> <Gold.PLP.part.repulsive>
0.8504

> <Gold.PLP.ligand.clash>
0.1027

> <Gold.PLP.ligand.torsion>
0.7603

> <Gold.PLP.Chemscore.Hbond>
2.0000

> <Gold.PLP.Chemscore.CHOScore>
0.0000

> <Gold.PLP.Chemscore.Metal>
0.0000

> <Gold.Chemscore.Hbonds>
donor molecule, donor type, donor heavy atom, donor atom, acceptor molecule, acceptor atom, score
      L1  H     4    27       P1 10747  1.00
      P1  H  7997  8010       L1    16  1.00

> <Gold.PLP.Chemscore.Internal.Correction>
0.3803

> <Gold.Rescore>
     Score         DG    S(hbond)    S(metal)    S(lipo)     H(rot)  DE(clash)    DE(int)     intcor
     14.83     -16.90       1.94        0.00      80.22       1.74       0.03       2.05       ----

> <Gold.Chemscore.Fitness>
14.8257

> <Gold.Chemscore.DG>
-16.8999

> <Gold.Chemscore.ZeroCoef>
-5.4800

> <Gold.Chemscore.Hbond>
1.9421

> <Gold.Chemscore.Metal>
0.0000

> <Gold.Chemscore.Lipo>
80.2219

> <Gold.Chemscore.Internal_Hbond>
0.0000

> <Gold.Chemscore.DEClash>
0.0268

> <Gold.Chemscore.DEInternal>
2.0474

> <Gold.Chemscore.Rot>
1.7394

> <Gold.Chemscore.Internal.Correction>
   9.000000E+99

> <Gold.Chemscore.Hbonds>
donor molecule, donor type, donor heavy atom, donor atom, acceptor molecule, acceptor atom, score
      L1  H     4    27       P1 10747  1.00
      P1  H  7997  8010       L1    16  0.60

> <Gold.Chemscore.Hbond.Weighted>
-6.4867

> <Gold.Chemscore.Metal.Weighted>
-0.0000

> <Gold.Chemscore.Lipo.Weighted>
-9.3860

> <Gold.Chemscore.Internal_Hbond.Weighted>
0.0000

> <Gold.Chemscore.DEClash.Weighted>
0.0268

> <Gold.Chemscore.DEInternal.Weighted>
2.0474

> <Gold.Chemscore.Rot.Weighted>
4.4528

> <Gold.Chemscore.Internal.Correction.Weighted>
   9.000000E+99

> <Gold.Protein.RotatedTorsions>
[ 6907 6896 6895 6894 ] final    7.47 input  -60.11 | X-H torsion
[ 7974 7965 7964 7962 ] final  146.40 input  175.53 | X-H torsion
[ 8008 7997 7996 7995 ] final   53.75 input   59.86 | X-H torsion
[ 10167 10162 10161 10158 ] final  128.80 input  -65.29 | X-H torsion
[ 10718 10713 10712 10709 ] final  -55.37 input   66.30 | X-H torsion
[ 10763 10752 10751 10750 ] final -155.62 input  -60.55 | X-H torsion
[ 11005 11000 10999 10996 ] final  -23.00 input  -57.11 | X-H torsion

> <Gold.Protein.ActiveResidues>
 VAL166  LYS551  ARG553  GLY616  TRP617  ASP618  TYR619  PRO620  LYS621  CYS622 
 ASP623  PHE694  ASN695  SER759  ASP760  ASP761  ALA762  ILE779  LEU786  VAL792 
 PHE793  MET794  SER795  GLU796  ALA797  LYS798  CYS799  TRP800  GLU811  SER814 

> <Gold.Protein.RotatedAtoms>
  151.6903  135.0947  160.0232 H   0  0  0  0  0  0  0  0  0  0  0  0  # atno 6907 bound_to 6896
  152.3782  133.6506  159.6149 H   0  0  0  0  0  0  0  0  0  0  0  0  # atno 6908 bound_to 6896
  150.7726  133.9074  159.3400 H   0  0  0  0  0  0  0  0  0  0  0  0  # atno 6909 bound_to 6896
  144.8674  139.5900  143.5902 H   0  0  0  0  0  0  0  0  0  0  0  0  # atno 7974 bound_to 7965
  155.4734  140.3466  155.4329 H   0  0  0  0  0  0  0  0  0  0  0  0  # atno 8008 bound_to 7997
  156.1086  140.1454  156.9399 H   0  0  0  0  0  0  0  0  0  0  0  0  # atno 8009 bound_to 7997
  154.4741  140.0891  156.7196 H   0  0  0  0  0  0  0  0  0  0  0  0  # atno 8010 bound_to 7997
  139.5509  144.6812  151.4327 H   0  0  0  0  0  0  0  0  0  0  0  0  # atno 10167 bound_to 10162
  156.1374  130.4156  150.0162 H   0  0  0  0  0  0  0  0  0  0  0  0  # atno 10718 bound_to 10713
  154.7773  135.3163  154.8064 H   0  0  0  0  0  0  0  0  0  0  0  0  # atno 10763 bound_to 10752
  153.8784  135.6837  153.4773 H   0  0  0  0  0  0  0  0  0  0  0  0  # atno 10764 bound_to 10752
  153.1400  135.4743  154.9418 H   0  0  0  0  0  0  0  0  0  0  0  0  # atno 10765 bound_to 10752
  140.8711  133.7720  156.0187 H   0  0  0  0  0  0  0  0  0  0  0  0  # atno 11005 bound_to 11000
  146.2906  139.7127  142.9164 LP  0  0  0  0  0  0  0  0  0  0  0  0  # atno 17320 bound_to 7965
  145.4195  141.0405  143.2972 LP  0  0  0  0  0  0  0  0  0  0  0  0  # atno 17321 bound_to 7965
  140.6771  143.8165  150.7072 LP  0  0  0  0  0  0  0  0  0  0  0  0  # atno 17342 bound_to 10162
  140.1607  143.4278  152.2069 LP  0  0  0  0  0  0  0  0  0  0  0  0  # atno 17343 bound_to 10162
  156.8057  130.9306  151.3645 LP  0  0  0  0  0  0  0  0  0  0  0  0  # atno 17370 bound_to 10713
  157.6545  130.8912  149.9700 LP  0  0  0  0  0  0  0  0  0  0  0  0  # atno 17371 bound_to 10713
  140.8572  134.2883  157.5250 LP  0  0  0  0  0  0  0  0  0  0  0  0  # atno 17394 bound_to 11000
  139.8712  134.9499  156.4040 LP  0  0  0  0  0  0  0  0  0  0  0  0  # atno 17395 bound_to 11000

$$$$
