AV-unprocessed.smi:581|AV-procd|sdf|2991|dock10
  -GOLD-   2262023493D 1   1.00000     0.00000
 Structure written by MMmdl.
 35 36  0  0  0  0  0  0  0  0  2 V2000
  153.4894  138.1994  158.1606 C   0  0  0  0  0  0  0  0  0  0  0  0
  152.6695  139.3603  157.6261 C   0  0  0  0  0  0  0  0  0  0  0  0
  152.6634  140.5138  158.4207 N   0  0  0  0  0  0  0  0  0  0  0  0
  151.9967  141.5609  158.0478 C   0  0  0  0  0  0  0  0  0  0  0  0
  151.9038  142.7647  158.7508 N   0  0  0  0  0  0  0  0  0  0  0  0
  151.8775  144.0585  158.0635 C   0  0  0  0  0  0  0  0  0  0  0  0
  151.2315  145.1447  158.9397 C   0  0  0  0  0  0  0  0  0  0  0  0
  151.9086  145.2209  160.1865 O   0  0  0  0  0  0  0  0  0  0  0  0
  151.8161  143.9963  160.9012 C   0  0  0  0  0  0  0  0  0  0  0  0
  152.4814  142.8714  160.0907 C   0  0  0  0  0  0  0  0  0  0  0  0
  151.2703  141.5412  156.8522 N   0  0  0  0  0  0  0  0  0  0  0  0
  151.2137  140.4809  156.0162 C   0  0  0  0  0  0  0  0  0  0  0  0
  150.5567  140.5425  154.9783 O   0  0  0  0  0  0  0  0  0  0  0  0
  151.9822  139.3031  156.4510 C   0  0  0  0  0  0  0  0  0  0  0  0
  151.9466  138.0613  155.5638 C   0  0  0  0  0  0  0  0  0  0  0  0
  150.8123  137.0941  155.9630 C   0  0  0  0  0  0  0  0  0  0  0  0
  151.1923  136.1560  157.1164 C   0  0  0  0  0  0  0  0  0  0  0  0
  150.5384  136.2141  158.1819 O   0  0  0  0  0  0  0  0  0  0  0  0
  152.1517  135.3828  156.9055 O   0  5  0  0  0  0  0  0  0  0  0  0
  150.7536  142.3671  156.5889 H   0  0  0  0  0  0  0  0  0  0  0  0
  154.1824  137.8351  157.4017 H   0  0  0  0  0  0  0  0  0  0  0  0
  152.8366  137.3785  158.4578 H   0  0  0  0  0  0  0  0  0  0  0  0
  154.0753  138.4957  159.0315 H   0  0  0  0  0  0  0  0  0  0  0  0
  152.9021  144.3423  157.8195 H   0  0  0  0  0  0  0  0  0  0  0  0
  151.3359  144.0055  157.1192 H   0  0  0  0  0  0  0  0  0  0  0  0
  151.2946  146.1129  158.4432 H   0  0  0  0  0  0  0  0  0  0  0  0
  150.1720  144.9370  159.0982 H   0  0  0  0  0  0  0  0  0  0  0  0
  152.3142  144.1094  161.8641 H   0  0  0  0  0  0  0  0  0  0  0  0
  150.7713  143.7597  161.1092 H   0  0  0  0  0  0  0  0  0  0  0  0
  152.3692  141.9310  160.6323 H   0  0  0  0  0  0  0  0  0  0  0  0
  153.5518  143.0601  159.9993 H   0  0  0  0  0  0  0  0  0  0  0  0
  151.8333  138.3565  154.5207 H   0  0  0  0  0  0  0  0  0  0  0  0
  152.9123  137.5551  155.6141 H   0  0  0  0  0  0  0  0  0  0  0  0
  149.9271  137.6585  156.2581 H   0  0  0  0  0  0  0  0  0  0  0  0
  150.5252  136.4844  155.1056 H   0  0  0  0  0  0  0  0  0  0  0  0
  1  2  1  0  0  0  0
  1 21  1  0  0  0  0
  1 22  1  0  0  0  0
  1 23  1  0  0  0  0
  2 14  2  0  0  0  0
  2  3  1  0  0  0  0
  3  4  2  0  0  0  0
  4  5  1  0  0  0  0
  4 11  1  0  0  0  0
  5 10  1  0  0  0  0
  5  6  1  0  0  0  0
  6  7  1  0  0  0  0
  6 24  1  0  0  0  0
  6 25  1  0  0  0  0
  7  8  1  0  0  0  0
  7 26  1  0  0  0  0
  7 27  1  0  0  0  0
  8  9  1  0  0  0  0
  9 10  1  0  0  0  0
  9 28  1  0  0  0  0
  9 29  1  0  0  0  0
 10 30  1  0  0  0  0
 10 31  1  0  0  0  0
 11 20  1  0  0  0  0
 11 12  1  0  0  0  0
 12 13  2  0  0  0  0
 12 14  1  0  0  0  0
 14 15  1  0  0  0  0
 15 16  1  0  0  0  0
 15 32  1  0  0  0  0
 15 33  1  0  0  0  0
 16 17  1  0  0  0  0
 16 34  1  0  0  0  0
 16 35  1  0  0  0  0
 17 18  2  0  0  0  0
 17 19  1  0  0  0  0
M  CHG  1  19  -1
M  END
> <s_m_source_file>
AV-unprocessed.smi

> <i_m_source_file_index>
581

> <i_lp_mmshare_version>
43012

> <i_f3d_flags>
0

> <s_epik_input>
W0NIMl0xW0NIMl1PW0NIMl1bQ0gyXU4xYyhuYzJbQ0gzXSlbbkhdYyg9TyljMltDSDJdW0NIMl1DKD1PKVtPSF0=

> <s_epik_cmdline>
J2VwaWtfcHl0aG9uJywgJy1waCcsICc3LjAnLCAnLXRuJywgJzgnLCAnLW1hJywgJzIwMCcsICctbWV0YWxfYmluZGluZycsICctaW1hZScsICc8aW5maWxlLm1hZT4nLCAnLW9tYWUnLCAnPG91dGZpbGUubWFlPic=

> <r_lp_tautomer_probability>
0.878553

> <r_epik_Ionization_Penalty>
0.00211884

> <r_epik_Ionization_Penalty_Charging>
0.00208365

> <r_epik_Ionization_Penalty_Neutral>
3.51846e-05

> <r_epik_State_Penalty>
0.0663044

> <r_epik_Charging_Adjusted_Penalty>
0.0683881

> <i_epik_Tot_Q>
-1

> <i_epik_Tot_abs_Q>
1

> <r_epik_Metal_State_Penalty>
0.312881

> <b_epik_Metal_Only>
0

> <s_lp_Force_Field>
OPLS_2005

> <r_lp_Energy>
24.7506

> <b_lp_Chiralities_Consistent>
1

> <s_lp_Variant>
AV-unprocessed.smi:581-1

> <Gold.Version>
5.8.1

> <Gold.Id.Protein>
6NUR|6NUR_protein|mol2

> <Gold.PLP.Fitness>
46.5596

> <Gold.PLP.PLP>
-34.3393

> <Gold.PLP.part.hbond>
-3.3039

> <Gold.PLP.part.metal>
0.0000

> <Gold.PLP.part.buried>
-3.9790

> <Gold.PLP.part.nonpolar>
-27.1948

> <Gold.PLP.part.repulsive>
0.3046

> <Gold.PLP.ligand.clash>
0.0000

> <Gold.PLP.ligand.torsion>
0.7894

> <Gold.PLP.Chemscore.Hbond>
4.5280

> <Gold.PLP.Chemscore.CHOScore>
0.0000

> <Gold.PLP.Chemscore.Metal>
0.0000

> <Gold.Chemscore.Hbonds>
donor molecule, donor type, donor heavy atom, donor atom, acceptor molecule, acceptor atom, score
      P1  H  6896  6907       L1    18  1.55
      P1  H  7989  7998       L1    13  0.99
      P1  H 10752 10765       L1    19  1.82

> <Gold.PLP.Chemscore.Internal.Correction>
0.2152

> <Gold.Rescore>
     Score         DG    S(hbond)    S(metal)    S(lipo)     H(rot)  DE(clash)    DE(int)     intcor
     16.80     -17.51       2.49        0.00      73.14       1.89       0.01       0.71       ----

> <Gold.Chemscore.Fitness>
16.7983

> <Gold.Chemscore.DG>
-17.5109

> <Gold.Chemscore.ZeroCoef>
-5.4800

> <Gold.Chemscore.Hbond>
2.4877

> <Gold.Chemscore.Metal>
0.0000

> <Gold.Chemscore.Lipo>
73.1439

> <Gold.Chemscore.Internal_Hbond>
0.0000

> <Gold.Chemscore.DEClash>
0.0073

> <Gold.Chemscore.DEInternal>
0.7052

> <Gold.Chemscore.Rot>
1.8890

> <Gold.Chemscore.Internal.Correction>
   9.000000E+99

> <Gold.Chemscore.Hbonds>
donor molecule, donor type, donor heavy atom, donor atom, acceptor molecule, acceptor atom, score
      P1  H  6896  6907       L1    18  0.71
      P1  H  7989  7998       L1    13  0.78
      P1  H 10752 10765       L1    19  0.86

> <Gold.Chemscore.Hbond.Weighted>
-8.3088

> <Gold.Chemscore.Metal.Weighted>
-0.0000

> <Gold.Chemscore.Lipo.Weighted>
-8.5578

> <Gold.Chemscore.Internal_Hbond.Weighted>
0.0000

> <Gold.Chemscore.DEClash.Weighted>
0.0073

> <Gold.Chemscore.DEInternal.Weighted>
0.7052

> <Gold.Chemscore.Rot.Weighted>
4.8357

> <Gold.Chemscore.Internal.Correction.Weighted>
   9.000000E+99

> <Gold.Protein.RotatedTorsions>
[ 6907 6896 6895 6894 ] final  -44.35 input  -60.11 | X-H torsion
[ 7974 7965 7964 7962 ] final -139.58 input  175.53 | X-H torsion
[ 8008 7997 7996 7995 ] final  -99.58 input   59.86 | X-H torsion
[ 10167 10162 10161 10158 ] final   78.57 input  -65.29 | X-H torsion
[ 10718 10713 10712 10709 ] final   20.35 input   66.30 | X-H torsion
[ 10763 10752 10751 10750 ] final -144.85 input  -60.55 | X-H torsion
[ 11005 11000 10999 10996 ] final -127.04 input  -57.11 | X-H torsion

> <Gold.Protein.ActiveResidues>
 VAL166  LYS551  ARG553  GLY616  TRP617  ASP618  TYR619  PRO620  LYS621  CYS622 
 ASP623  PHE694  ASN695  SER759  ASP760  ASP761  ALA762  ILE779  LEU786  VAL792 
 PHE793  MET794  SER795  GLU796  ALA797  LYS798  CYS799  TRP800  GLU811  SER814 

> <Gold.Protein.RotatedAtoms>
  150.9338  134.8752  159.7568 H   0  0  0  0  0  0  0  0  0  0  0  0  # atno 6907 bound_to 6896
  152.5050  134.4040  159.9436 H   0  0  0  0  0  0  0  0  0  0  0  0  # atno 6908 bound_to 6896
  151.4065  133.3701  159.2773 H   0  0  0  0  0  0  0  0  0  0  0  0  # atno 6909 bound_to 6896
  144.8666  140.6302  143.5294 H   0  0  0  0  0  0  0  0  0  0  0  0  # atno 7974 bound_to 7965
  154.8168  140.0447  157.1382 H   0  0  0  0  0  0  0  0  0  0  0  0  # atno 8008 bound_to 7997
  154.9305  140.3039  155.5150 H   0  0  0  0  0  0  0  0  0  0  0  0  # atno 8009 bound_to 7997
  156.2977  140.2324  156.4364 H   0  0  0  0  0  0  0  0  0  0  0  0  # atno 8010 bound_to 7997
  139.9696  144.5904  150.7998 H   0  0  0  0  0  0  0  0  0  0  0  0  # atno 10167 bound_to 10162
  157.1233  130.6559  149.5930 H   0  0  0  0  0  0  0  0  0  0  0  0  # atno 10718 bound_to 10713
  154.8410  135.3429  154.6411 H   0  0  0  0  0  0  0  0  0  0  0  0  # atno 10763 bound_to 10752
  153.7022  135.6969  153.5064 H   0  0  0  0  0  0  0  0  0  0  0  0  # atno 10764 bound_to 10752
  153.2514  135.4352  155.0756 H   0  0  0  0  0  0  0  0  0  0  0  0  # atno 10765 bound_to 10752
  140.9632  134.0907  157.3947 H   0  0  0  0  0  0  0  0  0  0  0  0  # atno 11005 bound_to 11000
  145.4211  139.1564  143.4074 LP  0  0  0  0  0  0  0  0  0  0  0  0  # atno 17320 bound_to 7965
  146.2900  140.4321  142.8743 LP  0  0  0  0  0  0  0  0  0  0  0  0  # atno 17321 bound_to 7965
  140.7526  143.2994  151.3120 LP  0  0  0  0  0  0  0  0  0  0  0  0  # atno 17342 bound_to 10162
  139.6492  144.0395  152.2613 LP  0  0  0  0  0  0  0  0  0  0  0  0  # atno 17343 bound_to 10162
  155.9824  130.4837  150.6877 LP  0  0  0  0  0  0  0  0  0  0  0  0  # atno 17370 bound_to 10713
  157.4457  131.0866  151.0898 LP  0  0  0  0  0  0  0  0  0  0  0  0  # atno 17371 bound_to 10713
  139.8885  135.0098  156.6626 LP  0  0  0  0  0  0  0  0  0  0  0  0  # atno 17394 bound_to 11000
  140.7437  133.8956  155.8296 LP  0  0  0  0  0  0  0  0  0  0  0  0  # atno 17395 bound_to 11000

$$$$
