AV-unprocessed.smi:3058|AV-procd|sdf|11672|dock4
  -GOLD-   2272017 73D 1   1.00000     0.00000
 Structure written by MMmdl.
 38 40  0  0  0  0  0  0  0  0  1 V2000
  143.9322  136.0730  151.9686 O   0  0  0  0  0  0  0  0  0  0  0  0
  145.0654  135.8518  151.5411 C   0  0  0  0  0  0  0  0  0  0  0  0
  146.1245  136.6219  151.8384 N   0  0  0  0  0  0  0  0  0  0  0  0
  146.1211  137.7465  152.7711 C   0  0  0  0  0  0  0  0  0  0  0  0
  146.7155  139.0206  152.1389 C   0  0  0  0  0  0  0  0  0  0  0  0
  147.2463  140.0151  153.1579 C   0  0  0  0  0  0  0  0  0  0  0  0
  146.7178  141.3202  153.2429 C   0  0  0  0  0  0  0  0  0  0  0  0
  147.2673  142.2154  154.1803 C   0  0  0  0  0  0  0  0  0  0  0  0
  148.3227  141.7651  154.9980 C   0  0  0  0  0  0  0  0  0  0  0  0
  148.8334  140.5168  154.9295 N   0  0  0  0  0  0  0  0  0  0  0  0
  148.3027  139.6652  154.0256 C   0  0  0  0  0  0  0  0  0  0  0  0
  145.3479  134.6315  150.6487 C   0  0  1  0  0  0  0  0  0  0  0  0
  146.4351  133.6986  151.2370 C   0  0  0  0  0  0  0  0  0  0  0  0
  145.7390  132.3242  151.2739 C   0  0  2  0  0  0  0  0  0  0  0  0
  145.5264  131.8177  149.8344 C   0  0  0  0  0  0  0  0  0  0  0  0
  144.3954  132.7282  149.3172 C   0  0  0  0  0  0  0  0  0  0  0  0
  144.1436  133.6650  150.5144 C   0  0  1  0  0  0  0  0  0  0  0  0
  144.3222  132.6985  151.6856 C   0  0  0  0  0  0  0  0  0  0  0  0
  147.0157  136.3701  151.4361 H   0  0  0  0  0  0  0  0  0  0  0  0
  145.0927  137.9358  153.0785 H   0  0  0  0  0  0  0  0  0  0  0  0
  146.6664  137.4939  153.6820 H   0  0  0  0  0  0  0  0  0  0  0  0
  147.5230  138.7466  151.4587 H   0  0  0  0  0  0  0  0  0  0  0  0
  145.9598  139.5143  151.5269 H   0  0  0  0  0  0  0  0  0  0  0  0
  145.9149  141.6359  152.5932 H   0  0  0  0  0  0  0  0  0  0  0  0
  146.8922  143.2243  154.2674 H   0  0  0  0  0  0  0  0  0  0  0  0
  148.7691  142.4257  155.7265 H   0  0  0  0  0  0  0  0  0  0  0  0
  148.7405  138.6785  153.9868 H   0  0  0  0  0  0  0  0  0  0  0  0
  145.6504  134.9860  149.6617 H   0  0  0  0  0  0  0  0  0  0  0  0
  147.3364  133.6834  150.6233 H   0  0  0  0  0  0  0  0  0  0  0  0
  146.7341  133.9971  152.2438 H   0  0  0  0  0  0  0  0  0  0  0  0
  146.2322  131.6015  151.9244 H   0  0  0  0  0  0  0  0  0  0  0  0
  146.4322  131.8961  149.2320 H   0  0  0  0  0  0  0  0  0  0  0  0
  145.2103  130.7739  149.8305 H   0  0  0  0  0  0  0  0  0  0  0  0
  144.6738  133.2684  148.4117 H   0  0  0  0  0  0  0  0  0  0  0  0
  143.5043  132.1406  149.0924 H   0  0  0  0  0  0  0  0  0  0  0  0
  143.1732  134.1618  150.4790 H   0  0  0  0  0  0  0  0  0  0  0  0
  143.6291  131.8559  151.6597 H   0  0  0  0  0  0  0  0  0  0  0  0
  144.2680  133.1662  152.6688 H   0  0  0  0  0  0  0  0  0  0  0  0
  1  2  2  0  0  0  0
  2  3  1  0  0  0  0
  2 12  1  0  0  0  0
  3  4  1  0  0  0  0
  3 19  1  0  0  0  0
  4  5  1  0  0  0  0
  4 20  1  0  0  0  0
  4 21  1  0  0  0  0
  5  6  1  0  0  0  0
  5 22  1  0  0  0  0
  5 23  1  0  0  0  0
  6 11  1  0  0  0  0
  6  7  2  0  0  0  0
  7  8  1  0  0  0  0
  7 24  1  0  0  0  0
  8  9  2  0  0  0  0
  8 25  1  0  0  0  0
  9 10  1  0  0  0  0
  9 26  1  0  0  0  0
 10 11  2  0  0  0  0
 11 27  1  0  0  0  0
 12 17  1  0  0  0  0
 12 13  1  0  0  0  0
 12 28  1  0  0  0  0
 13 14  1  0  0  0  0
 13 29  1  0  0  0  0
 13 30  1  0  0  0  0
 14 18  1  0  0  0  0
 14 15  1  0  0  0  0
 14 31  1  0  0  0  0
 15 16  1  0  0  0  0
 15 32  1  0  0  0  0
 15 33  1  0  0  0  0
 16 17  1  0  0  0  0
 16 34  1  0  0  0  0
 16 35  1  0  0  0  0
 17 18  1  0  0  0  0
 17 36  1  0  0  0  0
 18 37  1  0  0  0  0
 18 38  1  0  0  0  0
M  END
> <s_m_source_file>
AV-unprocessed.smi

> <i_m_source_file_index>
3058

> <i_lp_mmshare_version>
43012

> <i_f3d_flags>
0

> <s_epik_input>
W0NIMl0xW0NIMl1bQ0BIXShbQ0gyXTIpW0NAQEhdKFtDSDJdW0NAQEhdMTIpQyg9TylbTkhdW0NIMl1bQ0gyXWMzW2NIXVtjSF1bY0hdbltjSF0z

> <s_epik_cmdline>
J2VwaWtfcHl0aG9uJywgJy1waCcsICc3LjAnLCAnLXRuJywgJzgnLCAnLW1hJywgJzIwMCcsICctbWV0YWxfYmluZGluZycsICctaW1hZScsICc8aW5maWxlLm1hZT4nLCAnLW9tYWUnLCAnPG91dGZpbGUubWFlPic=

> <r_epik_Ionization_Penalty>
0.0135821

> <r_epik_Ionization_Penalty_Charging>
0

> <r_epik_Ionization_Penalty_Neutral>
0.0135821

> <r_epik_State_Penalty>
0.0105782

> <r_epik_Charging_Adjusted_Penalty>
0.0105782

> <i_epik_Tot_Q>
0

> <i_epik_Tot_abs_Q>
0

> <r_epik_Metal_State_Penalty>
0.0103407

> <b_epik_Metal_Only>
0

> <s_lp_Force_Field>
OPLS_2005

> <r_lp_Energy>
47.0399

> <b_lp_Chiralities_Consistent>
1

> <s_lp_Variant>
AV-unprocessed.smi:3058-4

> <Gold.Version>
5.8.1

> <Gold.Id.Protein>
6NUR|6NUR_protein|mol2

> <Gold.PLP.Fitness>
42.9554

> <Gold.PLP.PLP>
-38.2390

> <Gold.PLP.part.hbond>
-1.0000

> <Gold.PLP.part.metal>
0.0000

> <Gold.PLP.part.buried>
-1.1238

> <Gold.PLP.part.nonpolar>
-35.4361

> <Gold.PLP.part.repulsive>
0.2930

> <Gold.PLP.ligand.clash>
0.0000

> <Gold.PLP.ligand.torsion>
0.2328

> <Gold.PLP.Chemscore.Hbond>
0.8640

> <Gold.PLP.Chemscore.CHOScore>
0.8530

> <Gold.PLP.Chemscore.Metal>
0.0000

> <Gold.Chemscore.Hbonds>
donor molecule, donor type, donor heavy atom, donor atom, acceptor molecule, acceptor atom, score
      L1  H     3    19       P1  7948  0.88
      L1  C     9    26       P1  8028  0.94

> <Gold.PLP.Chemscore.Internal.Correction>
0.0312

> <Gold.Rescore>
     Score         DG    S(hbond)    S(metal)    S(lipo)     H(rot)  DE(clash)    DE(int)     intcor
     16.29     -16.79       0.91        0.00     100.64       1.37       0.33       0.17       ----

> <Gold.Chemscore.Fitness>
16.2877

> <Gold.Chemscore.DG>
-16.7896

> <Gold.Chemscore.ZeroCoef>
-5.4800

> <Gold.Chemscore.Hbond>
0.9070

> <Gold.Chemscore.Metal>
0.0000

> <Gold.Chemscore.Lipo>
100.6431

> <Gold.Chemscore.Internal_Hbond>
0.0000

> <Gold.Chemscore.DEClash>
0.3297

> <Gold.Chemscore.DEInternal>
0.1722

> <Gold.Chemscore.Rot>
1.3653

> <Gold.Chemscore.Internal.Correction>
   9.000000E+99

> <Gold.Chemscore.Hbonds>
donor molecule, donor type, donor heavy atom, donor atom, acceptor molecule, acceptor atom, score
      L1  H     3    19       P1  7948  0.86

> <Gold.Chemscore.Hbond.Weighted>
-3.0295

> <Gold.Chemscore.Metal.Weighted>
-0.0000

> <Gold.Chemscore.Lipo.Weighted>
-11.7752

> <Gold.Chemscore.Internal_Hbond.Weighted>
0.0000

> <Gold.Chemscore.DEClash.Weighted>
0.3297

> <Gold.Chemscore.DEInternal.Weighted>
0.1722

> <Gold.Chemscore.Rot.Weighted>
3.4951

> <Gold.Chemscore.Internal.Correction.Weighted>
   9.000000E+99

> <Gold.Protein.RotatedTorsions>
[ 6907 6896 6895 6894 ] final   17.67 input  -60.11 | X-H torsion
[ 7974 7965 7964 7962 ] final  160.27 input  175.53 | X-H torsion
[ 8008 7997 7996 7995 ] final  -15.48 input   59.86 | X-H torsion
[ 10167 10162 10161 10158 ] final -111.37 input  -65.29 | X-H torsion
[ 10718 10713 10712 10709 ] final  -80.01 input   66.30 | X-H torsion
[ 10763 10752 10751 10750 ] final  101.60 input  -60.55 | X-H torsion
[ 11005 11000 10999 10996 ] final -110.68 input  -57.11 | X-H torsion

> <Gold.Protein.ActiveResidues>
 VAL166  LYS551  ARG553  GLY616  TRP617  ASP618  TYR619  PRO620  LYS621  CYS622 
 ASP623  PHE694  ASN695  SER759  ASP760  ASP761  ALA762  ILE779  LEU786  VAL792 
 PHE793  MET794  SER795  GLU796  ALA797  LYS798  CYS799  TRP800  GLU811  SER814 

> <Gold.Protein.RotatedAtoms>
  151.8533  135.0550  160.0461 H   0  0  0  0  0  0  0  0  0  0  0  0  # atno 6907 bound_to 6896
  152.2719  133.5386  159.5453 H   0  0  0  0  0  0  0  0  0  0  0  0  # atno 6908 bound_to 6896
  150.7155  134.0601  159.3870 H   0  0  0  0  0  0  0  0  0  0  0  0  # atno 6909 bound_to 6896
  144.7746  139.7733  143.6284 H   0  0  0  0  0  0  0  0  0  0  0  0  # atno 7974 bound_to 7965
  154.5127  140.2195  155.9125 H   0  0  0  0  0  0  0  0  0  0  0  0  # atno 8008 bound_to 7997
  156.1571  140.3149  155.8711 H   0  0  0  0  0  0  0  0  0  0  0  0  # atno 8009 bound_to 7997
  155.3824  140.0473  157.3034 H   0  0  0  0  0  0  0  0  0  0  0  0  # atno 8010 bound_to 7997
  140.1344  143.4333  152.1605 H   0  0  0  0  0  0  0  0  0  0  0  0  # atno 10167 bound_to 10162
  156.0079  130.4562  150.3736 H   0  0  0  0  0  0  0  0  0  0  0  0  # atno 10718 bound_to 10713
  153.3287  135.4039  155.1478 H   0  0  0  0  0  0  0  0  0  0  0  0  # atno 10763 bound_to 10752
  154.8618  135.3605  154.5499 H   0  0  0  0  0  0  0  0  0  0  0  0  # atno 10764 bound_to 10752
  153.5936  135.7073  153.5472 H   0  0  0  0  0  0  0  0  0  0  0  0  # atno 10765 bound_to 10752
  141.0778  133.9271  157.2353 H   0  0  0  0  0  0  0  0  0  0  0  0  # atno 11005 bound_to 11000
  146.1916  139.5160  142.9801 LP  0  0  0  0  0  0  0  0  0  0  0  0  # atno 17320 bound_to 7965
  145.6224  141.0320  143.1907 LP  0  0  0  0  0  0  0  0  0  0  0  0  # atno 17321 bound_to 7965
  139.5503  144.7332  151.4454 LP  0  0  0  0  0  0  0  0  0  0  0  0  # atno 17342 bound_to 10162
  140.6798  143.8108  150.7106 LP  0  0  0  0  0  0  0  0  0  0  0  0  # atno 17343 bound_to 10162
  157.1819  131.0394  151.2744 LP  0  0  0  0  0  0  0  0  0  0  0  0  # atno 17370 bound_to 10713
  157.4138  130.7400  149.6860 LP  0  0  0  0  0  0  0  0  0  0  0  0  # atno 17371 bound_to 10713
  139.9591  135.0158  156.9210 LP  0  0  0  0  0  0  0  0  0  0  0  0  # atno 17394 bound_to 11000
  140.5535  134.0604  155.7376 LP  0  0  0  0  0  0  0  0  0  0  0  0  # atno 17395 bound_to 11000

$$$$
