AV-unprocessed.smi:2671|AV-procd|sdf|10351|dock10
  -GOLD-   2272014373D 1   1.00000     0.00000
 Structure written by MMmdl.
 29 30  0  0  0  0  0  0  0  0  1 V2000
  151.8799  138.7561  156.9915 O   0  0  0  0  0  0  0  0  0  0  0  0
  151.3748  139.8584  156.7900 C   0  0  0  0  0  0  0  0  0  0  0  0
  151.7229  141.0131  157.6270 C   0  0  0  0  0  0  0  0  0  0  0  0
  151.1533  142.2106  157.3834 C   0  0  0  0  0  0  0  0  0  0  0  0
  151.4596  143.4563  158.1994 C   0  0  0  0  0  0  0  0  0  0  0  0
  151.9468  144.4132  157.4104 F   0  0  0  0  0  0  0  0  0  0  0  0
  150.3476  143.9167  158.7715 F   0  0  0  0  0  0  0  0  0  0  0  0
  152.3532  143.2112  159.1600 F   0  0  0  0  0  0  0  0  0  0  0  0
  150.2447  142.3547  156.3475 N   0  0  0  0  0  0  0  0  0  0  0  0
  149.9312  141.2466  155.5704 C   0  0  0  0  0  0  0  0  0  0  0  0
  148.7227  141.7062  154.2940 S   0  0  0  0  0  0  0  0  0  0  0  0
  147.1507  141.3767  155.1424 C   0  0  0  0  0  0  0  0  0  0  0  0
  145.9915  142.1710  154.5255 C   0  0  1  0  0  0  0  0  0  0  0  0
  145.0651  142.8426  155.5407 C   0  0  0  0  0  0  0  0  0  0  0  0
  144.5204  144.0512  154.7928 C   0  0  0  0  0  0  0  0  0  0  0  0
  145.3869  144.1369  153.5336 C   0  0  0  0  0  0  0  0  0  0  0  0
  146.4874  143.2763  153.7880 O   0  0  0  0  0  0  0  0  0  0  0  0
  150.4464  140.0647  155.7567 N   0  0  0  0  0  0  0  0  0  0  0  0
  149.8406  143.2679  156.1955 H   0  0  0  0  0  0  0  0  0  0  0  0
  152.4329  140.9013  158.4337 H   0  0  0  0  0  0  0  0  0  0  0  0
  147.2615  141.6484  156.1924 H   0  0  0  0  0  0  0  0  0  0  0  0
  146.9379  140.3077  155.1092 H   0  0  0  0  0  0  0  0  0  0  0  0
  145.4136  141.5357  153.8513 H   0  0  0  0  0  0  0  0  0  0  0  0
  144.2791  142.1741  155.8935 H   0  0  0  0  0  0  0  0  0  0  0  0
  145.6331  143.1787  156.4093 H   0  0  0  0  0  0  0  0  0  0  0  0
  143.4686  143.9278  154.5331 H   0  0  0  0  0  0  0  0  0  0  0  0
  144.6128  144.9514  155.4014 H   0  0  0  0  0  0  0  0  0  0  0  0
  144.8385  143.7686  152.6653 H   0  0  0  0  0  0  0  0  0  0  0  0
  145.7196  145.1528  153.3202 H   0  0  0  0  0  0  0  0  0  0  0  0
  1  2  2  0  0  0  0
  2 18  1  0  0  0  0
  2  3  1  0  0  0  0
  3 20  1  0  0  0  0
  3  4  2  0  0  0  0
  4  5  1  0  0  0  0
  4  9  1  0  0  0  0
  5  6  1  0  0  0  0
  5  7  1  0  0  0  0
  5  8  1  0  0  0  0
  9 10  1  0  0  0  0
  9 19  1  0  0  0  0
 10 11  1  0  0  0  0
 10 18  2  0  0  0  0
 11 12  1  0  0  0  0
 12 13  1  0  0  0  0
 12 21  1  0  0  0  0
 12 22  1  0  0  0  0
 13 17  1  0  0  0  0
 13 14  1  0  0  0  0
 13 23  1  0  0  0  0
 14 15  1  0  0  0  0
 14 24  1  0  0  0  0
 14 25  1  0  0  0  0
 15 16  1  0  0  0  0
 15 26  1  0  0  0  0
 15 27  1  0  0  0  0
 16 17  1  0  0  0  0
 16 28  1  0  0  0  0
 16 29  1  0  0  0  0
M  END
> <s_m_source_file>
AV-unprocessed.smi

> <i_m_source_file_index>
2671

> <i_lp_mmshare_version>
43012

> <i_f3d_flags>
0

> <s_epik_input>
W09IXWMxW2NIXWMoQyhGKShGKUYpbmMobjEpU1tDSDJdW0NAQEhdMltDSDJdW0NIMl1bQ0gyXU8y

> <s_epik_cmdline>
J2VwaWtfcHl0aG9uJywgJy1waCcsICc3LjAnLCAnLXRuJywgJzgnLCAnLW1hJywgJzIwMCcsICctbWV0YWxfYmluZGluZycsICctaW1hZScsICc8aW5maWxlLm1hZT4nLCAnLW9tYWUnLCAnPG91dGZpbGUubWFlPic=

> <r_lp_tautomer_probability>
0.273662

> <r_epik_Ionization_Penalty>
1.33793

> <r_epik_Ionization_Penalty_Charging>
1.33793

> <r_epik_Ionization_Penalty_Neutral>
8.2996e-08

> <r_epik_State_Penalty>
1.59174

> <r_epik_Charging_Adjusted_Penalty>
2.92967

> <i_epik_Tot_Q>
0

> <i_epik_Tot_abs_Q>
0

> <r_epik_Metal_State_Penalty>
2.31522

> <b_epik_Metal_Only>
0

> <s_lp_Force_Field>
OPLS_2005

> <r_lp_Energy>
25.3569

> <b_lp_Chiralities_Consistent>
1

> <s_lp_Variant>
AV-unprocessed.smi:2671-6

> <Gold.Version>
5.8.1

> <Gold.Id.Protein>
6NUR|6NUR_protein|mol2

> <Gold.PLP.Fitness>
37.6978

> <Gold.PLP.PLP>
-36.8550

> <Gold.PLP.part.hbond>
-1.8056

> <Gold.PLP.part.metal>
0.0000

> <Gold.PLP.part.buried>
-4.7148

> <Gold.PLP.part.nonpolar>
-31.4309

> <Gold.PLP.part.repulsive>
0.3092

> <Gold.PLP.ligand.clash>
0.0000

> <Gold.PLP.ligand.torsion>
1.0870

> <Gold.PLP.Chemscore.Hbond>
1.0000

> <Gold.PLP.Chemscore.CHOScore>
0.0000

> <Gold.PLP.Chemscore.Metal>
0.0000

> <Gold.Chemscore.Hbonds>
donor molecule, donor type, donor heavy atom, donor atom, acceptor molecule, acceptor atom, score
      L1  H     9    19       P1  8028  1.00

> <Gold.PLP.Chemscore.Internal.Correction>
0.0167

> <Gold.Rescore>
     Score         DG    S(hbond)    S(metal)    S(lipo)     H(rot)  DE(clash)    DE(int)     intcor
     10.45     -11.43       1.00        0.00      59.38       1.69       0.05       0.93       ----

> <Gold.Chemscore.Fitness>
10.4540

> <Gold.Chemscore.DG>
-11.4333

> <Gold.Chemscore.ZeroCoef>
-5.4800

> <Gold.Chemscore.Hbond>
0.9994

> <Gold.Chemscore.Metal>
0.0000

> <Gold.Chemscore.Lipo>
59.3822

> <Gold.Chemscore.Internal_Hbond>
0.0000

> <Gold.Chemscore.DEClash>
0.0466

> <Gold.Chemscore.DEInternal>
0.9327

> <Gold.Chemscore.Rot>
1.6924

> <Gold.Chemscore.Internal.Correction>
   9.000000E+99

> <Gold.Chemscore.Hbonds>
donor molecule, donor type, donor heavy atom, donor atom, acceptor molecule, acceptor atom, score
      L1  H     9    19       P1  8028  1.00

> <Gold.Chemscore.Hbond.Weighted>
-3.3380

> <Gold.Chemscore.Metal.Weighted>
-0.0000

> <Gold.Chemscore.Lipo.Weighted>
-6.9477

> <Gold.Chemscore.Internal_Hbond.Weighted>
0.0000

> <Gold.Chemscore.DEClash.Weighted>
0.0466

> <Gold.Chemscore.DEInternal.Weighted>
0.9327

> <Gold.Chemscore.Rot.Weighted>
4.3324

> <Gold.Chemscore.Internal.Correction.Weighted>
   9.000000E+99

> <Gold.Protein.RotatedTorsions>
[ 6907 6896 6895 6894 ] final   50.76 input  -60.11 | X-H torsion
[ 7974 7965 7964 7962 ] final -175.65 input  175.53 | X-H torsion
[ 8008 7997 7996 7995 ] final  -95.67 input   59.86 | X-H torsion
[ 10167 10162 10161 10158 ] final   90.96 input  -65.29 | X-H torsion
[ 10718 10713 10712 10709 ] final   -2.15 input   66.30 | X-H torsion
[ 10763 10752 10751 10750 ] final   75.34 input  -60.55 | X-H torsion
[ 11005 11000 10999 10996 ] final   39.63 input  -57.11 | X-H torsion

> <Gold.Protein.ActiveResidues>
 VAL166  LYS551  ARG553  GLY616  TRP617  ASP618  TYR619  PRO620  LYS621  CYS622 
 ASP623  PHE694  ASN695  SER759  ASP760  ASP761  ALA762  ILE779  LEU786  VAL792 
 PHE793  MET794  SER795  GLU796  ALA797  LYS798  CYS799  TRP800  GLU811  SER814 

> <Gold.Protein.RotatedAtoms>
  152.3053  134.7563  160.0348 H   0  0  0  0  0  0  0  0  0  0  0  0  # atno 6907 bound_to 6896
  151.8062  133.3370  159.3550 H   0  0  0  0  0  0  0  0  0  0  0  0  # atno 6908 bound_to 6896
  150.7293  134.5637  159.5899 H   0  0  0  0  0  0  0  0  0  0  0  0  # atno 6909 bound_to 6896
  144.7128  140.1290  143.6400 H   0  0  0  0  0  0  0  0  0  0  0  0  # atno 7974 bound_to 7965
  154.7644  140.0478  157.1000 H   0  0  0  0  0  0  0  0  0  0  0  0  # atno 8008 bound_to 7997
  154.9897  140.3111  155.4892 H   0  0  0  0  0  0  0  0  0  0  0  0  # atno 8009 bound_to 7997
  156.2910  140.2221  156.5001 H   0  0  0  0  0  0  0  0  0  0  0  0  # atno 8010 bound_to 7997
  139.8422  144.6635  150.9270 H   0  0  0  0  0  0  0  0  0  0  0  0  # atno 10167 bound_to 10162
  156.7950  130.5374  149.5730 H   0  0  0  0  0  0  0  0  0  0  0  0  # atno 10718 bound_to 10713
  153.0648  135.4992  154.8175 H   0  0  0  0  0  0  0  0  0  0  0  0  # atno 10763 bound_to 10752
  154.6937  135.2989  154.9445 H   0  0  0  0  0  0  0  0  0  0  0  0  # atno 10764 bound_to 10752
  154.0191  135.6744  153.4824 H   0  0  0  0  0  0  0  0  0  0  0  0  # atno 10765 bound_to 10752
  140.2010  134.3871  155.8096 H   0  0  0  0  0  0  0  0  0  0  0  0  # atno 11005 bound_to 11000
  145.9304  139.2602  143.1328 LP  0  0  0  0  0  0  0  0  0  0  0  0  # atno 17320 bound_to 7965
  145.9529  140.8895  143.0250 LP  0  0  0  0  0  0  0  0  0  0  0  0  # atno 17321 bound_to 7965
  140.7797  143.3903  151.1322 LP  0  0  0  0  0  0  0  0  0  0  0  0  # atno 17342 bound_to 10162
  139.7548  143.8724  152.3086 LP  0  0  0  0  0  0  0  0  0  0  0  0  # atno 17343 bound_to 10162
  156.1135  130.6058  151.0085 LP  0  0  0  0  0  0  0  0  0  0  0  0  # atno 17370 bound_to 10713
  157.6582  131.0885  150.7900 LP  0  0  0  0  0  0  0  0  0  0  0  0  # atno 17371 bound_to 10713
  141.2227  133.7094  156.8257 LP  0  0  0  0  0  0  0  0  0  0  0  0  # atno 17394 bound_to 11000
  140.2055  134.8866  157.3216 LP  0  0  0  0  0  0  0  0  0  0  0  0  # atno 17395 bound_to 11000

$$$$
