AV-unprocessed.smi:349|AV-procd|sdf|2397|dock6
  -GOLD-   2262022323D 1   1.00000     0.00000
 Structure written by MMmdl.
 43 44  0  0  0  0  0  0  0  0  1 V2000
  151.8030  144.1860  160.5847 C   0  0  0  0  0  0  0  0  0  0  0  0
  150.8195  144.7791  159.5635 C   0  0  0  0  0  0  0  0  0  0  0  0
  151.2731  144.6433  158.0931 C   0  0  1  0  0  0  0  0  0  0  0  0
  152.6100  145.3677  157.8605 C   0  0  0  0  0  0  0  0  0  0  0  0
  151.3924  143.1743  157.6610 C   0  0  0  0  0  0  0  0  0  0  0  0
  152.1196  142.4021  158.2863 O   0  0  0  0  0  0  0  0  0  0  0  0
  150.6789  142.8076  156.5844 N   0  0  0  0  0  0  0  0  0  0  0  0
  150.6620  141.4766  155.9836 C   0  0  0  0  0  0  0  0  0  0  0  0
  149.3899  141.1876  155.1850 C   0  0  0  0  0  0  0  0  0  0  0  0
  148.5001  142.2443  154.8839 C   0  0  0  0  0  0  0  0  0  0  0  0
  147.3454  141.9851  154.1251 C   0  0  0  0  0  0  0  0  0  0  0  0
  147.1217  140.6698  153.6839 C   0  0  0  0  0  0  0  0  0  0  0  0
  147.9617  139.6501  153.9530 N   0  0  0  0  0  0  0  0  0  0  0  0
  149.0773  139.8929  154.6846 C   0  0  0  0  0  0  0  0  0  0  0  0
  149.9135  138.7945  154.9548 N   0  0  0  0  0  0  0  0  0  0  0  0
  151.3084  138.9151  154.5436 C   0  0  0  0  0  0  0  0  0  0  0  0
  152.1169  137.7247  155.0867 C   0  0  0  0  0  0  0  0  0  0  0  0
  151.5262  136.5064  154.6422 O   0  0  0  0  0  0  0  0  0  0  0  0
  150.1855  136.3603  155.1028 C   0  0  0  0  0  0  0  0  0  0  0  0
  149.3237  137.5184  154.5703 C   0  0  0  0  0  0  0  0  0  0  0  0
  151.3985  144.2564  161.5944 H   0  0  0  0  0  0  0  0  0  0  0  0
  152.7581  144.7115  160.5784 H   0  0  0  0  0  0  0  0  0  0  0  0
  151.9968  143.1331  160.3782 H   0  0  0  0  0  0  0  0  0  0  0  0
  149.8588  144.2771  159.6843 H   0  0  0  0  0  0  0  0  0  0  0  0
  150.6376  145.8276  159.8045 H   0  0  0  0  0  0  0  0  0  0  0  0
  150.5248  145.1280  157.4636 H   0  0  0  0  0  0  0  0  0  0  0  0
  152.9385  145.2726  156.8247 H   0  0  0  0  0  0  0  0  0  0  0  0
  153.3995  144.9682  158.4983 H   0  0  0  0  0  0  0  0  0  0  0  0
  152.5195  146.4326  158.0765 H   0  0  0  0  0  0  0  0  0  0  0  0
  150.1090  143.5114  156.1379 H   0  0  0  0  0  0  0  0  0  0  0  0
  151.5182  141.3340  155.3227 H   0  0  0  0  0  0  0  0  0  0  0  0
  150.8018  140.7658  156.7957 H   0  0  0  0  0  0  0  0  0  0  0  0
  148.6979  143.2503  155.2218 H   0  0  0  0  0  0  0  0  0  0  0  0
  146.6516  142.7765  153.8833 H   0  0  0  0  0  0  0  0  0  0  0  0
  146.2469  140.4296  153.0979 H   0  0  0  0  0  0  0  0  0  0  0  0
  151.3747  138.9360  153.4549 H   0  0  0  0  0  0  0  0  0  0  0  0
  151.7238  139.8529  154.9144 H   0  0  0  0  0  0  0  0  0  0  0  0
  153.1453  137.7732  154.7284 H   0  0  0  0  0  0  0  0  0  0  0  0
  152.1570  137.7460  156.1769 H   0  0  0  0  0  0  0  0  0  0  0  0
  149.7920  135.4063  154.7520 H   0  0  0  0  0  0  0  0  0  0  0  0
  150.1666  136.3318  156.1935 H   0  0  0  0  0  0  0  0  0  0  0  0
  148.3066  137.4348  154.9544 H   0  0  0  0  0  0  0  0  0  0  0  0
  149.2592  137.4664  153.4825 H   0  0  0  0  0  0  0  0  0  0  0  0
  1  2  1  0  0  0  0
  1 21  1  0  0  0  0
  1 22  1  0  0  0  0
  1 23  1  0  0  0  0
  2  3  1  0  0  0  0
  2 24  1  0  0  0  0
  2 25  1  0  0  0  0
  3  4  1  0  0  0  0
  3  5  1  0  0  0  0
  3 26  1  0  0  0  0
  4 27  1  0  0  0  0
  4 28  1  0  0  0  0
  4 29  1  0  0  0  0
  5  6  2  0  0  0  0
  5  7  1  0  0  0  0
  7  8  1  0  0  0  0
  7 30  1  0  0  0  0
  8  9  1  0  0  0  0
  8 31  1  0  0  0  0
  8 32  1  0  0  0  0
  9 14  1  0  0  0  0
  9 10  2  0  0  0  0
 10 11  1  0  0  0  0
 10 33  1  0  0  0  0
 11 12  2  0  0  0  0
 11 34  1  0  0  0  0
 12 13  1  0  0  0  0
 12 35  1  0  0  0  0
 13 14  2  0  0  0  0
 14 15  1  0  0  0  0
 15 20  1  0  0  0  0
 15 16  1  0  0  0  0
 16 17  1  0  0  0  0
 16 36  1  0  0  0  0
 16 37  1  0  0  0  0
 17 18  1  0  0  0  0
 17 38  1  0  0  0  0
 17 39  1  0  0  0  0
 18 19  1  0  0  0  0
 19 20  1  0  0  0  0
 19 40  1  0  0  0  0
 19 41  1  0  0  0  0
 20 42  1  0  0  0  0
 20 43  1  0  0  0  0
M  END
> <s_m_source_file>
AV-unprocessed.smi

> <i_m_source_file_index>
349

> <i_lp_mmshare_version>
43012

> <i_f3d_flags>
0

> <s_epik_input>
W0NIM11bQ0gyXVtDQEhdKFtDSDNdKUMoPU8pW05IXVtDSDJdYzFbY0hdW2NIXVtjSF1uYzFOMltDSDJdW0NIMl1PW0NIMl1bQ0gyXTI=

> <s_epik_cmdline>
J2VwaWtfcHl0aG9uJywgJy1waCcsICc3LjAnLCAnLXRuJywgJzgnLCAnLW1hJywgJzIwMCcsICctbWV0YWxfYmluZGluZycsICctaW1hZScsICc8aW5maWxlLm1hZT4nLCAnLW9tYWUnLCAnPG91dGZpbGUubWFlPic=

> <r_lp_tautomer_probability>
1

> <r_epik_Ionization_Penalty>
0.00513869

> <r_epik_Ionization_Penalty_Charging>
0

> <r_epik_Ionization_Penalty_Neutral>
0.00513869

> <r_epik_State_Penalty>
0.00374265

> <r_epik_Charging_Adjusted_Penalty>
0.00374265

> <i_epik_Tot_Q>
0

> <i_epik_Tot_abs_Q>
0

> <r_epik_Metal_State_Penalty>
-0

> <b_epik_Metal_Only>
0

> <s_lp_Force_Field>
OPLS_2005

> <r_lp_Energy>
19.4622

> <b_lp_Chiralities_Consistent>
1

> <s_lp_Variant>
AV-unprocessed.smi:349-2

> <Gold.Version>
5.8.1

> <Gold.Id.Protein>
6NUR|6NUR_protein|mol2

> <Gold.PLP.Fitness>
43.3345

> <Gold.PLP.PLP>
-36.0638

> <Gold.PLP.part.hbond>
-2.0000

> <Gold.PLP.part.metal>
0.0000

> <Gold.PLP.part.buried>
-1.4951

> <Gold.PLP.part.nonpolar>
-34.0987

> <Gold.PLP.part.repulsive>
0.4853

> <Gold.PLP.ligand.clash>
0.0000

> <Gold.PLP.ligand.torsion>
0.4484

> <Gold.PLP.Chemscore.Hbond>
1.9500

> <Gold.PLP.Chemscore.CHOScore>
0.7033

> <Gold.PLP.Chemscore.Metal>
0.0000

> <Gold.Chemscore.Hbonds>
donor molecule, donor type, donor heavy atom, donor atom, acceptor molecule, acceptor atom, score
      L1  H     7    30       P1  8028  1.00
      P1  H 10752 10765       L1    18  0.90
      L1  C    12    35       P1 10175  0.74

> <Gold.PLP.Chemscore.Internal.Correction>
0.2075

> <Gold.Rescore>
     Score         DG    S(hbond)    S(metal)    S(lipo)     H(rot)  DE(clash)    DE(int)     intcor
     14.27     -20.20       1.89        0.00     107.66       1.64       3.22       2.72       ----

> <Gold.Chemscore.Fitness>
14.2661

> <Gold.Chemscore.DG>
-20.1979

> <Gold.Chemscore.ZeroCoef>
-5.4800

> <Gold.Chemscore.Hbond>
1.8928

> <Gold.Chemscore.Metal>
0.0000

> <Gold.Chemscore.Lipo>
107.6580

> <Gold.Chemscore.Internal_Hbond>
0.0000

> <Gold.Chemscore.DEClash>
3.2160

> <Gold.Chemscore.DEInternal>
2.7157

> <Gold.Chemscore.Rot>
1.6407

> <Gold.Chemscore.Internal.Correction>
   9.000000E+99

> <Gold.Chemscore.Hbonds>
donor molecule, donor type, donor heavy atom, donor atom, acceptor molecule, acceptor atom, score
      L1  H     7    30       P1  8028  1.00
      P1  H 10752 10765       L1    18  0.18

> <Gold.Chemscore.Hbond.Weighted>
-6.3220

> <Gold.Chemscore.Metal.Weighted>
-0.0000

> <Gold.Chemscore.Lipo.Weighted>
-12.5960

> <Gold.Chemscore.Internal_Hbond.Weighted>
0.0000

> <Gold.Chemscore.DEClash.Weighted>
3.2160

> <Gold.Chemscore.DEInternal.Weighted>
2.7157

> <Gold.Chemscore.Rot.Weighted>
4.2001

> <Gold.Chemscore.Internal.Correction.Weighted>
   9.000000E+99

> <Gold.Protein.RotatedTorsions>
[ 6907 6896 6895 6894 ] final   75.50 input  -60.11 | X-H torsion
[ 7974 7965 7964 7962 ] final  154.77 input  175.53 | X-H torsion
[ 8008 7997 7996 7995 ] final  158.19 input   59.86 | X-H torsion
[ 10167 10162 10161 10158 ] final   72.55 input  -65.29 | X-H torsion
[ 10718 10713 10712 10709 ] final  117.14 input   66.30 | X-H torsion
[ 10763 10752 10751 10750 ] final  173.49 input  -60.55 | X-H torsion
[ 11005 11000 10999 10996 ] final -149.43 input  -57.11 | X-H torsion

> <Gold.Protein.ActiveResidues>
 VAL166  LYS551  ARG553  GLY616  TRP617  ASP618  TYR619  PRO620  LYS621  CYS622 
 ASP623  PHE694  ASN695  SER759  ASP760  ASP761  ALA762  ILE779  LEU786  VAL792 
 PHE793  MET794  SER795  GLU796  ALA797  LYS798  CYS799  TRP800  GLU811  SER814 

> <Gold.Protein.RotatedAtoms>
  152.5029  134.4111  159.9448 H   0  0  0  0  0  0  0  0  0  0  0  0  # atno 6907 bound_to 6896
  151.4079  133.3730  159.2748 H   0  0  0  0  0  0  0  0  0  0  0  0  # atno 6908 bound_to 6896
  150.9313  134.8750  159.7612 H   0  0  0  0  0  0  0  0  0  0  0  0  # atno 6909 bound_to 6896
  144.8067  139.6978  143.6159 H   0  0  0  0  0  0  0  0  0  0  0  0  # atno 7974 bound_to 7965
  156.2318  140.1865  156.7223 H   0  0  0  0  0  0  0  0  0  0  0  0  # atno 8008 bound_to 7997
  154.6035  140.0632  156.9428 H   0  0  0  0  0  0  0  0  0  0  0  0  # atno 8009 bound_to 7997
  155.2134  140.3302  155.4328 H   0  0  0  0  0  0  0  0  0  0  0  0  # atno 8010 bound_to 7997
  140.0341  144.5442  150.7484 H   0  0  0  0  0  0  0  0  0  0  0  0  # atno 10167 bound_to 10162
  157.6115  131.1034  150.7573 H   0  0  0  0  0  0  0  0  0  0  0  0  # atno 10718 bound_to 10713
  154.4408  135.2762  155.1849 H   0  0  0  0  0  0  0  0  0  0  0  0  # atno 10763 bound_to 10752
  154.3716  135.6107  153.5747 H   0  0  0  0  0  0  0  0  0  0  0  0  # atno 10764 bound_to 10752
  152.9841  135.5859  154.4735 H   0  0  0  0  0  0  0  0  0  0  0  0  # atno 10765 bound_to 10752
  140.7508  134.3408  157.5126 H   0  0  0  0  0  0  0  0  0  0  0  0  # atno 11005 bound_to 11000
  146.2360  139.5905  142.9524 LP  0  0  0  0  0  0  0  0  0  0  0  0  # atno 17320 bound_to 7965
  145.5421  141.0420  143.2325 LP  0  0  0  0  0  0  0  0  0  0  0  0  # atno 17321 bound_to 7965
  140.7289  143.2667  151.4022 LP  0  0  0  0  0  0  0  0  0  0  0  0  # atno 17342 bound_to 10162
  139.6057  144.1203  152.2246 LP  0  0  0  0  0  0  0  0  0  0  0  0  # atno 17343 bound_to 10162
  156.7949  130.4902  149.5379 LP  0  0  0  0  0  0  0  0  0  0  0  0  # atno 17370 bound_to 10713
  156.1220  130.6117  151.0208 LP  0  0  0  0  0  0  0  0  0  0  0  0  # atno 17371 bound_to 10713
  139.8788  134.9141  156.3099 LP  0  0  0  0  0  0  0  0  0  0  0  0  # atno 17394 bound_to 11000
  140.9752  133.7302  156.0592 LP  0  0  0  0  0  0  0  0  0  0  0  0  # atno 17395 bound_to 11000

$$$$
