AV-unprocessed.smi:1971|AV-procd|sdf|7973|dock5
  -GOLD-   2272010143D 1   1.00000     0.00000
 Structure written by MMmdl.
 42 43  0  0  0  0  0  0  0  0  2 V2000
  151.5742  144.7550  160.3270 C   0  0  0  0  0  0  0  0  0  0  0  0
  152.3125  144.5491  158.9968 C   0  0  0  0  0  0  0  0  0  0  0  0
  152.1880  143.2097  158.4255 N   0  0  0  0  0  0  0  0  0  0  0  0
  150.8259  142.9126  157.9846 C   0  0  0  0  0  0  0  0  0  0  0  0
  150.7158  141.4962  157.3893 C   0  0  0  0  0  0  0  0  0  0  0  0
  151.1123  140.4492  158.3438 N   0  0  0  0  0  0  0  0  0  0  0  0
  151.0160  139.0849  157.7715 C   0  0  1  0  0  0  0  0  0  0  0  0
  151.5808  137.9984  158.7220 C   0  0  0  0  0  0  0  0  0  0  0  0
  149.5694  138.6943  157.3532 C   0  0  0  0  0  0  0  0  0  0  0  0
  148.6898  138.4550  158.4965 N   0  0  0  0  0  0  0  0  0  0  0  0
  148.4891  137.2856  159.1218 C   0  0  0  0  0  0  0  0  0  0  0  0
  149.0843  136.2727  158.7470 O   0  0  0  0  0  0  0  0  0  0  0  0
  147.5993  137.3610  160.1378 N   0  5  0  0  0  0  0  0  0  0  0  0
  147.2039  136.2442  160.7701 C   0  0  0  0  0  0  0  0  0  0  0  0
  147.2055  135.0386  160.1902 N   0  0  0  0  0  0  0  0  0  0  0  0
  146.7632  134.0171  161.0328 C   0  0  0  0  0  0  0  0  0  0  0  0
  146.4257  134.4536  162.2864 C   0  0  0  0  0  0  0  0  0  0  0  0
  146.6561  136.1710  162.4477 S   0  0  0  0  0  0  0  0  0  0  0  0
  152.4720  140.7726  158.8038 C   0  0  0  0  0  0  0  0  0  0  0  0
  152.5719  142.1897  159.3965 C   0  0  0  0  0  0  0  0  0  0  0  0
  151.6224  145.8002  160.6330 H   0  0  0  0  0  0  0  0  0  0  0  0
  152.0097  144.1626  161.1312 H   0  0  0  0  0  0  0  0  0  0  0  0
  150.5218  144.4848  160.2383 H   0  0  0  0  0  0  0  0  0  0  0  0
  151.9103  145.2722  158.2861 H   0  0  0  0  0  0  0  0  0  0  0  0
  153.3659  144.8047  159.1203 H   0  0  0  0  0  0  0  0  0  0  0  0
  150.1303  143.0139  158.8191 H   0  0  0  0  0  0  0  0  0  0  0  0
  150.5108  143.6293  157.2270 H   0  0  0  0  0  0  0  0  0  0  0  0
  149.6790  141.3667  157.0863 H   0  0  0  0  0  0  0  0  0  0  0  0
  151.3222  141.4282  156.4847 H   0  0  0  0  0  0  0  0  0  0  0  0
  151.6239  139.0587  156.8658 H   0  0  0  0  0  0  0  0  0  0  0  0
  151.4917  136.9963  158.3054 H   0  0  0  0  0  0  0  0  0  0  0  0
  151.0594  138.0025  159.6797 H   0  0  0  0  0  0  0  0  0  0  0  0
  152.6448  138.1240  158.9144 H   0  0  0  0  0  0  0  0  0  0  0  0
  149.1577  139.4445  156.6762 H   0  0  0  0  0  0  0  0  0  0  0  0
  149.5585  137.7535  156.8068 H   0  0  0  0  0  0  0  0  0  0  0  0
  148.1763  139.2517  158.8434 H   0  0  0  0  0  0  0  0  0  0  0  0
  146.7211  133.0058  160.6566 H   0  0  0  0  0  0  0  0  0  0  0  0
  146.0595  133.8742  163.1202 H   0  0  0  0  0  0  0  0  0  0  0  0
  152.7869  140.0841  159.5854 H   0  0  0  0  0  0  0  0  0  0  0  0
  153.1814  140.6657  157.9816 H   0  0  0  0  0  0  0  0  0  0  0  0
  153.5962  142.3646  159.7277 H   0  0  0  0  0  0  0  0  0  0  0  0
  151.9417  142.2604  160.2848 H   0  0  0  0  0  0  0  0  0  0  0  0
  1  2  1  0  0  0  0
  1 21  1  0  0  0  0
  1 22  1  0  0  0  0
  1 23  1  0  0  0  0
  2  3  1  0  0  0  0
  2 24  1  0  0  0  0
  2 25  1  0  0  0  0
  3 20  1  0  0  0  0
  3  4  1  0  0  0  0
  4  5  1  0  0  0  0
  4 26  1  0  0  0  0
  4 27  1  0  0  0  0
  5  6  1  0  0  0  0
  5 28  1  0  0  0  0
  5 29  1  0  0  0  0
  6  7  1  0  0  0  0
  6 19  1  0  0  0  0
  7  8  1  0  0  0  0
  7  9  1  0  0  0  0
  7 30  1  0  0  0  0
  8 31  1  0  0  0  0
  8 32  1  0  0  0  0
  8 33  1  0  0  0  0
  9 10  1  0  0  0  0
  9 34  1  0  0  0  0
  9 35  1  0  0  0  0
 10 11  1  0  0  0  0
 10 36  1  0  0  0  0
 11 12  2  0  0  0  0
 11 13  1  0  0  0  0
 13 14  1  0  0  0  0
 14 18  1  0  0  0  0
 14 15  2  0  0  0  0
 15 16  1  0  0  0  0
 16 17  2  0  0  0  0
 16 37  1  0  0  0  0
 17 18  1  0  0  0  0
 17 38  1  0  0  0  0
 19 20  1  0  0  0  0
 19 39  1  0  0  0  0
 19 40  1  0  0  0  0
 20 41  1  0  0  0  0
 20 42  1  0  0  0  0
M  CHG  1  13  -1
M  END
> <s_m_source_file>
AV-unprocessed.smi

> <i_m_source_file_index>
1971

> <i_lp_mmshare_version>
43012

> <i_f3d_flags>
0

> <s_epik_input>
W0NIM11bQ0gyXU4xW0NIMl1bQ0gyXU4oW0NIMl1bQ0gyXTEpW0NASF0oW0NIM10pW0NIMl1bTkhdQyg9TylbTkhdYzJuW2NIXVtjSF1zMg==

> <s_epik_cmdline>
J2VwaWtfcHl0aG9uJywgJy1waCcsICc3LjAnLCAnLXRuJywgJzgnLCAnLW1hJywgJzIwMCcsICctbWV0YWxfYmluZGluZycsICctaW1hZScsICc8aW5maWxlLm1hZT4nLCAnLW9tYWUnLCAnPG91dGZpbGUubWFlPic=

> <r_lp_tautomer_probability>
0.999

> <r_epik_Ionization_Penalty>
9.52272

> <r_epik_Ionization_Penalty_Charging>
5.92713

> <r_epik_Ionization_Penalty_Neutral>
3.59559

> <r_epik_State_Penalty>
7.69531

> <r_epik_Charging_Adjusted_Penalty>
13.6224

> <i_epik_Tot_Q>
-1

> <i_epik_Tot_abs_Q>
1

> <r_epik_Metal_State_Penalty>
3.66212

> <b_epik_Metal_Only>
1

> <s_lp_Force_Field>
OPLS_2005

> <r_lp_Energy>
38.2579

> <b_lp_Chiralities_Consistent>
1

> <s_lp_Variant>
AV-unprocessed.smi:1971-12

> <Gold.Version>
5.8.1

> <Gold.Id.Protein>
6NUR|6NUR_protein|mol2

> <Gold.PLP.Fitness>
52.3850

> <Gold.PLP.PLP>
-41.4903

> <Gold.PLP.part.hbond>
-3.0000

> <Gold.PLP.part.metal>
0.0000

> <Gold.PLP.part.buried>
-6.4628

> <Gold.PLP.part.nonpolar>
-34.5439

> <Gold.PLP.part.repulsive>
0.2346

> <Gold.PLP.ligand.clash>
0.0000

> <Gold.PLP.ligand.torsion>
0.4481

> <Gold.PLP.Chemscore.Hbond>
3.9072

> <Gold.PLP.Chemscore.CHOScore>
0.0000

> <Gold.PLP.Chemscore.Metal>
0.0000

> <Gold.Chemscore.Hbonds>
donor molecule, donor type, donor heavy atom, donor atom, acceptor molecule, acceptor atom, score
      P1  H  6934  6947       L1    13  1.79

> <Gold.PLP.Chemscore.Internal.Correction>
0.0693

> <Gold.Rescore>
     Score         DG    S(hbond)    S(metal)    S(lipo)     H(rot)  DE(clash)    DE(int)     intcor
     16.59     -18.53       1.95        0.00      93.18       1.70       0.00       1.94       ----

> <Gold.Chemscore.Fitness>
16.5902

> <Gold.Chemscore.DG>
-18.5305

> <Gold.Chemscore.ZeroCoef>
-5.4800

> <Gold.Chemscore.Hbond>
1.9492

> <Gold.Chemscore.Metal>
0.0000

> <Gold.Chemscore.Lipo>
93.1753

> <Gold.Chemscore.Internal_Hbond>
0.0000

> <Gold.Chemscore.DEClash>
0.0029

> <Gold.Chemscore.DEInternal>
1.9373

> <Gold.Chemscore.Rot>
1.7037

> <Gold.Chemscore.Internal.Correction>
   9.000000E+99

> <Gold.Chemscore.Hbonds>
donor molecule, donor type, donor heavy atom, donor atom, acceptor molecule, acceptor atom, score
      P1  H  6896  6909       L1    12  0.05
      P1  H  6934  6947       L1    13  0.83

> <Gold.Chemscore.Hbond.Weighted>
-6.5103

> <Gold.Chemscore.Metal.Weighted>
-0.0000

> <Gold.Chemscore.Lipo.Weighted>
-10.9015

> <Gold.Chemscore.Internal_Hbond.Weighted>
0.0000

> <Gold.Chemscore.DEClash.Weighted>
0.0029

> <Gold.Chemscore.DEInternal.Weighted>
1.9373

> <Gold.Chemscore.Rot.Weighted>
4.3614

> <Gold.Chemscore.Internal.Correction.Weighted>
   9.000000E+99

> <Gold.Protein.RotatedTorsions>
[ 6907 6896 6895 6894 ] final   52.28 input  -60.11 | X-H torsion
[ 7974 7965 7964 7962 ] final -137.64 input  175.53 | X-H torsion
[ 8008 7997 7996 7995 ] final -138.10 input   59.86 | X-H torsion
[ 10167 10162 10161 10158 ] final  136.23 input  -65.29 | X-H torsion
[ 10718 10713 10712 10709 ] final  -22.40 input   66.30 | X-H torsion
[ 10763 10752 10751 10750 ] final -114.54 input  -60.55 | X-H torsion
[ 11005 11000 10999 10996 ] final  141.28 input  -57.11 | X-H torsion

> <Gold.Protein.ActiveResidues>
 VAL166  LYS551  ARG553  GLY616  TRP617  ASP618  TYR619  PRO620  LYS621  CYS622 
 ASP623  PHE694  ASN695  SER759  ASP760  ASP761  ALA762  ILE779  LEU786  VAL792 
 PHE793  MET794  SER795  GLU796  ALA797  LYS798  CYS799  TRP800  GLU811  SER814 

> <Gold.Protein.RotatedAtoms>
  152.3216  134.7373  160.0312 H   0  0  0  0  0  0  0  0  0  0  0  0  # atno 6907 bound_to 6896
  151.7820  133.3345  159.3482 H   0  0  0  0  0  0  0  0  0  0  0  0  # atno 6908 bound_to 6896
  150.7373  134.5853  159.6004 H   0  0  0  0  0  0  0  0  0  0  0  0  # atno 6909 bound_to 6896
  144.8824  140.6527  143.5197 H   0  0  0  0  0  0  0  0  0  0  0  0  # atno 7974 bound_to 7965
  155.4228  140.0520  157.3024 H   0  0  0  0  0  0  0  0  0  0  0  0  # atno 8008 bound_to 7997
  154.4895  140.2114  155.9539 H   0  0  0  0  0  0  0  0  0  0  0  0  # atno 8009 bound_to 7997
  156.1322  140.3170  155.8371 H   0  0  0  0  0  0  0  0  0  0  0  0  # atno 8010 bound_to 7997
  139.5187  144.6475  151.5397 H   0  0  0  0  0  0  0  0  0  0  0  0  # atno 10167 bound_to 10162
  156.5050  130.4597  149.6679 H   0  0  0  0  0  0  0  0  0  0  0  0  # atno 10718 bound_to 10713
  154.8444  135.4414  154.1522 H   0  0  0  0  0  0  0  0  0  0  0  0  # atno 10763 bound_to 10752
  153.2680  135.6942  153.7516 H   0  0  0  0  0  0  0  0  0  0  0  0  # atno 10764 bound_to 10752
  153.6767  135.3410  155.3143 H   0  0  0  0  0  0  0  0  0  0  0  0  # atno 10765 bound_to 10752
  140.0389  134.9314  157.0806 H   0  0  0  0  0  0  0  0  0  0  0  0  # atno 11005 bound_to 11000
  145.3929  139.1613  143.4219 LP  0  0  0  0  0  0  0  0  0  0  0  0  # atno 17320 bound_to 7965
  146.3003  140.4020  142.8706 LP  0  0  0  0  0  0  0  0  0  0  0  0  # atno 17321 bound_to 7965
  140.6266  143.9156  150.6570 LP  0  0  0  0  0  0  0  0  0  0  0  0  # atno 17342 bound_to 10162
  140.2447  143.3637  152.1457 LP  0  0  0  0  0  0  0  0  0  0  0  0  # atno 17343 bound_to 10162
  156.3295  130.7324  151.2251 LP  0  0  0  0  0  0  0  0  0  0  0  0  # atno 17370 bound_to 10713
  157.7458  131.0433  150.4740 LP  0  0  0  0  0  0  0  0  0  0  0  0  # atno 17371 bound_to 10713
  140.4101  134.1990  155.7163 LP  0  0  0  0  0  0  0  0  0  0  0  0  # atno 17394 bound_to 11000
  141.1872  133.8285  157.1038 LP  0  0  0  0  0  0  0  0  0  0  0  0  # atno 17395 bound_to 11000

$$$$
