AV-unprocessed.smi:3218|AV-procd|sdf|12293|dock10
  -GOLD-   2272018133D 1   1.00000     0.00000
 Structure written by MMmdl.
 38 39  0  0  0  0  0  0  0  0  2 V2000
  143.9847  132.7022  149.5541 C   0  0  0  0  0  0  0  0  0  0  0  0
  144.2803  133.6879  150.6480 C   0  0  0  0  0  0  0  0  0  0  0  0
  143.8996  133.6125  152.0179 C   0  0  0  0  0  0  0  0  0  0  0  0
  144.3211  134.6478  152.7265 N   0  0  0  0  0  0  0  0  0  0  0  0
  144.9813  135.4189  151.8367 N   0  0  0  0  0  0  0  0  0  0  0  0
  145.5938  136.6614  152.2708 C   0  0  0  0  0  0  0  0  0  0  0  0
  144.6570  137.4936  153.1610 C   0  0  0  0  0  0  0  0  0  0  0  0
  143.3875  137.8085  152.4748 N   0  3  0  0  0  0  0  0  0  0  0  0
  142.1828  137.5318  153.2796 C   0  0  0  0  0  0  0  0  0  0  0  0
  140.9252  138.0926  152.5973 C   0  0  0  0  0  0  0  0  0  0  0  0
  139.7289  137.8687  153.4047 N   0  0  0  0  0  0  0  0  0  0  0  0
  138.6584  138.8511  153.4383 C   0  0  0  0  0  0  0  0  0  0  0  0
  137.6930  138.3514  154.5228 C   0  0  0  0  0  0  0  0  0  0  0  0
  138.1024  136.9029  154.8115 C   0  0  0  0  0  0  0  0  0  0  0  0
  139.4540  136.7776  154.1293 C   0  0  0  0  0  0  0  0  0  0  0  0
  140.1751  135.7885  154.2499 O   0  0  0  0  0  0  0  0  0  0  0  0
  144.9730  134.8631  150.5749 C   0  0  0  0  0  0  0  0  0  0  0  0
  143.0821  132.1268  149.7611 H   0  0  0  0  0  0  0  0  0  0  0  0
  144.7987  131.9885  149.4265 H   0  0  0  0  0  0  0  0  0  0  0  0
  143.8358  133.1965  148.5938 H   0  0  0  0  0  0  0  0  0  0  0  0
  143.3332  132.8392  152.5157 H   0  0  0  0  0  0  0  0  0  0  0  0
  146.5020  136.4151  152.8221 H   0  0  0  0  0  0  0  0  0  0  0  0
  145.9069  137.2322  151.3951 H   0  0  0  0  0  0  0  0  0  0  0  0
  144.4508  136.9593  154.0895 H   0  0  0  0  0  0  0  0  0  0  0  0
  145.1492  138.4279  153.4332 H   0  0  0  0  0  0  0  0  0  0  0  0
  143.3915  138.7864  152.2225 H   0  0  0  0  0  0  0  0  0  0  0  0
  142.0913  136.4540  153.4196 H   0  0  0  0  0  0  0  0  0  0  0  0
  142.3011  137.9774  154.2681 H   0  0  0  0  0  0  0  0  0  0  0  0
  141.0439  139.1622  152.4181 H   0  0  0  0  0  0  0  0  0  0  0  0
  140.7884  137.6302  151.6184 H   0  0  0  0  0  0  0  0  0  0  0  0
  139.0387  139.8480  153.6641 H   0  0  0  0  0  0  0  0  0  0  0  0
  138.1682  138.8842  152.4645 H   0  0  0  0  0  0  0  0  0  0  0  0
  137.8008  138.9526  155.4265 H   0  0  0  0  0  0  0  0  0  0  0  0
  136.6534  138.4257  154.2022 H   0  0  0  0  0  0  0  0  0  0  0  0
  138.1746  136.6999  155.8805 H   0  0  0  0  0  0  0  0  0  0  0  0
  137.4033  136.1946  154.3657 H   0  0  0  0  0  0  0  0  0  0  0  0
  145.4564  135.3445  149.7373 H   0  0  0  0  0  0  0  0  0  0  0  0
  143.3416  137.2591  151.6278 H   0  0  0  0  0  0  0  0  0  0  0  0
  1  2  1  0  0  0  0
  1 18  1  0  0  0  0
  1 19  1  0  0  0  0
  1 20  1  0  0  0  0
  2 17  2  0  0  0  0
  2  3  1  0  0  0  0
  3  4  2  0  0  0  0
  3 21  1  0  0  0  0
  4  5  1  0  0  0  0
  5  6  1  0  0  0  0
  5 17  1  0  0  0  0
  6  7  1  0  0  0  0
  6 22  1  0  0  0  0
  6 23  1  0  0  0  0
  7  8  1  0  0  0  0
  7 24  1  0  0  0  0
  7 25  1  0  0  0  0
  8  9  1  0  0  0  0
  8 26  1  0  0  0  0
  8 38  1  0  0  0  0
  9 10  1  0  0  0  0
  9 27  1  0  0  0  0
  9 28  1  0  0  0  0
 10 11  1  0  0  0  0
 10 29  1  0  0  0  0
 10 30  1  0  0  0  0
 11 15  1  0  0  0  0
 11 12  1  0  0  0  0
 12 13  1  0  0  0  0
 12 31  1  0  0  0  0
 12 32  1  0  0  0  0
 13 14  1  0  0  0  0
 13 33  1  0  0  0  0
 13 34  1  0  0  0  0
 14 15  1  0  0  0  0
 14 35  1  0  0  0  0
 14 36  1  0  0  0  0
 15 16  2  0  0  0  0
 17 37  1  0  0  0  0
M  CHG  1   8   1
M  END
> <s_m_source_file>
AV-unprocessed.smi

> <i_m_source_file_index>
3218

> <i_lp_mmshare_version>
43012

> <i_f3d_flags>
0

> <s_epik_input>
W0NIM11jMVtjSF1ubihbY0hdMSlbQ0gyXVtDSDJdW05IXVtDSDJdW0NIMl1OMltDSDJdW0NIMl1bQ0gyXUMyPU8=

> <s_epik_cmdline>
J2VwaWtfcHl0aG9uJywgJy1waCcsICc3LjAnLCAnLXRuJywgJzgnLCAnLW1hJywgJzIwMCcsICctbWV0YWxfYmluZGluZycsICctaW1hZScsICc8aW5maWxlLm1hZT4nLCAnLW9tYWUnLCAnPG91dGZpbGUubWFlPic=

> <r_lp_tautomer_probability>
1

> <r_epik_Ionization_Penalty>
0.00826456

> <r_epik_Ionization_Penalty_Charging>
0.00825899

> <r_epik_Ionization_Penalty_Neutral>
5.57245e-06

> <r_epik_State_Penalty>
0.00621436

> <r_epik_Charging_Adjusted_Penalty>
0.0144734

> <i_epik_Tot_Q>
1

> <i_epik_Tot_abs_Q>
1

> <r_epik_Metal_State_Penalty>
0.00623755

> <b_epik_Metal_Only>
0

> <s_lp_Force_Field>
OPLS_2005

> <r_lp_Energy>
17.5309

> <b_lp_Chiralities_Consistent>
1

> <s_lp_Variant>
AV-unprocessed.smi:3218-1

> <Gold.Version>
5.8.1

> <Gold.Id.Protein>
6NUR|6NUR_protein|mol2

> <Gold.PLP.Fitness>
46.9520

> <Gold.PLP.PLP>
-33.9289

> <Gold.PLP.part.hbond>
-3.0000

> <Gold.PLP.part.metal>
0.0000

> <Gold.PLP.part.buried>
-3.9478

> <Gold.PLP.part.nonpolar>
-26.9235

> <Gold.PLP.part.repulsive>
0.2314

> <Gold.PLP.ligand.clash>
0.0000

> <Gold.PLP.ligand.torsion>
0.8715

> <Gold.PLP.Chemscore.Hbond>
3.0530

> <Gold.PLP.Chemscore.CHOScore>
1.8520

> <Gold.PLP.Chemscore.Metal>
0.0000

> <Gold.Chemscore.Hbonds>
donor molecule, donor type, donor heavy atom, donor atom, acceptor molecule, acceptor atom, score
      L1  H     8    26       P1 10175  2.00
      L1  H     8    38       P1 10171  0.07
      P1  H 11000 11005       L1    16  1.00
      L1  C     3    21       P1 10957  0.74
      L1  C    17    37       P1  7921  1.00

> <Gold.PLP.Chemscore.Internal.Correction>
0.0509

> <Gold.Rescore>
     Score         DG    S(hbond)    S(metal)    S(lipo)     H(rot)  DE(clash)    DE(int)     intcor
     12.57     -14.74       1.99        0.00      66.81       2.03       0.01       2.15       ----

> <Gold.Chemscore.Fitness>
12.5711

> <Gold.Chemscore.DG>
-14.7354

> <Gold.Chemscore.ZeroCoef>
-5.4800

> <Gold.Chemscore.Hbond>
1.9881

> <Gold.Chemscore.Metal>
0.0000

> <Gold.Chemscore.Lipo>
66.8100

> <Gold.Chemscore.Internal_Hbond>
0.0000

> <Gold.Chemscore.DEClash>
0.0126

> <Gold.Chemscore.DEInternal>
2.1517

> <Gold.Chemscore.Rot>
2.0319

> <Gold.Chemscore.Internal.Correction>
   9.000000E+99

> <Gold.Chemscore.Hbonds>
donor molecule, donor type, donor heavy atom, donor atom, acceptor molecule, acceptor atom, score
      L1  H     8    26       P1 10175  0.99
      L1  H     8    38       P1 10171  0.06
      P1  H 11000 11005       L1    16  0.90

> <Gold.Chemscore.Hbond.Weighted>
-6.6404

> <Gold.Chemscore.Metal.Weighted>
-0.0000

> <Gold.Chemscore.Lipo.Weighted>
-7.8168

> <Gold.Chemscore.Internal_Hbond.Weighted>
0.0000

> <Gold.Chemscore.DEClash.Weighted>
0.0126

> <Gold.Chemscore.DEInternal.Weighted>
2.1517

> <Gold.Chemscore.Rot.Weighted>
5.2017

> <Gold.Chemscore.Internal.Correction.Weighted>
   9.000000E+99

> <Gold.Protein.RotatedTorsions>
[ 6907 6896 6895 6894 ] final   63.92 input  -60.11 | X-H torsion
[ 7974 7965 7964 7962 ] final  -80.05 input  175.53 | X-H torsion
[ 8008 7997 7996 7995 ] final -153.80 input   59.86 | X-H torsion
[ 10167 10162 10161 10158 ] final -100.51 input  -65.29 | X-H torsion
[ 10718 10713 10712 10709 ] final  -86.29 input   66.30 | X-H torsion
[ 10763 10752 10751 10750 ] final  166.93 input  -60.55 | X-H torsion
[ 11005 11000 10999 10996 ] final   61.94 input  -57.11 | X-H torsion

> <Gold.Protein.ActiveResidues>
 VAL166  LYS551  ARG553  GLY616  TRP617  ASP618  TYR619  PRO620  LYS621  CYS622 
 ASP623  PHE694  ASN695  SER759  ASP760  ASP761  ALA762  ILE779  LEU786  VAL792 
 PHE793  MET794  SER795  GLU796  ALA797  LYS798  CYS799  TRP800  GLU811  SER814 

> <Gold.Protein.RotatedAtoms>
  152.4291  134.5812  159.9948 H   0  0  0  0  0  0  0  0  0  0  0  0  # atno 6907 bound_to 6896
  151.5940  133.3357  159.3041 H   0  0  0  0  0  0  0  0  0  0  0  0  # atno 6908 bound_to 6896
  150.8182  134.7412  159.6814 H   0  0  0  0  0  0  0  0  0  0  0  0  # atno 6909 bound_to 6896
  145.5650  140.9475  143.1426 H   0  0  0  0  0  0  0  0  0  0  0  0  # atno 7974 bound_to 7965
  155.6765  140.0739  157.2501 H   0  0  0  0  0  0  0  0  0  0  0  0  # atno 8008 bound_to 7997
  154.4113  140.1689  156.1987 H   0  0  0  0  0  0  0  0  0  0  0  0  # atno 8009 bound_to 7997
  155.9572  140.3373  155.6462 H   0  0  0  0  0  0  0  0  0  0  0  0  # atno 8010 bound_to 7997
  140.2512  143.3471  152.0713 H   0  0  0  0  0  0  0  0  0  0  0  0  # atno 10167 bound_to 10162
  155.9991  130.4760  150.4692 H   0  0  0  0  0  0  0  0  0  0  0  0  # atno 10718 bound_to 10713
  154.3464  135.2753  155.2395 H   0  0  0  0  0  0  0  0  0  0  0  0  # atno 10763 bound_to 10752
  154.4644  135.5899  153.6281 H   0  0  0  0  0  0  0  0  0  0  0  0  # atno 10764 bound_to 10752
  152.9853  135.6073  154.3670 H   0  0  0  0  0  0  0  0  0  0  0  0  # atno 10765 bound_to 10752
  140.0127  134.6272  155.9757 H   0  0  0  0  0  0  0  0  0  0  0  0  # atno 11005 bound_to 11000
  144.7464  139.7308  143.7290 LP  0  0  0  0  0  0  0  0  0  0  0  0  # atno 17320 bound_to 7965
  146.1824  139.5023  142.9858 LP  0  0  0  0  0  0  0  0  0  0  0  0  # atno 17321 bound_to 7965
  139.5046  144.6778  151.6085 LP  0  0  0  0  0  0  0  0  0  0  0  0  # atno 17342 bound_to 10162
  140.6039  143.9560  150.6405 LP  0  0  0  0  0  0  0  0  0  0  0  0  # atno 17343 bound_to 10162
  157.2709  131.0587  151.2260 LP  0  0  0  0  0  0  0  0  0  0  0  0  # atno 17370 bound_to 10713
  157.3341  130.7000  149.6342 LP  0  0  0  0  0  0  0  0  0  0  0  0  # atno 17371 bound_to 10713
  141.1721  133.6538  156.4692 LP  0  0  0  0  0  0  0  0  0  0  0  0  # atno 17394 bound_to 11000
  140.4526  134.6914  157.5047 LP  0  0  0  0  0  0  0  0  0  0  0  0  # atno 17395 bound_to 11000

$$$$
