AV-unprocessed.smi:1394|AV-procd|sdf|5666|dock2
  -GOLD-   22720 5283D 1   1.00000     0.00000
 Structure written by MMmdl.
 41 42  0  0  0  0  0  0  0  0  1 V2000
  149.1072  139.9129  154.5027 C   0  0  0  0  0  0  0  0  0  0  0  0
  150.3578  140.1528  155.3654 C   0  0  1  0  0  0  0  0  0  0  0  0
  149.9866  140.6875  156.7640 C   0  0  0  0  0  0  0  0  0  0  0  0
  151.2376  140.9923  157.6032 C   0  0  0  0  0  0  0  0  0  0  0  0
  152.1474  139.7602  157.7165 C   0  0  0  0  0  0  0  0  0  0  0  0
  152.5244  139.2160  156.3277 C   0  0  0  0  0  0  0  0  0  0  0  0
  151.2847  138.9129  155.4615 C   0  0  1  0  0  0  0  0  0  0  0  0
  150.5851  137.7412  155.9934 N   0  0  0  0  0  0  0  0  0  0  0  0
  150.5790  136.5112  155.4568 C   0  0  0  0  0  0  0  0  0  0  0  0
  151.1580  136.2273  154.4070 O   0  0  0  0  0  0  0  0  0  0  0  0
  149.7748  135.4531  156.2265 C   0  0  0  0  0  0  0  0  0  0  0  0
  149.6793  134.1613  155.5242 N   0  0  0  0  0  0  0  0  0  0  0  0
  148.9552  134.1455  154.3188 C   0  0  0  0  0  0  0  0  0  0  0  0
  148.8134  133.0267  153.5954 C   0  0  0  0  0  0  0  0  0  0  0  0
  149.4314  131.8174  154.0815 C   0  0  0  0  0  0  0  0  0  0  0  0
  150.1359  131.8017  155.2368 C   0  0  0  0  0  0  0  0  0  0  0  0
  150.8053  130.5329  155.7598 C   0  0  0  0  0  0  0  0  0  0  0  0
  152.1228  130.7081  155.8714 F   0  0  0  0  0  0  0  0  0  0  0  0
  150.3243  130.2115  156.9614 F   0  0  0  0  0  0  0  0  0  0  0  0
  150.6005  129.4946  154.9476 F   0  0  0  0  0  0  0  0  0  0  0  0
  150.2810  133.0398  156.0295 C   0  0  0  0  0  0  0  0  0  0  0  0
  150.9085  133.0746  157.0895 O   0  0  0  0  0  0  0  0  0  0  0  0
  148.4309  139.1919  154.9624 H   0  0  0  0  0  0  0  0  0  0  0  0
  149.3779  139.5360  153.5161 H   0  0  0  0  0  0  0  0  0  0  0  0
  148.5501  140.8390  154.3590 H   0  0  0  0  0  0  0  0  0  0  0  0
  150.9305  140.9361  154.8663 H   0  0  0  0  0  0  0  0  0  0  0  0
  149.3858  141.5926  156.6679 H   0  0  0  0  0  0  0  0  0  0  0  0
  149.3637  139.9609  157.2873 H   0  0  0  0  0  0  0  0  0  0  0  0
  151.7913  141.8142  157.1475 H   0  0  0  0  0  0  0  0  0  0  0  0
  150.9450  141.3311  158.5974 H   0  0  0  0  0  0  0  0  0  0  0  0
  153.0506  140.0161  158.2710 H   0  0  0  0  0  0  0  0  0  0  0  0
  151.6430  138.9844  158.2940 H   0  0  0  0  0  0  0  0  0  0  0  0
  153.1461  139.9515  155.8157 H   0  0  0  0  0  0  0  0  0  0  0  0
  153.1401  138.3215  156.4320 H   0  0  0  0  0  0  0  0  0  0  0  0
  151.6473  138.6842  154.4577 H   0  0  0  0  0  0  0  0  0  0  0  0
  150.0710  137.8792  156.8514 H   0  0  0  0  0  0  0  0  0  0  0  0
  150.2205  135.3128  157.2130 H   0  0  0  0  0  0  0  0  0  0  0  0
  148.7805  135.8582  156.4203 H   0  0  0  0  0  0  0  0  0  0  0  0
  148.5319  135.0938  154.0209 H   0  0  0  0  0  0  0  0  0  0  0  0
  148.2558  133.0316  152.6702 H   0  0  0  0  0  0  0  0  0  0  0  0
  149.3235  130.9162  153.4969 H   0  0  0  0  0  0  0  0  0  0  0  0
  1  2  1  0  0  0  0
  1 23  1  0  0  0  0
  1 24  1  0  0  0  0
  1 25  1  0  0  0  0
  2  7  1  0  0  0  0
  2  3  1  0  0  0  0
  2 26  1  0  0  0  0
  3  4  1  0  0  0  0
  3 27  1  0  0  0  0
  3 28  1  0  0  0  0
  4  5  1  0  0  0  0
  4 29  1  0  0  0  0
  4 30  1  0  0  0  0
  5  6  1  0  0  0  0
  5 31  1  0  0  0  0
  5 32  1  0  0  0  0
  6  7  1  0  0  0  0
  6 33  1  0  0  0  0
  6 34  1  0  0  0  0
  7  8  1  0  0  0  0
  7 35  1  0  0  0  0
  8  9  1  0  0  0  0
  8 36  1  0  0  0  0
  9 10  2  0  0  0  0
  9 11  1  0  0  0  0
 11 12  1  0  0  0  0
 11 37  1  0  0  0  0
 11 38  1  0  0  0  0
 12 21  1  0  0  0  0
 12 13  1  0  0  0  0
 13 14  2  0  0  0  0
 13 39  1  0  0  0  0
 14 15  1  0  0  0  0
 14 40  1  0  0  0  0
 15 16  2  0  0  0  0
 15 41  1  0  0  0  0
 16 17  1  0  0  0  0
 16 21  1  0  0  0  0
 17 18  1  0  0  0  0
 17 19  1  0  0  0  0
 17 20  1  0  0  0  0
 21 22  2  0  0  0  0
M  END
> <s_m_source_file>
AV-unprocessed.smi

> <i_m_source_file_index>
1394

> <i_lp_mmshare_version>
43012

> <i_f3d_flags>
0

> <s_epik_input>
W0NIM11bQ0BASF0xW0NIMl1bQ0gyXVtDSDJdW0NIMl1bQ0BIXTFbTkhdQyg9TylbQ0gyXW4yW2NIXVtjSF1bY0hdYyhDKEYpKEYpRiljMj1P

> <s_epik_cmdline>
J2VwaWtfcHl0aG9uJywgJy1waCcsICc3LjAnLCAnLXRuJywgJzgnLCAnLW1hJywgJzIwMCcsICctbWV0YWxfYmluZGluZycsICctaW1hZScsICc8aW5maWxlLm1hZT4nLCAnLW9tYWUnLCAnPG91dGZpbGUubWFlPic=

> <r_lp_tautomer_probability>
1

> <r_epik_Ionization_Penalty>
2.11487e-08

> <r_epik_Ionization_Penalty_Charging>
2.10183e-09

> <r_epik_Ionization_Penalty_Neutral>
1.90469e-08

> <r_epik_State_Penalty>
-0

> <r_epik_Charging_Adjusted_Penalty>
2.10183e-09

> <i_epik_Tot_Q>
0

> <i_epik_Tot_abs_Q>
0

> <r_epik_Metal_State_Penalty>
-0

> <b_epik_Metal_Only>
0

> <s_lp_Force_Field>
OPLS_2005

> <r_lp_Energy>
19.806

> <b_lp_Chiralities_Consistent>
1

> <s_lp_Variant>
AV-unprocessed.smi:1394-2

> <Gold.Version>
5.8.1

> <Gold.Id.Protein>
6NUR|6NUR_protein|mol2

> <Gold.PLP.Fitness>
42.9067

> <Gold.PLP.PLP>
-34.6150

> <Gold.PLP.part.hbond>
-2.0000

> <Gold.PLP.part.metal>
0.0000

> <Gold.PLP.part.buried>
-2.6472

> <Gold.PLP.part.nonpolar>
-32.2164

> <Gold.PLP.part.repulsive>
1.1946

> <Gold.PLP.ligand.clash>
0.3319

> <Gold.PLP.ligand.torsion>
0.2069

> <Gold.PLP.Chemscore.Hbond>
1.9199

> <Gold.PLP.Chemscore.CHOScore>
0.9753

> <Gold.PLP.Chemscore.Metal>
0.0000

> <Gold.Chemscore.Hbonds>
donor molecule, donor type, donor heavy atom, donor atom, acceptor molecule, acceptor atom, score
      P1  H  6896  6908       L1    22  0.63
      P1  H 10752 10765       L1    10  1.00
      L1  C    13    39       P1  7948  0.88

> <Gold.PLP.Chemscore.Internal.Correction>
0.3518

> <Gold.Rescore>
     Score         DG    S(hbond)    S(metal)    S(lipo)     H(rot)  DE(clash)    DE(int)     intcor
     12.67     -16.54       1.92        0.00      73.21       1.52       0.21       3.66       ----

> <Gold.Chemscore.Fitness>
12.6700

> <Gold.Chemscore.DG>
-16.5417

> <Gold.Chemscore.ZeroCoef>
-5.4800

> <Gold.Chemscore.Hbond>
1.9155

> <Gold.Chemscore.Metal>
0.0000

> <Gold.Chemscore.Lipo>
73.2109

> <Gold.Chemscore.Internal_Hbond>
0.0000

> <Gold.Chemscore.DEClash>
0.2102

> <Gold.Chemscore.DEInternal>
3.6615

> <Gold.Chemscore.Rot>
1.5242

> <Gold.Chemscore.Internal.Correction>
   9.000000E+99

> <Gold.Chemscore.Hbonds>
donor molecule, donor type, donor heavy atom, donor atom, acceptor molecule, acceptor atom, score
      P1  H  6896  6908       L1    22  0.63
      P1  H 10752 10765       L1    10  0.96

> <Gold.Chemscore.Hbond.Weighted>
-6.3979

> <Gold.Chemscore.Metal.Weighted>
-0.0000

> <Gold.Chemscore.Lipo.Weighted>
-8.5657

> <Gold.Chemscore.Internal_Hbond.Weighted>
0.0000

> <Gold.Chemscore.DEClash.Weighted>
0.2102

> <Gold.Chemscore.DEInternal.Weighted>
3.6615

> <Gold.Chemscore.Rot.Weighted>
3.9019

> <Gold.Chemscore.Internal.Correction.Weighted>
   9.000000E+99

> <Gold.Protein.RotatedTorsions>
[ 6907 6896 6895 6894 ] final   87.97 input  -60.11 | X-H torsion
[ 7974 7965 7964 7962 ] final  -63.84 input  175.53 | X-H torsion
[ 8008 7997 7996 7995 ] final   45.43 input   59.86 | X-H torsion
[ 10167 10162 10161 10158 ] final  -39.49 input  -65.29 | X-H torsion
[ 10718 10713 10712 10709 ] final   42.82 input   66.30 | X-H torsion
[ 10763 10752 10751 10750 ] final  175.64 input  -60.55 | X-H torsion
[ 11005 11000 10999 10996 ] final -150.86 input  -57.11 | X-H torsion

> <Gold.Protein.ActiveResidues>
 VAL166  LYS551  ARG553  GLY616  TRP617  ASP618  TYR619  PRO620  LYS621  CYS622 
 ASP623  PHE694  ASN695  SER759  ASP760  ASP761  ALA762  ILE779  LEU786  VAL792 
 PHE793  MET794  SER795  GLU796  ALA797  LYS798  CYS799  TRP800  GLU811  SER814 

> <Gold.Protein.RotatedAtoms>
  152.5419  134.2194  159.8781 H   0  0  0  0  0  0  0  0  0  0  0  0  # atno 6907 bound_to 6896
  151.2172  133.4516  159.2607 H   0  0  0  0  0  0  0  0  0  0  0  0  # atno 6908 bound_to 6896
  151.0840  134.9888  159.8426 H   0  0  0  0  0  0  0  0  0  0  0  0  # atno 6909 bound_to 6896
  145.7741  140.8797  143.0364 H   0  0  0  0  0  0  0  0  0  0  0  0  # atno 7974 bound_to 7965
  155.3357  140.3405  155.4239 H   0  0  0  0  0  0  0  0  0  0  0  0  # atno 8008 bound_to 7997
  156.1839  140.1673  156.8259 H   0  0  0  0  0  0  0  0  0  0  0  0  # atno 8009 bound_to 7997
  154.5364  140.0734  156.8418 H   0  0  0  0  0  0  0  0  0  0  0  0  # atno 8010 bound_to 7997
  140.7062  143.3211  151.2790 H   0  0  0  0  0  0  0  0  0  0  0  0  # atno 10167 bound_to 10162
  157.4091  130.7904  149.7415 H   0  0  0  0  0  0  0  0  0  0  0  0  # atno 10718 bound_to 10713
  154.4703  135.2771  155.1647 H   0  0  0  0  0  0  0  0  0  0  0  0  # atno 10763 bound_to 10752
  154.3399  135.6172  153.5595 H   0  0  0  0  0  0  0  0  0  0  0  0  # atno 10764 bound_to 10752
  152.9863  135.5786  154.5083 H   0  0  0  0  0  0  0  0  0  0  0  0  # atno 10765 bound_to 10752
  140.7357  134.3571  157.5158 H   0  0  0  0  0  0  0  0  0  0  0  0  # atno 11005 bound_to 11000
  144.6807  139.9897  143.7484 LP  0  0  0  0  0  0  0  0  0  0  0  0  # atno 17320 bound_to 7965
  146.0140  139.3194  143.0853 LP  0  0  0  0  0  0  0  0  0  0  0  0  # atno 17321 bound_to 7965
  139.6665  144.0095  152.2726 LP  0  0  0  0  0  0  0  0  0  0  0  0  # atno 17342 bound_to 10162
  139.9680  144.6513  150.8016 LP  0  0  0  0  0  0  0  0  0  0  0  0  # atno 17343 bound_to 10162
  155.9845  130.3991  150.3308 LP  0  0  0  0  0  0  0  0  0  0  0  0  # atno 17370 bound_to 10713
  157.1444  131.0305  151.2913 LP  0  0  0  0  0  0  0  0  0  0  0  0  # atno 17371 bound_to 10713
  139.8817  134.9047  156.2884 LP  0  0  0  0  0  0  0  0  0  0  0  0  # atno 17394 bound_to 11000
  140.9882  133.7225  156.0773 LP  0  0  0  0  0  0  0  0  0  0  0  0  # atno 17395 bound_to 11000

$$$$
