AV-unprocessed.smi:3185|AV-procd|sdf|12170|dock4
  -GOLD-   2272018 03D 1   1.00000     0.00000
 Structure written by MMmdl.
 37 38  0  0  0  0  0  0  0  0  1 V2000
  149.9794  133.5865  157.5761 N   0  0  0  0  0  0  0  0  0  0  0  0
  149.9266  133.3508  156.4446 C   0  0  0  0  0  0  0  0  0  0  0  0
  149.8593  133.0506  155.0066 C   0  0  0  0  0  0  0  0  0  0  0  0
  148.8183  133.9017  154.2715 C   0  0  0  0  0  0  0  0  0  0  0  0
  148.2242  133.1665  153.0642 C   0  0  0  0  0  0  0  0  0  0  0  0
  147.1452  133.9611  152.4958 N   0  0  0  0  0  0  0  0  0  0  0  0
  146.3343  133.2020  151.5461 C   0  0  1  0  0  0  0  0  0  0  0  0
  145.6487  131.9862  152.2124 C   0  0  0  0  0  0  0  0  0  0  0  0
  144.7871  131.2142  151.1998 C   0  0  0  0  0  0  0  0  0  0  0  0
  143.7480  132.1199  150.5221 C   0  0  0  0  0  0  0  0  0  0  0  0
  144.4096  133.3499  149.8730 C   0  0  0  0  0  0  0  0  0  0  0  0
  145.3220  134.1450  150.8360 C   0  0  1  0  0  0  0  0  0  0  0  0
  144.5643  135.0191  151.7368 N   0  0  0  0  0  0  0  0  0  0  0  0
  143.6937  134.6331  152.7367 C   0  0  0  0  0  0  0  0  0  0  0  0
  143.2082  135.7645  153.3267 C   0  0  0  0  0  0  0  0  0  0  0  0
  143.8457  136.8149  152.6118 C   0  0  0  0  0  0  0  0  0  0  0  0
  144.6527  136.3669  151.6654 N   0  0  0  0  0  0  0  0  0  0  0  0
  150.8513  133.2145  154.5855 H   0  0  0  0  0  0  0  0  0  0  0  0
  149.6310  131.9902  154.8972 H   0  0  0  0  0  0  0  0  0  0  0  0
  148.0219  134.1751  154.9653 H   0  0  0  0  0  0  0  0  0  0  0  0
  149.2809  134.8341  153.9451 H   0  0  0  0  0  0  0  0  0  0  0  0
  148.9984  133.0039  152.3132 H   0  0  0  0  0  0  0  0  0  0  0  0
  147.8561  132.1893  153.3754 H   0  0  0  0  0  0  0  0  0  0  0  0
  147.5445  134.7591  152.0231 H   0  0  0  0  0  0  0  0  0  0  0  0
  147.0006  132.8239  150.7691 H   0  0  0  0  0  0  0  0  0  0  0  0
  146.3915  131.3015  152.6203 H   0  0  0  0  0  0  0  0  0  0  0  0
  145.0368  132.3002  153.0575 H   0  0  0  0  0  0  0  0  0  0  0  0
  145.4325  130.7734  150.4390 H   0  0  0  0  0  0  0  0  0  0  0  0
  144.2857  130.3833  151.6967 H   0  0  0  0  0  0  0  0  0  0  0  0
  143.2095  131.5529  149.7624 H   0  0  0  0  0  0  0  0  0  0  0  0
  142.9968  132.4274  151.2486 H   0  0  0  0  0  0  0  0  0  0  0  0
  145.0105  133.0088  149.0291 H   0  0  0  0  0  0  0  0  0  0  0  0
  143.6466  134.0047  149.4503 H   0  0  0  0  0  0  0  0  0  0  0  0
  145.9111  134.8164  150.2091 H   0  0  0  0  0  0  0  0  0  0  0  0
  143.4924  133.5925  152.9446 H   0  0  0  0  0  0  0  0  0  0  0  0
  142.5052  135.8313  154.1436 H   0  0  0  0  0  0  0  0  0  0  0  0
  143.7476  137.8813  152.7511 H   0  0  0  0  0  0  0  0  0  0  0  0
  1  2  3  0  0  0  0
  2  3  1  0  0  0  0
  3  4  1  0  0  0  0
  3 18  1  0  0  0  0
  3 19  1  0  0  0  0
  4  5  1  0  0  0  0
  4 20  1  0  0  0  0
  4 21  1  0  0  0  0
  5  6  1  0  0  0  0
  5 22  1  0  0  0  0
  5 23  1  0  0  0  0
  6  7  1  0  0  0  0
  6 24  1  0  0  0  0
  7 12  1  0  0  0  0
  7  8  1  0  0  0  0
  7 25  1  0  0  0  0
  8  9  1  0  0  0  0
  8 26  1  0  0  0  0
  8 27  1  0  0  0  0
  9 10  1  0  0  0  0
  9 28  1  0  0  0  0
  9 29  1  0  0  0  0
 10 11  1  0  0  0  0
 10 30  1  0  0  0  0
 10 31  1  0  0  0  0
 11 12  1  0  0  0  0
 11 32  1  0  0  0  0
 11 33  1  0  0  0  0
 12 13  1  0  0  0  0
 12 34  1  0  0  0  0
 13 17  1  0  0  0  0
 13 14  1  0  0  0  0
 14 15  2  0  0  0  0
 14 35  1  0  0  0  0
 15 16  1  0  0  0  0
 15 36  1  0  0  0  0
 16 17  2  0  0  0  0
 16 37  1  0  0  0  0
M  END
> <s_m_source_file>
AV-unprocessed.smi

> <i_m_source_file_index>
3185

> <i_lp_mmshare_version>
43012

> <i_f3d_flags>
0

> <s_epik_input>
TiNDW0NIMl1bQ0gyXVtDSDJdW05IXVtDQEBIXTFbQ0gyXVtDSDJdW0NIMl1bQ0gyXVtDQEhdMW4yW2NIXVtjSF1bY0hdbjI=

> <s_epik_cmdline>
J2VwaWtfcHl0aG9uJywgJy1waCcsICc3LjAnLCAnLXRuJywgJzgnLCAnLW1hJywgJzIwMCcsICctbWV0YWxfYmluZGluZycsICctaW1hZScsICc8aW5maWxlLm1hZT4nLCAnLW9tYWUnLCAnPG91dGZpbGUubWFlPic=

> <r_lp_tautomer_probability>
1

> <r_epik_Ionization_Penalty>
2.21326

> <r_epik_Ionization_Penalty_Charging>
0

> <r_epik_Ionization_Penalty_Neutral>
2.21326

> <r_epik_State_Penalty>
2.35651

> <r_epik_Charging_Adjusted_Penalty>
2.35651

> <i_epik_Tot_Q>
0

> <i_epik_Tot_abs_Q>
0

> <r_epik_Metal_State_Penalty>
2.3555

> <b_epik_Metal_Only>
0

> <s_lp_Force_Field>
OPLS_2005

> <r_lp_Energy>
19.4285

> <b_lp_Chiralities_Consistent>
1

> <s_lp_Variant>
AV-unprocessed.smi:3185-6

> <Gold.Version>
5.8.1

> <Gold.Id.Protein>
6NUR|6NUR_protein|mol2

> <Gold.PLP.Fitness>
44.2192

> <Gold.PLP.PLP>
-34.4450

> <Gold.PLP.part.hbond>
-2.0000

> <Gold.PLP.part.metal>
0.0000

> <Gold.PLP.part.buried>
-5.3319

> <Gold.PLP.part.nonpolar>
-27.4927

> <Gold.PLP.part.repulsive>
0.7723

> <Gold.PLP.ligand.clash>
0.0000

> <Gold.PLP.ligand.torsion>
0.2967

> <Gold.PLP.Chemscore.Hbond>
1.9920

> <Gold.PLP.Chemscore.CHOScore>
1.4270

> <Gold.PLP.Chemscore.Metal>
0.0000

> <Gold.Chemscore.Hbonds>
donor molecule, donor type, donor heavy atom, donor atom, acceptor molecule, acceptor atom, score
      L1  H     6    24       P1  7948  1.00
      P1  H  6896  6907       L1     1  1.00
      L1  C    14    35       P1 10957  0.54
      L1  C    16    37       P1 10175  0.90

> <Gold.PLP.Chemscore.Internal.Correction>
0.1107

> <Gold.Rescore>
     Score         DG    S(hbond)    S(metal)    S(lipo)     H(rot)  DE(clash)    DE(int)     intcor
     14.32     -16.32       1.92        0.00      77.48       1.81       1.59       0.40       ----

> <Gold.Chemscore.Fitness>
14.3249

> <Gold.Chemscore.DG>
-16.3212

> <Gold.Chemscore.ZeroCoef>
-5.4800

> <Gold.Chemscore.Hbond>
1.9198

> <Gold.Chemscore.Metal>
0.0000

> <Gold.Chemscore.Lipo>
77.4820

> <Gold.Chemscore.Internal_Hbond>
0.0000

> <Gold.Chemscore.DEClash>
1.5946

> <Gold.Chemscore.DEInternal>
0.4016

> <Gold.Chemscore.Rot>
1.8110

> <Gold.Chemscore.Internal.Correction>
   9.000000E+99

> <Gold.Chemscore.Hbonds>
donor molecule, donor type, donor heavy atom, donor atom, acceptor molecule, acceptor atom, score
      L1  H     6    24       P1  7948  0.69
      P1  H  6896  6907       L1     1  0.98

> <Gold.Chemscore.Hbond.Weighted>
-6.4120

> <Gold.Chemscore.Metal.Weighted>
-0.0000

> <Gold.Chemscore.Lipo.Weighted>
-9.0654

> <Gold.Chemscore.Internal_Hbond.Weighted>
0.0000

> <Gold.Chemscore.DEClash.Weighted>
1.5946

> <Gold.Chemscore.DEInternal.Weighted>
0.4016

> <Gold.Chemscore.Rot.Weighted>
4.6362

> <Gold.Chemscore.Internal.Correction.Weighted>
   9.000000E+99

> <Gold.Protein.RotatedTorsions>
[ 6907 6896 6895 6894 ] final -130.21 input  -60.11 | X-H torsion
[ 7974 7965 7964 7962 ] final   -4.22 input  175.53 | X-H torsion
[ 8008 7997 7996 7995 ] final -163.79 input   59.86 | X-H torsion
[ 10167 10162 10161 10158 ] final  135.79 input  -65.29 | X-H torsion
[ 10718 10713 10712 10709 ] final  121.12 input   66.30 | X-H torsion
[ 10763 10752 10751 10750 ] final  178.85 input  -60.55 | X-H torsion
[ 11005 11000 10999 10996 ] final  -99.57 input  -57.11 | X-H torsion

> <Gold.Protein.ActiveResidues>
 VAL166  LYS551  ARG553  GLY616  TRP617  ASP618  TYR619  PRO620  LYS621  CYS622 
 ASP623  PHE694  ASN695  SER759  ASP760  ASP761  ALA762  ILE779  LEU786  VAL792 
 PHE793  MET794  SER795  GLU796  ALA797  LYS798  CYS799  TRP800  GLU811  SER814 

> <Gold.Protein.RotatedAtoms>
  150.9372  133.6698  159.2797 H   0  0  0  0  0  0  0  0  0  0  0  0  # atno 6907 bound_to 6896
  151.4100  135.0982  159.9592 H   0  0  0  0  0  0  0  0  0  0  0  0  # atno 6908 bound_to 6896
  152.5053  133.8847  159.7419 H   0  0  0  0  0  0  0  0  0  0  0  0  # atno 6909 bound_to 6896
  146.2376  140.1838  142.8332 H   0  0  0  0  0  0  0  0  0  0  0  0  # atno 7974 bound_to 7965
  155.8263  140.0927  157.1819 H   0  0  0  0  0  0  0  0  0  0  0  0  # atno 8008 bound_to 7997
  154.3979  140.1427  156.3621 H   0  0  0  0  0  0  0  0  0  0  0  0  # atno 8009 bound_to 7997
  155.8213  140.3446  155.5518 H   0  0  0  0  0  0  0  0  0  0  0  0  # atno 8010 bound_to 7997
  139.5204  144.6498  151.5334 H   0  0  0  0  0  0  0  0  0  0  0  0  # atno 10167 bound_to 10162
  157.5841  131.1072  150.8129 H   0  0  0  0  0  0  0  0  0  0  0  0  # atno 10718 bound_to 10713
  154.5130  135.2789  155.1326 H   0  0  0  0  0  0  0  0  0  0  0  0  # atno 10763 bound_to 10752
  154.2914  135.6266  153.5390 H   0  0  0  0  0  0  0  0  0  0  0  0  # atno 10764 bound_to 10752
  152.9922  135.5675  154.5600 H   0  0  0  0  0  0  0  0  0  0  0  0  # atno 10765 bound_to 10752
  141.1303  133.8332  157.0989 H   0  0  0  0  0  0  0  0  0  0  0  0  # atno 11005 bound_to 11000
  144.9913  140.8549  143.5338 LP  0  0  0  0  0  0  0  0  0  0  0  0  # atno 17320 bound_to 7965
  145.1845  139.2334  143.5275 LP  0  0  0  0  0  0  0  0  0  0  0  0  # atno 17321 bound_to 7965
  140.6298  143.9097  150.6596 LP  0  0  0  0  0  0  0  0  0  0  0  0  # atno 17342 bound_to 10162
  140.2398  143.3672  152.1496 LP  0  0  0  0  0  0  0  0  0  0  0  0  # atno 17343 bound_to 10162
  156.8568  130.5099  149.5307 LP  0  0  0  0  0  0  0  0  0  0  0  0  # atno 17370 bound_to 10713
  156.0889  130.5880  150.9697 LP  0  0  0  0  0  0  0  0  0  0  0  0  # atno 17371 bound_to 10713
  140.0346  134.9885  157.0845 LP  0  0  0  0  0  0  0  0  0  0  0  0  # atno 17394 bound_to 11000
  140.4231  134.1859  155.7165 LP  0  0  0  0  0  0  0  0  0  0  0  0  # atno 17395 bound_to 11000

$$$$
