AV-unprocessed.smi:2032|AV-procd|sdf|8242|dock6
  -GOLD-   2272010513D 1   1.00000     0.00000
 Structure written by MMmdl.
 43 44  0  0  0  0  0  0  0  0  2 V2000
  150.7482  141.8168  156.1723 C   0  0  0  0  0  0  0  0  0  0  0  0
  150.0051  140.4899  156.4104 C   0  0  1  0  0  0  0  0  0  0  0  0
  148.6294  140.4218  155.7161 C   0  0  0  0  0  0  0  0  0  0  0  0
  148.7639  140.2235  154.2465 N   0  3  2  0  0  0  0  0  0  0  0  0
  147.4848  140.2017  153.4624 C   0  0  2  0  0  0  0  0  0  0  0  0
  146.7667  141.5635  153.6004 C   0  0  0  0  0  0  0  0  0  0  0  0
  146.5351  139.0327  153.8462 C   0  0  0  0  0  0  0  0  0  0  0  0
  146.7651  137.8240  153.0575 N   0  0  0  0  0  0  0  0  0  0  0  0
  145.8215  136.9402  152.6996 C   0  0  0  0  0  0  0  0  0  0  0  0
  144.6313  137.0648  152.9900 O   0  0  0  0  0  0  0  0  0  0  0  0
  146.3464  135.9271  151.9887 N   0  0  0  0  0  0  0  0  0  0  0  0
  145.6704  134.8236  151.4049 C   0  0  0  0  0  0  0  0  0  0  0  0
  144.3403  134.7263  151.2943 N   0  0  0  0  0  0  0  0  0  0  0  0
  143.9513  133.5363  150.6744 C   0  0  0  0  0  0  0  0  0  0  0  0
  145.0060  132.7338  150.3165 C   0  0  0  0  0  0  0  0  0  0  0  0
  146.5387  133.4447  150.7465 S   0  0  0  0  0  0  0  0  0  0  0  0
  149.6105  139.0290  153.9889 C   0  0  0  0  0  0  0  0  0  0  0  0
  150.9845  139.1734  154.6642 C   0  0  2  0  0  0  0  0  0  0  0  0
  151.8553  137.9277  154.4661 C   0  0  0  0  0  0  0  0  0  0  0  0
  150.7996  139.3582  156.0630 O   0  0  0  0  0  0  0  0  0  0  0  0
  150.1848  142.6542  156.5844 H   0  0  0  0  0  0  0  0  0  0  0  0
  150.9026  142.0219  155.1133 H   0  0  0  0  0  0  0  0  0  0  0  0
  151.7241  141.8081  156.6583 H   0  0  0  0  0  0  0  0  0  0  0  0
  149.8354  140.4169  157.4851 H   0  0  0  0  0  0  0  0  0  0  0  0
  148.0454  139.6000  156.1337 H   0  0  0  0  0  0  0  0  0  0  0  0
  148.0982  141.3449  155.9460 H   0  0  0  0  0  0  0  0  0  0  0  0
  147.7467  140.0600  152.4123 H   0  0  0  0  0  0  0  0  0  0  0  0
  145.8918  141.6256  152.9542 H   0  0  0  0  0  0  0  0  0  0  0  0
  147.3989  142.4054  153.3247 H   0  0  0  0  0  0  0  0  0  0  0  0
  146.4319  141.7271  154.6252 H   0  0  0  0  0  0  0  0  0  0  0  0
  146.6984  138.7346  154.8816 H   0  0  0  0  0  0  0  0  0  0  0  0
  145.4927  139.3485  153.7743 H   0  0  0  0  0  0  0  0  0  0  0  0
  147.7167  137.6416  152.7730 H   0  0  0  0  0  0  0  0  0  0  0  0
  147.3438  135.9525  151.8367 H   0  0  0  0  0  0  0  0  0  0  0  0
  142.8996  133.3409  150.5262 H   0  0  0  0  0  0  0  0  0  0  0  0
  144.9738  131.7718  149.8270 H   0  0  0  0  0  0  0  0  0  0  0  0
  149.1024  138.1376  154.3611 H   0  0  0  0  0  0  0  0  0  0  0  0
  149.7622  138.8776  152.9216 H   0  0  0  0  0  0  0  0  0  0  0  0
  151.5153  140.0269  154.2415 H   0  0  0  0  0  0  0  0  0  0  0  0
  152.0367  137.7386  153.4076 H   0  0  0  0  0  0  0  0  0  0  0  0
  151.3801  137.0418  154.8879 H   0  0  0  0  0  0  0  0  0  0  0  0
  152.8240  138.0487  154.9516 H   0  0  0  0  0  0  0  0  0  0  0  0
  149.2786  141.0257  153.9115 H   0  0  0  0  0  0  0  0  0  0  0  0
  1  2  1  0  0  0  0
  1 21  1  0  0  0  0
  1 22  1  0  0  0  0
  1 23  1  0  0  0  0
  2 20  1  0  0  0  0
  2  3  1  0  0  0  0
  2 24  1  0  0  0  0
  3  4  1  0  0  0  0
  3 25  1  0  0  0  0
  3 26  1  0  0  0  0
  4  5  1  0  0  0  0
  4 17  1  0  0  0  0
  4 43  1  0  0  0  0
  5  6  1  0  0  0  0
  5  7  1  0  0  0  0
  5 27  1  0  0  0  0
  6 28  1  0  0  0  0
  6 29  1  0  0  0  0
  6 30  1  0  0  0  0
  7  8  1  0  0  0  0
  7 31  1  0  0  0  0
  7 32  1  0  0  0  0
  8  9  1  0  0  0  0
  8 33  1  0  0  0  0
  9 10  2  0  0  0  0
  9 11  1  0  0  0  0
 11 12  1  0  0  0  0
 11 34  1  0  0  0  0
 12 16  1  0  0  0  0
 12 13  2  0  0  0  0
 13 14  1  0  0  0  0
 14 15  2  0  0  0  0
 14 35  1  0  0  0  0
 15 16  1  0  0  0  0
 15 36  1  0  0  0  0
 17 18  1  0  0  0  0
 17 37  1  0  0  0  0
 17 38  1  0  0  0  0
 18 19  1  0  0  0  0
 18 20  1  0  0  0  0
 18 39  1  0  0  0  0
 19 40  1  0  0  0  0
 19 41  1  0  0  0  0
 19 42  1  0  0  0  0
M  CHG  1   4   1
M  END
> <s_m_source_file>
AV-unprocessed.smi

> <i_m_source_file_index>
2032

> <i_lp_mmshare_version>
43012

> <i_f3d_flags>
0

> <s_epik_input>
W0NIM11bQ0BASF0xW0NIMl1OKFtDSDJdW0NASF0oTzEpW0NIM10pW0NASF0oW0NIM10pW0NIMl1bTkhdQyg9TylbTkhdYzJuW2NIXVtjSF1zMg==

> <s_epik_cmdline>
J2VwaWtfcHl0aG9uJywgJy1waCcsICc3LjAnLCAnLXRuJywgJzgnLCAnLW1hJywgJzIwMCcsICctbWV0YWxfYmluZGluZycsICctaW1hZScsICc8aW5maWxlLm1hZT4nLCAnLW9tYWUnLCAnPG91dGZpbGUubWFlPic=

> <r_lp_tautomer_probability>
0.999

> <r_epik_Ionization_Penalty>
0.695838

> <r_epik_Ionization_Penalty_Charging>
0.695697

> <r_epik_Ionization_Penalty_Neutral>
0.000141198

> <r_epik_State_Penalty>
0.717972

> <r_epik_Charging_Adjusted_Penalty>
1.41367

> <i_epik_Tot_Q>
1

> <i_epik_Tot_abs_Q>
1

> <r_epik_Metal_State_Penalty>
0.756405

> <b_epik_Metal_Only>
0

> <s_lp_Force_Field>
OPLS_2005

> <r_lp_Energy>
21.4223

> <b_lp_Chiralities_Consistent>
1

> <s_lp_Variant>
AV-unprocessed.smi:2032-12

> <Gold.Version>
5.8.1

> <Gold.Id.Protein>
6NUR|6NUR_protein|mol2

> <Gold.PLP.Fitness>
40.0093

> <Gold.PLP.PLP>
-32.6829

> <Gold.PLP.part.hbond>
-2.4387

> <Gold.PLP.part.metal>
0.0000

> <Gold.PLP.part.buried>
-3.9553

> <Gold.PLP.part.nonpolar>
-26.7537

> <Gold.PLP.part.repulsive>
0.5321

> <Gold.PLP.ligand.clash>
0.0000

> <Gold.PLP.ligand.torsion>
0.6583

> <Gold.PLP.Chemscore.Hbond>
1.8640

> <Gold.PLP.Chemscore.CHOScore>
1.0000

> <Gold.PLP.Chemscore.Metal>
0.0000

> <Gold.Chemscore.Hbonds>
donor molecule, donor type, donor heavy atom, donor atom, acceptor molecule, acceptor atom, score
      L1  H     8    33       P1  7948  0.79
      L1  H    11    34       P1  7948  1.00
      L1  C    14    35       P1 10186  1.00

> <Gold.PLP.Chemscore.Internal.Correction>
0.0510

> <Gold.Rescore>
     Score         DG    S(hbond)    S(metal)    S(lipo)     H(rot)  DE(clash)    DE(int)     intcor
     15.48     -17.70       1.91        0.00      85.01       1.61       0.28       1.94       ----

> <Gold.Chemscore.Fitness>
15.4803

> <Gold.Chemscore.DG>
-17.6977

> <Gold.Chemscore.ZeroCoef>
-5.4800

> <Gold.Chemscore.Hbond>
1.9148

> <Gold.Chemscore.Metal>
0.0000

> <Gold.Chemscore.Lipo>
85.0109

> <Gold.Chemscore.Internal_Hbond>
0.0000

> <Gold.Chemscore.DEClash>
0.2810

> <Gold.Chemscore.DEInternal>
1.9365

> <Gold.Chemscore.Rot>
1.6110

> <Gold.Chemscore.Internal.Correction>
   9.000000E+99

> <Gold.Chemscore.Hbonds>
donor molecule, donor type, donor heavy atom, donor atom, acceptor molecule, acceptor atom, score
      L1  H     8    33       P1  7948  0.74
      L1  H    11    34       P1  7948  0.99

> <Gold.Chemscore.Hbond.Weighted>
-6.3956

> <Gold.Chemscore.Metal.Weighted>
-0.0000

> <Gold.Chemscore.Lipo.Weighted>
-9.9463

> <Gold.Chemscore.Internal_Hbond.Weighted>
0.0000

> <Gold.Chemscore.DEClash.Weighted>
0.2810

> <Gold.Chemscore.DEInternal.Weighted>
1.9365

> <Gold.Chemscore.Rot.Weighted>
4.1242

> <Gold.Chemscore.Internal.Correction.Weighted>
   9.000000E+99

> <Gold.Protein.RotatedTorsions>
[ 6907 6896 6895 6894 ] final   33.27 input  -60.11 | X-H torsion
[ 7974 7965 7964 7962 ] final   92.44 input  175.53 | X-H torsion
[ 8008 7997 7996 7995 ] final  -72.79 input   59.86 | X-H torsion
[ 10167 10162 10161 10158 ] final  120.27 input  -65.29 | X-H torsion
[ 10718 10713 10712 10709 ] final  -97.07 input   66.30 | X-H torsion
[ 10763 10752 10751 10750 ] final  175.10 input  -60.55 | X-H torsion
[ 11005 11000 10999 10996 ] final  -60.35 input  -57.11 | X-H torsion

> <Gold.Protein.ActiveResidues>
 VAL166  LYS551  ARG553  GLY616  TRP617  ASP618  TYR619  PRO620  LYS621  CYS622 
 ASP623  PHE694  ASN695  SER759  ASP760  ASP761  ALA762  ILE779  LEU786  VAL792 
 PHE793  MET794  SER795  GLU796  ALA797  LYS798  CYS799  TRP800  GLU811  SER814 

> <Gold.Protein.RotatedAtoms>
  152.0861  134.9439  160.0572 H   0  0  0  0  0  0  0  0  0  0  0  0  # atno 6907 bound_to 6896
  152.0708  133.4101  159.4467 H   0  0  0  0  0  0  0  0  0  0  0  0  # atno 6908 bound_to 6896
  150.6836  134.3013  159.4751 H   0  0  0  0  0  0  0  0  0  0  0  0  # atno 6909 bound_to 6896
  145.4923  139.2276  143.2823 H   0  0  0  0  0  0  0  0  0  0  0  0  # atno 7974 bound_to 7965
  154.5194  140.0791  156.8144 H   0  0  0  0  0  0  0  0  0  0  0  0  # atno 8008 bound_to 7997
  155.3608  140.3418  155.4222 H   0  0  0  0  0  0  0  0  0  0  0  0  # atno 8009 bound_to 7997
  156.1664  140.1605  156.8510 H   0  0  0  0  0  0  0  0  0  0  0  0  # atno 8010 bound_to 7997
  139.5992  144.7051  151.3102 H   0  0  0  0  0  0  0  0  0  0  0  0  # atno 10167 bound_to 10162
  156.0075  130.5178  150.6319 H   0  0  0  0  0  0  0  0  0  0  0  0  # atno 10718 bound_to 10713
  154.4630  135.2768  155.1699 H   0  0  0  0  0  0  0  0  0  0  0  0  # atno 10763 bound_to 10752
  154.3478  135.6156  153.5631 H   0  0  0  0  0  0  0  0  0  0  0  0  # atno 10764 bound_to 10752
  152.9856  135.5804  154.4996 H   0  0  0  0  0  0  0  0  0  0  0  0  # atno 10765 bound_to 10752
  141.1283  133.6621  156.5209 H   0  0  0  0  0  0  0  0  0  0  0  0  # atno 11005 bound_to 11000
  146.2277  140.5718  142.8989 LP  0  0  0  0  0  0  0  0  0  0  0  0  # atno 17320 bound_to 7965
  144.7827  140.5873  143.6595 LP  0  0  0  0  0  0  0  0  0  0  0  0  # atno 17321 bound_to 7965
  140.7236  143.7065  150.7803 LP  0  0  0  0  0  0  0  0  0  0  0  0  # atno 17342 bound_to 10162
  140.0638  143.5128  152.2614 LP  0  0  0  0  0  0  0  0  0  0  0  0  # atno 17343 bound_to 10162
  157.4116  131.0824  151.1216 LP  0  0  0  0  0  0  0  0  0  0  0  0  # atno 17370 bound_to 10713
  157.1845  130.6324  149.5683 LP  0  0  0  0  0  0  0  0  0  0  0  0  # atno 17371 bound_to 10713
  140.4293  134.7116  157.4933 LP  0  0  0  0  0  0  0  0  0  0  0  0  # atno 17394 bound_to 11000
  140.0305  134.6413  155.9113 LP  0  0  0  0  0  0  0  0  0  0  0  0  # atno 17395 bound_to 11000

$$$$
