AV-unprocessed.smi:179|AV-procd|sdf|1450|dock4
  -GOLD-   2262019243D 1   1.00000     0.00000
 Structure written by MMmdl.
 45 48  0  0  0  0  0  0  0  0  2 V2000
  152.5912  139.5598  155.5982 O   0  0  0  0  0  0  0  0  0  0  0  0
  151.2858  139.4340  156.1270 C   0  0  0  0  0  0  0  0  0  0  0  0
  150.2426  140.2302  155.3184 C   0  0  0  0  0  0  0  0  0  0  0  0
  150.5621  141.7250  155.5081 C   0  0  0  0  0  0  0  0  0  0  0  0
  149.9202  142.2547  156.6502 O   0  0  0  0  0  0  0  0  0  0  0  0
  149.9923  139.7854  153.8576 C   0  0  0  0  0  0  0  0  0  0  0  0
  148.4901  139.9935  154.0617 C   0  0  0  0  0  0  0  0  0  0  0  0
  147.5270  139.1568  153.3999 N   0  0  0  0  0  0  0  0  0  0  0  0
  147.0852  139.2770  152.1310 C   0  0  0  0  0  0  0  0  0  0  0  0
  146.1887  138.3887  151.7069 N   0  0  0  0  0  0  0  0  0  0  0  0
  146.0300  137.5961  152.8311 C   0  0  0  0  0  0  0  0  0  0  0  0
  145.2218  136.4608  153.0779 C   0  0  0  0  0  0  0  0  0  0  0  0
  144.3591  135.9207  152.0838 N   0  0  0  0  0  0  0  0  0  0  0  0
  145.0119  135.4401  150.8697 C   0  0  0  0  0  0  0  0  0  0  0  0
  144.4701  134.0391  151.1717 C   0  0  0  0  0  0  0  0  0  0  0  0
  143.5882  133.5364  150.1879 O   0  0  0  0  0  0  0  0  0  0  0  0
  145.4817  132.9004  151.3534 C   0  0  0  0  0  0  0  0  0  0  0  0
  144.8806  131.7597  151.6874 F   0  0  0  0  0  0  0  0  0  0  0  0
  146.1675  132.7019  150.2271 F   0  0  0  0  0  0  0  0  0  0  0  0
  143.7969  134.6176  152.4198 C   0  0  0  0  0  0  0  0  0  0  0  0
  145.3079  135.9146  154.3261 N   0  3  0  0  0  0  0  0  0  0  0  0
  146.1162  136.4130  155.2785 C   0  0  0  0  0  0  0  0  0  0  0  0
  146.9156  137.4774  155.1316 N   0  0  0  0  0  0  0  0  0  0  0  0
  146.8484  138.0477  153.8986 C   0  0  0  0  0  0  0  0  0  0  0  0
  148.7586  139.8699  155.5647 C   0  0  0  0  0  0  0  0  0  0  0  0
  152.7718  138.8032  155.0613 H   0  0  0  0  0  0  0  0  0  0  0  0
  151.0340  138.3732  156.1475 H   0  0  0  0  0  0  0  0  0  0  0  0
  151.3190  139.7703  157.1636 H   0  0  0  0  0  0  0  0  0  0  0  0
  151.6339  141.8878  155.6240 H   0  0  0  0  0  0  0  0  0  0  0  0
  150.2586  142.3046  154.6356 H   0  0  0  0  0  0  0  0  0  0  0  0
  149.4779  143.0530  156.4040 H   0  0  0  0  0  0  0  0  0  0  0  0
  150.4320  140.4321  153.0977 H   0  0  0  0  0  0  0  0  0  0  0  0
  150.2523  138.7432  153.6692 H   0  0  0  0  0  0  0  0  0  0  0  0
  148.2259  141.0246  153.8193 H   0  0  0  0  0  0  0  0  0  0  0  0
  147.4391  140.0605  151.4762 H   0  0  0  0  0  0  0  0  0  0  0  0
  144.5849  135.8898  149.9726 H   0  0  0  0  0  0  0  0  0  0  0  0
  146.1003  135.5107  150.8724 H   0  0  0  0  0  0  0  0  0  0  0  0
  142.7986  134.0542  150.2282 H   0  0  0  0  0  0  0  0  0  0  0  0
  146.2047  133.1129  152.1426 H   0  0  0  0  0  0  0  0  0  0  0  0
  144.1625  134.1936  153.3563 H   0  0  0  0  0  0  0  0  0  0  0  0
  142.7074  134.6156  152.3729 H   0  0  0  0  0  0  0  0  0  0  0  0
  146.1007  135.8981  156.2278 H   0  0  0  0  0  0  0  0  0  0  0  0
  148.6081  138.8581  155.9414 H   0  0  0  0  0  0  0  0  0  0  0  0
  148.2117  140.5886  156.1757 H   0  0  0  0  0  0  0  0  0  0  0  0
  144.7339  135.0978  154.5390 H   0  0  0  0  0  0  0  0  0  0  0  0
  1  2  1  0  0  0  0
  1 26  1  0  0  0  0
  2  3  1  0  0  0  0
  2 27  1  0  0  0  0
  2 28  1  0  0  0  0
  3 25  1  0  0  0  0
  3  4  1  0  0  0  0
  3  6  1  0  0  0  0
  4  5  1  0  0  0  0
  4 29  1  0  0  0  0
  4 30  1  0  0  0  0
  5 31  1  0  0  0  0
  6  7  1  0  0  0  0
  6 32  1  0  0  0  0
  6 33  1  0  0  0  0
  7  8  1  0  0  0  0
  7 25  1  0  0  0  0
  7 34  1  0  0  0  0
  8 24  1  0  0  0  0
  8  9  1  0  0  0  0
  9 10  2  0  0  0  0
  9 35  1  0  0  0  0
 10 11  1  0  0  0  0
 11 24  2  0  0  0  0
 11 12  1  0  0  0  0
 12 13  1  0  0  0  0
 12 21  2  0  0  0  0
 13 20  1  0  0  0  0
 13 14  1  0  0  0  0
 14 15  1  0  0  0  0
 14 36  1  0  0  0  0
 14 37  1  0  0  0  0
 15 16  1  0  0  0  0
 15 17  1  0  0  0  0
 15 20  1  0  0  0  0
 16 38  1  0  0  0  0
 17 18  1  0  0  0  0
 17 19  1  0  0  0  0
 17 39  1  0  0  0  0
 20 40  1  0  0  0  0
 20 41  1  0  0  0  0
 21 22  1  0  0  0  0
 21 45  1  0  0  0  0
 22 23  2  0  0  0  0
 22 42  1  0  0  0  0
 23 24  1  0  0  0  0
 25 43  1  0  0  0  0
 25 44  1  0  0  0  0
M  CHG  1  21   1
M  END
> <s_m_source_file>
AV-unprocessed.smi

> <i_m_source_file_index>
179

> <i_lp_mmshare_version>
43012

> <i_f3d_flags>
0

> <s_epik_input>
W09IXVtDSDJdQzEoW0NIMl1bT0hdKVtDSDJdW0NIXShbQ0gyXTEpbihbY0hdbjIpYyhjMjMpbltjSF1uYzNOKFtDSDJdNClbQ0gyXUM0KFtPSF0pW0NIXShGKUY=

> <s_epik_cmdline>
J2VwaWtfcHl0aG9uJywgJy1waCcsICc3LjAnLCAnLXRuJywgJzgnLCAnLW1hJywgJzIwMCcsICctbWV0YWxfYmluZGluZycsICctaW1hZScsICc8aW5maWxlLm1hZT4nLCAnLW9tYWUnLCAnPG91dGZpbGUubWFlPic=

> <r_lp_tautomer_probability>
0.978912

> <r_epik_Ionization_Penalty>
2.53898

> <r_epik_Ionization_Penalty_Charging>
2.53898

> <r_epik_Ionization_Penalty_Neutral>
7.40332e-06

> <r_epik_State_Penalty>
2.7067

> <r_epik_Charging_Adjusted_Penalty>
5.24568

> <i_epik_Tot_Q>
1

> <i_epik_Tot_abs_Q>
1

> <r_epik_Metal_State_Penalty>
2.71482

> <b_epik_Metal_Only>
0

> <s_lp_Force_Field>
OPLS_2005

> <r_lp_Energy>
57.9721

> <b_lp_Chiralities_Consistent>
1

> <s_lp_Variant>
AV-unprocessed.smi:179-2

> <Gold.Version>
5.8.1

> <Gold.Id.Protein>
6NUR|6NUR_protein|mol2

> <Gold.PLP.Fitness>
43.3073

> <Gold.PLP.PLP>
-33.7018

> <Gold.PLP.part.hbond>
-2.9729

> <Gold.PLP.part.metal>
0.0000

> <Gold.PLP.part.buried>
-1.4872

> <Gold.PLP.part.nonpolar>
-30.4013

> <Gold.PLP.part.repulsive>
1.2675

> <Gold.PLP.ligand.clash>
0.0000

> <Gold.PLP.ligand.torsion>
1.1927

> <Gold.PLP.Chemscore.Hbond>
3.0000

> <Gold.PLP.Chemscore.CHOScore>
0.7521

> <Gold.PLP.Chemscore.Metal>
0.0000

> <Gold.Chemscore.Hbonds>
donor molecule, donor type, donor heavy atom, donor atom, acceptor molecule, acceptor atom, score
      L1  H     5    31       P1  8028  1.00
      L1  H    16    38       P1 10186  0.99
      P1  H  7997  8009       L1     1  1.00
      L1  C     9    35       P1  7957  0.70

> <Gold.PLP.Chemscore.Internal.Correction>
0.7345

> <Gold.Rescore>
     Score         DG    S(hbond)    S(metal)    S(lipo)     H(rot)  DE(clash)    DE(int)     intcor
      6.07     -10.02       2.48        0.00      61.30       4.27       1.79       2.16       ----

> <Gold.Chemscore.Fitness>
6.0734

> <Gold.Chemscore.DG>
-10.0228

> <Gold.Chemscore.ZeroCoef>
-5.4800

> <Gold.Chemscore.Hbond>
2.4831

> <Gold.Chemscore.Metal>
0.0000

> <Gold.Chemscore.Lipo>
61.3032

> <Gold.Chemscore.Internal_Hbond>
0.0000

> <Gold.Chemscore.DEClash>
1.7940

> <Gold.Chemscore.DEInternal>
2.1554

> <Gold.Chemscore.Rot>
4.2669

> <Gold.Chemscore.Internal.Correction>
   9.000000E+99

> <Gold.Chemscore.Hbonds>
donor molecule, donor type, donor heavy atom, donor atom, acceptor molecule, acceptor atom, score
      L1  H     5    31       P1  8028  1.00
      L1  H    16    38       P1 10186  0.89
      P1  H  7997  8009       L1     1  0.49

> <Gold.Chemscore.Hbond.Weighted>
-8.2936

> <Gold.Chemscore.Metal.Weighted>
-0.0000

> <Gold.Chemscore.Lipo.Weighted>
-7.1725

> <Gold.Chemscore.Internal_Hbond.Weighted>
0.0000

> <Gold.Chemscore.DEClash.Weighted>
1.7940

> <Gold.Chemscore.DEInternal.Weighted>
2.1554

> <Gold.Chemscore.Rot.Weighted>
10.9232

> <Gold.Chemscore.Internal.Correction.Weighted>
   9.000000E+99

> <Gold.Protein.RotatedTorsions>
[ 6907 6896 6895 6894 ] final   48.92 input  -60.11 | X-H torsion
[ 7974 7965 7964 7962 ] final -130.55 input  175.53 | X-H torsion
[ 8008 7997 7996 7995 ] final -159.25 input   59.86 | X-H torsion
[ 10167 10162 10161 10158 ] final  151.81 input  -65.29 | X-H torsion
[ 10718 10713 10712 10709 ] final  172.70 input   66.30 | X-H torsion
[ 10763 10752 10751 10750 ] final -159.51 input  -60.55 | X-H torsion
[ 11005 11000 10999 10996 ] final  112.34 input  -57.11 | X-H torsion

> <Gold.Protein.ActiveResidues>
 VAL166  LYS551  ARG553  GLY616  TRP617  ASP618  TYR619  PRO620  LYS621  CYS622 
 ASP623  PHE694  ASN695  SER759  ASP760  ASP761  ALA762  ILE779  LEU786  VAL792 
 PHE793  MET794  SER795  GLU796  ALA797  LYS798  CYS799  TRP800  GLU811  SER814 

> <Gold.Protein.RotatedAtoms>
  152.2849  134.7787  160.0389 H   0  0  0  0  0  0  0  0  0  0  0  0  # atno 6907 bound_to 6896
  151.8353  133.3410  159.3634 H   0  0  0  0  0  0  0  0  0  0  0  0  # atno 6908 bound_to 6896
  150.7205  134.5372  159.5773 H   0  0  0  0  0  0  0  0  0  0  0  0  # atno 6909 bound_to 6896
  144.9464  140.7296  143.4815 H   0  0  0  0  0  0  0  0  0  0  0  0  # atno 7974 bound_to 7965
  155.7597  140.0837  157.2161 H   0  0  0  0  0  0  0  0  0  0  0  0  # atno 8008 bound_to 7997
  154.4004  140.1545  156.2875 H   0  0  0  0  0  0  0  0  0  0  0  0  # atno 8009 bound_to 7997
  155.8851  140.3418  155.5918 H   0  0  0  0  0  0  0  0  0  0  0  0  # atno 8010 bound_to 7997
  139.4837  144.5410  151.7565 H   0  0  0  0  0  0  0  0  0  0  0  0  # atno 10167 bound_to 10162
  156.9751  131.0102  151.2895 H   0  0  0  0  0  0  0  0  0  0  0  0  # atno 10718 bound_to 10713
  154.7469  135.3082  154.8629 H   0  0  0  0  0  0  0  0  0  0  0  0  # atno 10763 bound_to 10752
  153.9427  135.6773  153.4748 H   0  0  0  0  0  0  0  0  0  0  0  0  # atno 10764 bound_to 10752
  153.1065  135.4887  154.8887 H   0  0  0  0  0  0  0  0  0  0  0  0  # atno 10765 bound_to 10752
  139.8925  134.9528  156.6571 H   0  0  0  0  0  0  0  0  0  0  0  0  # atno 11005 bound_to 11000
  145.2911  139.1883  143.4739 LP  0  0  0  0  0  0  0  0  0  0  0  0  # atno 17320 bound_to 7965
  146.3305  140.2888  142.8614 LP  0  0  0  0  0  0  0  0  0  0  0  0  # atno 17321 bound_to 7965
  140.4949  144.1255  150.5958 LP  0  0  0  0  0  0  0  0  0  0  0  0  # atno 17342 bound_to 10162
  140.4129  143.2648  151.9811 LP  0  0  0  0  0  0  0  0  0  0  0  0  # atno 17343 bound_to 10162
  157.5565  130.8217  149.8211 LP  0  0  0  0  0  0  0  0  0  0  0  0  # atno 17370 bound_to 10713
  156.0267  130.3777  150.1803 LP  0  0  0  0  0  0  0  0  0  0  0  0  # atno 17371 bound_to 10713
  140.7476  133.8925  155.8323 LP  0  0  0  0  0  0  0  0  0  0  0  0  # atno 17394 bound_to 11000
  141.0027  134.1128  157.4301 LP  0  0  0  0  0  0  0  0  0  0  0  0  # atno 17395 bound_to 11000

$$$$
