AV-unprocessed.smi:1676|AV-procd|sdf|6719|dock8
  -GOLD-   22720 7463D 1   1.00000     0.00000
 Structure written by MMmdl.
 42 43  0  0  0  0  0  0  0  0  2 V2000
  152.0956  144.4003  157.4811 C   0  0  0  0  0  0  0  0  0  0  0  0
  152.2288  144.1534  158.9564 C   0  0  0  0  0  0  0  0  0  0  0  0
  152.0823  145.1644  159.7962 N   0  0  0  0  0  0  0  0  0  0  0  0
  152.2428  144.6257  161.0764 O   0  0  0  0  0  0  0  0  0  0  0  0
  152.4813  143.2951  160.9555 C   0  0  0  0  0  0  0  0  0  0  0  0
  152.6714  142.5328  162.2228 C   0  0  0  0  0  0  0  0  0  0  0  0
  152.4927  142.9296  159.6375 C   0  0  0  0  0  0  0  0  0  0  0  0
  152.7188  141.5591  159.0451 C   0  0  0  0  0  0  0  0  0  0  0  0
  151.6309  141.1838  158.0305 C   0  0  0  0  0  0  0  0  0  0  0  0
  150.6206  141.8775  157.9110 O   0  0  0  0  0  0  0  0  0  0  0  0
  151.8867  140.0641  157.3278 N   0  0  0  0  0  0  0  0  0  0  0  0
  151.1470  139.3508  156.2691 C   0  0  0  0  0  0  0  0  0  0  0  0
  152.1531  138.2929  155.7395 C   0  0  0  0  0  0  0  0  0  0  0  0
  151.8080  137.0901  155.7136 O   0  0  0  0  0  0  0  0  0  0  0  0
  153.2860  138.7021  155.3956 O   0  5  0  0  0  0  0  0  0  0  0  0
  149.8300  138.6655  156.7661 C   0  0  0  0  0  0  0  0  0  0  0  0
  148.9051  138.1098  155.6660 C   0  0  0  0  0  0  0  0  0  0  0  0
  147.8459  139.1317  155.2213 C   0  0  0  0  0  0  0  0  0  0  0  0
  148.4008  140.3311  154.4383 C   0  0  0  0  0  0  0  0  0  0  0  0
  149.5214  141.1117  155.1507 C   0  0  0  0  0  0  0  0  0  0  0  0
  150.8771  140.3795  155.1249 C   0  0  0  0  0  0  0  0  0  0  0  0
  152.5038  143.5745  156.8991 H   0  0  0  0  0  0  0  0  0  0  0  0
  152.6245  145.3057  157.1821 H   0  0  0  0  0  0  0  0  0  0  0  0
  151.0489  144.5162  157.1995 H   0  0  0  0  0  0  0  0  0  0  0  0
  152.4324  141.4783  162.0828 H   0  0  0  0  0  0  0  0  0  0  0  0
  152.0256  142.9209  163.0108 H   0  0  0  0  0  0  0  0  0  0  0  0
  153.7038  142.6041  162.5640 H   0  0  0  0  0  0  0  0  0  0  0  0
  153.6879  141.5012  158.5488 H   0  0  0  0  0  0  0  0  0  0  0  0
  152.7370  140.7972  159.8255 H   0  0  0  0  0  0  0  0  0  0  0  0
  152.7518  139.6060  157.5756 H   0  0  0  0  0  0  0  0  0  0  0  0
  150.0723  137.8540  157.4542 H   0  0  0  0  0  0  0  0  0  0  0  0
  149.2442  139.3602  157.3672 H   0  0  0  0  0  0  0  0  0  0  0  0
  149.4727  137.7390  154.8122 H   0  0  0  0  0  0  0  0  0  0  0  0
  148.3799  137.2440  156.0707 H   0  0  0  0  0  0  0  0  0  0  0  0
  147.1103  138.6242  154.5967 H   0  0  0  0  0  0  0  0  0  0  0  0
  147.2948  139.4892  156.0919 H   0  0  0  0  0  0  0  0  0  0  0  0
  148.7489  139.9996  153.4592 H   0  0  0  0  0  0  0  0  0  0  0  0
  147.5748  141.0143  154.2382 H   0  0  0  0  0  0  0  0  0  0  0  0
  149.6471  142.0545  154.6171 H   0  0  0  0  0  0  0  0  0  0  0  0
  149.2363  141.3877  156.1663 H   0  0  0  0  0  0  0  0  0  0  0  0
  151.6653  141.1348  155.1324 H   0  0  0  0  0  0  0  0  0  0  0  0
  150.9736  139.9046  154.1467 H   0  0  0  0  0  0  0  0  0  0  0  0
  1  2  1  0  0  0  0
  1 22  1  0  0  0  0
  1 23  1  0  0  0  0
  1 24  1  0  0  0  0
  2  7  1  0  0  0  0
  2  3  2  0  0  0  0
  3  4  1  0  0  0  0
  4  5  1  0  0  0  0
  5  6  1  0  0  0  0
  5  7  2  0  0  0  0
  6 25  1  0  0  0  0
  6 26  1  0  0  0  0
  6 27  1  0  0  0  0
  7  8  1  0  0  0  0
  8  9  1  0  0  0  0
  8 28  1  0  0  0  0
  8 29  1  0  0  0  0
  9 10  2  0  0  0  0
  9 11  1  0  0  0  0
 11 12  1  0  0  0  0
 11 30  1  0  0  0  0
 12 21  1  0  0  0  0
 12 13  1  0  0  0  0
 12 16  1  0  0  0  0
 13 14  2  0  0  0  0
 13 15  1  0  0  0  0
 16 17  1  0  0  0  0
 16 31  1  0  0  0  0
 16 32  1  0  0  0  0
 17 18  1  0  0  0  0
 17 33  1  0  0  0  0
 17 34  1  0  0  0  0
 18 19  1  0  0  0  0
 18 35  1  0  0  0  0
 18 36  1  0  0  0  0
 19 20  1  0  0  0  0
 19 37  1  0  0  0  0
 19 38  1  0  0  0  0
 20 21  1  0  0  0  0
 20 39  1  0  0  0  0
 20 40  1  0  0  0  0
 21 41  1  0  0  0  0
 21 42  1  0  0  0  0
M  CHG  1  15  -1
M  END
> <s_m_source_file>
AV-unprocessed.smi

> <i_m_source_file_index>
1676

> <i_lp_mmshare_version>
43012

> <i_f3d_flags>
0

> <s_epik_input>
W0NIM11jMW5vYyhbQ0gzXSljMVtDSDJdQyg9TylbTkhdQzIoQyg9TylbT0hdKVtDSDJdW0NIMl1bQ0gyXVtDSDJdW0NIMl1bQ0gyXTI=

> <s_epik_cmdline>
J2VwaWtfcHl0aG9uJywgJy1waCcsICc3LjAnLCAnLXRuJywgJzgnLCAnLW1hJywgJzIwMCcsICctbWV0YWxfYmluZGluZycsICctaW1hZScsICc8aW5maWxlLm1hZT4nLCAnLW9tYWUnLCAnPG91dGZpbGUubWFlPic=

> <r_epik_Ionization_Penalty>
0.000392727

> <r_epik_Ionization_Penalty_Charging>
0.000392708

> <r_epik_Ionization_Penalty_Neutral>
1.90763e-08

> <r_epik_State_Penalty>
0.000240388

> <r_epik_Charging_Adjusted_Penalty>
0.000633096

> <i_epik_Tot_Q>
-1

> <i_epik_Tot_abs_Q>
1

> <r_epik_Metal_State_Penalty>
-0

> <b_epik_Metal_Only>
0

> <s_lp_Force_Field>
OPLS_2005

> <r_lp_Energy>
9.66029

> <b_lp_Chiralities_Consistent>
1

> <s_lp_Variant>
AV-unprocessed.smi:1676-1

> <Gold.Version>
5.8.1

> <Gold.Id.Protein>
6NUR|6NUR_protein|mol2

> <Gold.PLP.Fitness>
50.8843

> <Gold.PLP.PLP>
-39.9267

> <Gold.PLP.part.hbond>
-2.0000

> <Gold.PLP.part.metal>
0.0000

> <Gold.PLP.part.buried>
-4.2639

> <Gold.PLP.part.nonpolar>
-34.0427

> <Gold.PLP.part.repulsive>
0.4549

> <Gold.PLP.ligand.clash>
0.0000

> <Gold.PLP.ligand.torsion>
0.3405

> <Gold.PLP.Chemscore.Hbond>
3.8560

> <Gold.PLP.Chemscore.CHOScore>
0.0000

> <Gold.PLP.Chemscore.Metal>
0.0000

> <Gold.Chemscore.Hbonds>
donor molecule, donor type, donor heavy atom, donor atom, acceptor molecule, acceptor atom, score
      P1  H  7997  8008       L1    15  2.00
      P1  H 10752 10765       L1    14  1.24

> <Gold.PLP.Chemscore.Internal.Correction>
0.0705

> <Gold.Rescore>
     Score         DG    S(hbond)    S(metal)    S(lipo)     H(rot)  DE(clash)    DE(int)     intcor
     15.34     -18.50       1.60        0.00     106.98       1.89       1.66       1.51       ----

> <Gold.Chemscore.Fitness>
15.3397

> <Gold.Chemscore.DG>
-18.5026

> <Gold.Chemscore.ZeroCoef>
-5.4800

> <Gold.Chemscore.Hbond>
1.6019

> <Gold.Chemscore.Metal>
0.0000

> <Gold.Chemscore.Lipo>
106.9797

> <Gold.Chemscore.Internal_Hbond>
0.0000

> <Gold.Chemscore.DEClash>
1.6551

> <Gold.Chemscore.DEInternal>
1.5078

> <Gold.Chemscore.Rot>
1.8924

> <Gold.Chemscore.Internal.Correction>
   9.000000E+99

> <Gold.Chemscore.Hbonds>
donor molecule, donor type, donor heavy atom, donor atom, acceptor molecule, acceptor atom, score
      P1  H  7997  8008       L1    15  0.94
      P1  H 10752 10765       L1    14  0.57

> <Gold.Chemscore.Hbond.Weighted>
-5.3505

> <Gold.Chemscore.Metal.Weighted>
-0.0000

> <Gold.Chemscore.Lipo.Weighted>
-12.5166

> <Gold.Chemscore.Internal_Hbond.Weighted>
0.0000

> <Gold.Chemscore.DEClash.Weighted>
1.6551

> <Gold.Chemscore.DEInternal.Weighted>
1.5078

> <Gold.Chemscore.Rot.Weighted>
4.8445

> <Gold.Chemscore.Internal.Correction.Weighted>
   9.000000E+99

> <Gold.Protein.RotatedTorsions>
[ 6907 6896 6895 6894 ] final -177.54 input  -60.11 | X-H torsion
[ 7974 7965 7964 7962 ] final -104.73 input  175.53 | X-H torsion
[ 8008 7997 7996 7995 ] final  -27.48 input   59.86 | X-H torsion
[ 10167 10162 10161 10158 ] final -156.99 input  -65.29 | X-H torsion
[ 10718 10713 10712 10709 ] final  -71.33 input   66.30 | X-H torsion
[ 10763 10752 10751 10750 ] final  179.19 input  -60.55 | X-H torsion
[ 11005 11000 10999 10996 ] final  -44.60 input  -57.11 | X-H torsion

> <Gold.Protein.ActiveResidues>
 VAL166  LYS551  ARG553  GLY616  TRP617  ASP618  TYR619  PRO620  LYS621  CYS622 
 ASP623  PHE694  ASN695  SER759  ASP760  ASP761  ALA762  ILE779  LEU786  VAL792 
 PHE793  MET794  SER795  GLU796  ALA797  LYS798  CYS799  TRP800  GLU811  SER814 

> <Gold.Protein.RotatedAtoms>
  151.6226  133.3338  159.3091 H   0  0  0  0  0  0  0  0  0  0  0  0  # atno 6907 bound_to 6896
  150.8098  134.7249  159.6689 H   0  0  0  0  0  0  0  0  0  0  0  0  # atno 6908 bound_to 6896
  152.4194  134.5987  160.0045 H   0  0  0  0  0  0  0  0  0  0  0  0  # atno 6909 bound_to 6896
  145.2394  140.9200  143.3158 H   0  0  0  0  0  0  0  0  0  0  0  0  # atno 7974 bound_to 7965
  154.4375  140.1871  156.0938 H   0  0  0  0  0  0  0  0  0  0  0  0  # atno 8008 bound_to 7997
  156.0345  140.3327  155.7149 H   0  0  0  0  0  0  0  0  0  0  0  0  # atno 8009 bound_to 7997
  155.5791  140.0620  157.2778 H   0  0  0  0  0  0  0  0  0  0  0  0  # atno 8010 bound_to 7997
  139.6806  143.9588  152.2334 H   0  0  0  0  0  0  0  0  0  0  0  0  # atno 10167 bound_to 10162
  156.0368  130.4349  150.2427 H   0  0  0  0  0  0  0  0  0  0  0  0  # atno 10718 bound_to 10713
  154.5174  135.2792  155.1291 H   0  0  0  0  0  0  0  0  0  0  0  0  # atno 10763 bound_to 10752
  154.2862  135.6276  153.5370 H   0  0  0  0  0  0  0  0  0  0  0  0  # atno 10764 bound_to 10752
  152.9930  135.5663  154.5655 H   0  0  0  0  0  0  0  0  0  0  0  0  # atno 10765 bound_to 10752
  141.0461  133.6761  156.2895 H   0  0  0  0  0  0  0  0  0  0  0  0  # atno 11005 bound_to 11000
  144.9602  139.3987  143.6359 LP  0  0  0  0  0  0  0  0  0  0  0  0  # atno 17320 bound_to 7965
  146.3332  139.8652  142.8849 LP  0  0  0  0  0  0  0  0  0  0  0  0  # atno 17321 bound_to 7965
  139.9377  144.6701  150.8298 LP  0  0  0  0  0  0  0  0  0  0  0  0  # atno 17342 bound_to 10162
  140.7651  143.3265  151.2504 LP  0  0  0  0  0  0  0  0  0  0  0  0  # atno 17343 bound_to 10162
  157.0526  131.0067  151.3249 LP  0  0  0  0  0  0  0  0  0  0  0  0  # atno 17370 bound_to 10713
  157.5129  130.7950  149.7725 LP  0  0  0  0  0  0  0  0  0  0  0  0  # atno 17371 bound_to 10713
  140.6144  134.5425  157.5538 LP  0  0  0  0  0  0  0  0  0  0  0  0  # atno 17394 bound_to 11000
  139.9313  134.7959  156.0924 LP  0  0  0  0  0  0  0  0  0  0  0  0  # atno 17395 bound_to 11000

$$$$
