AV-unprocessed.smi:3011|AV-procd|sdf|11457|dock4
  -GOLD-   2272016393D 1   1.00000     0.00000
 Structure written by MMmdl.
 46 48  0  0  0  0  0  0  0  0  1 V2000
  145.4158  142.6119  158.0669 C   0  0  0  0  0  0  0  0  0  0  0  0
  146.7010  142.2764  157.5667 O   0  0  0  0  0  0  0  0  0  0  0  0
  146.8846  142.2436  156.1994 C   0  0  0  0  0  0  0  0  0  0  0  0
  146.0691  142.9475  155.2774 C   0  0  0  0  0  0  0  0  0  0  0  0
  146.3156  142.8592  153.8951 C   0  0  0  0  0  0  0  0  0  0  0  0
  147.3767  142.0701  153.4188 C   0  0  0  0  0  0  0  0  0  0  0  0
  148.1926  141.3683  154.3247 C   0  0  0  0  0  0  0  0  0  0  0  0
  147.9510  141.4502  155.7186 C   0  0  0  0  0  0  0  0  0  0  0  0
  148.7076  140.7952  156.6647 O   0  0  0  0  0  0  0  0  0  0  0  0
  149.8026  139.9974  156.2373 C   0  0  0  0  0  0  0  0  0  0  0  0
  151.0279  140.9093  156.0862 C   0  0  0  0  0  0  0  0  0  0  0  0
  151.6884  141.1403  157.3645 N   0  0  0  0  0  0  0  0  0  0  0  0
  152.2694  140.2382  158.1985 C   0  0  0  0  0  0  0  0  0  0  0  0
  152.3119  138.7596  157.9017 C   0  0  2  0  0  0  0  0  0  0  0  0
  151.5817  137.9351  158.9709 C   0  0  0  0  0  0  0  0  0  0  0  0
  153.7079  138.3453  157.8052 N   0  0  0  0  0  0  0  0  0  0  0  0
  154.1092  137.1667  157.3127 C   0  0  0  0  0  0  0  0  0  0  0  0
  153.3322  136.3147  156.8893 O   0  0  0  0  0  0  0  0  0  0  0  0
  152.8006  140.7467  159.3138 N   0  0  0  0  0  0  0  0  0  0  0  0
  152.5177  142.0930  159.2055 C   0  0  0  0  0  0  0  0  0  0  0  0
  152.8048  143.1648  160.0809 C   0  0  0  0  0  0  0  0  0  0  0  0
  152.3992  144.4766  159.7599 C   0  0  0  0  0  0  0  0  0  0  0  0
  151.7032  144.7347  158.5614 C   0  0  0  0  0  0  0  0  0  0  0  0
  151.4113  143.6815  157.6737 C   0  0  0  0  0  0  0  0  0  0  0  0
  151.8191  142.3733  157.9984 C   0  0  0  0  0  0  0  0  0  0  0  0
  145.4345  142.5735  159.1560 H   0  0  0  0  0  0  0  0  0  0  0  0
  144.6570  141.9064  157.7258 H   0  0  0  0  0  0  0  0  0  0  0  0
  145.1277  143.6232  157.7771 H   0  0  0  0  0  0  0  0  0  0  0  0
  145.2458  143.5629  155.6062 H   0  0  0  0  0  0  0  0  0  0  0  0
  145.6893  143.3985  153.1998 H   0  0  0  0  0  0  0  0  0  0  0  0
  147.5663  142.0033  152.3577 H   0  0  0  0  0  0  0  0  0  0  0  0
  149.0020  140.7759  153.9265 H   0  0  0  0  0  0  0  0  0  0  0  0
  150.0133  139.2159  156.9686 H   0  0  0  0  0  0  0  0  0  0  0  0
  149.5755  139.5181  155.2843 H   0  0  0  0  0  0  0  0  0  0  0  0
  151.7399  140.5035  155.3681 H   0  0  0  0  0  0  0  0  0  0  0  0
  150.7171  141.8719  155.6795 H   0  0  0  0  0  0  0  0  0  0  0  0
  151.8271  138.5474  156.9500 H   0  0  0  0  0  0  0  0  0  0  0  0
  150.5356  138.2332  159.0457 H   0  0  0  0  0  0  0  0  0  0  0  0
  152.0347  138.0650  159.9544 H   0  0  0  0  0  0  0  0  0  0  0  0
  151.6058  136.8717  158.7309 H   0  0  0  0  0  0  0  0  0  0  0  0
  154.4096  139.0055  158.1079 H   0  0  0  0  0  0  0  0  0  0  0  0
  155.2058  137.0640  157.3346 H   0  0  0  0  0  0  0  0  0  0  0  0
  153.3342  142.9761  161.0030 H   0  0  0  0  0  0  0  0  0  0  0  0
  152.6210  145.2882  160.4373 H   0  0  0  0  0  0  0  0  0  0  0  0
  151.3926  145.7416  158.3236 H   0  0  0  0  0  0  0  0  0  0  0  0
  150.8739  143.8767  156.7578 H   0  0  0  0  0  0  0  0  0  0  0  0
  1  2  1  0  0  0  0
  1 26  1  0  0  0  0
  1 27  1  0  0  0  0
  1 28  1  0  0  0  0
  2  3  1  0  0  0  0
  3  8  1  0  0  0  0
  3  4  2  0  0  0  0
  4  5  1  0  0  0  0
  4 29  1  0  0  0  0
  5  6  2  0  0  0  0
  5 30  1  0  0  0  0
  6  7  1  0  0  0  0
  6 31  1  0  0  0  0
  7  8  2  0  0  0  0
  7 32  1  0  0  0  0
  8  9  1  0  0  0  0
  9 10  1  0  0  0  0
 10 11  1  0  0  0  0
 10 33  1  0  0  0  0
 10 34  1  0  0  0  0
 11 12  1  0  0  0  0
 11 35  1  0  0  0  0
 11 36  1  0  0  0  0
 12 25  1  0  0  0  0
 12 13  1  0  0  0  0
 13 14  1  0  0  0  0
 13 19  2  0  0  0  0
 14 15  1  0  0  0  0
 14 16  1  0  0  0  0
 14 37  1  0  0  0  0
 15 38  1  0  0  0  0
 15 39  1  0  0  0  0
 15 40  1  0  0  0  0
 16 17  1  0  0  0  0
 16 41  1  0  0  0  0
 17 18  2  0  0  0  0
 17 42  1  0  0  0  0
 19 20  1  0  0  0  0
 20 25  2  0  0  0  0
 20 21  1  0  0  0  0
 21 22  2  0  0  0  0
 21 43  1  0  0  0  0
 22 23  1  0  0  0  0
 22 44  1  0  0  0  0
 23 24  2  0  0  0  0
 23 45  1  0  0  0  0
 24 25  1  0  0  0  0
 24 46  1  0  0  0  0
M  END
> <s_m_source_file>
AV-unprocessed.smi

> <i_m_source_file_index>
3011

> <i_lp_mmshare_version>
43012

> <i_f3d_flags>
0

> <s_epik_input>
W0NIM11PYzFbY0hdW2NIXVtjSF1bY0hdYzFPW0NIMl1bQ0gyXW4oYyhuMilbQ0BIXShbQ0gzXSlbTkhdW0NIXT1PKWMoYzIzKVtjSF1bY0hdW2NIXVtjSF0z

> <s_epik_cmdline>
J2VwaWtfcHl0aG9uJywgJy1waCcsICc3LjAnLCAnLXRuJywgJzgnLCAnLW1hJywgJzIwMCcsICctbWV0YWxfYmluZGluZycsICctaW1hZScsICc8aW5maWxlLm1hZT4nLCAnLW9tYWUnLCAnPG91dGZpbGUubWFlPic=

> <r_lp_tautomer_probability>
1

> <r_epik_Ionization_Penalty>
0.0924205

> <r_epik_Ionization_Penalty_Charging>
0

> <r_epik_Ionization_Penalty_Neutral>
0.0924205

> <r_epik_State_Penalty>
0.0827154

> <r_epik_Charging_Adjusted_Penalty>
0.0827154

> <i_epik_Tot_Q>
0

> <i_epik_Tot_abs_Q>
0

> <r_epik_Metal_State_Penalty>
0.071464

> <b_epik_Metal_Only>
0

> <s_lp_Force_Field>
OPLS_2005

> <r_lp_Energy>
15.3464

> <b_lp_Chiralities_Consistent>
1

> <s_lp_Variant>
AV-unprocessed.smi:3011-1

> <Gold.Version>
5.8.1

> <Gold.Id.Protein>
6NUR|6NUR_protein|mol2

> <Gold.PLP.Fitness>
47.4761

> <Gold.PLP.PLP>
-45.7410

> <Gold.PLP.part.hbond>
-1.0000

> <Gold.PLP.part.metal>
0.0000

> <Gold.PLP.part.buried>
-7.9532

> <Gold.PLP.part.nonpolar>
-37.7330

> <Gold.PLP.part.repulsive>
0.6655

> <Gold.PLP.ligand.clash>
0.0000

> <Gold.PLP.ligand.torsion>
0.7164

> <Gold.PLP.Chemscore.Hbond>
1.0000

> <Gold.PLP.Chemscore.CHOScore>
0.0000

> <Gold.PLP.Chemscore.Metal>
0.0000

> <Gold.Chemscore.Hbonds>
donor molecule, donor type, donor heavy atom, donor atom, acceptor molecule, acceptor atom, score
      P1  H 10752 10763       L1    18  0.99

> <Gold.PLP.Chemscore.Internal.Correction>
0.1679

> <Gold.Rescore>
     Score         DG    S(hbond)    S(metal)    S(lipo)     H(rot)  DE(clash)    DE(int)     intcor
     14.83     -15.93       0.98        0.00     118.01       2.59       0.07       1.04       ----

> <Gold.Chemscore.Fitness>
14.8254

> <Gold.Chemscore.DG>
-15.9317

> <Gold.Chemscore.ZeroCoef>
-5.4800

> <Gold.Chemscore.Hbond>
0.9815

> <Gold.Chemscore.Metal>
0.0000

> <Gold.Chemscore.Lipo>
118.0144

> <Gold.Chemscore.Internal_Hbond>
0.0000

> <Gold.Chemscore.DEClash>
0.0663

> <Gold.Chemscore.DEInternal>
1.0400

> <Gold.Chemscore.Rot>
2.5914

> <Gold.Chemscore.Internal.Correction>
   9.000000E+99

> <Gold.Chemscore.Hbonds>
donor molecule, donor type, donor heavy atom, donor atom, acceptor molecule, acceptor atom, score
      P1  H 10752 10763       L1    18  0.94

> <Gold.Chemscore.Hbond.Weighted>
-3.2781

> <Gold.Chemscore.Metal.Weighted>
-0.0000

> <Gold.Chemscore.Lipo.Weighted>
-13.8077

> <Gold.Chemscore.Internal_Hbond.Weighted>
0.0000

> <Gold.Chemscore.DEClash.Weighted>
0.0663

> <Gold.Chemscore.DEInternal.Weighted>
1.0400

> <Gold.Chemscore.Rot.Weighted>
6.6340

> <Gold.Chemscore.Internal.Correction.Weighted>
   9.000000E+99

> <Gold.Protein.RotatedTorsions>
[ 6907 6896 6895 6894 ] final   26.50 input  -60.11 | X-H torsion
[ 7974 7965 7964 7962 ] final  152.57 input  175.53 | X-H torsion
[ 8008 7997 7996 7995 ] final  -46.41 input   59.86 | X-H torsion
[ 10167 10162 10161 10158 ] final   -4.51 input  -65.29 | X-H torsion
[ 10718 10713 10712 10709 ] final -115.88 input   66.30 | X-H torsion
[ 10763 10752 10751 10750 ] final  106.88 input  -60.55 | X-H torsion
[ 11005 11000 10999 10996 ] final  115.51 input  -57.11 | X-H torsion

> <Gold.Protein.ActiveResidues>
 VAL166  LYS551  ARG553  GLY616  TRP617  ASP618  TYR619  PRO620  LYS621  CYS622 
 ASP623  PHE694  ASN695  SER759  ASP760  ASP761  ALA762  ILE779  LEU786  VAL792 
 PHE793  MET794  SER795  GLU796  ALA797  LYS798  CYS799  TRP800  GLU811  SER814 

> <Gold.Protein.RotatedAtoms>
  151.9884  134.9992  160.0560 H   0  0  0  0  0  0  0  0  0  0  0  0  # atno 6907 bound_to 6896
  152.1631  133.4590  159.4879 H   0  0  0  0  0  0  0  0  0  0  0  0  # atno 6908 bound_to 6896
  150.6890  134.1964  159.4348 H   0  0  0  0  0  0  0  0  0  0  0  0  # atno 6909 bound_to 6896
  144.8213  139.6686  143.6099 H   0  0  0  0  0  0  0  0  0  0  0  0  # atno 7974 bound_to 7965
  154.4007  140.1372  156.4007 H   0  0  0  0  0  0  0  0  0  0  0  0  # atno 8008 bound_to 7997
  155.7827  140.3481  155.5285 H   0  0  0  0  0  0  0  0  0  0  0  0  # atno 8009 bound_to 7997
  155.8658  140.0964  157.1574 H   0  0  0  0  0  0  0  0  0  0  0  0  # atno 8010 bound_to 7997
  140.6930  143.6415  150.8431 H   0  0  0  0  0  0  0  0  0  0  0  0  # atno 10167 bound_to 10162
  156.0925  130.6105  150.8963 H   0  0  0  0  0  0  0  0  0  0  0  0  # atno 10718 bound_to 10713
  153.3991  135.3862  155.1975 H   0  0  0  0  0  0  0  0  0  0  0  0  # atno 10763 bound_to 10752
  154.8727  135.3767  154.4642 H   0  0  0  0  0  0  0  0  0  0  0  0  # atno 10764 bound_to 10752
  153.5137  135.7087  153.5829 H   0  0  0  0  0  0  0  0  0  0  0  0  # atno 10765 bound_to 10752
  139.9012  134.9585  156.7057 H   0  0  0  0  0  0  0  0  0  0  0  0  # atno 11005 bound_to 11000
  146.2519  139.6217  142.9421 LP  0  0  0  0  0  0  0  0  0  0  0  0  # atno 17320 bound_to 7965
  145.5098  141.0435  143.2494 LP  0  0  0  0  0  0  0  0  0  0  0  0  # atno 17321 bound_to 7965
  140.0130  143.5622  152.2831 LP  0  0  0  0  0  0  0  0  0  0  0  0  # atno 17342 bound_to 10162
  139.6353  144.7649  151.2451 LP  0  0  0  0  0  0  0  0  0  0  0  0  # atno 17343 bound_to 10162
  157.6078  131.0938  150.8848 LP  0  0  0  0  0  0  0  0  0  0  0  0  # atno 17370 bound_to 10713
  156.8994  130.5241  149.5283 LP  0  0  0  0  0  0  0  0  0  0  0  0  # atno 17371 bound_to 10713
  140.7116  133.9219  155.8088 LP  0  0  0  0  0  0  0  0  0  0  0  0  # atno 17394 bound_to 11000
  141.0296  134.0775  157.4029 LP  0  0  0  0  0  0  0  0  0  0  0  0  # atno 17395 bound_to 11000

$$$$
