AV-unprocessed.smi:1538|AV-procd|sdf|6192|dock10
  -GOLD-   22720 6363D 1   1.00000     0.00000
 Structure written by MMmdl.
 37 38  0  0  0  0  0  0  0  0  2 V2000
  152.2575  143.9911  162.4678 C   0  0  0  0  0  0  0  0  0  0  0  0
  152.4675  143.5225  161.0967 N   0  0  0  0  0  0  0  0  0  0  0  0
  152.8543  142.1114  160.9772 C   0  0  0  0  0  0  0  0  0  0  0  0
  153.5309  141.7817  159.6399 C   0  0  0  0  0  0  0  0  0  0  0  0
  152.7470  142.3416  158.4441 C   0  0  1  0  0  0  0  0  0  0  0  0
  151.4605  141.5511  158.1459 C   0  0  0  0  0  0  0  0  0  0  0  0
  151.0390  140.7167  158.9473 O   0  0  0  0  0  0  0  0  0  0  0  0
  150.8366  141.8313  156.9922 N   0  0  0  0  0  0  0  0  0  0  0  0
  149.6083  141.1883  156.5477 C   0  0  0  0  0  0  0  0  0  0  0  0
  149.4838  141.2549  155.0197 C   0  0  0  0  0  0  0  0  0  0  0  0
  148.0973  141.4642  154.5986 N   0  0  0  0  0  0  0  0  0  0  0  0
  147.2541  142.4729  154.9878 C   0  0  0  0  0  0  0  0  0  0  0  0
  146.0667  142.2632  154.3346 C   0  0  0  0  0  0  0  0  0  0  0  0
  146.2362  141.1373  153.5740 N   0  3  0  0  0  0  0  0  0  0  0  0
  147.4720  140.6528  153.7356 C   0  0  0  0  0  0  0  0  0  0  0  0
  152.4761  143.8549  158.6074 C   0  0  0  0  0  0  0  0  0  0  0  0
  152.2533  144.3535  160.0481 C   0  0  0  0  0  0  0  0  0  0  0  0
  151.8950  145.5218  160.1993 O   0  0  0  0  0  0  0  0  0  0  0  0
  151.2697  144.4405  162.5800 H   0  0  0  0  0  0  0  0  0  0  0  0
  153.0053  144.7397  162.7325 H   0  0  0  0  0  0  0  0  0  0  0  0
  152.3254  143.1814  163.1955 H   0  0  0  0  0  0  0  0  0  0  0  0
  153.5334  141.8409  161.7870 H   0  0  0  0  0  0  0  0  0  0  0  0
  151.9616  141.4993  161.1103 H   0  0  0  0  0  0  0  0  0  0  0  0
  154.5350  142.2083  159.6343 H   0  0  0  0  0  0  0  0  0  0  0  0
  153.6619  140.7030  159.5454 H   0  0  0  0  0  0  0  0  0  0  0  0
  153.3880  142.2299  157.5676 H   0  0  0  0  0  0  0  0  0  0  0  0
  151.2399  142.5322  156.3869 H   0  0  0  0  0  0  0  0  0  0  0  0
  149.6055  140.1487  156.8794 H   0  0  0  0  0  0  0  0  0  0  0  0
  148.7531  141.6791  157.0156 H   0  0  0  0  0  0  0  0  0  0  0  0
  150.0907  142.0660  154.6140 H   0  0  0  0  0  0  0  0  0  0  0  0
  149.8357  140.3287  154.5629 H   0  0  0  0  0  0  0  0  0  0  0  0
  147.5535  143.2453  155.6816 H   0  0  0  0  0  0  0  0  0  0  0  0
  145.1392  142.8168  154.3531 H   0  0  0  0  0  0  0  0  0  0  0  0
  147.8830  139.7796  153.2610 H   0  0  0  0  0  0  0  0  0  0  0  0
  153.3347  144.4034  158.2182 H   0  0  0  0  0  0  0  0  0  0  0  0
  151.6290  144.1669  157.9939 H   0  0  0  0  0  0  0  0  0  0  0  0
  145.5304  140.7288  152.9740 H   0  0  0  0  0  0  0  0  0  0  0  0
  1  2  1  0  0  0  0
  1 19  1  0  0  0  0
  1 20  1  0  0  0  0
  1 21  1  0  0  0  0
  2 17  1  0  0  0  0
  2  3  1  0  0  0  0
  3  4  1  0  0  0  0
  3 22  1  0  0  0  0
  3 23  1  0  0  0  0
  4  5  1  0  0  0  0
  4 24  1  0  0  0  0
  4 25  1  0  0  0  0
  5  6  1  0  0  0  0
  5 16  1  0  0  0  0
  5 26  1  0  0  0  0
  6  7  2  0  0  0  0
  6  8  1  0  0  0  0
  8  9  1  0  0  0  0
  8 27  1  0  0  0  0
  9 10  1  0  0  0  0
  9 28  1  0  0  0  0
  9 29  1  0  0  0  0
 10 11  1  0  0  0  0
 10 30  1  0  0  0  0
 10 31  1  0  0  0  0
 11 15  1  0  0  0  0
 11 12  1  0  0  0  0
 12 13  2  0  0  0  0
 12 32  1  0  0  0  0
 13 14  1  0  0  0  0
 13 33  1  0  0  0  0
 14 15  2  0  0  0  0
 14 37  1  0  0  0  0
 15 34  1  0  0  0  0
 16 17  1  0  0  0  0
 16 35  1  0  0  0  0
 16 36  1  0  0  0  0
 17 18  2  0  0  0  0
M  CHG  1  14   1
M  END
> <s_m_source_file>
AV-unprocessed.smi

> <i_m_source_file_index>
1538

> <i_lp_mmshare_version>
43012

> <i_f3d_flags>
0

> <s_epik_input>
W0NIM11OMVtDSDJdW0NIMl1bQ0BIXShbQ0gyXUMxPU8pQyg9TylbTkhdW0NIMl1bQ0gyXW4yW2NIXVtjSF1uW2NIXTI=

> <s_epik_cmdline>
J2VwaWtfcHl0aG9uJywgJy1waCcsICc3LjAnLCAnLXRuJywgJzgnLCAnLW1hJywgJzIwMCcsICctbWV0YWxfYmluZGluZycsICctaW1hZScsICc8aW5maWxlLm1hZT4nLCAnLW9tYWUnLCAnPG91dGZpbGUubWFlPic=

> <r_lp_tautomer_probability>
1

> <r_epik_Ionization_Penalty>
0.272873

> <r_epik_Ionization_Penalty_Charging>
0

> <r_epik_Ionization_Penalty_Neutral>
0.272873

> <r_epik_State_Penalty>
0.265096

> <r_epik_Charging_Adjusted_Penalty>
0.265096

> <i_epik_Tot_Q>
1

> <i_epik_Tot_abs_Q>
1

> <r_epik_Metal_State_Penalty>
0.549113

> <b_epik_Metal_Only>
0

> <s_lp_Force_Field>
OPLS_2005

> <r_lp_Energy>
17.3063

> <b_lp_Chiralities_Consistent>
1

> <s_lp_Variant>
AV-unprocessed.smi:1538-1

> <Gold.Version>
5.8.1

> <Gold.Id.Protein>
6NUR|6NUR_protein|mol2

> <Gold.PLP.Fitness>
47.7775

> <Gold.PLP.PLP>
-37.8532

> <Gold.PLP.part.hbond>
-1.0000

> <Gold.PLP.part.metal>
0.0000

> <Gold.PLP.part.buried>
-1.0582

> <Gold.PLP.part.nonpolar>
-36.5330

> <Gold.PLP.part.repulsive>
0.2632

> <Gold.PLP.ligand.clash>
0.0000

> <Gold.PLP.ligand.torsion>
0.5865

> <Gold.PLP.Chemscore.Hbond>
1.9200

> <Gold.PLP.Chemscore.CHOScore>
1.7628

> <Gold.PLP.Chemscore.Metal>
0.0000

> <Gold.Chemscore.Hbonds>
donor molecule, donor type, donor heavy atom, donor atom, acceptor molecule, acceptor atom, score
      L1  H    14    37       P1 10175  2.00
      L1  C    12    32       P1  8028  0.66
      L1  C    15    34       P1  7957  0.42

> <Gold.PLP.Chemscore.Internal.Correction>
0.0488

> <Gold.Rescore>
     Score         DG    S(hbond)    S(metal)    S(lipo)     H(rot)  DE(clash)    DE(int)     intcor
     11.36     -12.69       0.97        0.00      78.88       2.05       0.90       0.43       ----

> <Gold.Chemscore.Fitness>
11.3640

> <Gold.Chemscore.DG>
-12.6899

> <Gold.Chemscore.ZeroCoef>
-5.4800

> <Gold.Chemscore.Hbond>
0.9651

> <Gold.Chemscore.Metal>
0.0000

> <Gold.Chemscore.Lipo>
78.8776

> <Gold.Chemscore.Internal_Hbond>
0.0000

> <Gold.Chemscore.DEClash>
0.8985

> <Gold.Chemscore.DEInternal>
0.4275

> <Gold.Chemscore.Rot>
2.0478

> <Gold.Chemscore.Internal.Correction>
   9.000000E+99

> <Gold.Chemscore.Hbonds>
donor molecule, donor type, donor heavy atom, donor atom, acceptor molecule, acceptor atom, score
      L1  H    14    37       P1 10175  0.57

> <Gold.Chemscore.Hbond.Weighted>
-3.2236

> <Gold.Chemscore.Metal.Weighted>
-0.0000

> <Gold.Chemscore.Lipo.Weighted>
-9.2287

> <Gold.Chemscore.Internal_Hbond.Weighted>
0.0000

> <Gold.Chemscore.DEClash.Weighted>
0.8985

> <Gold.Chemscore.DEInternal.Weighted>
0.4275

> <Gold.Chemscore.Rot.Weighted>
5.2423

> <Gold.Chemscore.Internal.Correction.Weighted>
   9.000000E+99

> <Gold.Protein.RotatedTorsions>
[ 6907 6896 6895 6894 ] final   35.32 input  -60.11 | X-H torsion
[ 7974 7965 7964 7962 ] final   -0.07 input  175.53 | X-H torsion
[ 8008 7997 7996 7995 ] final    4.38 input   59.86 | X-H torsion
[ 10167 10162 10161 10158 ] final  -93.37 input  -65.29 | X-H torsion
[ 10718 10713 10712 10709 ] final   19.60 input   66.30 | X-H torsion
[ 10763 10752 10751 10750 ] final  -16.10 input  -60.55 | X-H torsion
[ 11005 11000 10999 10996 ] final -148.63 input  -57.11 | X-H torsion

> <Gold.Protein.ActiveResidues>
 VAL166  LYS551  ARG553  GLY616  TRP617  ASP618  TYR619  PRO620  LYS621  CYS622 
 ASP623  PHE694  ASN695  SER759  ASP760  ASP761  ALA762  ILE779  LEU786  VAL792 
 PHE793  MET794  SER795  GLU796  ALA797  LYS798  CYS799  TRP800  GLU811  SER814 

> <Gold.Protein.RotatedAtoms>
  152.1146  134.9250  160.0565 H   0  0  0  0  0  0  0  0  0  0  0  0  # atno 6907 bound_to 6896
  152.0414  133.3974  159.4347 H   0  0  0  0  0  0  0  0  0  0  0  0  # atno 6908 bound_to 6896
  150.6845  134.3331  159.4879 H   0  0  0  0  0  0  0  0  0  0  0  0  # atno 6909 bound_to 6896
  146.2430  140.1214  142.8340 H   0  0  0  0  0  0  0  0  0  0  0  0  # atno 7974 bound_to 7965
  154.7152  140.2701  155.6592 H   0  0  0  0  0  0  0  0  0  0  0  0  # atno 8008 bound_to 7997
  156.2807  140.2745  156.1731 H   0  0  0  0  0  0  0  0  0  0  0  0  # atno 8009 bound_to 7997
  155.0580  140.0371  157.2557 H   0  0  0  0  0  0  0  0  0  0  0  0  # atno 8010 bound_to 7997
  140.3253  143.3025  152.0001 H   0  0  0  0  0  0  0  0  0  0  0  0  # atno 10167 bound_to 10162
  157.1127  130.6515  149.5902 H   0  0  0  0  0  0  0  0  0  0  0  0  # atno 10718 bound_to 10713
  153.5534  135.7011  153.5580 H   0  0  0  0  0  0  0  0  0  0  0  0  # atno 10763 bound_to 10752
  153.3494  135.3999  155.1634 H   0  0  0  0  0  0  0  0  0  0  0  0  # atno 10764 bound_to 10752
  154.8658  135.3761  154.5047 H   0  0  0  0  0  0  0  0  0  0  0  0  # atno 10765 bound_to 10752
  140.7592  134.3317  157.5106 H   0  0  0  0  0  0  0  0  0  0  0  0  # atno 11005 bound_to 11000
  145.0403  140.8940  143.5056 LP  0  0  0  0  0  0  0  0  0  0  0  0  # atno 17320 bound_to 7965
  145.1293  139.2642  143.5547 LP  0  0  0  0  0  0  0  0  0  0  0  0  # atno 17321 bound_to 7965
  139.4866  144.6278  151.7129 LP  0  0  0  0  0  0  0  0  0  0  0  0  # atno 17342 bound_to 10162
  140.5446  144.0524  150.6102 LP  0  0  0  0  0  0  0  0  0  0  0  0  # atno 17343 bound_to 10162
  155.9847  130.4873  150.6994 LP  0  0  0  0  0  0  0  0  0  0  0  0  # atno 17370 bound_to 10713
  157.4545  131.0876  151.0811 LP  0  0  0  0  0  0  0  0  0  0  0  0  # atno 17371 bound_to 10713
  139.8774  134.9191  156.3219 LP  0  0  0  0  0  0  0  0  0  0  0  0  # atno 17394 bound_to 11000
  140.9679  133.7346  156.0492 LP  0  0  0  0  0  0  0  0  0  0  0  0  # atno 17395 bound_to 11000

$$$$
