AV-unprocessed.smi:3166|AV-procd|sdf|12096|dock7
  -GOLD-   2272017533D 1   1.00000     0.00000
 Structure written by MMmdl.
 40 41  0  0  0  0  0  0  0  0  1 V2000
  145.3577  136.3929  151.6479 C   0  0  0  0  0  0  0  0  0  0  0  0
  145.9145  135.5102  152.7762 C   0  0  1  0  0  0  0  0  0  0  0  0
  146.5038  134.1776  152.2490 C   0  0  0  0  0  0  0  0  0  0  0  0
  145.5309  133.3333  151.5731 N   0  0  0  0  0  0  0  0  0  0  0  0
  145.7320  132.1099  150.9681 C   0  0  0  0  0  0  0  0  0  0  0  0
  144.5289  131.6971  150.4725 C   0  0  0  0  0  0  0  0  0  0  0  0
  143.6382  132.7470  150.8312 C   0  0  0  0  0  0  0  0  0  0  0  0
  144.2391  133.7222  151.4934 N   0  0  0  0  0  0  0  0  0  0  0  0
  146.8741  136.2859  153.5693 N   0  0  0  0  0  0  0  0  0  0  0  0
  146.3925  137.5780  154.0637 C   0  0  0  0  0  0  0  0  0  0  0  0
  147.3581  138.7356  153.7230 C   0  0  0  0  0  0  0  0  0  0  0  0
  147.5823  138.6931  152.3248 O   0  0  0  0  0  0  0  0  0  0  0  0
  146.6747  140.0859  154.0452 C   0  0  0  0  0  0  0  0  0  0  0  0
  147.5972  141.2984  153.8248 C   0  0  0  0  0  0  0  0  0  0  0  0
  148.9038  141.1545  154.6169 C   0  0  0  0  0  0  0  0  0  0  0  0
  149.6203  139.8458  154.2573 C   0  0  0  0  0  0  0  0  0  0  0  0
  148.7082  138.6255  154.4772 C   0  0  0  0  0  0  0  0  0  0  0  0
  144.6299  135.8471  151.0473 H   0  0  0  0  0  0  0  0  0  0  0  0
  146.1461  136.7420  150.9801 H   0  0  0  0  0  0  0  0  0  0  0  0
  144.8559  137.2729  152.0513 H   0  0  0  0  0  0  0  0  0  0  0  0
  145.0711  135.2554  153.4190 H   0  0  0  0  0  0  0  0  0  0  0  0
  147.3405  134.3505  151.5726 H   0  0  0  0  0  0  0  0  0  0  0  0
  146.9220  133.6149  153.0853 H   0  0  0  0  0  0  0  0  0  0  0  0
  146.7045  131.6414  150.9396 H   0  0  0  0  0  0  0  0  0  0  0  0
  144.3171  130.7842  149.9358 H   0  0  0  0  0  0  0  0  0  0  0  0
  142.5796  132.8282  150.6331 H   0  0  0  0  0  0  0  0  0  0  0  0
  147.7219  136.4311  153.0299 H   0  0  0  0  0  0  0  0  0  0  0  0
  145.4068  137.7914  153.6478 H   0  0  0  0  0  0  0  0  0  0  0  0
  146.2673  137.5377  155.1450 H   0  0  0  0  0  0  0  0  0  0  0  0
  148.1633  137.9716  152.1380 H   0  0  0  0  0  0  0  0  0  0  0  0
  145.7673  140.2027  153.4506 H   0  0  0  0  0  0  0  0  0  0  0  0
  146.3515  140.0841  155.0872 H   0  0  0  0  0  0  0  0  0  0  0  0
  147.8212  141.4067  152.7629 H   0  0  0  0  0  0  0  0  0  0  0  0
  147.0827  142.2122  154.1233 H   0  0  0  0  0  0  0  0  0  0  0  0
  149.5568  142.0043  154.4161 H   0  0  0  0  0  0  0  0  0  0  0  0
  148.6895  141.1735  155.6862 H   0  0  0  0  0  0  0  0  0  0  0  0
  149.9465  139.8806  153.2171 H   0  0  0  0  0  0  0  0  0  0  0  0
  150.5248  139.7428  154.8575 H   0  0  0  0  0  0  0  0  0  0  0  0
  148.5131  138.5222  155.5453 H   0  0  0  0  0  0  0  0  0  0  0  0
  149.2443  137.7237  154.1799 H   0  0  0  0  0  0  0  0  0  0  0  0
  1  2  1  0  0  0  0
  1 18  1  0  0  0  0
  1 19  1  0  0  0  0
  1 20  1  0  0  0  0
  2  3  1  0  0  0  0
  2  9  1  0  0  0  0
  2 21  1  0  0  0  0
  3  4  1  0  0  0  0
  3 22  1  0  0  0  0
  3 23  1  0  0  0  0
  4  8  1  0  0  0  0
  4  5  1  0  0  0  0
  5  6  2  0  0  0  0
  5 24  1  0  0  0  0
  6  7  1  0  0  0  0
  6 25  1  0  0  0  0
  7  8  2  0  0  0  0
  7 26  1  0  0  0  0
  9 10  1  0  0  0  0
  9 27  1  0  0  0  0
 10 11  1  0  0  0  0
 10 28  1  0  0  0  0
 10 29  1  0  0  0  0
 11 17  1  0  0  0  0
 11 12  1  0  0  0  0
 11 13  1  0  0  0  0
 12 30  1  0  0  0  0
 13 14  1  0  0  0  0
 13 31  1  0  0  0  0
 13 32  1  0  0  0  0
 14 15  1  0  0  0  0
 14 33  1  0  0  0  0
 14 34  1  0  0  0  0
 15 16  1  0  0  0  0
 15 35  1  0  0  0  0
 15 36  1  0  0  0  0
 16 17  1  0  0  0  0
 16 37  1  0  0  0  0
 16 38  1  0  0  0  0
 17 39  1  0  0  0  0
 17 40  1  0  0  0  0
M  END
> <s_m_source_file>
AV-unprocessed.smi

> <i_m_source_file_index>
3166

> <i_lp_mmshare_version>
43012

> <i_f3d_flags>
0

> <s_epik_input>
bjFbY0hdW2NIXVtjSF1uMVtDSDJdW0NAQEhdKFtDSDNdKVtOSF1bQ0gyXUMyKFtPSF0pW0NIMl1bQ0gyXVtDSDJdW0NIMl1bQ0gyXTI=

> <s_epik_cmdline>
J2VwaWtfcHl0aG9uJywgJy1waCcsICc3LjAnLCAnLXRuJywgJzgnLCAnLW1hJywgJzIwMCcsICctbWV0YWxfYmluZGluZycsICctaW1hZScsICc8aW5maWxlLm1hZT4nLCAnLW9tYWUnLCAnPG91dGZpbGUubWFlPic=

> <r_lp_tautomer_probability>
1

> <r_epik_Ionization_Penalty>
2.35964

> <r_epik_Ionization_Penalty_Charging>
0

> <r_epik_Ionization_Penalty_Neutral>
2.35964

> <r_epik_State_Penalty>
2.51455

> <r_epik_Charging_Adjusted_Penalty>
2.51455

> <i_epik_Tot_Q>
0

> <i_epik_Tot_abs_Q>
0

> <r_epik_Metal_State_Penalty>
2.51451

> <b_epik_Metal_Only>
0

> <s_lp_Force_Field>
OPLS_2005

> <r_lp_Energy>
22.3921

> <b_lp_Chiralities_Consistent>
1

> <s_lp_Variant>
AV-unprocessed.smi:3166-4

> <Gold.Version>
5.8.1

> <Gold.Id.Protein>
6NUR|6NUR_protein|mol2

> <Gold.PLP.Fitness>
42.8970

> <Gold.PLP.PLP>
-31.7315

> <Gold.PLP.part.hbond>
-3.0000

> <Gold.PLP.part.metal>
0.0000

> <Gold.PLP.part.buried>
-3.3459

> <Gold.PLP.part.nonpolar>
-25.8755

> <Gold.PLP.part.repulsive>
0.1328

> <Gold.PLP.ligand.clash>
0.0000

> <Gold.PLP.ligand.torsion>
0.4343

> <Gold.PLP.Chemscore.Hbond>
2.0000

> <Gold.PLP.Chemscore.CHOScore>
2.0000

> <Gold.PLP.Chemscore.Metal>
0.0000

> <Gold.Chemscore.Hbonds>
donor molecule, donor type, donor heavy atom, donor atom, acceptor molecule, acceptor atom, score
      L1  H     9    27       P1  7948  1.00
      L1  H    12    30       P1  7948  1.00
      L1  C     5    24       P1 10747  1.00
      L1  C     7    26       P1 10186  1.00

> <Gold.PLP.Chemscore.Internal.Correction>
0.0342

> <Gold.Rescore>
     Score         DG    S(hbond)    S(metal)    S(lipo)     H(rot)  DE(clash)    DE(int)     intcor
     14.71     -16.73       2.00        0.00      85.52       2.12       0.40       1.61       ----

> <Gold.Chemscore.Fitness>
14.7129

> <Gold.Chemscore.DG>
-16.7273

> <Gold.Chemscore.ZeroCoef>
-5.4800

> <Gold.Chemscore.Hbond>
1.9974

> <Gold.Chemscore.Metal>
0.0000

> <Gold.Chemscore.Lipo>
85.5180

> <Gold.Chemscore.Internal_Hbond>
0.0000

> <Gold.Chemscore.DEClash>
0.4036

> <Gold.Chemscore.DEInternal>
1.6108

> <Gold.Chemscore.Rot>
2.1209

> <Gold.Chemscore.Internal.Correction>
   9.000000E+99

> <Gold.Chemscore.Hbonds>
donor molecule, donor type, donor heavy atom, donor atom, acceptor molecule, acceptor atom, score
      L1  H     9    27       P1  7948  1.00
      L1  H    12    30       P1  7948  1.00

> <Gold.Chemscore.Hbond.Weighted>
-6.6713

> <Gold.Chemscore.Metal.Weighted>
-0.0000

> <Gold.Chemscore.Lipo.Weighted>
-10.0056

> <Gold.Chemscore.Internal_Hbond.Weighted>
0.0000

> <Gold.Chemscore.DEClash.Weighted>
0.4036

> <Gold.Chemscore.DEInternal.Weighted>
1.6108

> <Gold.Chemscore.Rot.Weighted>
5.4296

> <Gold.Chemscore.Internal.Correction.Weighted>
   9.000000E+99

> <Gold.Protein.RotatedTorsions>
[ 6907 6896 6895 6894 ] final  -93.06 input  -60.11 | X-H torsion
[ 7974 7965 7964 7962 ] final  122.83 input  175.53 | X-H torsion
[ 8008 7997 7996 7995 ] final -154.19 input   59.86 | X-H torsion
[ 10167 10162 10161 10158 ] final    0.95 input  -65.29 | X-H torsion
[ 10718 10713 10712 10709 ] final   32.68 input   66.30 | X-H torsion
[ 10763 10752 10751 10750 ] final  148.91 input  -60.55 | X-H torsion
[ 11005 11000 10999 10996 ] final  -44.11 input  -57.11 | X-H torsion

> <Gold.Protein.ActiveResidues>
 VAL166  LYS551  ARG553  GLY616  TRP617  ASP618  TYR619  PRO620  LYS621  CYS622 
 ASP623  PHE694  ASN695  SER759  ASP760  ASP761  ALA762  ILE779  LEU786  VAL792 
 PHE793  MET794  SER795  GLU796  ALA797  LYS798  CYS799  TRP800  GLU811  SER814 

> <Gold.Protein.RotatedAtoms>
  150.6916  134.2026  159.4327 H   0  0  0  0  0  0  0  0  0  0  0  0  # atno 6907 bound_to 6896
  151.9992  134.9935  160.0573 H   0  0  0  0  0  0  0  0  0  0  0  0  # atno 6908 bound_to 6896
  152.1595  133.4538  159.4890 H   0  0  0  0  0  0  0  0  0  0  0  0  # atno 6909 bound_to 6896
  145.1029  139.3506  143.4802 H   0  0  0  0  0  0  0  0  0  0  0  0  # atno 7974 bound_to 7965
  155.6825  140.0746  157.2479 H   0  0  0  0  0  0  0  0  0  0  0  0  # atno 8008 bound_to 7997
  154.4103  140.1679  156.2050 H   0  0  0  0  0  0  0  0  0  0  0  0  # atno 8009 bound_to 7997
  155.9523  140.3376  155.6421 H   0  0  0  0  0  0  0  0  0  0  0  0  # atno 8010 bound_to 7997
  140.6705  143.7061  150.7913 H   0  0  0  0  0  0  0  0  0  0  0  0  # atno 10167 bound_to 10162
  157.2883  130.7289  149.6596 H   0  0  0  0  0  0  0  0  0  0  0  0  # atno 10718 bound_to 10713
  154.0624  135.2873  155.3322 H   0  0  0  0  0  0  0  0  0  0  0  0  # atno 10763 bound_to 10752
  154.6799  135.5267  153.8253 H   0  0  0  0  0  0  0  0  0  0  0  0  # atno 10764 bound_to 10752
  153.0517  135.6579  154.0812 H   0  0  0  0  0  0  0  0  0  0  0  0  # atno 10765 bound_to 10752
  141.0429  133.6773  156.2827 H   0  0  0  0  0  0  0  0  0  0  0  0  # atno 11005 bound_to 11000
  146.3529  140.0915  142.8612 LP  0  0  0  0  0  0  0  0  0  0  0  0  # atno 17320 bound_to 7965
  145.0934  140.9299  143.4755 LP  0  0  0  0  0  0  0  0  0  0  0  0  # atno 17321 bound_to 7965
  140.0746  143.5028  152.2562 LP  0  0  0  0  0  0  0  0  0  0  0  0  # atno 17342 bound_to 10162
  139.5971  144.7571  151.3259 LP  0  0  0  0  0  0  0  0  0  0  0  0  # atno 17343 bound_to 10162
  155.9666  130.4317  150.4930 LP  0  0  0  0  0  0  0  0  0  0  0  0  # atno 17370 bound_to 10713
  157.2888  131.0622  151.2148 LP  0  0  0  0  0  0  0  0  0  0  0  0  # atno 17371 bound_to 10713
  140.6202  134.5370  157.5546 LP  0  0  0  0  0  0  0  0  0  0  0  0  # atno 17394 bound_to 11000
  139.9289  134.8002  156.0988 LP  0  0  0  0  0  0  0  0  0  0  0  0  # atno 17395 bound_to 11000

$$$$
