AV-unprocessed.smi:2688|AV-procd|sdf|10386|dock2
  -GOLD-   2272014413D 1   1.00000     0.00000
 Structure written by MMmdl.
 51 54  0  0  0  0  0  0  0  0  1 V2000
  146.7642  133.6128  151.9568 C   0  0  0  0  0  0  0  0  0  0  0  0
  147.6780  132.9803  152.9639 C   0  0  0  0  0  0  0  0  0  0  0  0
  147.7371  131.5477  153.1832 C   0  0  0  0  0  0  0  0  0  0  0  0
  148.5910  131.0542  154.1057 C   0  0  0  0  0  0  0  0  0  0  0  0
  149.4614  131.9267  154.8910 C   0  0  0  0  0  0  0  0  0  0  0  0
  150.2536  131.5079  155.7349 O   0  0  0  0  0  0  0  0  0  0  0  0
  149.3173  133.2539  154.5993 N   0  0  0  0  0  0  0  0  0  0  0  0
  150.1287  134.2737  155.2793 C   0  0  0  0  0  0  0  0  0  0  0  0
  149.8332  134.3693  156.7829 C   0  0  0  0  0  0  0  0  0  0  0  0
  150.5782  135.0067  157.5289 O   0  0  0  0  0  0  0  0  0  0  0  0
  148.7287  133.7397  157.2126 N   0  0  0  0  0  0  0  0  0  0  0  0
  148.2865  133.6910  158.6014 C   0  0  0  0  0  0  0  0  0  0  0  0
  146.9823  134.4925  158.7973 C   0  0  0  0  0  0  0  0  0  0  0  0
  146.6044  134.8451  160.2582 C   0  0  0  0  0  0  0  0  0  0  0  0
  145.2290  135.5633  160.3334 C   0  0  0  0  0  0  0  0  0  0  0  0
  144.9053  135.9565  161.7909 C   0  0  1  0  0  0  0  0  0  0  0  0
  144.8594  134.6882  162.6693 C   0  0  0  0  0  0  0  0  0  0  0  0
  146.2329  133.9852  162.6224 C   0  0  2  0  0  0  0  0  0  0  0  0
  147.3198  134.9400  163.1572 C   0  0  0  0  0  0  0  0  0  0  0  0
  147.3581  136.2058  162.2768 C   0  0  2  0  0  0  0  0  0  0  0  0
  145.9896  136.9155  162.3229 C   0  0  0  0  0  0  0  0  0  0  0  0
  147.6829  135.8099  160.8216 C   0  0  0  0  0  0  0  0  0  0  0  0
  146.5609  133.5862  161.1663 C   0  0  0  0  0  0  0  0  0  0  0  0
  148.4391  133.7627  153.6564 N   0  0  0  0  0  0  0  0  0  0  0  0
  146.1815  132.8599  151.4255 H   0  0  0  0  0  0  0  0  0  0  0  0
  147.3330  134.1773  151.2172 H   0  0  0  0  0  0  0  0  0  0  0  0
  146.0658  134.2959  152.4410 H   0  0  0  0  0  0  0  0  0  0  0  0
  147.1010  130.8895  152.6098 H   0  0  0  0  0  0  0  0  0  0  0  0
  148.6346  129.9871  154.2678 H   0  0  0  0  0  0  0  0  0  0  0  0
  151.1913  134.0555  155.1573 H   0  0  0  0  0  0  0  0  0  0  0  0
  149.9737  135.2465  154.8085 H   0  0  0  0  0  0  0  0  0  0  0  0
  148.1673  133.2448  156.5348 H   0  0  0  0  0  0  0  0  0  0  0  0
  148.1668  132.6508  158.9044 H   0  0  0  0  0  0  0  0  0  0  0  0
  149.0849  134.1053  159.2160 H   0  0  0  0  0  0  0  0  0  0  0  0
  147.0573  135.4134  158.2172 H   0  0  0  0  0  0  0  0  0  0  0  0
  146.1555  133.9350  158.3542 H   0  0  0  0  0  0  0  0  0  0  0  0
  145.2293  136.4508  159.6989 H   0  0  0  0  0  0  0  0  0  0  0  0
  144.4334  134.9200  159.9581 H   0  0  0  0  0  0  0  0  0  0  0  0
  143.9357  136.4545  161.8236 H   0  0  0  0  0  0  0  0  0  0  0  0
  144.6033  134.9498  163.6967 H   0  0  0  0  0  0  0  0  0  0  0  0
  144.0768  134.0140  162.3193 H   0  0  0  0  0  0  0  0  0  0  0  0
  146.2019  133.0902  163.2445 H   0  0  0  0  0  0  0  0  0  0  0  0
  147.1132  135.2068  164.1946 H   0  0  0  0  0  0  0  0  0  0  0  0
  148.2926  134.4465  163.1534 H   0  0  0  0  0  0  0  0  0  0  0  0
  148.1287  136.8819  162.6487 H   0  0  0  0  0  0  0  0  0  0  0  0
  146.0154  137.8271  161.7245 H   0  0  0  0  0  0  0  0  0  0  0  0
  145.7560  137.2221  163.3432 H   0  0  0  0  0  0  0  0  0  0  0  0
  148.6676  135.3417  160.7806 H   0  0  0  0  0  0  0  0  0  0  0  0
  147.7482  136.7064  160.2033 H   0  0  0  0  0  0  0  0  0  0  0  0
  145.8079  132.8814  160.8135 H   0  0  0  0  0  0  0  0  0  0  0  0
  147.5153  133.0594  161.1305 H   0  0  0  0  0  0  0  0  0  0  0  0
  1  2  1  0  0  0  0
  1 25  1  0  0  0  0
  1 26  1  0  0  0  0
  1 27  1  0  0  0  0
  2 24  2  0  0  0  0
  2  3  1  0  0  0  0
  3  4  2  0  0  0  0
  3 28  1  0  0  0  0
  4  5  1  0  0  0  0
  4 29  1  0  0  0  0
  5  6  2  0  0  0  0
  5  7  1  0  0  0  0
  7  8  1  0  0  0  0
  7 24  1  0  0  0  0
  8  9  1  0  0  0  0
  8 30  1  0  0  0  0
  8 31  1  0  0  0  0
  9 10  2  0  0  0  0
  9 11  1  0  0  0  0
 11 12  1  0  0  0  0
 11 32  1  0  0  0  0
 12 13  1  0  0  0  0
 12 33  1  0  0  0  0
 12 34  1  0  0  0  0
 13 14  1  0  0  0  0
 13 35  1  0  0  0  0
 13 36  1  0  0  0  0
 14 22  1  0  0  0  0
 14 23  1  0  0  0  0
 14 15  1  0  0  0  0
 15 16  1  0  0  0  0
 15 37  1  0  0  0  0
 15 38  1  0  0  0  0
 16 21  1  0  0  0  0
 16 17  1  0  0  0  0
 16 39  1  0  0  0  0
 17 18  1  0  0  0  0
 17 40  1  0  0  0  0
 17 41  1  0  0  0  0
 18 19  1  0  0  0  0
 18 23  1  0  0  0  0
 18 42  1  0  0  0  0
 19 20  1  0  0  0  0
 19 43  1  0  0  0  0
 19 44  1  0  0  0  0
 20 21  1  0  0  0  0
 20 22  1  0  0  0  0
 20 45  1  0  0  0  0
 21 46  1  0  0  0  0
 21 47  1  0  0  0  0
 22 48  1  0  0  0  0
 22 49  1  0  0  0  0
 23 50  1  0  0  0  0
 23 51  1  0  0  0  0
M  END
> <s_m_source_file>
AV-unprocessed.smi

> <i_m_source_file_index>
2688

> <i_lp_mmshare_version>
43012

> <i_f3d_flags>
0

> <s_epik_input>
W0NIM11jMVtjSF1bY0hdYyg9TyluKG4xKVtDSDJdQyg9TylbTkhdW0NIMl1bQ0gyXUMyM1tDSDJdW0NASF00W0NIMl1bQ0BASF0oW0NIMl0zKVtDSDJdW0NASF0oW0NIMl00KVtDSDJdMg==

> <s_epik_cmdline>
J2VwaWtfcHl0aG9uJywgJy1waCcsICc3LjAnLCAnLXRuJywgJzgnLCAnLW1hJywgJzIwMCcsICctbWV0YWxfYmluZGluZycsICctaW1hZScsICc8aW5maWxlLm1hZT4nLCAnLW9tYWUnLCAnPG91dGZpbGUubWFlPic=

> <r_lp_tautomer_probability>
1

> <r_epik_Ionization_Penalty>
8.74812e-07

> <r_epik_Ionization_Penalty_Charging>
8.53005e-07

> <r_epik_Ionization_Penalty_Neutral>
2.18061e-08

> <r_epik_State_Penalty>
-0

> <r_epik_Charging_Adjusted_Penalty>
8.53005e-07

> <i_epik_Tot_Q>
0

> <i_epik_Tot_abs_Q>
0

> <r_epik_Metal_State_Penalty>
-0

> <b_epik_Metal_Only>
0

> <s_lp_Force_Field>
OPLS_2005

> <r_lp_Energy>
47.4944

> <b_lp_Chiralities_Consistent>
1

> <s_lp_Variant>
AV-unprocessed.smi:2688-1

> <Gold.Version>
5.8.1

> <Gold.Id.Protein>
6NUR|6NUR_protein|mol2

> <Gold.PLP.Fitness>
42.0183

> <Gold.PLP.PLP>
-41.9196

> <Gold.PLP.part.hbond>
-1.0000

> <Gold.PLP.part.metal>
0.0000

> <Gold.PLP.part.buried>
-4.0736

> <Gold.PLP.part.nonpolar>
-37.9844

> <Gold.PLP.part.repulsive>
0.2556

> <Gold.PLP.ligand.clash>
0.0000

> <Gold.PLP.ligand.torsion>
0.2763

> <Gold.PLP.Chemscore.Hbond>
0.2080

> <Gold.PLP.Chemscore.CHOScore>
0.0000

> <Gold.PLP.Chemscore.Metal>
0.0000

> <Gold.Chemscore.Hbonds>
donor molecule, donor type, donor heavy atom, donor atom, acceptor molecule, acceptor atom, score
      P1  H  6896  6907       L1    10  0.30

> <Gold.PLP.Chemscore.Internal.Correction>
0.0272

> <Gold.Rescore>
     Score         DG    S(hbond)    S(metal)    S(lipo)     H(rot)  DE(clash)    DE(int)     intcor
     12.57     -12.99       0.00        0.00     102.13       1.73       0.09       0.33       ----

> <Gold.Chemscore.Fitness>
12.5736

> <Gold.Chemscore.DG>
-12.9930

> <Gold.Chemscore.ZeroCoef>
-5.4800

> <Gold.Chemscore.Hbond>
0.0000

> <Gold.Chemscore.Metal>
0.0000

> <Gold.Chemscore.Lipo>
102.1344

> <Gold.Chemscore.Internal_Hbond>
0.0000

> <Gold.Chemscore.DEClash>
0.0936

> <Gold.Chemscore.DEInternal>
0.3258

> <Gold.Chemscore.Rot>
1.7331

> <Gold.Chemscore.Internal.Correction>
   9.000000E+99

> <Gold.Chemscore.Hbonds>
donor molecule, donor type, donor heavy atom, donor atom, acceptor molecule, acceptor atom, score
      P1  H  6896  6907       L1    10  0.30

> <Gold.Chemscore.Hbond.Weighted>
-0.0000

> <Gold.Chemscore.Metal.Weighted>
-0.0000

> <Gold.Chemscore.Lipo.Weighted>
-11.9497

> <Gold.Chemscore.Internal_Hbond.Weighted>
0.0000

> <Gold.Chemscore.DEClash.Weighted>
0.0936

> <Gold.Chemscore.DEInternal.Weighted>
0.3258

> <Gold.Chemscore.Rot.Weighted>
4.4367

> <Gold.Chemscore.Internal.Correction.Weighted>
   9.000000E+99

> <Gold.Protein.RotatedTorsions>
[ 6907 6896 6895 6894 ] final  -59.46 input  -60.11 | X-H torsion
[ 7974 7965 7964 7962 ] final  -39.93 input  175.53 | X-H torsion
[ 8008 7997 7996 7995 ] final   48.46 input   59.86 | X-H torsion
[ 10167 10162 10161 10158 ] final  120.67 input  -65.29 | X-H torsion
[ 10718 10713 10712 10709 ] final  177.79 input   66.30 | X-H torsion
[ 10763 10752 10751 10750 ] final  109.46 input  -60.55 | X-H torsion
[ 11005 11000 10999 10996 ] final -136.17 input  -57.11 | X-H torsion

> <Gold.Protein.ActiveResidues>
 VAL166  LYS551  ARG553  GLY616  TRP617  ASP618  TYR619  PRO620  LYS621  CYS622 
 ASP623  PHE694  ASN695  SER759  ASP760  ASP761  ALA762  ILE779  LEU786  VAL792 
 PHE793  MET794  SER795  GLU796  ALA797  LYS798  CYS799  TRP800  GLU811  SER814 

> <Gold.Protein.RotatedAtoms>
  150.7929  134.6966  159.6526 H   0  0  0  0  0  0  0  0  0  0  0  0  # atno 6907 bound_to 6896
  152.4037  134.6240  160.0068 H   0  0  0  0  0  0  0  0  0  0  0  0  # atno 6908 bound_to 6896
  151.6504  133.3284  159.3186 H   0  0  0  0  0  0  0  0  0  0  0  0  # atno 6909 bound_to 6896
  146.0351  140.6682  142.9114 H   0  0  0  0  0  0  0  0  0  0  0  0  # atno 7974 bound_to 7965
  155.3861  140.3431  155.4249 H   0  0  0  0  0  0  0  0  0  0  0  0  # atno 8008 bound_to 7997
  156.1584  140.1593  156.8687 H   0  0  0  0  0  0  0  0  0  0  0  0  # atno 8009 bound_to 7997
  154.5116  140.0788  156.7982 H   0  0  0  0  0  0  0  0  0  0  0  0  # atno 8010 bound_to 7997
  139.5967  144.7044  151.3158 H   0  0  0  0  0  0  0  0  0  0  0  0  # atno 10167 bound_to 10162
  156.9001  130.9876  151.3037 H   0  0  0  0  0  0  0  0  0  0  0  0  # atno 10718 bound_to 10713
  153.4350  135.3779  155.2194 H   0  0  0  0  0  0  0  0  0  0  0  0  # atno 10763 bound_to 10752
  154.8751  135.3849  154.4221 H   0  0  0  0  0  0  0  0  0  0  0  0  # atno 10764 bound_to 10752
  153.4759  135.7087  153.6029 H   0  0  0  0  0  0  0  0  0  0  0  0  # atno 10765 bound_to 10752
  140.8830  134.1908  157.4579 H   0  0  0  0  0  0  0  0  0  0  0  0  # atno 11005 bound_to 11000
  144.7048  140.3806  143.7127 LP  0  0  0  0  0  0  0  0  0  0  0  0  # atno 17320 bound_to 7965
  145.6977  139.1654  143.2610 LP  0  0  0  0  0  0  0  0  0  0  0  0  # atno 17321 bound_to 7965
  140.7218  143.7115  150.7766 LP  0  0  0  0  0  0  0  0  0  0  0  0  # atno 17342 bound_to 10162
  140.0683  143.5086  152.2593 LP  0  0  0  0  0  0  0  0  0  0  0  0  # atno 17343 bound_to 10162
  157.6031  130.8527  149.8833 LP  0  0  0  0  0  0  0  0  0  0  0  0  # atno 17370 bound_to 10713
  156.0586  130.3704  150.1033 LP  0  0  0  0  0  0  0  0  0  0  0  0  # atno 17371 bound_to 10713
  139.8721  134.9825  156.5160 LP  0  0  0  0  0  0  0  0  0  0  0  0  # atno 17394 bound_to 11000
  140.8439  133.8184  155.9102 LP  0  0  0  0  0  0  0  0  0  0  0  0  # atno 17395 bound_to 11000

$$$$
