AV-unprocessed.smi:2176|AV-procd|sdf|8847|dock5
  -GOLD-   2272012 43D 1   1.00000     0.00000
 Structure written by MMmdl.
 28 29  0  0  0  0  0  0  0  0  2 V2000
  151.0788  141.2218  157.8567 O   0  0  0  0  0  0  0  0  0  0  0  0
  150.5594  142.0640  157.1233 C   0  0  0  0  0  0  0  0  0  0  0  0
  150.3299  141.7644  155.6363 C   0  0  0  0  0  0  0  0  0  0  0  0
  150.6651  140.3751  155.2865 N   0  0  0  0  0  0  0  0  0  0  0  0
  151.9572  139.9136  155.5939 C   0  0  0  0  0  0  0  0  0  0  0  0
  152.3469  138.6551  155.3149 C   0  0  0  0  0  0  0  0  0  0  0  0
  151.3891  137.7612  154.6757 C   0  0  0  0  0  0  0  0  0  0  0  0
  151.7294  136.6103  154.4091 O   0  0  0  0  0  0  0  0  0  0  0  0
  150.1462  138.2545  154.4015 N   0  5  0  0  0  0  0  0  0  0  0  0
  149.7627  139.5361  154.6934 C   0  0  0  0  0  0  0  0  0  0  0  0
  148.6346  139.9602  154.4393 O   0  0  0  0  0  0  0  0  0  0  0  0
  150.1906  143.2808  157.5474 N   0  0  0  0  0  0  0  0  0  0  0  0
  150.3103  143.7498  158.9199 C   0  0  0  0  0  0  0  0  0  0  0  0
  151.6811  144.2916  159.2660 C   0  0  0  0  0  0  0  0  0  0  0  0
  152.1741  144.2794  160.6938 C   0  0  0  0  0  0  0  0  0  0  0  0
  151.8326  145.5894  160.0242 C   0  0  0  0  0  0  0  0  0  0  0  0
  149.2958  141.9824  155.3620 H   0  0  0  0  0  0  0  0  0  0  0  0
  150.9330  142.4613  155.0531 H   0  0  0  0  0  0  0  0  0  0  0  0
  152.6021  140.6362  156.0718 H   0  0  0  0  0  0  0  0  0  0  0  0
  153.3419  138.3147  155.5607 H   0  0  0  0  0  0  0  0  0  0  0  0
  149.7733  143.9125  156.8793 H   0  0  0  0  0  0  0  0  0  0  0  0
  149.5639  144.5225  159.1134 H   0  0  0  0  0  0  0  0  0  0  0  0
  150.0875  142.9201  159.5919 H   0  0  0  0  0  0  0  0  0  0  0  0
  152.4364  144.0871  158.5091 H   0  0  0  0  0  0  0  0  0  0  0  0
  151.4943  143.9171  161.4625 H   0  0  0  0  0  0  0  0  0  0  0  0
  153.2266  144.0598  160.8608 H   0  0  0  0  0  0  0  0  0  0  0  0
  152.6560  146.2414  159.7404 H   0  0  0  0  0  0  0  0  0  0  0  0
  150.9254  146.0973  160.3456 H   0  0  0  0  0  0  0  0  0  0  0  0
  1  2  2  0  0  0  0
  2  3  1  0  0  0  0
  2 12  1  0  0  0  0
  3  4  1  0  0  0  0
  3 17  1  0  0  0  0
  3 18  1  0  0  0  0
  4 10  1  0  0  0  0
  4  5  1  0  0  0  0
  5  6  2  0  0  0  0
  5 19  1  0  0  0  0
  6  7  1  0  0  0  0
  6 20  1  0  0  0  0
  7  8  2  0  0  0  0
  7  9  1  0  0  0  0
  9 10  1  0  0  0  0
 10 11  2  0  0  0  0
 12 13  1  0  0  0  0
 12 21  1  0  0  0  0
 13 14  1  0  0  0  0
 13 22  1  0  0  0  0
 13 23  1  0  0  0  0
 14 16  1  0  0  0  0
 14 15  1  0  0  0  0
 14 24  1  0  0  0  0
 15 16  1  0  0  0  0
 15 25  1  0  0  0  0
 15 26  1  0  0  0  0
 16 27  1  0  0  0  0
 16 28  1  0  0  0  0
M  CHG  1   9  -1
M  END
> <s_m_source_file>
AV-unprocessed.smi

> <i_m_source_file_index>
2176

> <i_lp_mmshare_version>
43012

> <i_f3d_flags>
0

> <s_epik_input>
W0NIMl0xW0NIMl1bQ0hdMVtDSDJdW05IXUMoPU8pW0NIMl1uMltjSF1bY0hdYyg9TylbbkhdYzI9Tw==

> <s_epik_cmdline>
J2VwaWtfcHl0aG9uJywgJy1waCcsICc3LjAnLCAnLXRuJywgJzgnLCAnLW1hJywgJzIwMCcsICctbWV0YWxfYmluZGluZycsICctaW1hZScsICc8aW5maWxlLm1hZT4nLCAnLW9tYWUnLCAnPG91dGZpbGUubWFlPic=

> <r_lp_tautomer_probability>
0.999537

> <r_epik_Ionization_Penalty>
3.07884

> <r_epik_Ionization_Penalty_Charging>
2.64713e-08

> <r_epik_Ionization_Penalty_Neutral>
3.07884

> <r_epik_State_Penalty>
3.07787

> <r_epik_Charging_Adjusted_Penalty>
3.07787

> <i_epik_Tot_Q>
-1

> <i_epik_Tot_abs_Q>
1

> <r_epik_Metal_State_Penalty>
0.459857

> <b_epik_Metal_Only>
1

> <s_lp_Force_Field>
OPLS_2005

> <r_lp_Energy>
21.5126

> <b_lp_Chiralities_Consistent>
1

> <s_lp_Variant>
AV-unprocessed.smi:2176-2

> <Gold.Version>
5.8.1

> <Gold.Id.Protein>
6NUR|6NUR_protein|mol2

> <Gold.PLP.Fitness>
41.0036

> <Gold.PLP.PLP>
-35.8240

> <Gold.PLP.part.hbond>
-2.0000

> <Gold.PLP.part.metal>
0.0000

> <Gold.PLP.part.buried>
-3.8405

> <Gold.PLP.part.nonpolar>
-29.7827

> <Gold.PLP.part.repulsive>
1.0509

> <Gold.PLP.ligand.clash>
0.0000

> <Gold.PLP.ligand.torsion>
0.6808

> <Gold.PLP.Chemscore.Hbond>
2.0000

> <Gold.PLP.Chemscore.CHOScore>
0.0000

> <Gold.PLP.Chemscore.Metal>
0.0000

> <Gold.Chemscore.Hbonds>
donor molecule, donor type, donor heavy atom, donor atom, acceptor molecule, acceptor atom, score
      L1  H    12    21       P1  8028  1.00
      P1  H 10752 10765       L1     8  1.00

> <Gold.PLP.Chemscore.Internal.Correction>
0.5411

> <Gold.Rescore>
     Score         DG    S(hbond)    S(metal)    S(lipo)     H(rot)  DE(clash)    DE(int)     intcor
     12.90     -14.97       1.98        0.00      68.08       1.99       0.03       2.05       ----

> <Gold.Chemscore.Fitness>
12.8956

> <Gold.Chemscore.DG>
-14.9666

> <Gold.Chemscore.ZeroCoef>
-5.4800

> <Gold.Chemscore.Hbond>
1.9802

> <Gold.Chemscore.Metal>
0.0000

> <Gold.Chemscore.Lipo>
68.0847

> <Gold.Chemscore.Internal_Hbond>
0.0000

> <Gold.Chemscore.DEClash>
0.0251

> <Gold.Chemscore.DEInternal>
2.0458

> <Gold.Chemscore.Rot>
1.9895

> <Gold.Chemscore.Internal.Correction>
   9.000000E+99

> <Gold.Chemscore.Hbonds>
donor molecule, donor type, donor heavy atom, donor atom, acceptor molecule, acceptor atom, score
      L1  H    12    21       P1  8028  0.94
      P1  H 10752 10765       L1     8  0.94

> <Gold.Chemscore.Hbond.Weighted>
-6.6138

> <Gold.Chemscore.Metal.Weighted>
-0.0000

> <Gold.Chemscore.Lipo.Weighted>
-7.9659

> <Gold.Chemscore.Internal_Hbond.Weighted>
0.0000

> <Gold.Chemscore.DEClash.Weighted>
0.0251

> <Gold.Chemscore.DEInternal.Weighted>
2.0458

> <Gold.Chemscore.Rot.Weighted>
5.0931

> <Gold.Chemscore.Internal.Correction.Weighted>
   9.000000E+99

> <Gold.Protein.RotatedTorsions>
[ 6907 6896 6895 6894 ] final -140.62 input  -60.11 | X-H torsion
[ 7974 7965 7964 7962 ] final   19.11 input  175.53 | X-H torsion
[ 8008 7997 7996 7995 ] final   62.92 input   59.86 | X-H torsion
[ 10167 10162 10161 10158 ] final  160.86 input  -65.29 | X-H torsion
[ 10718 10713 10712 10709 ] final -140.69 input   66.30 | X-H torsion
[ 10763 10752 10751 10750 ] final  167.99 input  -60.55 | X-H torsion
[ 11005 11000 10999 10996 ] final  130.23 input  -57.11 | X-H torsion

> <Gold.Protein.ActiveResidues>
 VAL166  LYS551  ARG553  GLY616  TRP617  ASP618  TYR619  PRO620  LYS621  CYS622 
 ASP623  PHE694  ASN695  SER759  ASP760  ASP761  ALA762  ILE779  LEU786  VAL792 
 PHE793  MET794  SER795  GLU796  ALA797  LYS798  CYS799  TRP800  GLU811  SER814 

> <Gold.Protein.RotatedAtoms>
  151.0631  133.5528  159.2632 H   0  0  0  0  0  0  0  0  0  0  0  0  # atno 6907 bound_to 6896
  151.2495  135.0616  159.9066 H   0  0  0  0  0  0  0  0  0  0  0  0  # atno 6908 bound_to 6896
  152.5400  134.0394  159.8114 H   0  0  0  0  0  0  0  0  0  0  0  0  # atno 6909 bound_to 6896
  146.2161  139.8360  142.8650 H   0  0  0  0  0  0  0  0  0  0  0  0  # atno 7974 bound_to 7965
  155.6219  140.3496  155.4655 H   0  0  0  0  0  0  0  0  0  0  0  0  # atno 8008 bound_to 7997
  156.0072  140.1225  157.0513 H   0  0  0  0  0  0  0  0  0  0  0  0  # atno 8009 bound_to 7997
  154.4268  140.1089  156.5765 H   0  0  0  0  0  0  0  0  0  0  0  0  # atno 8010 bound_to 7997
  139.4844  144.4593  151.8726 H   0  0  0  0  0  0  0  0  0  0  0  0  # atno 10167 bound_to 10162
  156.3253  130.7556  151.1663 H   0  0  0  0  0  0  0  0  0  0  0  0  # atno 10718 bound_to 10713
  154.3619  135.2753  155.2315 H   0  0  0  0  0  0  0  0  0  0  0  0  # atno 10763 bound_to 10752
  154.4499  135.5933  153.6188 H   0  0  0  0  0  0  0  0  0  0  0  0  # atno 10764 bound_to 10752
  152.9843  135.6039  154.3841 H   0  0  0  0  0  0  0  0  0  0  0  0  # atno 10765 bound_to 10752
  139.9660  134.9590  156.9264 H   0  0  0  0  0  0  0  0  0  0  0  0  # atno 11005 bound_to 11000
  145.2948  141.0177  143.3642 LP  0  0  0  0  0  0  0  0  0  0  0  0  # atno 17320 bound_to 7965
  144.9050  139.4600  143.6614 LP  0  0  0  0  0  0  0  0  0  0  0  0  # atno 17321 bound_to 7965
  140.4055  144.2438  150.5891 LP  0  0  0  0  0  0  0  0  0  0  0  0  # atno 17342 bound_to 10162
  140.5017  143.2316  151.8669 LP  0  0  0  0  0  0  0  0  0  0  0  0  # atno 17343 bound_to 10162
  157.7420  131.0496  150.5057 LP  0  0  0  0  0  0  0  0  0  0  0  0  # atno 17370 bound_to 10713
  156.5215  130.4163  149.6248 LP  0  0  0  0  0  0  0  0  0  0  0  0  # atno 17371 bound_to 10713
  140.5395  134.0734  155.7337 LP  0  0  0  0  0  0  0  0  0  0  0  0  # atno 17394 bound_to 11000
  141.1340  133.9254  157.2475 LP  0  0  0  0  0  0  0  0  0  0  0  0  # atno 17395 bound_to 11000

$$$$
