AV-unprocessed.smi:1824|AV-procd|sdf|7402|dock5
  -GOLD-   22720 9 73D 1   1.00000     0.00000
 Structure written by MMmdl.
 45 47  0  0  0  0  0  0  0  0  2 V2000
  144.1092  139.6997  157.0676 C   0  0  0  0  0  0  0  0  0  0  0  0
  145.2476  140.5005  156.4265 C   0  0  1  0  0  0  0  0  0  0  0  0
  146.1771  139.6058  155.5783 C   0  0  0  0  0  0  0  0  0  0  0  0
  147.1984  140.4046  154.8534 N   0  3  2  0  0  0  0  0  0  0  0  0
  148.3534  140.8464  155.6816 C   0  0  0  0  0  0  0  0  0  0  0  0
  149.6920  140.7455  154.9237 C   0  0  1  0  0  0  0  0  0  0  0  0
  149.4517  140.9444  153.5432 O   0  0  0  0  0  0  0  0  0  0  0  0
  150.7143  141.7876  155.4167 C   0  0  0  0  0  0  0  0  0  0  0  0
  151.3320  141.4033  156.6733 N   0  0  0  0  0  0  0  0  0  0  0  0
  151.7432  140.1732  157.0374 C   0  0  0  0  0  0  0  0  0  0  0  0
  152.2803  140.0435  158.2471 N   0  0  0  0  0  0  0  0  0  0  0  0
  152.2138  141.3414  158.7236 C   0  0  0  0  0  0  0  0  0  0  0  0
  152.6236  141.8869  159.9611 C   0  0  0  0  0  0  0  0  0  0  0  0
  152.4554  143.2618  160.2274 C   0  0  0  0  0  0  0  0  0  0  0  0
  152.8560  143.7685  161.4174 F   0  0  0  0  0  0  0  0  0  0  0  0
  151.8738  144.1105  159.2619 C   0  0  0  0  0  0  0  0  0  0  0  0
  151.7162  145.4293  159.5251 F   0  0  0  0  0  0  0  0  0  0  0  0
  151.4552  143.5893  158.0226 C   0  0  0  0  0  0  0  0  0  0  0  0
  151.6267  142.2175  157.7613 C   0  0  0  0  0  0  0  0  0  0  0  0
  146.5546  141.5016  154.0904 C   0  0  0  0  0  0  0  0  0  0  0  0
  145.6389  142.3512  154.9945 C   0  0  1  0  0  0  0  0  0  0  0  0
  144.8968  143.4367  154.2069 C   0  0  0  0  0  0  0  0  0  0  0  0
  144.6687  141.5000  155.5944 O   0  0  0  0  0  0  0  0  0  0  0  0
  144.4976  138.9218  157.7254 H   0  0  0  0  0  0  0  0  0  0  0  0
  143.4885  139.2195  156.3105 H   0  0  0  0  0  0  0  0  0  0  0  0
  143.4651  140.3473  157.6631 H   0  0  0  0  0  0  0  0  0  0  0  0
  145.8123  140.9837  157.2247 H   0  0  0  0  0  0  0  0  0  0  0  0
  146.6428  138.8403  156.1976 H   0  0  0  0  0  0  0  0  0  0  0  0
  145.5829  139.0723  154.8349 H   0  0  0  0  0  0  0  0  0  0  0  0
  148.2105  141.8837  155.9880 H   0  0  0  0  0  0  0  0  0  0  0  0
  148.3962  140.2660  156.6034 H   0  0  0  0  0  0  0  0  0  0  0  0
  150.1231  139.7529  155.0513 H   0  0  0  0  0  0  0  0  0  0  0  0
  149.8677  140.2477  153.0583 H   0  0  0  0  0  0  0  0  0  0  0  0
  151.4983  141.9406  154.6734 H   0  0  0  0  0  0  0  0  0  0  0  0
  150.2288  142.7538  155.5603 H   0  0  0  0  0  0  0  0  0  0  0  0
  151.6379  139.3235  156.3788 H   0  0  0  0  0  0  0  0  0  0  0  0
  153.0694  141.2467  160.7079 H   0  0  0  0  0  0  0  0  0  0  0  0
  151.0097  144.2371  157.2826 H   0  0  0  0  0  0  0  0  0  0  0  0
  147.3072  142.1216  153.6018 H   0  0  0  0  0  0  0  0  0  0  0  0
  145.9627  141.0558  153.2897 H   0  0  0  0  0  0  0  0  0  0  0  0
  146.2278  142.8349  155.7756 H   0  0  0  0  0  0  0  0  0  0  0  0
  145.5966  144.1245  153.7316 H   0  0  0  0  0  0  0  0  0  0  0  0
  144.2511  144.0214  154.8626 H   0  0  0  0  0  0  0  0  0  0  0  0
  144.2714  143.0025  153.4264 H   0  0  0  0  0  0  0  0  0  0  0  0
  147.6031  139.7912  154.1596 H   0  0  0  0  0  0  0  0  0  0  0  0
  1  2  1  0  0  0  0
  1 24  1  0  0  0  0
  1 25  1  0  0  0  0
  1 26  1  0  0  0  0
  2 23  1  0  0  0  0
  2  3  1  0  0  0  0
  2 27  1  0  0  0  0
  3  4  1  0  0  0  0
  3 28  1  0  0  0  0
  3 29  1  0  0  0  0
  4  5  1  0  0  0  0
  4 20  1  0  0  0  0
  4 45  1  0  0  0  0
  5  6  1  0  0  0  0
  5 30  1  0  0  0  0
  5 31  1  0  0  0  0
  6  7  1  0  0  0  0
  6  8  1  0  0  0  0
  6 32  1  0  0  0  0
  7 33  1  0  0  0  0
  8  9  1  0  0  0  0
  8 34  1  0  0  0  0
  8 35  1  0  0  0  0
  9 19  1  0  0  0  0
  9 10  1  0  0  0  0
 10 11  2  0  0  0  0
 10 36  1  0  0  0  0
 11 12  1  0  0  0  0
 12 19  2  0  0  0  0
 12 13  1  0  0  0  0
 13 14  2  0  0  0  0
 13 37  1  0  0  0  0
 14 15  1  0  0  0  0
 14 16  1  0  0  0  0
 16 17  1  0  0  0  0
 16 18  2  0  0  0  0
 18 19  1  0  0  0  0
 18 38  1  0  0  0  0
 20 21  1  0  0  0  0
 20 39  1  0  0  0  0
 20 40  1  0  0  0  0
 21 22  1  0  0  0  0
 21 23  1  0  0  0  0
 21 41  1  0  0  0  0
 22 42  1  0  0  0  0
 22 43  1  0  0  0  0
 22 44  1  0  0  0  0
M  CHG  1   4   1
M  END
> <s_m_source_file>
AV-unprocessed.smi

> <i_m_source_file_index>
1824

> <i_lp_mmshare_version>
43012

> <i_f3d_flags>
0

> <s_epik_input>
W0NIM11bQ0BASF0xW0NIMl1OKFtDSDJdW0NASF0oTzEpW0NIM10pW0NIMl1bQ0BIXShbT0hdKVtDSDJdbihbY0hdbjIpYyhjMjMpW2NIXWMoRiljKEYpW2NIXTM=

> <s_epik_cmdline>
J2VwaWtfcHl0aG9uJywgJy1waCcsICc3LjAnLCAnLXRuJywgJzgnLCAnLW1hJywgJzIwMCcsICctbWV0YWxfYmluZGluZycsICctaW1hZScsICc8aW5maWxlLm1hZT4nLCAnLW9tYWUnLCAnPG91dGZpbGUubWFlPic=

> <r_epik_Ionization_Penalty>
0.61967

> <r_epik_Ionization_Penalty_Charging>
0.608065

> <r_epik_Ionization_Penalty_Neutral>
0.0116057

> <r_epik_State_Penalty>
0.664205

> <r_epik_Charging_Adjusted_Penalty>
1.27227

> <i_epik_Tot_Q>
1

> <i_epik_Tot_abs_Q>
1

> <r_epik_Metal_State_Penalty>
0.654947

> <b_epik_Metal_Only>
0

> <s_lp_Force_Field>
OPLS_2005

> <r_lp_Energy>
21.9473

> <b_lp_Chiralities_Consistent>
1

> <s_lp_Variant>
AV-unprocessed.smi:1824-10

> <Gold.Version>
5.8.1

> <Gold.Id.Protein>
6NUR|6NUR_protein|mol2

> <Gold.PLP.Fitness>
49.9232

> <Gold.PLP.PLP>
-48.2370

> <Gold.PLP.part.hbond>
-3.0000

> <Gold.PLP.part.metal>
0.0000

> <Gold.PLP.part.buried>
-6.1842

> <Gold.PLP.part.nonpolar>
-38.5869

> <Gold.PLP.part.repulsive>
0.1862

> <Gold.PLP.ligand.clash>
0.0000

> <Gold.PLP.ligand.torsion>
1.2701

> <Gold.PLP.Chemscore.Hbond>
1.3840

> <Gold.PLP.Chemscore.CHOScore>
0.0000

> <Gold.PLP.Chemscore.Metal>
0.0000

> <Gold.Chemscore.Hbonds>
donor molecule, donor type, donor heavy atom, donor atom, acceptor molecule, acceptor atom, score
      L1  H     7    33       P1  7957  0.43
      P1  H  8011  8017       L1     7  0.95

> <Gold.PLP.Chemscore.Internal.Correction>
0.0745

> <Gold.Rescore>
     Score         DG    S(hbond)    S(metal)    S(lipo)     H(rot)  DE(clash)    DE(int)     intcor
     11.00     -14.15       0.87        0.00     100.04       2.33       1.74       1.41       ----

> <Gold.Chemscore.Fitness>
11.0023

> <Gold.Chemscore.DG>
-14.1525

> <Gold.Chemscore.ZeroCoef>
-5.4800

> <Gold.Chemscore.Hbond>
0.8744

> <Gold.Chemscore.Metal>
0.0000

> <Gold.Chemscore.Lipo>
100.0353

> <Gold.Chemscore.Internal_Hbond>
0.0000

> <Gold.Chemscore.DEClash>
1.7368

> <Gold.Chemscore.DEInternal>
1.4133

> <Gold.Chemscore.Rot>
2.3251

> <Gold.Chemscore.Internal.Correction>
   9.000000E+99

> <Gold.Chemscore.Hbonds>
donor molecule, donor type, donor heavy atom, donor atom, acceptor molecule, acceptor atom, score
      L1  H     7    33       P1  7957  0.44
      P1  H  8011  8017       L1     7  0.21

> <Gold.Chemscore.Hbond.Weighted>
-2.9207

> <Gold.Chemscore.Metal.Weighted>
-0.0000

> <Gold.Chemscore.Lipo.Weighted>
-11.7041

> <Gold.Chemscore.Internal_Hbond.Weighted>
0.0000

> <Gold.Chemscore.DEClash.Weighted>
1.7368

> <Gold.Chemscore.DEInternal.Weighted>
1.4133

> <Gold.Chemscore.Rot.Weighted>
5.9523

> <Gold.Chemscore.Internal.Correction.Weighted>
   9.000000E+99

> <Gold.Protein.RotatedTorsions>
[ 6907 6896 6895 6894 ] final  164.02 input  -60.11 | X-H torsion
[ 7974 7965 7964 7962 ] final   49.66 input  175.53 | X-H torsion
[ 8008 7997 7996 7995 ] final  -81.45 input   59.86 | X-H torsion
[ 10167 10162 10161 10158 ] final -162.06 input  -65.29 | X-H torsion
[ 10718 10713 10712 10709 ] final  -60.37 input   66.30 | X-H torsion
[ 10763 10752 10751 10750 ] final  -11.43 input  -60.55 | X-H torsion
[ 11005 11000 10999 10996 ] final -118.21 input  -57.11 | X-H torsion

> <Gold.Protein.ActiveResidues>
 VAL166  LYS551  ARG553  GLY616  TRP617  ASP618  TYR619  PRO620  LYS621  CYS622 
 ASP623  PHE694  ASN695  SER759  ASP760  ASP761  ALA762  ILE779  LEU786  VAL792 
 PHE793  MET794  SER795  GLU796  ALA797  LYS798  CYS799  TRP800  GLU811  SER814 

> <Gold.Protein.RotatedAtoms>
  151.9163  133.3574  159.3880 H   0  0  0  0  0  0  0  0  0  0  0  0  # atno 6907 bound_to 6896
  150.7047  134.4681  159.5421 H   0  0  0  0  0  0  0  0  0  0  0  0  # atno 6908 bound_to 6896
  152.2296  134.8335  160.0526 H   0  0  0  0  0  0  0  0  0  0  0  0  # atno 6909 bound_to 6896
  146.0087  139.4519  142.9969 H   0  0  0  0  0  0  0  0  0  0  0  0  # atno 7974 bound_to 7965
  154.5985  140.0647  156.9336 H   0  0  0  0  0  0  0  0  0  0  0  0  # atno 8008 bound_to 7997
  155.2173  140.3327  155.4302 H   0  0  0  0  0  0  0  0  0  0  0  0  # atno 8009 bound_to 7997
  156.2303  140.1837  156.7244 H   0  0  0  0  0  0  0  0  0  0  0  0  # atno 8010 bound_to 7997
  139.6419  144.0243  152.2098 H   0  0  0  0  0  0  0  0  0  0  0  0  # atno 10167 bound_to 10162
  156.0995  130.4188  150.0844 H   0  0  0  0  0  0  0  0  0  0  0  0  # atno 10718 bound_to 10713
  153.4837  135.7017  153.5923 H   0  0  0  0  0  0  0  0  0  0  0  0  # atno 10763 bound_to 10752
  153.4126  135.3845  155.2060 H   0  0  0  0  0  0  0  0  0  0  0  0  # atno 10764 bound_to 10752
  154.8720  135.3908  154.4289 H   0  0  0  0  0  0  0  0  0  0  0  0  # atno 10765 bound_to 10752
  141.0302  133.9993  157.3155 H   0  0  0  0  0  0  0  0  0  0  0  0  # atno 11005 bound_to 11000
  145.7375  141.0020  143.1319 LP  0  0  0  0  0  0  0  0  0  0  0  0  # atno 17320 bound_to 7965
  144.6945  139.9059  143.7461 LP  0  0  0  0  0  0  0  0  0  0  0  0  # atno 17321 bound_to 7965
  139.9935  144.6345  150.7793 LP  0  0  0  0  0  0  0  0  0  0  0  0  # atno 17342 bound_to 10162
  140.7495  143.2940  151.3254 LP  0  0  0  0  0  0  0  0  0  0  0  0  # atno 17343 bound_to 10162
  156.8835  130.9564  151.3597 LP  0  0  0  0  0  0  0  0  0  0  0  0  # atno 17370 bound_to 10713
  157.6163  130.8621  149.9034 LP  0  0  0  0  0  0  0  0  0  0  0  0  # atno 17371 bound_to 10713
  139.9202  135.0200  156.8037 LP  0  0  0  0  0  0  0  0  0  0  0  0  # atno 17394 bound_to 11000
  140.6420  133.9809  155.7712 LP  0  0  0  0  0  0  0  0  0  0  0  0  # atno 17395 bound_to 11000

$$$$
