AV-unprocessed.smi:3234|AV-procd|sdf|12349|dock9
  -GOLD-   2272018213D 1   1.00000     0.00000
 Structure written by MMmdl.
 37 39  0  0  0  0  0  0  0  0  2 V2000
  144.2879  136.4181  151.5655 O   0  0  0  0  0  0  0  0  0  0  0  0
  145.4964  136.2428  151.7157 C   0  0  0  0  0  0  0  0  0  0  0  0
  146.1970  135.1782  151.2866 N   0  0  0  0  0  0  0  0  0  0  0  0
  145.7490  134.0170  150.5972 C   0  0  0  0  0  0  0  0  0  0  0  0
  144.3917  133.9753  150.2160 C   0  0  0  0  0  0  0  0  0  0  0  0
  143.9126  132.8464  149.5222 C   0  0  0  0  0  0  0  0  0  0  0  0
  144.6894  131.7929  149.1951 N   0  0  0  0  0  0  0  0  0  0  0  0
  145.9899  131.8361  149.5530 C   0  0  0  0  0  0  0  0  0  0  0  0
  146.5698  132.9167  150.2479 C   0  0  0  0  0  0  0  0  0  0  0  0
  146.2921  137.1261  152.3360 N   0  0  0  0  0  0  0  0  0  0  0  0
  145.8415  138.3779  152.9364 C   0  0  1  0  0  0  0  0  0  0  0  0
  145.9309  138.3880  154.4624 C   0  0  0  0  0  0  0  0  0  0  0  0
  146.1472  139.8669  154.8276 C   0  0  0  0  0  0  0  0  0  0  0  0
  146.3844  140.5936  153.5581 N   0  3  1  0  0  0  0  0  0  0  0  0
  147.3756  141.6857  153.6556 C   0  0  0  0  0  0  0  0  0  0  0  0
  148.5949  141.3233  154.4692 C   0  0  0  0  0  0  0  0  0  0  0  0
  147.5354  142.2317  155.0543 C   0  0  0  0  0  0  0  0  0  0  0  0
  146.7074  139.5753  152.5442 C   0  0  0  0  0  0  0  0  0  0  0  0
  147.1915  135.2120  151.4559 H   0  0  0  0  0  0  0  0  0  0  0  0
  143.7233  134.7911  150.4498 H   0  0  0  0  0  0  0  0  0  0  0  0
  142.8770  132.7897  149.2210 H   0  0  0  0  0  0  0  0  0  0  0  0
  146.5904  130.9832  149.2733 H   0  0  0  0  0  0  0  0  0  0  0  0
  147.6210  132.8748  150.4836 H   0  0  0  0  0  0  0  0  0  0  0  0
  147.2749  136.9084  152.4146 H   0  0  0  0  0  0  0  0  0  0  0  0
  144.8069  138.5702  152.6443 H   0  0  0  0  0  0  0  0  0  0  0  0
  145.0408  137.9676  154.9316 H   0  0  0  0  0  0  0  0  0  0  0  0
  146.7889  137.8032  154.7982 H   0  0  0  0  0  0  0  0  0  0  0  0
  145.2748  140.2890  155.3268 H   0  0  0  0  0  0  0  0  0  0  0  0
  146.9967  139.9656  155.5053 H   0  0  0  0  0  0  0  0  0  0  0  0
  147.4637  142.3415  152.7912 H   0  0  0  0  0  0  0  0  0  0  0  0
  148.6676  140.3129  154.8677 H   0  0  0  0  0  0  0  0  0  0  0  0
  149.5412  141.7800  154.1862 H   0  0  0  0  0  0  0  0  0  0  0  0
  147.7844  143.2861  155.1567 H   0  0  0  0  0  0  0  0  0  0  0  0
  146.9035  141.8249  155.8419 H   0  0  0  0  0  0  0  0  0  0  0  0
  147.7668  139.3176  152.6018 H   0  0  0  0  0  0  0  0  0  0  0  0
  146.4980  139.9373  151.5370 H   0  0  0  0  0  0  0  0  0  0  0  0
  145.5000  140.9996  153.2870 H   0  0  0  0  0  0  0  0  0  0  0  0
  1  2  2  0  0  0  0
  2  3  1  0  0  0  0
  2 10  1  0  0  0  0
  3  4  1  0  0  0  0
  3 19  1  0  0  0  0
  4  9  1  0  0  0  0
  4  5  2  0  0  0  0
  5  6  1  0  0  0  0
  5 20  1  0  0  0  0
  6  7  2  0  0  0  0
  6 21  1  0  0  0  0
  7  8  1  0  0  0  0
  8  9  2  0  0  0  0
  8 22  1  0  0  0  0
  9 23  1  0  0  0  0
 10 11  1  0  0  0  0
 10 24  1  0  0  0  0
 11 18  1  0  0  0  0
 11 12  1  0  0  0  0
 11 25  1  0  0  0  0
 12 13  1  0  0  0  0
 12 26  1  0  0  0  0
 12 27  1  0  0  0  0
 13 14  1  0  0  0  0
 13 28  1  0  0  0  0
 13 29  1  0  0  0  0
 14 15  1  0  0  0  0
 14 18  1  0  0  0  0
 14 37  1  0  0  0  0
 15 17  1  0  0  0  0
 15 16  1  0  0  0  0
 15 30  1  0  0  0  0
 16 17  1  0  0  0  0
 16 31  1  0  0  0  0
 16 32  1  0  0  0  0
 17 33  1  0  0  0  0
 17 34  1  0  0  0  0
 18 35  1  0  0  0  0
 18 36  1  0  0  0  0
M  CHG  1  14   1
M  END
> <s_m_source_file>
AV-unprocessed.smi

> <i_m_source_file_index>
3234

> <i_lp_mmshare_version>
43012

> <i_f3d_flags>
0

> <s_epik_input>
W2NIXTFbY0hdbltjSF1bY0hdYzFbTkhdQyg9TylbTkhdW0NAQEhdMltDSDJdW0NIMl1OKFtDSDJdMilbQ0hdM1tDSDJdW0NIMl0z

> <s_epik_cmdline>
J2VwaWtfcHl0aG9uJywgJy1waCcsICc3LjAnLCAnLXRuJywgJzgnLCAnLW1hJywgJzIwMCcsICctbWV0YWxfYmluZGluZycsICctaW1hZScsICc8aW5maWxlLm1hZT4nLCAnLW9tYWUnLCAnPG91dGZpbGUubWFlPic=

> <r_epik_Ionization_Penalty>
0.0934328

> <r_epik_Ionization_Penalty_Charging>
0.000606352

> <r_epik_Ionization_Penalty_Neutral>
0.0928265

> <r_epik_State_Penalty>
0.0830811

> <r_epik_Charging_Adjusted_Penalty>
0.0836875

> <i_epik_Tot_Q>
1

> <i_epik_Tot_abs_Q>
1

> <r_epik_Metal_State_Penalty>
0.0724491

> <b_epik_Metal_Only>
0

> <s_lp_Force_Field>
OPLS_2005

> <r_lp_Energy>
41.3186

> <b_lp_Chiralities_Consistent>
1

> <s_lp_Variant>
AV-unprocessed.smi:3234-2

> <Gold.Version>
5.8.1

> <Gold.Id.Protein>
6NUR|6NUR_protein|mol2

> <Gold.PLP.Fitness>
45.6378

> <Gold.PLP.PLP>
-28.7573

> <Gold.PLP.part.hbond>
-4.0000

> <Gold.PLP.part.metal>
0.0000

> <Gold.PLP.part.buried>
1.8435

> <Gold.PLP.part.nonpolar>
-28.1002

> <Gold.PLP.part.repulsive>
1.3743

> <Gold.PLP.ligand.clash>
0.0000

> <Gold.PLP.ligand.torsion>
0.7459

> <Gold.PLP.Chemscore.Hbond>
3.9468

> <Gold.PLP.Chemscore.CHOScore>
1.7563

> <Gold.PLP.Chemscore.Metal>
0.0000

> <Gold.Chemscore.Hbonds>
donor molecule, donor type, donor heavy atom, donor atom, acceptor molecule, acceptor atom, score
      L1  H     3    19       P1  7948  1.00
      L1  H    10    24       P1  7948  1.00
      L1  H    14    37       P1 10175  1.63
      P1  H 10785 10796       L1     7  0.16
      L1  C     6    21       P1 10186  1.00
      L1  C     8    22       P1 10747  0.70

> <Gold.PLP.Chemscore.Internal.Correction>
1.2632

> <Gold.Rescore>
     Score         DG    S(hbond)    S(metal)    S(lipo)     H(rot)  DE(clash)    DE(int)     intcor
     17.69     -20.70       2.52        0.00      84.75       1.21       0.88       2.13       ----

> <Gold.Chemscore.Fitness>
17.6880

> <Gold.Chemscore.DG>
-20.7033

> <Gold.Chemscore.ZeroCoef>
-5.4800

> <Gold.Chemscore.Hbond>
2.5170

> <Gold.Chemscore.Metal>
0.0000

> <Gold.Chemscore.Lipo>
84.7528

> <Gold.Chemscore.Internal_Hbond>
0.0000

> <Gold.Chemscore.DEClash>
0.8849

> <Gold.Chemscore.DEInternal>
2.1304

> <Gold.Chemscore.Rot>
1.2108

> <Gold.Chemscore.Internal.Correction>
   9.000000E+99

> <Gold.Chemscore.Hbonds>
donor molecule, donor type, donor heavy atom, donor atom, acceptor molecule, acceptor atom, score
      L1  H     3    19       P1  7948  0.80
      L1  H    10    24       P1  7948  0.98
      L1  H    14    37       P1 10175  0.38
      P1  H 10785 10796       L1     7  0.08

> <Gold.Chemscore.Hbond.Weighted>
-8.4068

> <Gold.Chemscore.Metal.Weighted>
-0.0000

> <Gold.Chemscore.Lipo.Weighted>
-9.9161

> <Gold.Chemscore.Internal_Hbond.Weighted>
0.0000

> <Gold.Chemscore.DEClash.Weighted>
0.8849

> <Gold.Chemscore.DEInternal.Weighted>
2.1304

> <Gold.Chemscore.Rot.Weighted>
3.0996

> <Gold.Chemscore.Internal.Correction.Weighted>
   9.000000E+99

> <Gold.Protein.RotatedTorsions>
[ 6907 6896 6895 6894 ] final  -45.41 input  -60.11 | X-H torsion
[ 7974 7965 7964 7962 ] final  111.94 input  175.53 | X-H torsion
[ 8008 7997 7996 7995 ] final  -21.87 input   59.86 | X-H torsion
[ 10167 10162 10161 10158 ] final   16.64 input  -65.29 | X-H torsion
[ 10718 10713 10712 10709 ] final   28.02 input   66.30 | X-H torsion
[ 10763 10752 10751 10750 ] final   21.27 input  -60.55 | X-H torsion
[ 11005 11000 10999 10996 ] final -142.96 input  -57.11 | X-H torsion

> <Gold.Protein.ActiveResidues>
 VAL166  LYS551  ARG553  GLY616  TRP617  ASP618  TYR619  PRO620  LYS621  CYS622 
 ASP623  PHE694  ASN695  SER759  ASP760  ASP761  ALA762  ILE779  LEU786  VAL792 
 PHE793  MET794  SER795  GLU796  ALA797  LYS798  CYS799  TRP800  GLU811  SER814 

> <Gold.Protein.RotatedAtoms>
  150.9222  134.8640  159.7496 H   0  0  0  0  0  0  0  0  0  0  0  0  # atno 6907 bound_to 6896
  152.4998  134.4201  159.9487 H   0  0  0  0  0  0  0  0  0  0  0  0  # atno 6908 bound_to 6896
  151.4234  133.3652  159.2794 H   0  0  0  0  0  0  0  0  0  0  0  0  # atno 6909 bound_to 6896
  145.2358  139.2800  143.4144 H   0  0  0  0  0  0  0  0  0  0  0  0  # atno 7974 bound_to 7965
  154.4678  140.2023  156.0072 H   0  0  0  0  0  0  0  0  0  0  0  0  # atno 8008 bound_to 7997
  156.0959  140.3251  155.7847 H   0  0  0  0  0  0  0  0  0  0  0  0  # atno 8009 bound_to 7997
  155.4880  140.0544  157.2948 H   0  0  0  0  0  0  0  0  0  0  0  0  # atno 8010 bound_to 7997
  140.5783  143.9030  150.6768 H   0  0  0  0  0  0  0  0  0  0  0  0  # atno 10167 bound_to 10162
  157.2279  130.7010  149.6300 H   0  0  0  0  0  0  0  0  0  0  0  0  # atno 10718 bound_to 10713
  153.1009  135.6672  153.9675 H   0  0  0  0  0  0  0  0  0  0  0  0  # atno 10763 bound_to 10752
  153.9245  135.3011  155.3448 H   0  0  0  0  0  0  0  0  0  0  0  0  # atno 10764 bound_to 10752
  154.7430  135.5071  153.9230 H   0  0  0  0  0  0  0  0  0  0  0  0  # atno 10765 bound_to 10752
  140.8173  134.2674  157.4916 H   0  0  0  0  0  0  0  0  0  0  0  0  # atno 11005 bound_to 11000
  146.3341  140.2706  142.8606 LP  0  0  0  0  0  0  0  0  0  0  0  0  # atno 17320 bound_to 7965
  144.9634  140.8298  143.5499 LP  0  0  0  0  0  0  0  0  0  0  0  0  # atno 17321 bound_to 7965
  140.2522  143.3584  152.1395 LP  0  0  0  0  0  0  0  0  0  0  0  0  # atno 17342 bound_to 10162
  139.5155  144.6964  151.5618 LP  0  0  0  0  0  0  0  0  0  0  0  0  # atno 17343 bound_to 10162
  155.9677  130.4498  150.5674 LP  0  0  0  0  0  0  0  0  0  0  0  0  # atno 17370 bound_to 10713
  157.3509  131.0733  151.1714 LP  0  0  0  0  0  0  0  0  0  0  0  0  # atno 17371 bound_to 10713
  139.8710  134.9516  156.4089 LP  0  0  0  0  0  0  0  0  0  0  0  0  # atno 17394 bound_to 11000
  140.9136  133.7694  155.9821 LP  0  0  0  0  0  0  0  0  0  0  0  0  # atno 17395 bound_to 11000

$$$$
