AV-unprocessed.smi:1827|AV-procd|sdf|7422|dock2
  -GOLD-   22720 9103D 1   1.00000     0.00000
 Structure written by MMmdl.
 43 44  0  0  0  0  0  0  0  0  3 V2000
  155.4340  139.7651  159.4967 C   0  0  0  0  0  0  0  0  0  0  0  0
  154.8833  140.6237  160.6014 C   0  0  0  0  0  0  0  0  0  0  0  0
  155.4439  140.5549  161.8021 N   0  0  0  0  0  0  0  0  0  0  0  0
  154.7846  141.4724  162.5416 N   0  0  0  0  0  0  0  0  0  0  0  0
  153.8031  142.1389  161.8431 C   0  0  0  0  0  0  0  0  0  0  0  0
  152.9621  143.2055  162.4614 C   0  0  0  0  0  0  0  0  0  0  0  0
  153.8271  141.5876  160.5949 C   0  0  0  0  0  0  0  0  0  0  0  0
  152.9930  141.9943  159.5236 N   0  0  0  0  0  0  0  0  0  0  0  0
  151.9463  141.3225  159.0204 C   0  0  0  0  0  0  0  0  0  0  0  0
  151.5333  140.2427  159.4424 O   0  0  0  0  0  0  0  0  0  0  0  0
  151.3808  141.9868  158.0024 N   0  0  0  0  0  0  0  0  0  0  0  0
  150.2152  141.5334  157.2491 C   0  0  2  0  0  0  0  0  0  0  0  0
  150.4426  141.6914  155.7342 C   0  0  0  0  0  0  0  0  0  0  0  0
  149.1816  141.3111  154.9415 C   0  0  0  0  0  0  0  0  0  0  0  0
  148.0097  142.1145  155.3812 N   0  3  1  0  0  0  0  0  0  0  0  0
  146.7969  141.8869  154.5543 C   0  0  0  0  0  0  0  0  0  0  0  0
  146.4490  140.3955  154.4938 C   0  0  0  0  0  0  0  0  0  0  0  0
  146.4205  139.9251  153.2304 N   0  5  0  0  0  0  0  0  0  0  0  0
  146.2356  139.7781  155.5346 O   0  0  0  0  0  0  0  0  0  0  0  0
  147.7457  141.9498  156.8329 C   0  0  0  0  0  0  0  0  0  0  0  0
  148.9763  142.3407  157.6689 C   0  0  0  0  0  0  0  0  0  0  0  0
  155.0194  141.6360  163.5102 H   0  0  0  0  0  0  0  0  0  0  0  0
  155.3617  140.2679  158.5323 H   0  0  0  0  0  0  0  0  0  0  0  0
  154.8923  138.8220  159.4272 H   0  0  0  0  0  0  0  0  0  0  0  0
  156.4861  139.5299  159.6611 H   0  0  0  0  0  0  0  0  0  0  0  0
  152.4375  143.7833  161.7004 H   0  0  0  0  0  0  0  0  0  0  0  0
  153.5743  143.8952  163.0428 H   0  0  0  0  0  0  0  0  0  0  0  0
  152.2169  142.7706  163.1274 H   0  0  0  0  0  0  0  0  0  0  0  0
  153.1497  142.9264  159.1696 H   0  0  0  0  0  0  0  0  0  0  0  0
  151.7858  142.8700  157.7279 H   0  0  0  0  0  0  0  0  0  0  0  0
  150.0319  140.4809  157.4753 H   0  0  0  0  0  0  0  0  0  0  0  0
  150.7167  142.7223  155.5047 H   0  0  0  0  0  0  0  0  0  0  0  0
  151.2783  141.0704  155.4093 H   0  0  0  0  0  0  0  0  0  0  0  0
  149.3695  141.4674  153.8789 H   0  0  0  0  0  0  0  0  0  0  0  0
  148.9648  140.2494  155.0698 H   0  0  0  0  0  0  0  0  0  0  0  0
  145.9566  142.4638  154.9441 H   0  0  0  0  0  0  0  0  0  0  0  0
  146.9630  142.2314  153.5320 H   0  0  0  0  0  0  0  0  0  0  0  0
  145.5376  139.9735  152.7075 H   0  0  0  0  0  0  0  0  0  0  0  0
  146.9022  142.5758  157.1265 H   0  0  0  0  0  0  0  0  0  0  0  0
  147.4617  140.9163  157.0375 H   0  0  0  0  0  0  0  0  0  0  0  0
  148.7672  142.1824  158.7276 H   0  0  0  0  0  0  0  0  0  0  0  0
  149.1695  143.4077  157.5476 H   0  0  0  0  0  0  0  0  0  0  0  0
  148.2471  143.0870  155.2409 H   0  0  0  0  0  0  0  0  0  0  0  0
  1  2  1  0  0  0  0
  1 23  1  0  0  0  0
  1 24  1  0  0  0  0
  1 25  1  0  0  0  0
  2  7  1  0  0  0  0
  2  3  2  0  0  0  0
  3  4  1  0  0  0  0
  4 22  1  0  0  0  0
  4  5  1  0  0  0  0
  5  6  1  0  0  0  0
  5  7  2  0  0  0  0
  6 26  1  0  0  0  0
  6 27  1  0  0  0  0
  6 28  1  0  0  0  0
  7  8  1  0  0  0  0
  8  9  1  0  0  0  0
  8 29  1  0  0  0  0
  9 10  2  0  0  0  0
  9 11  1  0  0  0  0
 11 12  1  0  0  0  0
 11 30  1  0  0  0  0
 12 21  1  0  0  0  0
 12 13  1  0  0  0  0
 12 31  1  0  0  0  0
 13 14  1  0  0  0  0
 13 32  1  0  0  0  0
 13 33  1  0  0  0  0
 14 15  1  0  0  0  0
 14 34  1  0  0  0  0
 14 35  1  0  0  0  0
 15 16  1  0  0  0  0
 15 20  1  0  0  0  0
 15 43  1  0  0  0  0
 16 17  1  0  0  0  0
 16 36  1  0  0  0  0
 16 37  1  0  0  0  0
 17 18  1  0  0  0  0
 17 19  2  0  0  0  0
 18 38  1  0  0  0  0
 20 21  1  0  0  0  0
 20 39  1  0  0  0  0
 20 40  1  0  0  0  0
 21 41  1  0  0  0  0
 21 42  1  0  0  0  0
M  CHG  1  15   1
M  CHG  1  18  -1
M  END
> <s_m_source_file>
AV-unprocessed.smi

> <i_m_source_file_index>
1827

> <i_lp_mmshare_version>
43012

> <i_f3d_flags>
0

> <s_epik_input>
W0NIM11jMW5bbkhdYyhbQ0gzXSljMVtOSF1DKD1PKVtOSF1bQ0hdMltDSDJdW0NIMl1OKFtDSDJdW0NIMl0yKVtDSDJdQyg9TylbTkgyXQ==

> <s_epik_cmdline>
J2VwaWtfcHl0aG9uJywgJy1waCcsICc3LjAnLCAnLXRuJywgJzgnLCAnLW1hJywgJzIwMCcsICctbWV0YWxfYmluZGluZycsICctaW1hZScsICc8aW5maWxlLm1hZT4nLCAnLW9tYWUnLCAnPG91dGZpbGUubWFlPic=

> <r_lp_tautomer_probability>
0.5

> <r_epik_Ionization_Penalty>
5.72915

> <r_epik_Ionization_Penalty_Charging>
5.7288

> <r_epik_Ionization_Penalty_Neutral>
0.000348152

> <r_epik_State_Penalty>
6.54882

> <r_epik_Charging_Adjusted_Penalty>
12.2776

> <i_epik_Tot_Q>
0

> <i_epik_Tot_abs_Q>
2

> <r_epik_Metal_State_Penalty>
2.51333

> <b_epik_Metal_Only>
1

> <s_lp_Force_Field>
OPLS_2005

> <r_lp_Energy>
10.1727

> <b_lp_Chiralities_Consistent>
1

> <s_lp_Variant>
AV-unprocessed.smi:1827-4

> <Gold.Version>
5.8.1

> <Gold.Id.Protein>
6NUR|6NUR_protein|mol2

> <Gold.PLP.Fitness>
43.7927

> <Gold.PLP.PLP>
-36.2474

> <Gold.PLP.part.hbond>
-4.0000

> <Gold.PLP.part.metal>
0.0000

> <Gold.PLP.part.buried>
-4.0952

> <Gold.PLP.part.nonpolar>
-27.4971

> <Gold.PLP.part.repulsive>
0.2928

> <Gold.PLP.ligand.clash>
0.0000

> <Gold.PLP.ligand.torsion>
0.9336

> <Gold.PLP.Chemscore.Hbond>
3.0000

> <Gold.PLP.Chemscore.CHOScore>
0.0000

> <Gold.PLP.Chemscore.Metal>
0.0000

> <Gold.Chemscore.Hbonds>
donor molecule, donor type, donor heavy atom, donor atom, acceptor molecule, acceptor atom, score
      L1  H    15    43       P1  8028  2.00
      L1  H    18    38       P1 10175  1.00

> <Gold.PLP.Chemscore.Internal.Correction>
0.4126

> <Gold.Rescore>
     Score         DG    S(hbond)    S(metal)    S(lipo)     H(rot)  DE(clash)    DE(int)     intcor
     12.94     -15.13       1.57        0.00      80.61       1.96       0.14       2.05       ----

> <Gold.Chemscore.Fitness>
12.9372

> <Gold.Chemscore.DG>
-15.1310

> <Gold.Chemscore.ZeroCoef>
-5.4800

> <Gold.Chemscore.Hbond>
1.5655

> <Gold.Chemscore.Metal>
0.0000

> <Gold.Chemscore.Lipo>
80.6076

> <Gold.Chemscore.Internal_Hbond>
0.0000

> <Gold.Chemscore.DEClash>
0.1424

> <Gold.Chemscore.DEInternal>
2.0514

> <Gold.Chemscore.Rot>
1.9566

> <Gold.Chemscore.Internal.Correction>
   9.000000E+99

> <Gold.Chemscore.Hbonds>
donor molecule, donor type, donor heavy atom, donor atom, acceptor molecule, acceptor atom, score
      L1  H    15    43       P1  8028  0.97
      L1  H    18    38       P1 10175  0.95

> <Gold.Chemscore.Hbond.Weighted>
-5.2289

> <Gold.Chemscore.Metal.Weighted>
-0.0000

> <Gold.Chemscore.Lipo.Weighted>
-9.4311

> <Gold.Chemscore.Internal_Hbond.Weighted>
0.0000

> <Gold.Chemscore.DEClash.Weighted>
0.1424

> <Gold.Chemscore.DEInternal.Weighted>
2.0514

> <Gold.Chemscore.Rot.Weighted>
5.0090

> <Gold.Chemscore.Internal.Correction.Weighted>
   9.000000E+99

> <Gold.Protein.RotatedTorsions>
[ 6907 6896 6895 6894 ] final  -57.14 input  -60.11 | X-H torsion
[ 7974 7965 7964 7962 ] final   -4.54 input  175.53 | X-H torsion
[ 8008 7997 7996 7995 ] final   35.84 input   59.86 | X-H torsion
[ 10167 10162 10161 10158 ] final -108.90 input  -65.29 | X-H torsion
[ 10718 10713 10712 10709 ] final   23.41 input   66.30 | X-H torsion
[ 10763 10752 10751 10750 ] final  173.40 input  -60.55 | X-H torsion
[ 11005 11000 10999 10996 ] final   88.04 input  -57.11 | X-H torsion

> <Gold.Protein.ActiveResidues>
 VAL166  LYS551  ARG553  GLY616  TRP617  ASP618  TYR619  PRO620  LYS621  CYS622 
 ASP623  PHE694  ASN695  SER759  ASP760  ASP761  ALA762  ILE779  LEU786  VAL792 
 PHE793  MET794  SER795  GLU796  ALA797  LYS798  CYS799  TRP800  GLU811  SER814 

> <Gold.Protein.RotatedAtoms>
  150.8110  134.7264  159.6687 H   0  0  0  0  0  0  0  0  0  0  0  0  # atno 6907 bound_to 6896
  152.4229  134.5918  159.9986 H   0  0  0  0  0  0  0  0  0  0  0  0  # atno 6908 bound_to 6896
  151.6128  133.3308  159.3107 H   0  0  0  0  0  0  0  0  0  0  0  0  # atno 6909 bound_to 6896
  146.2370  140.1887  142.8332 H   0  0  0  0  0  0  0  0  0  0  0  0  # atno 7974 bound_to 7965
  155.1777  140.3297  155.4381 H   0  0  0  0  0  0  0  0  0  0  0  0  # atno 8008 bound_to 7997
  156.2488  140.1932  156.6827 H   0  0  0  0  0  0  0  0  0  0  0  0  # atno 8009 bound_to 7997
  154.6293  140.0584  156.9698 H   0  0  0  0  0  0  0  0  0  0  0  0  # atno 8010 bound_to 7997
  140.1611  143.4119  152.1425 H   0  0  0  0  0  0  0  0  0  0  0  0  # atno 10167 bound_to 10162
  157.1656  130.6737  149.6059 H   0  0  0  0  0  0  0  0  0  0  0  0  # atno 10718 bound_to 10713
  154.4395  135.2761  155.1857 H   0  0  0  0  0  0  0  0  0  0  0  0  # atno 10763 bound_to 10752
  154.3730  135.6104  153.5753 H   0  0  0  0  0  0  0  0  0  0  0  0  # atno 10764 bound_to 10752
  152.9840  135.5862  154.4720 H   0  0  0  0  0  0  0  0  0  0  0  0  # atno 10765 bound_to 10752
  139.8905  134.8462  156.2945 H   0  0  0  0  0  0  0  0  0  0  0  0  # atno 11005 bound_to 11000
  144.9875  140.8517  143.5359 LP  0  0  0  0  0  0  0  0  0  0  0  0  # atno 17320 bound_to 7965
  145.1888  139.2312  143.5253 LP  0  0  0  0  0  0  0  0  0  0  0  0  # atno 17321 bound_to 7965
  139.5381  144.7229  151.4826 LP  0  0  0  0  0  0  0  0  0  0  0  0  # atno 17342 bound_to 10162
  140.6642  143.8433  150.6923 LP  0  0  0  0  0  0  0  0  0  0  0  0  # atno 17343 bound_to 10162
  155.9746  130.4696  150.6402 LP  0  0  0  0  0  0  0  0  0  0  0  0  # atno 17370 bound_to 10713
  157.4091  131.0821  151.1238 LP  0  0  0  0  0  0  0  0  0  0  0  0  # atno 17371 bound_to 10713
  140.9954  133.7183  156.0878 LP  0  0  0  0  0  0  0  0  0  0  0  0  # atno 17394 bound_to 11000
  140.7569  134.3982  157.5532 LP  0  0  0  0  0  0  0  0  0  0  0  0  # atno 17395 bound_to 11000

$$$$
