AV-unprocessed.smi:2833|AV-procd|sdf|10915|dock5
  -GOLD-   2272015363D 1   1.00000     0.00000
 Structure written by MMmdl.
 28 29  0  0  0  0  0  0  0  0  1 V2000
  151.7296  136.9835  153.9091 O   0  0  0  0  0  0  0  0  0  0  0  0
  151.6595  138.3439  154.2803 C   0  0  0  0  0  0  0  0  0  0  0  0
  152.1901  138.5325  155.7098 C   0  0  1  0  0  0  0  0  0  0  0  0
  151.8077  139.9139  156.2786 C   0  0  0  0  0  0  0  0  0  0  0  0
  152.2432  140.0245  157.6653 N   0  0  0  0  0  0  0  0  0  0  0  0
  152.0549  141.3000  158.2172 C   0  0  0  0  0  0  0  0  0  0  0  0
  151.2124  142.1537  157.5853 N   0  0  0  0  0  0  0  0  0  0  0  0
  151.0269  143.3812  158.1170 C   0  0  0  0  0  0  0  0  0  0  0  0
  151.6660  143.8167  159.2945 C   0  0  0  0  0  0  0  0  0  0  0  0
  151.3830  145.3999  159.9186 Cl  0  0  0  0  0  0  0  0  0  0  0  0
  152.5408  142.9299  159.9502 C   0  0  0  0  0  0  0  0  0  0  0  0
  152.7394  141.6474  159.4031 C   0  0  0  0  0  0  0  0  0  0  0  0
  153.5736  140.7681  160.0089 F   0  0  0  0  0  0  0  0  0  0  0  0
  151.7249  138.9488  158.5000 C   0  0  0  0  0  0  0  0  0  0  0  0
  152.0826  137.5877  157.8811 C   0  0  0  0  0  0  0  0  0  0  0  0
  151.5995  137.5346  156.5418 O   0  0  0  0  0  0  0  0  0  0  0  0
  151.5910  136.9185  152.9765 H   0  0  0  0  0  0  0  0  0  0  0  0
  152.2737  138.9029  153.5736 H   0  0  0  0  0  0  0  0  0  0  0  0
  150.6383  138.7137  154.1834 H   0  0  0  0  0  0  0  0  0  0  0  0
  153.2776  138.4322  155.7144 H   0  0  0  0  0  0  0  0  0  0  0  0
  152.2719  140.7046  155.6876 H   0  0  0  0  0  0  0  0  0  0  0  0
  150.7276  140.0560  156.2177 H   0  0  0  0  0  0  0  0  0  0  0  0
  150.3481  144.0334  157.5874 H   0  0  0  0  0  0  0  0  0  0  0  0
  153.0501  143.2254  160.8557 H   0  0  0  0  0  0  0  0  0  0  0  0
  152.1418  139.0255  159.5051 H   0  0  0  0  0  0  0  0  0  0  0  0
  150.6414  139.0404  158.5905 H   0  0  0  0  0  0  0  0  0  0  0  0
  153.1611  137.4226  157.8981 H   0  0  0  0  0  0  0  0  0  0  0  0
  151.6274  136.7815  158.4561 H   0  0  0  0  0  0  0  0  0  0  0  0
  1  2  1  0  0  0  0
  1 17  1  0  0  0  0
  2  3  1  0  0  0  0
  2 18  1  0  0  0  0
  2 19  1  0  0  0  0
  3 16  1  0  0  0  0
  3  4  1  0  0  0  0
  3 20  1  0  0  0  0
  4  5  1  0  0  0  0
  4 21  1  0  0  0  0
  4 22  1  0  0  0  0
  5  6  1  0  0  0  0
  5 14  1  0  0  0  0
  6 12  1  0  0  0  0
  6  7  2  0  0  0  0
  7  8  1  0  0  0  0
  8  9  2  0  0  0  0
  8 23  1  0  0  0  0
  9 10  1  0  0  0  0
  9 11  1  0  0  0  0
 11 12  2  0  0  0  0
 11 24  1  0  0  0  0
 12 13  1  0  0  0  0
 14 15  1  0  0  0  0
 14 25  1  0  0  0  0
 14 26  1  0  0  0  0
 15 16  1  0  0  0  0
 15 27  1  0  0  0  0
 15 28  1  0  0  0  0
M  END
> <s_m_source_file>
AV-unprocessed.smi

> <i_m_source_file_index>
2833

> <i_lp_mmshare_version>
43012

> <i_f3d_flags>
0

> <s_epik_input>
W09IXVtDSDJdW0NAQEhdMVtDSDJdTihbQ0gyXVtDSDJdTzEpYzJuW2NIXWMoQ2wpW2NIXWMyRg==

> <s_epik_cmdline>
J2VwaWtfcHl0aG9uJywgJy1waCcsICc3LjAnLCAnLXRuJywgJzgnLCAnLW1hJywgJzIwMCcsICctbWV0YWxfYmluZGluZycsICctaW1hZScsICc8aW5maWxlLm1hZT4nLCAnLW9tYWUnLCAnPG91dGZpbGUubWFlPic=

> <r_lp_tautomer_probability>
1

> <r_epik_Ionization_Penalty>
1.06846e-07

> <r_epik_Ionization_Penalty_Charging>
0

> <r_epik_Ionization_Penalty_Neutral>
1.06846e-07

> <r_epik_State_Penalty>
-0

> <r_epik_Charging_Adjusted_Penalty>
0

> <i_epik_Tot_Q>
0

> <i_epik_Tot_abs_Q>
0

> <r_epik_Metal_State_Penalty>
-0

> <b_epik_Metal_Only>
0

> <s_lp_Force_Field>
OPLS_2005

> <r_lp_Energy>
22.731

> <b_lp_Chiralities_Consistent>
1

> <s_lp_Variant>
AV-unprocessed.smi:2833-2

> <Gold.Version>
5.8.1

> <Gold.Id.Protein>
6NUR|6NUR_protein|mol2

> <Gold.PLP.Fitness>
45.4704

> <Gold.PLP.PLP>
-34.9784

> <Gold.PLP.part.hbond>
-3.0000

> <Gold.PLP.part.metal>
0.0000

> <Gold.PLP.part.buried>
-5.6490

> <Gold.PLP.part.nonpolar>
-25.8955

> <Gold.PLP.part.repulsive>
0.0532

> <Gold.PLP.ligand.clash>
0.0000

> <Gold.PLP.ligand.torsion>
0.3525

> <Gold.PLP.Chemscore.Hbond>
2.6964

> <Gold.PLP.Chemscore.CHOScore>
1.0000

> <Gold.PLP.Chemscore.Metal>
0.0000

> <Gold.Chemscore.Hbonds>
donor molecule, donor type, donor heavy atom, donor atom, acceptor molecule, acceptor atom, score
      L1  H     1    17       P1  7949  1.00
      P1  H  7997  8008       L1     5  0.06
      P1  H 10752 10765       L1     1  0.95
      L1  C     8    23       P1  8028  1.00

> <Gold.PLP.Chemscore.Internal.Correction>
0.1079

> <Gold.Rescore>
     Score         DG    S(hbond)    S(metal)    S(lipo)     H(rot)  DE(clash)    DE(int)     intcor
     16.41     -17.06       1.91        0.00      83.31       1.78       0.13       0.51       ----

> <Gold.Chemscore.Fitness>
16.4119

> <Gold.Chemscore.DG>
-17.0560

> <Gold.Chemscore.ZeroCoef>
-5.4800

> <Gold.Chemscore.Hbond>
1.9098

> <Gold.Chemscore.Metal>
0.0000

> <Gold.Chemscore.Lipo>
83.3102

> <Gold.Chemscore.Internal_Hbond>
0.0000

> <Gold.Chemscore.DEClash>
0.1300

> <Gold.Chemscore.DEInternal>
0.5141

> <Gold.Chemscore.Rot>
1.7773

> <Gold.Chemscore.Internal.Correction>
   9.000000E+99

> <Gold.Chemscore.Hbonds>
donor molecule, donor type, donor heavy atom, donor atom, acceptor molecule, acceptor atom, score
      L1  H     1    17       P1  7949  0.92
      P1  H 10752 10765       L1     1  0.22

> <Gold.Chemscore.Hbond.Weighted>
-6.3786

> <Gold.Chemscore.Metal.Weighted>
-0.0000

> <Gold.Chemscore.Lipo.Weighted>
-9.7473

> <Gold.Chemscore.Internal_Hbond.Weighted>
0.0000

> <Gold.Chemscore.DEClash.Weighted>
0.1300

> <Gold.Chemscore.DEInternal.Weighted>
0.5141

> <Gold.Chemscore.Rot.Weighted>
4.5499

> <Gold.Chemscore.Internal.Correction.Weighted>
   9.000000E+99

> <Gold.Protein.RotatedTorsions>
[ 6907 6896 6895 6894 ] final  120.68 input  -60.11 | X-H torsion
[ 7974 7965 7964 7962 ] final   99.39 input  175.53 | X-H torsion
[ 8008 7997 7996 7995 ] final  -76.31 input   59.86 | X-H torsion
[ 10167 10162 10161 10158 ] final  165.39 input  -65.29 | X-H torsion
[ 10718 10713 10712 10709 ] final  -35.28 input   66.30 | X-H torsion
[ 10763 10752 10751 10750 ] final  149.56 input  -60.55 | X-H torsion
[ 11005 11000 10999 10996 ] final -179.72 input  -57.11 | X-H torsion

> <Gold.Protein.ActiveResidues>
 VAL166  LYS551  ARG553  GLY616  TRP617  ASP618  TYR619  PRO620  LYS621  CYS622 
 ASP623  PHE694  ASN695  SER759  ASP760  ASP761  ALA762  ILE779  LEU786  VAL792 
 PHE793  MET794  SER795  GLU796  ALA797  LYS798  CYS799  TRP800  GLU811  SER814 

> <Gold.Protein.RotatedAtoms>
  152.4379  133.7395  159.6632 H   0  0  0  0  0  0  0  0  0  0  0  0  # atno 6907 bound_to 6896
  150.8266  133.8152  159.3122 H   0  0  0  0  0  0  0  0  0  0  0  0  # atno 6908 bound_to 6896
  151.5818  135.1060  160.0070 H   0  0  0  0  0  0  0  0  0  0  0  0  # atno 6909 bound_to 6896
  145.3994  139.2350  143.3308 H   0  0  0  0  0  0  0  0  0  0  0  0  # atno 7974 bound_to 7965
  154.5494  140.0729  156.8642 H   0  0  0  0  0  0  0  0  0  0  0  0  # atno 8008 bound_to 7997
  155.3023  140.3385  155.4229 H   0  0  0  0  0  0  0  0  0  0  0  0  # atno 8009 bound_to 7997
  156.1947  140.1699  156.8007 H   0  0  0  0  0  0  0  0  0  0  0  0  # atno 8010 bound_to 7997
  139.4905  144.4137  151.9269 H   0  0  0  0  0  0  0  0  0  0  0  0  # atno 10167 bound_to 10162
  156.3405  130.4293  149.7791 H   0  0  0  0  0  0  0  0  0  0  0  0  # atno 10718 bound_to 10713
  154.0732  135.2865  155.3304 H   0  0  0  0  0  0  0  0  0  0  0  0  # atno 10763 bound_to 10752
  154.6733  135.5291  153.8169 H   0  0  0  0  0  0  0  0  0  0  0  0  # atno 10764 bound_to 10752
  153.0477  135.6563  154.0912 H   0  0  0  0  0  0  0  0  0  0  0  0  # atno 10765 bound_to 10752
  140.4155  134.6653  157.4637 H   0  0  0  0  0  0  0  0  0  0  0  0  # atno 11005 bound_to 11000
  146.2759  140.4690  142.8796 LP  0  0  0  0  0  0  0  0  0  0  0  0  # atno 17320 bound_to 7965
  144.8384  140.6819  143.6245 LP  0  0  0  0  0  0  0  0  0  0  0  0  # atno 17321 bound_to 7965
  140.3579  144.3009  150.5938 LP  0  0  0  0  0  0  0  0  0  0  0  0  # atno 17342 bound_to 10162
  140.5429  143.2220  151.8056 LP  0  0  0  0  0  0  0  0  0  0  0  0  # atno 17343 bound_to 10162
  156.5030  130.8137  151.3139 LP  0  0  0  0  0  0  0  0  0  0  0  0  # atno 17370 bound_to 10713
  157.7446  130.9939  150.2687 LP  0  0  0  0  0  0  0  0  0  0  0  0  # atno 17371 bound_to 10713
  140.0237  134.6509  155.9203 LP  0  0  0  0  0  0  0  0  0  0  0  0  # atno 17394 bound_to 11000
  141.1804  133.6546  156.4998 LP  0  0  0  0  0  0  0  0  0  0  0  0  # atno 17395 bound_to 11000

$$$$
