AV-unprocessed.smi:3113|AV-procd|sdf|11854|dock3
  -GOLD-   2272017233D 1   1.00000     0.00000
 Structure written by MMmdl.
 34 35  0  0  0  0  0  0  0  0  1 V2000
  146.9302  141.9198  154.1113 C   0  0  0  0  0  0  0  0  0  0  0  0
  146.8457  142.0473  155.5260 C   0  0  0  0  0  0  0  0  0  0  0  0
  147.9959  141.7965  156.1305 N   0  0  0  0  0  0  0  0  0  0  0  0
  148.8488  141.5006  155.1258 N   0  0  0  0  0  0  0  0  0  0  0  0
  150.2263  141.1627  155.4264 C   0  0  0  0  0  0  0  0  0  0  0  0
  150.5733  141.4656  156.8906 C   0  0  0  0  0  0  0  0  0  0  0  0
  150.6247  142.9033  157.1315 N   0  0  0  0  0  0  0  0  0  0  0  0
  150.3083  143.2675  158.5086 C   0  0  0  0  0  0  0  0  0  0  0  0
  151.5795  143.3516  159.3658 C   0  0  2  0  0  0  0  0  0  0  0  0
  152.3305  142.0065  159.4000 C   0  0  0  0  0  0  0  0  0  0  0  0
  153.5439  142.0893  160.3332 C   0  0  0  0  0  0  0  0  0  0  0  0
  153.1021  142.5936  161.7111 C   0  0  0  0  0  0  0  0  0  0  0  0
  152.3017  143.8981  161.5709 C   0  0  0  0  0  0  0  0  0  0  0  0
  151.1958  143.6969  160.6959 O   0  0  0  0  0  0  0  0  0  0  0  0
  148.2321  141.5689  153.8944 C   0  0  0  0  0  0  0  0  0  0  0  0
  146.1559  142.0636  153.3723 H   0  0  0  0  0  0  0  0  0  0  0  0
  145.9887  142.3124  156.1273 H   0  0  0  0  0  0  0  0  0  0  0  0
  150.3783  140.1043  155.2105 H   0  0  0  0  0  0  0  0  0  0  0  0
  150.8778  141.7212  154.7523 H   0  0  0  0  0  0  0  0  0  0  0  0
  149.8295  141.0067  157.5434 H   0  0  0  0  0  0  0  0  0  0  0  0
  151.5332  141.0122  157.1411 H   0  0  0  0  0  0  0  0  0  0  0  0
  149.9867  143.3791  156.5013 H   0  0  0  0  0  0  0  0  0  0  0  0
  149.7759  144.2189  158.5422 H   0  0  0  0  0  0  0  0  0  0  0  0
  149.6364  142.5192  158.9306 H   0  0  0  0  0  0  0  0  0  0  0  0
  152.2397  144.1210  158.9603 H   0  0  0  0  0  0  0  0  0  0  0  0
  151.6591  141.2181  159.7434 H   0  0  0  0  0  0  0  0  0  0  0  0
  152.6531  141.7273  158.3964 H   0  0  0  0  0  0  0  0  0  0  0  0
  154.0256  141.1152  160.4195 H   0  0  0  0  0  0  0  0  0  0  0  0
  154.2846  142.7704  159.9123 H   0  0  0  0  0  0  0  0  0  0  0  0
  152.4836  141.8380  162.1968 H   0  0  0  0  0  0  0  0  0  0  0  0
  153.9700  142.7486  162.3525 H   0  0  0  0  0  0  0  0  0  0  0  0
  151.9272  144.2141  162.5446 H   0  0  0  0  0  0  0  0  0  0  0  0
  152.9334  144.7048  161.1960 H   0  0  0  0  0  0  0  0  0  0  0  0
  148.7643  141.3630  152.9774 H   0  0  0  0  0  0  0  0  0  0  0  0
  1 15  2  0  0  0  0
  1  2  1  0  0  0  0
  1 16  1  0  0  0  0
  2  3  2  0  0  0  0
  2 17  1  0  0  0  0
  3  4  1  0  0  0  0
  4  5  1  0  0  0  0
  4 15  1  0  0  0  0
  5  6  1  0  0  0  0
  5 18  1  0  0  0  0
  5 19  1  0  0  0  0
  6  7  1  0  0  0  0
  6 20  1  0  0  0  0
  6 21  1  0  0  0  0
  7  8  1  0  0  0  0
  7 22  1  0  0  0  0
  8  9  1  0  0  0  0
  8 23  1  0  0  0  0
  8 24  1  0  0  0  0
  9 14  1  0  0  0  0
  9 10  1  0  0  0  0
  9 25  1  0  0  0  0
 10 11  1  0  0  0  0
 10 26  1  0  0  0  0
 10 27  1  0  0  0  0
 11 12  1  0  0  0  0
 11 28  1  0  0  0  0
 11 29  1  0  0  0  0
 12 13  1  0  0  0  0
 12 30  1  0  0  0  0
 12 31  1  0  0  0  0
 13 14  1  0  0  0  0
 13 32  1  0  0  0  0
 13 33  1  0  0  0  0
 15 34  1  0  0  0  0
M  END
> <s_m_source_file>
AV-unprocessed.smi

> <i_m_source_file_index>
3113

> <i_lp_mmshare_version>
43012

> <i_f3d_flags>
0

> <s_epik_input>
W2NIXTFbY0hdW2NIXW5uMVtDSDJdW0NIMl1bTkhdW0NIMl1bQ0BASF0yW0NIMl1bQ0gyXVtDSDJdW0NIMl1PMg==

> <s_epik_cmdline>
J2VwaWtfcHl0aG9uJywgJy1waCcsICc3LjAnLCAnLXRuJywgJzgnLCAnLW1hJywgJzIwMCcsICctbWV0YWxfYmluZGluZycsICctaW1hZScsICc8aW5maWxlLm1hZT4nLCAnLW9tYWUnLCAnPG91dGZpbGUubWFlPic=

> <r_lp_tautomer_probability>
1

> <r_epik_Ionization_Penalty>
2.521

> <r_epik_Ionization_Penalty_Charging>
0

> <r_epik_Ionization_Penalty_Neutral>
2.521

> <r_epik_State_Penalty>
2.68614

> <r_epik_Charging_Adjusted_Penalty>
2.68614

> <i_epik_Tot_Q>
0

> <i_epik_Tot_abs_Q>
0

> <r_epik_Metal_State_Penalty>
2.68493

> <b_epik_Metal_Only>
0

> <s_lp_Force_Field>
OPLS_2005

> <r_lp_Energy>
11.6104

> <b_lp_Chiralities_Consistent>
1

> <s_lp_Variant>
AV-unprocessed.smi:3113-3

> <Gold.Version>
5.8.1

> <Gold.Id.Protein>
6NUR|6NUR_protein|mol2

> <Gold.PLP.Fitness>
42.1616

> <Gold.PLP.PLP>
-37.1614

> <Gold.PLP.part.hbond>
-1.9224

> <Gold.PLP.part.metal>
0.0000

> <Gold.PLP.part.buried>
-3.7299

> <Gold.PLP.part.nonpolar>
-31.7822

> <Gold.PLP.part.repulsive>
0.2512

> <Gold.PLP.ligand.clash>
0.0000

> <Gold.PLP.ligand.torsion>
0.5122

> <Gold.PLP.Chemscore.Hbond>
1.0000

> <Gold.PLP.Chemscore.CHOScore>
1.0000

> <Gold.PLP.Chemscore.Metal>
0.0000

> <Gold.Chemscore.Hbonds>
donor molecule, donor type, donor heavy atom, donor atom, acceptor molecule, acceptor atom, score
      L1  H     7    22       P1  8028  1.00
      L1  C    15    34       P1  7957  1.00

> <Gold.PLP.Chemscore.Internal.Correction>
0.0246

> <Gold.Rescore>
     Score         DG    S(hbond)    S(metal)    S(lipo)     H(rot)  DE(clash)    DE(int)     intcor
     14.98     -15.59       0.97        0.00      94.08       1.62       0.05       0.56       ----

> <Gold.Chemscore.Fitness>
14.9798

> <Gold.Chemscore.DG>
-15.5890

> <Gold.Chemscore.ZeroCoef>
-5.4800

> <Gold.Chemscore.Hbond>
0.9738

> <Gold.Chemscore.Metal>
0.0000

> <Gold.Chemscore.Lipo>
94.0773

> <Gold.Chemscore.Internal_Hbond>
0.0000

> <Gold.Chemscore.DEClash>
0.0456

> <Gold.Chemscore.DEInternal>
0.5636

> <Gold.Chemscore.Rot>
1.6213

> <Gold.Chemscore.Internal.Correction>
   9.000000E+99

> <Gold.Chemscore.Hbonds>
donor molecule, donor type, donor heavy atom, donor atom, acceptor molecule, acceptor atom, score
      L1  H     7    22       P1  8028  0.99

> <Gold.Chemscore.Hbond.Weighted>
-3.2525

> <Gold.Chemscore.Metal.Weighted>
-0.0000

> <Gold.Chemscore.Lipo.Weighted>
-11.0070

> <Gold.Chemscore.Internal_Hbond.Weighted>
0.0000

> <Gold.Chemscore.DEClash.Weighted>
0.0456

> <Gold.Chemscore.DEInternal.Weighted>
0.5636

> <Gold.Chemscore.Rot.Weighted>
4.1505

> <Gold.Chemscore.Internal.Correction.Weighted>
   9.000000E+99

> <Gold.Protein.RotatedTorsions>
[ 6907 6896 6895 6894 ] final   52.40 input  -60.11 | X-H torsion
[ 7974 7965 7964 7962 ] final -165.61 input  175.53 | X-H torsion
[ 8008 7997 7996 7995 ] final   53.75 input   59.86 | X-H torsion
[ 10167 10162 10161 10158 ] final   89.71 input  -65.29 | X-H torsion
[ 10718 10713 10712 10709 ] final    0.81 input   66.30 | X-H torsion
[ 10763 10752 10751 10750 ] final -129.45 input  -60.55 | X-H torsion
[ 11005 11000 10999 10996 ] final   51.65 input  -57.11 | X-H torsion

> <Gold.Protein.ActiveResidues>
 VAL166  LYS551  ARG553  GLY616  TRP617  ASP618  TYR619  PRO620  LYS621  CYS622 
 ASP623  PHE694  ASN695  SER759  ASP760  ASP761  ALA762  ILE779  LEU786  VAL792 
 PHE793  MET794  SER795  GLU796  ALA797  LYS798  CYS799  TRP800  GLU811  SER814 

> <Gold.Protein.RotatedAtoms>
  152.3229  134.7357  160.0308 H   0  0  0  0  0  0  0  0  0  0  0  0  # atno 6907 bound_to 6896
  151.7800  133.3343  159.3477 H   0  0  0  0  0  0  0  0  0  0  0  0  # atno 6908 bound_to 6896
  150.7380  134.5871  159.6013 H   0  0  0  0  0  0  0  0  0  0  0  0  # atno 6909 bound_to 6896
  144.7265  140.2788  143.6239 H   0  0  0  0  0  0  0  0  0  0  0  0  # atno 7974 bound_to 7965
  155.4734  140.3466  155.4329 H   0  0  0  0  0  0  0  0  0  0  0  0  # atno 8008 bound_to 7997
  156.1085  140.1454  156.9399 H   0  0  0  0  0  0  0  0  0  0  0  0  # atno 8009 bound_to 7997
  154.4741  140.0891  156.7196 H   0  0  0  0  0  0  0  0  0  0  0  0  # atno 8010 bound_to 7997
  139.8545  144.6576  150.9130 H   0  0  0  0  0  0  0  0  0  0  0  0  # atno 10167 bound_to 10162
  156.8390  130.5514  149.5679 H   0  0  0  0  0  0  0  0  0  0  0  0  # atno 10718 bound_to 10713
  154.8757  135.3895  154.3922 H   0  0  0  0  0  0  0  0  0  0  0  0  # atno 10763 bound_to 10752
  153.4657  135.7029  153.6029 H   0  0  0  0  0  0  0  0  0  0  0  0  # atno 10764 bound_to 10752
  153.4508  135.3834  155.2251 H   0  0  0  0  0  0  0  0  0  0  0  0  # atno 10765 bound_to 10752
  140.0915  134.5203  155.8847 H   0  0  0  0  0  0  0  0  0  0  0  0  # atno 11005 bound_to 11000
  145.7969  139.1949  143.2070 LP  0  0  0  0  0  0  0  0  0  0  0  0  # atno 17320 bound_to 7965
  146.0709  140.7870  142.9689 LP  0  0  0  0  0  0  0  0  0  0  0  0  # atno 17321 bound_to 7965
  140.7783  143.3798  151.1498 LP  0  0  0  0  0  0  0  0  0  0  0  0  # atno 17342 bound_to 10162
  139.7433  143.8891  152.3056 LP  0  0  0  0  0  0  0  0  0  0  0  0  # atno 17343 bound_to 10162
  156.0891  130.5882  150.9702 LP  0  0  0  0  0  0  0  0  0  0  0  0  # atno 17370 bound_to 10713
  157.6366  131.0915  150.8336 LP  0  0  0  0  0  0  0  0  0  0  0  0  # atno 17371 bound_to 10713
  141.2079  133.6669  156.6337 LP  0  0  0  0  0  0  0  0  0  0  0  0  # atno 17394 bound_to 11000
  140.3345  134.7900  157.4352 LP  0  0  0  0  0  0  0  0  0  0  0  0  # atno 17395 bound_to 11000

$$$$
