AV-unprocessed.smi:3005|AV-procd|sdf|11443|dock10
  -GOLD-   2272016373D 1   1.00000     0.00000
 Structure written by MMmdl.
 33 34  0  0  0  0  0  0  0  0  1 V2000
  147.2932  142.0564  154.2378 C   0  0  0  0  0  0  0  0  0  0  0  0
  148.3277  140.9837  154.3920 C   0  0  0  0  0  0  0  0  0  0  0  0
  149.5096  141.2613  155.0844 N   0  0  0  0  0  0  0  0  0  0  0  0
  150.3319  140.2110  155.1448 C   0  0  0  0  0  0  0  0  0  0  0  0
  151.9081  140.1735  155.9339 S   0  0  0  0  0  0  0  0  0  0  0  0
  151.4284  140.6589  157.6175 C   0  0  0  0  0  0  0  0  0  0  0  0
  152.6316  140.7005  158.5640 C   0  0  0  0  0  0  0  0  0  0  0  0
  153.3786  139.7261  158.6525 O   0  0  0  0  0  0  0  0  0  0  0  0
  152.8774  141.8838  159.2667 N   0  0  0  0  0  0  0  0  0  0  0  0
  153.2706  141.8729  160.6680 C   0  0  0  0  0  0  0  0  0  0  0  0
  152.5598  143.2264  160.7666 C   0  0  0  0  0  0  0  0  0  0  0  0
  151.8236  142.8669  159.4722 C   0  0  0  0  0  0  0  0  0  0  0  0
  149.6946  138.7892  154.3337 S   0  0  0  0  0  0  0  0  0  0  0  0
  148.2594  139.6932  153.9197 C   0  0  0  0  0  0  0  0  0  0  0  0
  147.1500  139.0520  153.1456 C   0  0  0  0  0  0  0  0  0  0  0  0
  146.5329  137.8895  153.9263 C   0  0  0  0  0  0  0  0  0  0  0  0
  146.7505  136.6577  153.4589 N   0  0  0  0  0  0  0  0  0  0  0  0
  145.8644  138.0992  154.9366 O   0  0  0  0  0  0  0  0  0  0  0  0
  146.3582  141.7709  154.7202 H   0  0  0  0  0  0  0  0  0  0  0  0
  147.0786  142.2466  153.1862 H   0  0  0  0  0  0  0  0  0  0  0  0
  147.6171  142.9980  154.6822 H   0  0  0  0  0  0  0  0  0  0  0  0
  150.9768  141.6510  157.5893 H   0  0  0  0  0  0  0  0  0  0  0  0
  150.6640  139.9692  157.9735 H   0  0  0  0  0  0  0  0  0  0  0  0
  152.7850  141.0873  161.2508 H   0  0  0  0  0  0  0  0  0  0  0  0
  154.3485  141.9143  160.8289 H   0  0  0  0  0  0  0  0  0  0  0  0
  151.9117  143.3294  161.6374 H   0  0  0  0  0  0  0  0  0  0  0  0
  153.2339  144.0781  160.6587 H   0  0  0  0  0  0  0  0  0  0  0  0
  151.8049  143.6594  158.7235 H   0  0  0  0  0  0  0  0  0  0  0  0
  150.8390  142.4278  159.6468 H   0  0  0  0  0  0  0  0  0  0  0  0
  146.3877  139.7933  152.9017 H   0  0  0  0  0  0  0  0  0  0  0  0
  147.5253  138.6725  152.1946 H   0  0  0  0  0  0  0  0  0  0  0  0
  146.3641  135.8586  153.9399 H   0  0  0  0  0  0  0  0  0  0  0  0
  147.3030  136.5306  152.6232 H   0  0  0  0  0  0  0  0  0  0  0  0
  1  2  1  0  0  0  0
  1 19  1  0  0  0  0
  1 20  1  0  0  0  0
  1 21  1  0  0  0  0
  2 14  2  0  0  0  0
  2  3  1  0  0  0  0
  3  4  2  0  0  0  0
  4  5  1  0  0  0  0
  4 13  1  0  0  0  0
  5  6  1  0  0  0  0
  6  7  1  0  0  0  0
  6 22  1  0  0  0  0
  6 23  1  0  0  0  0
  7  8  2  0  0  0  0
  7  9  1  0  0  0  0
  9 12  1  0  0  0  0
  9 10  1  0  0  0  0
 10 11  1  0  0  0  0
 10 24  1  0  0  0  0
 10 25  1  0  0  0  0
 11 12  1  0  0  0  0
 11 26  1  0  0  0  0
 11 27  1  0  0  0  0
 12 28  1  0  0  0  0
 12 29  1  0  0  0  0
 13 14  1  0  0  0  0
 14 15  1  0  0  0  0
 15 16  1  0  0  0  0
 15 30  1  0  0  0  0
 15 31  1  0  0  0  0
 16 17  1  0  0  0  0
 16 18  2  0  0  0  0
 17 32  1  0  0  0  0
 17 33  1  0  0  0  0
M  END
> <s_m_source_file>
AV-unprocessed.smi

> <i_m_source_file_index>
3005

> <i_lp_mmshare_version>
43012

> <i_f3d_flags>
0

> <s_epik_input>
W05IMl1DKD1PKVtDSDJdYzFzYyhuYzFbQ0gzXSlTW0NIMl1DKD1PKU4yW0NIMl1bQ0gyXVtDSDJdMg==

> <s_epik_cmdline>
J2VwaWtfcHl0aG9uJywgJy1waCcsICc3LjAnLCAnLXRuJywgJzgnLCAnLW1hJywgJzIwMCcsICctbWV0YWxfYmluZGluZycsICctaW1hZScsICc8aW5maWxlLm1hZT4nLCAnLW9tYWUnLCAnPG91dGZpbGUubWFlPic=

> <r_lp_tautomer_probability>
1

> <r_epik_Ionization_Penalty>
8.1701e-07

> <r_epik_Ionization_Penalty_Charging>
0

> <r_epik_Ionization_Penalty_Neutral>
8.1701e-07

> <r_epik_State_Penalty>
-0

> <r_epik_Charging_Adjusted_Penalty>
0

> <i_epik_Tot_Q>
0

> <i_epik_Tot_abs_Q>
0

> <r_epik_Metal_State_Penalty>
-0

> <b_epik_Metal_Only>
0

> <s_lp_Force_Field>
OPLS_2005

> <r_lp_Energy>
11.7673

> <b_lp_Chiralities_Consistent>
1

> <s_lp_Variant>
AV-unprocessed.smi:3005-1

> <Gold.Version>
5.8.1

> <Gold.Id.Protein>
6NUR|6NUR_protein|mol2

> <Gold.PLP.Fitness>
43.2111

> <Gold.PLP.PLP>
-37.4724

> <Gold.PLP.part.hbond>
-2.0000

> <Gold.PLP.part.metal>
0.0000

> <Gold.PLP.part.buried>
-2.8649

> <Gold.PLP.part.nonpolar>
-33.2009

> <Gold.PLP.part.repulsive>
0.1831

> <Gold.PLP.ligand.clash>
0.0000

> <Gold.PLP.ligand.torsion>
0.5773

> <Gold.PLP.Chemscore.Hbond>
2.0000

> <Gold.PLP.Chemscore.CHOScore>
0.0000

> <Gold.PLP.Chemscore.Metal>
0.0000

> <Gold.Chemscore.Hbonds>
donor molecule, donor type, donor heavy atom, donor atom, acceptor molecule, acceptor atom, score
      L1  H    17    33       P1  7948  0.99
      P1  H  7997  8009       L1     8  0.99

> <Gold.PLP.Chemscore.Internal.Correction>
0.8932

> <Gold.Rescore>
     Score         DG    S(hbond)    S(metal)    S(lipo)     H(rot)  DE(clash)    DE(int)     intcor
     14.82     -15.50       1.90        0.00      84.39       2.41       0.07       0.62       ----

> <Gold.Chemscore.Fitness>
14.8196

> <Gold.Chemscore.DG>
-15.5034

> <Gold.Chemscore.ZeroCoef>
-5.4800

> <Gold.Chemscore.Hbond>
1.8958

> <Gold.Chemscore.Metal>
0.0000

> <Gold.Chemscore.Lipo>
84.3918

> <Gold.Chemscore.Internal_Hbond>
0.0000

> <Gold.Chemscore.DEClash>
0.0678

> <Gold.Chemscore.DEInternal>
0.6160

> <Gold.Chemscore.Rot>
2.4149

> <Gold.Chemscore.Internal.Correction>
   9.000000E+99

> <Gold.Chemscore.Hbonds>
donor molecule, donor type, donor heavy atom, donor atom, acceptor molecule, acceptor atom, score
      L1  H    17    33       P1  7948  0.93
      P1  H  7997  8009       L1     8  0.32

> <Gold.Chemscore.Hbond.Weighted>
-6.3318

> <Gold.Chemscore.Metal.Weighted>
-0.0000

> <Gold.Chemscore.Lipo.Weighted>
-9.8738

> <Gold.Chemscore.Internal_Hbond.Weighted>
0.0000

> <Gold.Chemscore.DEClash.Weighted>
0.0678

> <Gold.Chemscore.DEInternal.Weighted>
0.6160

> <Gold.Chemscore.Rot.Weighted>
6.1822

> <Gold.Chemscore.Internal.Correction.Weighted>
   9.000000E+99

> <Gold.Protein.RotatedTorsions>
[ 6907 6896 6895 6894 ] final -144.02 input  -60.11 | X-H torsion
[ 7974 7965 7964 7962 ] final  113.72 input  175.53 | X-H torsion
[ 8008 7997 7996 7995 ] final  149.25 input   59.86 | X-H torsion
[ 10167 10162 10161 10158 ] final   41.39 input  -65.29 | X-H torsion
[ 10718 10713 10712 10709 ] final  -47.40 input   66.30 | X-H torsion
[ 10763 10752 10751 10750 ] final   36.58 input  -60.55 | X-H torsion
[ 11005 11000 10999 10996 ] final -114.74 input  -57.11 | X-H torsion

> <Gold.Protein.ActiveResidues>
 VAL166  LYS551  ARG553  GLY616  TRP617  ASP618  TYR619  PRO620  LYS621  CYS622 
 ASP623  PHE694  ASN695  SER759  ASP760  ASP761  ALA762  ILE779  LEU786  VAL792 
 PHE793  MET794  SER795  GLU796  ALA797  LYS798  CYS799  TRP800  GLU811  SER814 

> <Gold.Protein.RotatedAtoms>
  151.1084  133.5191  159.2606 H   0  0  0  0  0  0  0  0  0  0  0  0  # atno 6907 bound_to 6896
  151.1995  135.0436  159.8876 H   0  0  0  0  0  0  0  0  0  0  0  0  # atno 6908 bound_to 6896
  152.5448  134.0914  159.8332 H   0  0  0  0  0  0  0  0  0  0  0  0  # atno 6909 bound_to 6896
  145.2133  139.2896  143.4256 H   0  0  0  0  0  0  0  0  0  0  0  0  # atno 7974 bound_to 7965
  156.2762  140.2107  156.5828 H   0  0  0  0  0  0  0  0  0  0  0  0  # atno 8008 bound_to 7997
  154.7045  140.0518  157.0513 H   0  0  0  0  0  0  0  0  0  0  0  0  # atno 8009 bound_to 7997
  155.0690  140.3174  155.4639 H   0  0  0  0  0  0  0  0  0  0  0  0  # atno 8010 bound_to 7997
  140.3647  144.2182  150.6136 H   0  0  0  0  0  0  0  0  0  0  0  0  # atno 10167 bound_to 10162
  156.2089  130.4159  149.9142 H   0  0  0  0  0  0  0  0  0  0  0  0  # atno 10718 bound_to 10713
  153.0071  135.6302  154.2008 H   0  0  0  0  0  0  0  0  0  0  0  0  # atno 10763 bound_to 10752
  154.1751  135.2816  155.3071 H   0  0  0  0  0  0  0  0  0  0  0  0  # atno 10764 bound_to 10752
  154.5878  135.5627  153.7308 H   0  0  0  0  0  0  0  0  0  0  0  0  # atno 10765 bound_to 10752
  141.0532  133.9653  157.2799 H   0  0  0  0  0  0  0  0  0  0  0  0  # atno 11005 bound_to 11000
  146.3392  140.2416  142.8596 LP  0  0  0  0  0  0  0  0  0  0  0  0  # atno 17320 bound_to 7965
  144.9834  140.8481  143.5383 LP  0  0  0  0  0  0  0  0  0  0  0  0  # atno 17321 bound_to 7965
  140.5092  143.2295  151.8561 LP  0  0  0  0  0  0  0  0  0  0  0  0  # atno 17342 bound_to 10162
  139.4810  144.4970  151.9111 LP  0  0  0  0  0  0  0  0  0  0  0  0  # atno 17343 bound_to 10162
  156.6826  130.8864  151.3578 LP  0  0  0  0  0  0  0  0  0  0  0  0  # atno 17370 bound_to 10713
  157.7027  130.9351  150.0835 LP  0  0  0  0  0  0  0  0  0  0  0  0  # atno 17371 bound_to 10713
  139.9368  135.0195  156.8582 LP  0  0  0  0  0  0  0  0  0  0  0  0  # atno 17394 bound_to 11000
  140.6014  134.0168  155.7539 LP  0  0  0  0  0  0  0  0  0  0  0  0  # atno 17395 bound_to 11000

$$$$
