AV-unprocessed.smi:960|AV-procd|sdf|4271|dock3
  -GOLD-   22720 2173D 1   1.00000     0.00000
 Structure written by MMmdl.
 46 47  0  0  0  0  0  0  0  0  2 V2000
  151.6752  144.0228  157.3396 C   0  0  0  0  0  0  0  0  0  0  0  0
  151.1995  142.7664  157.3459 C   0  0  0  0  0  0  0  0  0  0  0  0
  150.9808  141.9984  158.6369 C   0  0  0  0  0  0  0  0  0  0  0  0
  150.8206  142.0488  156.0596 C   0  0  0  0  0  0  0  0  0  0  0  0
  149.3899  142.2281  155.6975 N   0  3  2  0  0  0  0  0  0  0  0  0
  148.4903  141.7475  156.7781 C   0  0  0  0  0  0  0  0  0  0  0  0
  147.0199  142.0737  156.4726 C   0  0  0  0  0  0  0  0  0  0  0  0
  146.5901  141.4799  155.1191 C   0  0  1  0  0  0  0  0  0  0  0  0
  145.2234  141.8708  154.7855 N   0  0  0  0  0  0  0  0  0  0  0  0
  144.2020  141.9196  155.6524 C   0  0  0  0  0  0  0  0  0  0  0  0
  144.3061  141.6308  156.8441 O   0  0  0  0  0  0  0  0  0  0  0  0
  143.0651  142.3000  155.0502 N   0  0  0  0  0  0  0  0  0  0  0  0
  141.7961  142.4685  155.6589 C   0  0  0  0  0  0  0  0  0  0  0  0
  141.4012  143.3533  156.7053 C   0  0  0  0  0  0  0  0  0  0  0  0
  142.1833  144.3742  157.4836 C   0  0  0  0  0  0  0  0  0  0  0  0
  140.1059  143.2145  156.9472 N   0  0  0  0  0  0  0  0  0  0  0  0
  139.6255  142.2594  156.0384 O   0  0  0  0  0  0  0  0  0  0  0  0
  140.6553  141.8371  155.2596 C   0  0  0  0  0  0  0  0  0  0  0  0
  140.3404  140.8279  154.2078 C   0  0  0  0  0  0  0  0  0  0  0  0
  147.5522  141.9639  154.0235 C   0  0  0  0  0  0  0  0  0  0  0  0
  149.0162  141.6516  154.3782 C   0  0  0  0  0  0  0  0  0  0  0  0
  151.9315  144.5310  158.2579 H   0  0  0  0  0  0  0  0  0  0  0  0
  151.8159  144.5631  156.4147 H   0  0  0  0  0  0  0  0  0  0  0  0
  149.9170  141.8077  158.7798 H   0  0  0  0  0  0  0  0  0  0  0  0
  151.3395  142.5617  159.4989 H   0  0  0  0  0  0  0  0  0  0  0  0
  151.4947  141.0385  158.6244 H   0  0  0  0  0  0  0  0  0  0  0  0
  151.4656  142.3709  155.2404 H   0  0  0  0  0  0  0  0  0  0  0  0
  151.0182  140.9861  156.2085 H   0  0  0  0  0  0  0  0  0  0  0  0
  148.6167  140.6711  156.9057 H   0  0  0  0  0  0  0  0  0  0  0  0
  148.7694  142.2128  157.7243 H   0  0  0  0  0  0  0  0  0  0  0  0
  146.3883  141.6871  157.2733 H   0  0  0  0  0  0  0  0  0  0  0  0
  146.8816  143.1560  156.4654 H   0  0  0  0  0  0  0  0  0  0  0  0
  146.6457  140.3906  155.1704 H   0  0  0  0  0  0  0  0  0  0  0  0
  145.0408  142.1181  153.8238 H   0  0  0  0  0  0  0  0  0  0  0  0
  143.0886  142.3882  154.0449 H   0  0  0  0  0  0  0  0  0  0  0  0
  142.9511  144.8380  156.8644 H   0  0  0  0  0  0  0  0  0  0  0  0
  142.6728  143.9197  158.3449 H   0  0  0  0  0  0  0  0  0  0  0  0
  141.5402  145.1731  157.8543 H   0  0  0  0  0  0  0  0  0  0  0  0
  141.1815  140.6941  153.5276 H   0  0  0  0  0  0  0  0  0  0  0  0
  139.4775  141.1391  153.6192 H   0  0  0  0  0  0  0  0  0  0  0  0
  140.1130  139.8617  154.6578 H   0  0  0  0  0  0  0  0  0  0  0  0
  147.2984  141.4982  153.0705 H   0  0  0  0  0  0  0  0  0  0  0  0
  147.4396  143.0399  153.8806 H   0  0  0  0  0  0  0  0  0  0  0  0
  149.6459  142.0680  153.5938 H   0  0  0  0  0  0  0  0  0  0  0  0
  149.1828  140.5732  154.3879 H   0  0  0  0  0  0  0  0  0  0  0  0
  149.2409  143.2247  155.6282 H   0  0  0  0  0  0  0  0  0  0  0  0
  1  2  2  0  0  0  0
  1 22  1  0  0  0  0
  1 23  1  0  0  0  0
  2  3  1  0  0  0  0
  2  4  1  0  0  0  0
  3 24  1  0  0  0  0
  3 25  1  0  0  0  0
  3 26  1  0  0  0  0
  4  5  1  0  0  0  0
  4 27  1  0  0  0  0
  4 28  1  0  0  0  0
  5 21  1  0  0  0  0
  5  6  1  0  0  0  0
  5 46  1  0  0  0  0
  6  7  1  0  0  0  0
  6 29  1  0  0  0  0
  6 30  1  0  0  0  0
  7  8  1  0  0  0  0
  7 31  1  0  0  0  0
  7 32  1  0  0  0  0
  8  9  1  0  0  0  0
  8 20  1  0  0  0  0
  8 33  1  0  0  0  0
  9 10  1  0  0  0  0
  9 34  1  0  0  0  0
 10 11  2  0  0  0  0
 10 12  1  0  0  0  0
 12 13  1  0  0  0  0
 12 35  1  0  0  0  0
 13 18  2  0  0  0  0
 13 14  1  0  0  0  0
 14 15  1  0  0  0  0
 14 16  2  0  0  0  0
 15 36  1  0  0  0  0
 15 37  1  0  0  0  0
 15 38  1  0  0  0  0
 16 17  1  0  0  0  0
 17 18  1  0  0  0  0
 18 19  1  0  0  0  0
 19 39  1  0  0  0  0
 19 40  1  0  0  0  0
 19 41  1  0  0  0  0
 20 21  1  0  0  0  0
 20 42  1  0  0  0  0
 20 43  1  0  0  0  0
 21 44  1  0  0  0  0
 21 45  1  0  0  0  0
M  CHG  1   5   1
M  END
> <s_m_source_file>
AV-unprocessed.smi

> <i_m_source_file_index>
960

> <i_lp_mmshare_version>
43012

> <i_f3d_flags>
0

> <s_epik_input>
W0NIMl09QyhbQ0gzXSlbQ0gyXU4xW0NIMl1bQ0gyXVtDSF0oW0NIMl1bQ0gyXTEpW05IXUMoPU8pW05IXWMyYyhbQ0gzXSlub2MyW0NIM10=

> <s_epik_cmdline>
J2VwaWtfcHl0aG9uJywgJy1waCcsICc3LjAnLCAnLXRuJywgJzgnLCAnLW1hJywgJzIwMCcsICctbWV0YWxfYmluZGluZycsICctaW1hZScsICc8aW5maWxlLm1hZT4nLCAnLW9tYWUnLCAnPG91dGZpbGUubWFlPic=

> <r_epik_Ionization_Penalty>
0.01938

> <r_epik_Ionization_Penalty_Charging>
0.0193505

> <r_epik_Ionization_Penalty_Neutral>
2.94909e-05

> <r_epik_State_Penalty>
0.0154499

> <r_epik_Charging_Adjusted_Penalty>
0.0348004

> <i_epik_Tot_Q>
1

> <i_epik_Tot_abs_Q>
1

> <r_epik_Metal_State_Penalty>
0.0154499

> <b_epik_Metal_Only>
0

> <s_lp_Force_Field>
OPLS_2005

> <r_lp_Energy>
20.2595

> <b_lp_Chiralities_Consistent>
1

> <s_lp_Variant>
AV-unprocessed.smi:960-1

> <Gold.Version>
5.8.1

> <Gold.Id.Protein>
6NUR|6NUR_protein|mol2

> <Gold.PLP.Fitness>
35.9450

> <Gold.PLP.PLP>
-28.9745

> <Gold.PLP.part.hbond>
-3.5092

> <Gold.PLP.part.metal>
0.0000

> <Gold.PLP.part.buried>
-3.4633

> <Gold.PLP.part.nonpolar>
-22.0401

> <Gold.PLP.part.repulsive>
0.1639

> <Gold.PLP.ligand.clash>
0.0000

> <Gold.PLP.ligand.torsion>
1.1745

> <Gold.PLP.Chemscore.Hbond>
3.0000

> <Gold.PLP.Chemscore.CHOScore>
0.0000

> <Gold.PLP.Chemscore.Metal>
0.0000

> <Gold.Chemscore.Hbonds>
donor molecule, donor type, donor heavy atom, donor atom, acceptor molecule, acceptor atom, score
      L1  H     5    46       P1  8028  2.00
      L1  H    12    35       P1 10174  0.85

> <Gold.PLP.Chemscore.Internal.Correction>
0.3195

> <Gold.Rescore>
     Score         DG    S(hbond)    S(metal)    S(lipo)     H(rot)  DE(clash)    DE(int)     intcor
     13.45     -15.85       1.67        0.00      70.43       1.35       0.10       2.30       ----

> <Gold.Chemscore.Fitness>
13.4476

> <Gold.Chemscore.DG>
-15.8473

> <Gold.Chemscore.ZeroCoef>
-5.4800

> <Gold.Chemscore.Hbond>
1.6699

> <Gold.Chemscore.Metal>
0.0000

> <Gold.Chemscore.Lipo>
70.4325

> <Gold.Chemscore.Internal_Hbond>
0.0000

> <Gold.Chemscore.DEClash>
0.0971

> <Gold.Chemscore.DEInternal>
2.3026

> <Gold.Chemscore.Rot>
1.3480

> <Gold.Chemscore.Internal.Correction>
   9.000000E+99

> <Gold.Chemscore.Hbonds>
donor molecule, donor type, donor heavy atom, donor atom, acceptor molecule, acceptor atom, score
      L1  H     5    46       P1  8028  0.93
      L1  H    12    35       P1 10174  0.14

> <Gold.Chemscore.Hbond.Weighted>
-5.5776

> <Gold.Chemscore.Metal.Weighted>
-0.0000

> <Gold.Chemscore.Lipo.Weighted>
-8.2406

> <Gold.Chemscore.Internal_Hbond.Weighted>
0.0000

> <Gold.Chemscore.DEClash.Weighted>
0.0971

> <Gold.Chemscore.DEInternal.Weighted>
2.3026

> <Gold.Chemscore.Rot.Weighted>
3.4509

> <Gold.Chemscore.Internal.Correction.Weighted>
   9.000000E+99

> <Gold.Protein.RotatedTorsions>
[ 6907 6896 6895 6894 ] final  -58.14 input  -60.11 | X-H torsion
[ 7974 7965 7964 7962 ] final   77.63 input  175.53 | X-H torsion
[ 8008 7997 7996 7995 ] final  -18.33 input   59.86 | X-H torsion
[ 10167 10162 10161 10158 ] final   30.54 input  -65.29 | X-H torsion
[ 10718 10713 10712 10709 ] final  -42.55 input   66.30 | X-H torsion
[ 10763 10752 10751 10750 ] final -137.29 input  -60.55 | X-H torsion
[ 11005 11000 10999 10996 ] final   45.26 input  -57.11 | X-H torsion

> <Gold.Protein.ActiveResidues>
 VAL166  LYS551  ARG553  GLY616  TRP617  ASP618  TYR619  PRO620  LYS621  CYS622 
 ASP623  PHE694  ASN695  SER759  ASP760  ASP761  ALA762  ILE779  LEU786  VAL792 
 PHE793  MET794  SER795  GLU796  ALA797  LYS798  CYS799  TRP800  GLU811  SER814 

> <Gold.Protein.RotatedAtoms>
  150.8030  134.7136  159.6617 H   0  0  0  0  0  0  0  0  0  0  0  0  # atno 6907 bound_to 6896
  152.4148  134.6058  160.0022 H   0  0  0  0  0  0  0  0  0  0  0  0  # atno 6908 bound_to 6896
  151.6290  133.3296  159.3141 H   0  0  0  0  0  0  0  0  0  0  0  0  # atno 6909 bound_to 6896
  145.6875  139.2542  143.1779 H   0  0  0  0  0  0  0  0  0  0  0  0  # atno 7974 bound_to 7965
  154.4914  140.2118  155.9541 H   0  0  0  0  0  0  0  0  0  0  0  0  # atno 8008 bound_to 7997
  156.1310  140.3197  155.8317 H   0  0  0  0  0  0  0  0  0  0  0  0  # atno 8009 bound_to 7997
  155.4297  140.0502  157.3010 H   0  0  0  0  0  0  0  0  0  0  0  0  # atno 8010 bound_to 7997
  140.4668  144.0823  150.6226 H   0  0  0  0  0  0  0  0  0  0  0  0  # atno 10167 bound_to 10162
  156.2584  130.4194  149.8570 H   0  0  0  0  0  0  0  0  0  0  0  0  # atno 10718 bound_to 10713
  154.8665  135.3646  154.5199 H   0  0  0  0  0  0  0  0  0  0  0  0  # atno 10763 bound_to 10752
  153.5830  135.7018  153.5460 H   0  0  0  0  0  0  0  0  0  0  0  0  # atno 10764 bound_to 10752
  153.3440  135.4090  155.1557 H   0  0  0  0  0  0  0  0  0  0  0  0  # atno 10765 bound_to 10752
  140.1476  134.4502  155.8404 H   0  0  0  0  0  0  0  0  0  0  0  0  # atno 11005 bound_to 11000
  146.0911  140.7655  142.9595 LP  0  0  0  0  0  0  0  0  0  0  0  0  # atno 17320 bound_to 7965
  144.7007  140.3638  143.7158 LP  0  0  0  0  0  0  0  0  0  0  0  0  # atno 17321 bound_to 7965
  140.4026  143.2696  151.9929 LP  0  0  0  0  0  0  0  0  0  0  0  0  # atno 17342 bound_to 10162
  139.4813  144.5984  151.7648 LP  0  0  0  0  0  0  0  0  0  0  0  0  # atno 17343 bound_to 10162
  156.6094  130.8580  151.3450 LP  0  0  0  0  0  0  0  0  0  0  0  0  # atno 17370 bound_to 10713
  157.7241  130.9598  150.1561 LP  0  0  0  0  0  0  0  0  0  0  0  0  # atno 17371 bound_to 10713
  141.2195  133.6859  156.7363 LP  0  0  0  0  0  0  0  0  0  0  0  0  # atno 17394 bound_to 11000
  140.2644  134.8441  157.3789 LP  0  0  0  0  0  0  0  0  0  0  0  0  # atno 17395 bound_to 11000

$$$$
