AV-unprocessed.smi:2881|AV-procd|sdf|11069|dock2
  -GOLD-   2272015543D 1   1.00000     0.00000
 Structure written by MMmdl.
 40 42  0  0  0  0  0  0  0  0  1 V2000
  152.6936  144.6410  158.5674 C   0  0  0  0  0  0  0  0  0  0  0  0
  152.5636  143.1510  158.4494 C   0  0  0  0  0  0  0  0  0  0  0  0
  151.6495  142.4077  157.6464 C   0  0  0  0  0  0  0  0  0  0  0  0
  151.9587  141.1009  157.9027 C   0  0  0  0  0  0  0  0  0  0  0  0
  151.3754  139.8266  157.3789 C   0  0  0  0  0  0  0  0  0  0  0  0
  150.9586  139.9508  155.9101 C   0  0  0  0  0  0  0  0  0  0  0  0
  151.8079  140.0699  155.0264 O   0  0  0  0  0  0  0  0  0  0  0  0
  149.6400  139.9322  155.6622 N   0  0  0  0  0  0  0  0  0  0  0  0
  149.0360  140.0454  154.3339 C   0  0  2  0  0  0  0  0  0  0  0  0
  148.1857  141.3296  154.1485 C   0  0  2  0  0  0  0  0  0  0  0  0
  147.1802  141.5081  155.3058 C   0  0  0  0  0  0  0  0  0  0  0  0
  146.1679  140.3780  155.0471 C   0  0  0  0  0  0  0  0  0  0  0  0
  146.7073  139.7174  153.7608 C   0  0  1  0  0  0  0  0  0  0  0  0
  147.2496  140.9294  153.0126 C   0  0  0  0  0  0  0  0  0  0  0  0
  148.0110  138.9206  154.0146 C   0  0  2  0  0  0  0  0  0  0  0  0
  147.9088  137.7510  155.0193 C   0  0  0  0  0  0  0  0  0  0  0  0
  148.8349  136.7387  154.6863 O   0  0  0  0  0  0  0  0  0  0  0  0
  152.9919  141.1238  158.8124 N   0  0  0  0  0  0  0  0  0  0  0  0
  153.3704  142.3700  159.1520 N   0  0  0  0  0  0  0  0  0  0  0  0
  153.4439  140.3089  159.2023 H   0  0  0  0  0  0  0  0  0  0  0  0
  151.9186  145.1506  157.9944 H   0  0  0  0  0  0  0  0  0  0  0  0
  153.6599  144.9811  158.1941 H   0  0  0  0  0  0  0  0  0  0  0  0
  152.6038  144.9632  159.6050 H   0  0  0  0  0  0  0  0  0  0  0  0
  150.8859  142.7788  156.9787 H   0  0  0  0  0  0  0  0  0  0  0  0
  150.4975  139.5533  157.9647 H   0  0  0  0  0  0  0  0  0  0  0  0
  152.0945  139.0146  157.4971 H   0  0  0  0  0  0  0  0  0  0  0  0
  149.0092  139.8409  156.4451 H   0  0  0  0  0  0  0  0  0  0  0  0
  149.8296  140.0177  153.5842 H   0  0  0  0  0  0  0  0  0  0  0  0
  148.7820  142.2216  153.9532 H   0  0  0  0  0  0  0  0  0  0  0  0
  147.6335  141.4494  156.2952 H   0  0  0  0  0  0  0  0  0  0  0  0
  146.6881  142.4790  155.2354 H   0  0  0  0  0  0  0  0  0  0  0  0
  146.0827  139.6881  155.8850 H   0  0  0  0  0  0  0  0  0  0  0  0
  145.1758  140.7962  154.8727 H   0  0  0  0  0  0  0  0  0  0  0  0
  145.9523  139.1518  153.2139 H   0  0  0  0  0  0  0  0  0  0  0  0
  146.4884  141.6800  152.7919 H   0  0  0  0  0  0  0  0  0  0  0  0
  147.7735  140.6736  152.0898 H   0  0  0  0  0  0  0  0  0  0  0  0
  148.3091  138.4807  153.0608 H   0  0  0  0  0  0  0  0  0  0  0  0
  148.1395  138.1021  156.0255 H   0  0  0  0  0  0  0  0  0  0  0  0
  146.9078  137.3230  155.0565 H   0  0  0  0  0  0  0  0  0  0  0  0
  148.7436  136.5375  153.7676 H   0  0  0  0  0  0  0  0  0  0  0  0
  1 21  1  0  0  0  0
  1 22  1  0  0  0  0
  1 23  1  0  0  0  0
  1  2  1  0  0  0  0
  2 19  2  0  0  0  0
  2  3  1  0  0  0  0
  3  4  2  0  0  0  0
  3 24  1  0  0  0  0
  4 18  1  0  0  0  0
  4  5  1  0  0  0  0
  5  6  1  0  0  0  0
  5 25  1  0  0  0  0
  5 26  1  0  0  0  0
  6  7  2  0  0  0  0
  6  8  1  0  0  0  0
  8  9  1  0  0  0  0
  8 27  1  0  0  0  0
  9 15  1  0  0  0  0
  9 10  1  0  0  0  0
  9 28  1  0  0  0  0
 10 14  1  0  0  0  0
 10 11  1  0  0  0  0
 10 29  1  0  0  0  0
 11 12  1  0  0  0  0
 11 30  1  0  0  0  0
 11 31  1  0  0  0  0
 12 13  1  0  0  0  0
 12 32  1  0  0  0  0
 12 33  1  0  0  0  0
 13 14  1  0  0  0  0
 13 15  1  0  0  0  0
 13 34  1  0  0  0  0
 14 35  1  0  0  0  0
 14 36  1  0  0  0  0
 15 16  1  0  0  0  0
 15 37  1  0  0  0  0
 16 17  1  0  0  0  0
 16 38  1  0  0  0  0
 16 39  1  0  0  0  0
 17 40  1  0  0  0  0
 18 19  1  0  0  0  0
 18 20  1  0  0  0  0
M  END
> <s_m_source_file>
AV-unprocessed.smi

> <i_m_source_file_index>
2881

> <i_lp_mmshare_version>
43012

> <i_f3d_flags>
0

> <s_epik_input>
W0NIM11jMVtjSF1jKG5bbkhdMSlbQ0gyXUMoPU8pW05IXVtDQEhdKFtDQEBIXTIzKVtDQEhdKFtDSDJdW09IXSlbQ0BASF0oW0NIMl0zKVtDSDJdW0NIMl0y

> <s_epik_cmdline>
J2VwaWtfcHl0aG9uJywgJy1waCcsICc3LjAnLCAnLXRuJywgJzgnLCAnLW1hJywgJzIwMCcsICctbWV0YWxfYmluZGluZycsICctaW1hZScsICc8aW5maWxlLm1hZT4nLCAnLW9tYWUnLCAnPG91dGZpbGUubWFlPic=

> <r_lp_tautomer_probability>
0.5

> <r_epik_Ionization_Penalty>
0.00013396

> <r_epik_Ionization_Penalty_Charging>
0

> <r_epik_Ionization_Penalty_Neutral>
0.00013396

> <r_epik_State_Penalty>
0.41068

> <r_epik_Charging_Adjusted_Penalty>
0.41068

> <i_epik_Tot_Q>
0

> <i_epik_Tot_abs_Q>
0

> <r_epik_Metal_State_Penalty>
0.41066

> <b_epik_Metal_Only>
0

> <s_lp_Force_Field>
OPLS_2005

> <r_lp_Energy>
50.1234

> <b_lp_Chiralities_Consistent>
1

> <s_lp_Variant>
AV-unprocessed.smi:2881-15

> <Gold.Version>
5.8.1

> <Gold.Id.Protein>
6NUR|6NUR_protein|mol2

> <Gold.PLP.Fitness>
36.5227

> <Gold.PLP.PLP>
-32.6135

> <Gold.PLP.part.hbond>
-2.0000

> <Gold.PLP.part.metal>
0.0000

> <Gold.PLP.part.buried>
-4.5635

> <Gold.PLP.part.nonpolar>
-26.6378

> <Gold.PLP.part.repulsive>
0.1726

> <Gold.PLP.ligand.clash>
0.0000

> <Gold.PLP.ligand.torsion>
0.8236

> <Gold.PLP.Chemscore.Hbond>
1.8480

> <Gold.PLP.Chemscore.CHOScore>
0.0000

> <Gold.PLP.Chemscore.Metal>
0.0000

> <Gold.Chemscore.Hbonds>
donor molecule, donor type, donor heavy atom, donor atom, acceptor molecule, acceptor atom, score
      L1  H    17    40       P1  7948  1.00
      P1  H  7989  7998       L1     7  0.93

> <Gold.PLP.Chemscore.Internal.Correction>
0.0123

> <Gold.Rescore>
     Score         DG    S(hbond)    S(metal)    S(lipo)     H(rot)  DE(clash)    DE(int)     intcor
     15.39     -16.16       1.86        0.00      87.83       2.28       0.04       0.73       ----

> <Gold.Chemscore.Fitness>
15.3910

> <Gold.Chemscore.DG>
-16.1550

> <Gold.Chemscore.ZeroCoef>
-5.4800

> <Gold.Chemscore.Hbond>
1.8636

> <Gold.Chemscore.Metal>
0.0000

> <Gold.Chemscore.Lipo>
87.8284

> <Gold.Chemscore.Internal_Hbond>
0.0000

> <Gold.Chemscore.DEClash>
0.0375

> <Gold.Chemscore.DEInternal>
0.7265

> <Gold.Chemscore.Rot>
2.2755

> <Gold.Chemscore.Internal.Correction>
   9.000000E+99

> <Gold.Chemscore.Hbonds>
donor molecule, donor type, donor heavy atom, donor atom, acceptor molecule, acceptor atom, score
      L1  H    17    40       P1  7948  0.99
      P1  H  7989  7998       L1     7  0.90

> <Gold.Chemscore.Hbond.Weighted>
-6.2243

> <Gold.Chemscore.Metal.Weighted>
-0.0000

> <Gold.Chemscore.Lipo.Weighted>
-10.2759

> <Gold.Chemscore.Internal_Hbond.Weighted>
0.0000

> <Gold.Chemscore.DEClash.Weighted>
0.0375

> <Gold.Chemscore.DEInternal.Weighted>
0.7265

> <Gold.Chemscore.Rot.Weighted>
5.8252

> <Gold.Chemscore.Internal.Correction.Weighted>
   9.000000E+99

> <Gold.Protein.RotatedTorsions>
[ 6907 6896 6895 6894 ] final -124.50 input  -60.11 | X-H torsion
[ 7974 7965 7964 7962 ] final -147.41 input  175.53 | X-H torsion
[ 8008 7997 7996 7995 ] final  163.01 input   59.86 | X-H torsion
[ 10167 10162 10161 10158 ] final   67.16 input  -65.29 | X-H torsion
[ 10718 10713 10712 10709 ] final  -54.04 input   66.30 | X-H torsion
[ 10763 10752 10751 10750 ] final -173.41 input  -60.55 | X-H torsion
[ 11005 11000 10999 10996 ] final  -38.22 input  -57.11 | X-H torsion

> <Gold.Protein.ActiveResidues>
 VAL166  LYS551  ARG553  GLY616  TRP617  ASP618  TYR619  PRO620  LYS621  CYS622 
 ASP623  PHE694  ASN695  SER759  ASP760  ASP761  ALA762  ILE779  LEU786  VAL792 
 PHE793  MET794  SER795  GLU796  ALA797  LYS798  CYS799  TRP800  GLU811  SER814 

> <Gold.Protein.RotatedAtoms>
  150.8774  133.7419  159.2942 H   0  0  0  0  0  0  0  0  0  0  0  0  # atno 6907 bound_to 6896
  151.5011  135.1060  159.9839 H   0  0  0  0  0  0  0  0  0  0  0  0  # atno 6908 bound_to 6896
  152.4737  133.8043  159.7025 H   0  0  0  0  0  0  0  0  0  0  0  0  # atno 6909 bound_to 6896
  144.8095  140.5331  143.5652 H   0  0  0  0  0  0  0  0  0  0  0  0  # atno 7974 bound_to 7965
  156.1989  140.1735  156.7940 H   0  0  0  0  0  0  0  0  0  0  0  0  # atno 8008 bound_to 7997
  154.5566  140.0707  156.8784 H   0  0  0  0  0  0  0  0  0  0  0  0  # atno 8009 bound_to 7997
  155.2927  140.3356  155.4254 H   0  0  0  0  0  0  0  0  0  0  0  0  # atno 8010 bound_to 7997
  140.0926  144.4975  150.7089 H   0  0  0  0  0  0  0  0  0  0  0  0  # atno 10167 bound_to 10162
  156.1484  130.4152  149.9985 H   0  0  0  0  0  0  0  0  0  0  0  0  # atno 10718 bound_to 10713
  154.6081  135.2861  155.0462 H   0  0  0  0  0  0  0  0  0  0  0  0  # atno 10763 bound_to 10752
  154.1702  135.6474  153.5011 H   0  0  0  0  0  0  0  0  0  0  0  0  # atno 10764 bound_to 10752
  153.0184  135.5399  154.6825 H   0  0  0  0  0  0  0  0  0  0  0  0  # atno 10765 bound_to 10752
  141.0011  133.6955  156.2024 H   0  0  0  0  0  0  0  0  0  0  0  0  # atno 11005 bound_to 11000
  145.5357  139.1475  143.3475 LP  0  0  0  0  0  0  0  0  0  0  0  0  # atno 17320 bound_to 7965
  146.2392  140.5497  142.8941 LP  0  0  0  0  0  0  0  0  0  0  0  0  # atno 17321 bound_to 7965
  140.7021  143.2442  151.4835 LP  0  0  0  0  0  0  0  0  0  0  0  0  # atno 17342 bound_to 10162
  139.5716  144.1915  152.1845 LP  0  0  0  0  0  0  0  0  0  0  0  0  # atno 17343 bound_to 10162
  156.7850  130.9235  151.3646 LP  0  0  0  0  0  0  0  0  0  0  0  0  # atno 17370 bound_to 10713
  157.6636  130.8988  149.9883 LP  0  0  0  0  0  0  0  0  0  0  0  0  # atno 17371 bound_to 10713
  140.6887  134.4689  157.5589 LP  0  0  0  0  0  0  0  0  0  0  0  0  # atno 17394 bound_to 11000
  139.9039  134.8493  156.1783 LP  0  0  0  0  0  0  0  0  0  0  0  0  # atno 17395 bound_to 11000

$$$$
