AV-unprocessed.smi:3183|AV-procd|sdf|12156|dock4
  -GOLD-   2272017593D 1   1.00000     0.00000
 Structure written by MMmdl.
 43 44  0  0  0  0  0  0  0  0  2 V2000
  153.7201  141.8968  161.4189 C   0  0  0  0  0  0  0  0  0  0  0  0
  153.1124  142.0875  160.0195 C   0  0  1  0  0  0  0  0  0  0  0  0
  151.9661  141.0926  159.7530 C   0  0  0  0  0  0  0  0  0  0  0  0
  151.4240  141.2325  158.3221 C   0  0  0  0  0  0  0  0  0  0  0  0
  150.9691  142.6717  158.0206 C   0  0  2  0  0  0  0  0  0  0  0  0
  150.4928  142.7593  156.6221 N   0  3  0  0  0  0  0  0  0  0  0  0
  149.5940  141.6684  156.1897 C   0  0  0  0  0  0  0  0  0  0  0  0
  149.4309  141.6641  154.6626 C   0  0  0  0  0  0  0  0  0  0  0  0
  148.4371  140.6649  154.1529 C   0  0  0  0  0  0  0  0  0  0  0  0
  147.1916  140.8275  153.6096 C   0  0  0  0  0  0  0  0  0  0  0  0
  146.7584  139.5026  153.3278 C   0  0  0  0  0  0  0  0  0  0  0  0
  147.6557  138.5938  153.6660 N   0  0  0  0  0  0  0  0  0  0  0  0
  148.6864  139.3043  154.1706 N   0  0  0  0  0  0  0  0  0  0  0  0
  149.8622  138.6034  154.6498 C   0  0  0  0  0  0  0  0  0  0  0  0
  152.1212  143.6649  158.2954 C   0  0  0  0  0  0  0  0  0  0  0  0
  152.6777  143.5472  159.7306 C   0  0  1  0  0  0  0  0  0  0  0  0
  151.6996  144.1332  160.7693 C   0  0  0  0  0  0  0  0  0  0  0  0
  152.9756  142.0238  162.2052 H   0  0  0  0  0  0  0  0  0  0  0  0
  154.5252  142.6098  161.5996 H   0  0  0  0  0  0  0  0  0  0  0  0
  154.1386  140.8958  161.5270 H   0  0  0  0  0  0  0  0  0  0  0  0
  153.9073  141.8515  159.3099 H   0  0  0  0  0  0  0  0  0  0  0  0
  152.3187  140.0720  159.9062 H   0  0  0  0  0  0  0  0  0  0  0  0
  151.1590  141.2451  160.4703 H   0  0  0  0  0  0  0  0  0  0  0  0
  152.1989  140.9341  157.6142 H   0  0  0  0  0  0  0  0  0  0  0  0
  150.5937  140.5398  158.1791 H   0  0  0  0  0  0  0  0  0  0  0  0
  150.1266  142.9019  158.6742 H   0  0  0  0  0  0  0  0  0  0  0  0
  150.0286  143.6466  156.4892 H   0  0  0  0  0  0  0  0  0  0  0  0
  150.0033  140.7128  156.5201 H   0  0  0  0  0  0  0  0  0  0  0  0
  148.6192  141.7873  156.6626 H   0  0  0  0  0  0  0  0  0  0  0  0
  149.1322  142.6596  154.3320 H   0  0  0  0  0  0  0  0  0  0  0  0
  150.3988  141.4679  154.1998 H   0  0  0  0  0  0  0  0  0  0  0  0
  146.6633  141.7536  153.4374 H   0  0  0  0  0  0  0  0  0  0  0  0
  145.8256  139.1771  152.8915 H   0  0  0  0  0  0  0  0  0  0  0  0
  150.7589  139.0442  154.2136 H   0  0  0  0  0  0  0  0  0  0  0  0
  149.8214  137.5486  154.3734 H   0  0  0  0  0  0  0  0  0  0  0  0
  149.9172  138.6821  155.7358 H   0  0  0  0  0  0  0  0  0  0  0  0
  152.9293  143.4809  157.5859 H   0  0  0  0  0  0  0  0  0  0  0  0
  151.7982  144.6911  158.1207 H   0  0  0  0  0  0  0  0  0  0  0  0
  153.5740  144.1675  159.7734 H   0  0  0  0  0  0  0  0  0  0  0  0
  150.7865  143.5453  160.8554 H   0  0  0  0  0  0  0  0  0  0  0  0
  151.4105  145.1495  160.5007 H   0  0  0  0  0  0  0  0  0  0  0  0
  152.1525  144.1858  161.7592 H   0  0  0  0  0  0  0  0  0  0  0  0
  151.3060  142.7316  156.0237 H   0  0  0  0  0  0  0  0  0  0  0  0
  1  2  1  0  0  0  0
  1 18  1  0  0  0  0
  1 19  1  0  0  0  0
  1 20  1  0  0  0  0
  2 16  1  0  0  0  0
  2  3  1  0  0  0  0
  2 21  1  0  0  0  0
  3  4  1  0  0  0  0
  3 22  1  0  0  0  0
  3 23  1  0  0  0  0
  4  5  1  0  0  0  0
  4 24  1  0  0  0  0
  4 25  1  0  0  0  0
  5  6  1  0  0  0  0
  5 15  1  0  0  0  0
  5 26  1  0  0  0  0
  6  7  1  0  0  0  0
  6 27  1  0  0  0  0
  6 43  1  0  0  0  0
  7  8  1  0  0  0  0
  7 28  1  0  0  0  0
  7 29  1  0  0  0  0
  8  9  1  0  0  0  0
  8 30  1  0  0  0  0
  8 31  1  0  0  0  0
  9 13  1  0  0  0  0
  9 10  2  0  0  0  0
 10 11  1  0  0  0  0
 10 32  1  0  0  0  0
 11 12  2  0  0  0  0
 11 33  1  0  0  0  0
 12 13  1  0  0  0  0
 13 14  1  0  0  0  0
 14 34  1  0  0  0  0
 14 35  1  0  0  0  0
 14 36  1  0  0  0  0
 15 16  1  0  0  0  0
 15 37  1  0  0  0  0
 15 38  1  0  0  0  0
 16 17  1  0  0  0  0
 16 39  1  0  0  0  0
 17 40  1  0  0  0  0
 17 41  1  0  0  0  0
 17 42  1  0  0  0  0
M  CHG  1   6   1
M  END
> <s_m_source_file>
AV-unprocessed.smi

> <i_m_source_file_index>
3183

> <i_lp_mmshare_version>
43012

> <i_f3d_flags>
0

> <s_epik_input>
W0NIM11bQ0BASF0xW0NIMl1bQ0gyXVtDQEhdKFtDSDJdW0NASF0xW0NIM10pW05IXVtDSDJdW0NIMl1jMltjSF1bY0hdbm4yW0NIM10=

> <s_epik_cmdline>
J2VwaWtfcHl0aG9uJywgJy1waCcsICc3LjAnLCAnLXRuJywgJzgnLCAnLW1hJywgJzIwMCcsICctbWV0YWxfYmluZGluZycsICctaW1hZScsICc8aW5maWxlLm1hZT4nLCAnLW9tYWUnLCAnPG91dGZpbGUubWFlPic=

> <r_lp_tautomer_probability>
1

> <r_epik_Ionization_Penalty>
0.000327718

> <r_epik_Ionization_Penalty_Charging>
0.000294043

> <r_epik_Ionization_Penalty_Neutral>
3.36755e-05

> <r_epik_State_Penalty>
-0

> <r_epik_Charging_Adjusted_Penalty>
0.000294043

> <i_epik_Tot_Q>
1

> <i_epik_Tot_abs_Q>
1

> <r_epik_Metal_State_Penalty>
-0

> <b_epik_Metal_Only>
0

> <s_lp_Force_Field>
OPLS_2005

> <r_lp_Energy>
13.9595

> <b_lp_Chiralities_Consistent>
1

> <s_lp_Variant>
AV-unprocessed.smi:3183-4

> <Gold.Version>
5.8.1

> <Gold.Id.Protein>
6NUR|6NUR_protein|mol2

> <Gold.PLP.Fitness>
48.8590

> <Gold.PLP.PLP>
-40.3607

> <Gold.PLP.part.hbond>
-1.0000

> <Gold.PLP.part.metal>
0.0000

> <Gold.PLP.part.buried>
-0.4951

> <Gold.PLP.part.nonpolar>
-38.4651

> <Gold.PLP.part.repulsive>
0.2674

> <Gold.PLP.ligand.clash>
0.0000

> <Gold.PLP.ligand.torsion>
0.2573

> <Gold.PLP.Chemscore.Hbond>
2.0000

> <Gold.PLP.Chemscore.CHOScore>
1.0000

> <Gold.PLP.Chemscore.Metal>
0.0000

> <Gold.Chemscore.Hbonds>
donor molecule, donor type, donor heavy atom, donor atom, acceptor molecule, acceptor atom, score
      L1  H     6    27       P1  8028  2.00
      L1  C    11    33       P1 10175  0.98

> <Gold.PLP.Chemscore.Internal.Correction>
0.0130

> <Gold.Rescore>
     Score         DG    S(hbond)    S(metal)    S(lipo)     H(rot)  DE(clash)    DE(int)     intcor
     18.93     -19.75       0.98        0.00     124.02       1.38       0.18       0.64       ----

> <Gold.Chemscore.Fitness>
18.9286

> <Gold.Chemscore.DG>
-19.7496

> <Gold.Chemscore.ZeroCoef>
-5.4800

> <Gold.Chemscore.Hbond>
0.9833

> <Gold.Chemscore.Metal>
0.0000

> <Gold.Chemscore.Lipo>
124.0174

> <Gold.Chemscore.Internal_Hbond>
0.0000

> <Gold.Chemscore.DEClash>
0.1827

> <Gold.Chemscore.DEInternal>
0.6382

> <Gold.Chemscore.Rot>
1.3768

> <Gold.Chemscore.Internal.Correction>
   9.000000E+99

> <Gold.Chemscore.Hbonds>
donor molecule, donor type, donor heavy atom, donor atom, acceptor molecule, acceptor atom, score
      L1  H     6    27       P1  8028  0.98

> <Gold.Chemscore.Hbond.Weighted>
-3.2842

> <Gold.Chemscore.Metal.Weighted>
-0.0000

> <Gold.Chemscore.Lipo.Weighted>
-14.5100

> <Gold.Chemscore.Internal_Hbond.Weighted>
0.0000

> <Gold.Chemscore.DEClash.Weighted>
0.1827

> <Gold.Chemscore.DEInternal.Weighted>
0.6382

> <Gold.Chemscore.Rot.Weighted>
3.5247

> <Gold.Chemscore.Internal.Correction.Weighted>
   9.000000E+99

> <Gold.Protein.RotatedTorsions>
[ 6907 6896 6895 6894 ] final   11.14 input  -60.11 | X-H torsion
[ 7974 7965 7964 7962 ] final  -46.27 input  175.53 | X-H torsion
[ 8008 7997 7996 7995 ] final   55.89 input   59.86 | X-H torsion
[ 10167 10162 10161 10158 ] final    2.76 input  -65.29 | X-H torsion
[ 10718 10713 10712 10709 ] final  -89.43 input   66.30 | X-H torsion
[ 10763 10752 10751 10750 ] final   34.52 input  -60.55 | X-H torsion
[ 11005 11000 10999 10996 ] final -178.44 input  -57.11 | X-H torsion

> <Gold.Protein.ActiveResidues>
 VAL166  LYS551  ARG553  GLY616  TRP617  ASP618  TYR619  PRO620  LYS621  CYS622 
 ASP623  PHE694  ASN695  SER759  ASP760  ASP761  ALA762  ILE779  LEU786  VAL792 
 PHE793  MET794  SER795  GLU796  ALA797  LYS798  CYS799  TRP800  GLU811  SER814 

> <Gold.Protein.RotatedAtoms>
  151.7496  135.0836  160.0328 H   0  0  0  0  0  0  0  0  0  0  0  0  # atno 6907 bound_to 6896
  152.3426  133.6080  159.5895 H   0  0  0  0  0  0  0  0  0  0  0  0  # atno 6908 bound_to 6896
  150.7488  133.9615  159.3559 H   0  0  0  0  0  0  0  0  0  0  0  0  # atno 6909 bound_to 6896
  145.9736  140.7358  142.9398 H   0  0  0  0  0  0  0  0  0  0  0  0  # atno 7974 bound_to 7965
  155.5085  140.3476  155.4384 H   0  0  0  0  0  0  0  0  0  0  0  0  # atno 8008 bound_to 7997
  156.0866  140.1400  156.9673 H   0  0  0  0  0  0  0  0  0  0  0  0  # atno 8009 bound_to 7997
  154.4610  140.0935  156.6869 H   0  0  0  0  0  0  0  0  0  0  0  0  # atno 8010 bound_to 7997
  140.6619  143.7280  150.7755 H   0  0  0  0  0  0  0  0  0  0  0  0  # atno 10167 bound_to 10162
  155.9984  130.4872  150.5170 H   0  0  0  0  0  0  0  0  0  0  0  0  # atno 10718 bound_to 10713
  153.0160  135.6358  154.1681 H   0  0  0  0  0  0  0  0  0  0  0  0  # atno 10763 bound_to 10752
  154.1420  135.2834  155.3160 H   0  0  0  0  0  0  0  0  0  0  0  0  # atno 10764 bound_to 10752
  154.6117  135.5554  153.7542 H   0  0  0  0  0  0  0  0  0  0  0  0  # atno 10765 bound_to 10752
  140.4298  134.6529  157.4706 H   0  0  0  0  0  0  0  0  0  0  0  0  # atno 11005 bound_to 11000
  144.6843  140.2790  143.7295 LP  0  0  0  0  0  0  0  0  0  0  0  0  # atno 17320 bound_to 7965
  145.7871  139.1913  143.2124 LP  0  0  0  0  0  0  0  0  0  0  0  0  # atno 17321 bound_to 7965
  140.0951  143.4841  152.2457 LP  0  0  0  0  0  0  0  0  0  0  0  0  # atno 17342 bound_to 10162
  139.5856  144.7529  151.3529 LP  0  0  0  0  0  0  0  0  0  0  0  0  # atno 17343 bound_to 10162
  157.3136  131.0668  151.1983 LP  0  0  0  0  0  0  0  0  0  0  0  0  # atno 17370 bound_to 10713
  157.2921  130.6801  149.6119 LP  0  0  0  0  0  0  0  0  0  0  0  0  # atno 17371 bound_to 10713
  140.0142  134.6644  155.9334 LP  0  0  0  0  0  0  0  0  0  0  0  0  # atno 17394 bound_to 11000
  141.1750  133.6539  156.4795 LP  0  0  0  0  0  0  0  0  0  0  0  0  # atno 17395 bound_to 11000

$$$$
