AV-unprocessed.smi:87|AV-procd|sdf|821|dock4
  -GOLD-   2262017223D 1   1.00000     0.00000
 Structure written by MMmdl.
 58 60  0  0  0  0  0  0  0  0  1 V2000
  153.2815  141.5259  160.4538 C   0  0  0  0  0  0  0  0  0  0  0  0
  152.2562  142.5006  159.8557 C   0  0  0  0  0  0  0  0  0  0  0  0
  151.5898  142.0048  158.5504 C   0  0  0  0  0  0  0  0  0  0  0  0
  150.6240  143.0633  157.9709 C   0  0  0  0  0  0  0  0  0  0  0  0
  151.2424  144.4610  157.8217 C   0  0  0  0  0  0  0  0  0  0  0  0
  150.8507  140.6640  158.7927 C   0  0  0  0  0  0  0  0  0  0  0  0
  150.0064  140.2387  157.6728 N   0  0  0  0  0  0  0  0  0  0  0  0
  150.5719  140.3826  156.3330 C   0  0  0  0  0  0  0  0  0  0  0  0
  151.8632  139.5732  156.1428 C   0  0  0  0  0  0  0  0  0  0  0  0
  151.6186  138.2725  155.5035 C   0  0  0  0  0  0  0  0  0  0  0  0
  151.4258  137.2491  154.9997 N   0  0  0  0  0  0  0  0  0  0  0  0
  149.2553  139.1166  157.8200 C   0  0  0  0  0  0  0  0  0  0  0  0
  149.0870  138.5657  159.0523 N   0  0  0  0  0  0  0  0  0  0  0  0
  148.3829  137.4393  159.1973 C   0  0  0  0  0  0  0  0  0  0  0  0
  147.7814  136.7050  158.2597 N   0  0  0  0  0  0  0  0  0  0  0  0
  147.9453  137.2539  157.0224 C   0  0  0  0  0  0  0  0  0  0  0  0
  148.6532  138.4499  156.7170 C   0  0  0  0  0  0  0  0  0  0  0  0
  148.5932  138.7008  155.3513 N   0  0  0  0  0  0  0  0  0  0  0  0
  147.9118  137.6962  154.8727 C   0  0  0  0  0  0  0  0  0  0  0  0
  147.4993  136.7715  155.8051 N   0  0  0  0  0  0  0  0  0  0  0  0
  146.7632  135.5476  155.5489 C   0  0  0  0  0  0  0  0  0  0  0  0
  146.6478  135.2124  154.0448 C   0  0  1  0  0  0  0  0  0  0  0  0
  147.8318  134.5324  153.6791 O   0  0  0  0  0  0  0  0  0  0  0  0
  145.4253  134.3443  153.6635 C   0  0  2  0  0  0  0  0  0  0  0  0
  145.3503  133.9802  152.1776 C   0  0  0  0  0  0  0  0  0  0  0  0
  143.8736  133.7208  151.9905 C   0  0  0  0  0  0  0  0  0  0  0  0
  143.2617  134.8089  152.8637 C   0  0  0  0  0  0  0  0  0  0  0  0
  144.2005  135.0372  153.9097 O   0  0  0  0  0  0  0  0  0  0  0  0
  153.6379  141.8894  161.4177 H   0  0  0  0  0  0  0  0  0  0  0  0
  154.1540  141.4035  159.8134 H   0  0  0  0  0  0  0  0  0  0  0  0
  152.8409  140.5418  160.6162 H   0  0  0  0  0  0  0  0  0  0  0  0
  151.4925  142.6662  160.6160 H   0  0  0  0  0  0  0  0  0  0  0  0
  152.7240  143.4714  159.6888 H   0  0  0  0  0  0  0  0  0  0  0  0
  152.3795  141.8483  157.8153 H   0  0  0  0  0  0  0  0  0  0  0  0
  150.2392  142.7278  157.0071 H   0  0  0  0  0  0  0  0  0  0  0  0
  149.7552  143.1664  158.6192 H   0  0  0  0  0  0  0  0  0  0  0  0
  150.4890  145.1810  157.5019 H   0  0  0  0  0  0  0  0  0  0  0  0
  152.0405  144.4788  157.0806 H   0  0  0  0  0  0  0  0  0  0  0  0
  151.6536  144.8123  158.7684 H   0  0  0  0  0  0  0  0  0  0  0  0
  151.5866  139.8849  158.9954 H   0  0  0  0  0  0  0  0  0  0  0  0
  150.2284  140.7192  159.6852 H   0  0  0  0  0  0  0  0  0  0  0  0
  149.8425  140.0902  155.5783 H   0  0  0  0  0  0  0  0  0  0  0  0
  150.7752  141.4383  156.1526 H   0  0  0  0  0  0  0  0  0  0  0  0
  152.5755  140.1204  155.5256 H   0  0  0  0  0  0  0  0  0  0  0  0
  152.3444  139.3790  157.1015 H   0  0  0  0  0  0  0  0  0  0  0  0
  148.2963  137.0696  160.2083 H   0  0  0  0  0  0  0  0  0  0  0  0
  147.7060  137.5930  153.8172 H   0  0  0  0  0  0  0  0  0  0  0  0
  147.2597  134.7354  156.0814 H   0  0  0  0  0  0  0  0  0  0  0  0
  145.7699  135.6481  155.9886 H   0  0  0  0  0  0  0  0  0  0  0  0
  146.6153  136.1388  153.4702 H   0  0  0  0  0  0  0  0  0  0  0  0
  148.3470  135.1024  153.1291 H   0  0  0  0  0  0  0  0  0  0  0  0
  145.4149  133.4269  154.2544 H   0  0  0  0  0  0  0  0  0  0  0  0
  145.6602  134.8233  151.5583 H   0  0  0  0  0  0  0  0  0  0  0  0
  145.9691  133.1208  151.9180 H   0  0  0  0  0  0  0  0  0  0  0  0
  143.5538  133.7776  150.9498 H   0  0  0  0  0  0  0  0  0  0  0  0
  143.6138  132.7346  152.3777 H   0  0  0  0  0  0  0  0  0  0  0  0
  143.1456  135.7337  152.2976 H   0  0  0  0  0  0  0  0  0  0  0  0
  142.2850  134.5279  153.2583 H   0  0  0  0  0  0  0  0  0  0  0  0
  1  2  1  0  0  0  0
  1 29  1  0  0  0  0
  1 30  1  0  0  0  0
  1 31  1  0  0  0  0
  2  3  1  0  0  0  0
  2 32  1  0  0  0  0
  2 33  1  0  0  0  0
  3  4  1  0  0  0  0
  3  6  1  0  0  0  0
  3 34  1  0  0  0  0
  4  5  1  0  0  0  0
  4 35  1  0  0  0  0
  4 36  1  0  0  0  0
  5 37  1  0  0  0  0
  5 38  1  0  0  0  0
  5 39  1  0  0  0  0
  6  7  1  0  0  0  0
  6 40  1  0  0  0  0
  6 41  1  0  0  0  0
  7  8  1  0  0  0  0
  7 12  1  0  0  0  0
  8  9  1  0  0  0  0
  8 42  1  0  0  0  0
  8 43  1  0  0  0  0
  9 10  1  0  0  0  0
  9 44  1  0  0  0  0
  9 45  1  0  0  0  0
 10 11  3  0  0  0  0
 12 17  1  0  0  0  0
 12 13  2  0  0  0  0
 13 14  1  0  0  0  0
 14 15  2  0  0  0  0
 14 46  1  0  0  0  0
 15 16  1  0  0  0  0
 16 20  1  0  0  0  0
 16 17  2  0  0  0  0
 17 18  1  0  0  0  0
 18 19  2  0  0  0  0
 19 20  1  0  0  0  0
 19 47  1  0  0  0  0
 20 21  1  0  0  0  0
 21 22  1  0  0  0  0
 21 48  1  0  0  0  0
 21 49  1  0  0  0  0
 22 23  1  0  0  0  0
 22 24  1  0  0  0  0
 22 50  1  0  0  0  0
 23 51  1  0  0  0  0
 24 28  1  0  0  0  0
 24 25  1  0  0  0  0
 24 52  1  0  0  0  0
 25 26  1  0  0  0  0
 25 53  1  0  0  0  0
 25 54  1  0  0  0  0
 26 27  1  0  0  0  0
 26 55  1  0  0  0  0
 26 56  1  0  0  0  0
 27 28  1  0  0  0  0
 27 57  1  0  0  0  0
 27 58  1  0  0  0  0
M  END
> <s_m_source_file>
AV-unprocessed.smi

> <i_m_source_file_index>
87

> <i_lp_mmshare_version>
43012

> <i_f3d_flags>
0

> <s_epik_input>
W0NIM11bQ0gyXVtDSF0oW0NIMl1bQ0gzXSlbQ0gyXU4oW0NIMl1bQ0gyXUMjTiljKG5bY0hdbjEpYyhjMTIpbltjSF1uMltDSDJdW0NASF0oW09IXSlbQ0BASF0zW0NIMl1bQ0gyXVtDSDJdTzM=

> <s_epik_cmdline>
J2VwaWtfcHl0aG9uJywgJy1waCcsICc3LjAnLCAnLXRuJywgJzgnLCAnLW1hJywgJzIwMCcsICctbWV0YWxfYmluZGluZycsICctaW1hZScsICc8aW5maWxlLm1hZT4nLCAnLW9tYWUnLCAnPG91dGZpbGUubWFlPic=

> <r_lp_tautomer_probability>
1

> <r_epik_Ionization_Penalty>
0.000348566

> <r_epik_Ionization_Penalty_Charging>
0

> <r_epik_Ionization_Penalty_Neutral>
0.000348566

> <r_epik_State_Penalty>
-0

> <r_epik_Charging_Adjusted_Penalty>
0

> <i_epik_Tot_Q>
0

> <i_epik_Tot_abs_Q>
0

> <r_epik_Metal_State_Penalty>
-0

> <b_epik_Metal_Only>
0

> <s_lp_Force_Field>
OPLS_2005

> <r_lp_Energy>
32.9267

> <b_lp_Chiralities_Consistent>
1

> <s_lp_Variant>
AV-unprocessed.smi:87-2

> <Gold.Version>
5.8.1

> <Gold.Id.Protein>
6NUR|6NUR_protein|mol2

> <Gold.PLP.Fitness>
45.7242

> <Gold.PLP.PLP>
-38.6728

> <Gold.PLP.part.hbond>
-2.5425

> <Gold.PLP.part.metal>
0.0000

> <Gold.PLP.part.buried>
-4.9088

> <Gold.PLP.part.nonpolar>
-31.6687

> <Gold.PLP.part.repulsive>
0.2747

> <Gold.PLP.ligand.clash>
0.0000

> <Gold.PLP.ligand.torsion>
1.4219

> <Gold.PLP.Chemscore.Hbond>
1.9920

> <Gold.PLP.Chemscore.CHOScore>
1.0000

> <Gold.PLP.Chemscore.Metal>
0.0000

> <Gold.Chemscore.Hbonds>
donor molecule, donor type, donor heavy atom, donor atom, acceptor molecule, acceptor atom, score
      L1  H    23    51       P1  7948  1.00
      P1  H 10752 10764       L1    11  0.37
      L1  C    19    47       P1  7948  0.61

> <Gold.PLP.Chemscore.Internal.Correction>
0.9192

> <Gold.Rescore>
     Score         DG    S(hbond)    S(metal)    S(lipo)     H(rot)  DE(clash)    DE(int)     intcor
      9.93     -12.68       1.97        0.00      84.97       3.64       0.02       2.73       ----

> <Gold.Chemscore.Fitness>
9.9315

> <Gold.Chemscore.DG>
-12.6796

> <Gold.Chemscore.ZeroCoef>
-5.4800

> <Gold.Chemscore.Hbond>
1.9665

> <Gold.Chemscore.Metal>
0.0000

> <Gold.Chemscore.Lipo>
84.9730

> <Gold.Chemscore.Internal_Hbond>
0.0000

> <Gold.Chemscore.DEClash>
0.0174

> <Gold.Chemscore.DEInternal>
2.7307

> <Gold.Chemscore.Rot>
3.6368

> <Gold.Chemscore.Internal.Correction>
   9.000000E+99

> <Gold.Chemscore.Hbonds>
donor molecule, donor type, donor heavy atom, donor atom, acceptor molecule, acceptor atom, score
      L1  H    23    51       P1  7948  0.91
      P1  H 10752 10764       L1    11  0.36

> <Gold.Chemscore.Hbond.Weighted>
-6.5680

> <Gold.Chemscore.Metal.Weighted>
-0.0000

> <Gold.Chemscore.Lipo.Weighted>
-9.9418

> <Gold.Chemscore.Internal_Hbond.Weighted>
0.0000

> <Gold.Chemscore.DEClash.Weighted>
0.0174

> <Gold.Chemscore.DEInternal.Weighted>
2.7307

> <Gold.Chemscore.Rot.Weighted>
9.3102

> <Gold.Chemscore.Internal.Correction.Weighted>
   9.000000E+99

> <Gold.Protein.RotatedTorsions>
[ 6907 6896 6895 6894 ] final   46.54 input  -60.11 | X-H torsion
[ 7974 7965 7964 7962 ] final   18.89 input  175.53 | X-H torsion
[ 8008 7997 7996 7995 ] final  135.22 input   59.86 | X-H torsion
[ 10167 10162 10161 10158 ] final   26.22 input  -65.29 | X-H torsion
[ 10718 10713 10712 10709 ] final  132.46 input   66.30 | X-H torsion
[ 10763 10752 10751 10750 ] final  -55.99 input  -60.55 | X-H torsion
[ 11005 11000 10999 10996 ] final  118.42 input  -57.11 | X-H torsion

> <Gold.Protein.ActiveResidues>
 VAL166  LYS551  ARG553  GLY616  TRP617  ASP618  TYR619  PRO620  LYS621  CYS622 
 ASP623  PHE694  ASN695  SER759  ASP760  ASP761  ALA762  ILE779  LEU786  VAL792 
 PHE793  MET794  SER795  GLU796  ALA797  LYS798  CYS799  TRP800  GLU811  SER814 

> <Gold.Protein.RotatedAtoms>
  152.2576  134.8067  160.0435 H   0  0  0  0  0  0  0  0  0  0  0  0  # atno 6907 bound_to 6896
  151.8725  133.3473  159.3748 H   0  0  0  0  0  0  0  0  0  0  0  0  # atno 6908 bound_to 6896
  150.7105  134.5025  159.5612 H   0  0  0  0  0  0  0  0  0  0  0  0  # atno 6909 bound_to 6896
  146.2169  139.8391  142.8644 H   0  0  0  0  0  0  0  0  0  0  0  0  # atno 7974 bound_to 7965
  156.3002  140.2476  156.3546 H   0  0  0  0  0  0  0  0  0  0  0  0  # atno 8008 bound_to 7997
  154.8934  140.0408  157.1871 H   0  0  0  0  0  0  0  0  0  0  0  0  # atno 8009 bound_to 7997
  154.8575  140.2915  155.5564 H   0  0  0  0  0  0  0  0  0  0  0  0  # atno 8010 bound_to 7997
  140.5041  144.0268  150.6344 H   0  0  0  0  0  0  0  0  0  0  0  0  # atno 10167 bound_to 10162
  157.4869  131.1088  150.9608 H   0  0  0  0  0  0  0  0  0  0  0  0  # atno 10718 bound_to 10713
  154.1995  135.6413  153.5083 H   0  0  0  0  0  0  0  0  0  0  0  0  # atno 10763 bound_to 10752
  153.0015  135.5448  154.6330 H   0  0  0  0  0  0  0  0  0  0  0  0  # atno 10764 bound_to 10752
  154.5739  135.2919  155.0773 H   0  0  0  0  0  0  0  0  0  0  0  0  # atno 10765 bound_to 10752
  139.9109  134.9620  156.7500 H   0  0  0  0  0  0  0  0  0  0  0  0  # atno 11005 bound_to 11000
  145.2917  141.0169  143.3659 LP  0  0  0  0  0  0  0  0  0  0  0  0  # atno 17320 bound_to 7965
  144.9072  139.4574  143.6604 LP  0  0  0  0  0  0  0  0  0  0  0  0  # atno 17321 bound_to 7965
  140.3572  143.2929  152.0423 LP  0  0  0  0  0  0  0  0  0  0  0  0  # atno 17342 bound_to 10162
  139.4879  144.6330  151.7032 LP  0  0  0  0  0  0  0  0  0  0  0  0  # atno 17343 bound_to 10162
  157.0322  130.5716  149.5344 LP  0  0  0  0  0  0  0  0  0  0  0  0  # atno 17370 bound_to 10713
  156.0152  130.5246  150.8112 LP  0  0  0  0  0  0  0  0  0  0  0  0  # atno 17371 bound_to 10713
  140.6781  133.9499  155.7894 LP  0  0  0  0  0  0  0  0  0  0  0  0  # atno 17394 bound_to 11000
  141.0530  134.0457  157.3759 LP  0  0  0  0  0  0  0  0  0  0  0  0  # atno 17395 bound_to 11000

$$$$
