AV-unprocessed.smi:2590|AV-procd|sdf|10152|dock2
  -GOLD-   2272014163D 1   1.00000     0.00000
 Structure written by MMmdl.
 27 28  0  0  0  0  0  0  0  0  1 V2000
  152.8302  139.2106  155.4480 N   0  0  0  0  0  0  0  0  0  0  0  0
  151.6599  139.9682  155.5230 C   0  0  0  0  0  0  0  0  0  0  0  0
  150.8412  139.8934  154.4495 N   0  0  0  0  0  0  0  0  0  0  0  0
  149.7190  140.6442  154.4803 C   0  0  0  0  0  0  0  0  0  0  0  0
  149.4146  141.4753  155.5773 C   0  0  0  0  0  0  0  0  0  0  0  0
  150.2263  141.5543  156.6536 N   0  0  0  0  0  0  0  0  0  0  0  0
  151.3465  140.7939  156.6387 C   0  0  0  0  0  0  0  0  0  0  0  0
  152.2331  140.8881  157.8477 C   0  0  0  0  0  0  0  0  0  0  0  0
  152.8672  139.9008  158.2189 O   0  0  0  0  0  0  0  0  0  0  0  0
  152.3089  142.0848  158.4647 N   0  0  0  0  0  0  0  0  0  0  0  0
  153.1625  142.4711  159.5908 C   0  0  0  0  0  0  0  0  0  0  0  0
  152.3635  143.3010  160.6055 C   0  0  0  0  0  0  0  0  0  0  0  0
  151.6198  144.4382  159.8998 C   0  0  0  0  0  0  0  0  0  0  0  0
  150.8210  143.8767  158.7163 C   0  0  0  0  0  0  0  0  0  0  0  0
  151.7039  143.1924  157.8321 O   0  0  0  0  0  0  0  0  0  0  0  0
  153.5130  139.2164  156.1919 H   0  0  0  0  0  0  0  0  0  0  0  0
  153.0548  138.6734  154.6228 H   0  0  0  0  0  0  0  0  0  0  0  0
  149.0633  140.5860  153.6243 H   0  0  0  0  0  0  0  0  0  0  0  0
  148.5180  142.0769  155.5913 H   0  0  0  0  0  0  0  0  0  0  0  0
  153.5878  141.5951  160.0825 H   0  0  0  0  0  0  0  0  0  0  0  0
  153.9998  143.0538  159.2050 H   0  0  0  0  0  0  0  0  0  0  0  0
  151.6429  142.6562  161.1106 H   0  0  0  0  0  0  0  0  0  0  0  0
  153.0233  143.6971  161.3778 H   0  0  0  0  0  0  0  0  0  0  0  0
  150.9587  144.9516  160.5983 H   0  0  0  0  0  0  0  0  0  0  0  0
  152.3349  145.1782  159.5384 H   0  0  0  0  0  0  0  0  0  0  0  0
  150.0326  143.2088  159.0639 H   0  0  0  0  0  0  0  0  0  0  0  0
  150.3354  144.6863  158.1716 H   0  0  0  0  0  0  0  0  0  0  0  0
  1  2  1  0  0  0  0
  1 16  1  0  0  0  0
  1 17  1  0  0  0  0
  2  7  1  0  0  0  0
  2  3  2  0  0  0  0
  3  4  1  0  0  0  0
  4  5  2  0  0  0  0
  4 18  1  0  0  0  0
  5  6  1  0  0  0  0
  5 19  1  0  0  0  0
  6  7  2  0  0  0  0
  7  8  1  0  0  0  0
  8  9  2  0  0  0  0
  8 10  1  0  0  0  0
 10 15  1  0  0  0  0
 10 11  1  0  0  0  0
 11 12  1  0  0  0  0
 11 20  1  0  0  0  0
 11 21  1  0  0  0  0
 12 13  1  0  0  0  0
 12 22  1  0  0  0  0
 12 23  1  0  0  0  0
 13 14  1  0  0  0  0
 13 24  1  0  0  0  0
 13 25  1  0  0  0  0
 14 15  1  0  0  0  0
 14 26  1  0  0  0  0
 14 27  1  0  0  0  0
M  END
> <s_m_source_file>
AV-unprocessed.smi

> <i_m_source_file_index>
2590

> <i_lp_mmshare_version>
43012

> <i_f3d_flags>
0

> <s_epik_input>
W05IMl1jMW5bY0hdW2NIXW5jMUMoPU8pTjJbQ0gyXVtDSDJdW0NIMl1bQ0gyXU8y

> <s_epik_cmdline>
J2VwaWtfcHl0aG9uJywgJy1waCcsICc3LjAnLCAnLXRuJywgJzgnLCAnLW1hJywgJzIwMCcsICctbWV0YWxfYmluZGluZycsICctaW1hZScsICc8aW5maWxlLm1hZT4nLCAnLW9tYWUnLCAnPG91dGZpbGUubWFlPic=

> <r_lp_tautomer_probability>
1

> <r_epik_Ionization_Penalty>
4.08043e-05

> <r_epik_Ionization_Penalty_Charging>
0

> <r_epik_Ionization_Penalty_Neutral>
4.08043e-05

> <r_epik_State_Penalty>
-0

> <r_epik_Charging_Adjusted_Penalty>
0

> <i_epik_Tot_Q>
0

> <i_epik_Tot_abs_Q>
0

> <r_epik_Metal_State_Penalty>
-0

> <b_epik_Metal_Only>
0

> <s_epik_Chemistry_Notes>
This compound has a N-S or N-O group and may undergo hydrolysis at high or low pH.

> <s_lp_Force_Field>
OPLS_2005

> <r_lp_Energy>
28.4776

> <b_lp_Chiralities_Consistent>
1

> <s_lp_Variant>
AV-unprocessed.smi:2590-1

> <Gold.Version>
5.8.1

> <Gold.Id.Protein>
6NUR|6NUR_protein|mol2

> <Gold.PLP.Fitness>
37.5700

> <Gold.PLP.PLP>
-28.5312

> <Gold.PLP.part.hbond>
-2.0000

> <Gold.PLP.part.metal>
0.0000

> <Gold.PLP.part.buried>
-1.3107

> <Gold.PLP.part.nonpolar>
-24.5322

> <Gold.PLP.part.repulsive>
1.4334

> <Gold.PLP.ligand.clash>
0.0000

> <Gold.PLP.ligand.torsion>
0.4873

> <Gold.PLP.Chemscore.Hbond>
1.6300

> <Gold.PLP.Chemscore.CHOScore>
1.3846

> <Gold.PLP.Chemscore.Metal>
0.0000

> <Gold.Chemscore.Hbonds>
donor molecule, donor type, donor heavy atom, donor atom, acceptor molecule, acceptor atom, score
      P1  H  7989  7998       L1     3  0.68
      P1  H  7997  8010       L1     9  0.84
      L1  C     4    18       P1  7957  0.87
      L1  C     5    19       P1  8028  0.50

> <Gold.PLP.Chemscore.Internal.Correction>
0.9697

> <Gold.Rescore>
     Score         DG    S(hbond)    S(metal)    S(lipo)     H(rot)  DE(clash)    DE(int)     intcor
     12.09     -15.74       0.81        0.00      64.59       0.00       0.07       3.58       ----

> <Gold.Chemscore.Fitness>
12.0901

> <Gold.Chemscore.DG>
-15.7378

> <Gold.Chemscore.ZeroCoef>
-5.4800

> <Gold.Chemscore.Hbond>
0.8086

> <Gold.Chemscore.Metal>
0.0000

> <Gold.Chemscore.Lipo>
64.5910

> <Gold.Chemscore.Internal_Hbond>
0.0000

> <Gold.Chemscore.DEClash>
0.0712

> <Gold.Chemscore.DEInternal>
3.5766

> <Gold.Chemscore.Rot>
0.0000

> <Gold.Chemscore.Internal.Correction>
   9.000000E+99

> <Gold.Chemscore.Hbonds>
donor molecule, donor type, donor heavy atom, donor atom, acceptor molecule, acceptor atom, score
      P1  H  7989  7998       L1     3  0.02
      P1  H  7997  8010       L1     9  0.21

> <Gold.Chemscore.Hbond.Weighted>
-2.7007

> <Gold.Chemscore.Metal.Weighted>
-0.0000

> <Gold.Chemscore.Lipo.Weighted>
-7.5572

> <Gold.Chemscore.Internal_Hbond.Weighted>
0.0000

> <Gold.Chemscore.DEClash.Weighted>
0.0712

> <Gold.Chemscore.DEInternal.Weighted>
3.5766

> <Gold.Chemscore.Rot.Weighted>
0.0000

> <Gold.Chemscore.Internal.Correction.Weighted>
   9.000000E+99

> <Gold.Protein.RotatedTorsions>
[ 6907 6896 6895 6894 ] final -170.63 input  -60.11 | X-H torsion
[ 7974 7965 7964 7962 ] final -135.80 input  175.53 | X-H torsion
[ 8008 7997 7996 7995 ] final   40.26 input   59.86 | X-H torsion
[ 10167 10162 10161 10158 ] final  -13.59 input  -65.29 | X-H torsion
[ 10718 10713 10712 10709 ] final   84.37 input   66.30 | X-H torsion
[ 10763 10752 10751 10750 ] final   30.73 input  -60.55 | X-H torsion
[ 11005 11000 10999 10996 ] final  171.06 input  -57.11 | X-H torsion

> <Gold.Protein.ActiveResidues>
 VAL166  LYS551  ARG553  GLY616  TRP617  ASP618  TYR619  PRO620  LYS621  CYS622 
 ASP623  PHE694  ASN695  SER759  ASP760  ASP761  ALA762  ILE779  LEU786  VAL792 
 PHE793  MET794  SER795  GLU796  ALA797  LYS798  CYS799  TRP800  GLU811  SER814 

> <Gold.Protein.RotatedAtoms>
  151.5108  133.3485  159.2884 H   0  0  0  0  0  0  0  0  0  0  0  0  # atno 6907 bound_to 6896
  150.8713  134.8090  159.7168 H   0  0  0  0  0  0  0  0  0  0  0  0  # atno 6908 bound_to 6896
  152.4700  134.4992  159.9771 H   0  0  0  0  0  0  0  0  0  0  0  0  # atno 6909 bound_to 6896
  144.8982  140.6736  143.5102 H   0  0  0  0  0  0  0  0  0  0  0  0  # atno 7974 bound_to 7965
  155.2502  140.3352  155.4283 H   0  0  0  0  0  0  0  0  0  0  0  0  # atno 8008 bound_to 7997
  156.2219  140.1812  156.7501 H   0  0  0  0  0  0  0  0  0  0  0  0  # atno 8009 bound_to 7997
  154.5838  140.0649  156.9127 H   0  0  0  0  0  0  0  0  0  0  0  0  # atno 8010 bound_to 7997
  140.7185  143.5410  150.9409 H   0  0  0  0  0  0  0  0  0  0  0  0  # atno 10167 bound_to 10162
  157.6897  131.0130  150.2663 H   0  0  0  0  0  0  0  0  0  0  0  0  # atno 10718 bound_to 10713
  153.0355  135.6457  154.1090 H   0  0  0  0  0  0  0  0  0  0  0  0  # atno 10763 bound_to 10752
  154.0806  135.2873  155.3292 H   0  0  0  0  0  0  0  0  0  0  0  0  # atno 10764 bound_to 10752
  154.6533  135.5418  153.7992 H   0  0  0  0  0  0  0  0  0  0  0  0  # atno 10765 bound_to 10752
  140.3150  134.7485  157.4020 H   0  0  0  0  0  0  0  0  0  0  0  0  # atno 11005 bound_to 11000
  145.3662  139.1669  143.4356 LP  0  0  0  0  0  0  0  0  0  0  0  0  # atno 17320 bound_to 7965
  146.3093  140.3730  142.8676 LP  0  0  0  0  0  0  0  0  0  0  0  0  # atno 17321 bound_to 7965
  139.9132  143.6694  152.3111 LP  0  0  0  0  0  0  0  0  0  0  0  0  # atno 17342 bound_to 10162
  139.7085  144.7624  151.1152 LP  0  0  0  0  0  0  0  0  0  0  0  0  # atno 17343 bound_to 10162
  156.3233  130.3789  149.7555 LP  0  0  0  0  0  0  0  0  0  0  0  0  # atno 17370 bound_to 10713
  156.5118  130.8175  151.3171 LP  0  0  0  0  0  0  0  0  0  0  0  0  # atno 17371 bound_to 10713
  140.0991  134.5496  155.8369 LP  0  0  0  0  0  0  0  0  0  0  0  0  # atno 17394 bound_to 11000
  141.2100  133.6689  156.6476 LP  0  0  0  0  0  0  0  0  0  0  0  0  # atno 17395 bound_to 11000

$$$$
