AV-unprocessed.smi:173|AV-procd|sdf|1423|dock4
  -GOLD-   2262019193D 1   1.00000     0.00000
 Structure written by MMmdl.
 60 64  0  0  0  0  0  0  0  0  1 V2000
  146.1591  134.6485  150.6037 O   0  0  0  0  0  0  0  0  0  0  0  0
  144.8276  134.3662  150.9987 C   0  0  0  0  0  0  0  0  0  0  0  0
  144.1042  135.7151  151.2406 C   0  0  0  0  0  0  0  0  0  0  0  0
  144.5168  136.3939  152.4589 N   0  0  0  0  0  0  0  0  0  0  0  0
  144.0901  136.1232  153.7402 C   0  0  0  0  0  0  0  0  0  0  0  0
  144.6249  136.8620  154.6741 N   0  0  0  0  0  0  0  0  0  0  0  0
  145.4750  137.7130  153.9801 C   0  0  0  0  0  0  0  0  0  0  0  0
  146.3686  138.7442  154.3677 C   0  0  0  0  0  0  0  0  0  0  0  0
  146.5505  139.0821  155.6642 N   0  0  0  0  0  0  0  0  0  0  0  0
  147.7527  138.5210  156.2880 C   0  0  0  0  0  0  0  0  0  0  0  0
  149.0512  139.1691  155.7700 C   0  0  2  0  0  0  0  0  0  0  0  0
  149.6711  138.4312  154.5870 C   0  0  0  0  0  0  0  0  0  0  0  0
  151.1257  138.8706  154.6255 C   0  0  0  0  0  0  0  0  0  0  0  0
  151.3199  139.3788  156.0574 C   0  0  0  0  0  0  0  0  0  0  0  0
  150.0988  139.0933  156.7251 O   0  0  0  0  0  0  0  0  0  0  0  0
  146.1310  140.4578  155.9463 C   0  0  0  0  0  0  0  0  0  0  0  0
  144.6454  140.7483  155.7042 C   0  0  0  0  0  0  0  0  0  0  0  0
  144.5612  142.2773  155.5988 C   0  0  0  0  0  0  0  0  0  0  0  0
  145.9889  142.7795  155.3208 C   0  0  0  0  0  0  0  0  0  0  0  0
  146.8538  141.5303  155.1278 C   0  0  0  0  0  0  0  0  0  0  0  0
  147.0588  139.3917  153.3923 N   0  0  0  0  0  0  0  0  0  0  0  0
  146.8914  139.0405  152.1138 C   0  0  0  0  0  0  0  0  0  0  0  0
  146.1035  138.0901  151.6048 N   0  0  0  0  0  0  0  0  0  0  0  0
  145.4099  137.4431  152.5856 C   0  0  0  0  0  0  0  0  0  0  0  0
  144.1390  133.5830  149.8631 C   0  0  0  0  0  0  0  0  0  0  0  0
  144.7140  132.1640  149.7049 C   0  0  0  0  0  0  0  0  0  0  0  0
  144.6271  131.4644  150.9401 O   0  0  0  0  0  0  0  0  0  0  0  0
  145.4032  132.0689  151.9673 C   0  0  0  0  0  0  0  0  0  0  0  0
  144.8772  133.4842  152.2658 C   0  0  0  0  0  0  0  0  0  0  0  0
  146.1535  134.9249  149.6999 H   0  0  0  0  0  0  0  0  0  0  0  0
  144.2681  136.3908  150.3998 H   0  0  0  0  0  0  0  0  0  0  0  0
  143.0263  135.5555  151.2944 H   0  0  0  0  0  0  0  0  0  0  0  0
  143.3743  135.3452  153.9630 H   0  0  0  0  0  0  0  0  0  0  0  0
  147.6954  138.6063  157.3739 H   0  0  0  0  0  0  0  0  0  0  0  0
  147.7960  137.4546  156.0752 H   0  0  0  0  0  0  0  0  0  0  0  0
  148.8768  140.2129  155.5002 H   0  0  0  0  0  0  0  0  0  0  0  0
  149.6109  137.3535  154.7456 H   0  0  0  0  0  0  0  0  0  0  0  0
  149.1815  138.6607  153.6404 H   0  0  0  0  0  0  0  0  0  0  0  0
  151.7961  138.0441  154.3879 H   0  0  0  0  0  0  0  0  0  0  0  0
  151.3129  139.6721  153.9102 H   0  0  0  0  0  0  0  0  0  0  0  0
  152.1574  138.8970  156.5624 H   0  0  0  0  0  0  0  0  0  0  0  0
  151.4915  140.4561  156.0644 H   0  0  0  0  0  0  0  0  0  0  0  0
  146.3406  140.6718  156.9967 H   0  0  0  0  0  0  0  0  0  0  0  0
  144.3150  140.3097  154.7622 H   0  0  0  0  0  0  0  0  0  0  0  0
  144.0083  140.3495  156.4942 H   0  0  0  0  0  0  0  0  0  0  0  0
  143.8707  142.5741  154.8088 H   0  0  0  0  0  0  0  0  0  0  0  0
  144.1911  142.7053  156.5311 H   0  0  0  0  0  0  0  0  0  0  0  0
  146.0323  143.4388  154.4535 H   0  0  0  0  0  0  0  0  0  0  0  0
  146.3492  143.3474  156.1794 H   0  0  0  0  0  0  0  0  0  0  0  0
  147.8834  141.6804  155.4540 H   0  0  0  0  0  0  0  0  0  0  0  0
  146.8762  141.2778  154.0685 H   0  0  0  0  0  0  0  0  0  0  0  0
  147.4756  139.5975  151.3964 H   0  0  0  0  0  0  0  0  0  0  0  0
  143.0728  133.4995  150.0778 H   0  0  0  0  0  0  0  0  0  0  0  0
  144.2184  134.1257  148.9202 H   0  0  0  0  0  0  0  0  0  0  0  0
  144.1482  131.6153  148.9518 H   0  0  0  0  0  0  0  0  0  0  0  0
  145.7490  132.1937  149.3614 H   0  0  0  0  0  0  0  0  0  0  0  0
  145.3381  131.4521  152.8636 H   0  0  0  0  0  0  0  0  0  0  0  0
  146.4552  132.0934  151.6785 H   0  0  0  0  0  0  0  0  0  0  0  0
  145.4946  133.9450  153.0378 H   0  0  0  0  0  0  0  0  0  0  0  0
  143.8735  133.4003  152.6843 H   0  0  0  0  0  0  0  0  0  0  0  0
  1  2  1  0  0  0  0
  1 30  1  0  0  0  0
  2 29  1  0  0  0  0
  2  3  1  0  0  0  0
  2 25  1  0  0  0  0
  3  4  1  0  0  0  0
  3 31  1  0  0  0  0
  3 32  1  0  0  0  0
  4 24  1  0  0  0  0
  4  5  1  0  0  0  0
  5  6  2  0  0  0  0
  5 33  1  0  0  0  0
  6  7  1  0  0  0  0
  7 24  2  0  0  0  0
  7  8  1  0  0  0  0
  8  9  1  0  0  0  0
  8 21  2  0  0  0  0
  9 10  1  0  0  0  0
  9 16  1  0  0  0  0
 10 11  1  0  0  0  0
 10 34  1  0  0  0  0
 10 35  1  0  0  0  0
 11 15  1  0  0  0  0
 11 12  1  0  0  0  0
 11 36  1  0  0  0  0
 12 13  1  0  0  0  0
 12 37  1  0  0  0  0
 12 38  1  0  0  0  0
 13 14  1  0  0  0  0
 13 39  1  0  0  0  0
 13 40  1  0  0  0  0
 14 15  1  0  0  0  0
 14 41  1  0  0  0  0
 14 42  1  0  0  0  0
 16 20  1  0  0  0  0
 16 17  1  0  0  0  0
 16 43  1  0  0  0  0
 17 18  1  0  0  0  0
 17 44  1  0  0  0  0
 17 45  1  0  0  0  0
 18 19  1  0  0  0  0
 18 46  1  0  0  0  0
 18 47  1  0  0  0  0
 19 20  1  0  0  0  0
 19 48  1  0  0  0  0
 19 49  1  0  0  0  0
 20 50  1  0  0  0  0
 20 51  1  0  0  0  0
 21 22  1  0  0  0  0
 22 23  2  0  0  0  0
 22 52  1  0  0  0  0
 23 24  1  0  0  0  0
 25 26  1  0  0  0  0
 25 53  1  0  0  0  0
 25 54  1  0  0  0  0
 26 27  1  0  0  0  0
 26 55  1  0  0  0  0
 26 56  1  0  0  0  0
 27 28  1  0  0  0  0
 28 29  1  0  0  0  0
 28 57  1  0  0  0  0
 28 58  1  0  0  0  0
 29 59  1  0  0  0  0
 29 60  1  0  0  0  0
M  END
> <s_m_source_file>
AV-unprocessed.smi

> <i_m_source_file_index>
173

> <i_lp_mmshare_version>
43012

> <i_f3d_flags>
0

> <s_epik_input>
W0NIMl0xW0NIMl1PW0NIMl1bQ0gyXUMxKFtPSF0pW0NIMl1uKFtjSF1uMiljKGMyMyluW2NIXW5jM04oW0NIMl1bQ0BASF00W0NIMl1bQ0gyXVtDSDJdTzQpW0NIXTVbQ0gyXVtDSDJdW0NIMl1bQ0gyXTU=

> <s_epik_cmdline>
J2VwaWtfcHl0aG9uJywgJy1waCcsICc3LjAnLCAnLXRuJywgJzgnLCAnLW1hJywgJzIwMCcsICctbWV0YWxfYmluZGluZycsICctaW1hZScsICc8aW5maWxlLm1hZT4nLCAnLW9tYWUnLCAnPG91dGZpbGUubWFlPic=

> <r_lp_tautomer_probability>
1

> <r_epik_Ionization_Penalty>
0.0053129

> <r_epik_Ionization_Penalty_Charging>
0

> <r_epik_Ionization_Penalty_Neutral>
0.0053129

> <r_epik_State_Penalty>
0.00367355

> <r_epik_Charging_Adjusted_Penalty>
0.00367355

> <i_epik_Tot_Q>
0

> <i_epik_Tot_abs_Q>
0

> <r_epik_Metal_State_Penalty>
-0

> <b_epik_Metal_Only>
0

> <s_lp_Force_Field>
OPLS_2005

> <r_lp_Energy>
56.2303

> <b_lp_Chiralities_Consistent>
1

> <s_lp_Variant>
AV-unprocessed.smi:173-1

> <Gold.Version>
5.8.1

> <Gold.Id.Protein>
6NUR|6NUR_protein|mol2

> <Gold.PLP.Fitness>
39.0832

> <Gold.PLP.PLP>
-34.6350

> <Gold.PLP.part.hbond>
-1.0000

> <Gold.PLP.part.metal>
0.0000

> <Gold.PLP.part.buried>
-4.1907

> <Gold.PLP.part.nonpolar>
-31.9530

> <Gold.PLP.part.repulsive>
2.4473

> <Gold.PLP.ligand.clash>
0.0000

> <Gold.PLP.ligand.torsion>
1.3445

> <Gold.PLP.Chemscore.Hbond>
1.0000

> <Gold.PLP.Chemscore.CHOScore>
1.0000

> <Gold.PLP.Chemscore.Metal>
0.0000

> <Gold.Chemscore.Hbonds>
donor molecule, donor type, donor heavy atom, donor atom, acceptor molecule, acceptor atom, score
      L1  H     1    30       P1  7921  0.93
      L1  C    22    52       P1  7957  1.00

> <Gold.PLP.Chemscore.Internal.Correction>
1.1373

> <Gold.Rescore>
     Score         DG    S(hbond)    S(metal)    S(lipo)     H(rot)  DE(clash)    DE(int)     intcor
      5.95     -10.88       0.72        0.00      82.35       2.59       1.55       3.38       ----

> <Gold.Chemscore.Fitness>
5.9512

> <Gold.Chemscore.DG>
-10.8788

> <Gold.Chemscore.ZeroCoef>
-5.4800

> <Gold.Chemscore.Hbond>
0.7181

> <Gold.Chemscore.Metal>
0.0000

> <Gold.Chemscore.Lipo>
82.3489

> <Gold.Chemscore.Internal_Hbond>
0.0000

> <Gold.Chemscore.DEClash>
1.5491

> <Gold.Chemscore.DEInternal>
3.3785

> <Gold.Chemscore.Rot>
2.5916

> <Gold.Chemscore.Internal.Correction>
   9.000000E+99

> <Gold.Chemscore.Hbonds>
donor molecule, donor type, donor heavy atom, donor atom, acceptor molecule, acceptor atom, score
      L1  H     1    30       P1  7921  0.53

> <Gold.Chemscore.Hbond.Weighted>
-2.3986

> <Gold.Chemscore.Metal.Weighted>
-0.0000

> <Gold.Chemscore.Lipo.Weighted>
-9.6348

> <Gold.Chemscore.Internal_Hbond.Weighted>
0.0000

> <Gold.Chemscore.DEClash.Weighted>
1.5491

> <Gold.Chemscore.DEInternal.Weighted>
3.3785

> <Gold.Chemscore.Rot.Weighted>
6.6346

> <Gold.Chemscore.Internal.Correction.Weighted>
   9.000000E+99

> <Gold.Protein.RotatedTorsions>
[ 6907 6896 6895 6894 ] final  -74.93 input  -60.11 | X-H torsion
[ 7974 7965 7964 7962 ] final  169.27 input  175.53 | X-H torsion
[ 8008 7997 7996 7995 ] final  -50.43 input   59.86 | X-H torsion
[ 10167 10162 10161 10158 ] final  152.24 input  -65.29 | X-H torsion
[ 10718 10713 10712 10709 ] final   36.35 input   66.30 | X-H torsion
[ 10763 10752 10751 10750 ] final  158.40 input  -60.55 | X-H torsion
[ 11005 11000 10999 10996 ] final  108.39 input  -57.11 | X-H torsion

> <Gold.Protein.ActiveResidues>
 VAL166  LYS551  ARG553  GLY616  TRP617  ASP618  TYR619  PRO620  LYS621  CYS622 
 ASP623  PHE694  ASN695  SER759  ASP760  ASP761  ALA762  ILE779  LEU786  VAL792 
 PHE793  MET794  SER795  GLU796  ALA797  LYS798  CYS799  TRP800  GLU811  SER814 

> <Gold.Protein.RotatedAtoms>
  150.7076  134.4796  159.5463 H   0  0  0  0  0  0  0  0  0  0  0  0  # atno 6907 bound_to 6896
  152.2436  134.8201  160.0466 H   0  0  0  0  0  0  0  0  0  0  0  0  # atno 6908 bound_to 6896
  151.8974  133.3495  159.3856 H   0  0  0  0  0  0  0  0  0  0  0  0  # atno 6909 bound_to 6896
  144.7360  139.9030  143.6410 H   0  0  0  0  0  0  0  0  0  0  0  0  # atno 7974 bound_to 7965
  154.4062  140.1272  156.4664 H   0  0  0  0  0  0  0  0  0  0  0  0  # atno 8008 bound_to 7997
  155.7222  140.3492  155.5001 H   0  0  0  0  0  0  0  0  0  0  0  0  # atno 8009 bound_to 7997
  155.9204  140.1051  157.1201 H   0  0  0  0  0  0  0  0  0  0  0  0  # atno 8010 bound_to 7997
  139.4834  144.5374  151.7622 H   0  0  0  0  0  0  0  0  0  0  0  0  # atno 10167 bound_to 10162
  157.3338  130.7512  149.6865 H   0  0  0  0  0  0  0  0  0  0  0  0  # atno 10718 bound_to 10713
  154.2154  135.2784  155.2943 H   0  0  0  0  0  0  0  0  0  0  0  0  # atno 10763 bound_to 10752
  154.5745  135.5608  153.7129 H   0  0  0  0  0  0  0  0  0  0  0  0  # atno 10764 bound_to 10752
  153.0054  135.6329  154.2293 H   0  0  0  0  0  0  0  0  0  0  0  0  # atno 10765 bound_to 10752
  139.8843  134.9429  156.5964 H   0  0  0  0  0  0  0  0  0  0  0  0  # atno 11005 bound_to 11000
  146.1057  139.4057  143.0319 LP  0  0  0  0  0  0  0  0  0  0  0  0  # atno 17320 bound_to 7965
  145.7515  140.9971  143.1248 LP  0  0  0  0  0  0  0  0  0  0  0  0  # atno 17321 bound_to 7965
  140.4908  144.1312  150.5950 LP  0  0  0  0  0  0  0  0  0  0  0  0  # atno 17342 bound_to 10162
  140.4173  143.2628  151.9759 LP  0  0  0  0  0  0  0  0  0  0  0  0  # atno 17343 bound_to 10162
  155.9699  130.4187  150.4342 LP  0  0  0  0  0  0  0  0  0  0  0  0  # atno 17370 bound_to 10713
  157.2378  131.0518  151.2454 LP  0  0  0  0  0  0  0  0  0  0  0  0  # atno 17371 bound_to 10713
  140.7916  133.8577  155.8651 LP  0  0  0  0  0  0  0  0  0  0  0  0  # atno 17394 bound_to 11000
  140.9672  134.1579  157.4606 LP  0  0  0  0  0  0  0  0  0  0  0  0  # atno 17395 bound_to 11000

$$$$
