AV-unprocessed.smi:1535|AV-procd|sdf|6173|dock5
  -GOLD-   22720 6323D 1   1.00000     0.00000
 Structure written by MMmdl.
 46 47  0  0  0  0  0  0  0  0  1 V2000
  153.6993  142.8297  163.5351 C   0  0  0  0  0  0  0  0  0  0  0  0
  153.1150  143.0276  162.1476 C   0  0  0  0  0  0  0  0  0  0  0  0
  152.3265  144.1717  161.8913 C   0  0  0  0  0  0  0  0  0  0  0  0
  151.7667  144.3942  160.6140 C   0  0  0  0  0  0  0  0  0  0  0  0
  150.9757  145.4303  160.1483 N   0  0  0  0  0  0  0  0  0  0  0  0
  150.7813  145.0705  158.8830 C   0  0  0  0  0  0  0  0  0  0  0  0
  151.3520  143.9216  158.4733 N   0  0  0  0  0  0  0  0  0  0  0  0
  151.2773  143.3381  157.1454 C   0  0  0  0  0  0  0  0  0  0  0  0
  150.3387  142.1177  157.0907 C   0  0  1  0  0  0  0  0  0  0  0  0
  148.9980  142.5582  157.1885 O   0  0  0  0  0  0  0  0  0  0  0  0
  150.5071  141.3341  155.7715 C   0  0  0  0  0  0  0  0  0  0  0  0
  149.5250  140.2736  155.5265 N   0  0  0  0  0  0  0  0  0  0  0  0
  149.0268  140.3690  154.1582 C   0  0  0  0  0  0  0  0  0  0  0  0
  150.0716  138.9381  155.7935 C   0  0  0  0  0  0  0  0  0  0  0  0
  151.0011  138.3731  154.7020 C   0  0  1  0  0  0  0  0  0  0  0  0
  152.4022  138.9902  154.7957 C   0  0  0  0  0  0  0  0  0  0  0  0
  151.0779  136.9038  154.7620 C   0  0  0  0  0  0  0  0  0  0  0  0
  151.1390  135.7493  154.8092 N   0  0  0  0  0  0  0  0  0  0  0  0
  152.0189  143.4329  159.5918 C   0  0  0  0  0  0  0  0  0  0  0  0
  152.8009  142.2900  159.8352 C   0  0  0  0  0  0  0  0  0  0  0  0
  153.3518  142.0826  161.1172 C   0  0  0  0  0  0  0  0  0  0  0  0
  154.1944  140.8448  161.3699 C   0  0  0  0  0  0  0  0  0  0  0  0
  153.4619  143.6682  164.1905 H   0  0  0  0  0  0  0  0  0  0  0  0
  154.7849  142.7430  163.4849 H   0  0  0  0  0  0  0  0  0  0  0  0
  153.2996  141.9240  163.9916 H   0  0  0  0  0  0  0  0  0  0  0  0
  152.1449  144.8914  162.6758 H   0  0  0  0  0  0  0  0  0  0  0  0
  150.1904  145.6775  158.2128 H   0  0  0  0  0  0  0  0  0  0  0  0
  150.9543  144.1056  156.4407 H   0  0  0  0  0  0  0  0  0  0  0  0
  152.2857  143.0480  156.8474 H   0  0  0  0  0  0  0  0  0  0  0  0
  150.5531  141.4889  157.9532 H   0  0  0  0  0  0  0  0  0  0  0  0
  148.8394  143.1937  156.5076 H   0  0  0  0  0  0  0  0  0  0  0  0
  150.4726  142.0560  154.9539 H   0  0  0  0  0  0  0  0  0  0  0  0
  151.5084  140.9017  155.7361 H   0  0  0  0  0  0  0  0  0  0  0  0
  148.2128  139.6673  153.9813 H   0  0  0  0  0  0  0  0  0  0  0  0
  149.8178  140.1682  153.4344 H   0  0  0  0  0  0  0  0  0  0  0  0
  148.6312  141.3656  153.9587 H   0  0  0  0  0  0  0  0  0  0  0  0
  150.5998  138.9477  156.7482 H   0  0  0  0  0  0  0  0  0  0  0  0
  149.2606  138.2224  155.9127 H   0  0  0  0  0  0  0  0  0  0  0  0
  150.6053  138.6186  153.7175 H   0  0  0  0  0  0  0  0  0  0  0  0
  153.0492  138.6101  154.0049 H   0  0  0  0  0  0  0  0  0  0  0  0
  152.8731  138.7574  155.7513 H   0  0  0  0  0  0  0  0  0  0  0  0
  152.3618  140.0753  154.6973 H   0  0  0  0  0  0  0  0  0  0  0  0
  152.9768  141.5801  159.0409 H   0  0  0  0  0  0  0  0  0  0  0  0
  154.2304  140.2014  160.4903 H   0  0  0  0  0  0  0  0  0  0  0  0
  153.7815  140.2613  162.1928 H   0  0  0  0  0  0  0  0  0  0  0  0
  155.2169  141.1258  161.6224 H   0  0  0  0  0  0  0  0  0  0  0  0
  1  2  1  0  0  0  0
  1 23  1  0  0  0  0
  1 24  1  0  0  0  0
  1 25  1  0  0  0  0
  2 21  1  0  0  0  0
  2  3  2  0  0  0  0
  3  4  1  0  0  0  0
  3 26  1  0  0  0  0
  4 19  2  0  0  0  0
  4  5  1  0  0  0  0
  5  6  2  0  0  0  0
  6  7  1  0  0  0  0
  6 27  1  0  0  0  0
  7  8  1  0  0  0  0
  7 19  1  0  0  0  0
  8  9  1  0  0  0  0
  8 28  1  0  0  0  0
  8 29  1  0  0  0  0
  9 10  1  0  0  0  0
  9 11  1  0  0  0  0
  9 30  1  0  0  0  0
 10 31  1  0  0  0  0
 11 12  1  0  0  0  0
 11 32  1  0  0  0  0
 11 33  1  0  0  0  0
 12 13  1  0  0  0  0
 12 14  1  0  0  0  0
 13 34  1  0  0  0  0
 13 35  1  0  0  0  0
 13 36  1  0  0  0  0
 14 15  1  0  0  0  0
 14 37  1  0  0  0  0
 14 38  1  0  0  0  0
 15 16  1  0  0  0  0
 15 17  1  0  0  0  0
 15 39  1  0  0  0  0
 16 40  1  0  0  0  0
 16 41  1  0  0  0  0
 16 42  1  0  0  0  0
 17 18  3  0  0  0  0
 19 20  1  0  0  0  0
 20 21  2  0  0  0  0
 20 43  1  0  0  0  0
 21 22  1  0  0  0  0
 22 44  1  0  0  0  0
 22 45  1  0  0  0  0
 22 46  1  0  0  0  0
M  END
> <s_m_source_file>
AV-unprocessed.smi

> <i_m_source_file_index>
1535

> <i_lp_mmshare_version>
43012

> <i_f3d_flags>
0

> <s_epik_input>
W0NIM11jKFtjSF0xKWMoW0NIM10pW2NIXWMoYzEyKW4oW2NIXW4yKVtDSDJdW0NASF0oW09IXSlbQ0gyXU4oW0NIM10pW0NIMl1bQ0BIXShbQ0gzXSlDI04=

> <s_epik_cmdline>
J2VwaWtfcHl0aG9uJywgJy1waCcsICc3LjAnLCAnLXRuJywgJzgnLCAnLW1hJywgJzIwMCcsICctbWV0YWxfYmluZGluZycsICctaW1hZScsICc8aW5maWxlLm1hZT4nLCAnLW9tYWUnLCAnPG91dGZpbGUubWFlPic=

> <r_epik_Ionization_Penalty>
0.098511

> <r_epik_Ionization_Penalty_Charging>
0

> <r_epik_Ionization_Penalty_Neutral>
0.098511

> <r_epik_State_Penalty>
0.0881608

> <r_epik_Charging_Adjusted_Penalty>
0.0881608

> <i_epik_Tot_Q>
0

> <i_epik_Tot_abs_Q>
0

> <r_epik_Metal_State_Penalty>
0.0128087

> <b_epik_Metal_Only>
0

> <s_lp_Force_Field>
OPLS_2005

> <r_lp_Energy>
24.0286

> <b_lp_Chiralities_Consistent>
1

> <s_lp_Variant>
AV-unprocessed.smi:1535-4

> <Gold.Version>
5.8.1

> <Gold.Id.Protein>
6NUR|6NUR_protein|mol2

> <Gold.PLP.Fitness>
62.8107

> <Gold.PLP.PLP>
-56.2527

> <Gold.PLP.part.hbond>
-2.0000

> <Gold.PLP.part.metal>
0.0000

> <Gold.PLP.part.buried>
-3.8386

> <Gold.PLP.part.nonpolar>
-50.6607

> <Gold.PLP.part.repulsive>
0.4432

> <Gold.PLP.ligand.clash>
0.0000

> <Gold.PLP.ligand.torsion>
1.2436

> <Gold.PLP.Chemscore.Hbond>
2.0000

> <Gold.PLP.Chemscore.CHOScore>
0.9862

> <Gold.PLP.Chemscore.Metal>
0.0000

> <Gold.Chemscore.Hbonds>
donor molecule, donor type, donor heavy atom, donor atom, acceptor molecule, acceptor atom, score
      L1  H    10    31       P1  8028  1.00
      P1  H 10752 10763       L1    18  1.00
      L1  C     6    27       P1  8029  1.00

> <Gold.PLP.Chemscore.Internal.Correction>
0.0867

> <Gold.Rescore>
     Score         DG    S(hbond)    S(metal)    S(lipo)     H(rot)  DE(clash)    DE(int)     intcor
     19.40     -21.02       1.56        0.00     143.13       2.51       0.51       1.11       ----

> <Gold.Chemscore.Fitness>
19.4011

> <Gold.Chemscore.DG>
-21.0191

> <Gold.Chemscore.ZeroCoef>
-5.4800

> <Gold.Chemscore.Hbond>
1.5636

> <Gold.Chemscore.Metal>
0.0000

> <Gold.Chemscore.Lipo>
143.1259

> <Gold.Chemscore.Internal_Hbond>
0.0000

> <Gold.Chemscore.DEClash>
0.5092

> <Gold.Chemscore.DEInternal>
1.1089

> <Gold.Chemscore.Rot>
2.5113

> <Gold.Chemscore.Internal.Correction>
   9.000000E+99

> <Gold.Chemscore.Hbonds>
donor molecule, donor type, donor heavy atom, donor atom, acceptor molecule, acceptor atom, score
      L1  H    10    31       P1  8028  0.94
      P1  H 10752 10763       L1    18  0.25

> <Gold.Chemscore.Hbond.Weighted>
-5.2223

> <Gold.Chemscore.Metal.Weighted>
-0.0000

> <Gold.Chemscore.Lipo.Weighted>
-16.7457

> <Gold.Chemscore.Internal_Hbond.Weighted>
0.0000

> <Gold.Chemscore.DEClash.Weighted>
0.5092

> <Gold.Chemscore.DEInternal.Weighted>
1.1089

> <Gold.Chemscore.Rot.Weighted>
6.4289

> <Gold.Chemscore.Internal.Correction.Weighted>
   9.000000E+99

> <Gold.Protein.RotatedTorsions>
[ 6907 6896 6895 6894 ] final  152.38 input  -60.11 | X-H torsion
[ 7974 7965 7964 7962 ] final   27.30 input  175.53 | X-H torsion
[ 8008 7997 7996 7995 ] final -120.12 input   59.86 | X-H torsion
[ 10167 10162 10161 10158 ] final -177.06 input  -65.29 | X-H torsion
[ 10718 10713 10712 10709 ] final   87.11 input   66.30 | X-H torsion
[ 10763 10752 10751 10750 ] final   69.13 input  -60.55 | X-H torsion
[ 11005 11000 10999 10996 ] final    4.03 input  -57.11 | X-H torsion

> <Gold.Protein.ActiveResidues>
 VAL166  LYS551  ARG553  GLY616  TRP617  ASP618  TYR619  PRO620  LYS621  CYS622 
 ASP623  PHE694  ASN695  SER759  ASP760  ASP761  ALA762  ILE779  LEU786  VAL792 
 PHE793  MET794  SER795  GLU796  ALA797  LYS798  CYS799  TRP800  GLU811  SER814 

> <Gold.Protein.RotatedAtoms>
  152.0876  133.4184  159.4528 H   0  0  0  0  0  0  0  0  0  0  0  0  # atno 6907 bound_to 6896
  150.6862  134.2910  159.4676 H   0  0  0  0  0  0  0  0  0  0  0  0  # atno 6908 bound_to 6896
  152.0758  134.9503  160.0624 H   0  0  0  0  0  0  0  0  0  0  0  0  # atno 6909 bound_to 6896
  146.1792  139.7210  142.8913 H   0  0  0  0  0  0  0  0  0  0  0  0  # atno 7974 bound_to 7965
  155.1267  140.0399  157.2764 H   0  0  0  0  0  0  0  0  0  0  0  0  # atno 8008 bound_to 7997
  154.6573  140.2583  155.7122 H   0  0  0  0  0  0  0  0  0  0  0  0  # atno 8009 bound_to 7997
  156.2604  140.2824  156.1031 H   0  0  0  0  0  0  0  0  0  0  0  0  # atno 8010 bound_to 7997
  139.5498  144.2138  152.1057 H   0  0  0  0  0  0  0  0  0  0  0  0  # atno 10167 bound_to 10162
  157.6936  131.0242  150.3074 H   0  0  0  0  0  0  0  0  0  0  0  0  # atno 10718 bound_to 10713
  153.0271  135.5222  154.7241 H   0  0  0  0  0  0  0  0  0  0  0  0  # atno 10763 bound_to 10752
  154.6288  135.2898  155.0243 H   0  0  0  0  0  0  0  0  0  0  0  0  # atno 10764 bound_to 10752
  154.1203  135.6608  153.4954 H   0  0  0  0  0  0  0  0  0  0  0  0  # atno 10765 bound_to 10752
  140.5865  133.9964  155.8070 H   0  0  0  0  0  0  0  0  0  0  0  0  # atno 11005 bound_to 11000
  145.4126  141.0398  143.3008 LP  0  0  0  0  0  0  0  0  0  0  0  0  # atno 17320 bound_to 7965
  144.8286  139.5667  143.6954 LP  0  0  0  0  0  0  0  0  0  0  0  0  # atno 17321 bound_to 7965
  140.1631  144.5007  150.6621 LP  0  0  0  0  0  0  0  0  0  0  0  0  # atno 17342 bound_to 10162
  140.6758  143.2304  151.5511 LP  0  0  0  0  0  0  0  0  0  0  0  0  # atno 17343 bound_to 10162
  156.3580  130.3842  149.7274 LP  0  0  0  0  0  0  0  0  0  0  0  0  # atno 17370 bound_to 10713
  156.4730  130.8005  151.3022 LP  0  0  0  0  0  0  0  0  0  0  0  0  # atno 17371 bound_to 10713
  141.0962  133.9839  157.3155 LP  0  0  0  0  0  0  0  0  0  0  0  0  # atno 17394 bound_to 11000
  139.9293  135.0200  156.8345 LP  0  0  0  0  0  0  0  0  0  0  0  0  # atno 17395 bound_to 11000

$$$$
