AV-unprocessed.smi:2159|AV-procd|sdf|8791|dock7
  -GOLD-   2272011573D 1   1.00000     0.00000
 Structure written by MMmdl.
 47 49  0  0  0  0  0  0  0  0  1 V2000
  150.7525  136.4603  156.6606 O   0  0  0  0  0  0  0  0  0  0  0  0
  150.4289  137.6174  156.9289 C   0  0  0  0  0  0  0  0  0  0  0  0
  150.4063  138.6812  155.8304 C   0  0  0  0  0  0  0  0  0  0  0  0
  151.7234  139.4800  155.7800 C   0  0  0  0  0  0  0  0  0  0  0  0
  151.7781  140.4898  156.8387 N   0  0  0  0  0  0  0  0  0  0  0  0
  151.0009  141.5885  156.8805 C   0  0  0  0  0  0  0  0  0  0  0  0
  150.0798  141.8792  156.1182 O   0  0  0  0  0  0  0  0  0  0  0  0
  151.4910  142.4938  158.0007 C   0  0  1  0  0  0  0  0  0  0  0  0
  150.5452  143.3602  158.8337 C   0  0  0  0  0  0  0  0  0  0  0  0
  151.4265  144.1359  159.8483 C   0  0  0  0  0  0  0  0  0  0  0  0
  152.4075  143.2339  160.6543 C   0  0  0  0  0  0  0  0  0  0  0  0
  153.2064  142.2300  159.7811 C   0  0  0  0  0  0  0  0  0  0  0  0
  152.1895  141.4972  158.9049 C   0  0  2  0  0  0  0  0  0  0  0  0
  152.5922  140.4192  157.9094 C   0  0  0  0  0  0  0  0  0  0  0  0
  153.4744  139.5874  158.1206 O   0  0  0  0  0  0  0  0  0  0  0  0
  150.1119  138.0300  158.1668 N   0  0  0  0  0  0  0  0  0  0  0  0
  150.2034  137.2184  159.3784 C   0  0  0  0  0  0  0  0  0  0  0  0
  149.1987  136.0477  159.3816 C   0  0  0  0  0  0  0  0  0  0  0  0
  148.6416  135.7151  160.7566 C   0  0  0  0  0  0  0  0  0  0  0  0
  148.5410  134.3741  161.1837 C   0  0  0  0  0  0  0  0  0  0  0  0
  148.0660  134.1185  162.4845 C   0  0  0  0  0  0  0  0  0  0  0  0
  147.7106  135.2075  163.3037 C   0  0  0  0  0  0  0  0  0  0  0  0
  147.8452  136.5098  162.7831 C   0  0  0  0  0  0  0  0  0  0  0  0
  148.3009  136.7658  161.5382 N   0  0  0  0  0  0  0  0  0  0  0  0
  150.2208  138.1974  154.8709 H   0  0  0  0  0  0  0  0  0  0  0  0
  149.5688  139.3583  156.0063 H   0  0  0  0  0  0  0  0  0  0  0  0
  152.5781  138.8078  155.8771 H   0  0  0  0  0  0  0  0  0  0  0  0
  151.8362  139.9566  154.8043 H   0  0  0  0  0  0  0  0  0  0  0  0
  152.2256  143.1530  157.5323 H   0  0  0  0  0  0  0  0  0  0  0  0
  149.9936  144.0547  158.1993 H   0  0  0  0  0  0  0  0  0  0  0  0
  149.8089  142.7447  159.3525 H   0  0  0  0  0  0  0  0  0  0  0  0
  152.0093  144.8806  159.3048 H   0  0  0  0  0  0  0  0  0  0  0  0
  150.7925  144.6973  160.5351 H   0  0  0  0  0  0  0  0  0  0  0  0
  153.0972  143.8562  161.2253 H   0  0  0  0  0  0  0  0  0  0  0  0
  151.8319  142.6726  161.3914 H   0  0  0  0  0  0  0  0  0  0  0  0
  153.9430  142.7512  159.1685 H   0  0  0  0  0  0  0  0  0  0  0  0
  153.7523  141.5278  160.4121 H   0  0  0  0  0  0  0  0  0  0  0  0
  151.4629  141.0171  159.5644 H   0  0  0  0  0  0  0  0  0  0  0  0
  149.8576  138.9996  158.2891 H   0  0  0  0  0  0  0  0  0  0  0  0
  151.2186  136.8289  159.4559 H   0  0  0  0  0  0  0  0  0  0  0  0
  150.0495  137.8357  160.2650 H   0  0  0  0  0  0  0  0  0  0  0  0
  148.3682  136.2819  158.7135 H   0  0  0  0  0  0  0  0  0  0  0  0
  149.6730  135.1574  158.9675 H   0  0  0  0  0  0  0  0  0  0  0  0
  148.8344  133.5615  160.5357 H   0  0  0  0  0  0  0  0  0  0  0  0
  147.9808  133.1054  162.8489 H   0  0  0  0  0  0  0  0  0  0  0  0
  147.3452  135.0487  164.3074 H   0  0  0  0  0  0  0  0  0  0  0  0
  147.5852  137.3688  163.3840 H   0  0  0  0  0  0  0  0  0  0  0  0
  1  2  2  0  0  0  0
  2  3  1  0  0  0  0
  2 16  1  0  0  0  0
  3  4  1  0  0  0  0
  3 25  1  0  0  0  0
  3 26  1  0  0  0  0
  4  5  1  0  0  0  0
  4 27  1  0  0  0  0
  4 28  1  0  0  0  0
  5 14  1  0  0  0  0
  5  6  1  0  0  0  0
  6  7  2  0  0  0  0
  6  8  1  0  0  0  0
  8 13  1  0  0  0  0
  8  9  1  0  0  0  0
  8 29  1  0  0  0  0
  9 10  1  0  0  0  0
  9 30  1  0  0  0  0
  9 31  1  0  0  0  0
 10 11  1  0  0  0  0
 10 32  1  0  0  0  0
 10 33  1  0  0  0  0
 11 12  1  0  0  0  0
 11 34  1  0  0  0  0
 11 35  1  0  0  0  0
 12 13  1  0  0  0  0
 12 36  1  0  0  0  0
 12 37  1  0  0  0  0
 13 14  1  0  0  0  0
 13 38  1  0  0  0  0
 14 15  2  0  0  0  0
 16 17  1  0  0  0  0
 16 39  1  0  0  0  0
 17 18  1  0  0  0  0
 17 40  1  0  0  0  0
 17 41  1  0  0  0  0
 18 19  1  0  0  0  0
 18 42  1  0  0  0  0
 18 43  1  0  0  0  0
 19 24  1  0  0  0  0
 19 20  2  0  0  0  0
 20 21  1  0  0  0  0
 20 44  1  0  0  0  0
 21 22  2  0  0  0  0
 21 45  1  0  0  0  0
 22 23  1  0  0  0  0
 22 46  1  0  0  0  0
 23 24  2  0  0  0  0
 23 47  1  0  0  0  0
M  END
> <s_m_source_file>
AV-unprocessed.smi

> <i_m_source_file_index>
2159

> <i_lp_mmshare_version>
43012

> <i_f3d_flags>
0

> <s_epik_input>
bjFbY0hdW2NIXVtjSF1bY0hdYzFbQ0gyXVtDSDJdW05IXUMoPU8pW0NIMl1bQ0gyXU4oQzI9TylDKD1PKVtDQEhdKFtDQEBIXTIzKVtDSDJdW0NIMl1bQ0gyXVtDSDJdMw==

> <s_epik_cmdline>
J2VwaWtfcHl0aG9uJywgJy1waCcsICc3LjAnLCAnLXRuJywgJzgnLCAnLW1hJywgJzIwMCcsICctbWV0YWxfYmluZGluZycsICctaW1hZScsICc8aW5maWxlLm1hZT4nLCAnLW9tYWUnLCAnPG91dGZpbGUubWFlPic=

> <r_lp_tautomer_probability>
1

> <r_epik_Ionization_Penalty>
0.026624

> <r_epik_Ionization_Penalty_Charging>
0

> <r_epik_Ionization_Penalty_Neutral>
0.026624

> <r_epik_State_Penalty>
0.0217444

> <r_epik_Charging_Adjusted_Penalty>
0.0217444

> <i_epik_Tot_Q>
0

> <i_epik_Tot_abs_Q>
0

> <r_epik_Metal_State_Penalty>
0.0208054

> <b_epik_Metal_Only>
0

> <s_lp_Force_Field>
OPLS_2005

> <r_lp_Energy>
31.6251

> <b_lp_Chiralities_Consistent>
1

> <s_lp_Variant>
AV-unprocessed.smi:2159-1

> <Gold.Version>
5.8.1

> <Gold.Id.Protein>
6NUR|6NUR_protein|mol2

> <Gold.PLP.Fitness>
53.4535

> <Gold.PLP.PLP>
-47.3470

> <Gold.PLP.part.hbond>
-3.0000

> <Gold.PLP.part.metal>
0.0000

> <Gold.PLP.part.buried>
-5.7632

> <Gold.PLP.part.nonpolar>
-39.6025

> <Gold.PLP.part.repulsive>
0.6424

> <Gold.PLP.ligand.clash>
0.0000

> <Gold.PLP.ligand.torsion>
0.9878

> <Gold.PLP.Chemscore.Hbond>
2.6640

> <Gold.PLP.Chemscore.CHOScore>
0.0000

> <Gold.PLP.Chemscore.Metal>
0.0000

> <Gold.Chemscore.Hbonds>
donor molecule, donor type, donor heavy atom, donor atom, acceptor molecule, acceptor atom, score
      P1  H  6931  6943       L1    24  0.80
      P1  H  7997  8008       L1    15  1.00

> <Gold.PLP.Chemscore.Internal.Correction>
0.0901

> <Gold.Rescore>
     Score         DG    S(hbond)    S(metal)    S(lipo)     H(rot)  DE(clash)    DE(int)     intcor
     18.21     -19.39       1.42        0.00     121.50       1.97       0.18       1.00       ----

> <Gold.Chemscore.Fitness>
18.2139

> <Gold.Chemscore.DG>
-19.3899

> <Gold.Chemscore.ZeroCoef>
-5.4800

> <Gold.Chemscore.Hbond>
1.4186

> <Gold.Chemscore.Metal>
0.0000

> <Gold.Chemscore.Lipo>
121.5045

> <Gold.Chemscore.Internal_Hbond>
0.0000

> <Gold.Chemscore.DEClash>
0.1806

> <Gold.Chemscore.DEInternal>
0.9955

> <Gold.Chemscore.Rot>
1.9704

> <Gold.Chemscore.Internal.Correction>
   9.000000E+99

> <Gold.Chemscore.Hbonds>
donor molecule, donor type, donor heavy atom, donor atom, acceptor molecule, acceptor atom, score
      P1  H  6931  6943       L1    24  0.12
      P1  H  7997  8008       L1    15  0.59

> <Gold.Chemscore.Hbond.Weighted>
-4.7382

> <Gold.Chemscore.Metal.Weighted>
-0.0000

> <Gold.Chemscore.Lipo.Weighted>
-14.2160

> <Gold.Chemscore.Internal_Hbond.Weighted>
0.0000

> <Gold.Chemscore.DEClash.Weighted>
0.1806

> <Gold.Chemscore.DEInternal.Weighted>
0.9955

> <Gold.Chemscore.Rot.Weighted>
5.0443

> <Gold.Chemscore.Internal.Correction.Weighted>
   9.000000E+99

> <Gold.Protein.RotatedTorsions>
[ 6907 6896 6895 6894 ] final  165.81 input  -60.11 | X-H torsion
[ 7974 7965 7964 7962 ] final -153.45 input  175.53 | X-H torsion
[ 8008 7997 7996 7995 ] final -102.38 input   59.86 | X-H torsion
[ 10167 10162 10161 10158 ] final   32.61 input  -65.29 | X-H torsion
[ 10718 10713 10712 10709 ] final  118.95 input   66.30 | X-H torsion
[ 10763 10752 10751 10750 ] final   28.65 input  -60.55 | X-H torsion
[ 11005 11000 10999 10996 ] final   79.51 input  -57.11 | X-H torsion

> <Gold.Protein.ActiveResidues>
 VAL166  LYS551  ARG553  GLY616  TRP617  ASP618  TYR619  PRO620  LYS621  CYS622 
 ASP623  PHE694  ASN695  SER759  ASP760  ASP761  ALA762  ILE779  LEU786  VAL792 
 PHE793  MET794  SER795  GLU796  ALA797  LYS798  CYS799  TRP800  GLU811  SER814 

> <Gold.Protein.RotatedAtoms>
  151.8887  133.3511  159.3790 H   0  0  0  0  0  0  0  0  0  0  0  0  # atno 6907 bound_to 6896
  150.7109  134.4946  159.5541 H   0  0  0  0  0  0  0  0  0  0  0  0  # atno 6908 bound_to 6896
  152.2512  134.8131  160.0496 H   0  0  0  0  0  0  0  0  0  0  0  0  # atno 6909 bound_to 6896
  144.7740  140.4524  143.5887 H   0  0  0  0  0  0  0  0  0  0  0  0  # atno 7974 bound_to 7965
  154.8558  140.0429  157.1633 H   0  0  0  0  0  0  0  0  0  0  0  0  # atno 8008 bound_to 7997
  154.8893  140.2984  155.5359 H   0  0  0  0  0  0  0  0  0  0  0  0  # atno 8009 bound_to 7997
  156.2997  140.2396  156.3907 H   0  0  0  0  0  0  0  0  0  0  0  0  # atno 8010 bound_to 7997
  140.4482  144.1087  150.6186 H   0  0  0  0  0  0  0  0  0  0  0  0  # atno 10167 bound_to 10162
  157.5995  131.1053  150.7828 H   0  0  0  0  0  0  0  0  0  0  0  0  # atno 10718 bound_to 10713
  153.0478  135.6508  154.0770 H   0  0  0  0  0  0  0  0  0  0  0  0  # atno 10763 bound_to 10752
  154.0465  135.2899  155.3348 H   0  0  0  0  0  0  0  0  0  0  0  0  # atno 10764 bound_to 10752
  154.6748  135.5342  153.8251 H   0  0  0  0  0  0  0  0  0  0  0  0  # atno 10765 bound_to 10752
  139.9170  134.7848  156.1789 H   0  0  0  0  0  0  0  0  0  0  0  0  # atno 11005 bound_to 11000
  145.6240  139.1527  143.3006 LP  0  0  0  0  0  0  0  0  0  0  0  0  # atno 17320 bound_to 7965
  146.1907  140.6348  142.9147 LP  0  0  0  0  0  0  0  0  0  0  0  0  # atno 17321 bound_to 7965
  140.4238  143.2599  151.9682 LP  0  0  0  0  0  0  0  0  0  0  0  0  # atno 17342 bound_to 10162
  139.4794  144.5807  151.7938 LP  0  0  0  0  0  0  0  0  0  0  0  0  # atno 17343 bound_to 10162
  156.8230  130.4990  149.5341 LP  0  0  0  0  0  0  0  0  0  0  0  0  # atno 17370 bound_to 10713
  156.1065  130.6008  150.9979 LP  0  0  0  0  0  0  0  0  0  0  0  0  # atno 17371 bound_to 10713
  141.0655  133.6821  156.2035 LP  0  0  0  0  0  0  0  0  0  0  0  0  # atno 17394 bound_to 11000
  140.6593  134.4985  157.5582 LP  0  0  0  0  0  0  0  0  0  0  0  0  # atno 17395 bound_to 11000

$$$$
