AV-unprocessed.smi:1824|AV-procd|sdf|7401|dock1
  -GOLD-   22720 9 73D 1   1.00000     0.00000
 Structure written by MMmdl.
 45 47  0  0  0  0  0  0  0  0  2 V2000
  150.9185  132.7823  154.2420 C   0  0  0  0  0  0  0  0  0  0  0  0
  149.8377  133.8529  154.0570 C   0  0  2  0  0  0  0  0  0  0  0  0
  150.1859  135.1586  154.7941 C   0  0  0  0  0  0  0  0  0  0  0  0
  149.0802  136.1367  154.6575 N   0  3  2  0  0  0  0  0  0  0  0  0
  149.3771  137.4645  155.2536 C   0  0  0  0  0  0  0  0  0  0  0  0
  149.9772  138.4538  154.2343 C   0  0  1  0  0  0  0  0  0  0  0  0
  149.1816  138.4411  153.0636 O   0  0  0  0  0  0  0  0  0  0  0  0
  150.0341  139.8868  154.7984 C   0  0  0  0  0  0  0  0  0  0  0  0
  151.1172  140.0720  155.7481 N   0  0  0  0  0  0  0  0  0  0  0  0
  152.2638  139.3682  155.8228 C   0  0  0  0  0  0  0  0  0  0  0  0
  153.1274  139.7095  156.7746 N   0  0  0  0  0  0  0  0  0  0  0  0
  152.4673  140.7601  157.3878 C   0  0  0  0  0  0  0  0  0  0  0  0
  152.8508  141.5727  158.4784 C   0  0  0  0  0  0  0  0  0  0  0  0
  152.0016  142.6010  158.9373 C   0  0  0  0  0  0  0  0  0  0  0  0
  152.3856  143.3719  159.9823 F   0  0  0  0  0  0  0  0  0  0  0  0
  150.7567  142.8306  158.3142 C   0  0  0  0  0  0  0  0  0  0  0  0
  149.9467  143.8196  158.7608 F   0  0  0  0  0  0  0  0  0  0  0  0
  150.3529  142.0339  157.2256 C   0  0  0  0  0  0  0  0  0  0  0  0
  151.2048  141.0108  156.7702 C   0  0  0  0  0  0  0  0  0  0  0  0
  147.8154  135.5555  155.1666 C   0  0  0  0  0  0  0  0  0  0  0  0
  147.4970  134.2178  154.4695 C   0  0  1  0  0  0  0  0  0  0  0  0
  147.0088  134.3809  153.0190 C   0  0  0  0  0  0  0  0  0  0  0  0
  148.6130  133.3328  154.5681 O   0  0  0  0  0  0  0  0  0  0  0  0
  151.8804  133.1248  153.8593 H   0  0  0  0  0  0  0  0  0  0  0  0
  150.6564  131.8680  153.7088 H   0  0  0  0  0  0  0  0  0  0  0  0
  151.0477  132.5283  155.2944 H   0  0  0  0  0  0  0  0  0  0  0  0
  149.7382  134.0497  152.9893 H   0  0  0  0  0  0  0  0  0  0  0  0
  150.3681  134.9586  155.8512 H   0  0  0  0  0  0  0  0  0  0  0  0
  151.1091  135.5666  154.3842 H   0  0  0  0  0  0  0  0  0  0  0  0
  148.4597  137.8981  155.6553 H   0  0  0  0  0  0  0  0  0  0  0  0
  150.0487  137.3352  156.1036 H   0  0  0  0  0  0  0  0  0  0  0  0
  150.9873  138.1504  153.9610 H   0  0  0  0  0  0  0  0  0  0  0  0
  149.4626  139.1443  152.4977 H   0  0  0  0  0  0  0  0  0  0  0  0
  150.1503  140.6126  153.9921 H   0  0  0  0  0  0  0  0  0  0  0  0
  149.0970  140.1297  155.3008 H   0  0  0  0  0  0  0  0  0  0  0  0
  152.4762  138.5579  155.1407 H   0  0  0  0  0  0  0  0  0  0  0  0
  153.8013  141.4054  158.9629 H   0  0  0  0  0  0  0  0  0  0  0  0
  149.4017  142.2094  156.7459 H   0  0  0  0  0  0  0  0  0  0  0  0
  147.9056  135.3967  156.2424 H   0  0  0  0  0  0  0  0  0  0  0  0
  146.9914  136.2551  155.0187 H   0  0  0  0  0  0  0  0  0  0  0  0
  146.6859  133.7415  155.0214 H   0  0  0  0  0  0  0  0  0  0  0  0
  146.0767  134.9457  152.9861 H   0  0  0  0  0  0  0  0  0  0  0  0
  146.8200  133.4094  152.5618 H   0  0  0  0  0  0  0  0  0  0  0  0
  147.7287  134.9098  152.3953 H   0  0  0  0  0  0  0  0  0  0  0  0
  148.9420  136.2941  153.6690 H   0  0  0  0  0  0  0  0  0  0  0  0
  1  2  1  0  0  0  0
  1 24  1  0  0  0  0
  1 25  1  0  0  0  0
  1 26  1  0  0  0  0
  2 23  1  0  0  0  0
  2  3  1  0  0  0  0
  2 27  1  0  0  0  0
  3  4  1  0  0  0  0
  3 28  1  0  0  0  0
  3 29  1  0  0  0  0
  4  5  1  0  0  0  0
  4 20  1  0  0  0  0
  4 45  1  0  0  0  0
  5  6  1  0  0  0  0
  5 30  1  0  0  0  0
  5 31  1  0  0  0  0
  6  7  1  0  0  0  0
  6  8  1  0  0  0  0
  6 32  1  0  0  0  0
  7 33  1  0  0  0  0
  8  9  1  0  0  0  0
  8 34  1  0  0  0  0
  8 35  1  0  0  0  0
  9 19  1  0  0  0  0
  9 10  1  0  0  0  0
 10 11  2  0  0  0  0
 10 36  1  0  0  0  0
 11 12  1  0  0  0  0
 12 19  2  0  0  0  0
 12 13  1  0  0  0  0
 13 14  2  0  0  0  0
 13 37  1  0  0  0  0
 14 15  1  0  0  0  0
 14 16  1  0  0  0  0
 16 17  1  0  0  0  0
 16 18  2  0  0  0  0
 18 19  1  0  0  0  0
 18 38  1  0  0  0  0
 20 21  1  0  0  0  0
 20 39  1  0  0  0  0
 20 40  1  0  0  0  0
 21 22  1  0  0  0  0
 21 23  1  0  0  0  0
 21 41  1  0  0  0  0
 22 42  1  0  0  0  0
 22 43  1  0  0  0  0
 22 44  1  0  0  0  0
M  CHG  1   4   1
M  END
> <s_m_source_file>
AV-unprocessed.smi

> <i_m_source_file_index>
1824

> <i_lp_mmshare_version>
43012

> <i_f3d_flags>
0

> <s_epik_input>
W0NIM11bQ0BASF0xW0NIMl1OKFtDSDJdW0NASF0oTzEpW0NIM10pW0NIMl1bQ0BIXShbT0hdKVtDSDJdbihbY0hdbjIpYyhjMjMpW2NIXWMoRiljKEYpW2NIXTM=

> <s_epik_cmdline>
J2VwaWtfcHl0aG9uJywgJy1waCcsICc3LjAnLCAnLXRuJywgJzgnLCAnLW1hJywgJzIwMCcsICctbWV0YWxfYmluZGluZycsICctaW1hZScsICc8aW5maWxlLm1hZT4nLCAnLW9tYWUnLCAnPG91dGZpbGUubWFlPic=

> <r_epik_Ionization_Penalty>
0.61967

> <r_epik_Ionization_Penalty_Charging>
0.608065

> <r_epik_Ionization_Penalty_Neutral>
0.0116057

> <r_epik_State_Penalty>
0.664205

> <r_epik_Charging_Adjusted_Penalty>
1.27227

> <i_epik_Tot_Q>
1

> <i_epik_Tot_abs_Q>
1

> <r_epik_Metal_State_Penalty>
0.654947

> <b_epik_Metal_Only>
0

> <s_lp_Force_Field>
OPLS_2005

> <r_lp_Energy>
23.0579

> <b_lp_Chiralities_Consistent>
1

> <s_lp_Variant>
AV-unprocessed.smi:1824-9

> <Gold.Version>
5.8.1

> <Gold.Id.Protein>
6NUR|6NUR_protein|mol2

> <Gold.PLP.Fitness>
48.3642

> <Gold.PLP.PLP>
-38.3788

> <Gold.PLP.part.hbond>
-4.0000

> <Gold.PLP.part.metal>
0.0000

> <Gold.PLP.part.buried>
-4.1743

> <Gold.PLP.part.nonpolar>
-31.0798

> <Gold.PLP.part.repulsive>
0.0498

> <Gold.PLP.ligand.clash>
0.0000

> <Gold.PLP.ligand.torsion>
1.0241

> <Gold.PLP.Chemscore.Hbond>
3.9920

> <Gold.PLP.Chemscore.CHOScore>
0.0000

> <Gold.PLP.Chemscore.Metal>
0.0000

> <Gold.Chemscore.Hbonds>
donor molecule, donor type, donor heavy atom, donor atom, acceptor molecule, acceptor atom, score
      L1  H     4    45       P1  7948  2.00
      L1  H     7    33       P1  7957  1.00
      P1  H  7997  8009       L1    11  0.49

> <Gold.PLP.Chemscore.Internal.Correction>
0.0575

> <Gold.Rescore>
     Score         DG    S(hbond)    S(metal)    S(lipo)     H(rot)  DE(clash)    DE(int)     intcor
     17.12     -18.41       2.83        0.00      80.77       2.33       0.07       1.23       ----

> <Gold.Chemscore.Fitness>
17.1215

> <Gold.Chemscore.DG>
-18.4129

> <Gold.Chemscore.ZeroCoef>
-5.4800

> <Gold.Chemscore.Hbond>
2.8250

> <Gold.Chemscore.Metal>
0.0000

> <Gold.Chemscore.Lipo>
80.7670

> <Gold.Chemscore.Internal_Hbond>
0.0000

> <Gold.Chemscore.DEClash>
0.0655

> <Gold.Chemscore.DEInternal>
1.2259

> <Gold.Chemscore.Rot>
2.3251

> <Gold.Chemscore.Internal.Correction>
   9.000000E+99

> <Gold.Chemscore.Hbonds>
donor molecule, donor type, donor heavy atom, donor atom, acceptor molecule, acceptor atom, score
      L1  H     4    45       P1  7948  0.99
      L1  H     7    33       P1  7957  0.95
      P1  H  7997  8009       L1    11  0.33

> <Gold.Chemscore.Hbond.Weighted>
-9.4355

> <Gold.Chemscore.Metal.Weighted>
-0.0000

> <Gold.Chemscore.Lipo.Weighted>
-9.4497

> <Gold.Chemscore.Internal_Hbond.Weighted>
0.0000

> <Gold.Chemscore.DEClash.Weighted>
0.0655

> <Gold.Chemscore.DEInternal.Weighted>
1.2259

> <Gold.Chemscore.Rot.Weighted>
5.9523

> <Gold.Chemscore.Internal.Correction.Weighted>
   9.000000E+99

> <Gold.Protein.RotatedTorsions>
[ 6907 6896 6895 6894 ] final -139.30 input  -60.11 | X-H torsion
[ 7974 7965 7964 7962 ] final   71.99 input  175.53 | X-H torsion
[ 8008 7997 7996 7995 ] final -165.00 input   59.86 | X-H torsion
[ 10167 10162 10161 10158 ] final   27.64 input  -65.29 | X-H torsion
[ 10718 10713 10712 10709 ] final   11.09 input   66.30 | X-H torsion
[ 10763 10752 10751 10750 ] final   75.03 input  -60.55 | X-H torsion
[ 11005 11000 10999 10996 ] final  -51.45 input  -57.11 | X-H torsion

> <Gold.Protein.ActiveResidues>
 VAL166  LYS551  ARG553  GLY616  TRP617  ASP618  TYR619  PRO620  LYS621  CYS622 
 ASP623  PHE694  ASN695  SER759  ASP760  ASP761  ALA762  ILE779  LEU786  VAL792 
 PHE793  MET794  SER795  GLU796  ALA797  LYS798  CYS799  TRP800  GLU811  SER814 

> <Gold.Protein.RotatedAtoms>
  151.0461  133.5664  159.2646 H   0  0  0  0  0  0  0  0  0  0  0  0  # atno 6907 bound_to 6896
  151.2693  135.0678  159.9138 H   0  0  0  0  0  0  0  0  0  0  0  0  # atno 6908 bound_to 6896
  152.5373  134.0193  159.8028 H   0  0  0  0  0  0  0  0  0  0  0  0  # atno 6909 bound_to 6896
  145.7589  139.2792  143.1387 H   0  0  0  0  0  0  0  0  0  0  0  0  # atno 7974 bound_to 7965
  155.8436  140.0952  157.1719 H   0  0  0  0  0  0  0  0  0  0  0  0  # atno 8008 bound_to 7997
  154.3983  140.1396  156.3820 H   0  0  0  0  0  0  0  0  0  0  0  0  # atno 8009 bound_to 7997
  155.8037  140.3452  155.5420 H   0  0  0  0  0  0  0  0  0  0  0  0  # atno 8010 bound_to 7997
  140.4921  144.0450  150.6301 H   0  0  0  0  0  0  0  0  0  0  0  0  # atno 10167 bound_to 10162
  156.9906  130.6041  149.5685 H   0  0  0  0  0  0  0  0  0  0  0  0  # atno 10718 bound_to 10713
  153.0627  135.5003  154.8130 H   0  0  0  0  0  0  0  0  0  0  0  0  # atno 10763 bound_to 10752
  154.6907  135.2984  154.9486 H   0  0  0  0  0  0  0  0  0  0  0  0  # atno 10764 bound_to 10752
  154.0241  135.6738  153.4828 H   0  0  0  0  0  0  0  0  0  0  0  0  # atno 10765 bound_to 10752
  141.0871  133.6640  156.3879 H   0  0  0  0  0  0  0  0  0  0  0  0  # atno 11005 bound_to 11000
  146.0283  140.8282  142.9888 LP  0  0  0  0  0  0  0  0  0  0  0  0  # atno 17320 bound_to 7965
  144.6834  140.2731  143.7303 LP  0  0  0  0  0  0  0  0  0  0  0  0  # atno 17321 bound_to 7965
  140.3722  143.2848  152.0265 LP  0  0  0  0  0  0  0  0  0  0  0  0  # atno 17342 bound_to 10162
  139.4853  144.6221  151.7235 LP  0  0  0  0  0  0  0  0  0  0  0  0  # atno 17343 bound_to 10162
  156.0209  130.5303  150.8271 LP  0  0  0  0  0  0  0  0  0  0  0  0  # atno 17370 bound_to 10713
  157.5462  131.0942  150.9760 LP  0  0  0  0  0  0  0  0  0  0  0  0  # atno 17371 bound_to 10713
  140.5337  134.6188  157.5358 LP  0  0  0  0  0  0  0  0  0  0  0  0  # atno 17394 bound_to 11000
  139.9691  134.7322  156.0077 LP  0  0  0  0  0  0  0  0  0  0  0  0  # atno 17395 bound_to 11000

$$$$
