AV-unprocessed.smi:1264|AV-procd|sdf|5313|dock2
  -GOLD-   22720 4433D 1   1.00000     0.00000
 Structure written by MMmdl.
 43 43  0  0  0  0  0  0  0  0  1 V2000
  150.9249  136.9595  155.1112 C   0  0  0  0  0  0  0  0  0  0  0  0
  150.5558  138.1642  155.8383 N   0  0  0  0  0  0  0  0  0  0  0  0
  151.0686  139.3785  155.5941 C   0  0  0  0  0  0  0  0  0  0  0  0
  151.9054  139.5896  154.7140 O   0  0  0  0  0  0  0  0  0  0  0  0
  150.5370  140.5299  156.4648 C   0  0  2  0  0  0  0  0  0  0  0  0
  149.8104  141.5287  155.5328 C   0  0  0  0  0  0  0  0  0  0  0  0
  148.5990  140.9525  154.7640 C   0  0  0  0  0  0  0  0  0  0  0  0
  147.7246  142.0491  154.1328 C   0  0  0  0  0  0  0  0  0  0  0  0
  147.7540  140.0580  155.6840 C   0  0  0  0  0  0  0  0  0  0  0  0
  151.6564  141.2154  157.1091 N   0  0  0  0  0  0  0  0  0  0  0  0
  151.9972  141.0994  158.4018 C   0  0  0  0  0  0  0  0  0  0  0  0
  151.3660  140.4227  159.2135 O   0  0  0  0  0  0  0  0  0  0  0  0
  153.2537  141.8483  158.8429 C   0  0  0  0  0  0  0  0  0  0  0  0
  152.8552  143.0700  159.6301 C   0  0  0  0  0  0  0  0  0  0  0  0
  152.9746  143.2982  161.0323 C   0  0  0  0  0  0  0  0  0  0  0  0
  153.5234  142.3889  162.0942 C   0  0  0  0  0  0  0  0  0  0  0  0
  152.5162  144.4892  161.3786 N   0  0  0  0  0  0  0  0  0  0  0  0
  152.0720  145.0887  160.1964 O   0  0  0  0  0  0  0  0  0  0  0  0
  152.2808  144.2236  159.1722 C   0  0  0  0  0  0  0  0  0  0  0  0
  151.8615  144.6792  157.8157 C   0  0  0  0  0  0  0  0  0  0  0  0
  150.3966  136.1000  155.5235 H   0  0  0  0  0  0  0  0  0  0  0  0
  151.9963  136.7707  155.1893 H   0  0  0  0  0  0  0  0  0  0  0  0
  150.6627  137.0482  154.0563 H   0  0  0  0  0  0  0  0  0  0  0  0
  149.8717  138.0699  156.5751 H   0  0  0  0  0  0  0  0  0  0  0  0
  149.8478  140.1331  157.2121 H   0  0  0  0  0  0  0  0  0  0  0  0
  149.4732  142.3842  156.1212 H   0  0  0  0  0  0  0  0  0  0  0  0
  150.5209  141.9307  154.8082 H   0  0  0  0  0  0  0  0  0  0  0  0
  148.9671  140.3170  153.9579 H   0  0  0  0  0  0  0  0  0  0  0  0
  147.3626  142.7504  154.8851 H   0  0  0  0  0  0  0  0  0  0  0  0
  146.8552  141.6181  153.6356 H   0  0  0  0  0  0  0  0  0  0  0  0
  148.2717  142.6168  153.3802 H   0  0  0  0  0  0  0  0  0  0  0  0
  147.3413  140.6253  156.5190 H   0  0  0  0  0  0  0  0  0  0  0  0
  148.3492  139.2432  156.0970 H   0  0  0  0  0  0  0  0  0  0  0  0
  146.9203  139.6107  155.1417 H   0  0  0  0  0  0  0  0  0  0  0  0
  152.2390  141.7872  156.5152 H   0  0  0  0  0  0  0  0  0  0  0  0
  153.8949  141.1876  159.4276 H   0  0  0  0  0  0  0  0  0  0  0  0
  153.8290  142.1161  157.9558 H   0  0  0  0  0  0  0  0  0  0  0  0
  154.0514  141.5400  161.6606 H   0  0  0  0  0  0  0  0  0  0  0  0
  152.7237  141.9947  162.7216 H   0  0  0  0  0  0  0  0  0  0  0  0
  154.2246  142.9167  162.7413 H   0  0  0  0  0  0  0  0  0  0  0  0
  151.5104  143.8396  157.2152 H   0  0  0  0  0  0  0  0  0  0  0  0
  152.6959  145.1452  157.2914 H   0  0  0  0  0  0  0  0  0  0  0  0
  151.0520  145.4067  157.8803 H   0  0  0  0  0  0  0  0  0  0  0  0
  1  2  1  0  0  0  0
  1 21  1  0  0  0  0
  1 22  1  0  0  0  0
  1 23  1  0  0  0  0
  2  3  1  0  0  0  0
  2 24  1  0  0  0  0
  3  4  2  0  0  0  0
  3  5  1  0  0  0  0
  5  6  1  0  0  0  0
  5 10  1  0  0  0  0
  5 25  1  0  0  0  0
  6  7  1  0  0  0  0
  6 26  1  0  0  0  0
  6 27  1  0  0  0  0
  7  8  1  0  0  0  0
  7  9  1  0  0  0  0
  7 28  1  0  0  0  0
  8 29  1  0  0  0  0
  8 30  1  0  0  0  0
  8 31  1  0  0  0  0
  9 32  1  0  0  0  0
  9 33  1  0  0  0  0
  9 34  1  0  0  0  0
 10 11  1  0  0  0  0
 10 35  1  0  0  0  0
 11 12  2  0  0  0  0
 11 13  1  0  0  0  0
 13 14  1  0  0  0  0
 13 36  1  0  0  0  0
 13 37  1  0  0  0  0
 14 19  2  0  0  0  0
 14 15  1  0  0  0  0
 15 16  1  0  0  0  0
 15 17  2  0  0  0  0
 16 38  1  0  0  0  0
 16 39  1  0  0  0  0
 16 40  1  0  0  0  0
 17 18  1  0  0  0  0
 18 19  1  0  0  0  0
 19 20  1  0  0  0  0
 20 41  1  0  0  0  0
 20 42  1  0  0  0  0
 20 43  1  0  0  0  0
M  END
> <s_m_source_file>
AV-unprocessed.smi

> <i_m_source_file_index>
1264

> <i_lp_mmshare_version>
43012

> <i_f3d_flags>
0

> <s_epik_input>
W0NIM11bTkhdQyg9TylbQ0BIXShbQ0gyXVtDSF0oW0NIM10pW0NIM10pW05IXUMoPU8pW0NIMl1jMWMoW0NIM10pbm9jMVtDSDNd

> <s_epik_cmdline>
J2VwaWtfcHl0aG9uJywgJy1waCcsICc3LjAnLCAnLXRuJywgJzgnLCAnLW1hJywgJzIwMCcsICctbWV0YWxfYmluZGluZycsICctaW1hZScsICc8aW5maWxlLm1hZT4nLCAnLW9tYWUnLCAnPG91dGZpbGUubWFlPic=

> <r_lp_tautomer_probability>
1

> <r_epik_Ionization_Penalty>
6.00781e-08

> <r_epik_Ionization_Penalty_Charging>
0

> <r_epik_Ionization_Penalty_Neutral>
6.00781e-08

> <r_epik_State_Penalty>
-0

> <r_epik_Charging_Adjusted_Penalty>
0

> <i_epik_Tot_Q>
0

> <i_epik_Tot_abs_Q>
0

> <r_epik_Metal_State_Penalty>
-0

> <b_epik_Metal_Only>
0

> <s_lp_Force_Field>
OPLS_2005

> <r_lp_Energy>
-0.565017

> <b_lp_Chiralities_Consistent>
1

> <s_lp_Variant>
AV-unprocessed.smi:1264-1

> <Gold.Version>
5.8.1

> <Gold.Id.Protein>
6NUR|6NUR_protein|mol2

> <Gold.PLP.Fitness>
43.8609

> <Gold.PLP.PLP>
-42.3820

> <Gold.PLP.part.hbond>
-1.0000

> <Gold.PLP.part.metal>
0.0000

> <Gold.PLP.part.buried>
-6.4651

> <Gold.PLP.part.nonpolar>
-34.3228

> <Gold.PLP.part.repulsive>
0.5229

> <Gold.PLP.ligand.clash>
0.0000

> <Gold.PLP.ligand.torsion>
0.6952

> <Gold.PLP.Chemscore.Hbond>
0.9280

> <Gold.PLP.Chemscore.CHOScore>
0.0000

> <Gold.PLP.Chemscore.Metal>
0.0000

> <Gold.Chemscore.Hbonds>
donor molecule, donor type, donor heavy atom, donor atom, acceptor molecule, acceptor atom, score
      P1  H  7989  7998       L1     4  0.96

> <Gold.PLP.Chemscore.Internal.Correction>
0.0853

> <Gold.Rescore>
     Score         DG    S(hbond)    S(metal)    S(lipo)     H(rot)  DE(clash)    DE(int)     intcor
     15.03     -15.68       0.94        0.00     106.12       2.09       0.24       0.40       ----

> <Gold.Chemscore.Fitness>
15.0342

> <Gold.Chemscore.DG>
-15.6806

> <Gold.Chemscore.ZeroCoef>
-5.4800

> <Gold.Chemscore.Hbond>
0.9411

> <Gold.Chemscore.Metal>
0.0000

> <Gold.Chemscore.Lipo>
106.1179

> <Gold.Chemscore.Internal_Hbond>
0.0000

> <Gold.Chemscore.DEClash>
0.2433

> <Gold.Chemscore.DEInternal>
0.4031

> <Gold.Chemscore.Rot>
2.0931

> <Gold.Chemscore.Internal.Correction>
   9.000000E+99

> <Gold.Chemscore.Hbonds>
donor molecule, donor type, donor heavy atom, donor atom, acceptor molecule, acceptor atom, score
      P1  H  7989  7998       L1     4  0.91

> <Gold.Chemscore.Hbond.Weighted>
-3.1432

> <Gold.Chemscore.Metal.Weighted>
-0.0000

> <Gold.Chemscore.Lipo.Weighted>
-12.4158

> <Gold.Chemscore.Internal_Hbond.Weighted>
0.0000

> <Gold.Chemscore.DEClash.Weighted>
0.2433

> <Gold.Chemscore.DEInternal.Weighted>
0.4031

> <Gold.Chemscore.Rot.Weighted>
5.3584

> <Gold.Chemscore.Internal.Correction.Weighted>
   9.000000E+99

> <Gold.Protein.RotatedTorsions>
[ 6907 6896 6895 6894 ] final  -45.06 input  -60.11 | X-H torsion
[ 7974 7965 7964 7962 ] final  105.62 input  175.53 | X-H torsion
[ 8008 7997 7996 7995 ] final   63.76 input   59.86 | X-H torsion
[ 10167 10162 10161 10158 ] final -144.31 input  -65.29 | X-H torsion
[ 10718 10713 10712 10709 ] final   76.61 input   66.30 | X-H torsion
[ 10763 10752 10751 10750 ] final  123.55 input  -60.55 | X-H torsion
[ 11005 11000 10999 10996 ] final   33.64 input  -57.11 | X-H torsion

> <Gold.Protein.ActiveResidues>
 VAL166  LYS551  ARG553  GLY616  TRP617  ASP618  TYR619  PRO620  LYS621  CYS622 
 ASP623  PHE694  ASN695  SER759  ASP760  ASP761  ALA762  ILE779  LEU786  VAL792 
 PHE793  MET794  SER795  GLU796  ALA797  LYS798  CYS799  TRP800  GLU811  SER814 

> <Gold.Protein.RotatedAtoms>
  150.9260  134.8677  159.7520 H   0  0  0  0  0  0  0  0  0  0  0  0  # atno 6907 bound_to 6896
  152.5016  134.4148  159.9471 H   0  0  0  0  0  0  0  0  0  0  0  0  # atno 6908 bound_to 6896
  151.4178  133.3667  159.2787 H   0  0  0  0  0  0  0  0  0  0  0  0  # atno 6909 bound_to 6896
  145.3173  139.2523  143.3731 H   0  0  0  0  0  0  0  0  0  0  0  0  # atno 7974 bound_to 7965
  155.6353  140.3496  155.4696 H   0  0  0  0  0  0  0  0  0  0  0  0  # atno 8008 bound_to 7997
  155.9970  140.1205  157.0608 H   0  0  0  0  0  0  0  0  0  0  0  0  # atno 8009 bound_to 7997
  154.4236  140.1108  156.5630 H   0  0  0  0  0  0  0  0  0  0  0  0  # atno 8010 bound_to 7997
  139.7911  143.7965  152.2650 H   0  0  0  0  0  0  0  0  0  0  0  0  # atno 10167 bound_to 10162
  157.6680  130.9783  150.1522 H   0  0  0  0  0  0  0  0  0  0  0  0  # atno 10718 bound_to 10713
  153.6474  135.3369  155.3089 H   0  0  0  0  0  0  0  0  0  0  0  0  # atno 10763 bound_to 10752
  154.8545  135.4333  154.1941 H   0  0  0  0  0  0  0  0  0  0  0  0  # atno 10764 bound_to 10752
  153.2875  135.7014  153.7400 H   0  0  0  0  0  0  0  0  0  0  0  0  # atno 10765 bound_to 10752
  140.2610  134.3192  155.7857 H   0  0  0  0  0  0  0  0  0  0  0  0  # atno 11005 bound_to 11000
  146.3096  140.3722  142.8675 LP  0  0  0  0  0  0  0  0  0  0  0  0  # atno 17320 bound_to 7965
  144.8968  140.7592  143.5892 LP  0  0  0  0  0  0  0  0  0  0  0  0  # atno 17321 bound_to 7965
  139.8057  144.7356  150.9765 LP  0  0  0  0  0  0  0  0  0  0  0  0  # atno 17342 bound_to 10162
  140.7820  143.4301  151.0708 LP  0  0  0  0  0  0  0  0  0  0  0  0  # atno 17343 bound_to 10162
  156.2319  130.3683  149.8435 LP  0  0  0  0  0  0  0  0  0  0  0  0  # atno 17370 bound_to 10713
  156.6260  130.8646  151.3485 LP  0  0  0  0  0  0  0  0  0  0  0  0  # atno 17371 bound_to 10713
  141.2190  133.7410  156.9187 LP  0  0  0  0  0  0  0  0  0  0  0  0  # atno 17394 bound_to 11000
  140.1464  134.9259  157.2535 LP  0  0  0  0  0  0  0  0  0  0  0  0  # atno 17395 bound_to 11000

$$$$
