AV-unprocessed.smi:1982|AV-procd|sdf|8021|dock4
  -GOLD-   2272010213D 1   1.00000     0.00000
 Structure written by MMmdl.
 36 37  0  0  0  0  0  0  0  0  1 V2000
  153.4026  142.2839  162.4878 C   0  0  0  0  0  0  0  0  0  0  0  0
  152.4914  142.5892  161.2873 C   0  0  1  0  0  0  0  0  0  0  0  0
  152.4532  144.0968  160.9669 C   0  0  0  0  0  0  0  0  0  0  0  0
  151.4589  144.4052  159.8367 C   0  0  0  0  0  0  0  0  0  0  0  0
  151.7550  143.5709  158.5818 C   0  0  0  0  0  0  0  0  0  0  0  0
  151.7915  142.0648  158.9058 C   0  0  1  0  0  0  0  0  0  0  0  0
  152.0547  141.3058  157.6865 N   0  0  0  0  0  0  0  0  0  0  0  0
  151.1629  141.0571  156.7147 C   0  0  0  0  0  0  0  0  0  0  0  0
  150.0134  141.4962  156.7161 O   0  0  0  0  0  0  0  0  0  0  0  0
  151.6369  140.1573  155.5739 C   0  0  0  0  0  0  0  0  0  0  0  0
  152.2088  138.9293  156.0937 N   0  0  0  0  0  0  0  0  0  0  0  0
  151.9060  137.6516  155.8552 C   0  0  0  0  0  0  0  0  0  0  0  0
  152.6667  136.8294  156.5616 N   0  0  0  0  0  0  0  0  0  0  0  0
  153.4847  137.6907  157.2738 N   0  0  0  0  0  0  0  0  0  0  0  0
  153.2176  138.9382  157.0005 N   0  0  0  0  0  0  0  0  0  0  0  0
  152.8189  141.7441  160.0272 C   0  0  1  0  0  0  0  0  0  0  0  0
  154.2893  141.8689  159.5611 C   0  0  0  0  0  0  0  0  0  0  0  0
  154.4240  142.6251  162.3198 H   0  0  0  0  0  0  0  0  0  0  0  0
  153.4339  141.2144  162.6966 H   0  0  0  0  0  0  0  0  0  0  0  0
  153.0387  142.7824  163.3867 H   0  0  0  0  0  0  0  0  0  0  0  0
  151.4837  142.3079  161.5976 H   0  0  0  0  0  0  0  0  0  0  0  0
  152.1706  144.6590  161.8576 H   0  0  0  0  0  0  0  0  0  0  0  0
  153.4471  144.4482  160.6892 H   0  0  0  0  0  0  0  0  0  0  0  0
  150.4440  144.1982  160.1791 H   0  0  0  0  0  0  0  0  0  0  0  0
  151.4908  145.4674  159.5931 H   0  0  0  0  0  0  0  0  0  0  0  0
  150.9938  143.7715  157.8269 H   0  0  0  0  0  0  0  0  0  0  0  0
  152.7045  143.8874  158.1486 H   0  0  0  0  0  0  0  0  0  0  0  0
  150.7977  141.7878  159.2639 H   0  0  0  0  0  0  0  0  0  0  0  0
  152.9755  140.9009  157.5961 H   0  0  0  0  0  0  0  0  0  0  0  0
  150.8008  139.9056  154.9203 H   0  0  0  0  0  0  0  0  0  0  0  0
  152.3783  140.6786  154.9666 H   0  0  0  0  0  0  0  0  0  0  0  0
  151.1311  137.3277  155.1760 H   0  0  0  0  0  0  0  0  0  0  0  0
  152.6770  140.6981  160.3031 H   0  0  0  0  0  0  0  0  0  0  0  0
  154.5450  142.8892  159.2773 H   0  0  0  0  0  0  0  0  0  0  0  0
  154.4955  141.2293  158.7027 H   0  0  0  0  0  0  0  0  0  0  0  0
  154.9832  141.5610  160.3424 H   0  0  0  0  0  0  0  0  0  0  0  0
  1  2  1  0  0  0  0
  1 18  1  0  0  0  0
  1 19  1  0  0  0  0
  1 20  1  0  0  0  0
  2 16  1  0  0  0  0
  2  3  1  0  0  0  0
  2 21  1  0  0  0  0
  3  4  1  0  0  0  0
  3 22  1  0  0  0  0
  3 23  1  0  0  0  0
  4  5  1  0  0  0  0
  4 24  1  0  0  0  0
  4 25  1  0  0  0  0
  5  6  1  0  0  0  0
  5 26  1  0  0  0  0
  5 27  1  0  0  0  0
  6  7  1  0  0  0  0
  6 16  1  0  0  0  0
  6 28  1  0  0  0  0
  7  8  1  0  0  0  0
  7 29  1  0  0  0  0
  8  9  2  0  0  0  0
  8 10  1  0  0  0  0
 10 11  1  0  0  0  0
 10 30  1  0  0  0  0
 10 31  1  0  0  0  0
 11 15  1  0  0  0  0
 11 12  1  0  0  0  0
 12 13  2  0  0  0  0
 12 32  1  0  0  0  0
 13 14  1  0  0  0  0
 14 15  2  0  0  0  0
 16 17  1  0  0  0  0
 16 33  1  0  0  0  0
 17 34  1  0  0  0  0
 17 35  1  0  0  0  0
 17 36  1  0  0  0  0
M  END
> <s_m_source_file>
AV-unprocessed.smi

> <i_m_source_file_index>
1982

> <i_lp_mmshare_version>
43012

> <i_f3d_flags>
0

> <s_epik_input>
W0NIM11bQ0BASF0xW0NIMl1bQ0gyXVtDSDJdW0NASF0oW0NASF0xW0NIM10pW05IXUMoPU8pW0NIMl1uMltjSF1ubm4y

> <s_epik_cmdline>
J2VwaWtfcHl0aG9uJywgJy1waCcsICc3LjAnLCAnLXRuJywgJzgnLCAnLW1hJywgJzIwMCcsICctbWV0YWxfYmluZGluZycsICctaW1hZScsICc8aW5maWxlLm1hZT4nLCAnLW9tYWUnLCAnPG91dGZpbGUubWFlPic=

> <r_lp_tautomer_probability>
1

> <r_epik_Ionization_Penalty>
5.03816e-07

> <r_epik_Ionization_Penalty_Charging>
0

> <r_epik_Ionization_Penalty_Neutral>
5.03816e-07

> <r_epik_State_Penalty>
-0

> <r_epik_Charging_Adjusted_Penalty>
0

> <i_epik_Tot_Q>
0

> <i_epik_Tot_abs_Q>
0

> <r_epik_Metal_State_Penalty>
-0

> <b_epik_Metal_Only>
0

> <s_lp_Force_Field>
OPLS_2005

> <r_lp_Energy>
14.9892

> <b_lp_Chiralities_Consistent>
1

> <s_lp_Variant>
AV-unprocessed.smi:1982-2

> <Gold.Version>
5.8.1

> <Gold.Id.Protein>
6NUR|6NUR_protein|mol2

> <Gold.PLP.Fitness>
40.3651

> <Gold.PLP.PLP>
-35.1003

> <Gold.PLP.part.hbond>
-2.0000

> <Gold.PLP.part.metal>
0.0000

> <Gold.PLP.part.buried>
-2.7966

> <Gold.PLP.part.nonpolar>
-28.9102

> <Gold.PLP.part.repulsive>
0.1594

> <Gold.PLP.ligand.clash>
0.0000

> <Gold.PLP.ligand.torsion>
0.3371

> <Gold.PLP.Chemscore.Hbond>
1.9750

> <Gold.PLP.Chemscore.CHOScore>
0.0000

> <Gold.PLP.Chemscore.Metal>
0.0000

> <Gold.Chemscore.Hbonds>
donor molecule, donor type, donor heavy atom, donor atom, acceptor molecule, acceptor atom, score
      P1  H  7997  8008       L1    15  1.00
      P1  H 10752 10765       L1    13  0.98

> <Gold.PLP.Chemscore.Internal.Correction>
0.0140

> <Gold.Rescore>
     Score         DG    S(hbond)    S(metal)    S(lipo)     H(rot)  DE(clash)    DE(int)     intcor
     14.18     -17.24       1.76        0.00      92.07       1.91       1.22       1.83       ----

> <Gold.Chemscore.Fitness>
14.1835

> <Gold.Chemscore.DG>
-17.2365

> <Gold.Chemscore.ZeroCoef>
-5.4800

> <Gold.Chemscore.Hbond>
1.7556

> <Gold.Chemscore.Metal>
0.0000

> <Gold.Chemscore.Lipo>
92.0662

> <Gold.Chemscore.Internal_Hbond>
0.0000

> <Gold.Chemscore.DEClash>
1.2230

> <Gold.Chemscore.DEInternal>
1.8300

> <Gold.Chemscore.Rot>
1.9058

> <Gold.Chemscore.Internal.Correction>
   9.000000E+99

> <Gold.Chemscore.Hbonds>
donor molecule, donor type, donor heavy atom, donor atom, acceptor molecule, acceptor atom, score
      P1  H  7997  8008       L1    15  0.91
      P1  H 10752 10765       L1    13  0.34

> <Gold.Chemscore.Hbond.Weighted>
-5.8636

> <Gold.Chemscore.Metal.Weighted>
-0.0000

> <Gold.Chemscore.Lipo.Weighted>
-10.7717

> <Gold.Chemscore.Internal_Hbond.Weighted>
0.0000

> <Gold.Chemscore.DEClash.Weighted>
1.2230

> <Gold.Chemscore.DEInternal.Weighted>
1.8300

> <Gold.Chemscore.Rot.Weighted>
4.8788

> <Gold.Chemscore.Internal.Correction.Weighted>
   9.000000E+99

> <Gold.Protein.RotatedTorsions>
[ 6907 6896 6895 6894 ] final    3.25 input  -60.11 | X-H torsion
[ 7974 7965 7964 7962 ] final  -57.61 input  175.53 | X-H torsion
[ 8008 7997 7996 7995 ] final  -67.22 input   59.86 | X-H torsion
[ 10167 10162 10161 10158 ] final -146.18 input  -65.29 | X-H torsion
[ 10718 10713 10712 10709 ] final  105.37 input   66.30 | X-H torsion
[ 10763 10752 10751 10750 ] final -139.87 input  -60.55 | X-H torsion
[ 11005 11000 10999 10996 ] final -137.68 input  -57.11 | X-H torsion

> <Gold.Protein.ActiveResidues>
 VAL166  LYS551  ARG553  GLY616  TRP617  ASP618  TYR619  PRO620  LYS621  CYS622 
 ASP623  PHE694  ASN695  SER759  ASP760  ASP761  ALA762  ILE779  LEU786  VAL792 
 PHE793  MET794  SER795  GLU796  ALA797  LYS798  CYS799  TRP800  GLU811  SER814 

> <Gold.Protein.RotatedAtoms>
  151.6220  135.1031  160.0103 H   0  0  0  0  0  0  0  0  0  0  0  0  # atno 6907 bound_to 6896
  152.4153  133.7024  159.6442 H   0  0  0  0  0  0  0  0  0  0  0  0  # atno 6908 bound_to 6896
  150.8041  133.8469  159.3235 H   0  0  0  0  0  0  0  0  0  0  0  0  # atno 6909 bound_to 6896
  145.8490  140.8365  142.9995 H   0  0  0  0  0  0  0  0  0  0  0  0  # atno 7974 bound_to 7965
  154.4785  140.0897  156.7321 H   0  0  0  0  0  0  0  0  0  0  0  0  # atno 8008 bound_to 7997
  155.4532  140.3458  155.4285 H   0  0  0  0  0  0  0  0  0  0  0  0  # atno 8009 bound_to 7997
  156.1154  140.1459  156.9268 H   0  0  0  0  0  0  0  0  0  0  0  0  # atno 8010 bound_to 7997
  139.7737  143.8201  152.2628 H   0  0  0  0  0  0  0  0  0  0  0  0  # atno 10167 bound_to 10162
  157.6708  131.0826  150.5846 H   0  0  0  0  0  0  0  0  0  0  0  0  # atno 10718 bound_to 10713
  154.8596  135.3570  154.5616 H   0  0  0  0  0  0  0  0  0  0  0  0  # atno 10763 bound_to 10752
  153.6231  135.7005  153.5308 H   0  0  0  0  0  0  0  0  0  0  0  0  # atno 10764 bound_to 10752
  153.3112  135.4178  155.1297 H   0  0  0  0  0  0  0  0  0  0  0  0  # atno 10765 bound_to 10752
  140.8688  134.2077  157.4664 H   0  0  0  0  0  0  0  0  0  0  0  0  # atno 11005 bound_to 11000
  144.6730  140.0925  143.7464 LP  0  0  0  0  0  0  0  0  0  0  0  0  # atno 17320 bound_to 7965
  145.9379  139.2649  143.1286 LP  0  0  0  0  0  0  0  0  0  0  0  0  # atno 17321 bound_to 7965
  139.8243  144.7282  150.9532 LP  0  0  0  0  0  0  0  0  0  0  0  0  # atno 17342 bound_to 10162
  140.7815  143.4130  151.0963 LP  0  0  0  0  0  0  0  0  0  0  0  0  # atno 17343 bound_to 10162
  156.6146  130.4389  149.5845 LP  0  0  0  0  0  0  0  0  0  0  0  0  # atno 17370 bound_to 10713
  156.2403  130.6847  151.1549 LP  0  0  0  0  0  0  0  0  0  0  0  0  # atno 17371 bound_to 10713
  139.8711  134.9764  156.4920 LP  0  0  0  0  0  0  0  0  0  0  0  0  # atno 17394 bound_to 11000
  140.8598  133.8068  155.9253 LP  0  0  0  0  0  0  0  0  0  0  0  0  # atno 17395 bound_to 11000

$$$$
