AV-unprocessed.smi:686|AV-procd|sdf|3349|dock10
  -GOLD-   22720 0323D 1   1.00000     0.00000
 Structure written by MMmdl.
 40 41  0  0  0  0  0  0  0  0  3 V2000
  149.7301  134.0415  154.6934 C   0  0  0  0  0  0  0  0  0  0  0  0
  148.2444  133.7495  155.0166 C   0  0  2  0  0  0  0  0  0  0  0  0
  147.4232  133.6151  153.7280 C   0  0  0  0  0  0  0  0  0  0  0  0
  147.0140  134.9948  153.3709 N   0  3  1  0  0  0  0  0  0  0  0  0
  145.8066  135.1103  152.5039 C   0  0  0  0  0  0  0  0  0  0  0  0
  145.9447  134.2748  151.2162 C   0  0  0  0  0  0  0  0  0  0  0  0
  145.5314  136.5795  152.1319 C   0  0  0  0  0  0  0  0  0  0  0  0
  146.9763  135.7860  154.6287 C   0  0  0  0  0  0  0  0  0  0  0  0
  147.4729  134.8652  155.7522 C   0  0  2  0  0  0  0  0  0  0  0  0
  148.2660  135.5844  156.7438 N   0  5  0  0  0  0  0  0  0  0  0  0
  148.6975  134.8974  158.1556 S   0  0  0  0  0  0  0  0  0  0  0  0
  149.1346  133.4970  158.0265 O   0  0  0  0  0  0  0  0  0  0  0  0
  149.5769  135.7904  158.9248 O   0  0  0  0  0  0  0  0  0  0  0  0
  147.0968  134.8653  159.0846 C   0  0  0  0  0  0  0  0  0  0  0  0
  147.2896  135.4481  160.4561 C   0  0  0  0  0  0  0  0  0  0  0  0
  147.1477  134.8079  161.7185 C   0  0  0  0  0  0  0  0  0  0  0  0
  147.4426  135.7960  162.6125 C   0  0  0  0  0  0  0  0  0  0  0  0
  147.7506  136.9472  161.9640 O   0  0  0  0  0  0  0  0  0  0  0  0
  147.6534  136.7144  160.5875 N   0  0  0  0  0  0  0  0  0  0  0  0
  149.8640  134.9621  154.1224 H   0  0  0  0  0  0  0  0  0  0  0  0
  150.1571  133.2316  154.1014 H   0  0  0  0  0  0  0  0  0  0  0  0
  150.3373  134.1171  155.5971 H   0  0  0  0  0  0  0  0  0  0  0  0
  148.1988  132.8199  155.5851 H   0  0  0  0  0  0  0  0  0  0  0  0
  147.9908  133.1488  152.9217 H   0  0  0  0  0  0  0  0  0  0  0  0
  146.5394  132.9932  153.8979 H   0  0  0  0  0  0  0  0  0  0  0  0
  144.9508  134.7295  153.0635 H   0  0  0  0  0  0  0  0  0  0  0  0
  145.0769  134.4088  150.5692 H   0  0  0  0  0  0  0  0  0  0  0  0
  146.0175  133.2074  151.4244 H   0  0  0  0  0  0  0  0  0  0  0  0
  146.8277  134.5669  150.6469 H   0  0  0  0  0  0  0  0  0  0  0  0
  144.6590  136.6599  151.4827 H   0  0  0  0  0  0  0  0  0  0  0  0
  146.3775  137.0178  151.6015 H   0  0  0  0  0  0  0  0  0  0  0  0
  145.3317  137.1980  153.0066 H   0  0  0  0  0  0  0  0  0  0  0  0
  147.6204  136.6570  154.4981 H   0  0  0  0  0  0  0  0  0  0  0  0
  145.9750  136.1486  154.8646 H   0  0  0  0  0  0  0  0  0  0  0  0
  146.5905  134.4092  156.2034 H   0  0  0  0  0  0  0  0  0  0  0  0
  146.3622  135.4388  158.5198 H   0  0  0  0  0  0  0  0  0  0  0  0
  146.7419  133.8368  159.1449 H   0  0  0  0  0  0  0  0  0  0  0  0
  146.8660  133.7875  161.9318 H   0  0  0  0  0  0  0  0  0  0  0  0
  147.4778  135.8345  163.6912 H   0  0  0  0  0  0  0  0  0  0  0  0
  147.7872  135.3731  152.8429 H   0  0  0  0  0  0  0  0  0  0  0  0
  1  2  1  0  0  0  0
  1 20  1  0  0  0  0
  1 21  1  0  0  0  0
  1 22  1  0  0  0  0
  2  9  1  0  0  0  0
  2  3  1  0  0  0  0
  2 23  1  0  0  0  0
  3  4  1  0  0  0  0
  3 24  1  0  0  0  0
  3 25  1  0  0  0  0
  4  5  1  0  0  0  0
  4  8  1  0  0  0  0
  4 40  1  0  0  0  0
  5  6  1  0  0  0  0
  5  7  1  0  0  0  0
  5 26  1  0  0  0  0
  6 27  1  0  0  0  0
  6 28  1  0  0  0  0
  6 29  1  0  0  0  0
  7 30  1  0  0  0  0
  7 31  1  0  0  0  0
  7 32  1  0  0  0  0
  8  9  1  0  0  0  0
  8 33  1  0  0  0  0
  8 34  1  0  0  0  0
  9 10  1  0  0  0  0
  9 35  1  0  0  0  0
 10 11  1  0  0  0  0
 11 12  2  0  0  0  0
 11 13  2  0  0  0  0
 11 14  1  0  0  0  0
 14 15  1  0  0  0  0
 14 36  1  0  0  0  0
 14 37  1  0  0  0  0
 15 19  2  0  0  0  0
 15 16  1  0  0  0  0
 16 17  2  0  0  0  0
 16 38  1  0  0  0  0
 17 18  1  0  0  0  0
 17 39  1  0  0  0  0
 18 19  1  0  0  0  0
M  CHG  1   4   1
M  CHG  1  10  -1
M  END
> <s_m_source_file>
AV-unprocessed.smi

> <i_m_source_file_index>
686

> <i_lp_mmshare_version>
43012

> <i_f3d_flags>
0

> <s_epik_input>
W0NIM11bQ0BASF0xW0NIMl1OKFtDSF0oW0NIM10pW0NIM10pW0NIMl1bQ0BIXTFbTkhdUyg9TykoPU8pW0NIMl1jMltjSF1bY0hdb24y

> <s_epik_cmdline>
J2VwaWtfcHl0aG9uJywgJy1waCcsICc3LjAnLCAnLXRuJywgJzgnLCAnLW1hJywgJzIwMCcsICctbWV0YWxfYmluZGluZycsICctaW1hZScsICc8aW5maWxlLm1hZT4nLCAnLW9tYWUnLCAnPG91dGZpbGUubWFlPic=

> <r_epik_Ionization_Penalty>
3.62478

> <r_epik_Ionization_Penalty_Charging>
3.62478

> <r_epik_Ionization_Penalty_Neutral>
2.03645e-10

> <r_epik_State_Penalty>
3.6247

> <r_epik_Charging_Adjusted_Penalty>
7.24949

> <i_epik_Tot_Q>
0

> <i_epik_Tot_abs_Q>
2

> <r_epik_Metal_State_Penalty>
0.530836

> <b_epik_Metal_Only>
1

> <s_lp_Force_Field>
OPLS_2005

> <r_lp_Energy>
21.5589

> <b_lp_Chiralities_Consistent>
1

> <s_lp_Variant>
AV-unprocessed.smi:686-13

> <Gold.Version>
5.8.1

> <Gold.Id.Protein>
6NUR|6NUR_protein|mol2

> <Gold.PLP.Fitness>
40.7060

> <Gold.PLP.PLP>
-27.9285

> <Gold.PLP.part.hbond>
-6.0995

> <Gold.PLP.part.metal>
0.0000

> <Gold.PLP.part.buried>
-3.5612

> <Gold.PLP.part.nonpolar>
-18.8595

> <Gold.PLP.part.repulsive>
0.0032

> <Gold.PLP.ligand.clash>
0.0000

> <Gold.PLP.ligand.torsion>
0.8260

> <Gold.PLP.Chemscore.Hbond>
4.4674

> <Gold.PLP.Chemscore.CHOScore>
0.0000

> <Gold.PLP.Chemscore.Metal>
0.0000

> <Gold.Chemscore.Hbonds>
donor molecule, donor type, donor heavy atom, donor atom, acceptor molecule, acceptor atom, score
      L1  H     4    40       P1  7948  2.00
      P1  H  6896  6907       L1    12  0.60
      P1  H  6896  6908       L1    13  0.37
      P1  H  6931  6943       L1    18  0.95

> <Gold.PLP.Chemscore.Internal.Correction>
1.0274

> <Gold.Rescore>
     Score         DG    S(hbond)    S(metal)    S(lipo)     H(rot)  DE(clash)    DE(int)     intcor
     14.77     -17.34       2.73        0.00      58.71       1.61       0.15       2.42       ----

> <Gold.Chemscore.Fitness>
14.7702

> <Gold.Chemscore.DG>
-17.3405

> <Gold.Chemscore.ZeroCoef>
-5.4800

> <Gold.Chemscore.Hbond>
2.7321

> <Gold.Chemscore.Metal>
0.0000

> <Gold.Chemscore.Lipo>
58.7112

> <Gold.Chemscore.Internal_Hbond>
0.0000

> <Gold.Chemscore.DEClash>
0.1484

> <Gold.Chemscore.DEInternal>
2.4218

> <Gold.Chemscore.Rot>
1.6149

> <Gold.Chemscore.Internal.Correction>
   9.000000E+99

> <Gold.Chemscore.Hbonds>
donor molecule, donor type, donor heavy atom, donor atom, acceptor molecule, acceptor atom, score
      L1  H     4    40       P1  7948  1.00
      P1  H  6896  6907       L1    12  0.13
      P1  H  6896  6908       L1    13  0.36
      P1  H  6931  6943       L1    18  0.21

> <Gold.Chemscore.Hbond.Weighted>
-9.1254

> <Gold.Chemscore.Metal.Weighted>
-0.0000

> <Gold.Chemscore.Lipo.Weighted>
-6.8692

> <Gold.Chemscore.Internal_Hbond.Weighted>
0.0000

> <Gold.Chemscore.DEClash.Weighted>
0.1484

> <Gold.Chemscore.DEInternal.Weighted>
2.4218

> <Gold.Chemscore.Rot.Weighted>
4.1341

> <Gold.Chemscore.Internal.Correction.Weighted>
   9.000000E+99

> <Gold.Protein.RotatedTorsions>
[ 6907 6896 6895 6894 ] final -135.45 input  -60.11 | X-H torsion
[ 7974 7965 7964 7962 ] final -165.97 input  175.53 | X-H torsion
[ 8008 7997 7996 7995 ] final  -19.85 input   59.86 | X-H torsion
[ 10167 10162 10161 10158 ] final    0.24 input  -65.29 | X-H torsion
[ 10718 10713 10712 10709 ] final  -27.28 input   66.30 | X-H torsion
[ 10763 10752 10751 10750 ] final  -49.75 input  -60.55 | X-H torsion
[ 11005 11000 10999 10996 ] final  164.21 input  -57.11 | X-H torsion

> <Gold.Protein.ActiveResidues>
 VAL166  LYS551  ARG553  GLY616  TRP617  ASP618  TYR619  PRO620  LYS621  CYS622 
 ASP623  PHE694  ASN695  SER759  ASP760  ASP761  ALA762  ILE779  LEU786  VAL792 
 PHE793  MET794  SER795  GLU796  ALA797  LYS798  CYS799  TRP800  GLU811  SER814 

> <Gold.Protein.RotatedAtoms>
  150.9981  133.6083  159.2698 H   0  0  0  0  0  0  0  0  0  0  0  0  # atno 6907 bound_to 6896
  151.3280  135.0834  159.9338 H   0  0  0  0  0  0  0  0  0  0  0  0  # atno 6908 bound_to 6896
  152.5266  133.9615  159.7774 H   0  0  0  0  0  0  0  0  0  0  0  0  # atno 6909 bound_to 6896
  144.7256  140.2735  143.6247 H   0  0  0  0  0  0  0  0  0  0  0  0  # atno 7974 bound_to 7965
  154.4809  140.2078  155.9767 H   0  0  0  0  0  0  0  0  0  0  0  0  # atno 8008 bound_to 7997
  156.1163  140.3221  155.8113 H   0  0  0  0  0  0  0  0  0  0  0  0  # atno 8009 bound_to 7997
  155.4547  140.0519  157.2988 H   0  0  0  0  0  0  0  0  0  0  0  0  # atno 8010 bound_to 7997
  140.6737  143.6975  150.7978 H   0  0  0  0  0  0  0  0  0  0  0  0  # atno 10167 bound_to 10162
  156.4402  130.4462  149.7058 H   0  0  0  0  0  0  0  0  0  0  0  0  # atno 10718 bound_to 10713
  154.0992  135.6566  153.4865 H   0  0  0  0  0  0  0  0  0  0  0  0  # atno 10763 bound_to 10752
  153.0294  135.5221  154.7304 H   0  0  0  0  0  0  0  0  0  0  0  0  # atno 10764 bound_to 10752
  154.6450  135.2993  155.0026 H   0  0  0  0  0  0  0  0  0  0  0  0  # atno 10765 bound_to 10752
  140.2436  134.8032  157.3434 H   0  0  0  0  0  0  0  0  0  0  0  0  # atno 11005 bound_to 11000
  145.8019  139.1968  143.2043 LP  0  0  0  0  0  0  0  0  0  0  0  0  # atno 17320 bound_to 7965
  146.0669  140.7911  142.9707 LP  0  0  0  0  0  0  0  0  0  0  0  0  # atno 17321 bound_to 7965
  140.0665  143.5103  152.2601 LP  0  0  0  0  0  0  0  0  0  0  0  0  # atno 17342 bound_to 10162
  139.6019  144.7585  151.3152 LP  0  0  0  0  0  0  0  0  0  0  0  0  # atno 17343 bound_to 10162
  156.3926  130.7634  151.2637 LP  0  0  0  0  0  0  0  0  0  0  0  0  # atno 17370 bound_to 10713
  157.7506  131.0263  150.3958 LP  0  0  0  0  0  0  0  0  0  0  0  0  # atno 17371 bound_to 10713
  140.1629  134.4706  155.7883 LP  0  0  0  0  0  0  0  0  0  0  0  0  # atno 17394 bound_to 11000
  141.2208  133.6909  156.7574 LP  0  0  0  0  0  0  0  0  0  0  0  0  # atno 17395 bound_to 11000

$$$$
