AV-unprocessed.smi:1256|AV-procd|sdf|5283|dock7
  -GOLD-   22720 4403D 1   1.00000     0.00000
 Structure written by MMmdl.
 41 42  0  0  0  0  0  0  0  0  1 V2000
  151.0254  142.1544  156.4609 C   0  0  0  0  0  0  0  0  0  0  0  0
  150.6740  140.9423  155.6496 C   0  0  0  0  0  0  0  0  0  0  0  0
  149.4639  140.6782  154.9446 C   0  0  0  0  0  0  0  0  0  0  0  0
  149.6974  139.4467  154.3963 C   0  0  0  0  0  0  0  0  0  0  0  0
  148.8809  138.6884  153.6173 N   0  0  0  0  0  0  0  0  0  0  0  0
  147.5871  138.8882  153.3114 C   0  0  0  0  0  0  0  0  0  0  0  0
  146.8970  139.8299  153.7030 O   0  0  0  0  0  0  0  0  0  0  0  0
  147.1256  137.9199  152.5071 N   0  0  0  0  0  0  0  0  0  0  0  0
  145.7664  137.8435  151.9850 C   0  0  0  0  0  0  0  0  0  0  0  0
  144.9647  136.7197  152.6651 C   0  0  0  0  0  0  0  0  0  0  0  0
  145.2191  135.3558  152.0454 C   0  0  0  0  0  0  0  0  0  0  0  0
  146.0440  134.4578  152.6183 C   0  0  0  0  0  0  0  0  0  0  0  0
  146.3718  133.0989  152.0249 C   0  0  0  0  0  0  0  0  0  0  0  0
  145.9678  132.9940  150.5450 C   0  0  0  0  0  0  0  0  0  0  0  0
  144.5775  133.5959  150.3069 C   0  0  0  0  0  0  0  0  0  0  0  0
  144.5266  135.0795  150.7147 C   0  0  0  0  0  0  0  0  0  0  0  0
  150.9586  139.0295  154.7599 N   0  0  0  0  0  0  0  0  0  0  0  0
  151.6545  137.8011  154.4291 C   0  0  0  0  0  0  0  0  0  0  0  0
  151.5586  139.9577  155.5363 N   0  0  0  0  0  0  0  0  0  0  0  0
  150.2064  142.8740  156.4688 H   0  0  0  0  0  0  0  0  0  0  0  0
  151.9041  142.6565  156.0557 H   0  0  0  0  0  0  0  0  0  0  0  0
  151.2404  141.8859  157.4956 H   0  0  0  0  0  0  0  0  0  0  0  0
  148.5855  141.3011  154.8689 H   0  0  0  0  0  0  0  0  0  0  0  0
  149.3120  137.8711  153.2116 H   0  0  0  0  0  0  0  0  0  0  0  0
  147.7598  137.1835  152.2331 H   0  0  0  0  0  0  0  0  0  0  0  0
  145.2829  138.8038  152.1665 H   0  0  0  0  0  0  0  0  0  0  0  0
  145.7944  137.7104  150.9028 H   0  0  0  0  0  0  0  0  0  0  0  0
  145.2020  136.6675  153.7285 H   0  0  0  0  0  0  0  0  0  0  0  0
  143.8998  136.9487  152.6010 H   0  0  0  0  0  0  0  0  0  0  0  0
  146.5127  134.6859  153.5648 H   0  0  0  0  0  0  0  0  0  0  0  0
  147.4401  132.9089  152.1313 H   0  0  0  0  0  0  0  0  0  0  0  0
  145.8538  132.3403  152.6123 H   0  0  0  0  0  0  0  0  0  0  0  0
  146.6967  133.5223  149.9290 H   0  0  0  0  0  0  0  0  0  0  0  0
  145.9909  131.9517  150.2253 H   0  0  0  0  0  0  0  0  0  0  0  0
  144.2921  133.4888  149.2602 H   0  0  0  0  0  0  0  0  0  0  0  0
  143.8426  133.0349  150.8857 H   0  0  0  0  0  0  0  0  0  0  0  0
  143.4868  135.4018  150.7560 H   0  0  0  0  0  0  0  0  0  0  0  0
  145.0126  135.6907  149.9535 H   0  0  0  0  0  0  0  0  0  0  0  0
  151.6126  137.6332  153.3529 H   0  0  0  0  0  0  0  0  0  0  0  0
  151.1802  136.9633  154.9405 H   0  0  0  0  0  0  0  0  0  0  0  0
  152.6998  137.8577  154.7352 H   0  0  0  0  0  0  0  0  0  0  0  0
  1  2  1  0  0  0  0
  1 20  1  0  0  0  0
  1 21  1  0  0  0  0
  1 22  1  0  0  0  0
  2 19  2  0  0  0  0
  2  3  1  0  0  0  0
  3  4  2  0  0  0  0
  3 23  1  0  0  0  0
  4  5  1  0  0  0  0
  4 17  1  0  0  0  0
  5  6  1  0  0  0  0
  5 24  1  0  0  0  0
  6  7  2  0  0  0  0
  6  8  1  0  0  0  0
  8  9  1  0  0  0  0
  8 25  1  0  0  0  0
  9 10  1  0  0  0  0
  9 26  1  0  0  0  0
  9 27  1  0  0  0  0
 10 11  1  0  0  0  0
 10 28  1  0  0  0  0
 10 29  1  0  0  0  0
 11 16  1  0  0  0  0
 11 12  2  0  0  0  0
 12 13  1  0  0  0  0
 12 30  1  0  0  0  0
 13 14  1  0  0  0  0
 13 31  1  0  0  0  0
 13 32  1  0  0  0  0
 14 15  1  0  0  0  0
 14 33  1  0  0  0  0
 14 34  1  0  0  0  0
 15 16  1  0  0  0  0
 15 35  1  0  0  0  0
 15 36  1  0  0  0  0
 16 37  1  0  0  0  0
 16 38  1  0  0  0  0
 17 18  1  0  0  0  0
 17 19  1  0  0  0  0
 18 39  1  0  0  0  0
 18 40  1  0  0  0  0
 18 41  1  0  0  0  0
M  END
> <s_m_source_file>
AV-unprocessed.smi

> <i_m_source_file_index>
1256

> <i_lp_mmshare_version>
43012

> <i_f3d_flags>
0

> <s_epik_input>
W0NIM11jMVtjSF1jKG4objEpW0NIM10pW05IXUMoPU8pW05IXVtDSDJdW0NIMl1DMj1bQ0hdW0NIMl1bQ0gyXVtDSDJdW0NIMl0y

> <s_epik_cmdline>
J2VwaWtfcHl0aG9uJywgJy1waCcsICc3LjAnLCAnLXRuJywgJzgnLCAnLW1hJywgJzIwMCcsICctbWV0YWxfYmluZGluZycsICctaW1hZScsICc8aW5maWxlLm1hZT4nLCAnLW9tYWUnLCAnPG91dGZpbGUubWFlPic=

> <r_lp_tautomer_probability>
1

> <r_epik_Ionization_Penalty>
9.50632e-05

> <r_epik_Ionization_Penalty_Charging>
0

> <r_epik_Ionization_Penalty_Neutral>
9.50632e-05

> <r_epik_State_Penalty>
-0

> <r_epik_Charging_Adjusted_Penalty>
0

> <i_epik_Tot_Q>
0

> <i_epik_Tot_abs_Q>
0

> <r_epik_Metal_State_Penalty>
-0

> <b_epik_Metal_Only>
0

> <s_lp_Force_Field>
OPLS_2005

> <r_lp_Energy>
8.63058

> <b_lp_Chiralities_Consistent>
1

> <s_lp_Variant>
AV-unprocessed.smi:1256-1

> <Gold.Version>
5.8.1

> <Gold.Id.Protein>
6NUR|6NUR_protein|mol2

> <Gold.PLP.Fitness>
42.6524

> <Gold.PLP.PLP>
-38.4953

> <Gold.PLP.part.hbond>
-3.8357

> <Gold.PLP.part.metal>
0.0000

> <Gold.PLP.part.buried>
-1.3108

> <Gold.PLP.part.nonpolar>
-33.6574

> <Gold.PLP.part.repulsive>
0.3137

> <Gold.PLP.ligand.clash>
0.0000

> <Gold.PLP.ligand.torsion>
0.4457

> <Gold.PLP.Chemscore.Hbond>
1.6792

> <Gold.PLP.Chemscore.CHOScore>
0.0000

> <Gold.PLP.Chemscore.Metal>
0.0000

> <Gold.Chemscore.Hbonds>
donor molecule, donor type, donor heavy atom, donor atom, acceptor molecule, acceptor atom, score
      L1  H     5    24       P1  7948  0.67
      L1  H     8    25       P1  7948  1.00

> <Gold.PLP.Chemscore.Internal.Correction>
0.0108

> <Gold.Rescore>
     Score         DG    S(hbond)    S(metal)    S(lipo)     H(rot)  DE(clash)    DE(int)     intcor
     14.67     -16.71       1.82        0.00      74.64       1.40       0.57       1.47       ----

> <Gold.Chemscore.Fitness>
14.6740

> <Gold.Chemscore.DG>
-16.7117

> <Gold.Chemscore.ZeroCoef>
-5.4800

> <Gold.Chemscore.Hbond>
1.8180

> <Gold.Chemscore.Metal>
0.0000

> <Gold.Chemscore.Lipo>
74.6416

> <Gold.Chemscore.Internal_Hbond>
0.0000

> <Gold.Chemscore.DEClash>
0.5711

> <Gold.Chemscore.DEInternal>
1.4666

> <Gold.Chemscore.Rot>
1.3958

> <Gold.Chemscore.Internal.Correction>
   9.000000E+99

> <Gold.Chemscore.Hbonds>
donor molecule, donor type, donor heavy atom, donor atom, acceptor molecule, acceptor atom, score
      L1  H     5    24       P1  7948  0.65
      L1  H     8    25       P1  7948  0.96

> <Gold.Chemscore.Hbond.Weighted>
-6.0720

> <Gold.Chemscore.Metal.Weighted>
-0.0000

> <Gold.Chemscore.Lipo.Weighted>
-8.7331

> <Gold.Chemscore.Internal_Hbond.Weighted>
0.0000

> <Gold.Chemscore.DEClash.Weighted>
0.5711

> <Gold.Chemscore.DEInternal.Weighted>
1.4666

> <Gold.Chemscore.Rot.Weighted>
3.5733

> <Gold.Chemscore.Internal.Correction.Weighted>
   9.000000E+99

> <Gold.Protein.RotatedTorsions>
[ 6907 6896 6895 6894 ] final -164.43 input  -60.11 | X-H torsion
[ 7974 7965 7964 7962 ] final  104.94 input  175.53 | X-H torsion
[ 8008 7997 7996 7995 ] final   68.76 input   59.86 | X-H torsion
[ 10167 10162 10161 10158 ] final  158.79 input  -65.29 | X-H torsion
[ 10718 10713 10712 10709 ] final -160.09 input   66.30 | X-H torsion
[ 10763 10752 10751 10750 ] final  158.67 input  -60.55 | X-H torsion
[ 11005 11000 10999 10996 ] final  137.08 input  -57.11 | X-H torsion

> <Gold.Protein.ActiveResidues>
 VAL166  LYS551  ARG553  GLY616  TRP617  ASP618  TYR619  PRO620  LYS621  CYS622 
 ASP623  PHE694  ASN695  SER759  ASP760  ASP761  ALA762  ILE779  LEU786  VAL792 
 PHE793  MET794  SER795  GLU796  ALA797  LYS798  CYS799  TRP800  GLU811  SER814 

> <Gold.Protein.RotatedAtoms>
  151.4116  133.3725  159.2744 H   0  0  0  0  0  0  0  0  0  0  0  0  # atno 6907 bound_to 6896
  150.9358  134.8772  159.7591 H   0  0  0  0  0  0  0  0  0  0  0  0  # atno 6908 bound_to 6896
  152.5049  134.4064  159.9486 H   0  0  0  0  0  0  0  0  0  0  0  0  # atno 6909 bound_to 6896
  145.3262  139.2499  143.3685 H   0  0  0  0  0  0  0  0  0  0  0  0  # atno 7974 bound_to 7965
  155.7132  140.3494  155.4983 H   0  0  0  0  0  0  0  0  0  0  0  0  # atno 8008 bound_to 7997
  155.9336  140.1089  157.1134 H   0  0  0  0  0  0  0  0  0  0  0  0  # atno 8009 bound_to 7997
  154.4090  140.1226  156.4822 H   0  0  0  0  0  0  0  0  0  0  0  0  # atno 8010 bound_to 7997
  139.4828  144.4791  151.8469 H   0  0  0  0  0  0  0  0  0  0  0  0  # atno 10167 bound_to 10162
  156.5772  130.8714  151.2854 H   0  0  0  0  0  0  0  0  0  0  0  0  # atno 10718 bound_to 10713
  154.2197  135.2782  155.2929 H   0  0  0  0  0  0  0  0  0  0  0  0  # atno 10763 bound_to 10752
  154.5712  135.5618  153.7100 H   0  0  0  0  0  0  0  0  0  0  0  0  # atno 10764 bound_to 10752
  153.0044  135.6321  154.2337 H   0  0  0  0  0  0  0  0  0  0  0  0  # atno 10765 bound_to 10752
  140.0089  134.9447  157.0236 H   0  0  0  0  0  0  0  0  0  0  0  0  # atno 11005 bound_to 11000
  146.3063  140.3830  142.8686 LP  0  0  0  0  0  0  0  0  0  0  0  0  # atno 17320 bound_to 7965
  144.8900  140.7511  143.5933 LP  0  0  0  0  0  0  0  0  0  0  0  0  # atno 17321 bound_to 7965
  140.4266  144.2172  150.5887 LP  0  0  0  0  0  0  0  0  0  0  0  0  # atno 17342 bound_to 10162
  140.4821  143.2375  151.8940 LP  0  0  0  0  0  0  0  0  0  0  0  0  # atno 17343 bound_to 10162
  157.7335  130.9731  150.1980 LP  0  0  0  0  0  0  0  0  0  0  0  0  # atno 17370 bound_to 10713
  156.2663  130.3716  149.8078 LP  0  0  0  0  0  0  0  0  0  0  0  0  # atno 17371 bound_to 10713
  140.4590  134.1504  155.7189 LP  0  0  0  0  0  0  0  0  0  0  0  0  # atno 17394 bound_to 11000
  141.1697  133.8633  157.1608 LP  0  0  0  0  0  0  0  0  0  0  0  0  # atno 17395 bound_to 11000

$$$$
