AV-unprocessed.smi:1108|AV-procd|sdf|4788|dock3
  -GOLD-   22720 3333D 1   1.00000     0.00000
 Structure written by MMmdl.
 31 32  0  0  0  0  0  0  0  0  1 V2000
  146.9602  141.3113  155.4329 C   0  0  0  0  0  0  0  0  0  0  0  0
  148.4394  140.9512  155.6277 C   0  0  1  0  0  0  0  0  0  0  0  0
  149.1090  140.5867  154.2848 C   0  0  0  0  0  0  0  0  0  0  0  0
  150.1543  139.5889  154.4293 N   0  0  0  0  0  0  0  0  0  0  0  0
  150.0821  138.2322  154.1925 C   0  0  0  0  0  0  0  0  0  0  0  0
  151.3170  137.7092  154.4483 C   0  0  0  0  0  0  0  0  0  0  0  0
  152.0859  138.8383  154.8467 C   0  0  0  0  0  0  0  0  0  0  0  0
  151.3860  139.9612  154.8395 N   0  0  0  0  0  0  0  0  0  0  0  0
  149.1232  142.0784  156.2616 N   0  0  0  0  0  0  0  0  0  0  0  0
  150.2721  142.0085  156.9504 C   0  0  0  0  0  0  0  0  0  0  0  0
  150.8934  140.9657  157.1554 O   0  0  0  0  0  0  0  0  0  0  0  0
  150.6696  143.2153  157.3740 N   0  0  0  0  0  0  0  0  0  0  0  0
  151.8629  143.4789  158.1111 C   0  0  0  0  0  0  0  0  0  0  0  0
  151.8893  144.7118  158.9883 C   0  0  0  0  0  0  0  0  0  0  0  0
  152.6841  144.6855  157.7119 C   0  0  0  0  0  0  0  0  0  0  0  0
  146.4096  140.4796  154.9921 H   0  0  0  0  0  0  0  0  0  0  0  0
  146.8429  142.1733  154.7752 H   0  0  0  0  0  0  0  0  0  0  0  0
  146.4854  141.5504  156.3850 H   0  0  0  0  0  0  0  0  0  0  0  0
  148.4734  140.0802  156.2850 H   0  0  0  0  0  0  0  0  0  0  0  0
  148.3659  140.1956  153.5884 H   0  0  0  0  0  0  0  0  0  0  0  0
  149.5358  141.4748  153.8164 H   0  0  0  0  0  0  0  0  0  0  0  0
  149.1704  137.7593  153.8582 H   0  0  0  0  0  0  0  0  0  0  0  0
  151.6245  136.6777  154.3624 H   0  0  0  0  0  0  0  0  0  0  0  0
  153.1247  138.8752  155.1399 H   0  0  0  0  0  0  0  0  0  0  0  0
  148.6932  142.9851  156.1529 H   0  0  0  0  0  0  0  0  0  0  0  0
  150.0880  144.0103  157.1536 H   0  0  0  0  0  0  0  0  0  0  0  0
  152.4225  142.6203  158.4794 H   0  0  0  0  0  0  0  0  0  0  0  0
  151.0003  145.3392  159.0132 H   0  0  0  0  0  0  0  0  0  0  0  0
  152.4400  144.6482  159.9247 H   0  0  0  0  0  0  0  0  0  0  0  0
  153.7660  144.6039  157.7947 H   0  0  0  0  0  0  0  0  0  0  0  0
  152.3257  145.2939  156.8836 H   0  0  0  0  0  0  0  0  0  0  0  0
  1  2  1  0  0  0  0
  1 16  1  0  0  0  0
  1 17  1  0  0  0  0
  1 18  1  0  0  0  0
  2  3  1  0  0  0  0
  2  9  1  0  0  0  0
  2 19  1  0  0  0  0
  3  4  1  0  0  0  0
  3 20  1  0  0  0  0
  3 21  1  0  0  0  0
  4  8  1  0  0  0  0
  4  5  1  0  0  0  0
  5  6  2  0  0  0  0
  5 22  1  0  0  0  0
  6  7  1  0  0  0  0
  6 23  1  0  0  0  0
  7  8  2  0  0  0  0
  7 24  1  0  0  0  0
  9 10  1  0  0  0  0
  9 25  1  0  0  0  0
 10 11  2  0  0  0  0
 10 12  1  0  0  0  0
 12 13  1  0  0  0  0
 12 26  1  0  0  0  0
 13 15  1  0  0  0  0
 13 14  1  0  0  0  0
 13 27  1  0  0  0  0
 14 15  1  0  0  0  0
 14 28  1  0  0  0  0
 14 29  1  0  0  0  0
 15 30  1  0  0  0  0
 15 31  1  0  0  0  0
M  END
> <s_m_source_file>
AV-unprocessed.smi

> <i_m_source_file_index>
1108

> <i_lp_mmshare_version>
43012

> <i_f3d_flags>
0

> <s_epik_input>
W0NIMl0xW0NIMl1bQ0hdMVtOSF1DKD1PKVtOSF1bQ0BIXShbQ0gzXSlbQ0gyXW4yW2NIXVtjSF1bY0hdbjI=

> <s_epik_cmdline>
J2VwaWtfcHl0aG9uJywgJy1waCcsICc3LjAnLCAnLXRuJywgJzgnLCAnLW1hJywgJzIwMCcsICctbWV0YWxfYmluZGluZycsICctaW1hZScsICc8aW5maWxlLm1hZT4nLCAnLW9tYWUnLCAnPG91dGZpbGUubWFlPic=

> <r_lp_tautomer_probability>
1

> <r_epik_Ionization_Penalty>
7.55353e-05

> <r_epik_Ionization_Penalty_Charging>
0

> <r_epik_Ionization_Penalty_Neutral>
7.55353e-05

> <r_epik_State_Penalty>
-0

> <r_epik_Charging_Adjusted_Penalty>
0

> <i_epik_Tot_Q>
0

> <i_epik_Tot_abs_Q>
0

> <r_epik_Metal_State_Penalty>
-0

> <b_epik_Metal_Only>
0

> <s_lp_Force_Field>
OPLS_2005

> <r_lp_Energy>
13.7301

> <b_lp_Chiralities_Consistent>
1

> <s_lp_Variant>
AV-unprocessed.smi:1108-2

> <Gold.Version>
5.8.1

> <Gold.Id.Protein>
6NUR|6NUR_protein|mol2

> <Gold.PLP.Fitness>
42.6977

> <Gold.PLP.PLP>
-35.4018

> <Gold.PLP.part.hbond>
-3.0000

> <Gold.PLP.part.metal>
0.0000

> <Gold.PLP.part.buried>
-3.8242

> <Gold.PLP.part.nonpolar>
-29.7852

> <Gold.PLP.part.repulsive>
0.1448

> <Gold.PLP.ligand.clash>
0.0000

> <Gold.PLP.ligand.torsion>
1.2725

> <Gold.PLP.Chemscore.Hbond>
2.3240

> <Gold.PLP.Chemscore.CHOScore>
0.9388

> <Gold.PLP.Chemscore.Metal>
0.0000

> <Gold.Chemscore.Hbonds>
donor molecule, donor type, donor heavy atom, donor atom, acceptor molecule, acceptor atom, score
      L1  H     9    25       P1  8028  0.96
      L1  H    12    26       P1  8028  0.83
      P1  H  7989  7998       L1     8  0.65
      L1  C     5    22       P1  7948  0.89

> <Gold.PLP.Chemscore.Internal.Correction>
0.0524

> <Gold.Rescore>
     Score         DG    S(hbond)    S(metal)    S(lipo)     H(rot)  DE(clash)    DE(int)     intcor
     12.75     -17.32       1.92        0.00      83.72       1.71       1.57       2.99       ----

> <Gold.Chemscore.Fitness>
12.7543

> <Gold.Chemscore.DG>
-17.3154

> <Gold.Chemscore.ZeroCoef>
-5.4800

> <Gold.Chemscore.Hbond>
1.9196

> <Gold.Chemscore.Metal>
0.0000

> <Gold.Chemscore.Lipo>
83.7202

> <Gold.Chemscore.Internal_Hbond>
0.0000

> <Gold.Chemscore.DEClash>
1.5674

> <Gold.Chemscore.DEInternal>
2.9938

> <Gold.Chemscore.Rot>
1.7075

> <Gold.Chemscore.Internal.Correction>
   9.000000E+99

> <Gold.Chemscore.Hbonds>
donor molecule, donor type, donor heavy atom, donor atom, acceptor molecule, acceptor atom, score
      L1  H     9    25       P1  8028  0.91
      L1  H    12    26       P1  8028  0.69
      P1  H  7989  7998       L1     8  0.05

> <Gold.Chemscore.Hbond.Weighted>
-6.4114

> <Gold.Chemscore.Metal.Weighted>
-0.0000

> <Gold.Chemscore.Lipo.Weighted>
-9.7953

> <Gold.Chemscore.Internal_Hbond.Weighted>
0.0000

> <Gold.Chemscore.DEClash.Weighted>
1.5674

> <Gold.Chemscore.DEInternal.Weighted>
2.9938

> <Gold.Chemscore.Rot.Weighted>
4.3713

> <Gold.Chemscore.Internal.Correction.Weighted>
   9.000000E+99

> <Gold.Protein.RotatedTorsions>
[ 6907 6896 6895 6894 ] final  149.75 input  -60.11 | X-H torsion
[ 7974 7965 7964 7962 ] final  147.79 input  175.53 | X-H torsion
[ 8008 7997 7996 7995 ] final   35.52 input   59.86 | X-H torsion
[ 10167 10162 10161 10158 ] final -127.90 input  -65.29 | X-H torsion
[ 10718 10713 10712 10709 ] final   72.22 input   66.30 | X-H torsion
[ 10763 10752 10751 10750 ] final   24.52 input  -60.55 | X-H torsion
[ 11005 11000 10999 10996 ] final -168.22 input  -57.11 | X-H torsion

> <Gold.Protein.ActiveResidues>
 VAL166  LYS551  ARG553  GLY616  TRP617  ASP618  TYR619  PRO620  LYS621  CYS622 
 ASP623  PHE694  ASN695  SER759  ASP760  ASP761  ALA762  ILE779  LEU786  VAL792 
 PHE793  MET794  SER795  GLU796  ALA797  LYS798  CYS799  TRP800  GLU811  SER814 

> <Gold.Protein.RotatedAtoms>
  152.1237  133.4368  159.4687 H   0  0  0  0  0  0  0  0  0  0  0  0  # atno 6907 bound_to 6896
  150.6873  134.2503  159.4517 H   0  0  0  0  0  0  0  0  0  0  0  0  # atno 6908 bound_to 6896
  152.0382  134.9727  160.0624 H   0  0  0  0  0  0  0  0  0  0  0  0  # atno 6909 bound_to 6896
  144.8564  139.6073  143.5950 H   0  0  0  0  0  0  0  0  0  0  0  0  # atno 7974 bound_to 7965
  155.1724  140.3293  155.4390 H   0  0  0  0  0  0  0  0  0  0  0  0  # atno 8008 bound_to 7997
  156.2505  140.1941  156.6777 H   0  0  0  0  0  0  0  0  0  0  0  0  # atno 8009 bound_to 7997
  154.6328  140.0580  156.9739 H   0  0  0  0  0  0  0  0  0  0  0  0  # atno 8010 bound_to 7997
  139.9559  143.6003  152.2460 H   0  0  0  0  0  0  0  0  0  0  0  0  # atno 10167 bound_to 10162
  157.6490  130.9568  150.0898 H   0  0  0  0  0  0  0  0  0  0  0  0  # atno 10718 bound_to 10713
  153.0758  135.6603  154.0150 H   0  0  0  0  0  0  0  0  0  0  0  0  # atno 10763 bound_to 10752
  153.9784  135.2957  155.3423 H   0  0  0  0  0  0  0  0  0  0  0  0  # atno 10764 bound_to 10752
  154.7145  135.5191  153.8788 H   0  0  0  0  0  0  0  0  0  0  0  0  # atno 10765 bound_to 10752
  140.5445  134.5490  157.5108 H   0  0  0  0  0  0  0  0  0  0  0  0  # atno 11005 bound_to 11000
  146.2826  139.6918  142.9218 LP  0  0  0  0  0  0  0  0  0  0  0  0  # atno 17320 bound_to 7965
  145.4398  141.0421  143.2864 LP  0  0  0  0  0  0  0  0  0  0  0  0  # atno 17321 bound_to 7965
  139.6592  144.7662  151.1997 LP  0  0  0  0  0  0  0  0  0  0  0  0  # atno 17342 bound_to 10162
  140.7568  143.6038  150.8673 LP  0  0  0  0  0  0  0  0  0  0  0  0  # atno 17343 bound_to 10162
  156.1851  130.3652  149.8984 LP  0  0  0  0  0  0  0  0  0  0  0  0  # atno 17370 bound_to 10713
  156.6926  130.8902  151.3590 LP  0  0  0  0  0  0  0  0  0  0  0  0  # atno 17371 bound_to 10713
  139.9487  134.7656  156.0500 LP  0  0  0  0  0  0  0  0  0  0  0  0  # atno 17394 bound_to 11000
  141.1208  133.6613  156.3210 LP  0  0  0  0  0  0  0  0  0  0  0  0  # atno 17395 bound_to 11000

$$$$
