AV-unprocessed.smi:880|AV-procd|sdf|4034|dock2
  -GOLD-   22720 1523D 1   1.00000     0.00000
 Structure written by MMmdl.
 32 33  0  0  0  0  0  0  0  0  1 V2000
  152.8219  142.2667  162.4885 C   0  0  0  0  0  0  0  0  0  0  0  0
  152.5981  142.0664  160.9813 C   0  0  0  0  0  0  0  0  0  0  0  0
  153.9158  141.7497  160.2590 C   0  0  0  0  0  0  0  0  0  0  0  0
  151.9147  143.2532  160.3479 C   0  0  0  0  0  0  0  0  0  0  0  0
  152.3832  144.1082  159.3071 C   0  0  0  0  0  0  0  0  0  0  0  0
  151.3594  144.9903  159.1141 C   0  0  0  0  0  0  0  0  0  0  0  0
  150.3579  144.6536  159.9987 N   0  0  0  0  0  0  0  0  0  0  0  0
  149.0573  145.2768  160.1705 C   0  0  0  0  0  0  0  0  0  0  0  0
  147.9367  144.2349  160.1722 C   0  0  0  0  0  0  0  0  0  0  0  0
  147.9133  143.3596  161.0372 O   0  0  0  0  0  0  0  0  0  0  0  0
  147.0217  144.3406  159.1968 N   0  0  0  0  0  0  0  0  0  0  0  0
  145.8905  143.4898  159.0206 C   0  0  0  0  0  0  0  0  0  0  0  0
  144.5273  144.0583  159.3497 C   0  0  0  0  0  0  0  0  0  0  0  0
  145.1526  143.0410  160.2636 C   0  0  0  0  0  0  0  0  0  0  0  0
  150.6992  143.5888  160.7560 N   0  0  0  0  0  0  0  0  0  0  0  0
  151.8797  142.4566  163.0034 H   0  0  0  0  0  0  0  0  0  0  0  0
  153.4884  143.1065  162.6875 H   0  0  0  0  0  0  0  0  0  0  0  0
  153.2679  141.3792  162.9380 H   0  0  0  0  0  0  0  0  0  0  0  0
  151.9505  141.1953  160.8708 H   0  0  0  0  0  0  0  0  0  0  0  0
  153.7457  141.5411  159.2022 H   0  0  0  0  0  0  0  0  0  0  0  0
  154.4018  140.8750  160.6924 H   0  0  0  0  0  0  0  0  0  0  0  0
  154.6137  142.5850  160.3245 H   0  0  0  0  0  0  0  0  0  0  0  0
  153.3241  144.0764  158.7781 H   0  0  0  0  0  0  0  0  0  0  0  0
  151.2583  145.8159  158.4251 H   0  0  0  0  0  0  0  0  0  0  0  0
  149.0422  145.8403  161.1049 H   0  0  0  0  0  0  0  0  0  0  0  0
  148.9028  145.9918  159.3613 H   0  0  0  0  0  0  0  0  0  0  0  0
  147.1284  145.0966  158.5355 H   0  0  0  0  0  0  0  0  0  0  0  0
  145.9258  142.7733  158.2012 H   0  0  0  0  0  0  0  0  0  0  0  0
  144.4759  145.0865  159.7033 H   0  0  0  0  0  0  0  0  0  0  0  0
  143.6882  143.7350  158.7373 H   0  0  0  0  0  0  0  0  0  0  0  0
  144.7300  142.0380  160.2621 H   0  0  0  0  0  0  0  0  0  0  0  0
  145.5201  143.3891  161.2271 H   0  0  0  0  0  0  0  0  0  0  0  0
  1  2  1  0  0  0  0
  1 16  1  0  0  0  0
  1 17  1  0  0  0  0
  1 18  1  0  0  0  0
  2  3  1  0  0  0  0
  2  4  1  0  0  0  0
  2 19  1  0  0  0  0
  3 20  1  0  0  0  0
  3 21  1  0  0  0  0
  3 22  1  0  0  0  0
  4 15  2  0  0  0  0
  4  5  1  0  0  0  0
  5  6  2  0  0  0  0
  5 23  1  0  0  0  0
  6  7  1  0  0  0  0
  6 24  1  0  0  0  0
  7  8  1  0  0  0  0
  7 15  1  0  0  0  0
  8  9  1  0  0  0  0
  8 25  1  0  0  0  0
  8 26  1  0  0  0  0
  9 10  2  0  0  0  0
  9 11  1  0  0  0  0
 11 12  1  0  0  0  0
 11 27  1  0  0  0  0
 12 14  1  0  0  0  0
 12 13  1  0  0  0  0
 12 28  1  0  0  0  0
 13 14  1  0  0  0  0
 13 29  1  0  0  0  0
 13 30  1  0  0  0  0
 14 31  1  0  0  0  0
 14 32  1  0  0  0  0
M  END
> <s_m_source_file>
AV-unprocessed.smi

> <i_m_source_file_index>
880

> <i_lp_mmshare_version>
43012

> <i_f3d_flags>
0

> <s_epik_input>
W0NIM11bQ0hdKFtDSDNdKWMxW2NIXVtjSF1uKG4xKVtDSDJdQyg9TylbTkhdW0NIXTJbQ0gyXVtDSDJdMg==

> <s_epik_cmdline>
J2VwaWtfcHl0aG9uJywgJy1waCcsICc3LjAnLCAnLXRuJywgJzgnLCAnLW1hJywgJzIwMCcsICctbWV0YWxfYmluZGluZycsICctaW1hZScsICc8aW5maWxlLm1hZT4nLCAnLW9tYWUnLCAnPG91dGZpbGUubWFlPic=

> <r_lp_tautomer_probability>
1

> <r_epik_Ionization_Penalty>
5.52855e-05

> <r_epik_Ionization_Penalty_Charging>
0

> <r_epik_Ionization_Penalty_Neutral>
5.52855e-05

> <r_epik_State_Penalty>
-0

> <r_epik_Charging_Adjusted_Penalty>
0

> <i_epik_Tot_Q>
0

> <i_epik_Tot_abs_Q>
0

> <r_epik_Metal_State_Penalty>
-0

> <b_epik_Metal_Only>
0

> <s_lp_Force_Field>
OPLS_2005

> <r_lp_Energy>
12.9381

> <b_lp_Chiralities_Consistent>
1

> <s_lp_Variant>
AV-unprocessed.smi:880-1

> <Gold.Version>
5.8.1

> <Gold.Id.Protein>
6NUR|6NUR_protein|mol2

> <Gold.PLP.Fitness>
42.4389

> <Gold.PLP.PLP>
-37.1370

> <Gold.PLP.part.hbond>
-2.8097

> <Gold.PLP.part.metal>
0.0000

> <Gold.PLP.part.buried>
-4.5404

> <Gold.PLP.part.nonpolar>
-30.8764

> <Gold.PLP.part.repulsive>
0.3847

> <Gold.PLP.ligand.clash>
0.0000

> <Gold.PLP.ligand.torsion>
0.3676

> <Gold.PLP.Chemscore.Hbond>
1.9840

> <Gold.PLP.Chemscore.CHOScore>
0.0000

> <Gold.PLP.Chemscore.Metal>
0.0000

> <Gold.Chemscore.Hbonds>
donor molecule, donor type, donor heavy atom, donor atom, acceptor molecule, acceptor atom, score
      L1  H    11    27       P1  8029  1.00
      P1  H  6933  6944       L1    10  0.24

> <Gold.PLP.Chemscore.Internal.Correction>
0.0851

> <Gold.Rescore>
     Score         DG    S(hbond)    S(metal)    S(lipo)     H(rot)  DE(clash)    DE(int)     intcor
     14.56     -18.18       1.91        0.00      86.82       1.50       0.63       3.00       ----

> <Gold.Chemscore.Fitness>
14.5565

> <Gold.Chemscore.DG>
-18.1849

> <Gold.Chemscore.ZeroCoef>
-5.4800

> <Gold.Chemscore.Hbond>
1.9143

> <Gold.Chemscore.Metal>
0.0000

> <Gold.Chemscore.Lipo>
86.8190

> <Gold.Chemscore.Internal_Hbond>
0.0000

> <Gold.Chemscore.DEClash>
0.6291

> <Gold.Chemscore.DEInternal>
2.9993

> <Gold.Chemscore.Rot>
1.5026

> <Gold.Chemscore.Internal.Correction>
   9.000000E+99

> <Gold.Chemscore.Hbonds>
donor molecule, donor type, donor heavy atom, donor atom, acceptor molecule, acceptor atom, score
      L1  H    11    27       P1  8029  0.98
      P1  H  6933  6944       L1    10  0.25

> <Gold.Chemscore.Hbond.Weighted>
-6.3938

> <Gold.Chemscore.Metal.Weighted>
-0.0000

> <Gold.Chemscore.Lipo.Weighted>
-10.1578

> <Gold.Chemscore.Internal_Hbond.Weighted>
0.0000

> <Gold.Chemscore.DEClash.Weighted>
0.6291

> <Gold.Chemscore.DEInternal.Weighted>
2.9993

> <Gold.Chemscore.Rot.Weighted>
3.8468

> <Gold.Chemscore.Internal.Correction.Weighted>
   9.000000E+99

> <Gold.Protein.RotatedTorsions>
[ 6907 6896 6895 6894 ] final -107.17 input  -60.11 | X-H torsion
[ 7974 7965 7964 7962 ] final -100.05 input  175.53 | X-H torsion
[ 8008 7997 7996 7995 ] final -126.40 input   59.86 | X-H torsion
[ 10167 10162 10161 10158 ] final  -69.52 input  -65.29 | X-H torsion
[ 10718 10713 10712 10709 ] final  174.06 input   66.30 | X-H torsion
[ 10763 10752 10751 10750 ] final  -49.87 input  -60.55 | X-H torsion
[ 11005 11000 10999 10996 ] final   -8.96 input  -57.11 | X-H torsion

> <Gold.Protein.ActiveResidues>
 VAL166  LYS551  ARG553  GLY616  TRP617  ASP618  TYR619  PRO620  LYS621  CYS622 
 ASP623  PHE694  ASN695  SER759  ASP760  ASP761  ALA762  ILE779  LEU786  VAL792 
 PHE793  MET794  SER795  GLU796  ALA797  LYS798  CYS799  TRP800  GLU811  SER814 

> <Gold.Protein.RotatedAtoms>
  150.7429  133.9867  159.3593 H   0  0  0  0  0  0  0  0  0  0  0  0  # atno 6907 bound_to 6896
  151.7811  135.0759  160.0383 H   0  0  0  0  0  0  0  0  0  0  0  0  # atno 6908 bound_to 6896
  152.3273  133.5882  159.5821 H   0  0  0  0  0  0  0  0  0  0  0  0  # atno 6909 bound_to 6896
  145.2997  140.9374  143.2831 H   0  0  0  0  0  0  0  0  0  0  0  0  # atno 7974 bound_to 7965
  155.2291  140.0424  157.2959 H   0  0  0  0  0  0  0  0  0  0  0  0  # atno 8008 bound_to 7997
  154.5900  140.2424  155.7905 H   0  0  0  0  0  0  0  0  0  0  0  0  # atno 8009 bound_to 7997
  156.2252  140.2957  156.0059 H   0  0  0  0  0  0  0  0  0  0  0  0  # atno 8010 bound_to 7997
  140.5424  143.2314  151.7065 H   0  0  0  0  0  0  0  0  0  0  0  0  # atno 10167 bound_to 10162
  156.9551  131.0043  151.2940 H   0  0  0  0  0  0  0  0  0  0  0  0  # atno 10718 bound_to 10713
  154.1011  135.6563  153.4868 H   0  0  0  0  0  0  0  0  0  0  0  0  # atno 10763 bound_to 10752
  153.0288  135.5225  154.7285 H   0  0  0  0  0  0  0  0  0  0  0  0  # atno 10764 bound_to 10752
  154.6437  135.2992  155.0041 H   0  0  0  0  0  0  0  0  0  0  0  0  # atno 10765 bound_to 10752
  140.7290  133.8765  155.8878 H   0  0  0  0  0  0  0  0  0  0  0  0  # atno 11005 bound_to 11000
  144.9104  139.4536  143.6589 LP  0  0  0  0  0  0  0  0  0  0  0  0  # atno 17320 bound_to 7965
  146.3156  139.7909  142.8986 LP  0  0  0  0  0  0  0  0  0  0  0  0  # atno 17321 bound_to 7965
  139.4994  144.3948  152.0242 LP  0  0  0  0  0  0  0  0  0  0  0  0  # atno 17342 bound_to 10162
  140.3058  144.3594  150.6047 LP  0  0  0  0  0  0  0  0  0  0  0  0  # atno 17343 bound_to 10162
  157.5696  130.8301  149.8373 LP  0  0  0  0  0  0  0  0  0  0  0  0  # atno 17370 bound_to 10713
  156.0346  130.3755  150.1595 LP  0  0  0  0  0  0  0  0  0  0  0  0  # atno 17371 bound_to 10713
  140.9937  134.1243  157.4383 LP  0  0  0  0  0  0  0  0  0  0  0  0  # atno 17394 bound_to 11000
  139.8830  135.0048  156.6273 LP  0  0  0  0  0  0  0  0  0  0  0  0  # atno 17395 bound_to 11000

$$$$
