AV-unprocessed.smi:1056|AV-procd|sdf|4639|dock9
  -GOLD-   22720 3143D 1   1.00000     0.00000
 Structure written by MMmdl.
 44 46  0  0  0  0  0  0  0  0  1 V2000
  152.3062  144.3127  159.6315 C   0  0  0  0  0  0  0  0  0  0  0  0
  152.1087  143.1058  158.7310 C   0  0  0  0  0  0  0  0  0  0  0  0
  151.2239  143.2045  157.6336 C   0  0  0  0  0  0  0  0  0  0  0  0
  151.0133  142.1056  156.7719 C   0  0  0  0  0  0  0  0  0  0  0  0
  150.2059  141.9825  155.6539 N   0  0  0  0  0  0  0  0  0  0  0  0
  150.4425  140.7254  155.2905 C   0  0  0  0  0  0  0  0  0  0  0  0
  151.3082  140.0184  156.0416 N   0  0  0  0  0  0  0  0  0  0  0  0
  151.7164  138.6399  155.8370 C   0  0  0  0  0  0  0  0  0  0  0  0
  151.1542  138.0444  154.5316 C   0  0  1  0  0  0  0  0  0  0  0  0
  152.1707  137.3073  153.8798 O   0  0  0  0  0  0  0  0  0  0  0  0
  149.9619  137.1042  154.8056 C   0  0  0  0  0  0  0  0  0  0  0  0
  150.3041  135.7510  155.2784 N   0  0  0  0  0  0  0  0  0  0  0  0
  149.2326  134.7666  155.0885 C   0  0  0  0  0  0  0  0  0  0  0  0
  147.9900  135.0354  155.9613 C   0  0  0  0  0  0  0  0  0  0  0  0
  148.3431  135.4474  157.3194 N   0  0  0  0  0  0  0  0  0  0  0  0
  149.5695  135.8357  157.7101 C   0  0  0  0  0  0  0  0  0  0  0  0
  149.7928  136.2271  158.8531 O   0  0  0  0  0  0  0  0  0  0  0  0
  150.7222  135.7515  156.6890 C   0  0  0  0  0  0  0  0  0  0  0  0
  151.7164  140.8950  157.0413 C   0  0  0  0  0  0  0  0  0  0  0  0
  152.5997  140.7849  158.1296 C   0  0  0  0  0  0  0  0  0  0  0  0
  152.7993  141.8924  158.9800 C   0  0  0  0  0  0  0  0  0  0  0  0
  153.7567  141.7637  160.1515 C   0  0  0  0  0  0  0  0  0  0  0  0
  151.7248  145.1676  159.2848 H   0  0  0  0  0  0  0  0  0  0  0  0
  153.3554  144.6085  159.6515 H   0  0  0  0  0  0  0  0  0  0  0  0
  151.9905  144.0842  160.6498 H   0  0  0  0  0  0  0  0  0  0  0  0
  150.6977  144.1283  157.4433 H   0  0  0  0  0  0  0  0  0  0  0  0
  149.9595  140.2921  154.4269 H   0  0  0  0  0  0  0  0  0  0  0  0
  152.8061  138.5923  155.8440 H   0  0  0  0  0  0  0  0  0  0  0  0
  151.3753  138.0557  156.6927 H   0  0  0  0  0  0  0  0  0  0  0  0
  150.8567  138.8695  153.8864 H   0  0  0  0  0  0  0  0  0  0  0  0
  151.8777  137.1060  153.0040 H   0  0  0  0  0  0  0  0  0  0  0  0
  149.3270  137.5907  155.5479 H   0  0  0  0  0  0  0  0  0  0  0  0
  149.3474  137.0412  153.9071 H   0  0  0  0  0  0  0  0  0  0  0  0
  148.9498  134.6810  154.0407 H   0  0  0  0  0  0  0  0  0  0  0  0
  149.6239  133.7815  155.3476 H   0  0  0  0  0  0  0  0  0  0  0  0
  147.3817  135.8231  155.5159 H   0  0  0  0  0  0  0  0  0  0  0  0
  147.3609  134.1462  156.0070 H   0  0  0  0  0  0  0  0  0  0  0  0
  147.5969  135.4806  157.9991 H   0  0  0  0  0  0  0  0  0  0  0  0
  151.2588  134.8249  156.8962 H   0  0  0  0  0  0  0  0  0  0  0  0
  151.4387  136.5521  156.8781 H   0  0  0  0  0  0  0  0  0  0  0  0
  153.1218  139.8558  158.3050 H   0  0  0  0  0  0  0  0  0  0  0  0
  154.1795  140.7603  160.2110 H   0  0  0  0  0  0  0  0  0  0  0  0
  153.2417  141.9658  161.0908 H   0  0  0  0  0  0  0  0  0  0  0  0
  154.5815  142.4692  160.0488 H   0  0  0  0  0  0  0  0  0  0  0  0
  1  2  1  0  0  0  0
  1 23  1  0  0  0  0
  1 24  1  0  0  0  0
  1 25  1  0  0  0  0
  2 21  1  0  0  0  0
  2  3  2  0  0  0  0
  3  4  1  0  0  0  0
  3 26  1  0  0  0  0
  4 19  2  0  0  0  0
  4  5  1  0  0  0  0
  5  6  2  0  0  0  0
  6  7  1  0  0  0  0
  6 27  1  0  0  0  0
  7  8  1  0  0  0  0
  7 19  1  0  0  0  0
  8  9  1  0  0  0  0
  8 28  1  0  0  0  0
  8 29  1  0  0  0  0
  9 10  1  0  0  0  0
  9 11  1  0  0  0  0
  9 30  1  0  0  0  0
 10 31  1  0  0  0  0
 11 12  1  0  0  0  0
 11 32  1  0  0  0  0
 11 33  1  0  0  0  0
 12 18  1  0  0  0  0
 12 13  1  0  0  0  0
 13 14  1  0  0  0  0
 13 34  1  0  0  0  0
 13 35  1  0  0  0  0
 14 15  1  0  0  0  0
 14 36  1  0  0  0  0
 14 37  1  0  0  0  0
 15 16  1  0  0  0  0
 15 38  1  0  0  0  0
 16 17  2  0  0  0  0
 16 18  1  0  0  0  0
 18 39  1  0  0  0  0
 18 40  1  0  0  0  0
 19 20  1  0  0  0  0
 20 21  2  0  0  0  0
 20 41  1  0  0  0  0
 21 22  1  0  0  0  0
 22 42  1  0  0  0  0
 22 43  1  0  0  0  0
 22 44  1  0  0  0  0
M  END
> <s_m_source_file>
AV-unprocessed.smi

> <i_m_source_file_index>
1056

> <i_lp_mmshare_version>
43012

> <i_f3d_flags>
0

> <s_epik_input>
W0NIM11jKFtjSF0xKWMoW0NIM10pW2NIXWMoYzEyKW4oW2NIXW4yKVtDSDJdW0NASF0oW09IXSlbQ0gyXU4zW0NIMl1bQ0gyXVtOSF1DKD1PKVtDSDJdMw==

> <s_epik_cmdline>
J2VwaWtfcHl0aG9uJywgJy1waCcsICc3LjAnLCAnLXRuJywgJzgnLCAnLW1hJywgJzIwMCcsICctbWV0YWxfYmluZGluZycsICctaW1hZScsICc8aW5maWxlLm1hZT4nLCAnLW9tYWUnLCAnPG91dGZpbGUubWFlPic=

> <r_epik_Ionization_Penalty>
1.40166

> <r_epik_Ionization_Penalty_Charging>
0

> <r_epik_Ionization_Penalty_Neutral>
1.40166

> <r_epik_State_Penalty>
1.44226

> <r_epik_Charging_Adjusted_Penalty>
1.44226

> <i_epik_Tot_Q>
0

> <i_epik_Tot_abs_Q>
0

> <r_epik_Metal_State_Penalty>
1.50267

> <b_epik_Metal_Only>
0

> <s_lp_Force_Field>
OPLS_2005

> <r_lp_Energy>
31.4444

> <b_lp_Chiralities_Consistent>
1

> <s_lp_Variant>
AV-unprocessed.smi:1056-10

> <Gold.Version>
5.8.1

> <Gold.Id.Protein>
6NUR|6NUR_protein|mol2

> <Gold.PLP.Fitness>
43.8212

> <Gold.PLP.PLP>
-39.2288

> <Gold.PLP.part.hbond>
-3.0000

> <Gold.PLP.part.metal>
0.0000

> <Gold.PLP.part.buried>
-2.9701

> <Gold.PLP.part.nonpolar>
-33.5665

> <Gold.PLP.part.repulsive>
0.9152

> <Gold.PLP.ligand.clash>
0.0000

> <Gold.PLP.ligand.torsion>
0.9637

> <Gold.PLP.Chemscore.Hbond>
2.1600

> <Gold.PLP.Chemscore.CHOScore>
0.0000

> <Gold.PLP.Chemscore.Metal>
0.0000

> <Gold.Chemscore.Hbonds>
donor molecule, donor type, donor heavy atom, donor atom, acceptor molecule, acceptor atom, score
      L1  H    10    31       P1  7949  1.00
      P1  H  6896  6909       L1    17  1.00
      P1  H 10752 10763       L1    10  0.16

> <Gold.PLP.Chemscore.Internal.Correction>
0.0397

> <Gold.Rescore>
     Score         DG    S(hbond)    S(metal)    S(lipo)     H(rot)  DE(clash)    DE(int)     intcor
     16.92     -18.28       1.94        0.00     104.63       2.31       0.24       1.12       ----

> <Gold.Chemscore.Fitness>
16.9185

> <Gold.Chemscore.DG>
-18.2842

> <Gold.Chemscore.ZeroCoef>
-5.4800

> <Gold.Chemscore.Hbond>
1.9425

> <Gold.Chemscore.Metal>
0.0000

> <Gold.Chemscore.Lipo>
104.6298

> <Gold.Chemscore.Internal_Hbond>
0.0000

> <Gold.Chemscore.DEClash>
0.2442

> <Gold.Chemscore.DEInternal>
1.1215

> <Gold.Chemscore.Rot>
2.3147

> <Gold.Chemscore.Internal.Correction>
   9.000000E+99

> <Gold.Chemscore.Hbonds>
donor molecule, donor type, donor heavy atom, donor atom, acceptor molecule, acceptor atom, score
      L1  H    10    31       P1  7949  0.95
      P1  H  6896  6909       L1    17  0.34

> <Gold.Chemscore.Hbond.Weighted>
-6.4881

> <Gold.Chemscore.Metal.Weighted>
-0.0000

> <Gold.Chemscore.Lipo.Weighted>
-12.2417

> <Gold.Chemscore.Internal_Hbond.Weighted>
0.0000

> <Gold.Chemscore.DEClash.Weighted>
0.2442

> <Gold.Chemscore.DEInternal.Weighted>
1.1215

> <Gold.Chemscore.Rot.Weighted>
5.9256

> <Gold.Chemscore.Internal.Correction.Weighted>
   9.000000E+99

> <Gold.Protein.RotatedTorsions>
[ 6907 6896 6895 6894 ] final   58.29 input  -60.11 | X-H torsion
[ 7974 7965 7964 7962 ] final  116.79 input  175.53 | X-H torsion
[ 8008 7997 7996 7995 ] final   67.29 input   59.86 | X-H torsion
[ 10167 10162 10161 10158 ] final  153.67 input  -65.29 | X-H torsion
[ 10718 10713 10712 10709 ] final   45.72 input   66.30 | X-H torsion
[ 10763 10752 10751 10750 ] final   -1.59 input  -60.55 | X-H torsion
[ 11005 11000 10999 10996 ] final   68.03 input  -57.11 | X-H torsion

> <Gold.Protein.ActiveResidues>
 VAL166  LYS551  ARG553  GLY616  TRP617  ASP618  TYR619  PRO620  LYS621  CYS622 
 ASP623  PHE694  ASN695  SER759  ASP760  ASP761  ALA762  ILE779  LEU786  VAL792 
 PHE793  MET794  SER795  GLU796  ALA797  LYS798  CYS799  TRP800  GLU811  SER814 

> <Gold.Protein.RotatedAtoms>
  152.3810  134.6590  160.0142 H   0  0  0  0  0  0  0  0  0  0  0  0  # atno 6907 bound_to 6896
  151.6853  133.3306  159.3237 H   0  0  0  0  0  0  0  0  0  0  0  0  # atno 6908 bound_to 6896
  150.7748  134.6682  159.6421 H   0  0  0  0  0  0  0  0  0  0  0  0  # atno 6909 bound_to 6896
  145.1753  139.3079  143.4446 H   0  0  0  0  0  0  0  0  0  0  0  0  # atno 7974 bound_to 7965
  155.6906  140.3496  155.4892 H   0  0  0  0  0  0  0  0  0  0  0  0  # atno 8008 bound_to 7997
  155.9527  140.1122  157.0985 H   0  0  0  0  0  0  0  0  0  0  0  0  # atno 8009 bound_to 7997
  154.4125  140.1191  156.5060 H   0  0  0  0  0  0  0  0  0  0  0  0  # atno 8010 bound_to 7997
  139.4826  144.5253  151.7810 H   0  0  0  0  0  0  0  0  0  0  0  0  # atno 10167 bound_to 10162
  157.4406  130.8079  149.7690 H   0  0  0  0  0  0  0  0  0  0  0  0  # atno 10718 bound_to 10713
  153.3468  135.6983  153.6821 H   0  0  0  0  0  0  0  0  0  0  0  0  # atno 10763 bound_to 10752
  153.5563  135.3543  155.2781 H   0  0  0  0  0  0  0  0  0  0  0  0  # atno 10764 bound_to 10752
  154.8646  135.4238  154.2695 H   0  0  0  0  0  0  0  0  0  0  0  0  # atno 10765 bound_to 10752
  139.9735  134.6860  156.0399 H   0  0  0  0  0  0  0  0  0  0  0  0  # atno 11005 bound_to 11000
  146.3462  140.1913  142.8589 LP  0  0  0  0  0  0  0  0  0  0  0  0  # atno 17320 bound_to 7965
  145.0191  140.8779  143.5177 LP  0  0  0  0  0  0  0  0  0  0  0  0  # atno 17321 bound_to 7965
  140.4772  144.1501  150.5927 LP  0  0  0  0  0  0  0  0  0  0  0  0  # atno 17342 bound_to 10162
  140.4317  143.2565  151.9587 LP  0  0  0  0  0  0  0  0  0  0  0  0  # atno 17343 bound_to 10162
  155.9947  130.3916  150.2848 LP  0  0  0  0  0  0  0  0  0  0  0  0  # atno 17370 bound_to 10713
  157.1012  131.0196  151.3084 LP  0  0  0  0  0  0  0  0  0  0  0  0  # atno 17371 bound_to 10713
  141.1414  133.6564  156.3740 LP  0  0  0  0  0  0  0  0  0  0  0  0  # atno 17394 bound_to 11000
  140.5243  134.6274  157.5329 LP  0  0  0  0  0  0  0  0  0  0  0  0  # atno 17395 bound_to 11000

$$$$
