AV-unprocessed.smi:2473|AV-procd|sdf|9743|dock5
  -GOLD-   2272013383D 1   1.00000     0.00000
 Structure written by MMmdl.
 48 49  0  0  0  0  0  0  0  0  2 V2000
  145.9251  142.9257  156.2339 C   0  0  0  0  0  0  0  0  0  0  0  0
  146.6863  141.7057  155.6953 C   0  0  2  0  0  0  0  0  0  0  0  0
  147.5005  142.0710  154.4369 C   0  0  0  0  0  0  0  0  0  0  0  0
  148.2681  140.8711  153.8359 C   0  0  1  0  0  0  0  0  0  0  0  0
  149.5612  140.5063  154.5910 C   0  0  0  0  0  0  0  0  0  0  0  0
  150.3874  139.7332  154.1053 O   0  0  0  0  0  0  0  0  0  0  0  0
  149.7156  141.0590  155.8033 N   0  0  0  0  0  0  0  0  0  0  0  0
  150.8853  140.8725  156.6495 C   0  0  0  0  0  0  0  0  0  0  0  0
  150.6342  141.4464  158.0497 C   0  0  0  0  0  0  0  0  0  0  0  0
  151.3056  142.7675  158.2613 C   0  0  0  0  0  0  0  0  0  0  0  0
  151.0316  143.8949  157.5942 N   0  3  0  0  0  0  0  0  0  0  0  0
  151.8166  144.9201  158.0477 C   0  0  0  0  0  0  0  0  0  0  0  0
  152.6015  144.3964  159.0415 C   0  0  0  0  0  0  0  0  0  0  0  0
  152.2636  143.0718  159.1528 N   0  0  0  0  0  0  0  0  0  0  0  0
  152.8361  142.1008  160.0882 C   0  0  0  0  0  0  0  0  0  0  0  0
  147.3138  139.6680  153.6203 C   0  0  0  0  0  0  0  0  0  0  0  0
  146.4270  139.2759  154.8342 C   0  0  0  0  0  0  0  0  0  0  0  0
  145.3472  138.2900  154.3434 C   0  0  0  0  0  0  0  0  0  0  0  0
  147.2320  138.5531  155.9375 C   0  0  0  0  0  0  0  0  0  0  0  0
  145.7252  140.5376  155.3942 C   0  0  0  0  0  0  0  0  0  0  0  0
  145.2078  143.3014  155.5037 H   0  0  0  0  0  0  0  0  0  0  0  0
  146.6096  143.7388  156.4773 H   0  0  0  0  0  0  0  0  0  0  0  0
  145.3759  142.6764  157.1423 H   0  0  0  0  0  0  0  0  0  0  0  0
  147.3723  141.3958  156.4823 H   0  0  0  0  0  0  0  0  0  0  0  0
  146.8234  142.4648  153.6778 H   0  0  0  0  0  0  0  0  0  0  0  0
  148.1903  142.8859  154.6623 H   0  0  0  0  0  0  0  0  0  0  0  0
  148.6118  141.1862  152.8495 H   0  0  0  0  0  0  0  0  0  0  0  0
  148.9881  141.6705  156.1445 H   0  0  0  0  0  0  0  0  0  0  0  0
  151.1186  139.8086  156.7111 H   0  0  0  0  0  0  0  0  0  0  0  0
  151.7461  141.3657  156.1951 H   0  0  0  0  0  0  0  0  0  0  0  0
  149.5685  141.5855  158.2345 H   0  0  0  0  0  0  0  0  0  0  0  0
  151.0094  140.7701  158.8188 H   0  0  0  0  0  0  0  0  0  0  0  0
  151.7579  145.9196  157.6414 H   0  0  0  0  0  0  0  0  0  0  0  0
  153.3554  144.8577  159.6630 H   0  0  0  0  0  0  0  0  0  0  0  0
  153.5869  142.5902  160.7089 H   0  0  0  0  0  0  0  0  0  0  0  0
  153.3052  141.2913  159.5284 H   0  0  0  0  0  0  0  0  0  0  0  0
  152.0478  141.7017  160.7265 H   0  0  0  0  0  0  0  0  0  0  0  0
  146.6591  139.9311  152.7879 H   0  0  0  0  0  0  0  0  0  0  0  0
  147.8678  138.7954  153.2714 H   0  0  0  0  0  0  0  0  0  0  0  0
  144.6825  137.9900  155.1545 H   0  0  0  0  0  0  0  0  0  0  0  0
  145.7941  137.3834  153.9334 H   0  0  0  0  0  0  0  0  0  0  0  0
  144.7261  138.7293  153.5619 H   0  0  0  0  0  0  0  0  0  0  0  0
  146.5745  138.1881  156.7272 H   0  0  0  0  0  0  0  0  0  0  0  0
  147.9656  139.1953  156.4191 H   0  0  0  0  0  0  0  0  0  0  0  0
  147.7672  137.6917  155.5364 H   0  0  0  0  0  0  0  0  0  0  0  0
  145.1675  140.2792  156.2956 H   0  0  0  0  0  0  0  0  0  0  0  0
  144.9813  140.8826  154.6742 H   0  0  0  0  0  0  0  0  0  0  0  0
  150.3404  143.9756  156.8589 H   0  0  0  0  0  0  0  0  0  0  0  0
  1  2  1  0  0  0  0
  1 21  1  0  0  0  0
  1 22  1  0  0  0  0
  1 23  1  0  0  0  0
  2 20  1  0  0  0  0
  2  3  1  0  0  0  0
  2 24  1  0  0  0  0
  3  4  1  0  0  0  0
  3 25  1  0  0  0  0
  3 26  1  0  0  0  0
  4  5  1  0  0  0  0
  4 16  1  0  0  0  0
  4 27  1  0  0  0  0
  5  6  2  0  0  0  0
  5  7  1  0  0  0  0
  7  8  1  0  0  0  0
  7 28  1  0  0  0  0
  8  9  1  0  0  0  0
  8 29  1  0  0  0  0
  8 30  1  0  0  0  0
  9 10  1  0  0  0  0
  9 31  1  0  0  0  0
  9 32  1  0  0  0  0
 10 14  1  0  0  0  0
 10 11  2  0  0  0  0
 11 12  1  0  0  0  0
 11 48  1  0  0  0  0
 12 13  2  0  0  0  0
 12 33  1  0  0  0  0
 13 14  1  0  0  0  0
 13 34  1  0  0  0  0
 14 15  1  0  0  0  0
 15 35  1  0  0  0  0
 15 36  1  0  0  0  0
 15 37  1  0  0  0  0
 16 17  1  0  0  0  0
 16 38  1  0  0  0  0
 16 39  1  0  0  0  0
 17 18  1  0  0  0  0
 17 19  1  0  0  0  0
 17 20  1  0  0  0  0
 18 40  1  0  0  0  0
 18 41  1  0  0  0  0
 18 42  1  0  0  0  0
 19 43  1  0  0  0  0
 19 44  1  0  0  0  0
 19 45  1  0  0  0  0
 20 46  1  0  0  0  0
 20 47  1  0  0  0  0
M  CHG  1  11   1
M  END
> <s_m_source_file>
AV-unprocessed.smi

> <i_m_source_file_index>
2473

> <i_lp_mmshare_version>
43012

> <i_f3d_flags>
0

> <s_epik_input>
W0NIM11bQ0BASF0oW0NIMl0xKVtDSDJdW0NASF0oW0NIMl1DMShbQ0gzXSlbQ0gzXSlDKD1PKVtOSF1bQ0gyXVtDSDJdYzJuW2NIXVtjSF1uMltDSDNd

> <s_epik_cmdline>
J2VwaWtfcHl0aG9uJywgJy1waCcsICc3LjAnLCAnLXRuJywgJzgnLCAnLW1hJywgJzIwMCcsICctbWV0YWxfYmluZGluZycsICctaW1hZScsICc8aW5maWxlLm1hZT4nLCAnLW9tYWUnLCAnPG91dGZpbGUubWFlPic=

> <r_lp_tautomer_probability>
1

> <r_epik_Ionization_Penalty>
0.0796112

> <r_epik_Ionization_Penalty_Charging>
0

> <r_epik_Ionization_Penalty_Neutral>
0.0796112

> <r_epik_State_Penalty>
0.0704541

> <r_epik_Charging_Adjusted_Penalty>
0.0704541

> <i_epik_Tot_Q>
1

> <i_epik_Tot_abs_Q>
1

> <r_epik_Metal_State_Penalty>
0.409899

> <b_epik_Metal_Only>
0

> <s_lp_Force_Field>
OPLS_2005

> <r_lp_Energy>
17.1237

> <b_lp_Chiralities_Consistent>
1

> <s_lp_Variant>
AV-unprocessed.smi:2473-1

> <Gold.Version>
5.8.1

> <Gold.Id.Protein>
6NUR|6NUR_protein|mol2

> <Gold.PLP.Fitness>
46.1844

> <Gold.PLP.PLP>
-38.1835

> <Gold.PLP.part.hbond>
-2.0000

> <Gold.PLP.part.metal>
0.0000

> <Gold.PLP.part.buried>
-4.1166

> <Gold.PLP.part.nonpolar>
-32.5338

> <Gold.PLP.part.repulsive>
0.7693

> <Gold.PLP.ligand.clash>
0.0000

> <Gold.PLP.ligand.torsion>
0.5347

> <Gold.PLP.Chemscore.Hbond>
3.0000

> <Gold.PLP.Chemscore.CHOScore>
0.0000

> <Gold.PLP.Chemscore.Metal>
0.0000

> <Gold.Chemscore.Hbonds>
donor molecule, donor type, donor heavy atom, donor atom, acceptor molecule, acceptor atom, score
      L1  H    11    48       P1  8028  2.00
      P1  H  7989  7998       L1     6  1.00

> <Gold.PLP.Chemscore.Internal.Correction>
0.0704

> <Gold.Rescore>
     Score         DG    S(hbond)    S(metal)    S(lipo)     H(rot)  DE(clash)    DE(int)     intcor
     15.16     -16.50       1.73        0.00      79.35       1.58       0.20       1.14       ----

> <Gold.Chemscore.Fitness>
15.1583

> <Gold.Chemscore.DG>
-16.4963

> <Gold.Chemscore.ZeroCoef>
-5.4800

> <Gold.Chemscore.Hbond>
1.7311

> <Gold.Chemscore.Metal>
0.0000

> <Gold.Chemscore.Lipo>
79.3503

> <Gold.Chemscore.Internal_Hbond>
0.0000

> <Gold.Chemscore.DEClash>
0.2029

> <Gold.Chemscore.DEInternal>
1.1351

> <Gold.Chemscore.Rot>
1.5818

> <Gold.Chemscore.Internal.Correction>
   9.000000E+99

> <Gold.Chemscore.Hbonds>
donor molecule, donor type, donor heavy atom, donor atom, acceptor molecule, acceptor atom, score
      L1  H    11    48       P1  8028  0.94
      P1  H  7989  7998       L1     6  0.34

> <Gold.Chemscore.Hbond.Weighted>
-5.7817

> <Gold.Chemscore.Metal.Weighted>
-0.0000

> <Gold.Chemscore.Lipo.Weighted>
-9.2840

> <Gold.Chemscore.Internal_Hbond.Weighted>
0.0000

> <Gold.Chemscore.DEClash.Weighted>
0.2029

> <Gold.Chemscore.DEInternal.Weighted>
1.1351

> <Gold.Chemscore.Rot.Weighted>
4.0495

> <Gold.Chemscore.Internal.Correction.Weighted>
   9.000000E+99

> <Gold.Protein.RotatedTorsions>
[ 6907 6896 6895 6894 ] final  158.23 input  -60.11 | X-H torsion
[ 7974 7965 7964 7962 ] final  -59.89 input  175.53 | X-H torsion
[ 8008 7997 7996 7995 ] final   -2.29 input   59.86 | X-H torsion
[ 10167 10162 10161 10158 ] final -131.05 input  -65.29 | X-H torsion
[ 10718 10713 10712 10709 ] final   53.08 input   66.30 | X-H torsion
[ 10763 10752 10751 10750 ] final -121.79 input  -60.55 | X-H torsion
[ 11005 11000 10999 10996 ] final   91.46 input  -57.11 | X-H torsion

> <Gold.Protein.ActiveResidues>
 VAL166  LYS551  ARG553  GLY616  TRP617  ASP618  TYR619  PRO620  LYS621  CYS622 
 ASP623  PHE694  ASN695  SER759  ASP760  ASP761  ALA762  ILE779  LEU786  VAL792 
 PHE793  MET794  SER795  GLU796  ALA797  LYS798  CYS799  TRP800  GLU811  SER814 

> <Gold.Protein.RotatedAtoms>
  152.0034  133.3834  159.4190 H   0  0  0  0  0  0  0  0  0  0  0  0  # atno 6907 bound_to 6896
  150.6907  134.3809  159.5043 H   0  0  0  0  0  0  0  0  0  0  0  0  # atno 6908 bound_to 6896
  152.1559  134.8951  160.0595 H   0  0  0  0  0  0  0  0  0  0  0  0  # atno 6909 bound_to 6896
  145.8221  140.8533  143.0127 H   0  0  0  0  0  0  0  0  0  0  0  0  # atno 7974 bound_to 7965
  154.6374  140.2538  155.7362 H   0  0  0  0  0  0  0  0  0  0  0  0  # atno 8008 bound_to 7997
  156.2511  140.2894  156.0673 H   0  0  0  0  0  0  0  0  0  0  0  0  # atno 8009 bound_to 7997
  155.1649  140.0385  157.2841 H   0  0  0  0  0  0  0  0  0  0  0  0  # atno 8010 bound_to 7997
  139.9230  143.6360  152.2549 H   0  0  0  0  0  0  0  0  0  0  0  0  # atno 10167 bound_to 10162
  157.5134  130.8516  149.8464 H   0  0  0  0  0  0  0  0  0  0  0  0  # atno 10718 bound_to 10713
  154.8676  135.4155  154.2678 H   0  0  0  0  0  0  0  0  0  0  0  0  # atno 10763 bound_to 10752
  153.3593  135.7002  153.6730 H   0  0  0  0  0  0  0  0  0  0  0  0  # atno 10764 bound_to 10752
  153.5638  135.3605  155.2782 H   0  0  0  0  0  0  0  0  0  0  0  0  # atno 10765 bound_to 10752
  139.8838  134.8675  156.3431 H   0  0  0  0  0  0  0  0  0  0  0  0  # atno 11005 bound_to 11000
  144.6747  140.0549  143.7478 LP  0  0  0  0  0  0  0  0  0  0  0  0  # atno 17320 bound_to 7965
  145.9663  139.2837  143.1125 LP  0  0  0  0  0  0  0  0  0  0  0  0  # atno 17321 bound_to 7965
  139.6846  144.7653  151.1547 LP  0  0  0  0  0  0  0  0  0  0  0  0  # atno 17342 bound_to 10162
  140.7657  143.5676  150.9031 LP  0  0  0  0  0  0  0  0  0  0  0  0  # atno 17343 bound_to 10162
  156.0304  130.3766  150.1704 LP  0  0  0  0  0  0  0  0  0  0  0  0  # atno 17370 bound_to 10713
  156.9894  130.9888  151.3418 LP  0  0  0  0  0  0  0  0  0  0  0  0  # atno 17371 bound_to 10713
  140.9645  133.7367  156.0447 LP  0  0  0  0  0  0  0  0  0  0  0  0  # atno 17394 bound_to 11000
  140.7948  134.3576  157.5455 LP  0  0  0  0  0  0  0  0  0  0  0  0  # atno 17395 bound_to 11000

$$$$
