AV-unprocessed.smi:610|AV-procd|sdf|3056|dock7
  -GOLD-   2262023583D 1   1.00000     0.00000
 Structure written by MMmdl.
 38 39  0  0  0  0  0  0  0  0  2 V2000
  144.7944  136.4619  154.2826 C   0  0  0  0  0  0  0  0  0  0  0  0
  146.2590  136.0823  154.5388 C   0  0  1  0  0  0  0  0  0  0  0  0
  146.6238  134.7535  153.8443 C   0  0  0  0  0  0  0  0  0  0  0  0
  145.7916  134.4801  152.6872 N   0  0  0  0  0  0  0  0  0  0  0  0
  145.8869  135.0615  151.4297 C   0  0  0  0  0  0  0  0  0  0  0  0
  144.8899  134.5032  150.6622 C   0  0  0  0  0  0  0  0  0  0  0  0
  144.1794  133.5748  151.4196 N   0  0  0  0  0  0  0  0  0  0  0  0
  144.7759  133.6103  152.6038 C   0  0  0  0  0  0  0  0  0  0  0  0
  147.1187  137.1678  154.0679 N   0  0  0  0  0  0  0  0  0  0  0  0
  147.1269  138.4293  154.5338 C   0  0  0  0  0  0  0  0  0  0  0  0
  146.3607  138.8110  155.4188 O   0  0  0  0  0  0  0  0  0  0  0  0
  148.1217  139.4346  153.9065 C   0  0  0  0  0  0  0  0  0  0  0  0
  149.1511  138.6448  153.2068 N   0  3  0  0  0  0  0  0  0  0  0  0
  147.4093  140.4014  152.9414 C   0  0  0  0  0  0  0  0  0  0  0  0
  146.8681  141.5391  153.8198 C   0  0  0  0  0  0  0  0  0  0  0  0
  147.7089  141.5249  155.1062 C   0  0  0  0  0  0  0  0  0  0  0  0
  148.7566  140.4222  154.9077 C   0  0  0  0  0  0  0  0  0  0  0  0
  144.1196  135.6861  154.6459 H   0  0  0  0  0  0  0  0  0  0  0  0
  144.5988  136.6011  153.2186 H   0  0  0  0  0  0  0  0  0  0  0  0
  144.5333  137.3890  154.7943 H   0  0  0  0  0  0  0  0  0  0  0  0
  146.3724  135.9560  155.6170 H   0  0  0  0  0  0  0  0  0  0  0  0
  147.6609  134.7791  153.5073 H   0  0  0  0  0  0  0  0  0  0  0  0
  146.5436  133.9197  154.5434 H   0  0  0  0  0  0  0  0  0  0  0  0
  146.6306  135.8084  151.1936 H   0  0  0  0  0  0  0  0  0  0  0  0
  144.6330  134.6955  149.6310 H   0  0  0  0  0  0  0  0  0  0  0  0
  144.4589  132.9956  153.4335 H   0  0  0  0  0  0  0  0  0  0  0  0
  147.7761  136.9332  153.3380 H   0  0  0  0  0  0  0  0  0  0  0  0
  148.7353  137.8074  152.8253 H   0  0  0  0  0  0  0  0  0  0  0  0
  149.8776  138.3935  153.8623 H   0  0  0  0  0  0  0  0  0  0  0  0
  148.1303  140.8139  152.2336 H   0  0  0  0  0  0  0  0  0  0  0  0
  146.6208  139.9374  152.3470 H   0  0  0  0  0  0  0  0  0  0  0  0
  146.9312  142.4978  153.3043 H   0  0  0  0  0  0  0  0  0  0  0  0
  145.8181  141.3683  154.0584 H   0  0  0  0  0  0  0  0  0  0  0  0
  148.1750  142.4909  155.3034 H   0  0  0  0  0  0  0  0  0  0  0  0
  147.0728  141.2898  155.9604 H   0  0  0  0  0  0  0  0  0  0  0  0
  149.0762  139.9748  155.8495 H   0  0  0  0  0  0  0  0  0  0  0  0
  149.6496  140.8654  154.4634 H   0  0  0  0  0  0  0  0  0  0  0  0
  149.5494  139.1967  152.4609 H   0  0  0  0  0  0  0  0  0  0  0  0
  1  2  1  0  0  0  0
  1 18  1  0  0  0  0
  1 19  1  0  0  0  0
  1 20  1  0  0  0  0
  2  3  1  0  0  0  0
  2  9  1  0  0  0  0
  2 21  1  0  0  0  0
  3  4  1  0  0  0  0
  3 22  1  0  0  0  0
  3 23  1  0  0  0  0
  4  8  1  0  0  0  0
  4  5  1  0  0  0  0
  5  6  2  0  0  0  0
  5 24  1  0  0  0  0
  6  7  1  0  0  0  0
  6 25  1  0  0  0  0
  7  8  2  0  0  0  0
  8 26  1  0  0  0  0
  9 10  1  0  0  0  0
  9 27  1  0  0  0  0
 10 11  2  0  0  0  0
 10 12  1  0  0  0  0
 12 17  1  0  0  0  0
 12 13  1  0  0  0  0
 12 14  1  0  0  0  0
 13 28  1  0  0  0  0
 13 29  1  0  0  0  0
 13 38  1  0  0  0  0
 14 15  1  0  0  0  0
 14 30  1  0  0  0  0
 14 31  1  0  0  0  0
 15 16  1  0  0  0  0
 15 32  1  0  0  0  0
 15 33  1  0  0  0  0
 16 17  1  0  0  0  0
 16 34  1  0  0  0  0
 16 35  1  0  0  0  0
 17 36  1  0  0  0  0
 17 37  1  0  0  0  0
M  CHG  1  13   1
M  END
> <s_m_source_file>
AV-unprocessed.smi

> <i_m_source_file_index>
610

> <i_lp_mmshare_version>
43012

> <i_f3d_flags>
0

> <s_epik_input>
W2NIXTFuW2NIXVtjSF1uMVtDSDJdW0NAQEhdKFtDSDNdKVtOSF1DKD1PKUMyKFtOSDJdKVtDSDJdW0NIMl1bQ0gyXVtDSDJdMg==

> <s_epik_cmdline>
J2VwaWtfcHl0aG9uJywgJy1waCcsICc3LjAnLCAnLXRuJywgJzgnLCAnLW1hJywgJzIwMCcsICctbWV0YWxfYmluZGluZycsICctaW1hZScsICc8aW5maWxlLm1hZT4nLCAnLW9tYWUnLCAnPG91dGZpbGUubWFlPic=

> <r_lp_tautomer_probability>
1

> <r_epik_Ionization_Penalty>
0.661147

> <r_epik_Ionization_Penalty_Charging>
0.661145

> <r_epik_Ionization_Penalty_Neutral>
1.19451e-06

> <r_epik_State_Penalty>
0.679243

> <r_epik_Charging_Adjusted_Penalty>
1.34039

> <i_epik_Tot_Q>
1

> <i_epik_Tot_abs_Q>
1

> <r_epik_Metal_State_Penalty>
0.372892

> <b_epik_Metal_Only>
0

> <s_lp_Force_Field>
OPLS_2005

> <r_lp_Energy>
24.5235

> <b_lp_Chiralities_Consistent>
1

> <s_lp_Variant>
AV-unprocessed.smi:610-4

> <Gold.Version>
5.8.1

> <Gold.Id.Protein>
6NUR|6NUR_protein|mol2

> <Gold.PLP.Fitness>
38.7774

> <Gold.PLP.PLP>
-21.1097

> <Gold.PLP.part.hbond>
-2.9038

> <Gold.PLP.part.metal>
0.0000

> <Gold.PLP.part.buried>
-1.4910

> <Gold.PLP.part.nonpolar>
-17.6911

> <Gold.PLP.part.repulsive>
0.2656

> <Gold.PLP.ligand.clash>
0.0000

> <Gold.PLP.ligand.torsion>
1.4350

> <Gold.PLP.Chemscore.Hbond>
3.8560

> <Gold.PLP.Chemscore.CHOScore>
2.9706

> <Gold.PLP.Chemscore.Metal>
0.0000

> <Gold.Chemscore.Hbonds>
donor molecule, donor type, donor heavy atom, donor atom, acceptor molecule, acceptor atom, score
      L1  H     9    27       P1  7948  1.00
      L1  H    13    28       P1  7948  1.89
      L1  H    13    38       P1  7957  1.00
      L1  C     5    24       P1  7948  1.00
      L1  C     6    25       P1  7921  0.98
      L1  C     8    26       P1 10957  0.95

> <Gold.PLP.Chemscore.Internal.Correction>
0.0581

> <Gold.Rescore>
     Score         DG    S(hbond)    S(metal)    S(lipo)     H(rot)  DE(clash)    DE(int)     intcor
     12.55     -14.92       2.80        0.00      44.35       2.00       0.31       2.07       ----

> <Gold.Chemscore.Fitness>
12.5491

> <Gold.Chemscore.DG>
-14.9249

> <Gold.Chemscore.ZeroCoef>
-5.4800

> <Gold.Chemscore.Hbond>
2.8049

> <Gold.Chemscore.Metal>
0.0000

> <Gold.Chemscore.Lipo>
44.3539

> <Gold.Chemscore.Internal_Hbond>
0.0000

> <Gold.Chemscore.DEClash>
0.3107

> <Gold.Chemscore.DEInternal>
2.0652

> <Gold.Chemscore.Rot>
1.9972

> <Gold.Chemscore.Internal.Correction>
   9.000000E+99

> <Gold.Chemscore.Hbonds>
donor molecule, donor type, donor heavy atom, donor atom, acceptor molecule, acceptor atom, score
      L1  H     9    27       P1  7948  0.95
      L1  H    13    28       P1  7948  0.91
      L1  H    13    38       P1  7957  0.90

> <Gold.Chemscore.Hbond.Weighted>
-9.3683

> <Gold.Chemscore.Metal.Weighted>
-0.0000

> <Gold.Chemscore.Lipo.Weighted>
-5.1894

> <Gold.Chemscore.Internal_Hbond.Weighted>
0.0000

> <Gold.Chemscore.DEClash.Weighted>
0.3107

> <Gold.Chemscore.DEInternal.Weighted>
2.0652

> <Gold.Chemscore.Rot.Weighted>
5.1127

> <Gold.Chemscore.Internal.Correction.Weighted>
   9.000000E+99

> <Gold.Protein.RotatedTorsions>
[ 6907 6896 6895 6894 ] final  -42.07 input  -60.11 | X-H torsion
[ 7974 7965 7964 7962 ] final -153.57 input  175.53 | X-H torsion
[ 8008 7997 7996 7995 ] final -111.66 input   59.86 | X-H torsion
[ 10167 10162 10161 10158 ] final   12.29 input  -65.29 | X-H torsion
[ 10718 10713 10712 10709 ] final   16.48 input   66.30 | X-H torsion
[ 10763 10752 10751 10750 ] final    9.98 input  -60.55 | X-H torsion
[ 11005 11000 10999 10996 ] final   37.40 input  -57.11 | X-H torsion

> <Gold.Protein.ActiveResidues>
 VAL166  LYS551  ARG553  GLY616  TRP617  ASP618  TYR619  PRO620  LYS621  CYS622 
 ASP623  PHE694  ASN695  SER759  ASP760  ASP761  ALA762  ILE779  LEU786  VAL792 
 PHE793  MET794  SER795  GLU796  ALA797  LYS798  CYS799  TRP800  GLU811  SER814 

> <Gold.Protein.RotatedAtoms>
  150.9595  134.8985  159.7721 H   0  0  0  0  0  0  0  0  0  0  0  0  # atno 6907 bound_to 6896
  152.5150  134.3693  159.9322 H   0  0  0  0  0  0  0  0  0  0  0  0  # atno 6908 bound_to 6896
  151.3706  133.3816  159.2734 H   0  0  0  0  0  0  0  0  0  0  0  0  # atno 6909 bound_to 6896
  144.7734  140.4508  143.5891 H   0  0  0  0  0  0  0  0  0  0  0  0  # atno 7974 bound_to 7965
  154.9932  140.0395  157.2328 H   0  0  0  0  0  0  0  0  0  0  0  0  # atno 8008 bound_to 7997
  154.7609  140.2784  155.6192 H   0  0  0  0  0  0  0  0  0  0  0  0  # atno 8009 bound_to 7997
  156.2904  140.2628  156.2388 H   0  0  0  0  0  0  0  0  0  0  0  0  # atno 8010 bound_to 7997
  140.6077  143.8473  150.7032 H   0  0  0  0  0  0  0  0  0  0  0  0  # atno 10167 bound_to 10162
  157.0684  130.6338  149.5800 H   0  0  0  0  0  0  0  0  0  0  0  0  # atno 10718 bound_to 10713
  153.2081  135.6865  153.8147 H   0  0  0  0  0  0  0  0  0  0  0  0  # atno 10763 bound_to 10752
  153.7390  135.3241  155.3301 H   0  0  0  0  0  0  0  0  0  0  0  0  # atno 10764 bound_to 10752
  154.8208  135.4653  154.0877 H   0  0  0  0  0  0  0  0  0  0  0  0  # atno 10765 bound_to 10752
  140.2229  134.3619  155.7997 H   0  0  0  0  0  0  0  0  0  0  0  0  # atno 11005 bound_to 11000
  145.6257  139.1530  143.2997 LP  0  0  0  0  0  0  0  0  0  0  0  0  # atno 17320 bound_to 7965
  146.1897  140.6364  142.9151 LP  0  0  0  0  0  0  0  0  0  0  0  0  # atno 17321 bound_to 7965
  140.2034  143.3941  152.1774 LP  0  0  0  0  0  0  0  0  0  0  0  0  # atno 17342 bound_to 10162
  139.5337  144.7187  151.4965 LP  0  0  0  0  0  0  0  0  0  0  0  0  # atno 17343 bound_to 10162
  155.9957  130.5025  150.7470 LP  0  0  0  0  0  0  0  0  0  0  0  0  # atno 17370 bound_to 10713
  157.4898  131.0910  151.0440 LP  0  0  0  0  0  0  0  0  0  0  0  0  # atno 17371 bound_to 10713
  141.2222  133.7203  156.8605 LP  0  0  0  0  0  0  0  0  0  0  0  0  # atno 17394 bound_to 11000
  140.1831  134.9019  157.2972 LP  0  0  0  0  0  0  0  0  0  0  0  0  # atno 17395 bound_to 11000

$$$$
