AV-unprocessed.smi:3181|AV-procd|sdf|12135|dock1
  -GOLD-   2272017573D 1   1.00000     0.00000
 Structure written by MMmdl.
 42 43  0  0  0  0  0  0  0  0  2 V2000
  149.7430  141.8333  158.1006 C   0  0  0  0  0  0  0  0  0  0  0  0
  150.7072  142.2060  156.9624 C   0  0  2  0  0  0  0  0  0  0  0  0
  151.5894  143.4258  157.2974 C   0  0  0  0  0  0  0  0  0  0  0  0
  152.1059  143.3964  158.6534 N   0  0  0  0  0  0  0  0  0  0  0  0
  151.9690  144.2658  159.6562 C   0  0  0  0  0  0  0  0  0  0  0  0
  152.5970  143.9049  160.7662 N   0  0  0  0  0  0  0  0  0  0  0  0
  153.1450  142.7257  160.3461 C   0  0  0  0  0  0  0  0  0  0  0  0
  152.8823  142.3760  159.0866 N   0  0  0  0  0  0  0  0  0  0  0  0
  149.9399  142.4713  155.7243 N   0  3  0  0  0  0  0  0  0  0  0  0
  148.9760  141.4208  155.3273 C   0  0  2  0  0  0  0  0  0  0  0  0
  149.7148  140.2776  154.6093 C   0  0  0  0  0  0  0  0  0  0  0  0
  148.7451  139.1838  154.1344 C   0  0  0  0  0  0  0  0  0  0  0  0
  147.6393  139.7643  153.2312 C   0  0  1  0  0  0  0  0  0  0  0  0
  146.7149  138.6659  152.6808 C   0  0  0  0  0  0  0  0  0  0  0  0
  146.8756  140.9162  153.9333 C   0  0  1  0  0  0  0  0  0  0  0  0
  145.9398  140.4547  155.0688 C   0  0  0  0  0  0  0  0  0  0  0  0
  147.8676  141.9954  154.4164 C   0  0  0  0  0  0  0  0  0  0  0  0
  150.2814  141.5545  159.0068 H   0  0  0  0  0  0  0  0  0  0  0  0
  149.1203  140.9824  157.8225 H   0  0  0  0  0  0  0  0  0  0  0  0
  149.0809  142.6634  158.3484 H   0  0  0  0  0  0  0  0  0  0  0  0
  151.3666  141.3520  156.8008 H   0  0  0  0  0  0  0  0  0  0  0  0
  152.4374  143.4787  156.6129 H   0  0  0  0  0  0  0  0  0  0  0  0
  151.0243  144.3498  157.1663 H   0  0  0  0  0  0  0  0  0  0  0  0
  151.3967  145.1784  159.5750 H   0  0  0  0  0  0  0  0  0  0  0  0
  153.7561  142.1073  160.9872 H   0  0  0  0  0  0  0  0  0  0  0  0
  149.4389  143.3418  155.8296 H   0  0  0  0  0  0  0  0  0  0  0  0
  148.5324  141.0140  156.2374 H   0  0  0  0  0  0  0  0  0  0  0  0
  150.2602  140.6716  153.7503 H   0  0  0  0  0  0  0  0  0  0  0  0
  150.4613  139.8393  155.2726 H   0  0  0  0  0  0  0  0  0  0  0  0
  149.3027  138.4200  153.5912 H   0  0  0  0  0  0  0  0  0  0  0  0
  148.3043  138.6811  154.9959 H   0  0  0  0  0  0  0  0  0  0  0  0
  148.1372  140.2024  152.3645 H   0  0  0  0  0  0  0  0  0  0  0  0
  146.2313  138.1051  153.4806 H   0  0  0  0  0  0  0  0  0  0  0  0
  147.2760  137.9520  152.0773 H   0  0  0  0  0  0  0  0  0  0  0  0
  145.9353  139.0886  152.0467 H   0  0  0  0  0  0  0  0  0  0  0  0
  146.2369  141.3872  153.1846 H   0  0  0  0  0  0  0  0  0  0  0  0
  146.4720  139.9092  155.8473 H   0  0  0  0  0  0  0  0  0  0  0  0
  145.1473  139.8067  154.6948 H   0  0  0  0  0  0  0  0  0  0  0  0
  145.4521  141.3075  155.5417 H   0  0  0  0  0  0  0  0  0  0  0  0
  147.3207  142.7891  154.9260 H   0  0  0  0  0  0  0  0  0  0  0  0
  148.3292  142.4653  153.5464 H   0  0  0  0  0  0  0  0  0  0  0  0
  150.6070  142.5795  154.9736 H   0  0  0  0  0  0  0  0  0  0  0  0
  1  2  1  0  0  0  0
  1 18  1  0  0  0  0
  1 19  1  0  0  0  0
  1 20  1  0  0  0  0
  2  3  1  0  0  0  0
  2  9  1  0  0  0  0
  2 21  1  0  0  0  0
  3  4  1  0  0  0  0
  3 22  1  0  0  0  0
  3 23  1  0  0  0  0
  4  8  1  0  0  0  0
  4  5  1  0  0  0  0
  5  6  2  0  0  0  0
  5 24  1  0  0  0  0
  6  7  1  0  0  0  0
  7  8  2  0  0  0  0
  7 25  1  0  0  0  0
  9 10  1  0  0  0  0
  9 26  1  0  0  0  0
  9 42  1  0  0  0  0
 10 17  1  0  0  0  0
 10 11  1  0  0  0  0
 10 27  1  0  0  0  0
 11 12  1  0  0  0  0
 11 28  1  0  0  0  0
 11 29  1  0  0  0  0
 12 13  1  0  0  0  0
 12 30  1  0  0  0  0
 12 31  1  0  0  0  0
 13 14  1  0  0  0  0
 13 15  1  0  0  0  0
 13 32  1  0  0  0  0
 14 33  1  0  0  0  0
 14 34  1  0  0  0  0
 14 35  1  0  0  0  0
 15 16  1  0  0  0  0
 15 17  1  0  0  0  0
 15 36  1  0  0  0  0
 16 37  1  0  0  0  0
 16 38  1  0  0  0  0
 16 39  1  0  0  0  0
 17 40  1  0  0  0  0
 17 41  1  0  0  0  0
M  CHG  1   9   1
M  END
> <s_m_source_file>
AV-unprocessed.smi

> <i_m_source_file_index>
3181

> <i_lp_mmshare_version>
43012

> <i_f3d_flags>
0

> <s_epik_input>
bjFbY0hdbltjSF1uMVtDSDJdW0NAQEhdKFtDSDNdKVtOSF1bQ0BASF0yW0NIMl1bQ0gyXVtDQEBIXShbQ0gzXSlbQ0BASF0oW0NIM10pW0NIMl0y

> <s_epik_cmdline>
J2VwaWtfcHl0aG9uJywgJy1waCcsICc3LjAnLCAnLXRuJywgJzgnLCAnLW1hJywgJzIwMCcsICctbWV0YWxfYmluZGluZycsICctaW1hZScsICc8aW5maWxlLm1hZT4nLCAnLW9tYWUnLCAnPG91dGZpbGUubWFlPic=

> <r_lp_tautomer_probability>
1

> <r_epik_Ionization_Penalty>
0.000617007

> <r_epik_Ionization_Penalty_Charging>
0.000616215

> <r_epik_Ionization_Penalty_Neutral>
7.92544e-07

> <r_epik_State_Penalty>
0.000388807

> <r_epik_Charging_Adjusted_Penalty>
0.00100502

> <i_epik_Tot_Q>
1

> <i_epik_Tot_abs_Q>
1

> <r_epik_Metal_State_Penalty>
-0

> <b_epik_Metal_Only>
0

> <s_lp_Force_Field>
OPLS_2005

> <r_lp_Energy>
21.1585

> <b_lp_Chiralities_Consistent>
1

> <s_lp_Variant>
AV-unprocessed.smi:3181-1

> <Gold.Version>
5.8.1

> <Gold.Id.Protein>
6NUR|6NUR_protein|mol2

> <Gold.PLP.Fitness>
40.7686

> <Gold.PLP.PLP>
-35.4795

> <Gold.PLP.part.hbond>
-0.9505

> <Gold.PLP.part.metal>
0.0000

> <Gold.PLP.part.buried>
-1.2056

> <Gold.PLP.part.nonpolar>
-33.7456

> <Gold.PLP.part.repulsive>
0.2451

> <Gold.PLP.ligand.clash>
0.0000

> <Gold.PLP.ligand.torsion>
0.3695

> <Gold.PLP.Chemscore.Hbond>
2.0000

> <Gold.PLP.Chemscore.CHOScore>
0.0000

> <Gold.PLP.Chemscore.Metal>
0.0000

> <Gold.Chemscore.Hbonds>
donor molecule, donor type, donor heavy atom, donor atom, acceptor molecule, acceptor atom, score
      L1  H     9    26       P1  8028  1.82

> <Gold.PLP.Chemscore.Internal.Correction>
0.0280

> <Gold.Rescore>
     Score         DG    S(hbond)    S(metal)    S(lipo)     H(rot)  DE(clash)    DE(int)     intcor
     10.80     -11.15       0.99        0.00      66.35       2.11       0.04       0.31       ----

> <Gold.Chemscore.Fitness>
10.7975

> <Gold.Chemscore.DG>
-11.1531

> <Gold.Chemscore.ZeroCoef>
-5.4800

> <Gold.Chemscore.Hbond>
0.9912

> <Gold.Chemscore.Metal>
0.0000

> <Gold.Chemscore.Lipo>
66.3482

> <Gold.Chemscore.Internal_Hbond>
0.0000

> <Gold.Chemscore.DEClash>
0.0417

> <Gold.Chemscore.DEInternal>
0.3139

> <Gold.Chemscore.Rot>
2.1095

> <Gold.Chemscore.Internal.Correction>
   9.000000E+99

> <Gold.Chemscore.Hbonds>
donor molecule, donor type, donor heavy atom, donor atom, acceptor molecule, acceptor atom, score
      L1  H     9    26       P1  8028  0.87

> <Gold.Chemscore.Hbond.Weighted>
-3.3107

> <Gold.Chemscore.Metal.Weighted>
-0.0000

> <Gold.Chemscore.Lipo.Weighted>
-7.7627

> <Gold.Chemscore.Internal_Hbond.Weighted>
0.0000

> <Gold.Chemscore.DEClash.Weighted>
0.0417

> <Gold.Chemscore.DEInternal.Weighted>
0.3139

> <Gold.Chemscore.Rot.Weighted>
5.4003

> <Gold.Chemscore.Internal.Correction.Weighted>
   9.000000E+99

> <Gold.Protein.RotatedTorsions>
[ 6907 6896 6895 6894 ] final  147.32 input  -60.11 | X-H torsion
[ 7974 7965 7964 7962 ] final  -80.49 input  175.53 | X-H torsion
[ 8008 7997 7996 7995 ] final   -5.07 input   59.86 | X-H torsion
[ 10167 10162 10161 10158 ] final -119.57 input  -65.29 | X-H torsion
[ 10718 10713 10712 10709 ] final  102.46 input   66.30 | X-H torsion
[ 10763 10752 10751 10750 ] final  -44.66 input  -60.55 | X-H torsion
[ 11005 11000 10999 10996 ] final  101.21 input  -57.11 | X-H torsion

> <Gold.Protein.ActiveResidues>
 VAL166  LYS551  ARG553  GLY616  TRP617  ASP618  TYR619  PRO620  LYS621  CYS622 
 ASP623  PHE694  ASN695  SER759  ASP760  ASP761  ALA762  ILE779  LEU786  VAL792 
 PHE793  MET794  SER795  GLU796  ALA797  LYS798  CYS799  TRP800  GLU811  SER814 

> <Gold.Protein.RotatedAtoms>
  152.1563  133.4553  159.4838 H   0  0  0  0  0  0  0  0  0  0  0  0  # atno 6907 bound_to 6896
  150.6901  134.2127  159.4375 H   0  0  0  0  0  0  0  0  0  0  0  0  # atno 6908 bound_to 6896
  152.0027  134.9919  160.0616 H   0  0  0  0  0  0  0  0  0  0  0  0  # atno 6909 bound_to 6896
  145.5593  140.9484  143.1456 H   0  0  0  0  0  0  0  0  0  0  0  0  # atno 7974 bound_to 7965
  154.6077  140.2468  155.7709 H   0  0  0  0  0  0  0  0  0  0  0  0  # atno 8008 bound_to 7997
  156.2351  140.2953  156.0242 H   0  0  0  0  0  0  0  0  0  0  0  0  # atno 8009 bound_to 7997
  155.2104  140.0397  157.2923 H   0  0  0  0  0  0  0  0  0  0  0  0  # atno 8010 bound_to 7997
  140.0452  143.5114  152.2110 H   0  0  0  0  0  0  0  0  0  0  0  0  # atno 10167 bound_to 10162
  157.6801  131.0753  150.5408 H   0  0  0  0  0  0  0  0  0  0  0  0  # atno 10718 bound_to 10713
  154.0157  135.6676  153.4768 H   0  0  0  0  0  0  0  0  0  0  0  0  # atno 10763 bound_to 10752
  153.0602  135.5032  154.8071 H   0  0  0  0  0  0  0  0  0  0  0  0  # atno 10764 bound_to 10752
  154.6968  135.3071  154.9363 H   0  0  0  0  0  0  0  0  0  0  0  0  # atno 10765 bound_to 10752
  139.8772  134.9173  156.4872 H   0  0  0  0  0  0  0  0  0  0  0  0  # atno 11005 bound_to 11000
  144.7491  139.7241  143.7280 LP  0  0  0  0  0  0  0  0  0  0  0  0  # atno 17320 bound_to 7965
  146.1862  139.5079  142.9834 LP  0  0  0  0  0  0  0  0  0  0  0  0  # atno 17321 bound_to 7965
  139.5988  144.7576  151.3222 LP  0  0  0  0  0  0  0  0  0  0  0  0  # atno 17342 bound_to 10162
  140.7242  143.7051  150.7814 LP  0  0  0  0  0  0  0  0  0  0  0  0  # atno 17343 bound_to 10162
  156.5715  130.4281  149.6017 LP  0  0  0  0  0  0  0  0  0  0  0  0  # atno 17370 bound_to 10713
  156.2737  130.7031  151.1836 LP  0  0  0  0  0  0  0  0  0  0  0  0  # atno 17371 bound_to 10713
  140.8684  133.8006  155.9339 LP  0  0  0  0  0  0  0  0  0  0  0  0  # atno 17394 bound_to 11000
  140.8977  134.2417  157.5059 LP  0  0  0  0  0  0  0  0  0  0  0  0  # atno 17395 bound_to 11000

$$$$
