AV-unprocessed.smi:554|AV-procd|sdf|2906|dock1
  -GOLD-   2262023393D 1   1.00000     0.00000
 Structure written by MMmdl.
 27 28  0  0  0  0  0  0  0  0  1 V2000
  153.2741  141.8288  160.8305 C   0  0  0  0  0  0  0  0  0  0  0  0
  153.0172  143.2015  160.2477 C   0  0  2  0  0  0  0  0  0  0  0  0
  152.1266  144.1883  160.9672 C   0  0  0  0  0  0  0  0  0  0  0  0
  151.6639  143.5578  159.6743 C   0  0  1  0  0  0  0  0  0  0  0  0
  151.5630  144.3753  158.4010 C   0  0  0  0  0  0  0  0  0  0  0  0
  150.8639  143.7198  157.3033 N   0  0  0  0  0  0  0  0  0  0  0  0
  150.9853  142.4247  156.9791 C   0  0  0  0  0  0  0  0  0  0  0  0
  151.7080  141.6368  157.5900 O   0  0  0  0  0  0  0  0  0  0  0  0
  150.2215  142.1161  155.9165 N   0  0  0  0  0  0  0  0  0  0  0  0
  150.1118  140.8699  155.2461 C   0  0  0  0  0  0  0  0  0  0  0  0
  151.1515  140.0928  154.9209 N   0  0  0  0  0  0  0  0  0  0  0  0
  150.7499  138.9297  154.2588 C   0  0  0  0  0  0  0  0  0  0  0  0
  149.3911  138.8373  154.0868 C   0  0  0  0  0  0  0  0  0  0  0  0
  148.5565  140.2139  154.7563 S   0  0  0  0  0  0  0  0  0  0  0  0
  152.3879  141.4522  161.3425 H   0  0  0  0  0  0  0  0  0  0  0  0
  154.0959  141.8736  161.5452 H   0  0  0  0  0  0  0  0  0  0  0  0
  153.5400  141.1305  160.0369 H   0  0  0  0  0  0  0  0  0  0  0  0
  153.8803  143.6251  159.7375 H   0  0  0  0  0  0  0  0  0  0  0  0
  151.6411  143.8613  161.8845 H   0  0  0  0  0  0  0  0  0  0  0  0
  152.4205  145.2359  160.9453 H   0  0  0  0  0  0  0  0  0  0  0  0
  150.8994  142.7874  159.7622 H   0  0  0  0  0  0  0  0  0  0  0  0
  151.0481  145.3120  158.6165 H   0  0  0  0  0  0  0  0  0  0  0  0
  152.5700  144.6490  158.0820 H   0  0  0  0  0  0  0  0  0  0  0  0
  150.2474  144.2951  156.7485 H   0  0  0  0  0  0  0  0  0  0  0  0
  149.6667  142.8657  155.5303 H   0  0  0  0  0  0  0  0  0  0  0  0
  151.5000  138.2199  153.9425 H   0  0  0  0  0  0  0  0  0  0  0  0
  148.8333  138.0455  153.6093 H   0  0  0  0  0  0  0  0  0  0  0  0
  1  2  1  0  0  0  0
  1 15  1  0  0  0  0
  1 16  1  0  0  0  0
  1 17  1  0  0  0  0
  2  4  1  0  0  0  0
  2  3  1  0  0  0  0
  2 18  1  0  0  0  0
  3  4  1  0  0  0  0
  3 19  1  0  0  0  0
  3 20  1  0  0  0  0
  4  5  1  0  0  0  0
  4 21  1  0  0  0  0
  5  6  1  0  0  0  0
  5 22  1  0  0  0  0
  5 23  1  0  0  0  0
  6  7  1  0  0  0  0
  6 24  1  0  0  0  0
  7  8  2  0  0  0  0
  7  9  1  0  0  0  0
  9 10  1  0  0  0  0
  9 25  1  0  0  0  0
 10 14  1  0  0  0  0
 10 11  2  0  0  0  0
 11 12  1  0  0  0  0
 12 13  2  0  0  0  0
 12 26  1  0  0  0  0
 13 14  1  0  0  0  0
 13 27  1  0  0  0  0
M  END
> <s_m_source_file>
AV-unprocessed.smi

> <i_m_source_file_index>
554

> <i_lp_mmshare_version>
43012

> <i_f3d_flags>
0

> <s_epik_input>
W0NIM11bQ0BASF0xW0NIMl1bQ0BIXTFbQ0gyXVtOSF1DKD1PKVtOSF1jMm5bY0hdW2NIXXMy

> <s_epik_cmdline>
J2VwaWtfcHl0aG9uJywgJy1waCcsICc3LjAnLCAnLXRuJywgJzgnLCAnLW1hJywgJzIwMCcsICctbWV0YWxfYmluZGluZycsICctaW1hZScsICc8aW5maWxlLm1hZT4nLCAnLW9tYWUnLCAnPG91dGZpbGUubWFlPic=

> <r_lp_tautomer_probability>
0.999

> <r_epik_Ionization_Penalty>
0.00042678

> <r_epik_Ionization_Penalty_Charging>
0

> <r_epik_Ionization_Penalty_Neutral>
0.00042678

> <r_epik_State_Penalty>
0.000177984

> <r_epik_Charging_Adjusted_Penalty>
0.000177984

> <i_epik_Tot_Q>
0

> <i_epik_Tot_abs_Q>
0

> <r_epik_Metal_State_Penalty>
-0

> <b_epik_Metal_Only>
0

> <s_lp_Force_Field>
OPLS_2005

> <r_lp_Energy>
13.37

> <b_lp_Chiralities_Consistent>
1

> <s_lp_Variant>
AV-unprocessed.smi:554-1

> <Gold.Version>
5.8.1

> <Gold.Id.Protein>
6NUR|6NUR_protein|mol2

> <Gold.PLP.Fitness>
45.4153

> <Gold.PLP.PLP>
-35.2951

> <Gold.PLP.part.hbond>
-3.0000

> <Gold.PLP.part.metal>
0.0000

> <Gold.PLP.part.buried>
-3.4903

> <Gold.PLP.part.nonpolar>
-28.4487

> <Gold.PLP.part.repulsive>
0.2018

> <Gold.PLP.ligand.clash>
0.0000

> <Gold.PLP.ligand.torsion>
0.9059

> <Gold.PLP.Chemscore.Hbond>
2.8000

> <Gold.PLP.Chemscore.CHOScore>
0.9980

> <Gold.PLP.Chemscore.Metal>
0.0000

> <Gold.Chemscore.Hbonds>
donor molecule, donor type, donor heavy atom, donor atom, acceptor molecule, acceptor atom, score
      L1  H     6    24       P1  8028  1.00
      L1  H     9    25       P1  8028  1.00
      P1  H  7989  7998       L1    11  0.67
      L1  C    13    27       P1  7948  1.00

> <Gold.PLP.Chemscore.Internal.Correction>
0.5381

> <Gold.Rescore>
     Score         DG    S(hbond)    S(metal)    S(lipo)     H(rot)  DE(clash)    DE(int)     intcor
     17.11     -19.14       2.33        0.00      78.16       1.28       0.02       2.01       ----

> <Gold.Chemscore.Fitness>
17.1125

> <Gold.Chemscore.DG>
-19.1378

> <Gold.Chemscore.ZeroCoef>
-5.4800

> <Gold.Chemscore.Hbond>
2.3313

> <Gold.Chemscore.Metal>
0.0000

> <Gold.Chemscore.Lipo>
78.1644

> <Gold.Chemscore.Internal_Hbond>
0.0000

> <Gold.Chemscore.DEClash>
0.0195

> <Gold.Chemscore.DEInternal>
2.0058

> <Gold.Chemscore.Rot>
1.2788

> <Gold.Chemscore.Internal.Correction>
   9.000000E+99

> <Gold.Chemscore.Hbonds>
donor molecule, donor type, donor heavy atom, donor atom, acceptor molecule, acceptor atom, score
      L1  H     6    24       P1  8028  0.96
      L1  H     9    25       P1  8028  0.91
      P1  H  7989  7998       L1    11  0.02

> <Gold.Chemscore.Hbond.Weighted>
-7.7864

> <Gold.Chemscore.Metal.Weighted>
-0.0000

> <Gold.Chemscore.Lipo.Weighted>
-9.1452

> <Gold.Chemscore.Internal_Hbond.Weighted>
0.0000

> <Gold.Chemscore.DEClash.Weighted>
0.0195

> <Gold.Chemscore.DEInternal.Weighted>
2.0058

> <Gold.Chemscore.Rot.Weighted>
3.2738

> <Gold.Chemscore.Internal.Correction.Weighted>
   9.000000E+99

> <Gold.Protein.RotatedTorsions>
[ 6907 6896 6895 6894 ] final   35.55 input  -60.11 | X-H torsion
[ 7974 7965 7964 7962 ] final -120.68 input  175.53 | X-H torsion
[ 8008 7997 7996 7995 ] final   61.25 input   59.86 | X-H torsion
[ 10167 10162 10161 10158 ] final -118.87 input  -65.29 | X-H torsion
[ 10718 10713 10712 10709 ] final   72.11 input   66.30 | X-H torsion
[ 10763 10752 10751 10750 ] final  174.66 input  -60.55 | X-H torsion
[ 11005 11000 10999 10996 ] final  -70.80 input  -57.11 | X-H torsion

> <Gold.Protein.ActiveResidues>
 VAL166  LYS551  ARG553  GLY616  TRP617  ASP618  TYR619  PRO620  LYS621  CYS622 
 ASP623  PHE694  ASN695  SER759  ASP760  ASP761  ALA762  ILE779  LEU786  VAL792 
 PHE793  MET794  SER795  GLU796  ALA797  LYS798  CYS799  TRP800  GLU811  SER814 

> <Gold.Protein.RotatedAtoms>
  152.1176  134.9229  160.0564 H   0  0  0  0  0  0  0  0  0  0  0  0  # atno 6907 bound_to 6896
  152.0382  133.3961  159.4334 H   0  0  0  0  0  0  0  0  0  0  0  0  # atno 6908 bound_to 6896
  150.6847  134.3365  159.4893 H   0  0  0  0  0  0  0  0  0  0  0  0  # atno 6909 bound_to 6896
  145.0487  140.8201  143.4222 H   0  0  0  0  0  0  0  0  0  0  0  0  # atno 7974 bound_to 7965
  155.5953  140.3493  155.4578 H   0  0  0  0  0  0  0  0  0  0  0  0  # atno 8008 bound_to 7997
  156.0270  140.1266  157.0323 H   0  0  0  0  0  0  0  0  0  0  0  0  # atno 8009 bound_to 7997
  154.4337  140.1051  156.6031 H   0  0  0  0  0  0  0  0  0  0  0  0  # atno 8010 bound_to 7997
  140.0528  143.5044  152.2073 H   0  0  0  0  0  0  0  0  0  0  0  0  # atno 10167 bound_to 10162
  157.6485  130.9562  150.0883 H   0  0  0  0  0  0  0  0  0  0  0  0  # atno 10718 bound_to 10713
  154.4569  135.2766  155.1741 H   0  0  0  0  0  0  0  0  0  0  0  0  # atno 10763 bound_to 10752
  154.3545  135.6143  153.5663 H   0  0  0  0  0  0  0  0  0  0  0  0  # atno 10764 bound_to 10752
  152.9851  135.5819  154.4924 H   0  0  0  0  0  0  0  0  0  0  0  0  # atno 10765 bound_to 10752
  141.1581  133.6800  156.6809 H   0  0  0  0  0  0  0  0  0  0  0  0  # atno 11005 bound_to 11000
  145.1555  139.2489  143.5419 LP  0  0  0  0  0  0  0  0  0  0  0  0  # atno 17320 bound_to 7965
  146.3516  140.1269  142.8598 LP  0  0  0  0  0  0  0  0  0  0  0  0  # atno 17321 bound_to 7965
  139.5942  144.7561  151.3326 LP  0  0  0  0  0  0  0  0  0  0  0  0  # atno 17342 bound_to 10162
  140.7209  143.7139  150.7748 LP  0  0  0  0  0  0  0  0  0  0  0  0  # atno 17343 bound_to 10162
  156.1839  130.3651  149.8998 LP  0  0  0  0  0  0  0  0  0  0  0  0  # atno 17370 bound_to 10713
  156.6943  130.8908  151.3592 LP  0  0  0  0  0  0  0  0  0  0  0  0  # atno 17371 bound_to 10713
  140.3103  134.8091  157.4171 LP  0  0  0  0  0  0  0  0  0  0  0  0  # atno 17394 bound_to 11000
  140.1184  134.5252  155.8205 LP  0  0  0  0  0  0  0  0  0  0  0  0  # atno 17395 bound_to 11000

$$$$
