AV-unprocessed.smi:287|AV-procd|sdf|2202|dock7
  -GOLD-   2262022 23D 1   1.00000     0.00000
 Structure written by MMmdl.
 55 58  0  0  0  0  0  0  0  0  1 V2000
  151.3288  144.3787  159.0533 C   0  0  0  0  0  0  0  0  0  0  0  0
  151.9257  143.0139  159.1063 C   0  0  0  0  0  0  0  0  0  0  0  0
  151.6093  141.8219  158.5228 C   0  0  0  0  0  0  0  0  0  0  0  0
  152.5703  140.8630  158.9630 C   0  0  0  0  0  0  0  0  0  0  0  0
  152.6095  139.3917  158.5726 C   0  0  2  0  0  0  0  0  0  0  0  0
  152.6904  138.5211  159.8373 C   0  0  0  0  0  0  0  0  0  0  0  0
  153.7524  139.0544  157.8102 O   0  0  0  0  0  0  0  0  0  0  0  0
  151.3909  138.9747  157.7184 C   0  0  0  0  0  0  0  0  0  0  0  0
  151.4212  139.5336  156.3730 N   0  0  0  0  0  0  0  0  0  0  0  0
  150.2796  139.8152  155.7107 C   0  0  0  0  0  0  0  0  0  0  0  0
  150.0179  141.1326  155.5378 N   0  0  0  0  0  0  0  0  0  0  0  0
  148.9119  141.5191  154.8971 C   0  0  0  0  0  0  0  0  0  0  0  0
  147.9525  140.7636  154.3616 N   0  0  0  0  0  0  0  0  0  0  0  0
  148.2060  139.4334  154.5299 C   0  0  0  0  0  0  0  0  0  0  0  0
  149.3409  138.8760  155.1874 C   0  0  0  0  0  0  0  0  0  0  0  0
  149.2506  137.4879  155.1563 N   0  0  0  0  0  0  0  0  0  0  0  0
  148.1351  137.2477  154.5237 C   0  0  0  0  0  0  0  0  0  0  0  0
  147.4390  138.3622  154.1165 N   0  0  0  0  0  0  0  0  0  0  0  0
  146.1336  138.4031  153.3843 C   0  0  2  0  0  0  0  0  0  0  0  0
  145.3271  137.3752  153.8658 O   0  0  0  0  0  0  0  0  0  0  0  0
  144.5465  136.8557  152.7966 C   0  0  2  0  0  0  0  0  0  0  0  0
  143.9955  135.4613  153.1432 C   0  0  0  0  0  0  0  0  0  0  0  0
  143.1403  135.5436  154.2632 O   0  0  0  0  0  0  0  0  0  0  0  0
  145.5090  136.9129  151.6009 C   0  0  2  0  0  0  0  0  0  0  0  0
  146.3434  135.7675  151.5617 O   0  0  0  0  0  0  0  0  0  0  0  0
  146.2853  138.2035  151.8607 C   0  0  2  0  0  0  0  0  0  0  0  0
  147.6169  138.1796  151.3714 O   0  0  0  0  0  0  0  0  0  0  0  0
  153.4024  141.5617  159.8048 C   0  0  0  0  0  0  0  0  0  0  0  0
  154.5987  141.1957  160.6204 C   0  0  0  0  0  0  0  0  0  0  0  0
  153.0209  142.8667  159.8934 O   0  0  0  0  0  0  0  0  0  0  0  0
  145.7033  139.3722  153.6407 H   0  0  0  0  0  0  0  0  0  0  0  0
  143.7239  137.5472  152.6023 H   0  0  0  0  0  0  0  0  0  0  0  0
  144.9658  136.9579  150.6564 H   0  0  0  0  0  0  0  0  0  0  0  0
  145.7638  139.0330  151.3815 H   0  0  0  0  0  0  0  0  0  0  0  0
  150.6366  144.4685  158.2158 H   0  0  0  0  0  0  0  0  0  0  0  0
  152.1027  145.1370  158.9340 H   0  0  0  0  0  0  0  0  0  0  0  0
  150.7801  144.5953  159.9700 H   0  0  0  0  0  0  0  0  0  0  0  0
  150.7805  141.6551  157.8506 H   0  0  0  0  0  0  0  0  0  0  0  0
  151.8251  138.6801  160.4819 H   0  0  0  0  0  0  0  0  0  0  0  0
  153.5816  138.7529  160.4222 H   0  0  0  0  0  0  0  0  0  0  0  0
  152.7235  137.4590  159.5912 H   0  0  0  0  0  0  0  0  0  0  0  0
  153.8340  138.1131  157.7933 H   0  0  0  0  0  0  0  0  0  0  0  0
  151.3028  137.8882  157.6758 H   0  0  0  0  0  0  0  0  0  0  0  0
  150.4872  139.3486  158.2014 H   0  0  0  0  0  0  0  0  0  0  0  0
  152.3408  139.6955  155.9875 H   0  0  0  0  0  0  0  0  0  0  0  0
  148.7754  142.5862  154.8001 H   0  0  0  0  0  0  0  0  0  0  0  0
  147.7845  136.2425  154.3407 H   0  0  0  0  0  0  0  0  0  0  0  0
  143.4071  135.0719  152.3121 H   0  0  0  0  0  0  0  0  0  0  0  0
  144.8014  134.7515  153.3344 H   0  0  0  0  0  0  0  0  0  0  0  0
  142.2475  135.5848  153.9564 H   0  0  0  0  0  0  0  0  0  0  0  0
  147.1785  135.9953  151.9437 H   0  0  0  0  0  0  0  0  0  0  0  0
  148.0968  137.5125  151.8374 H   0  0  0  0  0  0  0  0  0  0  0  0
  154.3888  140.3287  161.2471 H   0  0  0  0  0  0  0  0  0  0  0  0
  154.8975  142.0154  161.2743 H   0  0  0  0  0  0  0  0  0  0  0  0
  155.4445  140.9533  159.9768 H   0  0  0  0  0  0  0  0  0  0  0  0
  1  2  1  0  0  0  0
  1 35  1  0  0  0  0
  1 36  1  0  0  0  0
  1 37  1  0  0  0  0
  2 30  1  0  0  0  0
  2  3  2  0  0  0  0
  3  4  1  0  0  0  0
  3 38  1  0  0  0  0
  4  5  1  0  0  0  0
  4 28  2  0  0  0  0
  5  6  1  0  0  0  0
  5  7  1  0  0  0  0
  5  8  1  0  0  0  0
  6 39  1  0  0  0  0
  6 40  1  0  0  0  0
  6 41  1  0  0  0  0
  7 42  1  0  0  0  0
  8  9  1  0  0  0  0
  8 43  1  0  0  0  0
  8 44  1  0  0  0  0
  9 10  1  0  0  0  0
  9 45  1  0  0  0  0
 10 15  1  0  0  0  0
 10 11  2  0  0  0  0
 11 12  1  0  0  0  0
 12 13  2  0  0  0  0
 12 46  1  0  0  0  0
 13 14  1  0  0  0  0
 14 18  1  0  0  0  0
 14 15  2  0  0  0  0
 15 16  1  0  0  0  0
 16 17  2  0  0  0  0
 17 18  1  0  0  0  0
 17 47  1  0  0  0  0
 18 19  1  0  0  0  0
 19 31  1  0  0  0  0
 19 26  1  0  0  0  0
 19 20  1  0  0  0  0
 20 21  1  0  0  0  0
 21 32  1  0  0  0  0
 21 22  1  0  0  0  0
 21 24  1  0  0  0  0
 22 23  1  0  0  0  0
 22 48  1  0  0  0  0
 22 49  1  0  0  0  0
 23 50  1  0  0  0  0
 24 33  1  0  0  0  0
 24 25  1  0  0  0  0
 24 26  1  0  0  0  0
 25 51  1  0  0  0  0
 26 34  1  0  0  0  0
 26 27  1  0  0  0  0
 27 52  1  0  0  0  0
 28 29  1  0  0  0  0
 28 30  1  0  0  0  0
 29 53  1  0  0  0  0
 29 54  1  0  0  0  0
 29 55  1  0  0  0  0
M  END
> <s_m_source_file>
AV-unprocessed.smi

> <i_m_source_file_index>
287

> <i_lp_mmshare_version>
43012

> <i_f3d_flags>
0

> <s_epik_input>
W0NIM11jMVtjSF1jKGMobzEpW0NIM10pW0NAQF0oW0NIM10pKFtPSF0pW0NIMl1bTkhdYyhuW2NIXW4yKWMoYzIzKW5bY0hdbjNbQ0BASF00T1tDQEhdKFtDSDJdW09IXSlbQ0BASF0oW09IXSlbQ0BIXTRbT0hd

> <s_epik_cmdline>
J2VwaWtfcHl0aG9uJywgJy1waCcsICc3LjAnLCAnLXRuJywgJzgnLCAnLW1hJywgJzIwMCcsICctbWV0YWxfYmluZGluZycsICctaW1hZScsICc8aW5maWxlLm1hZT4nLCAnLW9tYWUnLCAnPG91dGZpbGUubWFlPic=

> <r_lp_tautomer_probability>
1

> <r_epik_Ionization_Penalty>
0.000992612

> <r_epik_Ionization_Penalty_Charging>
0

> <r_epik_Ionization_Penalty_Neutral>
0.000992612

> <r_epik_State_Penalty>
-0

> <r_epik_Charging_Adjusted_Penalty>
0

> <i_epik_Tot_Q>
0

> <i_epik_Tot_abs_Q>
0

> <r_epik_Metal_State_Penalty>
-0

> <b_epik_Metal_Only>
0

> <s_epik_Chemistry_Notes>
This compound contains an acetal/aminal-like group ( X-CH(R)-Y where X, Y are N, S, or O) that may be acid/base labile, releasing an aldehyde.

> <s_lp_Force_Field>
OPLS_2005

> <r_lp_Energy>
48.118

> <b_lp_Chiralities_Consistent>
1

> <s_lp_Variant>
AV-unprocessed.smi:287-26

> <Gold.Version>
5.8.1

> <Gold.Id.Protein>
6NUR|6NUR_protein|mol2

> <Gold.PLP.Fitness>
53.5956

> <Gold.PLP.PLP>
-41.7163

> <Gold.PLP.part.hbond>
-5.0551

> <Gold.PLP.part.metal>
0.0000

> <Gold.PLP.part.buried>
1.0189

> <Gold.PLP.part.nonpolar>
-38.3351

> <Gold.PLP.part.repulsive>
0.5905

> <Gold.PLP.ligand.clash>
0.0000

> <Gold.PLP.ligand.torsion>
1.7145

> <Gold.PLP.Chemscore.Hbond>
4.0082

> <Gold.PLP.Chemscore.CHOScore>
1.0633

> <Gold.PLP.Chemscore.Metal>
0.0000

> <Gold.Chemscore.Hbonds>
donor molecule, donor type, donor heavy atom, donor atom, acceptor molecule, acceptor atom, score
      L1  H    25    51       P1  7948  1.00
      L1  H    27    52       P1  7948  0.93
      P1  H  7954  7966       L1    27  0.90
      P1  H  7997  8010       L1     7  1.00
      L1  C    12    46       P1  8028  1.00
      L1  C    17    47       P1  7948  0.11

> <Gold.PLP.Chemscore.Internal.Correction>
0.0939

> <Gold.Rescore>
     Score         DG    S(hbond)    S(metal)    S(lipo)     H(rot)  DE(clash)    DE(int)     intcor
     12.26     -13.98       3.07        0.00     100.37       5.27       0.32       1.40       ----

> <Gold.Chemscore.Fitness>
12.2556

> <Gold.Chemscore.DG>
-13.9788

> <Gold.Chemscore.ZeroCoef>
-5.4800

> <Gold.Chemscore.Hbond>
3.0659

> <Gold.Chemscore.Metal>
0.0000

> <Gold.Chemscore.Lipo>
100.3658

> <Gold.Chemscore.Internal_Hbond>
0.0000

> <Gold.Chemscore.DEClash>
0.3229

> <Gold.Chemscore.DEInternal>
1.4004

> <Gold.Chemscore.Rot>
5.2672

> <Gold.Chemscore.Internal.Correction>
   9.000000E+99

> <Gold.Chemscore.Hbonds>
donor molecule, donor type, donor heavy atom, donor atom, acceptor molecule, acceptor atom, score
      L1  H    25    51       P1  7948  0.95
      L1  H    27    52       P1  7948  0.84
      P1  H  7954  7966       L1    27  0.17
      P1  H  7997  8010       L1     7  0.91

> <Gold.Chemscore.Hbond.Weighted>
-10.2400

> <Gold.Chemscore.Metal.Weighted>
-0.0000

> <Gold.Chemscore.Lipo.Weighted>
-11.7428

> <Gold.Chemscore.Internal_Hbond.Weighted>
0.0000

> <Gold.Chemscore.DEClash.Weighted>
0.3229

> <Gold.Chemscore.DEInternal.Weighted>
1.4004

> <Gold.Chemscore.Rot.Weighted>
13.4839

> <Gold.Chemscore.Internal.Correction.Weighted>
   9.000000E+99

> <Gold.Protein.RotatedTorsions>
[ 6907 6896 6895 6894 ] final  135.47 input  -60.11 | X-H torsion
[ 7974 7965 7964 7962 ] final   40.57 input  175.53 | X-H torsion
[ 8008 7997 7996 7995 ] final   14.38 input   59.86 | X-H torsion
[ 10167 10162 10161 10158 ] final  -59.26 input  -65.29 | X-H torsion
[ 10718 10713 10712 10709 ] final   37.22 input   66.30 | X-H torsion
[ 10763 10752 10751 10750 ] final -141.99 input  -60.55 | X-H torsion
[ 11005 11000 10999 10996 ] final -159.93 input  -57.11 | X-H torsion

> <Gold.Protein.ActiveResidues>
 VAL166  LYS551  ARG553  GLY616  TRP617  ASP618  TYR619  PRO620  LYS621  CYS622 
 ASP623  PHE694  ASN695  SER759  ASP760  ASP761  ALA762  ILE779  LEU786  VAL792 
 PHE793  MET794  SER795  GLU796  ALA797  LYS798  CYS799  TRP800  GLU811  SER814 

> <Gold.Protein.RotatedAtoms>
  152.3000  133.5646  159.5612 H   0  0  0  0  0  0  0  0  0  0  0  0  # atno 6907 bound_to 6896
  150.7273  134.0304  159.3740 H   0  0  0  0  0  0  0  0  0  0  0  0  # atno 6908 bound_to 6896
  151.8205  135.0653  160.0475 H   0  0  0  0  0  0  0  0  0  0  0  0  # atno 6909 bound_to 6896
  146.0894  139.5517  142.9485 H   0  0  0  0  0  0  0  0  0  0  0  0  # atno 7974 bound_to 7965
  154.8477  140.2924  155.5618 H   0  0  0  0  0  0  0  0  0  0  0  0  # atno 8008 bound_to 7997
  156.3015  140.2502  156.3362 H   0  0  0  0  0  0  0  0  0  0  0  0  # atno 8009 bound_to 7997
  154.9056  140.0390  157.1907 H   0  0  0  0  0  0  0  0  0  0  0  0  # atno 8010 bound_to 7997
  140.6146  143.2398  151.5627 H   0  0  0  0  0  0  0  0  0  0  0  0  # atno 10167 bound_to 10162
  157.3443  130.7564  149.6933 H   0  0  0  0  0  0  0  0  0  0  0  0  # atno 10718 bound_to 10713
  154.8525  135.3509  154.5956 H   0  0  0  0  0  0  0  0  0  0  0  0  # atno 10763 bound_to 10752
  153.6565  135.6991  153.5196 H   0  0  0  0  0  0  0  0  0  0  0  0  # atno 10764 bound_to 10752
  153.2852  135.4251  155.1073 H   0  0  0  0  0  0  0  0  0  0  0  0  # atno 10765 bound_to 10752
  140.6371  134.4590  157.5232 H   0  0  0  0  0  0  0  0  0  0  0  0  # atno 11005 bound_to 11000
  145.6068  141.0346  143.1988 LP  0  0  0  0  0  0  0  0  0  0  0  0  # atno 17320 bound_to 7965
  144.7349  139.7615  143.7333 LP  0  0  0  0  0  0  0  0  0  0  0  0  # atno 17321 bound_to 7965
  139.5388  144.2704  152.1308 LP  0  0  0  0  0  0  0  0  0  0  0  0  # atno 17342 bound_to 10162
  140.1911  144.4751  150.6478 LP  0  0  0  0  0  0  0  0  0  0  0  0  # atno 17343 bound_to 10162
  155.9712  130.4159  150.4203 LP  0  0  0  0  0  0  0  0  0  0  0  0  # atno 17370 bound_to 10713
  157.2255  131.0492  151.2522 LP  0  0  0  0  0  0  0  0  0  0  0  0  # atno 17371 bound_to 10713
  139.9094  134.8378  156.1584 LP  0  0  0  0  0  0  0  0  0  0  0  0  # atno 17394 bound_to 11000
  141.0634  133.6831  156.1996 LP  0  0  0  0  0  0  0  0  0  0  0  0  # atno 17395 bound_to 11000

$$$$
