AV-unprocessed.smi:2743|AV-procd|sdf|10567|dock3
  -GOLD-   2272015 23D 1   1.00000     0.00000
 Structure written by MMmdl.
 39 40  0  0  0  0  0  0  0  0  2 V2000
  147.8890  125.2312  151.2973 N   0  0  0  0  0  0  0  0  0  0  0  0
  147.8870  126.3865  151.2281 C   0  0  0  0  0  0  0  0  0  0  0  0
  147.8870  127.8553  151.1437 C   0  0  0  0  0  0  0  0  0  0  0  0
  147.1725  128.4820  152.3363 C   0  0  0  0  0  0  0  0  0  0  0  0
  146.5674  127.7685  153.1357 O   0  0  0  0  0  0  0  0  0  0  0  0
  147.2237  129.8207  152.4230 N   0  0  0  0  0  0  0  0  0  0  0  0
  146.5185  130.6441  153.4056 C   0  0  0  0  0  0  0  0  0  0  0  0
  146.6637  132.1713  153.1277 C   0  0  0  0  0  0  0  0  0  0  0  0
  145.5527  132.6015  152.1412 C   0  0  0  0  0  0  0  0  0  0  0  0
  144.6185  133.5999  152.5185 C   0  0  0  0  0  0  0  0  0  0  0  0
  143.5809  133.9677  151.6392 C   0  0  0  0  0  0  0  0  0  0  0  0
  143.4738  133.3654  150.4375 N   0  3  0  0  0  0  0  0  0  0  0  0
  144.3288  132.4068  150.0271 C   0  0  0  0  0  0  0  0  0  0  0  0
  145.3862  131.9998  150.8653 C   0  0  0  0  0  0  0  0  0  0  0  0
  146.4995  132.9730  154.4536 C   0  0  0  0  0  0  0  0  0  0  0  0
  147.6450  132.7762  155.4641 C   0  0  0  0  0  0  0  0  0  0  0  0
  149.0064  133.1030  154.8423 C   0  0  0  0  0  0  0  0  0  0  0  0
  149.2323  132.2810  153.5695 C   0  0  0  0  0  0  0  0  0  0  0  0
  148.0857  132.4875  152.5634 C   0  0  0  0  0  0  0  0  0  0  0  0
  148.9212  128.1988  151.1005 H   0  0  0  0  0  0  0  0  0  0  0  0
  147.4017  128.1511  150.2130 H   0  0  0  0  0  0  0  0  0  0  0  0
  147.7571  130.3159  151.7228 H   0  0  0  0  0  0  0  0  0  0  0  0
  145.4639  130.3667  153.4445 H   0  0  0  0  0  0  0  0  0  0  0  0
  146.9143  130.3802  154.3848 H   0  0  0  0  0  0  0  0  0  0  0  0
  144.6733  134.0767  153.4855 H   0  0  0  0  0  0  0  0  0  0  0  0
  142.8334  134.7144  151.8643 H   0  0  0  0  0  0  0  0  0  0  0  0
  144.1394  131.9893  149.0488 H   0  0  0  0  0  0  0  0  0  0  0  0
  146.0384  131.2185  150.5082 H   0  0  0  0  0  0  0  0  0  0  0  0
  146.4356  134.0367  154.2186 H   0  0  0  0  0  0  0  0  0  0  0  0
  145.5636  132.7205  154.9512 H   0  0  0  0  0  0  0  0  0  0  0  0
  147.4791  133.4138  156.3329 H   0  0  0  0  0  0  0  0  0  0  0  0
  147.6458  131.7528  155.8392 H   0  0  0  0  0  0  0  0  0  0  0  0
  149.0556  134.1667  154.6053 H   0  0  0  0  0  0  0  0  0  0  0  0
  149.8030  132.9081  155.5607 H   0  0  0  0  0  0  0  0  0  0  0  0
  150.1778  132.5728  153.1112 H   0  0  0  0  0  0  0  0  0  0  0  0
  149.3347  131.2254  153.8205 H   0  0  0  0  0  0  0  0  0  0  0  0
  148.2948  131.8943  151.6726 H   0  0  0  0  0  0  0  0  0  0  0  0
  148.1213  133.5317  152.2489 H   0  0  0  0  0  0  0  0  0  0  0  0
  142.7126  133.6421  149.8167 H   0  0  0  0  0  0  0  0  0  0  0  0
  1  2  3  0  0  0  0
  2  3  1  0  0  0  0
  3  4  1  0  0  0  0
  3 20  1  0  0  0  0
  3 21  1  0  0  0  0
  4  5  2  0  0  0  0
  4  6  1  0  0  0  0
  6  7  1  0  0  0  0
  6 22  1  0  0  0  0
  7  8  1  0  0  0  0
  7 23  1  0  0  0  0
  7 24  1  0  0  0  0
  8 19  1  0  0  0  0
  8  9  1  0  0  0  0
  8 15  1  0  0  0  0
  9 14  1  0  0  0  0
  9 10  2  0  0  0  0
 10 11  1  0  0  0  0
 10 25  1  0  0  0  0
 11 12  2  0  0  0  0
 11 26  1  0  0  0  0
 12 13  1  0  0  0  0
 12 39  1  0  0  0  0
 13 14  2  0  0  0  0
 13 27  1  0  0  0  0
 14 28  1  0  0  0  0
 15 16  1  0  0  0  0
 15 29  1  0  0  0  0
 15 30  1  0  0  0  0
 16 17  1  0  0  0  0
 16 31  1  0  0  0  0
 16 32  1  0  0  0  0
 17 18  1  0  0  0  0
 17 33  1  0  0  0  0
 17 34  1  0  0  0  0
 18 19  1  0  0  0  0
 18 35  1  0  0  0  0
 18 36  1  0  0  0  0
 19 37  1  0  0  0  0
 19 38  1  0  0  0  0
M  CHG  1  12   1
M  END
> <s_m_source_file>
AV-unprocessed.smi

> <i_m_source_file_index>
2743

> <i_lp_mmshare_version>
43012

> <i_f3d_flags>
0

> <s_epik_input>
TiNDW0NIMl1DKD1PKVtOSF1bQ0gyXUMxKFtDSDJdW0NIMl1bQ0gyXVtDSDJdW0NIMl0xKWMyW2NIXVtjSF1uW2NIXVtjSF0y

> <s_epik_cmdline>
J2VwaWtfcHl0aG9uJywgJy1waCcsICc3LjAnLCAnLXRuJywgJzgnLCAnLW1hJywgJzIwMCcsICctbWV0YWxfYmluZGluZycsICctaW1hZScsICc8aW5maWxlLm1hZT4nLCAnLW9tYWUnLCAnPG91dGZpbGUubWFlPic=

> <r_epik_Ionization_Penalty>
1.44483

> <r_epik_Ionization_Penalty_Charging>
1.44483

> <r_epik_Ionization_Penalty_Neutral>
8.95364e-07

> <r_epik_State_Penalty>
1.53054

> <r_epik_Charging_Adjusted_Penalty>
2.97537

> <i_epik_Tot_Q>
1

> <i_epik_Tot_abs_Q>
1

> <r_epik_Metal_State_Penalty>
1.58148

> <b_epik_Metal_Only>
0

> <s_lp_Force_Field>
OPLS_2005

> <r_lp_Energy>
24.9332

> <b_lp_Chiralities_Consistent>
1

> <s_lp_Variant>
AV-unprocessed.smi:2743-2

> <Gold.Version>
5.8.1

> <Gold.Id.Protein>
6NUR|6NUR_protein|mol2

> <Gold.PLP.Fitness>
42.6300

> <Gold.PLP.PLP>
-34.6498

> <Gold.PLP.part.hbond>
-2.1059

> <Gold.PLP.part.metal>
0.0000

> <Gold.PLP.part.buried>
-4.2701

> <Gold.PLP.part.nonpolar>
-27.8987

> <Gold.PLP.part.repulsive>
0.1100

> <Gold.PLP.ligand.clash>
0.0000

> <Gold.PLP.ligand.torsion>
0.5310

> <Gold.PLP.Chemscore.Hbond>
3.0000

> <Gold.PLP.Chemscore.CHOScore>
0.0000

> <Gold.PLP.Chemscore.Metal>
0.0000

> <Gold.Chemscore.Hbonds>
donor molecule, donor type, donor heavy atom, donor atom, acceptor molecule, acceptor atom, score
      L1  H     6    22       P1 10747  1.00
      L1  H    12    39       P1 10186  2.00

> <Gold.PLP.Chemscore.Internal.Correction>
0.0423

> <Gold.Rescore>
     Score         DG    S(hbond)    S(metal)    S(lipo)     H(rot)  DE(clash)    DE(int)     intcor
     15.44     -15.86       1.96        0.00      73.27       1.85       0.03       0.39       ----

> <Gold.Chemscore.Fitness>
15.4447

> <Gold.Chemscore.DG>
-15.8615

> <Gold.Chemscore.ZeroCoef>
-5.4800

> <Gold.Chemscore.Hbond>
1.9632

> <Gold.Chemscore.Metal>
0.0000

> <Gold.Chemscore.Lipo>
73.2743

> <Gold.Chemscore.Internal_Hbond>
0.0000

> <Gold.Chemscore.DEClash>
0.0299

> <Gold.Chemscore.DEInternal>
0.3869

> <Gold.Chemscore.Rot>
1.8550

> <Gold.Chemscore.Internal.Correction>
   9.000000E+99

> <Gold.Chemscore.Hbonds>
donor molecule, donor type, donor heavy atom, donor atom, acceptor molecule, acceptor atom, score
      L1  H     6    22       P1 10747  0.99
      L1  H    12    39       P1 10186  0.94

> <Gold.Chemscore.Hbond.Weighted>
-6.5572

> <Gold.Chemscore.Metal.Weighted>
-0.0000

> <Gold.Chemscore.Lipo.Weighted>
-8.5731

> <Gold.Chemscore.Internal_Hbond.Weighted>
0.0000

> <Gold.Chemscore.DEClash.Weighted>
0.0299

> <Gold.Chemscore.DEInternal.Weighted>
0.3869

> <Gold.Chemscore.Rot.Weighted>
4.7488

> <Gold.Chemscore.Internal.Correction.Weighted>
   9.000000E+99

> <Gold.Protein.RotatedTorsions>
[ 6907 6896 6895 6894 ] final   42.57 input  -60.11 | X-H torsion
[ 7974 7965 7964 7962 ] final  -83.93 input  175.53 | X-H torsion
[ 8008 7997 7996 7995 ] final   62.98 input   59.86 | X-H torsion
[ 10167 10162 10161 10158 ] final -153.75 input  -65.29 | X-H torsion
[ 10718 10713 10712 10709 ] final    7.06 input   66.30 | X-H torsion
[ 10763 10752 10751 10750 ] final  -36.25 input  -60.55 | X-H torsion
[ 11005 11000 10999 10996 ] final  -92.24 input  -57.11 | X-H torsion

> <Gold.Protein.ActiveResidues>
 VAL166  LYS551  ARG553  GLY616  TRP617  ASP618  TYR619  PRO620  LYS621  CYS622 
 ASP623  PHE694  ASN695  SER759  ASP760  ASP761  ALA762  ILE779  LEU786  VAL792 
 PHE793  MET794  SER795  GLU796  ALA797  LYS798  CYS799  TRP800  GLU811  SER814 

> <Gold.Protein.RotatedAtoms>
  152.2094  134.8515  160.0498 H   0  0  0  0  0  0  0  0  0  0  0  0  # atno 6907 bound_to 6896
  151.9339  133.3613  159.3949 H   0  0  0  0  0  0  0  0  0  0  0  0  # atno 6908 bound_to 6896
  150.6973  134.4434  159.5346 H   0  0  0  0  0  0  0  0  0  0  0  0  # atno 6909 bound_to 6896
  145.5134  140.9538  143.1695 H   0  0  0  0  0  0  0  0  0  0  0  0  # atno 7974 bound_to 7965
  155.6230  140.3496  155.4658 H   0  0  0  0  0  0  0  0  0  0  0  0  # atno 8008 bound_to 7997
  156.0064  140.1224  157.0521 H   0  0  0  0  0  0  0  0  0  0  0  0  # atno 8009 bound_to 7997
  154.4266  140.1090  156.5754 H   0  0  0  0  0  0  0  0  0  0  0  0  # atno 8010 bound_to 7997
  139.7070  143.9170  152.2453 H   0  0  0  0  0  0  0  0  0  0  0  0  # atno 10167 bound_to 10162
  156.9313  130.5827  149.5649 H   0  0  0  0  0  0  0  0  0  0  0  0  # atno 10718 bound_to 10713
  153.8767  135.6825  153.4770 H   0  0  0  0  0  0  0  0  0  0  0  0  # atno 10763 bound_to 10752
  153.1257  135.4720  154.9266 H   0  0  0  0  0  0  0  0  0  0  0  0  # atno 10764 bound_to 10752
  154.7688  135.3232  154.8182 H   0  0  0  0  0  0  0  0  0  0  0  0  # atno 10765 bound_to 10752
  141.1526  133.7808  156.9992 H   0  0  0  0  0  0  0  0  0  0  0  0  # atno 11005 bound_to 11000
  144.7715  139.6724  143.7192 LP  0  0  0  0  0  0  0  0  0  0  0  0  # atno 17320 bound_to 7965
  146.2152  139.5537  142.9654 LP  0  0  0  0  0  0  0  0  0  0  0  0  # atno 17321 bound_to 7965
  139.9028  144.6902  150.8646 LP  0  0  0  0  0  0  0  0  0  0  0  0  # atno 17342 bound_to 10162
  140.7724  143.3501  151.2032 LP  0  0  0  0  0  0  0  0  0  0  0  0  # atno 17343 bound_to 10162
  156.0446  130.5524  150.8850 LP  0  0  0  0  0  0  0  0  0  0  0  0  # atno 17370 bound_to 10713
  157.5845  131.0946  150.9219 LP  0  0  0  0  0  0  0  0  0  0  0  0  # atno 17371 bound_to 10713
  140.0951  134.9569  157.1837 LP  0  0  0  0  0  0  0  0  0  0  0  0  # atno 17394 bound_to 11000
  140.3393  134.2722  155.7215 LP  0  0  0  0  0  0  0  0  0  0  0  0  # atno 17395 bound_to 11000

$$$$
