AV-unprocessed.smi:3128|AV-procd|sdf|11918|dock4
  -GOLD-   2272017293D 1   1.00000     0.00000
 Structure written by MMmdl.
 40 40  0  0  0  0  0  0  0  0  2 V2000
  149.9126  141.4115  155.9150 C   0  0  0  0  0  0  0  0  0  0  0  0
  149.0560  141.1322  154.6671 C   0  0  0  0  0  0  0  0  0  0  0  0
  147.7028  141.8567  154.8035 C   0  0  0  0  0  0  0  0  0  0  0  0
  148.8895  139.6084  154.3974 C   0  0  2  0  0  0  0  0  0  0  0  0
  150.2167  138.8709  154.1246 C   0  0  0  0  0  0  0  0  0  0  0  0
  147.9170  139.3222  153.3374 N   0  0  0  0  0  0  0  0  0  0  0  0
  146.8017  138.5780  153.4310 C   0  0  0  0  0  0  0  0  0  0  0  0
  146.4315  138.0282  154.4686 O   0  0  0  0  0  0  0  0  0  0  0  0
  145.9761  138.4469  152.1511 C   0  0  0  0  0  0  0  0  0  0  0  0
  146.0038  137.0701  151.6194 N   0  3  0  0  0  0  0  0  0  0  0  0
  145.3206  136.0764  152.4714 C   0  0  0  0  0  0  0  0  0  0  0  0
  144.1841  135.3690  151.7160 C   0  0  0  0  0  0  0  0  0  0  0  0
  144.5441  134.0183  151.3228 N   0  0  0  0  0  0  0  0  0  0  0  0
  143.7670  133.0752  150.6837 C   0  0  0  0  0  0  0  0  0  0  0  0
  144.5382  131.9612  150.5139 C   0  0  0  0  0  0  0  0  0  0  0  0
  145.7873  132.3223  151.0917 C   0  0  0  0  0  0  0  0  0  0  0  0
  145.7881  133.5550  151.5733 N   0  0  0  0  0  0  0  0  0  0  0  0
  149.4838  140.9457  156.8027 H   0  0  0  0  0  0  0  0  0  0  0  0
  149.9872  142.4822  156.1081 H   0  0  0  0  0  0  0  0  0  0  0  0
  150.9309  141.0415  155.7992 H   0  0  0  0  0  0  0  0  0  0  0  0
  149.5771  141.5788  153.8198 H   0  0  0  0  0  0  0  0  0  0  0  0
  147.1092  141.4351  155.6152 H   0  0  0  0  0  0  0  0  0  0  0  0
  147.1119  141.7937  153.8899 H   0  0  0  0  0  0  0  0  0  0  0  0
  147.8457  142.9169  155.0144 H   0  0  0  0  0  0  0  0  0  0  0  0
  148.4600  139.1637  155.2961 H   0  0  0  0  0  0  0  0  0  0  0  0
  150.8615  138.8694  155.0029 H   0  0  0  0  0  0  0  0  0  0  0  0
  150.7741  139.3286  153.3071 H   0  0  0  0  0  0  0  0  0  0  0  0
  150.0382  137.8275  153.8631 H   0  0  0  0  0  0  0  0  0  0  0  0
  148.1206  139.7319  152.4372 H   0  0  0  0  0  0  0  0  0  0  0  0
  144.9462  138.7364  152.3630 H   0  0  0  0  0  0  0  0  0  0  0  0
  146.3624  139.1325  151.3951 H   0  0  0  0  0  0  0  0  0  0  0  0
  145.5564  137.0721  150.7134 H   0  0  0  0  0  0  0  0  0  0  0  0
  146.0524  135.3413  152.8083 H   0  0  0  0  0  0  0  0  0  0  0  0
  144.9254  136.5657  153.3628 H   0  0  0  0  0  0  0  0  0  0  0  0
  143.2767  135.3358  152.3212 H   0  0  0  0  0  0  0  0  0  0  0  0
  143.9366  135.9302  150.8139 H   0  0  0  0  0  0  0  0  0  0  0  0
  142.7424  133.2726  150.4044 H   0  0  0  0  0  0  0  0  0  0  0  0
  144.2534  131.0289  150.0491 H   0  0  0  0  0  0  0  0  0  0  0  0
  146.6873  131.7306  151.1733 H   0  0  0  0  0  0  0  0  0  0  0  0
  146.9669  136.7912  151.4963 H   0  0  0  0  0  0  0  0  0  0  0  0
  1  2  1  0  0  0  0
  1 18  1  0  0  0  0
  1 19  1  0  0  0  0
  1 20  1  0  0  0  0
  2  3  1  0  0  0  0
  2  4  1  0  0  0  0
  2 21  1  0  0  0  0
  3 22  1  0  0  0  0
  3 23  1  0  0  0  0
  3 24  1  0  0  0  0
  4  5  1  0  0  0  0
  4  6  1  0  0  0  0
  4 25  1  0  0  0  0
  5 26  1  0  0  0  0
  5 27  1  0  0  0  0
  5 28  1  0  0  0  0
  6  7  1  0  0  0  0
  6 29  1  0  0  0  0
  7  8  2  0  0  0  0
  7  9  1  0  0  0  0
  9 10  1  0  0  0  0
  9 30  1  0  0  0  0
  9 31  1  0  0  0  0
 10 11  1  0  0  0  0
 10 32  1  0  0  0  0
 10 40  1  0  0  0  0
 11 12  1  0  0  0  0
 11 33  1  0  0  0  0
 11 34  1  0  0  0  0
 12 13  1  0  0  0  0
 12 35  1  0  0  0  0
 12 36  1  0  0  0  0
 13 17  1  0  0  0  0
 13 14  1  0  0  0  0
 14 15  2  0  0  0  0
 14 37  1  0  0  0  0
 15 16  1  0  0  0  0
 15 38  1  0  0  0  0
 16 17  2  0  0  0  0
 16 39  1  0  0  0  0
M  CHG  1  10   1
M  END
> <s_m_source_file>
AV-unprocessed.smi

> <i_m_source_file_index>
3128

> <i_lp_mmshare_version>
43012

> <i_f3d_flags>
0

> <s_epik_input>
W0NIM11bQ0hdKFtDSDNdKVtDQEhdKFtDSDNdKVtOSF1DKD1PKVtDSDJdW05IXVtDSDJdW0NIMl1uMVtjSF1bY0hdW2NIXW4x

> <s_epik_cmdline>
J2VwaWtfcHl0aG9uJywgJy1waCcsICc3LjAnLCAnLXRuJywgJzgnLCAnLW1hJywgJzIwMCcsICctbWV0YWxfYmluZGluZycsICctaW1hZScsICc8aW5maWxlLm1hZT4nLCAnLW9tYWUnLCAnPG91dGZpbGUubWFlPic=

> <r_lp_tautomer_probability>
1

> <r_epik_Ionization_Penalty>
0.20724

> <r_epik_Ionization_Penalty_Charging>
0.207237

> <r_epik_Ionization_Penalty_Neutral>
3.20642e-06

> <r_epik_State_Penalty>
0.197613

> <r_epik_Charging_Adjusted_Penalty>
0.40485

> <i_epik_Tot_Q>
1

> <i_epik_Tot_abs_Q>
1

> <r_epik_Metal_State_Penalty>
0.197789

> <b_epik_Metal_Only>
0

> <s_lp_Force_Field>
OPLS_2005

> <r_lp_Energy>
3.68696

> <b_lp_Chiralities_Consistent>
1

> <s_lp_Variant>
AV-unprocessed.smi:3128-1

> <Gold.Version>
5.8.1

> <Gold.Id.Protein>
6NUR|6NUR_protein|mol2

> <Gold.PLP.Fitness>
51.4501

> <Gold.PLP.PLP>
-38.0971

> <Gold.PLP.part.hbond>
-2.0595

> <Gold.PLP.part.metal>
0.0000

> <Gold.PLP.part.buried>
-4.7484

> <Gold.PLP.part.nonpolar>
-34.0940

> <Gold.PLP.part.repulsive>
0.5101

> <Gold.PLP.ligand.clash>
0.0000

> <Gold.PLP.ligand.torsion>
0.8939

> <Gold.PLP.Chemscore.Hbond>
2.9588

> <Gold.PLP.Chemscore.CHOScore>
2.0000

> <Gold.PLP.Chemscore.Metal>
0.0000

> <Gold.Chemscore.Hbonds>
donor molecule, donor type, donor heavy atom, donor atom, acceptor molecule, acceptor atom, score
      L1  H     6    29       P1  7957  0.86
      L1  H    10    40       P1  7948  1.85
      L1  C    14    37       P1 10186  1.00
      L1  C    16    39       P1 10747  0.80

> <Gold.PLP.Chemscore.Internal.Correction>
0.2645

> <Gold.Rescore>
     Score         DG    S(hbond)    S(metal)    S(lipo)     H(rot)  DE(clash)    DE(int)     intcor
     15.12     -16.43       1.97        0.00      86.28       2.24       0.20       1.11       ----

> <Gold.Chemscore.Fitness>
15.1206

> <Gold.Chemscore.DG>
-16.4296

> <Gold.Chemscore.ZeroCoef>
-5.4800

> <Gold.Chemscore.Hbond>
1.9741

> <Gold.Chemscore.Metal>
0.0000

> <Gold.Chemscore.Lipo>
86.2784

> <Gold.Chemscore.Internal_Hbond>
0.0000

> <Gold.Chemscore.DEClash>
0.1951

> <Gold.Chemscore.DEInternal>
1.1139

> <Gold.Chemscore.Rot>
2.2416

> <Gold.Chemscore.Internal.Correction>
   9.000000E+99

> <Gold.Chemscore.Hbonds>
donor molecule, donor type, donor heavy atom, donor atom, acceptor molecule, acceptor atom, score
      L1  H     6    29       P1  7957  0.83
      L1  H    10    32       P1 10171  0.04
      L1  H    10    40       P1  7948  0.89

> <Gold.Chemscore.Hbond.Weighted>
-6.5935

> <Gold.Chemscore.Metal.Weighted>
-0.0000

> <Gold.Chemscore.Lipo.Weighted>
-10.0946

> <Gold.Chemscore.Internal_Hbond.Weighted>
0.0000

> <Gold.Chemscore.DEClash.Weighted>
0.1951

> <Gold.Chemscore.DEInternal.Weighted>
1.1139

> <Gold.Chemscore.Rot.Weighted>
5.7385

> <Gold.Chemscore.Internal.Correction.Weighted>
   9.000000E+99

> <Gold.Protein.RotatedTorsions>
[ 6907 6896 6895 6894 ] final   99.32 input  -60.11 | X-H torsion
[ 7974 7965 7964 7962 ] final -129.84 input  175.53 | X-H torsion
[ 8008 7997 7996 7995 ] final   -6.75 input   59.86 | X-H torsion
[ 10167 10162 10161 10158 ] final -127.48 input  -65.29 | X-H torsion
[ 10718 10713 10712 10709 ] final  -84.44 input   66.30 | X-H torsion
[ 10763 10752 10751 10750 ] final    0.05 input  -60.55 | X-H torsion
[ 11005 11000 10999 10996 ] final   75.04 input  -57.11 | X-H torsion

> <Gold.Protein.ActiveResidues>
 VAL166  LYS551  ARG553  GLY616  TRP617  ASP618  TYR619  PRO620  LYS621  CYS622 
 ASP623  PHE694  ASN695  SER759  ASP760  ASP761  ALA762  ILE779  LEU786  VAL792 
 PHE793  MET794  SER795  GLU796  ALA797  LYS798  CYS799  TRP800  GLU811  SER814 

> <Gold.Protein.RotatedAtoms>
  152.5394  134.0446  159.8082 H   0  0  0  0  0  0  0  0  0  0  0  0  # atno 6907 bound_to 6896
  151.0597  133.5547  159.2642 H   0  0  0  0  0  0  0  0  0  0  0  0  # atno 6908 bound_to 6896
  151.2450  135.0610  159.9094 H   0  0  0  0  0  0  0  0  0  0  0  0  # atno 6909 bound_to 6896
  144.9533  140.7368  143.4774 H   0  0  0  0  0  0  0  0  0  0  0  0  # atno 7974 bound_to 7965
  154.5906  140.2424  155.7926 H   0  0  0  0  0  0  0  0  0  0  0  0  # atno 8008 bound_to 7997
  156.2244  140.2987  155.9986 H   0  0  0  0  0  0  0  0  0  0  0  0  # atno 8009 bound_to 7997
  155.2381  140.0406  157.2962 H   0  0  0  0  0  0  0  0  0  0  0  0  # atno 8010 bound_to 7997
  139.9604  143.5956  152.2447 H   0  0  0  0  0  0  0  0  0  0  0  0  # atno 10167 bound_to 10162
  156.0006  130.4698  150.4411 H   0  0  0  0  0  0  0  0  0  0  0  0  # atno 10718 bound_to 10713
  153.3257  135.6972  153.6992 H   0  0  0  0  0  0  0  0  0  0  0  0  # atno 10763 bound_to 10752
  153.5814  135.3497  155.2877 H   0  0  0  0  0  0  0  0  0  0  0  0  # atno 10764 bound_to 10752
  154.8607  135.4296  154.2432 H   0  0  0  0  0  0  0  0  0  0  0  0  # atno 10765 bound_to 10752
  139.9362  134.7484  156.1222 H   0  0  0  0  0  0  0  0  0  0  0  0  # atno 11005 bound_to 11000
  145.2810  139.1918  143.4791 LP  0  0  0  0  0  0  0  0  0  0  0  0  # atno 17320 bound_to 7965
  146.3328  140.2772  142.8608 LP  0  0  0  0  0  0  0  0  0  0  0  0  # atno 17321 bound_to 7965
  139.6558  144.7662  151.2058 LP  0  0  0  0  0  0  0  0  0  0  0  0  # atno 17342 bound_to 10162
  140.7555  143.6088  150.8626 LP  0  0  0  0  0  0  0  0  0  0  0  0  # atno 17343 bound_to 10162
  157.2452  131.0534  151.2413 LP  0  0  0  0  0  0  0  0  0  0  0  0  # atno 17370 bound_to 10713
  157.3582  130.7117  149.6484 LP  0  0  0  0  0  0  0  0  0  0  0  0  # atno 17371 bound_to 10713
  141.0977  133.6689  156.2683 LP  0  0  0  0  0  0  0  0  0  0  0  0  # atno 17394 bound_to 11000
  140.6069  134.5498  157.5527 LP  0  0  0  0  0  0  0  0  0  0  0  0  # atno 17395 bound_to 11000

$$$$
