AV-unprocessed.smi:3156|AV-procd|sdf|12031|dock3
  -GOLD-   2272017453D 1   1.00000     0.00000
 Structure written by MMmdl.
 41 42  0  0  0  0  0  0  0  0  2 V2000
  148.8028  140.1446  157.6662 C   0  0  0  0  0  0  0  0  0  0  0  0
  149.4767  141.3935  157.0652 C   0  0  2  0  0  0  0  0  0  0  0  0
  148.6190  142.5829  157.2824 N   0  3  0  0  0  0  0  0  0  0  0  0
  148.7447  143.2226  158.6094 C   0  0  0  0  0  0  0  0  0  0  0  0
  150.1908  143.6629  158.8833 C   0  0  1  0  0  0  0  0  0  0  0  0
  150.2735  144.8629  159.8501 C   0  0  0  0  0  0  0  0  0  0  0  0
  151.7341  145.1976  160.1727 C   0  0  0  0  0  0  0  0  0  0  0  0
  152.4547  143.9402  160.6694 C   0  0  0  0  0  0  0  0  0  0  0  0
  152.2637  142.7869  159.6719 C   0  0  0  0  0  0  0  0  0  0  0  0
  150.8741  142.5533  159.4613 O   0  0  0  0  0  0  0  0  0  0  0  0
  149.7789  141.2306  155.5496 C   0  0  2  0  0  0  0  0  0  0  0  0
  148.5146  141.2582  154.6707 C   0  0  0  0  0  0  0  0  0  0  0  0
  150.5332  140.0124  155.2725 N   0  0  0  0  0  0  0  0  0  0  0  0
  151.7575  139.6338  155.7845 C   0  0  0  0  0  0  0  0  0  0  0  0
  152.0812  138.4313  155.2251 C   0  0  0  0  0  0  0  0  0  0  0  0
  150.9856  138.1540  154.3611 C   0  0  0  0  0  0  0  0  0  0  0  0
  150.0639  139.1028  154.3881 N   0  0  0  0  0  0  0  0  0  0  0  0
  149.4448  139.2674  157.5950 H   0  0  0  0  0  0  0  0  0  0  0  0
  147.8664  139.9154  157.1567 H   0  0  0  0  0  0  0  0  0  0  0  0
  148.5790  140.2757  158.7243 H   0  0  0  0  0  0  0  0  0  0  0  0
  150.4222  141.5565  157.5856 H   0  0  0  0  0  0  0  0  0  0  0  0
  148.8868  143.2747  156.5964 H   0  0  0  0  0  0  0  0  0  0  0  0
  148.0720  144.0760  158.6918 H   0  0  0  0  0  0  0  0  0  0  0  0
  148.4379  142.5014  159.3681 H   0  0  0  0  0  0  0  0  0  0  0  0
  150.6710  143.9131  157.9351 H   0  0  0  0  0  0  0  0  0  0  0  0
  149.7826  145.7368  159.4210 H   0  0  0  0  0  0  0  0  0  0  0  0
  149.7424  144.6288  160.7737 H   0  0  0  0  0  0  0  0  0  0  0  0
  152.2311  145.5769  159.2790 H   0  0  0  0  0  0  0  0  0  0  0  0
  151.7878  145.9880  160.9219 H   0  0  0  0  0  0  0  0  0  0  0  0
  153.5159  144.1447  160.8131 H   0  0  0  0  0  0  0  0  0  0  0  0
  152.0567  143.6494  161.6425 H   0  0  0  0  0  0  0  0  0  0  0  0
  152.7551  143.0071  158.7228 H   0  0  0  0  0  0  0  0  0  0  0  0
  152.7192  141.8763  160.0612 H   0  0  0  0  0  0  0  0  0  0  0  0
  150.4100  142.0659  155.2414 H   0  0  0  0  0  0  0  0  0  0  0  0
  148.0154  142.2258  154.7072 H   0  0  0  0  0  0  0  0  0  0  0  0
  147.7964  140.4983  154.9805 H   0  0  0  0  0  0  0  0  0  0  0  0
  148.7625  141.0706  153.6253 H   0  0  0  0  0  0  0  0  0  0  0  0
  152.2922  140.2447  156.4973 H   0  0  0  0  0  0  0  0  0  0  0  0
  152.9691  137.8421  155.4006 H   0  0  0  0  0  0  0  0  0  0  0  0
  150.8351  137.2995  153.7180 H   0  0  0  0  0  0  0  0  0  0  0  0
  147.6558  142.3269  157.1202 H   0  0  0  0  0  0  0  0  0  0  0  0
  1  2  1  0  0  0  0
  1 18  1  0  0  0  0
  1 19  1  0  0  0  0
  1 20  1  0  0  0  0
  2  3  1  0  0  0  0
  2 11  1  0  0  0  0
  2 21  1  0  0  0  0
  3  4  1  0  0  0  0
  3 22  1  0  0  0  0
  3 41  1  0  0  0  0
  4  5  1  0  0  0  0
  4 23  1  0  0  0  0
  4 24  1  0  0  0  0
  5 10  1  0  0  0  0
  5  6  1  0  0  0  0
  5 25  1  0  0  0  0
  6  7  1  0  0  0  0
  6 26  1  0  0  0  0
  6 27  1  0  0  0  0
  7  8  1  0  0  0  0
  7 28  1  0  0  0  0
  7 29  1  0  0  0  0
  8  9  1  0  0  0  0
  8 30  1  0  0  0  0
  8 31  1  0  0  0  0
  9 10  1  0  0  0  0
  9 32  1  0  0  0  0
  9 33  1  0  0  0  0
 11 12  1  0  0  0  0
 11 13  1  0  0  0  0
 11 34  1  0  0  0  0
 12 35  1  0  0  0  0
 12 36  1  0  0  0  0
 12 37  1  0  0  0  0
 13 17  1  0  0  0  0
 13 14  1  0  0  0  0
 14 15  2  0  0  0  0
 14 38  1  0  0  0  0
 15 16  1  0  0  0  0
 15 39  1  0  0  0  0
 16 17  2  0  0  0  0
 16 40  1  0  0  0  0
M  CHG  1   3   1
M  END
> <s_m_source_file>
AV-unprocessed.smi

> <i_m_source_file_index>
3156

> <i_lp_mmshare_version>
43012

> <i_f3d_flags>
0

> <s_epik_input>
bjFbY0hdW2NIXVtjSF1uMVtDQEBIXShbQ0gzXSlbQ0BIXShbQ0gzXSlbTkhdW0NIMl1bQ0BASF0yW0NIMl1bQ0gyXVtDSDJdW0NIMl1PMg==

> <s_epik_cmdline>
J2VwaWtfcHl0aG9uJywgJy1waCcsICc3LjAnLCAnLXRuJywgJzgnLCAnLW1hJywgJzIwMCcsICctbWV0YWxfYmluZGluZycsICctaW1hZScsICc8aW5maWxlLm1hZT4nLCAnLW9tYWUnLCAnPG91dGZpbGUubWFlPic=

> <r_lp_tautomer_probability>
1

> <r_epik_Ionization_Penalty>
0.00658015

> <r_epik_Ionization_Penalty_Charging>
0.00656881

> <r_epik_Ionization_Penalty_Neutral>
1.13431e-05

> <r_epik_State_Penalty>
0.0048654

> <r_epik_Charging_Adjusted_Penalty>
0.0114342

> <i_epik_Tot_Q>
1

> <i_epik_Tot_abs_Q>
1

> <r_epik_Metal_State_Penalty>
-0

> <b_epik_Metal_Only>
0

> <s_lp_Force_Field>
OPLS_2005

> <r_lp_Energy>
18.0883

> <b_lp_Chiralities_Consistent>
1

> <s_lp_Variant>
AV-unprocessed.smi:3156-3

> <Gold.Version>
5.8.1

> <Gold.Id.Protein>
6NUR|6NUR_protein|mol2

> <Gold.PLP.Fitness>
46.7886

> <Gold.PLP.PLP>
-38.7094

> <Gold.PLP.part.hbond>
-2.1848

> <Gold.PLP.part.metal>
0.0000

> <Gold.PLP.part.buried>
-3.4382

> <Gold.PLP.part.nonpolar>
-32.5386

> <Gold.PLP.part.repulsive>
0.2216

> <Gold.PLP.ligand.clash>
0.0000

> <Gold.PLP.ligand.torsion>
0.6900

> <Gold.PLP.Chemscore.Hbond>
2.0000

> <Gold.PLP.Chemscore.CHOScore>
1.1225

> <Gold.PLP.Chemscore.Metal>
0.0000

> <Gold.Chemscore.Hbonds>
donor molecule, donor type, donor heavy atom, donor atom, acceptor molecule, acceptor atom, score
      L1  H     3    22       P1  8028  2.00
      L1  C    16    40       P1  7948  0.16
      L1  C    16    40       P1  7949  0.74

> <Gold.PLP.Chemscore.Internal.Correction>
0.0917

> <Gold.Rescore>
     Score         DG    S(hbond)    S(metal)    S(lipo)     H(rot)  DE(clash)    DE(int)     intcor
     14.65     -15.54       0.78        0.00      98.48       1.59       0.20       0.69       ----

> <Gold.Chemscore.Fitness>
14.6452

> <Gold.Chemscore.DG>
-15.5369

> <Gold.Chemscore.ZeroCoef>
-5.4800

> <Gold.Chemscore.Hbond>
0.7831

> <Gold.Chemscore.Metal>
0.0000

> <Gold.Chemscore.Lipo>
98.4753

> <Gold.Chemscore.Internal_Hbond>
0.0000

> <Gold.Chemscore.DEClash>
0.1982

> <Gold.Chemscore.DEInternal>
0.6935

> <Gold.Chemscore.Rot>
1.5938

> <Gold.Chemscore.Internal.Correction>
   9.000000E+99

> <Gold.Chemscore.Hbonds>
donor molecule, donor type, donor heavy atom, donor atom, acceptor molecule, acceptor atom, score
      L1  H     3    22       P1  8028  0.92

> <Gold.Chemscore.Hbond.Weighted>
-2.6156

> <Gold.Chemscore.Metal.Weighted>
-0.0000

> <Gold.Chemscore.Lipo.Weighted>
-11.5216

> <Gold.Chemscore.Internal_Hbond.Weighted>
0.0000

> <Gold.Chemscore.DEClash.Weighted>
0.1982

> <Gold.Chemscore.DEInternal.Weighted>
0.6935

> <Gold.Chemscore.Rot.Weighted>
4.0802

> <Gold.Chemscore.Internal.Correction.Weighted>
   9.000000E+99

> <Gold.Protein.RotatedTorsions>
[ 6907 6896 6895 6894 ] final -106.46 input  -60.11 | X-H torsion
[ 7974 7965 7964 7962 ] final -179.73 input  175.53 | X-H torsion
[ 8008 7997 7996 7995 ] final -118.52 input   59.86 | X-H torsion
[ 10167 10162 10161 10158 ] final  -70.96 input  -65.29 | X-H torsion
[ 10718 10713 10712 10709 ] final   93.55 input   66.30 | X-H torsion
[ 10763 10752 10751 10750 ] final   34.93 input  -60.55 | X-H torsion
[ 11005 11000 10999 10996 ] final  -99.30 input  -57.11 | X-H torsion

> <Gold.Protein.ActiveResidues>
 VAL166  LYS551  ARG553  GLY616  TRP617  ASP618  TYR619  PRO620  LYS621  CYS622 
 ASP623  PHE694  ASN695  SER759  ASP760  ASP761  ALA762  ILE779  LEU786  VAL792 
 PHE793  MET794  SER795  GLU796  ALA797  LYS798  CYS799  TRP800  GLU811  SER814 

> <Gold.Protein.RotatedAtoms>
  150.7390  133.9973  159.3626 H   0  0  0  0  0  0  0  0  0  0  0  0  # atno 6907 bound_to 6896
  151.7925  135.0729  160.0398 H   0  0  0  0  0  0  0  0  0  0  0  0  # atno 6908 bound_to 6896
  152.3198  133.5805  159.5773 H   0  0  0  0  0  0  0  0  0  0  0  0  # atno 6909 bound_to 6896
  144.7139  140.0673  143.6430 H   0  0  0  0  0  0  0  0  0  0  0  0  # atno 7974 bound_to 7965
  155.1010  140.0396  157.2697 H   0  0  0  0  0  0  0  0  0  0  0  0  # atno 8008 bound_to 7997
  154.6758  140.2622  155.6934 H   0  0  0  0  0  0  0  0  0  0  0  0  # atno 8009 bound_to 7997
  156.2676  140.2788  156.1284 H   0  0  0  0  0  0  0  0  0  0  0  0  # atno 8010 bound_to 7997
  140.5311  143.2321  151.7260 H   0  0  0  0  0  0  0  0  0  0  0  0  # atno 10167 bound_to 10162
  157.6954  131.0482  150.4051 H   0  0  0  0  0  0  0  0  0  0  0  0  # atno 10718 bound_to 10713
  153.0142  135.6347  154.1746 H   0  0  0  0  0  0  0  0  0  0  0  0  # atno 10763 bound_to 10752
  154.1486  135.2830  155.3143 H   0  0  0  0  0  0  0  0  0  0  0  0  # atno 10764 bound_to 10752
  154.6070  135.5569  153.7495 H   0  0  0  0  0  0  0  0  0  0  0  0  # atno 10765 bound_to 10752
  141.1314  133.8311  157.0953 H   0  0  0  0  0  0  0  0  0  0  0  0  # atno 11005 bound_to 11000
  145.9813  139.2943  143.1040 LP  0  0  0  0  0  0  0  0  0  0  0  0  # atno 17320 bound_to 7965
  145.9007  140.9244  143.0504 LP  0  0  0  0  0  0  0  0  0  0  0  0  # atno 17321 bound_to 7965
  139.4955  144.4112  152.0078 LP  0  0  0  0  0  0  0  0  0  0  0  0  # atno 17342 bound_to 10162
  140.3214  144.3423  150.6008 LP  0  0  0  0  0  0  0  0  0  0  0  0  # atno 17343 bound_to 10162
  156.4440  130.3997  149.6678 LP  0  0  0  0  0  0  0  0  0  0  0  0  # atno 17370 bound_to 10713
  156.3852  130.7599  151.2595 LP  0  0  0  0  0  0  0  0  0  0  0  0  # atno 17371 bound_to 10713
  140.0367  134.9875  157.0884 LP  0  0  0  0  0  0  0  0  0  0  0  0  # atno 17394 bound_to 11000
  140.4200  134.1891  155.7164 LP  0  0  0  0  0  0  0  0  0  0  0  0  # atno 17395 bound_to 11000

$$$$
