AV-unprocessed.smi:2079|AV-procd|sdf|8478|dock2
  -GOLD-   2272011183D 1   1.00000     0.00000
 Structure written by MMmdl.
 42 43  0  0  0  0  0  0  0  0  2 V2000
  139.2701  137.4101  153.2230 C   0  0  0  0  0  0  0  0  0  0  0  0
  140.5957  136.7911  153.5067 C   0  0  0  0  0  0  0  0  0  0  0  0
  141.0561  135.5061  153.4405 C   0  0  0  0  0  0  0  0  0  0  0  0
  142.4089  135.6297  153.8552 C   0  0  0  0  0  0  0  0  0  0  0  0
  143.2547  134.4937  153.9328 N   0  0  0  0  0  0  0  0  0  0  0  0
  144.5976  134.4781  153.9793 C   0  0  0  0  0  0  0  0  0  0  0  0
  145.3216  135.4733  153.9357 O   0  0  0  0  0  0  0  0  0  0  0  0
  145.0722  133.2275  154.0788 N   0  0  0  0  0  0  0  0  0  0  0  0
  146.4864  132.8842  154.1798 C   0  0  0  0  0  0  0  0  0  0  0  0
  147.1167  132.6593  152.7886 C   0  0  0  0  0  0  0  0  0  0  0  0
  147.3057  131.2198  152.4444 N   0  3  1  0  0  0  0  0  0  0  0  0
  148.0269  130.4774  153.5195 C   0  0  0  0  0  0  0  0  0  0  0  0
  148.3351  129.0286  153.1163 C   0  0  0  0  0  0  0  0  0  0  0  0
  147.0503  128.2877  152.7492 C   0  0  0  0  0  0  0  0  0  0  0  0
  146.3254  129.0556  151.6420 C   0  0  0  0  0  0  0  0  0  0  0  0
  146.0391  130.5189  152.0461 C   0  0  2  0  0  0  0  0  0  0  0  0
  145.2926  131.2108  150.8859 C   0  0  0  0  0  0  0  0  0  0  0  0
  142.7449  136.8775  154.1442 N   0  0  0  0  0  0  0  0  0  0  0  0
  141.5844  137.6282  153.9229 O   0  0  0  0  0  0  0  0  0  0  0  0
  138.6140  136.7079  152.7084 H   0  0  0  0  0  0  0  0  0  0  0  0
  139.3812  138.2928  152.5931 H   0  0  0  0  0  0  0  0  0  0  0  0
  138.7814  137.7139  154.1488 H   0  0  0  0  0  0  0  0  0  0  0  0
  140.5091  134.6226  153.1457 H   0  0  0  0  0  0  0  0  0  0  0  0
  142.7859  133.6009  153.9730 H   0  0  0  0  0  0  0  0  0  0  0  0
  144.4111  132.4648  154.1079 H   0  0  0  0  0  0  0  0  0  0  0  0
  147.0212  133.6653  154.7231 H   0  0  0  0  0  0  0  0  0  0  0  0
  146.5404  131.9832  154.7890 H   0  0  0  0  0  0  0  0  0  0  0  0
  146.5189  133.1455  152.0162 H   0  0  0  0  0  0  0  0  0  0  0  0
  148.0780  133.1664  152.7986 H   0  0  0  0  0  0  0  0  0  0  0  0
  148.9755  130.9567  153.7537 H   0  0  0  0  0  0  0  0  0  0  0  0
  147.4317  130.4925  154.4340 H   0  0  0  0  0  0  0  0  0  0  0  0
  149.0236  129.0190  152.2702 H   0  0  0  0  0  0  0  0  0  0  0  0
  148.8406  128.5135  153.9336 H   0  0  0  0  0  0  0  0  0  0  0  0
  147.2788  127.2735  152.4206 H   0  0  0  0  0  0  0  0  0  0  0  0
  146.4061  128.1986  153.6252 H   0  0  0  0  0  0  0  0  0  0  0  0
  146.9275  129.0352  150.7324 H   0  0  0  0  0  0  0  0  0  0  0  0
  145.3928  128.5427  151.4034 H   0  0  0  0  0  0  0  0  0  0  0  0
  145.3762  130.5082  152.9131 H   0  0  0  0  0  0  0  0  0  0  0  0
  144.4797  130.5841  150.5181 H   0  0  0  0  0  0  0  0  0  0  0  0
  145.9581  131.4099  150.0452 H   0  0  0  0  0  0  0  0  0  0  0  0
  144.8301  132.1495  151.1886 H   0  0  0  0  0  0  0  0  0  0  0  0
  147.9024  131.2013  151.6296 H   0  0  0  0  0  0  0  0  0  0  0  0
  1  2  1  0  0  0  0
  1 20  1  0  0  0  0
  1 21  1  0  0  0  0
  1 22  1  0  0  0  0
  2 19  1  0  0  0  0
  2  3  2  0  0  0  0
  3  4  1  0  0  0  0
  3 23  1  0  0  0  0
  4  5  1  0  0  0  0
  4 18  2  0  0  0  0
  5  6  1  0  0  0  0
  5 24  1  0  0  0  0
  6  7  2  0  0  0  0
  6  8  1  0  0  0  0
  8  9  1  0  0  0  0
  8 25  1  0  0  0  0
  9 10  1  0  0  0  0
  9 26  1  0  0  0  0
  9 27  1  0  0  0  0
 10 11  1  0  0  0  0
 10 28  1  0  0  0  0
 10 29  1  0  0  0  0
 11 16  1  0  0  0  0
 11 12  1  0  0  0  0
 11 42  1  0  0  0  0
 12 13  1  0  0  0  0
 12 30  1  0  0  0  0
 12 31  1  0  0  0  0
 13 14  1  0  0  0  0
 13 32  1  0  0  0  0
 13 33  1  0  0  0  0
 14 15  1  0  0  0  0
 14 34  1  0  0  0  0
 14 35  1  0  0  0  0
 15 16  1  0  0  0  0
 15 36  1  0  0  0  0
 15 37  1  0  0  0  0
 16 17  1  0  0  0  0
 16 38  1  0  0  0  0
 17 39  1  0  0  0  0
 17 40  1  0  0  0  0
 17 41  1  0  0  0  0
 18 19  1  0  0  0  0
M  CHG  1  11   1
M  END
> <s_m_source_file>
AV-unprocessed.smi

> <i_m_source_file_index>
2079

> <i_lp_mmshare_version>
43012

> <i_f3d_flags>
0

> <s_epik_input>
W0NIM11jMVtjSF1jKG5vMSlbTkhdQyg9TylbTkhdW0NIMl1bQ0gyXU4yW0NIMl1bQ0gyXVtDSDJdW0NIMl1bQ0BIXTJbQ0gzXQ==

> <s_epik_cmdline>
J2VwaWtfcHl0aG9uJywgJy1waCcsICc3LjAnLCAnLXRuJywgJzgnLCAnLW1hJywgJzIwMCcsICctbWV0YWxfYmluZGluZycsICctaW1hZScsICc8aW5maWxlLm1hZT4nLCAnLW9tYWUnLCAnPG91dGZpbGUubWFlPic=

> <r_epik_Ionization_Penalty>
0.00265971

> <r_epik_Ionization_Penalty_Charging>
0.00262393

> <r_epik_Ionization_Penalty_Neutral>
3.57846e-05

> <r_epik_State_Penalty>
0.00182566

> <r_epik_Charging_Adjusted_Penalty>
0.00444959

> <i_epik_Tot_Q>
1

> <i_epik_Tot_abs_Q>
1

> <r_epik_Metal_State_Penalty>
0.0216344

> <b_epik_Metal_Only>
0

> <s_lp_Force_Field>
OPLS_2005

> <r_lp_Energy>
17.1718

> <b_lp_Chiralities_Consistent>
1

> <s_lp_Variant>
AV-unprocessed.smi:2079-4

> <Gold.Version>
5.8.1

> <Gold.Id.Protein>
6NUR|6NUR_protein|mol2

> <Gold.PLP.Fitness>
39.4393

> <Gold.PLP.PLP>
-31.6987

> <Gold.PLP.part.hbond>
-3.0000

> <Gold.PLP.part.metal>
0.0000

> <Gold.PLP.part.buried>
-5.9472

> <Gold.PLP.part.nonpolar>
-23.3739

> <Gold.PLP.part.repulsive>
0.2395

> <Gold.PLP.ligand.clash>
0.0000

> <Gold.PLP.ligand.torsion>
0.6424

> <Gold.PLP.Chemscore.Hbond>
3.0000

> <Gold.PLP.Chemscore.CHOScore>
0.0000

> <Gold.PLP.Chemscore.Metal>
0.0000

> <Gold.Chemscore.Hbonds>
donor molecule, donor type, donor heavy atom, donor atom, acceptor molecule, acceptor atom, score
      L1  H     5    24       P1 10957  0.98
      L1  H     8    25       P1 10957  0.98
      L1  H    11    42       P1 10747  1.00

> <Gold.PLP.Chemscore.Internal.Correction>
0.0254

> <Gold.Rescore>
     Score         DG    S(hbond)    S(metal)    S(lipo)     H(rot)  DE(clash)    DE(int)     intcor
     18.35     -20.32       2.73        0.00      83.40       1.57       0.13       1.84       ----

> <Gold.Chemscore.Fitness>
18.3497

> <Gold.Chemscore.DG>
-20.3234

> <Gold.Chemscore.ZeroCoef>
-5.4800

> <Gold.Chemscore.Hbond>
2.7256

> <Gold.Chemscore.Metal>
0.0000

> <Gold.Chemscore.Lipo>
83.4042

> <Gold.Chemscore.Internal_Hbond>
0.0000

> <Gold.Chemscore.DEClash>
0.1303

> <Gold.Chemscore.DEInternal>
1.8435

> <Gold.Chemscore.Rot>
1.5697

> <Gold.Chemscore.Internal.Correction>
   9.000000E+99

> <Gold.Chemscore.Hbonds>
donor molecule, donor type, donor heavy atom, donor atom, acceptor molecule, acceptor atom, score
      L1  H     5    24       P1 10957  0.89
      L1  H     8    25       P1 10957  0.55
      L1  H    11    42       P1 10747  1.00

> <Gold.Chemscore.Hbond.Weighted>
-9.1036

> <Gold.Chemscore.Metal.Weighted>
-0.0000

> <Gold.Chemscore.Lipo.Weighted>
-9.7583

> <Gold.Chemscore.Internal_Hbond.Weighted>
0.0000

> <Gold.Chemscore.DEClash.Weighted>
0.1303

> <Gold.Chemscore.DEInternal.Weighted>
1.8435

> <Gold.Chemscore.Rot.Weighted>
4.0185

> <Gold.Chemscore.Internal.Correction.Weighted>
   9.000000E+99

> <Gold.Protein.RotatedTorsions>
[ 6907 6896 6895 6894 ] final   42.30 input  -60.11 | X-H torsion
[ 7974 7965 7964 7962 ] final   45.38 input  175.53 | X-H torsion
[ 8008 7997 7996 7995 ] final -145.42 input   59.86 | X-H torsion
[ 10167 10162 10161 10158 ] final  108.74 input  -65.29 | X-H torsion
[ 10718 10713 10712 10709 ] final  -69.71 input   66.30 | X-H torsion
[ 10763 10752 10751 10750 ] final   78.08 input  -60.55 | X-H torsion
[ 11005 11000 10999 10996 ] final -166.68 input  -57.11 | X-H torsion

> <Gold.Protein.ActiveResidues>
 VAL166  LYS551  ARG553  GLY616  TRP617  ASP618  TYR619  PRO620  LYS621  CYS622 
 ASP623  PHE694  ASN695  SER759  ASP760  ASP761  ALA762  ILE779  LEU786  VAL792 
 PHE793  MET794  SER795  GLU796  ALA797  LYS798  CYS799  TRP800  GLU811  SER814 

> <Gold.Protein.RotatedAtoms>
  152.2061  134.8544  160.0502 H   0  0  0  0  0  0  0  0  0  0  0  0  # atno 6907 bound_to 6896
  151.9379  133.3624  159.3963 H   0  0  0  0  0  0  0  0  0  0  0  0  # atno 6908 bound_to 6896
  150.6965  134.4394  159.5329 H   0  0  0  0  0  0  0  0  0  0  0  0  # atno 6909 bound_to 6896
  146.0485  139.4970  142.9733 H   0  0  0  0  0  0  0  0  0  0  0  0  # atno 7974 bound_to 7965
  155.5429  140.0609  157.2866 H   0  0  0  0  0  0  0  0  0  0  0  0  # atno 8008 bound_to 7997
  154.4446  140.1916  156.0653 H   0  0  0  0  0  0  0  0  0  0  0  0  # atno 8009 bound_to 7997
  156.0572  140.3277  155.7423 H   0  0  0  0  0  0  0  0  0  0  0  0  # atno 8010 bound_to 7997
  139.6822  144.7117  151.1495 H   0  0  0  0  0  0  0  0  0  0  0  0  # atno 10167 bound_to 10162
  156.0442  130.4318  150.2188 H   0  0  0  0  0  0  0  0  0  0  0  0  # atno 10718 bound_to 10713
  153.0847  135.4890  154.8573 H   0  0  0  0  0  0  0  0  0  0  0  0  # atno 10763 bound_to 10752
  154.7195  135.3036  154.9072 H   0  0  0  0  0  0  0  0  0  0  0  0  # atno 10764 bound_to 10752
  153.9741  135.6797  153.4801 H   0  0  0  0  0  0  0  0  0  0  0  0  # atno 10765 bound_to 10752
  140.5617  134.5326  157.5144 H   0  0  0  0  0  0  0  0  0  0  0  0  # atno 11005 bound_to 11000
  145.6765  141.0202  143.1629 LP  0  0  0  0  0  0  0  0  0  0  0  0  # atno 17320 bound_to 7965
  144.7110  139.8371  143.7414 LP  0  0  0  0  0  0  0  0  0  0  0  0  # atno 17321 bound_to 7965
  140.7656  143.5682  150.9024 LP  0  0  0  0  0  0  0  0  0  0  0  0  # atno 17342 bound_to 10162
  139.9355  143.6443  152.3066 LP  0  0  0  0  0  0  0  0  0  0  0  0  # atno 17343 bound_to 10162
  157.0279  130.9999  151.3320 LP  0  0  0  0  0  0  0  0  0  0  0  0  # atno 17370 bound_to 10713
  157.5298  130.8051  149.7903 LP  0  0  0  0  0  0  0  0  0  0  0  0  # atno 17371 bound_to 10713
  139.9404  134.7797  156.0692 LP  0  0  0  0  0  0  0  0  0  0  0  0  # atno 17394 bound_to 11000
  141.1110  133.6643  156.2979 LP  0  0  0  0  0  0  0  0  0  0  0  0  # atno 17395 bound_to 11000

$$$$
