AV-unprocessed.smi:1952|AV-procd|sdf|7892|dock10
  -GOLD-   2272010 53D 1   1.00000     0.00000
 Structure written by MMmdl.
 39 40  0  0  0  0  0  0  0  0  3 V2000
  152.7314  145.0548  159.8007 C   0  0  0  0  0  0  0  0  0  0  0  0
  152.1264  143.9644  158.9851 C   0  0  0  0  0  0  0  0  0  0  0  0
  151.9626  143.7918  157.6395 C   0  0  0  0  0  0  0  0  0  0  0  0
  151.3044  142.5361  157.5547 C   0  0  0  0  0  0  0  0  0  0  0  0
  150.9515  141.9876  156.2938 N   0  0  0  0  0  0  0  0  0  0  0  0
  151.1173  140.7297  155.8475 C   0  0  0  0  0  0  0  0  0  0  0  0
  151.6206  139.8673  156.5773 O   0  0  0  0  0  0  0  0  0  0  0  0
  150.6893  140.5759  154.5636 N   0  5  0  0  0  0  0  0  0  0  0  0
  150.1297  139.3424  153.9957 C   0  0  1  0  0  0  0  0  0  0  0  0
  151.1894  138.2356  154.0840 C   0  0  0  0  0  0  0  0  0  0  0  0
  148.8367  138.9441  154.7488 C   0  0  0  0  0  0  0  0  0  0  0  0
  147.8584  138.2538  153.8659 N   0  3  0  0  0  0  0  0  0  0  0  0
  146.9696  137.2914  154.5645 C   0  0  0  0  0  0  0  0  0  0  0  0
  146.0955  136.5482  153.5416 C   0  0  0  0  0  0  0  0  0  0  0  0
  145.3439  137.4896  152.7841 O   0  0  0  0  0  0  0  0  0  0  0  0
  146.1825  138.3761  152.0520 C   0  0  0  0  0  0  0  0  0  0  0  0
  147.0632  139.1779  153.0246 C   0  0  0  0  0  0  0  0  0  0  0  0
  151.0933  141.9881  158.7424 N   0  0  0  0  0  0  0  0  0  0  0  0
  151.6168  142.9017  159.6649 O   0  0  0  0  0  0  0  0  0  0  0  0
  153.3144  145.7308  159.1751 H   0  0  0  0  0  0  0  0  0  0  0  0
  153.3932  144.6465  160.5648 H   0  0  0  0  0  0  0  0  0  0  0  0
  151.9570  145.6382  160.2989 H   0  0  0  0  0  0  0  0  0  0  0  0
  152.2624  144.4594  156.8452 H   0  0  0  0  0  0  0  0  0  0  0  0
  150.5156  142.6278  155.6467 H   0  0  0  0  0  0  0  0  0  0  0  0
  149.8820  139.4632  152.9401 H   0  0  0  0  0  0  0  0  0  0  0  0
  150.8162  137.3026  153.6609 H   0  0  0  0  0  0  0  0  0  0  0  0
  151.4785  138.0387  155.1171 H   0  0  0  0  0  0  0  0  0  0  0  0
  152.0897  138.5070  153.5313 H   0  0  0  0  0  0  0  0  0  0  0  0
  149.0696  138.3073  155.6035 H   0  0  0  0  0  0  0  0  0  0  0  0
  148.3888  139.8473  155.1672 H   0  0  0  0  0  0  0  0  0  0  0  0
  147.5612  136.5707  155.1299 H   0  0  0  0  0  0  0  0  0  0  0  0
  146.3412  137.8231  155.2806 H   0  0  0  0  0  0  0  0  0  0  0  0
  146.7084  135.9343  152.8792 H   0  0  0  0  0  0  0  0  0  0  0  0
  145.4071  135.8756  154.0537 H   0  0  0  0  0  0  0  0  0  0  0  0
  146.7963  137.8145  151.3455 H   0  0  0  0  0  0  0  0  0  0  0  0
  145.5584  139.0511  151.4662 H   0  0  0  0  0  0  0  0  0  0  0  0
  146.4470  139.8166  153.6593 H   0  0  0  0  0  0  0  0  0  0  0  0
  147.7306  139.8287  152.4584 H   0  0  0  0  0  0  0  0  0  0  0  0
  148.4244  137.7146  153.2241 H   0  0  0  0  0  0  0  0  0  0  0  0
  1  2  1  0  0  0  0
  1 20  1  0  0  0  0
  1 21  1  0  0  0  0
  1 22  1  0  0  0  0
  2 19  1  0  0  0  0
  2  3  2  0  0  0  0
  3  4  1  0  0  0  0
  3 23  1  0  0  0  0
  4  5  1  0  0  0  0
  4 18  2  0  0  0  0
  5  6  1  0  0  0  0
  5 24  1  0  0  0  0
  6  7  2  0  0  0  0
  6  8  1  0  0  0  0
  8  9  1  0  0  0  0
  9 10  1  0  0  0  0
  9 11  1  0  0  0  0
  9 25  1  0  0  0  0
 10 26  1  0  0  0  0
 10 27  1  0  0  0  0
 10 28  1  0  0  0  0
 11 12  1  0  0  0  0
 11 29  1  0  0  0  0
 11 30  1  0  0  0  0
 12 17  1  0  0  0  0
 12 13  1  0  0  0  0
 12 39  1  0  0  0  0
 13 14  1  0  0  0  0
 13 31  1  0  0  0  0
 13 32  1  0  0  0  0
 14 15  1  0  0  0  0
 14 33  1  0  0  0  0
 14 34  1  0  0  0  0
 15 16  1  0  0  0  0
 16 17  1  0  0  0  0
 16 35  1  0  0  0  0
 16 36  1  0  0  0  0
 17 37  1  0  0  0  0
 17 38  1  0  0  0  0
 18 19  1  0  0  0  0
M  CHG  1   8  -1
M  CHG  1  12   1
M  END
> <s_m_source_file>
AV-unprocessed.smi

> <i_m_source_file_index>
1952

> <i_lp_mmshare_version>
43012

> <i_f3d_flags>
0

> <s_epik_input>
W0NIM11jMVtjSF1jKG5vMSlbTkhdQyg9TylbTkhdW0NASF0oW0NIM10pW0NIMl1OMltDSDJdW0NIMl1PW0NIMl1bQ0gyXTI=

> <s_epik_cmdline>
J2VwaWtfcHl0aG9uJywgJy1waCcsICc3LjAnLCAnLXRuJywgJzgnLCAnLW1hJywgJzIwMCcsICctbWV0YWxfYmluZGluZycsICctaW1hZScsICc8aW5maWxlLm1hZT4nLCAnLW9tYWUnLCAnPG91dGZpbGUubWFlPic=

> <r_epik_Ionization_Penalty>
6.76648

> <r_epik_Ionization_Penalty_Charging>
6.76648

> <r_epik_Ionization_Penalty_Neutral>
5.6208e-06

> <r_epik_State_Penalty>
7.45901

> <r_epik_Charging_Adjusted_Penalty>
14.2255

> <i_epik_Tot_Q>
0

> <i_epik_Tot_abs_Q>
2

> <r_epik_Metal_State_Penalty>
3.38802

> <b_epik_Metal_Only>
1

> <s_lp_Force_Field>
OPLS_2005

> <r_lp_Energy>
9.12096

> <b_lp_Chiralities_Consistent>
1

> <s_lp_Variant>
AV-unprocessed.smi:1952-10

> <Gold.Version>
5.8.1

> <Gold.Id.Protein>
6NUR|6NUR_protein|mol2

> <Gold.PLP.Fitness>
41.4755

> <Gold.PLP.PLP>
-34.8739

> <Gold.PLP.part.hbond>
-2.4981

> <Gold.PLP.part.metal>
0.0000

> <Gold.PLP.part.buried>
-2.7668

> <Gold.PLP.part.nonpolar>
-29.4858

> <Gold.PLP.part.repulsive>
0.4701

> <Gold.PLP.ligand.clash>
0.0000

> <Gold.PLP.ligand.torsion>
1.2590

> <Gold.PLP.Chemscore.Hbond>
3.0000

> <Gold.PLP.Chemscore.CHOScore>
0.0000

> <Gold.PLP.Chemscore.Metal>
0.0000

> <Gold.Chemscore.Hbonds>
donor molecule, donor type, donor heavy atom, donor atom, acceptor molecule, acceptor atom, score
      L1  H    12    39       P1  7948  1.82
      P1  H  7989  7998       L1     8  0.72

> <Gold.PLP.Chemscore.Internal.Correction>
0.1195

> <Gold.Rescore>
     Score         DG    S(hbond)    S(metal)    S(lipo)     H(rot)  DE(clash)    DE(int)     intcor
     13.64     -16.55       1.71        0.00      80.30       1.58       0.46       2.46       ----

> <Gold.Chemscore.Fitness>
13.6411

> <Gold.Chemscore.DG>
-16.5537

> <Gold.Chemscore.ZeroCoef>
-5.4800

> <Gold.Chemscore.Hbond>
1.7135

> <Gold.Chemscore.Metal>
0.0000

> <Gold.Chemscore.Lipo>
80.2984

> <Gold.Chemscore.Internal_Hbond>
0.0000

> <Gold.Chemscore.DEClash>
0.4553

> <Gold.Chemscore.DEInternal>
2.4573

> <Gold.Chemscore.Rot>
1.5798

> <Gold.Chemscore.Internal.Correction>
   9.000000E+99

> <Gold.Chemscore.Hbonds>
donor molecule, donor type, donor heavy atom, donor atom, acceptor molecule, acceptor atom, score
      L1  H    12    39       P1  7948  0.87
      P1  H  7989  7998       L1     8  0.13

> <Gold.Chemscore.Hbond.Weighted>
-5.7230

> <Gold.Chemscore.Metal.Weighted>
-0.0000

> <Gold.Chemscore.Lipo.Weighted>
-9.3949

> <Gold.Chemscore.Internal_Hbond.Weighted>
0.0000

> <Gold.Chemscore.DEClash.Weighted>
0.4553

> <Gold.Chemscore.DEInternal.Weighted>
2.4573

> <Gold.Chemscore.Rot.Weighted>
4.0442

> <Gold.Chemscore.Internal.Correction.Weighted>
   9.000000E+99

> <Gold.Protein.RotatedTorsions>
[ 6907 6896 6895 6894 ] final  -26.64 input  -60.11 | X-H torsion
[ 7974 7965 7964 7962 ] final  171.12 input  175.53 | X-H torsion
[ 8008 7997 7996 7995 ] final -175.87 input   59.86 | X-H torsion
[ 10167 10162 10161 10158 ] final  -52.43 input  -65.29 | X-H torsion
[ 10718 10713 10712 10709 ] final   61.68 input   66.30 | X-H torsion
[ 10763 10752 10751 10750 ] final  -78.42 input  -60.55 | X-H torsion
[ 11005 11000 10999 10996 ] final   -1.92 input  -57.11 | X-H torsion

> <Gold.Protein.ActiveResidues>
 VAL166  LYS551  ARG553  GLY616  TRP617  ASP618  TYR619  PRO620  LYS621  CYS622 
 ASP623  PHE694  ASN695  SER759  ASP760  ASP761  ALA762  ILE779  LEU786  VAL792 
 PHE793  MET794  SER795  GLU796  ALA797  LYS798  CYS799  TRP800  GLU811  SER814 

> <Gold.Protein.RotatedAtoms>
  151.1581  135.0260  159.8697 H   0  0  0  0  0  0  0  0  0  0  0  0  # atno 6907 bound_to 6896
  152.5452  134.1311  159.8449 H   0  0  0  0  0  0  0  0  0  0  0  0  # atno 6908 bound_to 6896
  151.1403  133.4930  159.2629 H   0  0  0  0  0  0  0  0  0  0  0  0  # atno 6909 bound_to 6896
  144.7304  139.9302  143.6424 H   0  0  0  0  0  0  0  0  0  0  0  0  # atno 7974 bound_to 7965
  155.9878  140.1195  157.0666 H   0  0  0  0  0  0  0  0  0  0  0  0  # atno 8008 bound_to 7997
  154.4202  140.1131  156.5592 H   0  0  0  0  0  0  0  0  0  0  0  0  # atno 8009 bound_to 7997
  155.6383  140.3473  155.4708 H   0  0  0  0  0  0  0  0  0  0  0  0  # atno 8010 bound_to 7997
  140.6538  143.2584  151.4647 H   0  0  0  0  0  0  0  0  0  0  0  0  # atno 10167 bound_to 10162
  157.5846  130.9008  149.9492 H   0  0  0  0  0  0  0  0  0  0  0  0  # atno 10718 bound_to 10713
  154.5256  135.5730  153.6717 H   0  0  0  0  0  0  0  0  0  0  0  0  # atno 10763 bound_to 10752
  152.9927  135.6192  154.2696 H   0  0  0  0  0  0  0  0  0  0  0  0  # atno 10764 bound_to 10752
  154.2620  135.2856  155.2754 H   0  0  0  0  0  0  0  0  0  0  0  0  # atno 10765 bound_to 10752
  140.6526  133.9391  155.8389 H   0  0  0  0  0  0  0  0  0  0  0  0  # atno 11005 bound_to 11000
  146.0863  139.3851  143.0433 LP  0  0  0  0  0  0  0  0  0  0  0  0  # atno 17320 bound_to 7965
  145.7772  140.9871  143.1118 LP  0  0  0  0  0  0  0  0  0  0  0  0  # atno 17321 bound_to 7965
  139.5757  144.1825  152.1899 LP  0  0  0  0  0  0  0  0  0  0  0  0  # atno 17342 bound_to 10162
  140.1135  144.5436  150.6909 LP  0  0  0  0  0  0  0  0  0  0  0  0  # atno 17343 bound_to 10162
  156.0894  130.3665  150.0425 LP  0  0  0  0  0  0  0  0  0  0  0  0  # atno 17370 bound_to 10713
  156.8558  130.9474  151.3622 LP  0  0  0  0  0  0  0  0  0  0  0  0  # atno 17371 bound_to 10713
  141.0525  134.0464  157.3765 LP  0  0  0  0  0  0  0  0  0  0  0  0  # atno 17394 bound_to 11000
  139.9040  135.0174  156.7403 LP  0  0  0  0  0  0  0  0  0  0  0  0  # atno 17395 bound_to 11000

$$$$
