AV-unprocessed.smi:2107|AV-procd|sdf|8602|dock8
  -GOLD-   2272011343D 1   1.00000     0.00000
 Structure written by MMmdl.
 45 46  0  0  0  0  0  0  0  0  2 V2000
  146.4932  133.9974  162.1666 C   0  0  0  0  0  0  0  0  0  0  0  0
  147.5653  134.2773  161.1032 C   0  0  0  0  0  0  0  0  0  0  0  0
  147.6905  135.7145  160.7884 N   0  0  0  0  0  0  0  0  0  0  0  0
  147.8025  136.6498  161.9266 C   0  0  0  0  0  0  0  0  0  0  0  0
  146.4487  137.2271  162.3660 C   0  0  0  0  0  0  0  0  0  0  0  0
  147.9361  136.2540  159.1447 S   0  0  0  0  0  0  0  0  0  0  0  0
  147.6244  135.0880  158.3036 O   0  0  0  0  0  0  0  0  0  0  0  0
  147.1026  137.4568  158.9712 O   0  0  0  0  0  0  0  0  0  0  0  0
  149.5405  136.5328  159.2128 N   0  5  0  0  0  0  0  0  0  0  0  0
  150.0941  137.8795  159.1933 C   0  0  0  0  0  0  0  0  0  0  0  0
  150.9280  138.1255  157.9284 C   0  0  0  0  0  0  0  0  0  0  0  0
  150.9452  137.1114  156.9394 C   0  0  0  0  0  0  0  0  0  0  0  0
  151.6951  137.2931  155.7639 C   0  0  0  0  0  0  0  0  0  0  0  0
  152.4120  138.4903  155.6121 C   0  0  0  0  0  0  0  0  0  0  0  0
  152.4139  139.4696  156.5370 N   0  0  0  0  0  0  0  0  0  0  0  0
  151.6970  139.3087  157.6790 C   0  0  0  0  0  0  0  0  0  0  0  0
  151.7628  140.3893  158.5859 N   0  0  0  0  0  0  0  0  0  0  0  0
  153.0639  140.5449  159.2272 C   0  0  0  0  0  0  0  0  0  0  0  0
  153.0163  141.6794  160.2657 C   0  0  0  0  0  0  0  0  0  0  0  0
  152.5615  142.8790  159.6465 O   0  0  0  0  0  0  0  0  0  0  0  0
  151.2506  142.7364  159.1071 C   0  0  0  0  0  0  0  0  0  0  0  0
  151.2522  141.6372  158.0313 C   0  0  0  0  0  0  0  0  0  0  0  0
  146.3669  132.9248  162.3117 H   0  0  0  0  0  0  0  0  0  0  0  0
  145.5263  134.4091  161.8823 H   0  0  0  0  0  0  0  0  0  0  0  0
  146.7671  134.4251  163.1310 H   0  0  0  0  0  0  0  0  0  0  0  0
  148.5299  133.9068  161.4500 H   0  0  0  0  0  0  0  0  0  0  0  0
  147.3430  133.7194  160.1932 H   0  0  0  0  0  0  0  0  0  0  0  0
  148.2672  136.1433  162.7721 H   0  0  0  0  0  0  0  0  0  0  0  0
  148.4766  137.4603  161.6494 H   0  0  0  0  0  0  0  0  0  0  0  0
  146.5655  137.8395  163.2600 H   0  0  0  0  0  0  0  0  0  0  0  0
  145.7403  136.4358  162.6016 H   0  0  0  0  0  0  0  0  0  0  0  0
  146.0039  137.8575  161.5966 H   0  0  0  0  0  0  0  0  0  0  0  0
  149.3099  138.6366  159.2251 H   0  0  0  0  0  0  0  0  0  0  0  0
  150.7137  138.0794  160.0671 H   0  0  0  0  0  0  0  0  0  0  0  0
  150.3936  136.1885  157.0613 H   0  0  0  0  0  0  0  0  0  0  0  0
  151.7200  136.5309  154.9996 H   0  0  0  0  0  0  0  0  0  0  0  0
  152.9997  138.6678  154.7239 H   0  0  0  0  0  0  0  0  0  0  0  0
  153.3495  139.6082  159.7074 H   0  0  0  0  0  0  0  0  0  0  0  0
  153.8237  140.7693  158.4777 H   0  0  0  0  0  0  0  0  0  0  0  0
  152.3653  141.4224  161.1012 H   0  0  0  0  0  0  0  0  0  0  0  0
  154.0098  141.8483  160.6804 H   0  0  0  0  0  0  0  0  0  0  0  0
  150.5401  142.5052  159.9016 H   0  0  0  0  0  0  0  0  0  0  0  0
  150.9409  143.6864  158.6717 H   0  0  0  0  0  0  0  0  0  0  0  0
  151.8711  141.9479  157.1885 H   0  0  0  0  0  0  0  0  0  0  0  0
  150.2414  141.4836  157.6518 H   0  0  0  0  0  0  0  0  0  0  0  0
  1  2  1  0  0  0  0
  1 23  1  0  0  0  0
  1 24  1  0  0  0  0
  1 25  1  0  0  0  0
  2  3  1  0  0  0  0
  2 26  1  0  0  0  0
  2 27  1  0  0  0  0
  3  4  1  0  0  0  0
  3  6  1  0  0  0  0
  4  5  1  0  0  0  0
  4 28  1  0  0  0  0
  4 29  1  0  0  0  0
  5 30  1  0  0  0  0
  5 31  1  0  0  0  0
  5 32  1  0  0  0  0
  6  7  2  0  0  0  0
  6  8  2  0  0  0  0
  6  9  1  0  0  0  0
  9 10  1  0  0  0  0
 10 11  1  0  0  0  0
 10 33  1  0  0  0  0
 10 34  1  0  0  0  0
 11 16  1  0  0  0  0
 11 12  2  0  0  0  0
 12 13  1  0  0  0  0
 12 35  1  0  0  0  0
 13 14  2  0  0  0  0
 13 36  1  0  0  0  0
 14 15  1  0  0  0  0
 14 37  1  0  0  0  0
 15 16  2  0  0  0  0
 16 17  1  0  0  0  0
 17 22  1  0  0  0  0
 17 18  1  0  0  0  0
 18 19  1  0  0  0  0
 18 38  1  0  0  0  0
 18 39  1  0  0  0  0
 19 20  1  0  0  0  0
 19 40  1  0  0  0  0
 19 41  1  0  0  0  0
 20 21  1  0  0  0  0
 21 22  1  0  0  0  0
 21 42  1  0  0  0  0
 21 43  1  0  0  0  0
 22 44  1  0  0  0  0
 22 45  1  0  0  0  0
M  CHG  1   9  -1
M  END
> <s_m_source_file>
AV-unprocessed.smi

> <i_m_source_file_index>
2107

> <i_lp_mmshare_version>
43012

> <i_f3d_flags>
0

> <s_epik_input>
W0NIM11bQ0gyXU4oW0NIMl1bQ0gzXSlTKD1PKSg9TylbTkhdW0NIMl1jMVtjSF1bY0hdW2NIXW5jMU4yW0NIMl1bQ0gyXU9bQ0gyXVtDSDJdMg==

> <s_epik_cmdline>
J2VwaWtfcHl0aG9uJywgJy1waCcsICc3LjAnLCAnLXRuJywgJzgnLCAnLW1hJywgJzIwMCcsICctbWV0YWxfYmluZGluZycsICctaW1hZScsICc8aW5maWxlLm1hZT4nLCAnLW9tYWUnLCAnPG91dGZpbGUubWFlPic=

> <r_lp_tautomer_probability>
1

> <r_epik_Ionization_Penalty>
2.49252

> <r_epik_Ionization_Penalty_Charging>
2.41478

> <r_epik_Ionization_Penalty_Neutral>
0.0777344

> <r_epik_State_Penalty>
2.68884

> <r_epik_Charging_Adjusted_Penalty>
5.10362

> <i_epik_Tot_Q>
-1

> <i_epik_Tot_abs_Q>
1

> <r_epik_Metal_State_Penalty>
0.584574

> <b_epik_Metal_Only>
0

> <s_lp_Force_Field>
OPLS_2005

> <r_lp_Energy>
22.2252

> <b_lp_Chiralities_Consistent>
1

> <s_lp_Variant>
AV-unprocessed.smi:2107-3

> <Gold.Version>
5.8.1

> <Gold.Id.Protein>
6NUR|6NUR_protein|mol2

> <Gold.PLP.Fitness>
45.4952

> <Gold.PLP.PLP>
-36.2256

> <Gold.PLP.part.hbond>
-3.0000

> <Gold.PLP.part.metal>
0.0000

> <Gold.PLP.part.buried>
-3.3098

> <Gold.PLP.part.nonpolar>
-30.1181

> <Gold.PLP.part.repulsive>
0.0000

> <Gold.PLP.ligand.clash>
0.5713

> <Gold.PLP.ligand.torsion>
2.2683

> <Gold.PLP.Chemscore.Hbond>
3.6864

> <Gold.PLP.Chemscore.CHOScore>
0.0000

> <Gold.PLP.Chemscore.Metal>
0.0000

> <Gold.Chemscore.Hbonds>
donor molecule, donor type, donor heavy atom, donor atom, acceptor molecule, acceptor atom, score
      P1  H  6896  6909       L1     9  1.07
      P1  H  7997  8008       L1    15  0.91

> <Gold.PLP.Chemscore.Internal.Correction>
3.3183

> <Gold.Rescore>
     Score         DG    S(hbond)    S(metal)    S(lipo)     H(rot)  DE(clash)    DE(int)     intcor
     17.25     -19.77       2.35        0.00      91.54       1.66       0.08       2.44       ----

> <Gold.Chemscore.Fitness>
17.2492

> <Gold.Chemscore.DG>
-19.7668

> <Gold.Chemscore.ZeroCoef>
-5.4800

> <Gold.Chemscore.Hbond>
2.3463

> <Gold.Chemscore.Metal>
0.0000

> <Gold.Chemscore.Lipo>
91.5430

> <Gold.Chemscore.Internal_Hbond>
0.0000

> <Gold.Chemscore.DEClash>
0.0807

> <Gold.Chemscore.DEInternal>
2.4369

> <Gold.Chemscore.Rot>
1.6642

> <Gold.Chemscore.Internal.Correction>
   9.000000E+99

> <Gold.Chemscore.Hbonds>
donor molecule, donor type, donor heavy atom, donor atom, acceptor molecule, acceptor atom, score
      P1  H  6896  6909       L1     9  0.45
      P1  H  6934  6947       L1     8  0.01
      P1  H  7997  8008       L1    15  0.19

> <Gold.Chemscore.Hbond.Weighted>
-7.8366

> <Gold.Chemscore.Metal.Weighted>
-0.0000

> <Gold.Chemscore.Lipo.Weighted>
-10.7105

> <Gold.Chemscore.Internal_Hbond.Weighted>
0.0000

> <Gold.Chemscore.DEClash.Weighted>
0.0807

> <Gold.Chemscore.DEInternal.Weighted>
2.4369

> <Gold.Chemscore.Rot.Weighted>
4.2604

> <Gold.Chemscore.Internal.Correction.Weighted>
   9.000000E+99

> <Gold.Protein.RotatedTorsions>
[ 6907 6896 6895 6894 ] final   56.76 input  -60.11 | X-H torsion
[ 7974 7965 7964 7962 ] final  -58.21 input  175.53 | X-H torsion
[ 8008 7997 7996 7995 ] final  -39.06 input   59.86 | X-H torsion
[ 10167 10162 10161 10158 ] final  -40.89 input  -65.29 | X-H torsion
[ 10718 10713 10712 10709 ] final -165.34 input   66.30 | X-H torsion
[ 10763 10752 10751 10750 ] final  153.23 input  -60.55 | X-H torsion
[ 11005 11000 10999 10996 ] final  -32.67 input  -57.11 | X-H torsion

> <Gold.Protein.ActiveResidues>
 VAL166  LYS551  ARG553  GLY616  TRP617  ASP618  TYR619  PRO620  LYS621  CYS622 
 ASP623  PHE694  ASN695  SER759  ASP760  ASP761  ALA762  ILE779  LEU786  VAL792 
 PHE793  MET794  SER795  GLU796  ALA797  LYS798  CYS799  TRP800  GLU811  SER814 

> <Gold.Protein.RotatedAtoms>
  152.3667  134.6793  160.0189 H   0  0  0  0  0  0  0  0  0  0  0  0  # atno 6907 bound_to 6896
  151.7099  133.3306  159.3296 H   0  0  0  0  0  0  0  0  0  0  0  0  # atno 6908 bound_to 6896
  150.7644  134.6476  159.6315 H   0  0  0  0  0  0  0  0  0  0  0  0  # atno 6909 bound_to 6896
  145.8420  140.8411  143.0030 H   0  0  0  0  0  0  0  0  0  0  0  0  # atno 7974 bound_to 7965
  154.4028  140.1561  156.2801 H   0  0  0  0  0  0  0  0  0  0  0  0  # atno 8008 bound_to 7997
  155.8877  140.3440  155.5911 H   0  0  0  0  0  0  0  0  0  0  0  0  # atno 8009 bound_to 7997
  155.7594  140.0815  157.2153 H   0  0  0  0  0  0  0  0  0  0  0  0  # atno 8010 bound_to 7997
  140.7020  143.3126  151.2988 H   0  0  0  0  0  0  0  0  0  0  0  0  # atno 10167 bound_to 10162
  156.6520  130.9011  151.3015 H   0  0  0  0  0  0  0  0  0  0  0  0  # atno 10718 bound_to 10713
  154.1328  135.2825  155.3181 H   0  0  0  0  0  0  0  0  0  0  0  0  # atno 10763 bound_to 10752
  154.6343  135.5424  153.7720 H   0  0  0  0  0  0  0  0  0  0  0  0  # atno 10764 bound_to 10752
  153.0276  135.6470  154.1477 H   0  0  0  0  0  0  0  0  0  0  0  0  # atno 10765 bound_to 10752
  140.9571  133.7186  156.1310 H   0  0  0  0  0  0  0  0  0  0  0  0  # atno 11005 bound_to 11000
  144.6733  140.0826  143.7468 LP  0  0  0  0  0  0  0  0  0  0  0  0  # atno 17320 bound_to 7965
  145.9455  139.2697  143.1243 LP  0  0  0  0  0  0  0  0  0  0  0  0  # atno 17321 bound_to 7965
  139.6555  144.0285  152.2656 LP  0  0  0  0  0  0  0  0  0  0  0  0  # atno 17342 bound_to 10162
  139.9835  144.6412  150.7879 LP  0  0  0  0  0  0  0  0  0  0  0  0  # atno 17343 bound_to 10162
  157.7137  130.9472  150.1180 LP  0  0  0  0  0  0  0  0  0  0  0  0  # atno 17370 bound_to 10713
  156.2077  130.3664  149.8709 LP  0  0  0  0  0  0  0  0  0  0  0  0  # atno 17371 bound_to 10713
  140.7520  134.4034  157.5540 LP  0  0  0  0  0  0  0  0  0  0  0  0  # atno 17394 bound_to 11000
  139.8866  134.8906  156.2577 LP  0  0  0  0  0  0  0  0  0  0  0  0  # atno 17395 bound_to 11000

$$$$
