AV-unprocessed.smi:654|AV-procd|sdf|3213|dock8
  -GOLD-   22720 0153D 1   1.00000     0.00000
 Structure written by MMmdl.
 48 50  0  0  0  0  0  0  0  0  2 V2000
  146.3766  137.5873  155.6098 O   0  0  0  0  0  0  0  0  0  0  0  0
  146.0580  138.6039  154.9920 C   0  0  0  0  0  0  0  0  0  0  0  0
  145.1178  138.5871  154.0321 N   0  0  0  0  0  0  0  0  0  0  0  0
  144.3594  137.4134  153.6089 C   0  0  0  0  0  0  0  0  0  0  0  0
  144.5514  137.0767  152.1164 C   0  0  0  0  0  0  0  0  0  0  0  0
  144.2185  135.6355  151.7701 C   0  0  0  0  0  0  0  0  0  0  0  0
  144.5411  135.1081  150.5005 C   0  0  0  0  0  0  0  0  0  0  0  0
  144.2117  133.7690  150.2038 C   0  0  0  0  0  0  0  0  0  0  0  0
  143.5677  132.9870  151.1846 C   0  0  0  0  0  0  0  0  0  0  0  0
  143.2757  133.5256  152.3888 N   0  3  0  0  0  0  0  0  0  0  0  0
  143.5747  134.8028  152.7116 C   0  0  0  0  0  0  0  0  0  0  0  0
  146.6230  139.8184  155.2147 N   0  0  0  0  0  0  0  0  0  0  0  0
  146.3567  141.0515  154.4576 C   0  0  0  0  0  0  0  0  0  0  0  0
  147.5353  141.3197  153.5135 C   0  0  0  0  0  0  0  0  0  0  0  0
  149.0657  141.6015  154.4554 S   0  0  0  0  0  0  0  0  0  0  0  0
  149.0764  140.1575  155.5858 C   0  0  0  0  0  0  0  0  0  0  0  0
  149.4769  138.8670  154.8204 C   0  0  0  0  0  0  0  0  0  0  0  0
  150.9397  138.8688  154.3406 C   0  0  0  0  0  0  0  0  0  0  0  0
  151.9095  139.1102  155.5043 C   0  0  0  0  0  0  0  0  0  0  0  0
  151.5640  140.4105  156.2411 C   0  0  0  0  0  0  0  0  0  0  0  0
  150.1011  140.4076  156.7208 C   0  0  0  0  0  0  0  0  0  0  0  0
  147.6687  140.0203  156.2286 C   0  0  0  0  0  0  0  0  0  0  0  0
  144.9154  139.4550  153.5577 H   0  0  0  0  0  0  0  0  0  0  0  0
  144.7006  136.5745  154.2158 H   0  0  0  0  0  0  0  0  0  0  0  0
  143.3006  137.5463  153.8367 H   0  0  0  0  0  0  0  0  0  0  0  0
  143.9329  137.7384  151.5088 H   0  0  0  0  0  0  0  0  0  0  0  0
  145.5820  137.2804  151.8234 H   0  0  0  0  0  0  0  0  0  0  0  0
  145.0326  135.7229  149.7604 H   0  0  0  0  0  0  0  0  0  0  0  0
  144.4495  133.3481  149.2376 H   0  0  0  0  0  0  0  0  0  0  0  0
  143.2797  131.9554  151.0435 H   0  0  0  0  0  0  0  0  0  0  0  0
  143.2866  135.1192  153.7039 H   0  0  0  0  0  0  0  0  0  0  0  0
  145.4263  141.0206  153.8904 H   0  0  0  0  0  0  0  0  0  0  0  0
  146.2344  141.8893  155.1456 H   0  0  0  0  0  0  0  0  0  0  0  0
  147.6782  140.4831  152.8289 H   0  0  0  0  0  0  0  0  0  0  0  0
  147.3383  142.1999  152.9017 H   0  0  0  0  0  0  0  0  0  0  0  0
  149.3277  138.0048  155.4718 H   0  0  0  0  0  0  0  0  0  0  0  0
  148.8262  138.7059  153.9614 H   0  0  0  0  0  0  0  0  0  0  0  0
  151.1706  137.9171  153.8613 H   0  0  0  0  0  0  0  0  0  0  0  0
  151.0820  139.6354  153.5785 H   0  0  0  0  0  0  0  0  0  0  0  0
  151.8638  138.2711  156.2000 H   0  0  0  0  0  0  0  0  0  0  0  0
  152.9343  139.1514  155.1343 H   0  0  0  0  0  0  0  0  0  0  0  0
  152.2304  140.5380  157.0945 H   0  0  0  0  0  0  0  0  0  0  0  0
  151.7435  141.2633  155.5859 H   0  0  0  0  0  0  0  0  0  0  0  0
  149.8821  141.3516  157.2211 H   0  0  0  0  0  0  0  0  0  0  0  0
  149.9928  139.6340  157.4824 H   0  0  0  0  0  0  0  0  0  0  0  0
  147.4363  140.9158  156.8071 H   0  0  0  0  0  0  0  0  0  0  0  0
  147.6743  139.2129  156.9629 H   0  0  0  0  0  0  0  0  0  0  0  0
  142.8096  132.9428  153.0848 H   0  0  0  0  0  0  0  0  0  0  0  0
  1  2  2  0  0  0  0
  2  3  1  0  0  0  0
  2 12  1  0  0  0  0
  3  4  1  0  0  0  0
  3 23  1  0  0  0  0
  4  5  1  0  0  0  0
  4 24  1  0  0  0  0
  4 25  1  0  0  0  0
  5  6  1  0  0  0  0
  5 26  1  0  0  0  0
  5 27  1  0  0  0  0
  6 11  1  0  0  0  0
  6  7  2  0  0  0  0
  7  8  1  0  0  0  0
  7 28  1  0  0  0  0
  8  9  2  0  0  0  0
  8 29  1  0  0  0  0
  9 10  1  0  0  0  0
  9 30  1  0  0  0  0
 10 11  2  0  0  0  0
 10 48  1  0  0  0  0
 11 31  1  0  0  0  0
 12 22  1  0  0  0  0
 12 13  1  0  0  0  0
 13 14  1  0  0  0  0
 13 32  1  0  0  0  0
 13 33  1  0  0  0  0
 14 15  1  0  0  0  0
 14 34  1  0  0  0  0
 14 35  1  0  0  0  0
 15 16  1  0  0  0  0
 16 21  1  0  0  0  0
 16 17  1  0  0  0  0
 16 22  1  0  0  0  0
 17 18  1  0  0  0  0
 17 36  1  0  0  0  0
 17 37  1  0  0  0  0
 18 19  1  0  0  0  0
 18 38  1  0  0  0  0
 18 39  1  0  0  0  0
 19 20  1  0  0  0  0
 19 40  1  0  0  0  0
 19 41  1  0  0  0  0
 20 21  1  0  0  0  0
 20 42  1  0  0  0  0
 20 43  1  0  0  0  0
 21 44  1  0  0  0  0
 21 45  1  0  0  0  0
 22 46  1  0  0  0  0
 22 47  1  0  0  0  0
M  CHG  1  10   1
M  END
> <s_m_source_file>
AV-unprocessed.smi

> <i_m_source_file_index>
654

> <i_lp_mmshare_version>
43012

> <i_f3d_flags>
0

> <s_epik_input>
W2NIXTFuW2NIXVtjSF1bY0hdYzFbQ0gyXVtDSDJdW05IXUMoPU8pTihbQ0gyXTIpW0NIMl1bQ0gyXVNDMjNbQ0gyXVtDSDJdW0NIMl1bQ0gyXVtDSDJdMw==

> <s_epik_cmdline>
J2VwaWtfcHl0aG9uJywgJy1waCcsICc3LjAnLCAnLXRuJywgJzgnLCAnLW1hJywgJzIwMCcsICctbWV0YWxfYmluZGluZycsICctaW1hZScsICc8aW5maWxlLm1hZT4nLCAnLW9tYWUnLCAnPG91dGZpbGUubWFlPic=

> <r_epik_Ionization_Penalty>
2.2093

> <r_epik_Ionization_Penalty_Charging>
2.20925

> <r_epik_Ionization_Penalty_Neutral>
4.66963e-05

> <r_epik_State_Penalty>
2.35335

> <r_epik_Charging_Adjusted_Penalty>
4.5626

> <i_epik_Tot_Q>
1

> <i_epik_Tot_abs_Q>
1

> <r_epik_Metal_State_Penalty>
2.36748

> <b_epik_Metal_Only>
0

> <s_lp_Force_Field>
OPLS_2005

> <r_lp_Energy>
39.5462

> <b_lp_Chiralities_Consistent>
1

> <s_lp_Variant>
AV-unprocessed.smi:654-2

> <Gold.Version>
5.8.1

> <Gold.Id.Protein>
6NUR|6NUR_protein|mol2

> <Gold.PLP.Fitness>
43.5111

> <Gold.PLP.PLP>
-34.9923

> <Gold.PLP.part.hbond>
-2.0000

> <Gold.PLP.part.metal>
0.0000

> <Gold.PLP.part.buried>
-2.3967

> <Gold.PLP.part.nonpolar>
-30.5379

> <Gold.PLP.part.repulsive>
0.0108

> <Gold.PLP.ligand.clash>
0.0000

> <Gold.PLP.ligand.torsion>
0.2075

> <Gold.PLP.Chemscore.Hbond>
2.9760

> <Gold.PLP.Chemscore.CHOScore>
0.0000

> <Gold.PLP.Chemscore.Metal>
0.0000

> <Gold.Chemscore.Hbonds>
donor molecule, donor type, donor heavy atom, donor atom, acceptor molecule, acceptor atom, score
      L1  H     3    23       P1 10175  0.94
      L1  H    10    48       P1 10957  1.89

> <Gold.PLP.Chemscore.Internal.Correction>
0.0058

> <Gold.Rescore>
     Score         DG    S(hbond)    S(metal)    S(lipo)     H(rot)  DE(clash)    DE(int)     intcor
     18.64     -19.02       1.72        0.00      94.87       1.30       0.12       0.25       ----

> <Gold.Chemscore.Fitness>
18.6448

> <Gold.Chemscore.DG>
-19.0178

> <Gold.Chemscore.ZeroCoef>
-5.4800

> <Gold.Chemscore.Hbond>
1.7228

> <Gold.Chemscore.Metal>
0.0000

> <Gold.Chemscore.Lipo>
94.8663

> <Gold.Chemscore.Internal_Hbond>
0.0000

> <Gold.Chemscore.DEClash>
0.1223

> <Gold.Chemscore.DEInternal>
0.2507

> <Gold.Chemscore.Rot>
1.2953

> <Gold.Chemscore.Internal.Correction>
   9.000000E+99

> <Gold.Chemscore.Hbonds>
donor molecule, donor type, donor heavy atom, donor atom, acceptor molecule, acceptor atom, score
      L1  H     3    23       P1 10175  0.90
      L1  H    10    48       P1 10957  0.49

> <Gold.Chemscore.Hbond.Weighted>
-5.7543

> <Gold.Chemscore.Metal.Weighted>
-0.0000

> <Gold.Chemscore.Lipo.Weighted>
-11.0994

> <Gold.Chemscore.Internal_Hbond.Weighted>
0.0000

> <Gold.Chemscore.DEClash.Weighted>
0.1223

> <Gold.Chemscore.DEInternal.Weighted>
0.2507

> <Gold.Chemscore.Rot.Weighted>
3.3159

> <Gold.Chemscore.Internal.Correction.Weighted>
   9.000000E+99

> <Gold.Protein.RotatedTorsions>
[ 6907 6896 6895 6894 ] final   48.21 input  -60.11 | X-H torsion
[ 7974 7965 7964 7962 ] final  -62.63 input  175.53 | X-H torsion
[ 8008 7997 7996 7995 ] final  -58.87 input   59.86 | X-H torsion
[ 10167 10162 10161 10158 ] final  -92.02 input  -65.29 | X-H torsion
[ 10718 10713 10712 10709 ] final -116.94 input   66.30 | X-H torsion
[ 10763 10752 10751 10750 ] final  -51.60 input  -60.55 | X-H torsion
[ 11005 11000 10999 10996 ] final  -48.07 input  -57.11 | X-H torsion

> <Gold.Protein.ActiveResidues>
 VAL166  LYS551  ARG553  GLY616  TRP617  ASP618  TYR619  PRO620  LYS621  CYS622 
 ASP623  PHE694  ASN695  SER759  ASP760  ASP761  ALA762  ILE779  LEU786  VAL792 
 PHE793  MET794  SER795  GLU796  ALA797  LYS798  CYS799  TRP800  GLU811  SER814 

> <Gold.Protein.RotatedAtoms>
  152.2769  134.7871  160.0403 H   0  0  0  0  0  0  0  0  0  0  0  0  # atno 6907 bound_to 6896
  151.8464  133.3427  159.3667 H   0  0  0  0  0  0  0  0  0  0  0  0  # atno 6908 bound_to 6896
  150.7174  134.5270  159.5725 H   0  0  0  0  0  0  0  0  0  0  0  0  # atno 6909 bound_to 6896
  145.7889  140.8720  143.0291 H   0  0  0  0  0  0  0  0  0  0  0  0  # atno 7974 bound_to 7965
  154.4327  140.1074  156.6026 H   0  0  0  0  0  0  0  0  0  0  0  0  # atno 8008 bound_to 7997
  155.5895  140.3492  155.4544 H   0  0  0  0  0  0  0  0  0  0  0  0  # atno 8009 bound_to 7997
  156.0257  140.1249  157.0300 H   0  0  0  0  0  0  0  0  0  0  0  0  # atno 8010 bound_to 7997
  140.3390  143.2952  151.9856 H   0  0  0  0  0  0  0  0  0  0  0  0  # atno 10167 bound_to 10162
  156.0999  130.6163  150.9101 H   0  0  0  0  0  0  0  0  0  0  0  0  # atno 10718 bound_to 10713
  154.1292  135.6522  153.4918 H   0  0  0  0  0  0  0  0  0  0  0  0  # atno 10763 bound_to 10752
  153.0200  135.5289  154.7018 H   0  0  0  0  0  0  0  0  0  0  0  0  # atno 10764 bound_to 10752
  154.6248  135.2969  155.0255 H   0  0  0  0  0  0  0  0  0  0  0  0  # atno 10765 bound_to 10752
  141.0679  133.6688  156.3389 H   0  0  0  0  0  0  0  0  0  0  0  0  # atno 11005 bound_to 11000
  144.6785  140.0096  143.7484 LP  0  0  0  0  0  0  0  0  0  0  0  0  # atno 17320 bound_to 7965
  145.9997  139.3081  143.0935 LP  0  0  0  0  0  0  0  0  0  0  0  0  # atno 17321 bound_to 7965
  139.4843  144.6172  151.7324 LP  0  0  0  0  0  0  0  0  0  0  0  0  # atno 17342 bound_to 10162
  140.5326  144.0706  150.6059 LP  0  0  0  0  0  0  0  0  0  0  0  0  # atno 17343 bound_to 10162
  157.6167  131.0933  150.8697 LP  0  0  0  0  0  0  0  0  0  0  0  0  # atno 17370 bound_to 10713
  156.8827  130.5185  149.5290 LP  0  0  0  0  0  0  0  0  0  0  0  0  # atno 17371 bound_to 10713
  140.5735  134.5816  157.5463 LP  0  0  0  0  0  0  0  0  0  0  0  0  # atno 17394 bound_to 11000
  139.9494  134.7644  156.0484 LP  0  0  0  0  0  0  0  0  0  0  0  0  # atno 17395 bound_to 11000

$$$$
