AV-unprocessed.smi:1911|AV-procd|sdf|7743|dock9
  -GOLD-   22720 9483D 1   1.00000     0.00000
 Structure written by MMmdl.
 53 55  0  0  0  0  0  0  0  0  3 V2000
  143.9836  133.8296  148.8896 N   0  0  0  0  0  0  0  0  0  0  0  0
  144.2788  132.8614  149.7600 C   0  0  0  0  0  0  0  0  0  0  0  0
  143.6747  131.7904  149.7787 O   0  0  0  0  0  0  0  0  0  0  0  0
  145.4296  133.1349  150.7339 C   0  0  0  0  0  0  0  0  0  0  0  0
  145.1604  134.2740  151.6492 N   0  3  2  0  0  0  0  0  0  0  0  0
  145.5328  135.5910  151.0666 C   0  0  0  0  0  0  0  0  0  0  0  0
  145.1070  136.7462  151.9893 C   0  0  0  0  0  0  0  0  0  0  0  0
  145.6909  136.5972  153.4084 C   0  0  2  0  0  0  0  0  0  0  0  0
  147.1356  136.8263  153.4317 N   0  0  0  0  0  0  0  0  0  0  0  0
  147.8064  137.4451  154.4144 C   0  0  0  0  0  0  0  0  0  0  0  0
  147.2640  137.9137  155.4145 O   0  0  0  0  0  0  0  0  0  0  0  0
  149.1225  137.4991  154.1471 N   0  0  0  0  0  0  0  0  0  0  0  0
  150.1608  138.0652  154.9350 C   0  0  0  0  0  0  0  0  0  0  0  0
  151.3719  138.5747  154.4036 C   0  0  0  0  0  0  0  0  0  0  0  0
  152.3307  139.1340  155.2733 C   0  0  0  0  0  0  0  0  0  0  0  0
  152.0704  139.1777  156.6630 C   0  0  0  0  0  0  0  0  0  0  0  0
  152.9471  139.7313  157.6087 N   0  0  0  0  0  0  0  0  0  0  0  0
  152.4537  140.8690  158.3826 C   0  0  0  0  0  0  0  0  0  0  0  0
  152.9441  140.6604  159.8165 C   0  0  0  0  0  0  0  0  0  0  0  0
  153.0597  139.1453  159.9234 C   0  0  0  0  0  0  0  0  0  0  0  0
  153.5127  138.7434  158.5204 C   0  0  0  0  0  0  0  0  0  0  0  0
  150.8925  138.7030  157.1237 N   0  3  0  0  0  0  0  0  0  0  0  0
  149.9471  138.1616  156.3259 C   0  0  0  0  0  0  0  0  0  0  0  0
  145.3576  135.2004  153.9608 C   0  0  0  0  0  0  0  0  0  0  0  0
  145.7693  134.0782  152.9898 C   0  0  0  0  0  0  0  0  0  0  0  0
  143.2348  133.6941  148.2250 H   0  0  0  0  0  0  0  0  0  0  0  0
  144.5076  134.6929  148.8915 H   0  0  0  0  0  0  0  0  0  0  0  0
  145.5677  132.2222  151.3150 H   0  0  0  0  0  0  0  0  0  0  0  0
  146.3609  133.3036  150.1903 H   0  0  0  0  0  0  0  0  0  0  0  0
  146.6094  135.6240  150.8927 H   0  0  0  0  0  0  0  0  0  0  0  0
  145.0558  135.7199  150.0946 H   0  0  0  0  0  0  0  0  0  0  0  0
  145.3968  137.7016  151.5506 H   0  0  0  0  0  0  0  0  0  0  0  0
  144.0182  136.7652  152.0529 H   0  0  0  0  0  0  0  0  0  0  0  0
  145.2239  137.3377  154.0604 H   0  0  0  0  0  0  0  0  0  0  0  0
  147.6652  136.4719  152.6486 H   0  0  0  0  0  0  0  0  0  0  0  0
  149.4083  137.1422  153.2471 H   0  0  0  0  0  0  0  0  0  0  0  0
  151.5788  138.5657  153.3448 H   0  0  0  0  0  0  0  0  0  0  0  0
  153.2466  139.5363  154.8658 H   0  0  0  0  0  0  0  0  0  0  0  0
  152.8379  141.8024  157.9704 H   0  0  0  0  0  0  0  0  0  0  0  0
  151.3662  140.9346  158.3657 H   0  0  0  0  0  0  0  0  0  0  0  0
  153.9281  141.1146  159.9425 H   0  0  0  0  0  0  0  0  0  0  0  0
  152.2750  141.0922  160.5612 H   0  0  0  0  0  0  0  0  0  0  0  0
  153.7511  138.8218  160.7019 H   0  0  0  0  0  0  0  0  0  0  0  0
  152.0812  138.7131  160.1368 H   0  0  0  0  0  0  0  0  0  0  0  0
  153.2136  137.7213  158.2822 H   0  0  0  0  0  0  0  0  0  0  0  0
  154.5992  138.7936  158.4439 H   0  0  0  0  0  0  0  0  0  0  0  0
  149.0528  137.8193  156.8265 H   0  0  0  0  0  0  0  0  0  0  0  0
  145.8353  135.0518  154.9301 H   0  0  0  0  0  0  0  0  0  0  0  0
  144.2835  135.1356  154.1409 H   0  0  0  0  0  0  0  0  0  0  0  0
  145.4505  133.1199  153.4016 H   0  0  0  0  0  0  0  0  0  0  0  0
  146.8553  134.0350  152.8947 H   0  0  0  0  0  0  0  0  0  0  0  0
  144.1599  134.2868  151.7907 H   0  0  0  0  0  0  0  0  0  0  0  0
  150.7085  138.7548  158.1260 H   0  0  0  0  0  0  0  0  0  0  0  0
  1  2  1  0  0  0  0
  1 26  1  0  0  0  0
  1 27  1  0  0  0  0
  2  3  2  0  0  0  0
  2  4  1  0  0  0  0
  4  5  1  0  0  0  0
  4 28  1  0  0  0  0
  4 29  1  0  0  0  0
  5 25  1  0  0  0  0
  5  6  1  0  0  0  0
  5 52  1  0  0  0  0
  6  7  1  0  0  0  0
  6 30  1  0  0  0  0
  6 31  1  0  0  0  0
  7  8  1  0  0  0  0
  7 32  1  0  0  0  0
  7 33  1  0  0  0  0
  8  9  1  0  0  0  0
  8 24  1  0  0  0  0
  8 34  1  0  0  0  0
  9 10  1  0  0  0  0
  9 35  1  0  0  0  0
 10 11  2  0  0  0  0
 10 12  1  0  0  0  0
 12 13  1  0  0  0  0
 12 36  1  0  0  0  0
 13 23  1  0  0  0  0
 13 14  2  0  0  0  0
 14 15  1  0  0  0  0
 14 37  1  0  0  0  0
 15 16  2  0  0  0  0
 15 38  1  0  0  0  0
 16 17  1  0  0  0  0
 16 22  1  0  0  0  0
 17 21  1  0  0  0  0
 17 18  1  0  0  0  0
 18 19  1  0  0  0  0
 18 39  1  0  0  0  0
 18 40  1  0  0  0  0
 19 20  1  0  0  0  0
 19 41  1  0  0  0  0
 19 42  1  0  0  0  0
 20 21  1  0  0  0  0
 20 43  1  0  0  0  0
 20 44  1  0  0  0  0
 21 45  1  0  0  0  0
 21 46  1  0  0  0  0
 22 23  2  0  0  0  0
 22 53  1  0  0  0  0
 23 47  1  0  0  0  0
 24 25  1  0  0  0  0
 24 48  1  0  0  0  0
 24 49  1  0  0  0  0
 25 50  1  0  0  0  0
 25 51  1  0  0  0  0
M  CHG  1   5   1
M  CHG  1  22   1
M  END
> <s_m_source_file>
AV-unprocessed.smi

> <i_m_source_file_index>
1911

> <i_lp_mmshare_version>
43012

> <i_f3d_flags>
0

> <s_epik_input>
W05IMl1DKD1PKVtDSDJdTjFbQ0gyXVtDSDJdW0NIXShbQ0gyXVtDSDJdMSlbTkhdQyg9TylbTkhdYzJbY0hdW2NIXWMobltjSF0yKU4zW0NIMl1bQ0gyXVtDSDJdW0NIMl0z

> <s_epik_cmdline>
J2VwaWtfcHl0aG9uJywgJy1waCcsICc3LjAnLCAnLXRuJywgJzgnLCAnLW1hJywgJzIwMCcsICctbWV0YWxfYmluZGluZycsICctaW1hZScsICc8aW5maWxlLm1hZT4nLCAnLW9tYWUnLCAnPG91dGZpbGUubWFlPic=

> <r_lp_tautomer_probability>
0.999994

> <r_epik_Ionization_Penalty>
2.11361

> <r_epik_Ionization_Penalty_Charging>
2.11355

> <r_epik_Ionization_Penalty_Neutral>
5.99226e-05

> <r_epik_State_Penalty>
2.13444

> <r_epik_Charging_Adjusted_Penalty>
4.24799

> <i_epik_Tot_Q>
2

> <i_epik_Tot_abs_Q>
2

> <r_epik_Metal_State_Penalty>
2.23538

> <b_epik_Metal_Only>
0

> <s_lp_Force_Field>
OPLS_2005

> <r_lp_Energy>
50.1523

> <b_lp_Chiralities_Consistent>
1

> <s_lp_Variant>
AV-unprocessed.smi:1911-6

> <Gold.Version>
5.8.1

> <Gold.Id.Protein>
6NUR|6NUR_protein|mol2

> <Gold.PLP.Fitness>
45.4834

> <Gold.PLP.PLP>
-34.6188

> <Gold.PLP.part.hbond>
-5.5319

> <Gold.PLP.part.metal>
0.0000

> <Gold.PLP.part.buried>
-5.2794

> <Gold.PLP.part.nonpolar>
-24.6175

> <Gold.PLP.part.repulsive>
0.4093

> <Gold.PLP.ligand.clash>
0.0000

> <Gold.PLP.ligand.torsion>
0.9247

> <Gold.PLP.Chemscore.Hbond>
4.1963

> <Gold.PLP.Chemscore.CHOScore>
0.0000

> <Gold.PLP.Chemscore.Metal>
0.0000

> <Gold.Chemscore.Hbonds>
donor molecule, donor type, donor heavy atom, donor atom, acceptor molecule, acceptor atom, score
      L1  H     1    27       P1  7921  0.33
      L1  H     9    35       P1  7948  0.99
      L1  H    12    36       P1  7948  0.96
      P1  H  7997  8010       L1    17  1.00
      P1  H 10785 10796       L1     3  0.93

> <Gold.PLP.Chemscore.Internal.Correction>
0.1252

> <Gold.Rescore>
     Score         DG    S(hbond)    S(metal)    S(lipo)     H(rot)  DE(clash)    DE(int)     intcor
     16.52     -19.10       3.09        0.00      76.90       2.22       0.27       2.31       ----

> <Gold.Chemscore.Fitness>
16.5167

> <Gold.Chemscore.DG>
-19.0965

> <Gold.Chemscore.ZeroCoef>
-5.4800

> <Gold.Chemscore.Hbond>
3.0852

> <Gold.Chemscore.Metal>
0.0000

> <Gold.Chemscore.Lipo>
76.8962

> <Gold.Chemscore.Internal_Hbond>
0.0000

> <Gold.Chemscore.DEClash>
0.2691

> <Gold.Chemscore.DEInternal>
2.3107

> <Gold.Chemscore.Rot>
2.2207

> <Gold.Chemscore.Internal.Correction>
   9.000000E+99

> <Gold.Chemscore.Hbonds>
donor molecule, donor type, donor heavy atom, donor atom, acceptor molecule, acceptor atom, score
      L1  H     1    27       P1  7921  0.31
      L1  H     9    35       P1  7948  0.91
      L1  H    12    36       P1  7948  0.85
      P1  H  7997  8010       L1    17  0.09
      P1  H 10785 10796       L1     3  0.86

> <Gold.Chemscore.Hbond.Weighted>
-10.3045

> <Gold.Chemscore.Metal.Weighted>
-0.0000

> <Gold.Chemscore.Lipo.Weighted>
-8.9969

> <Gold.Chemscore.Internal_Hbond.Weighted>
0.0000

> <Gold.Chemscore.DEClash.Weighted>
0.2691

> <Gold.Chemscore.DEInternal.Weighted>
2.3107

> <Gold.Chemscore.Rot.Weighted>
5.6849

> <Gold.Chemscore.Internal.Correction.Weighted>
   9.000000E+99

> <Gold.Protein.RotatedTorsions>
[ 6907 6896 6895 6894 ] final -165.18 input  -60.11 | X-H torsion
[ 7974 7965 7964 7962 ] final  -72.67 input  175.53 | X-H torsion
[ 8008 7997 7996 7995 ] final   61.12 input   59.86 | X-H torsion
[ 10167 10162 10161 10158 ] final  158.79 input  -65.29 | X-H torsion
[ 10718 10713 10712 10709 ] final  -79.75 input   66.30 | X-H torsion
[ 10763 10752 10751 10750 ] final  113.20 input  -60.55 | X-H torsion
[ 11005 11000 10999 10996 ] final   32.94 input  -57.11 | X-H torsion

> <Gold.Protein.ActiveResidues>
 VAL166  LYS551  ARG553  GLY616  TRP617  ASP618  TYR619  PRO620  LYS621  CYS622 
 ASP623  PHE694  ASN695  SER759  ASP760  ASP761  ALA762  ILE779  LEU786  VAL792 
 PHE793  MET794  SER795  GLU796  ALA797  LYS798  CYS799  TRP800  GLU811  SER814 

> <Gold.Protein.RotatedAtoms>
  151.4235  133.3691  159.2759 H   0  0  0  0  0  0  0  0  0  0  0  0  # atno 6907 bound_to 6896
  150.9276  134.8694  159.7541 H   0  0  0  0  0  0  0  0  0  0  0  0  # atno 6908 bound_to 6896
  152.5012  134.4178  159.9522 H   0  0  0  0  0  0  0  0  0  0  0  0  # atno 6909 bound_to 6896
  145.6621  140.9249  143.0928 H   0  0  0  0  0  0  0  0  0  0  0  0  # atno 7974 bound_to 7965
  155.5933  140.3493  155.4572 H   0  0  0  0  0  0  0  0  0  0  0  0  # atno 8008 bound_to 7997
  156.0285  140.1269  157.0308 H   0  0  0  0  0  0  0  0  0  0  0  0  # atno 8009 bound_to 7997
  154.4342  140.1048  156.6051 H   0  0  0  0  0  0  0  0  0  0  0  0  # atno 8010 bound_to 7997
  139.4828  144.4791  151.8469 H   0  0  0  0  0  0  0  0  0  0  0  0  # atno 10167 bound_to 10162
  156.0085  130.4554  150.3696 H   0  0  0  0  0  0  0  0  0  0  0  0  # atno 10718 bound_to 10713
  153.4890  135.3663  155.2482 H   0  0  0  0  0  0  0  0  0  0  0  0  # atno 10763 bound_to 10752
  154.8753  135.3972  154.3611 H   0  0  0  0  0  0  0  0  0  0  0  0  # atno 10764 bound_to 10752
  153.4227  135.7080  153.6349 H   0  0  0  0  0  0  0  0  0  0  0  0  # atno 10765 bound_to 10752
  140.2683  134.3112  155.7836 H   0  0  0  0  0  0  0  0  0  0  0  0  # atno 11005 bound_to 11000
  144.7085  139.8463  143.7422 LP  0  0  0  0  0  0  0  0  0  0  0  0  # atno 17320 bound_to 7965
  146.1116  139.4122  143.0284 LP  0  0  0  0  0  0  0  0  0  0  0  0  # atno 17321 bound_to 7965
  140.4266  144.2172  150.5887 LP  0  0  0  0  0  0  0  0  0  0  0  0  # atno 17342 bound_to 10162
  140.4821  143.2375  151.8940 LP  0  0  0  0  0  0  0  0  0  0  0  0  # atno 17343 bound_to 10162
  157.1781  131.0385  151.2762 LP  0  0  0  0  0  0  0  0  0  0  0  0  # atno 17370 bound_to 10713
  157.4170  130.7416  149.6883 LP  0  0  0  0  0  0  0  0  0  0  0  0  # atno 17371 bound_to 10713
  141.2181  133.7451  156.9294 LP  0  0  0  0  0  0  0  0  0  0  0  0  # atno 17394 bound_to 11000
  140.1398  134.9301  157.2451 LP  0  0  0  0  0  0  0  0  0  0  0  0  # atno 17395 bound_to 11000

$$$$
