AV-unprocessed.smi:1803|AV-procd|sdf|7292|dock9
  -GOLD-   22720 8553D 1   1.00000     0.00000
 Structure written by MMmdl.
 35 37  0  0  0  0  0  0  0  0  3 V2000
  147.7305  133.4071  155.7073 O   0  0  0  0  0  0  0  0  0  0  0  0
  148.1601  134.3872  155.1001 C   0  0  0  0  0  0  0  0  0  0  0  0
  148.1798  135.6412  155.6219 N   0  5  0  0  0  0  0  0  0  0  0  0
  148.4146  135.8808  156.9257 C   0  0  0  0  0  0  0  0  0  0  0  0
  148.7867  134.9148  157.7812 N   0  0  0  0  0  0  0  0  0  0  0  0
  148.9680  135.3753  159.0782 N   0  0  0  0  0  0  0  0  0  0  0  0
  148.7380  136.6851  159.1659 C   0  0  0  0  0  0  0  0  0  0  0  0
  148.2715  137.4735  157.6737 S   0  0  0  0  0  0  0  0  0  0  0  0
  148.6364  134.2204  153.8522 N   0  0  0  0  0  0  0  0  0  0  0  0
  148.7046  132.9591  153.1250 C   0  0  1  0  0  0  0  0  0  0  0  0
  149.3292  131.8028  153.9294 C   0  0  0  0  0  0  0  0  0  0  0  0
  148.5045  130.5551  153.5561 C   0  0  0  0  0  0  0  0  0  0  0  0
  147.5549  131.0103  152.5224 N   0  3  1  0  0  0  0  0  0  0  0  0
  146.3063  130.2336  152.3612 C   0  0  0  0  0  0  0  0  0  0  0  0
  145.4902  130.8190  151.1905 C   0  0  0  0  0  0  0  0  0  0  0  0
  145.2566  132.3352  151.3550 C   0  0  0  0  0  0  0  0  0  0  0  0
  146.5827  133.0774  151.6109 C   0  0  0  0  0  0  0  0  0  0  0  0
  147.3088  132.4322  152.8020 C   0  0  2  0  0  0  0  0  0  0  0  0
  148.8432  137.1900  160.1146 H   0  0  0  0  0  0  0  0  0  0  0  0
  148.9768  135.0420  153.3744 H   0  0  0  0  0  0  0  0  0  0  0  0
  149.2598  133.0959  152.1947 H   0  0  0  0  0  0  0  0  0  0  0  0
  150.3850  131.6816  153.6849 H   0  0  0  0  0  0  0  0  0  0  0  0
  149.2607  131.9830  155.0034 H   0  0  0  0  0  0  0  0  0  0  0  0
  149.1260  129.7424  153.1796 H   0  0  0  0  0  0  0  0  0  0  0  0
  147.9628  130.1907  154.4305 H   0  0  0  0  0  0  0  0  0  0  0  0
  146.5477  129.1881  152.1672 H   0  0  0  0  0  0  0  0  0  0  0  0
  145.7265  130.2663  153.2849 H   0  0  0  0  0  0  0  0  0  0  0  0
  146.0219  130.6385  150.2551 H   0  0  0  0  0  0  0  0  0  0  0  0
  144.5346  130.3009  151.1052 H   0  0  0  0  0  0  0  0  0  0  0  0
  144.7650  132.7387  150.4694 H   0  0  0  0  0  0  0  0  0  0  0  0
  144.5776  132.5082  152.1911 H   0  0  0  0  0  0  0  0  0  0  0  0
  147.2096  133.0349  150.7193 H   0  0  0  0  0  0  0  0  0  0  0  0
  146.3912  134.1323  151.8104 H   0  0  0  0  0  0  0  0  0  0  0  0
  146.6818  132.5073  153.6939 H   0  0  0  0  0  0  0  0  0  0  0  0
  148.0499  130.9753  151.6427 H   0  0  0  0  0  0  0  0  0  0  0  0
  1  2  2  0  0  0  0
  2  3  1  0  0  0  0
  2  9  1  0  0  0  0
  3  4  1  0  0  0  0
  4  8  1  0  0  0  0
  4  5  2  0  0  0  0
  5  6  1  0  0  0  0
  6  7  2  0  0  0  0
  7  8  1  0  0  0  0
  7 19  1  0  0  0  0
  9 10  1  0  0  0  0
  9 20  1  0  0  0  0
 10 18  1  0  0  0  0
 10 11  1  0  0  0  0
 10 21  1  0  0  0  0
 11 12  1  0  0  0  0
 11 22  1  0  0  0  0
 11 23  1  0  0  0  0
 12 13  1  0  0  0  0
 12 24  1  0  0  0  0
 12 25  1  0  0  0  0
 13 18  1  0  0  0  0
 13 14  1  0  0  0  0
 13 35  1  0  0  0  0
 14 15  1  0  0  0  0
 14 26  1  0  0  0  0
 14 27  1  0  0  0  0
 15 16  1  0  0  0  0
 15 28  1  0  0  0  0
 15 29  1  0  0  0  0
 16 17  1  0  0  0  0
 16 30  1  0  0  0  0
 16 31  1  0  0  0  0
 17 18  1  0  0  0  0
 17 32  1  0  0  0  0
 17 33  1  0  0  0  0
 18 34  1  0  0  0  0
M  CHG  1   3  -1
M  CHG  1  13   1
M  END
> <s_m_source_file>
AV-unprocessed.smi

> <i_m_source_file_index>
1803

> <i_lp_mmshare_version>
43012

> <i_f3d_flags>
0

> <s_epik_input>
czFbY0hdbm5jMVtOSF1DKD1PKVtOSF1bQ0BIXShbQ0gyXVtDSDJdMilbQ0BASF0oTjIzKVtDSDJdW0NIMl1bQ0gyXVtDSDJdMw==

> <s_epik_cmdline>
J2VwaWtfcHl0aG9uJywgJy1waCcsICc3LjAnLCAnLXRuJywgJzgnLCAnLW1hJywgJzIwMCcsICctbWV0YWxfYmluZGluZycsICctaW1hZScsICc8aW5maWxlLm1hZT4nLCAnLW9tYWUnLCAnPG91dGZpbGUubWFlPic=

> <r_lp_tautomer_probability>
1

> <r_epik_Ionization_Penalty>
3.78828

> <r_epik_Ionization_Penalty_Charging>
3.7591

> <r_epik_Ionization_Penalty_Neutral>
0.0291838

> <r_epik_State_Penalty>
3.757

> <r_epik_Charging_Adjusted_Penalty>
7.51609

> <i_epik_Tot_Q>
0

> <i_epik_Tot_abs_Q>
2

> <r_epik_Metal_State_Penalty>
0.558016

> <b_epik_Metal_Only>
1

> <s_lp_Force_Field>
OPLS_2005

> <r_lp_Energy>
28.5802

> <b_lp_Chiralities_Consistent>
1

> <s_lp_Variant>
AV-unprocessed.smi:1803-14

> <Gold.Version>
5.8.1

> <Gold.Id.Protein>
6NUR|6NUR_protein|mol2

> <Gold.PLP.Fitness>
34.7018

> <Gold.PLP.PLP>
-26.3787

> <Gold.PLP.part.hbond>
-3.0000

> <Gold.PLP.part.metal>
0.0000

> <Gold.PLP.part.buried>
-3.7572

> <Gold.PLP.part.nonpolar>
-19.2984

> <Gold.PLP.part.repulsive>
0.0740

> <Gold.PLP.ligand.clash>
0.0000

> <Gold.PLP.ligand.torsion>
0.3443

> <Gold.PLP.Chemscore.Hbond>
3.0000

> <Gold.PLP.Chemscore.CHOScore>
0.0000

> <Gold.PLP.Chemscore.Metal>
0.0000

> <Gold.Chemscore.Hbonds>
donor molecule, donor type, donor heavy atom, donor atom, acceptor molecule, acceptor atom, score
      L1  H     9    20       P1  7948  1.00
      L1  H    13    35       P1 10747  1.00
      P1  H  6896  6907       L1     6  0.95

> <Gold.PLP.Chemscore.Internal.Correction>
0.0117

> <Gold.Rescore>
     Score         DG    S(hbond)    S(metal)    S(lipo)     H(rot)  DE(clash)    DE(int)     intcor
     15.71     -18.81       2.71        0.00      58.50       1.00       0.03       3.07       ----

> <Gold.Chemscore.Fitness>
15.7065

> <Gold.Chemscore.DG>
-18.8101

> <Gold.Chemscore.ZeroCoef>
-5.4800

> <Gold.Chemscore.Hbond>
2.7084

> <Gold.Chemscore.Metal>
0.0000

> <Gold.Chemscore.Lipo>
58.4958

> <Gold.Chemscore.Internal_Hbond>
0.0000

> <Gold.Chemscore.DEClash>
0.0308

> <Gold.Chemscore.DEInternal>
3.0728

> <Gold.Chemscore.Rot>
1.0000

> <Gold.Chemscore.Internal.Correction>
   9.000000E+99

> <Gold.Chemscore.Hbonds>
donor molecule, donor type, donor heavy atom, donor atom, acceptor molecule, acceptor atom, score
      L1  H     9    20       P1  7948  0.33
      L1  H    13    35       P1 10747  1.00
      P1  H  6896  6907       L1     6  0.21

> <Gold.Chemscore.Hbond.Weighted>
-9.0461

> <Gold.Chemscore.Metal.Weighted>
-0.0000

> <Gold.Chemscore.Lipo.Weighted>
-6.8440

> <Gold.Chemscore.Internal_Hbond.Weighted>
0.0000

> <Gold.Chemscore.DEClash.Weighted>
0.0308

> <Gold.Chemscore.DEInternal.Weighted>
3.0728

> <Gold.Chemscore.Rot.Weighted>
2.5600

> <Gold.Chemscore.Internal.Correction.Weighted>
   9.000000E+99

> <Gold.Protein.RotatedTorsions>
[ 6907 6896 6895 6894 ] final  -79.50 input  -60.11 | X-H torsion
[ 7974 7965 7964 7962 ] final  -38.01 input  175.53 | X-H torsion
[ 8008 7997 7996 7995 ] final  135.18 input   59.86 | X-H torsion
[ 10167 10162 10161 10158 ] final  -24.90 input  -65.29 | X-H torsion
[ 10718 10713 10712 10709 ] final  137.51 input   66.30 | X-H torsion
[ 10763 10752 10751 10750 ] final   68.60 input  -60.55 | X-H torsion
[ 11005 11000 10999 10996 ] final   57.44 input  -57.11 | X-H torsion

> <Gold.Protein.ActiveResidues>
 VAL166  LYS551  ARG553  GLY616  TRP617  ASP618  TYR619  PRO620  LYS621  CYS622 
 ASP623  PHE694  ASN695  SER759  ASP760  ASP761  ALA762  ILE779  LEU786  VAL792 
 PHE793  MET794  SER795  GLU796  ALA797  LYS798  CYS799  TRP800  GLU811  SER814 

> <Gold.Protein.RotatedAtoms>
  150.6948  134.4111  159.5161 H   0  0  0  0  0  0  0  0  0  0  0  0  # atno 6907 bound_to 6896
  152.1869  134.8703  160.0530 H   0  0  0  0  0  0  0  0  0  0  0  0  # atno 6908 bound_to 6896
  151.9672  133.3679  159.4094 H   0  0  0  0  0  0  0  0  0  0  0  0  # atno 6909 bound_to 6896
  146.0524  140.6462  142.9035 H   0  0  0  0  0  0  0  0  0  0  0  0  # atno 7974 bound_to 7965
  156.3002  140.2477  156.3539 H   0  0  0  0  0  0  0  0  0  0  0  0  # atno 8008 bound_to 7997
  154.8940  140.0408  157.1874 H   0  0  0  0  0  0  0  0  0  0  0  0  # atno 8009 bound_to 7997
  154.8568  140.2914  155.5567 H   0  0  0  0  0  0  0  0  0  0  0  0  # atno 8010 bound_to 7997
  140.7287  143.4312  151.0799 H   0  0  0  0  0  0  0  0  0  0  0  0  # atno 10167 bound_to 10162
  157.4353  131.1052  151.0205 H   0  0  0  0  0  0  0  0  0  0  0  0  # atno 10718 bound_to 10713
  153.0244  135.5241  154.7160 H   0  0  0  0  0  0  0  0  0  0  0  0  # atno 10763 bound_to 10752
  154.6229  135.2891  155.0308 H   0  0  0  0  0  0  0  0  0  0  0  0  # atno 10764 bound_to 10752
  154.1288  135.6596  153.4970 H   0  0  0  0  0  0  0  0  0  0  0  0  # atno 10765 bound_to 10752
  140.0452  134.5815  155.9331 H   0  0  0  0  0  0  0  0  0  0  0  0  # atno 11005 bound_to 11000
  144.7130  140.4107  143.7066 LP  0  0  0  0  0  0  0  0  0  0  0  0  # atno 17320 bound_to 7965
  145.6701  139.1597  143.2759 LP  0  0  0  0  0  0  0  0  0  0  0  0  # atno 17321 bound_to 7965
  139.7969  143.8139  152.3158 LP  0  0  0  0  0  0  0  0  0  0  0  0  # atno 17342 bound_to 10162
  139.8142  144.7323  150.9657 LP  0  0  0  0  0  0  0  0  0  0  0  0  # atno 17343 bound_to 10162
  157.1087  130.6012  149.5477 LP  0  0  0  0  0  0  0  0  0  0  0  0  # atno 17370 bound_to 10713
  155.9928  130.4987  150.7354 LP  0  0  0  0  0  0  0  0  0  0  0  0  # atno 17371 bound_to 10713
  141.1903  133.6568  156.5408 LP  0  0  0  0  0  0  0  0  0  0  0  0  # atno 17394 bound_to 11000
  140.4004  134.7361  157.4776 LP  0  0  0  0  0  0  0  0  0  0  0  0  # atno 17395 bound_to 11000

$$$$
