AV-unprocessed.smi:2400|AV-procd|sdf|9501|dock1
  -GOLD-   2272013133D 1   1.00000     0.00000
 Structure written by MMmdl.
 44 45  0  0  0  0  0  0  0  0  1 V2000
  148.9248  137.1499  159.0456 C   0  0  0  0  0  0  0  0  0  0  0  0
  150.1441  136.4632  158.8206 O   0  0  0  0  0  0  0  0  0  0  0  0
  150.7322  136.7777  157.6466 C   0  0  0  0  0  0  0  0  0  0  0  0
  151.1746  137.9657  157.1336 C   0  0  0  0  0  0  0  0  0  0  0  0
  151.1422  139.2668  157.6966 N   0  0  0  0  0  0  0  0  0  0  0  0
  152.1845  139.9758  158.1577 C   0  0  0  0  0  0  0  0  0  0  0  0
  153.3579  139.6058  158.1258 O   0  0  0  0  0  0  0  0  0  0  0  0
  151.7902  141.1616  158.6423 N   0  0  0  0  0  0  0  0  0  0  0  0
  152.6755  142.1846  159.1997 C   0  0  2  0  0  0  0  0  0  0  0  0
  153.0064  141.8644  160.6714 C   0  0  0  0  0  0  0  0  0  0  0  0
  152.5279  143.0580  161.4958 C   0  0  0  0  0  0  0  0  0  0  0  0
  152.5355  144.2241  160.5124 C   0  0  0  0  0  0  0  0  0  0  0  0
  152.0767  143.6248  159.1712 C   0  0  0  0  0  0  0  0  0  0  0  0
  152.6309  144.4395  157.9874 C   0  0  0  0  0  0  0  0  0  0  0  0
  150.5299  143.6494  159.1076 C   0  0  0  0  0  0  0  0  0  0  0  0
  151.6454  137.6514  155.8286 C   0  0  0  0  0  0  0  0  0  0  0  0
  152.2228  138.5591  154.7808 C   0  0  0  0  0  0  0  0  0  0  0  0
  151.5412  136.3501  155.5821 N   0  0  0  0  0  0  0  0  0  0  0  0
  150.9905  135.8114  156.6973 N   0  0  0  0  0  0  0  0  0  0  0  0
  150.7271  134.3881  156.7508 C   0  0  0  0  0  0  0  0  0  0  0  0
  148.4967  136.8321  159.9959 H   0  0  0  0  0  0  0  0  0  0  0  0
  148.2012  136.9296  158.2597 H   0  0  0  0  0  0  0  0  0  0  0  0
  149.0725  138.2293  159.0894 H   0  0  0  0  0  0  0  0  0  0  0  0
  150.2472  139.7331  157.6795 H   0  0  0  0  0  0  0  0  0  0  0  0
  150.8051  141.3803  158.6190 H   0  0  0  0  0  0  0  0  0  0  0  0
  153.6224  142.1712  158.6559 H   0  0  0  0  0  0  0  0  0  0  0  0
  152.5526  140.9366  161.0226 H   0  0  0  0  0  0  0  0  0  0  0  0
  154.0856  141.7512  160.7835 H   0  0  0  0  0  0  0  0  0  0  0  0
  151.5129  142.8793  161.8522 H   0  0  0  0  0  0  0  0  0  0  0  0
  153.1561  143.2418  162.3677 H   0  0  0  0  0  0  0  0  0  0  0  0
  151.9132  145.0547  160.8482 H   0  0  0  0  0  0  0  0  0  0  0  0
  153.5554  144.6022  160.4255 H   0  0  0  0  0  0  0  0  0  0  0  0
  152.2673  145.4673  158.0100 H   0  0  0  0  0  0  0  0  0  0  0  0
  152.3301  144.0039  157.0343 H   0  0  0  0  0  0  0  0  0  0  0  0
  153.7207  144.4775  158.0005 H   0  0  0  0  0  0  0  0  0  0  0  0
  150.1488  144.6664  159.2060 H   0  0  0  0  0  0  0  0  0  0  0  0
  150.0798  143.0553  159.9034 H   0  0  0  0  0  0  0  0  0  0  0  0
  150.1587  143.2638  158.1573 H   0  0  0  0  0  0  0  0  0  0  0  0
  152.2654  139.5921  155.1260 H   0  0  0  0  0  0  0  0  0  0  0  0
  151.6224  138.5393  153.8713 H   0  0  0  0  0  0  0  0  0  0  0  0
  153.2371  138.2580  154.5180 H   0  0  0  0  0  0  0  0  0  0  0  0
  150.7138  134.0495  157.7870 H   0  0  0  0  0  0  0  0  0  0  0  0
  151.5026  133.8412  156.2134 H   0  0  0  0  0  0  0  0  0  0  0  0
  149.7592  134.1788  156.2952 H   0  0  0  0  0  0  0  0  0  0  0  0
  1  2  1  0  0  0  0
  1 21  1  0  0  0  0
  1 22  1  0  0  0  0
  1 23  1  0  0  0  0
  2  3  1  0  0  0  0
  3 19  1  0  0  0  0
  3  4  2  0  0  0  0
  4  5  1  0  0  0  0
  4 16  1  0  0  0  0
  5  6  1  0  0  0  0
  5 24  1  0  0  0  0
  6  7  2  0  0  0  0
  6  8  1  0  0  0  0
  8  9  1  0  0  0  0
  8 25  1  0  0  0  0
  9 13  1  0  0  0  0
  9 10  1  0  0  0  0
  9 26  1  0  0  0  0
 10 11  1  0  0  0  0
 10 27  1  0  0  0  0
 10 28  1  0  0  0  0
 11 12  1  0  0  0  0
 11 29  1  0  0  0  0
 11 30  1  0  0  0  0
 12 13  1  0  0  0  0
 12 31  1  0  0  0  0
 12 32  1  0  0  0  0
 13 14  1  0  0  0  0
 13 15  1  0  0  0  0
 14 33  1  0  0  0  0
 14 34  1  0  0  0  0
 14 35  1  0  0  0  0
 15 36  1  0  0  0  0
 15 37  1  0  0  0  0
 15 38  1  0  0  0  0
 16 17  1  0  0  0  0
 16 18  2  0  0  0  0
 17 39  1  0  0  0  0
 17 40  1  0  0  0  0
 17 41  1  0  0  0  0
 18 19  1  0  0  0  0
 19 20  1  0  0  0  0
 20 42  1  0  0  0  0
 20 43  1  0  0  0  0
 20 44  1  0  0  0  0
M  END
> <s_m_source_file>
AV-unprocessed.smi

> <i_m_source_file_index>
2400

> <i_lp_mmshare_version>
43012

> <i_f3d_flags>
0

> <s_epik_input>
W0NIM11uMW5jKFtDSDNdKWMoYzFPW0NIM10pW05IXUMoPU8pW05IXVtDQEBIXShDMihbQ0gzXSlbQ0gzXSlbQ0gyXVtDSDJdW0NIMl0y

> <s_epik_cmdline>
J2VwaWtfcHl0aG9uJywgJy1waCcsICc3LjAnLCAnLXRuJywgJzgnLCAnLW1hJywgJzIwMCcsICctbWV0YWxfYmluZGluZycsICctaW1hZScsICc8aW5maWxlLm1hZT4nLCAnLW9tYWUnLCAnPG91dGZpbGUubWFlPic=

> <r_lp_tautomer_probability>
1

> <r_epik_Ionization_Penalty>
0.000423583

> <r_epik_Ionization_Penalty_Charging>
0

> <r_epik_Ionization_Penalty_Neutral>
0.000423583

> <r_epik_State_Penalty>
-0

> <r_epik_Charging_Adjusted_Penalty>
0

> <i_epik_Tot_Q>
0

> <i_epik_Tot_abs_Q>
0

> <r_epik_Metal_State_Penalty>
-0

> <b_epik_Metal_Only>
0

> <s_lp_Force_Field>
OPLS_2005

> <r_lp_Energy>
29.9339

> <b_lp_Chiralities_Consistent>
1

> <s_lp_Variant>
AV-unprocessed.smi:2400-1

> <Gold.Version>
5.8.1

> <Gold.Id.Protein>
6NUR|6NUR_protein|mol2

> <Gold.PLP.Fitness>
47.0059

> <Gold.PLP.PLP>
-39.9801

> <Gold.PLP.part.hbond>
-3.0000

> <Gold.PLP.part.metal>
0.0000

> <Gold.PLP.part.buried>
-5.8892

> <Gold.PLP.part.nonpolar>
-31.2598

> <Gold.PLP.part.repulsive>
0.2433

> <Gold.PLP.ligand.clash>
0.0000

> <Gold.PLP.ligand.torsion>
1.0061

> <Gold.PLP.Chemscore.Hbond>
3.0000

> <Gold.PLP.Chemscore.CHOScore>
0.0000

> <Gold.PLP.Chemscore.Metal>
0.0000

> <Gold.Chemscore.Hbonds>
donor molecule, donor type, donor heavy atom, donor atom, acceptor molecule, acceptor atom, score
      P1  H  6896  6907       L1     2  1.00
      P1  H  7997  8010       L1     7  1.00
      P1  H 10752 10764       L1    18  0.96

> <Gold.PLP.Chemscore.Internal.Correction>
0.0380

> <Gold.Rescore>
     Score         DG    S(hbond)    S(metal)    S(lipo)     H(rot)  DE(clash)    DE(int)     intcor
     23.25     -24.31       2.86        0.00     105.75       1.21       0.01       1.05       ----

> <Gold.Chemscore.Fitness>
23.2458

> <Gold.Chemscore.DG>
-24.3085

> <Gold.Chemscore.ZeroCoef>
-5.4800

> <Gold.Chemscore.Hbond>
2.8616

> <Gold.Chemscore.Metal>
0.0000

> <Gold.Chemscore.Lipo>
105.7531

> <Gold.Chemscore.Internal_Hbond>
0.0000

> <Gold.Chemscore.DEClash>
0.0129

> <Gold.Chemscore.DEInternal>
1.0498

> <Gold.Chemscore.Rot>
1.2119

> <Gold.Chemscore.Internal.Correction>
   9.000000E+99

> <Gold.Chemscore.Hbonds>
donor molecule, donor type, donor heavy atom, donor atom, acceptor molecule, acceptor atom, score
      P1  H  6896  6907       L1     2  0.88
      P1  H  7997  8010       L1     7  0.97
      P1  H 10752 10764       L1    18  0.83

> <Gold.Chemscore.Hbond.Weighted>
-9.5577

> <Gold.Chemscore.Metal.Weighted>
-0.0000

> <Gold.Chemscore.Lipo.Weighted>
-12.3731

> <Gold.Chemscore.Internal_Hbond.Weighted>
0.0000

> <Gold.Chemscore.DEClash.Weighted>
0.0129

> <Gold.Chemscore.DEInternal.Weighted>
1.0498

> <Gold.Chemscore.Rot.Weighted>
3.1024

> <Gold.Chemscore.Internal.Correction.Weighted>
   9.000000E+99

> <Gold.Protein.RotatedTorsions>
[ 6907 6896 6895 6894 ] final  -54.62 input  -60.11 | X-H torsion
[ 7974 7965 7964 7962 ] final  102.50 input  175.53 | X-H torsion
[ 8008 7997 7996 7995 ] final   49.31 input   59.86 | X-H torsion
[ 10167 10162 10161 10158 ] final   99.30 input  -65.29 | X-H torsion
[ 10718 10713 10712 10709 ] final   41.58 input   66.30 | X-H torsion
[ 10763 10752 10751 10750 ] final  -69.54 input  -60.55 | X-H torsion
[ 11005 11000 10999 10996 ] final  154.49 input  -57.11 | X-H torsion

> <Gold.Protein.ActiveResidues>
 VAL166  LYS551  ARG553  GLY616  TRP617  ASP618  TYR619  PRO620  LYS621  CYS622 
 ASP623  PHE694  ASN695  SER759  ASP760  ASP761  ALA762  ILE779  LEU786  VAL792 
 PHE793  MET794  SER795  GLU796  ALA797  LYS798  CYS799  TRP800  GLU811  SER814 

> <Gold.Protein.RotatedAtoms>
  150.8322  134.7580  159.6862 H   0  0  0  0  0  0  0  0  0  0  0  0  # atno 6907 bound_to 6896
  152.4425  134.5559  159.9890 H   0  0  0  0  0  0  0  0  0  0  0  0  # atno 6908 bound_to 6896
  151.5718  133.3351  159.3027 H   0  0  0  0  0  0  0  0  0  0  0  0  # atno 6909 bound_to 6896
  145.3583  139.2423  143.3520 H   0  0  0  0  0  0  0  0  0  0  0  0  # atno 7974 bound_to 7965
  155.4002  140.3437  155.4256 H   0  0  0  0  0  0  0  0  0  0  0  0  # atno 8008 bound_to 7997
  156.1508  140.1570  156.8805 H   0  0  0  0  0  0  0  0  0  0  0  0  # atno 8009 bound_to 7997
  154.5051  140.0804  156.7858 H   0  0  0  0  0  0  0  0  0  0  0  0  # atno 8010 bound_to 7997
  139.7630  144.6948  151.0265 H   0  0  0  0  0  0  0  0  0  0  0  0  # atno 10167 bound_to 10162
  157.3952  130.7829  149.7302 H   0  0  0  0  0  0  0  0  0  0  0  0  # atno 10718 bound_to 10713
  154.4049  135.6022  153.5919 H   0  0  0  0  0  0  0  0  0  0  0  0  # atno 10763 bound_to 10752
  152.9789  135.5915  154.4140 H   0  0  0  0  0  0  0  0  0  0  0  0  # atno 10764 bound_to 10752
  154.3943  135.2842  155.2114 H   0  0  0  0  0  0  0  0  0  0  0  0  # atno 10765 bound_to 10752
  140.1494  134.8685  157.2435 H   0  0  0  0  0  0  0  0  0  0  0  0  # atno 11005 bound_to 11000
  146.2938  140.4212  142.8729 LP  0  0  0  0  0  0  0  0  0  0  0  0  # atno 17320 bound_to 7965
  144.8665  140.7214  143.6074 LP  0  0  0  0  0  0  0  0  0  0  0  0  # atno 17321 bound_to 7965
  140.7808  143.4675  151.0191 LP  0  0  0  0  0  0  0  0  0  0  0  0  # atno 17342 bound_to 10162
  139.8361  143.7626  152.3180 LP  0  0  0  0  0  0  0  0  0  0  0  0  # atno 17343 bound_to 10162
  155.9808  130.4025  150.3505 LP  0  0  0  0  0  0  0  0  0  0  0  0  # atno 17370 bound_to 10713
  157.1626  131.0349  151.2833 LP  0  0  0  0  0  0  0  0  0  0  0  0  # atno 17371 bound_to 10713
  140.2623  134.3557  155.7402 LP  0  0  0  0  0  0  0  0  0  0  0  0  # atno 17394 bound_to 11000
  141.2197  133.7376  156.9098 LP  0  0  0  0  0  0  0  0  0  0  0  0  # atno 17395 bound_to 11000

$$$$
