AV-unprocessed.smi:1930|AV-procd|sdf|7809|dock7
  -GOLD-   22720 9553D 1   1.00000     0.00000
 Structure written by MMmdl.
 41 42  0  0  0  0  0  0  0  0  1 V2000
  151.1938  140.7003  158.1127 C   0  0  0  0  0  0  0  0  0  0  0  0
  151.7202  139.6151  156.7241 S   0  0  0  0  0  0  0  0  0  0  0  0
  151.6421  140.3915  155.4771 O   0  0  0  0  0  0  0  0  0  0  0  0
  152.9852  138.9656  157.1007 O   0  0  0  0  0  0  0  0  0  0  0  0
  150.4873  138.3897  156.6683 N   0  0  0  0  0  0  0  0  0  0  0  0
  150.5934  137.2146  157.5635 C   0  0  0  0  0  0  0  0  0  0  0  0
  151.0374  135.9548  156.7953 C   0  0  0  0  0  0  0  0  0  0  0  0
  150.1219  135.7429  155.6663 N   0  0  0  0  0  0  0  0  0  0  0  0
  149.1358  134.8151  155.5854 C   0  0  0  0  0  0  0  0  0  0  0  0
  148.7329  134.1723  156.5557 O   0  0  0  0  0  0  0  0  0  0  0  0
  148.6040  134.6660  154.3615 N   0  0  0  0  0  0  0  0  0  0  0  0
  147.5387  133.7306  154.0303 C   0  0  0  0  0  0  0  0  0  0  0  0
  147.7179  133.1951  152.6038 C   0  0  0  0  0  0  0  0  0  0  0  0
  146.4277  133.2419  151.8093 C   0  0  0  0  0  0  0  0  0  0  0  0
  145.3403  134.0278  152.2429 C   0  0  0  0  0  0  0  0  0  0  0  0
  144.1627  134.0416  151.4709 C   0  0  0  0  0  0  0  0  0  0  0  0
  144.1231  133.2671  150.2944 C   0  0  0  0  0  0  0  0  0  0  0  0
  145.1585  132.5119  149.8686 N   0  0  0  0  0  0  0  0  0  0  0  0
  146.2842  132.5043  150.6147 C   0  0  0  0  0  0  0  0  0  0  0  0
  150.2391  136.8495  154.7147 C   0  0  0  0  0  0  0  0  0  0  0  0
  149.7655  138.1475  155.3979 C   0  0  0  0  0  0  0  0  0  0  0  0
  151.9156  141.5085  158.2274 H   0  0  0  0  0  0  0  0  0  0  0  0
  151.1548  140.1249  159.0363 H   0  0  0  0  0  0  0  0  0  0  0  0
  150.2148  141.1261  157.8981 H   0  0  0  0  0  0  0  0  0  0  0  0
  151.2821  137.4201  158.3826 H   0  0  0  0  0  0  0  0  0  0  0  0
  149.6177  137.0400  158.0184 H   0  0  0  0  0  0  0  0  0  0  0  0
  152.0516  136.0789  156.4155 H   0  0  0  0  0  0  0  0  0  0  0  0
  151.0940  135.1093  157.4804 H   0  0  0  0  0  0  0  0  0  0  0  0
  148.9696  135.2322  153.6101 H   0  0  0  0  0  0  0  0  0  0  0  0
  147.5494  132.9055  154.7446 H   0  0  0  0  0  0  0  0  0  0  0  0
  146.5733  134.2304  154.1266 H   0  0  0  0  0  0  0  0  0  0  0  0
  148.4803  133.7732  152.0794 H   0  0  0  0  0  0  0  0  0  0  0  0
  148.0770  132.1652  152.6321 H   0  0  0  0  0  0  0  0  0  0  0  0
  145.4064  134.6108  153.1498 H   0  0  0  0  0  0  0  0  0  0  0  0
  143.3103  134.6318  151.7730 H   0  0  0  0  0  0  0  0  0  0  0  0
  143.2358  133.2542  149.6789 H   0  0  0  0  0  0  0  0  0  0  0  0
  147.0940  131.8919  150.2463 H   0  0  0  0  0  0  0  0  0  0  0  0
  151.2756  136.9421  154.3901 H   0  0  0  0  0  0  0  0  0  0  0  0
  149.6643  136.6799  153.8031 H   0  0  0  0  0  0  0  0  0  0  0  0
  148.6993  138.0766  155.6169 H   0  0  0  0  0  0  0  0  0  0  0  0
  149.8850  138.9947  154.7234 H   0  0  0  0  0  0  0  0  0  0  0  0
  1  2  1  0  0  0  0
  1 22  1  0  0  0  0
  1 23  1  0  0  0  0
  1 24  1  0  0  0  0
  2  3  2  0  0  0  0
  2  4  2  0  0  0  0
  2  5  1  0  0  0  0
  5 21  1  0  0  0  0
  5  6  1  0  0  0  0
  6  7  1  0  0  0  0
  6 25  1  0  0  0  0
  6 26  1  0  0  0  0
  7  8  1  0  0  0  0
  7 27  1  0  0  0  0
  7 28  1  0  0  0  0
  8  9  1  0  0  0  0
  8 20  1  0  0  0  0
  9 10  2  0  0  0  0
  9 11  1  0  0  0  0
 11 12  1  0  0  0  0
 11 29  1  0  0  0  0
 12 13  1  0  0  0  0
 12 30  1  0  0  0  0
 12 31  1  0  0  0  0
 13 14  1  0  0  0  0
 13 32  1  0  0  0  0
 13 33  1  0  0  0  0
 14 19  1  0  0  0  0
 14 15  2  0  0  0  0
 15 16  1  0  0  0  0
 15 34  1  0  0  0  0
 16 17  2  0  0  0  0
 16 35  1  0  0  0  0
 17 18  1  0  0  0  0
 17 36  1  0  0  0  0
 18 19  2  0  0  0  0
 19 37  1  0  0  0  0
 20 21  1  0  0  0  0
 20 38  1  0  0  0  0
 20 39  1  0  0  0  0
 21 40  1  0  0  0  0
 21 41  1  0  0  0  0
M  END
> <s_m_source_file>
AV-unprocessed.smi

> <i_m_source_file_index>
1930

> <i_lp_mmshare_version>
43012

> <i_f3d_flags>
0

> <s_epik_input>
W0NIM11TKD1PKSg9TylOMVtDSDJdW0NIMl1OKFtDSDJdW0NIMl0xKUMoPU8pW05IXVtDSDJdW0NIMl1jMltjSF1bY0hdW2NIXW5bY0hdMg==

> <s_epik_cmdline>
J2VwaWtfcHl0aG9uJywgJy1waCcsICc3LjAnLCAnLXRuJywgJzgnLCAnLW1hJywgJzIwMCcsICctbWV0YWxfYmluZGluZycsICctaW1hZScsICc8aW5maWxlLm1hZT4nLCAnLW9tYWUnLCAnPG91dGZpbGUubWFlPic=

> <r_epik_Ionization_Penalty>
0.0143741

> <r_epik_Ionization_Penalty_Charging>
0

> <r_epik_Ionization_Penalty_Neutral>
0.0143741

> <r_epik_State_Penalty>
0.0112033

> <r_epik_Charging_Adjusted_Penalty>
0.0112033

> <i_epik_Tot_Q>
0

> <i_epik_Tot_abs_Q>
0

> <r_epik_Metal_State_Penalty>
0.0109376

> <b_epik_Metal_Only>
0

> <s_lp_Force_Field>
OPLS_2005

> <r_lp_Energy>
24.8651

> <b_lp_Chiralities_Consistent>
1

> <s_lp_Variant>
AV-unprocessed.smi:1930-1

> <Gold.Version>
5.8.1

> <Gold.Id.Protein>
6NUR|6NUR_protein|mol2

> <Gold.PLP.Fitness>
41.2713

> <Gold.PLP.PLP>
-28.5383

> <Gold.PLP.part.hbond>
-3.0000

> <Gold.PLP.part.metal>
0.0000

> <Gold.PLP.part.buried>
-1.1828

> <Gold.PLP.part.nonpolar>
-23.6870

> <Gold.PLP.part.repulsive>
0.1797

> <Gold.PLP.ligand.clash>
0.0000

> <Gold.PLP.ligand.torsion>
1.9367

> <Gold.PLP.Chemscore.Hbond>
2.8320

> <Gold.PLP.Chemscore.CHOScore>
2.0000

> <Gold.PLP.Chemscore.Metal>
0.0000

> <Gold.Chemscore.Hbonds>
donor molecule, donor type, donor heavy atom, donor atom, acceptor molecule, acceptor atom, score
      L1  H    11    29       P1  7948  1.00
      P1  H  7989  7998       L1     3  0.82
      P1  H  7997  8010       L1     4  1.00
      L1  C    17    36       P1 10186  1.00
      L1  C    19    37       P1 10747  1.00

> <Gold.PLP.Chemscore.Internal.Correction>
2.1103

> <Gold.Rescore>
     Score         DG    S(hbond)    S(metal)    S(lipo)     H(rot)  DE(clash)    DE(int)     intcor
     15.69     -18.03       2.63        0.00      62.88       1.40       0.39       1.95       ----

> <Gold.Chemscore.Fitness>
15.6949

> <Gold.Chemscore.DG>
-18.0294

> <Gold.Chemscore.ZeroCoef>
-5.4800

> <Gold.Chemscore.Hbond>
2.6307

> <Gold.Chemscore.Metal>
0.0000

> <Gold.Chemscore.Lipo>
62.8755

> <Gold.Chemscore.Internal_Hbond>
0.0000

> <Gold.Chemscore.DEClash>
0.3855

> <Gold.Chemscore.DEInternal>
1.9490

> <Gold.Chemscore.Rot>
1.4037

> <Gold.Chemscore.Internal.Correction>
   9.000000E+99

> <Gold.Chemscore.Hbonds>
donor molecule, donor type, donor heavy atom, donor atom, acceptor molecule, acceptor atom, score
      L1  H    11    29       P1  7948  0.58
      P1  H  7989  7998       L1     3  0.76
      P1  H  7997  8010       L1     4  0.54

> <Gold.Chemscore.Hbond.Weighted>
-8.7865

> <Gold.Chemscore.Metal.Weighted>
-0.0000

> <Gold.Chemscore.Lipo.Weighted>
-7.3564

> <Gold.Chemscore.Internal_Hbond.Weighted>
0.0000

> <Gold.Chemscore.DEClash.Weighted>
0.3855

> <Gold.Chemscore.DEInternal.Weighted>
1.9490

> <Gold.Chemscore.Rot.Weighted>
3.5935

> <Gold.Chemscore.Internal.Correction.Weighted>
   9.000000E+99

> <Gold.Protein.RotatedTorsions>
[ 6907 6896 6895 6894 ] final  107.87 input  -60.11 | X-H torsion
[ 7974 7965 7964 7962 ] final -108.51 input  175.53 | X-H torsion
[ 8008 7997 7996 7995 ] final   72.37 input   59.86 | X-H torsion
[ 10167 10162 10161 10158 ] final -166.92 input  -65.29 | X-H torsion
[ 10718 10713 10712 10709 ] final  -47.37 input   66.30 | X-H torsion
[ 10763 10752 10751 10750 ] final  -64.61 input  -60.55 | X-H torsion
[ 11005 11000 10999 10996 ] final  156.22 input  -57.11 | X-H torsion

> <Gold.Protein.ActiveResidues>
 VAL166  LYS551  ARG553  GLY616  TRP617  ASP618  TYR619  PRO620  LYS621  CYS622 
 ASP623  PHE694  ASN695  SER759  ASP760  ASP761  ALA762  ILE779  LEU786  VAL792 
 PHE793  MET794  SER795  GLU796  ALA797  LYS798  CYS799  TRP800  GLU811  SER814 

> <Gold.Protein.RotatedAtoms>
  152.5136  133.9171  159.7516 H   0  0  0  0  0  0  0  0  0  0  0  0  # atno 6907 bound_to 6896
  150.9551  133.6497  159.2771 H   0  0  0  0  0  0  0  0  0  0  0  0  # atno 6908 bound_to 6896
  151.3762  135.0937  159.9534 H   0  0  0  0  0  0  0  0  0  0  0  0  # atno 6909 bound_to 6896
  145.1920  140.9019  143.3419 H   0  0  0  0  0  0  0  0  0  0  0  0  # atno 7974 bound_to 7965
  155.7679  140.3485  155.5231 H   0  0  0  0  0  0  0  0  0  0  0  0  # atno 8008 bound_to 7997
  155.8851  140.1008  157.1479 H   0  0  0  0  0  0  0  0  0  0  0  0  # atno 8009 bound_to 7997
  154.4028  140.1315  156.4232 H   0  0  0  0  0  0  0  0  0  0  0  0  # atno 8010 bound_to 7997
  139.6083  144.0867  152.1816 H   0  0  0  0  0  0  0  0  0  0  0  0  # atno 10167 bound_to 10162
  156.2091  130.4160  149.9139 H   0  0  0  0  0  0  0  0  0  0  0  0  # atno 10718 bound_to 10713
  154.3326  135.6173  153.5558 H   0  0  0  0  0  0  0  0  0  0  0  0  # atno 10763 bound_to 10752
  152.9810  135.5750  154.4944 H   0  0  0  0  0  0  0  0  0  0  0  0  # atno 10764 bound_to 10752
  154.4633  135.2856  155.1673 H   0  0  0  0  0  0  0  0  0  0  0  0  # atno 10765 bound_to 10752
  140.1654  134.8580  157.2626 H   0  0  0  0  0  0  0  0  0  0  0  0  # atno 11005 bound_to 11000
  145.0032  139.3579  143.6157 LP  0  0  0  0  0  0  0  0  0  0  0  0  # atno 17320 bound_to 7965
  146.3434  139.9264  142.8759 LP  0  0  0  0  0  0  0  0  0  0  0  0  # atno 17321 bound_to 7965
  140.0479  144.5955  150.7359 LP  0  0  0  0  0  0  0  0  0  0  0  0  # atno 17342 bound_to 10162
  140.7301  143.2679  151.3983 LP  0  0  0  0  0  0  0  0  0  0  0  0  # atno 17343 bound_to 10162
  156.6823  130.8863  151.3577 LP  0  0  0  0  0  0  0  0  0  0  0  0  # atno 17370 bound_to 10713
  157.7028  130.9352  150.0838 LP  0  0  0  0  0  0  0  0  0  0  0  0  # atno 17371 bound_to 10713
  140.2440  134.3762  155.7469 LP  0  0  0  0  0  0  0  0  0  0  0  0  # atno 17394 bound_to 11000
  141.2213  133.7280  156.8833 LP  0  0  0  0  0  0  0  0  0  0  0  0  # atno 17395 bound_to 11000

$$$$
