AV-unprocessed.smi:1165|AV-procd|sdf|4931|dock9
  -GOLD-   22720 3513D 1   1.00000     0.00000
 Structure written by MMmdl.
 40 41  0  0  0  0  0  0  0  0  2 V2000
  150.9629  141.9667  156.3025 C   0  0  0  0  0  0  0  0  0  0  0  0
  150.6163  140.4858  156.1114 C   0  0  2  0  0  0  0  0  0  0  0  0
  151.5156  139.5712  156.9621 C   0  0  0  0  0  0  0  0  0  0  0  0
  151.2617  138.1556  156.6569 N   0  0  0  0  0  0  0  0  0  0  0  0
  151.8784  136.9689  157.7742 S   0  0  0  0  0  0  0  0  0  0  0  0
  152.6651  136.0376  156.9511 O   0  0  0  0  0  0  0  0  0  0  0  0
  152.5929  137.7091  158.8287 O   0  0  0  0  0  0  0  0  0  0  0  0
  150.4655  136.3235  158.2651 N   0  5  0  0  0  0  0  0  0  0  0  0
  149.3913  137.1564  158.7968 C   0  0  0  0  0  0  0  0  0  0  0  0
  148.0789  136.3482  158.8861 C   0  0  0  0  0  0  0  0  0  0  0  0
  147.7507  135.8207  160.2792 C   0  0  0  0  0  0  0  0  0  0  0  0
  147.6426  136.6967  161.3815 C   0  0  0  0  0  0  0  0  0  0  0  0
  147.3460  136.1619  162.6498 C   0  0  0  0  0  0  0  0  0  0  0  0
  147.1722  134.7687  162.7656 C   0  0  0  0  0  0  0  0  0  0  0  0
  147.2806  133.9176  161.7230 N   0  0  0  0  0  0  0  0  0  0  0  0
  147.5634  134.4393  160.5096 C   0  0  0  0  0  0  0  0  0  0  0  0
  151.3492  137.8602  155.2147 C   0  0  0  0  0  0  0  0  0  0  0  0
  150.4736  138.8227  154.3919 C   0  0  1  0  0  0  0  0  0  0  0  0
  148.9700  138.5065  154.4888 C   0  0  0  0  0  0  0  0  0  0  0  0
  150.7663  140.1764  154.7303 O   0  0  0  0  0  0  0  0  0  0  0  0
  150.8557  142.2635  157.3460 H   0  0  0  0  0  0  0  0  0  0  0  0
  150.3050  142.6009  155.7080 H   0  0  0  0  0  0  0  0  0  0  0  0
  151.9893  142.1744  155.9988 H   0  0  0  0  0  0  0  0  0  0  0  0
  149.5764  140.3464  156.4073 H   0  0  0  0  0  0  0  0  0  0  0  0
  152.5691  139.7863  156.7794 H   0  0  0  0  0  0  0  0  0  0  0  0
  151.3278  139.7626  158.0182 H   0  0  0  0  0  0  0  0  0  0  0  0
  149.6294  137.5538  159.7839 H   0  0  0  0  0  0  0  0  0  0  0  0
  149.2213  138.0254  158.1608 H   0  0  0  0  0  0  0  0  0  0  0  0
  147.2516  136.9799  158.5616 H   0  0  0  0  0  0  0  0  0  0  0  0
  148.1060  135.5134  158.1841 H   0  0  0  0  0  0  0  0  0  0  0  0
  147.7797  137.7608  161.2559 H   0  0  0  0  0  0  0  0  0  0  0  0
  147.2513  136.8053  163.5117 H   0  0  0  0  0  0  0  0  0  0  0  0
  146.9426  134.3252  163.7230 H   0  0  0  0  0  0  0  0  0  0  0  0
  147.6421  133.7322  159.6970 H   0  0  0  0  0  0  0  0  0  0  0  0
  152.3913  137.9532  154.9067 H   0  0  0  0  0  0  0  0  0  0  0  0
  151.0587  136.8295  155.0132 H   0  0  0  0  0  0  0  0  0  0  0  0
  150.7517  138.7080  153.3440 H   0  0  0  0  0  0  0  0  0  0  0  0
  148.7589  137.5150  154.0877 H   0  0  0  0  0  0  0  0  0  0  0  0
  148.3821  139.2257  153.9187 H   0  0  0  0  0  0  0  0  0  0  0  0
  148.6113  138.5176  155.5178 H   0  0  0  0  0  0  0  0  0  0  0  0
  1  2  1  0  0  0  0
  1 21  1  0  0  0  0
  1 22  1  0  0  0  0
  1 23  1  0  0  0  0
  2 20  1  0  0  0  0
  2  3  1  0  0  0  0
  2 24  1  0  0  0  0
  3  4  1  0  0  0  0
  3 25  1  0  0  0  0
  3 26  1  0  0  0  0
  4  5  1  0  0  0  0
  4 17  1  0  0  0  0
  5  6  2  0  0  0  0
  5  7  2  0  0  0  0
  5  8  1  0  0  0  0
  8  9  1  0  0  0  0
  9 10  1  0  0  0  0
  9 27  1  0  0  0  0
  9 28  1  0  0  0  0
 10 11  1  0  0  0  0
 10 29  1  0  0  0  0
 10 30  1  0  0  0  0
 11 16  1  0  0  0  0
 11 12  2  0  0  0  0
 12 13  1  0  0  0  0
 12 31  1  0  0  0  0
 13 14  2  0  0  0  0
 13 32  1  0  0  0  0
 14 15  1  0  0  0  0
 14 33  1  0  0  0  0
 15 16  2  0  0  0  0
 16 34  1  0  0  0  0
 17 18  1  0  0  0  0
 17 35  1  0  0  0  0
 17 36  1  0  0  0  0
 18 19  1  0  0  0  0
 18 20  1  0  0  0  0
 18 37  1  0  0  0  0
 19 38  1  0  0  0  0
 19 39  1  0  0  0  0
 19 40  1  0  0  0  0
M  CHG  1   8  -1
M  END
> <s_m_source_file>
AV-unprocessed.smi

> <i_m_source_file_index>
1165

> <i_lp_mmshare_version>
43012

> <i_f3d_flags>
0

> <s_epik_input>
W0NIM11bQ0BASF0xW0NIMl1OKFtDSDJdW0NASF0oTzEpW0NIM10pUyg9TykoPU8pW05IXVtDSDJdW0NIMl1jMltjSF1bY0hdW2NIXW5bY0hdMg==

> <s_epik_cmdline>
J2VwaWtfcHl0aG9uJywgJy1waCcsICc3LjAnLCAnLXRuJywgJzgnLCAnLW1hJywgJzIwMCcsICctbWV0YWxfYmluZGluZycsICctaW1hZScsICc8aW5maWxlLm1hZT4nLCAnLW9tYWUnLCAnPG91dGZpbGUubWFlPic=

> <r_epik_Ionization_Penalty>
1.23471

> <r_epik_Ionization_Penalty_Charging>
1.20871

> <r_epik_Ionization_Penalty_Neutral>
0.025996

> <r_epik_State_Penalty>
1.46261

> <r_epik_Charging_Adjusted_Penalty>
2.67132

> <i_epik_Tot_Q>
-1

> <i_epik_Tot_abs_Q>
1

> <r_epik_Metal_State_Penalty>
0.521406

> <b_epik_Metal_Only>
0

> <s_lp_Force_Field>
OPLS_2005

> <r_lp_Energy>
7.90597

> <b_lp_Chiralities_Consistent>
1

> <s_lp_Variant>
AV-unprocessed.smi:1165-4

> <Gold.Version>
5.8.1

> <Gold.Id.Protein>
6NUR|6NUR_protein|mol2

> <Gold.PLP.Fitness>
46.3645

> <Gold.PLP.PLP>
-36.4995

> <Gold.PLP.part.hbond>
-3.0000

> <Gold.PLP.part.metal>
0.0000

> <Gold.PLP.part.buried>
-5.4836

> <Gold.PLP.part.nonpolar>
-28.0293

> <Gold.PLP.part.repulsive>
0.0737

> <Gold.PLP.ligand.clash>
0.0000

> <Gold.PLP.ligand.torsion>
1.2603

> <Gold.PLP.Chemscore.Hbond>
3.6000

> <Gold.PLP.Chemscore.CHOScore>
0.0000

> <Gold.PLP.Chemscore.Metal>
0.0000

> <Gold.Chemscore.Hbonds>
donor molecule, donor type, donor heavy atom, donor atom, acceptor molecule, acceptor atom, score
      P1  H  6896  6909       L1     8  1.57
      P1  H  7989  7998       L1    20  1.00
      P1  H 10752 10765       L1     6  1.00

> <Gold.PLP.Chemscore.Internal.Correction>
1.5856

> <Gold.Rescore>
     Score         DG    S(hbond)    S(metal)    S(lipo)     H(rot)  DE(clash)    DE(int)     intcor
     18.13     -19.61       2.41        0.00      84.24       1.47       0.20       1.28       ----

> <Gold.Chemscore.Fitness>
18.1256

> <Gold.Chemscore.DG>
-19.6126

> <Gold.Chemscore.ZeroCoef>
-5.4800

> <Gold.Chemscore.Hbond>
2.4096

> <Gold.Chemscore.Metal>
0.0000

> <Gold.Chemscore.Lipo>
84.2358

> <Gold.Chemscore.Internal_Hbond>
0.0000

> <Gold.Chemscore.DEClash>
0.2021

> <Gold.Chemscore.DEInternal>
1.2850

> <Gold.Chemscore.Rot>
1.4731

> <Gold.Chemscore.Internal.Correction>
   9.000000E+99

> <Gold.Chemscore.Hbonds>
donor molecule, donor type, donor heavy atom, donor atom, acceptor molecule, acceptor atom, score
      P1  H  6896  6909       L1     8  0.27
      P1  H  7989  7998       L1    20  0.70
      P1  H 10752 10765       L1     6  0.92

> <Gold.Chemscore.Hbond.Weighted>
-8.0482

> <Gold.Chemscore.Metal.Weighted>
-0.0000

> <Gold.Chemscore.Lipo.Weighted>
-9.8556

> <Gold.Chemscore.Internal_Hbond.Weighted>
0.0000

> <Gold.Chemscore.DEClash.Weighted>
0.2021

> <Gold.Chemscore.DEInternal.Weighted>
1.2850

> <Gold.Chemscore.Rot.Weighted>
3.7712

> <Gold.Chemscore.Internal.Correction.Weighted>
   9.000000E+99

> <Gold.Protein.RotatedTorsions>
[ 6907 6896 6895 6894 ] final   75.53 input  -60.11 | X-H torsion
[ 7974 7965 7964 7962 ] final   29.63 input  175.53 | X-H torsion
[ 8008 7997 7996 7995 ] final  139.10 input   59.86 | X-H torsion
[ 10167 10162 10161 10158 ] final -169.17 input  -65.29 | X-H torsion
[ 10718 10713 10712 10709 ] final   53.46 input   66.30 | X-H torsion
[ 10763 10752 10751 10750 ] final -109.71 input  -60.55 | X-H torsion
[ 11005 11000 10999 10996 ] final   31.69 input  -57.11 | X-H torsion

> <Gold.Protein.ActiveResidues>
 VAL166  LYS551  ARG553  GLY616  TRP617  ASP618  TYR619  PRO620  LYS621  CYS622 
 ASP623  PHE694  ASN695  SER759  ASP760  ASP761  ALA762  ILE779  LEU786  VAL792 
 PHE793  MET794  SER795  GLU796  ALA797  LYS798  CYS799  TRP800  GLU811  SER814 

> <Gold.Protein.RotatedAtoms>
  152.5030  134.4106  159.9447 H   0  0  0  0  0  0  0  0  0  0  0  0  # atno 6907 bound_to 6896
  151.4074  133.3732  159.2747 H   0  0  0  0  0  0  0  0  0  0  0  0  # atno 6908 bound_to 6896
  150.9317  134.8753  159.7614 H   0  0  0  0  0  0  0  0  0  0  0  0  # atno 6909 bound_to 6896
  146.1660  139.6896  142.9001 H   0  0  0  0  0  0  0  0  0  0  0  0  # atno 7974 bound_to 7965
  156.2992  140.2376  156.4182 H   0  0  0  0  0  0  0  0  0  0  0  0  # atno 8008 bound_to 7997
  154.8379  140.0430  157.1542 H   0  0  0  0  0  0  0  0  0  0  0  0  # atno 8009 bound_to 7997
  154.9135  140.2993  155.5257 H   0  0  0  0  0  0  0  0  0  0  0  0  # atno 8010 bound_to 7997
  139.5939  144.1153  152.1667 H   0  0  0  0  0  0  0  0  0  0  0  0  # atno 10167 bound_to 10162
  157.5169  130.8538  149.8507 H   0  0  0  0  0  0  0  0  0  0  0  0  # atno 10718 bound_to 10713
  154.8208  135.4591  154.0773 H   0  0  0  0  0  0  0  0  0  0  0  0  # atno 10763 bound_to 10752
  153.2129  135.6884  153.8099 H   0  0  0  0  0  0  0  0  0  0  0  0  # atno 10764 bound_to 10752
  153.7544  135.3293  155.3303 H   0  0  0  0  0  0  0  0  0  0  0  0  # atno 10765 bound_to 10752
  140.2813  134.2970  155.7800 H   0  0  0  0  0  0  0  0  0  0  0  0  # atno 11005 bound_to 11000
  145.4466  141.0426  143.2828 LP  0  0  0  0  0  0  0  0  0  0  0  0  # atno 17320 bound_to 7965
  144.8093  139.5992  143.7036 LP  0  0  0  0  0  0  0  0  0  0  0  0  # atno 17321 bound_to 7965
  140.0734  144.5760  150.7175 LP  0  0  0  0  0  0  0  0  0  0  0  0  # atno 17342 bound_to 10162
  140.7196  143.2576  151.4322 LP  0  0  0  0  0  0  0  0  0  0  0  0  # atno 17343 bound_to 10162
  156.0326  130.3760  150.1646 LP  0  0  0  0  0  0  0  0  0  0  0  0  # atno 17370 bound_to 10713
  156.9834  130.9871  151.3432 LP  0  0  0  0  0  0  0  0  0  0  0  0  # atno 17371 bound_to 10713
  141.2162  133.7527  156.9484 LP  0  0  0  0  0  0  0  0  0  0  0  0  # atno 17394 bound_to 11000
  140.1281  134.9373  157.2299 LP  0  0  0  0  0  0  0  0  0  0  0  0  # atno 17395 bound_to 11000

$$$$
