AV-unprocessed.smi:1135|AV-procd|sdf|4860|dock1
  -GOLD-   22720 3433D 1   1.00000     0.00000
 Structure written by MMmdl.
 46 47  0  0  0  0  0  0  0  0  2 V2000
  151.2346  141.4280  157.0033 C   0  0  0  0  0  0  0  0  0  0  0  0
  150.6463  140.2328  156.2402 C   0  0  2  0  0  0  0  0  0  0  0  0
  150.1432  139.1419  157.1996 C   0  0  0  0  0  0  0  0  0  0  0  0
  149.5514  137.9431  156.4370 C   0  0  0  0  0  0  0  0  0  0  0  0
  150.5187  137.3206  155.3982 C   0  0  1  0  0  0  0  0  0  0  0  0
  151.6511  136.5453  156.1128 C   0  0  0  0  0  0  0  0  0  0  0  0
  149.7086  136.3899  154.6006 N   0  0  0  0  0  0  0  0  0  0  0  0
  149.2129  135.1970  154.9680 C   0  0  0  0  0  0  0  0  0  0  0  0
  149.3182  134.7122  156.0948 O   0  0  0  0  0  0  0  0  0  0  0  0
  148.6257  134.5677  153.9395 N   0  0  0  0  0  0  0  0  0  0  0  0
  148.0926  133.2072  153.9786 C   0  0  0  0  0  0  0  0  0  0  0  0
  147.8228  132.6376  152.5697 C   0  0  0  0  0  0  0  0  0  0  0  0
  146.5898  133.2181  151.8975 C   0  0  0  0  0  0  0  0  0  0  0  0
  145.5240  132.4058  151.4510 C   0  0  0  0  0  0  0  0  0  0  0  0
  144.3882  133.0130  150.8760 C   0  0  0  0  0  0  0  0  0  0  0  0
  144.3440  134.4172  150.7536 C   0  0  0  0  0  0  0  0  0  0  0  0
  145.4389  135.1794  151.2097 C   0  0  0  0  0  0  0  0  0  0  0  0
  146.5080  134.5611  151.7576 N   0  3  0  0  0  0  0  0  0  0  0  0
  151.0788  138.4444  154.4812 C   0  0  0  0  0  0  0  0  0  0  0  0
  151.6653  139.6366  155.2562 C   0  0  0  0  0  0  0  0  0  0  0  0
  152.0970  141.1314  157.6011 H   0  0  0  0  0  0  0  0  0  0  0  0
  150.4970  141.8660  157.6764 H   0  0  0  0  0  0  0  0  0  0  0  0
  151.5589  142.2102  156.3165 H   0  0  0  0  0  0  0  0  0  0  0  0
  149.7937  140.5974  155.6650 H   0  0  0  0  0  0  0  0  0  0  0  0
  150.9566  138.8089  157.8448 H   0  0  0  0  0  0  0  0  0  0  0  0
  149.3835  139.5564  157.8630 H   0  0  0  0  0  0  0  0  0  0  0  0
  149.2241  137.1840  157.1490 H   0  0  0  0  0  0  0  0  0  0  0  0
  148.6466  138.2835  155.9300 H   0  0  0  0  0  0  0  0  0  0  0  0
  152.2280  137.1861  156.7785 H   0  0  0  0  0  0  0  0  0  0  0  0
  152.3589  136.1127  155.4061 H   0  0  0  0  0  0  0  0  0  0  0  0
  151.2514  135.7297  156.7164 H   0  0  0  0  0  0  0  0  0  0  0  0
  149.5459  136.6721  153.6449 H   0  0  0  0  0  0  0  0  0  0  0  0
  148.5807  135.0482  153.0525 H   0  0  0  0  0  0  0  0  0  0  0  0
  148.7704  132.5502  154.5262 H   0  0  0  0  0  0  0  0  0  0  0  0
  147.1635  133.2232  154.5487 H   0  0  0  0  0  0  0  0  0  0  0  0
  148.6884  132.8176  151.9308 H   0  0  0  0  0  0  0  0  0  0  0  0
  147.7134  131.5542  152.6295 H   0  0  0  0  0  0  0  0  0  0  0  0
  145.5675  131.3322  151.5618 H   0  0  0  0  0  0  0  0  0  0  0  0
  143.5591  132.4088  150.5377 H   0  0  0  0  0  0  0  0  0  0  0  0
  143.4824  134.9022  150.3187 H   0  0  0  0  0  0  0  0  0  0  0  0
  145.4888  136.2574  151.1595 H   0  0  0  0  0  0  0  0  0  0  0  0
  151.8441  138.0521  153.8111 H   0  0  0  0  0  0  0  0  0  0  0  0
  150.2799  138.8169  153.8379 H   0  0  0  0  0  0  0  0  0  0  0  0
  151.9883  140.4015  154.5491 H   0  0  0  0  0  0  0  0  0  0  0  0
  152.5614  139.3239  155.7932 H   0  0  0  0  0  0  0  0  0  0  0  0
  147.2827  135.1340  152.0931 H   0  0  0  0  0  0  0  0  0  0  0  0
  1  2  1  0  0  0  0
  1 21  1  0  0  0  0
  1 22  1  0  0  0  0
  1 23  1  0  0  0  0
  2 20  1  0  0  0  0
  2  3  1  0  0  0  0
  2 24  1  0  0  0  0
  3  4  1  0  0  0  0
  3 25  1  0  0  0  0
  3 26  1  0  0  0  0
  4  5  1  0  0  0  0
  4 27  1  0  0  0  0
  4 28  1  0  0  0  0
  5  6  1  0  0  0  0
  5  7  1  0  0  0  0
  5 19  1  0  0  0  0
  6 29  1  0  0  0  0
  6 30  1  0  0  0  0
  6 31  1  0  0  0  0
  7  8  1  0  0  0  0
  7 32  1  0  0  0  0
  8  9  2  0  0  0  0
  8 10  1  0  0  0  0
 10 11  1  0  0  0  0
 10 33  1  0  0  0  0
 11 12  1  0  0  0  0
 11 34  1  0  0  0  0
 11 35  1  0  0  0  0
 12 13  1  0  0  0  0
 12 36  1  0  0  0  0
 12 37  1  0  0  0  0
 13 18  1  0  0  0  0
 13 14  2  0  0  0  0
 14 15  1  0  0  0  0
 14 38  1  0  0  0  0
 15 16  2  0  0  0  0
 15 39  1  0  0  0  0
 16 17  1  0  0  0  0
 16 40  1  0  0  0  0
 17 18  2  0  0  0  0
 17 41  1  0  0  0  0
 18 46  1  0  0  0  0
 19 20  1  0  0  0  0
 19 42  1  0  0  0  0
 19 43  1  0  0  0  0
 20 44  1  0  0  0  0
 20 45  1  0  0  0  0
M  CHG  1  18   1
M  END
> <s_m_source_file>
AV-unprocessed.smi

> <i_m_source_file_index>
1135

> <i_lp_mmshare_version>
43012

> <i_f3d_flags>
0

> <s_epik_input>
W0NIMl0xW0NIMl1bQ0BIXShbQ0gzXSlbQ0gyXVtDSDJdW0NAQF0xKFtDSDNdKVtOSF1DKD1PKVtOSF1bQ0gyXVtDSDJdYzJbY0hdW2NIXVtjSF1bY0hdbjI=

> <s_epik_cmdline>
J2VwaWtfcHl0aG9uJywgJy1waCcsICc3LjAnLCAnLXRuJywgJzgnLCAnLW1hJywgJzIwMCcsICctbWV0YWxfYmluZGluZycsICctaW1hZScsICc8aW5maWxlLm1hZT4nLCAnLW9tYWUnLCAnPG91dGZpbGUubWFlPic=

> <r_epik_Ionization_Penalty>
1.55217

> <r_epik_Ionization_Penalty_Charging>
1.55211

> <r_epik_Ionization_Penalty_Neutral>
5.91929e-05

> <r_epik_State_Penalty>
1.64641

> <r_epik_Charging_Adjusted_Penalty>
3.19851

> <i_epik_Tot_Q>
1

> <i_epik_Tot_abs_Q>
1

> <r_epik_Metal_State_Penalty>
1.68848

> <b_epik_Metal_Only>
0

> <s_lp_Force_Field>
OPLS_2005

> <r_lp_Energy>
15.0823

> <b_lp_Chiralities_Consistent>
1

> <s_lp_Variant>
AV-unprocessed.smi:1135-3

> <Gold.Version>
5.8.1

> <Gold.Id.Protein>
6NUR|6NUR_protein|mol2

> <Gold.PLP.Fitness>
45.4301

> <Gold.PLP.PLP>
-34.1764

> <Gold.PLP.part.hbond>
-3.0000

> <Gold.PLP.part.metal>
0.0000

> <Gold.PLP.part.buried>
-3.2681

> <Gold.PLP.part.nonpolar>
-27.5924

> <Gold.PLP.part.repulsive>
0.1171

> <Gold.PLP.ligand.clash>
0.0000

> <Gold.PLP.ligand.torsion>
0.3552

> <Gold.PLP.Chemscore.Hbond>
3.9760

> <Gold.PLP.Chemscore.CHOScore>
0.0000

> <Gold.PLP.Chemscore.Metal>
0.0000

> <Gold.Chemscore.Hbonds>
donor molecule, donor type, donor heavy atom, donor atom, acceptor molecule, acceptor atom, score
      L1  H     7    32       P1  7948  0.99
      L1  H    10    33       P1  7948  1.00
      L1  H    18    46       P1  7948  2.00

> <Gold.PLP.Chemscore.Internal.Correction>
0.0360

> <Gold.Rescore>
     Score         DG    S(hbond)    S(metal)    S(lipo)     H(rot)  DE(clash)    DE(int)     intcor
     19.59     -20.52       2.77        0.00      82.54       1.51       0.00       0.92       ----

> <Gold.Chemscore.Fitness>
19.5902

> <Gold.Chemscore.DG>
-20.5178

> <Gold.Chemscore.ZeroCoef>
-5.4800

> <Gold.Chemscore.Hbond>
2.7671

> <Gold.Chemscore.Metal>
0.0000

> <Gold.Chemscore.Lipo>
82.5416

> <Gold.Chemscore.Internal_Hbond>
0.0000

> <Gold.Chemscore.DEClash>
0.0029

> <Gold.Chemscore.DEInternal>
0.9247

> <Gold.Chemscore.Rot>
1.5085

> <Gold.Chemscore.Internal.Correction>
   9.000000E+99

> <Gold.Chemscore.Hbonds>
donor molecule, donor type, donor heavy atom, donor atom, acceptor molecule, acceptor atom, score
      L1  H     7    32       P1  7948  0.74
      L1  H    10    33       P1  7948  0.65
      L1  H    18    46       P1  7948  0.94

> <Gold.Chemscore.Hbond.Weighted>
-9.2421

> <Gold.Chemscore.Metal.Weighted>
-0.0000

> <Gold.Chemscore.Lipo.Weighted>
-9.6574

> <Gold.Chemscore.Internal_Hbond.Weighted>
0.0000

> <Gold.Chemscore.DEClash.Weighted>
0.0029

> <Gold.Chemscore.DEInternal.Weighted>
0.9247

> <Gold.Chemscore.Rot.Weighted>
3.8617

> <Gold.Chemscore.Internal.Correction.Weighted>
   9.000000E+99

> <Gold.Protein.RotatedTorsions>
[ 6907 6896 6895 6894 ] final  125.03 input  -60.11 | X-H torsion
[ 7974 7965 7964 7962 ] final  132.74 input  175.53 | X-H torsion
[ 8008 7997 7996 7995 ] final -134.88 input   59.86 | X-H torsion
[ 10167 10162 10161 10158 ] final   41.19 input  -65.29 | X-H torsion
[ 10718 10713 10712 10709 ] final  -93.88 input   66.30 | X-H torsion
[ 10763 10752 10751 10750 ] final  157.29 input  -60.55 | X-H torsion
[ 11005 11000 10999 10996 ] final  154.26 input  -57.11 | X-H torsion

> <Gold.Protein.ActiveResidues>
 VAL166  LYS551  ARG553  GLY616  TRP617  ASP618  TYR619  PRO620  LYS621  CYS622 
 ASP623  PHE694  ASN695  SER759  ASP760  ASP761  ALA762  ILE779  LEU786  VAL792 
 PHE793  MET794  SER795  GLU796  ALA797  LYS798  CYS799  TRP800  GLU811  SER814 

> <Gold.Protein.RotatedAtoms>
  152.4027  133.6843  159.6330 H   0  0  0  0  0  0  0  0  0  0  0  0  # atno 6907 bound_to 6896
  150.7916  133.8762  159.3281 H   0  0  0  0  0  0  0  0  0  0  0  0  # atno 6908 bound_to 6896
  151.6524  135.1001  160.0214 H   0  0  0  0  0  0  0  0  0  0  0  0  # atno 6909 bound_to 6896
  144.9937  139.4380  143.5326 H   0  0  0  0  0  0  0  0  0  0  0  0  # atno 7974 bound_to 7965
  155.3695  140.0487  157.3045 H   0  0  0  0  0  0  0  0  0  0  0  0  # atno 8008 bound_to 7997
  154.5137  140.2201  155.9070 H   0  0  0  0  0  0  0  0  0  0  0  0  # atno 8009 bound_to 7997
  156.1612  140.3116  155.8816 H   0  0  0  0  0  0  0  0  0  0  0  0  # atno 8010 bound_to 7997
  140.3667  144.2158  150.6135 H   0  0  0  0  0  0  0  0  0  0  0  0  # atno 10167 bound_to 10162
  156.0019  130.5045  150.5843 H   0  0  0  0  0  0  0  0  0  0  0  0  # atno 10718 bound_to 10713
  154.1980  135.2791  155.3000 H   0  0  0  0  0  0  0  0  0  0  0  0  # atno 10763 bound_to 10752
  154.5877  135.5569  153.7251 H   0  0  0  0  0  0  0  0  0  0  0  0  # atno 10764 bound_to 10752
  153.0095  135.6360  154.2118 H   0  0  0  0  0  0  0  0  0  0  0  0  # atno 10765 bound_to 10752
  140.1472  134.8699  157.2408 H   0  0  0  0  0  0  0  0  0  0  0  0  # atno 11005 bound_to 11000
  146.3437  139.9284  142.8757 LP  0  0  0  0  0  0  0  0  0  0  0  0  # atno 17320 bound_to 7965
  145.2249  140.9950  143.4024 LP  0  0  0  0  0  0  0  0  0  0  0  0  # atno 17321 bound_to 7965
  140.5074  143.2300  151.8588 LP  0  0  0  0  0  0  0  0  0  0  0  0  # atno 17342 bound_to 10162
  139.4808  144.4990  151.9086 LP  0  0  0  0  0  0  0  0  0  0  0  0  # atno 17343 bound_to 10162
  157.3718  131.0767  151.1551 LP  0  0  0  0  0  0  0  0  0  0  0  0  # atno 17370 bound_to 10713
  157.2302  130.6522  149.5847 LP  0  0  0  0  0  0  0  0  0  0  0  0  # atno 17371 bound_to 10713
  140.2649  134.3528  155.7393 LP  0  0  0  0  0  0  0  0  0  0  0  0  # atno 17394 bound_to 11000
  141.2194  133.7390  156.9135 LP  0  0  0  0  0  0  0  0  0  0  0  0  # atno 17395 bound_to 11000

$$$$
