AV-unprocessed.smi:2033|AV-procd|sdf|8261|dock7
  -GOLD-   2272010533D 1   1.00000     0.00000
 Structure written by MMmdl.
 32 33  0  0  0  0  0  0  0  0  2 V2000
  150.2003  133.9740  155.4802 C   0  0  0  0  0  0  0  0  0  0  0  0
  150.3142  135.4577  155.5601 C   0  0  0  0  0  0  0  0  0  0  0  0
  151.4666  136.0810  155.8181 N   0  0  0  0  0  0  0  0  0  0  0  0
  151.3210  137.4607  155.8394 N   0  0  0  0  0  0  0  0  0  0  0  0
  150.0667  137.8611  155.5871 C   0  0  0  0  0  0  0  0  0  0  0  0
  149.7140  139.1570  155.5632 N   0  5  0  0  0  0  0  0  0  0  0  0
  150.5416  140.0913  156.0844 C   0  0  0  0  0  0  0  0  0  0  0  0
  151.4571  140.6681  155.4923 O   0  0  0  0  0  0  0  0  0  0  0  0
  150.2924  140.3766  157.3719 N   0  0  0  0  0  0  0  0  0  0  0  0
  151.0078  141.3517  158.1981 C   0  0  2  0  0  0  0  0  0  0  0  0
  151.0532  142.6946  157.4267 C   0  0  0  0  0  0  0  0  0  0  0  0
  152.0755  143.7398  157.9275 C   0  0  0  0  0  0  0  0  0  0  0  0
  152.1383  143.9145  159.4589 C   0  0  0  0  0  0  0  0  0  0  0  0
  152.5438  142.6672  160.2870 C   0  0  0  0  0  0  0  0  0  0  0  0
  153.0938  141.5600  159.5045 N   0  0  0  0  0  0  0  0  0  0  0  0
  152.4436  140.8913  158.5368 C   0  0  0  0  0  0  0  0  0  0  0  0
  152.9814  139.9699  157.9237 O   0  0  0  0  0  0  0  0  0  0  0  0
  148.9439  136.5279  155.3198 S   0  0  0  0  0  0  0  0  0  0  0  0
  150.5762  133.6232  154.5191 H   0  0  0  0  0  0  0  0  0  0  0  0
  149.1590  133.6684  155.5822 H   0  0  0  0  0  0  0  0  0  0  0  0
  150.7795  133.5067  156.2771 H   0  0  0  0  0  0  0  0  0  0  0  0
  149.5296  139.8836  157.8121 H   0  0  0  0  0  0  0  0  0  0  0  0
  150.4439  141.4875  159.1219 H   0  0  0  0  0  0  0  0  0  0  0  0
  151.2562  142.5090  156.3706 H   0  0  0  0  0  0  0  0  0  0  0  0
  150.0566  143.1365  157.4595 H   0  0  0  0  0  0  0  0  0  0  0  0
  153.0693  143.4874  157.5549 H   0  0  0  0  0  0  0  0  0  0  0  0
  151.8406  144.7013  157.4702 H   0  0  0  0  0  0  0  0  0  0  0  0
  152.8532  144.7102  159.6713 H   0  0  0  0  0  0  0  0  0  0  0  0
  151.1786  144.2851  159.8206 H   0  0  0  0  0  0  0  0  0  0  0  0
  153.2839  142.9529  161.0349 H   0  0  0  0  0  0  0  0  0  0  0  0
  151.6871  142.3015  160.8546 H   0  0  0  0  0  0  0  0  0  0  0  0
  154.0365  141.2707  159.7217 H   0  0  0  0  0  0  0  0  0  0  0  0
  1  2  1  0  0  0  0
  1 19  1  0  0  0  0
  1 20  1  0  0  0  0
  1 21  1  0  0  0  0
  2 18  1  0  0  0  0
  2  3  2  0  0  0  0
  3  4  1  0  0  0  0
  4  5  2  0  0  0  0
  5  6  1  0  0  0  0
  5 18  1  0  0  0  0
  6  7  1  0  0  0  0
  7  8  2  0  0  0  0
  7  9  1  0  0  0  0
  9 10  1  0  0  0  0
  9 22  1  0  0  0  0
 10 16  1  0  0  0  0
 10 11  1  0  0  0  0
 10 23  1  0  0  0  0
 11 12  1  0  0  0  0
 11 24  1  0  0  0  0
 11 25  1  0  0  0  0
 12 13  1  0  0  0  0
 12 26  1  0  0  0  0
 12 27  1  0  0  0  0
 13 14  1  0  0  0  0
 13 28  1  0  0  0  0
 13 29  1  0  0  0  0
 14 15  1  0  0  0  0
 14 30  1  0  0  0  0
 14 31  1  0  0  0  0
 15 16  1  0  0  0  0
 15 32  1  0  0  0  0
 16 17  2  0  0  0  0
M  CHG  1   6  -1
M  END
> <s_m_source_file>
AV-unprocessed.smi

> <i_m_source_file_index>
2033

> <i_lp_mmshare_version>
43012

> <i_f3d_flags>
0

> <s_epik_input>
W0NIM11jMW5uYyhzMSlbTkhdQyg9TylbTkhdW0NAQEhdMltDSDJdW0NIMl1bQ0gyXVtDSDJdW05IXUMyPU8=

> <s_epik_cmdline>
J2VwaWtfcHl0aG9uJywgJy1waCcsICc3LjAnLCAnLXRuJywgJzgnLCAnLW1hJywgJzIwMCcsICctbWV0YWxfYmluZGluZycsICctaW1hZScsICc8aW5maWxlLm1hZT4nLCAnLW9tYWUnLCAnPG91dGZpbGUubWFlPic=

> <r_lp_tautomer_probability>
1

> <r_epik_Ionization_Penalty>
4.07233

> <r_epik_Ionization_Penalty_Charging>
3.9374

> <r_epik_Ionization_Penalty_Neutral>
0.134927

> <r_epik_State_Penalty>
3.93663

> <r_epik_Charging_Adjusted_Penalty>
7.87404

> <i_epik_Tot_Q>
-1

> <i_epik_Tot_abs_Q>
1

> <r_epik_Metal_State_Penalty>
0.602812

> <b_epik_Metal_Only>
1

> <s_lp_Force_Field>
OPLS_2005

> <r_lp_Energy>
13.5644

> <b_lp_Chiralities_Consistent>
1

> <s_lp_Variant>
AV-unprocessed.smi:2033-3

> <Gold.Version>
5.8.1

> <Gold.Id.Protein>
6NUR|6NUR_protein|mol2

> <Gold.PLP.Fitness>
35.3366

> <Gold.PLP.PLP>
-28.9040

> <Gold.PLP.part.hbond>
-3.0000

> <Gold.PLP.part.metal>
0.0000

> <Gold.PLP.part.buried>
-3.8572

> <Gold.PLP.part.nonpolar>
-21.7479

> <Gold.PLP.part.repulsive>
0.2202

> <Gold.PLP.ligand.clash>
0.0000

> <Gold.PLP.ligand.torsion>
0.8885

> <Gold.PLP.Chemscore.Hbond>
2.7360

> <Gold.PLP.Chemscore.CHOScore>
0.0000

> <Gold.PLP.Chemscore.Metal>
0.0000

> <Gold.Chemscore.Hbonds>
donor molecule, donor type, donor heavy atom, donor atom, acceptor molecule, acceptor atom, score
      P1  H  7989  7998       L1     8  0.75
      P1  H  7997  8010       L1    17  1.00
      P1  H 10752 10763       L1     3  1.00

> <Gold.PLP.Chemscore.Internal.Correction>
0.0017

> <Gold.Rescore>
     Score         DG    S(hbond)    S(metal)    S(lipo)     H(rot)  DE(clash)    DE(int)     intcor
     16.69     -19.27       2.53        0.00      67.47       1.00       0.14       2.43       ----

> <Gold.Chemscore.Fitness>
16.6939

> <Gold.Chemscore.DG>
-19.2685

> <Gold.Chemscore.ZeroCoef>
-5.4800

> <Gold.Chemscore.Hbond>
2.5314

> <Gold.Chemscore.Metal>
0.0000

> <Gold.Chemscore.Lipo>
67.4680

> <Gold.Chemscore.Internal_Hbond>
0.0000

> <Gold.Chemscore.DEClash>
0.1419

> <Gold.Chemscore.DEInternal>
2.4328

> <Gold.Chemscore.Rot>
1.0000

> <Gold.Chemscore.Internal.Correction>
   9.000000E+99

> <Gold.Chemscore.Hbonds>
donor molecule, donor type, donor heavy atom, donor atom, acceptor molecule, acceptor atom, score
      P1  H  7989  7998       L1     8  0.73
      P1  H  7997  8010       L1    17  0.97
      P1  H 10752 10763       L1     3  0.77

> <Gold.Chemscore.Hbond.Weighted>
-8.4548

> <Gold.Chemscore.Metal.Weighted>
-0.0000

> <Gold.Chemscore.Lipo.Weighted>
-7.8938

> <Gold.Chemscore.Internal_Hbond.Weighted>
0.0000

> <Gold.Chemscore.DEClash.Weighted>
0.1419

> <Gold.Chemscore.DEInternal.Weighted>
2.4328

> <Gold.Chemscore.Rot.Weighted>
2.5600

> <Gold.Chemscore.Internal.Correction.Weighted>
   9.000000E+99

> <Gold.Protein.RotatedTorsions>
[ 6907 6896 6895 6894 ] final -151.87 input  -60.11 | X-H torsion
[ 7974 7965 7964 7962 ] final  -94.49 input  175.53 | X-H torsion
[ 8008 7997 7996 7995 ] final   36.62 input   59.86 | X-H torsion
[ 10167 10162 10161 10158 ] final  -10.41 input  -65.29 | X-H torsion
[ 10718 10713 10712 10709 ] final  164.22 input   66.30 | X-H torsion
[ 10763 10752 10751 10750 ] final   73.00 input  -60.55 | X-H torsion
[ 11005 11000 10999 10996 ] final -164.61 input  -57.11 | X-H torsion

> <Gold.Protein.ActiveResidues>
 VAL166  LYS551  ARG553  GLY616  TRP617  ASP618  TYR619  PRO620  LYS621  CYS622 
 ASP623  PHE694  ASN695  SER759  ASP760  ASP761  ALA762  ILE779  LEU786  VAL792 
 PHE793  MET794  SER795  GLU796  ALA797  LYS798  CYS799  TRP800  GLU811  SER814 

> <Gold.Protein.RotatedAtoms>
  151.2194  133.4511  159.2600 H   0  0  0  0  0  0  0  0  0  0  0  0  # atno 6907 bound_to 6896
  151.0899  134.9910  159.8408 H   0  0  0  0  0  0  0  0  0  0  0  0  # atno 6908 bound_to 6896
  152.5433  134.2128  159.8809 H   0  0  0  0  0  0  0  0  0  0  0  0  # atno 6909 bound_to 6896
  145.3726  140.9507  143.2438 H   0  0  0  0  0  0  0  0  0  0  0  0  # atno 7974 bound_to 7965
  155.1904  140.3307  155.4359 H   0  0  0  0  0  0  0  0  0  0  0  0  # atno 8008 bound_to 7997
  156.2444  140.1911  156.6947 H   0  0  0  0  0  0  0  0  0  0  0  0  # atno 8009 bound_to 7997
  154.6210  140.0595  156.9600 H   0  0  0  0  0  0  0  0  0  0  0  0  # atno 8010 bound_to 7997
  140.7113  143.5751  150.9051 H   0  0  0  0  0  0  0  0  0  0  0  0  # atno 10167 bound_to 10162
  157.0974  131.0434  151.2512 H   0  0  0  0  0  0  0  0  0  0  0  0  # atno 10718 bound_to 10713
  153.0494  135.5079  154.7828 H   0  0  0  0  0  0  0  0  0  0  0  0  # atno 10763 bound_to 10752
  154.6703  135.2952  154.9753 H   0  0  0  0  0  0  0  0  0  0  0  0  # atno 10764 bound_to 10752
  154.0574  135.6695  153.4860 H   0  0  0  0  0  0  0  0  0  0  0  0  # atno 10765 bound_to 10752
  140.5849  134.5103  157.5184 H   0  0  0  0  0  0  0  0  0  0  0  0  # atno 11005 bound_to 11000
  144.8565  139.5242  143.6832 LP  0  0  0  0  0  0  0  0  0  0  0  0  # atno 17320 bound_to 7965
  146.2878  139.7054  142.9183 LP  0  0  0  0  0  0  0  0  0  0  0  0  # atno 17321 bound_to 7965
  139.9477  143.6308  152.3037 LP  0  0  0  0  0  0  0  0  0  0  0  0  # atno 17342 bound_to 10162
  139.6815  144.7655  151.1599 LP  0  0  0  0  0  0  0  0  0  0  0  0  # atno 17343 bound_to 10162
  157.4670  130.7686  149.7288 LP  0  0  0  0  0  0  0  0  0  0  0  0  # atno 17370 bound_to 10713
  155.9882  130.3961  150.3128 LP  0  0  0  0  0  0  0  0  0  0  0  0  # atno 17371 bound_to 10713
  139.9300  134.7982  156.0958 LP  0  0  0  0  0  0  0  0  0  0  0  0  # atno 17394 bound_to 11000
  141.0972  133.6691  156.2672 LP  0  0  0  0  0  0  0  0  0  0  0  0  # atno 17395 bound_to 11000

$$$$
