AV-unprocessed.smi:2103|AV-procd|sdf|8582|dock7
  -GOLD-   2272011313D 1   1.00000     0.00000
 Structure written by MMmdl.
 38 39  0  0  0  0  0  0  0  0  1 V2000
  144.9759  143.3471  156.6377 C   0  0  0  0  0  0  0  0  0  0  0  0
  145.8941  142.7516  155.6897 N   0  0  0  0  0  0  0  0  0  0  0  0
  145.8392  143.1527  154.3326 C   0  0  0  0  0  0  0  0  0  0  0  0
  145.0358  143.9889  153.9186 O   0  0  0  0  0  0  0  0  0  0  0  0
  146.8070  142.4877  153.4682 C   0  0  0  0  0  0  0  0  0  0  0  0
  147.6622  141.5662  153.9628 C   0  0  0  0  0  0  0  0  0  0  0  0
  147.6875  141.1849  155.2918 N   0  0  0  0  0  0  0  0  0  0  0  0
  148.6563  140.1750  155.7385 C   0  0  0  0  0  0  0  0  0  0  0  0
  150.0590  140.7410  156.0032 C   0  0  0  0  0  0  0  0  0  0  0  0
  150.9991  140.4962  155.2456 O   0  0  0  0  0  0  0  0  0  0  0  0
  150.1808  141.4983  157.1037 N   0  0  0  0  0  0  0  0  0  0  0  0
  151.4079  142.1490  157.5532 C   0  0  0  0  0  0  0  0  0  0  0  0
  151.9382  141.4941  158.8468 C   0  0  0  0  0  0  0  0  0  0  0  0
  153.1835  142.2232  159.3768 C   0  0  0  0  0  0  0  0  0  0  0  0
  152.9063  143.7193  159.5912 C   0  0  0  0  0  0  0  0  0  0  0  0
  152.3865  144.3763  158.3032 C   0  0  0  0  0  0  0  0  0  0  0  0
  151.1395  143.6503  157.7730 C   0  0  0  0  0  0  0  0  0  0  0  0
  146.7830  141.7790  156.1979 C   0  0  0  0  0  0  0  0  0  0  0  0
  146.7772  141.4520  157.3875 O   0  0  0  0  0  0  0  0  0  0  0  0
  144.4491  144.1937  156.1984 H   0  0  0  0  0  0  0  0  0  0  0  0
  145.5605  143.6987  157.4900 H   0  0  0  0  0  0  0  0  0  0  0  0
  144.2714  142.5674  156.9314 H   0  0  0  0  0  0  0  0  0  0  0  0
  146.8391  142.7368  152.4176 H   0  0  0  0  0  0  0  0  0  0  0  0
  148.3623  141.1049  153.2813 H   0  0  0  0  0  0  0  0  0  0  0  0
  148.2946  139.6792  156.6410 H   0  0  0  0  0  0  0  0  0  0  0  0
  148.7402  139.3890  154.9865 H   0  0  0  0  0  0  0  0  0  0  0  0
  149.3576  141.6424  157.6702 H   0  0  0  0  0  0  0  0  0  0  0  0
  152.1636  142.0500  156.7714 H   0  0  0  0  0  0  0  0  0  0  0  0
  151.1604  141.5039  159.6118 H   0  0  0  0  0  0  0  0  0  0  0  0
  152.1820  140.4462  158.6691 H   0  0  0  0  0  0  0  0  0  0  0  0
  153.5104  141.7680  160.3121 H   0  0  0  0  0  0  0  0  0  0  0  0
  154.0051  142.1013  158.6699 H   0  0  0  0  0  0  0  0  0  0  0  0
  152.1716  143.8445  160.3877 H   0  0  0  0  0  0  0  0  0  0  0  0
  153.8142  144.2220  159.9257 H   0  0  0  0  0  0  0  0  0  0  0  0
  152.1548  145.4253  158.4895 H   0  0  0  0  0  0  0  0  0  0  0  0
  153.1685  144.3621  157.5430 H   0  0  0  0  0  0  0  0  0  0  0  0
  150.8150  144.1134  156.8404 H   0  0  0  0  0  0  0  0  0  0  0  0
  150.3208  143.7790  158.4826 H   0  0  0  0  0  0  0  0  0  0  0  0
  1  2  1  0  0  0  0
  1 20  1  0  0  0  0
  1 21  1  0  0  0  0
  1 22  1  0  0  0  0
  2 18  1  0  0  0  0
  2  3  1  0  0  0  0
  3  4  2  0  0  0  0
  3  5  1  0  0  0  0
  5  6  2  0  0  0  0
  5 23  1  0  0  0  0
  6  7  1  0  0  0  0
  6 24  1  0  0  0  0
  7  8  1  0  0  0  0
  7 18  1  0  0  0  0
  8  9  1  0  0  0  0
  8 25  1  0  0  0  0
  8 26  1  0  0  0  0
  9 10  2  0  0  0  0
  9 11  1  0  0  0  0
 11 12  1  0  0  0  0
 11 27  1  0  0  0  0
 12 17  1  0  0  0  0
 12 13  1  0  0  0  0
 12 28  1  0  0  0  0
 13 14  1  0  0  0  0
 13 29  1  0  0  0  0
 13 30  1  0  0  0  0
 14 15  1  0  0  0  0
 14 31  1  0  0  0  0
 14 32  1  0  0  0  0
 15 16  1  0  0  0  0
 15 33  1  0  0  0  0
 15 34  1  0  0  0  0
 16 17  1  0  0  0  0
 16 35  1  0  0  0  0
 16 36  1  0  0  0  0
 17 37  1  0  0  0  0
 17 38  1  0  0  0  0
 18 19  2  0  0  0  0
M  END
> <s_m_source_file>
AV-unprocessed.smi

> <i_m_source_file_index>
2103

> <i_lp_mmshare_version>
43012

> <i_f3d_flags>
0

> <s_epik_input>
W0NIM11uMWMoPU8pW2NIXVtjSF1uKGMxPU8pW0NIMl1DKD1PKVtOSF1bQ0hdMltDSDJdW0NIMl1bQ0gyXVtDSDJdW0NIMl0y

> <s_epik_cmdline>
J2VwaWtfcHl0aG9uJywgJy1waCcsICc3LjAnLCAnLXRuJywgJzgnLCAnLW1hJywgJzIwMCcsICctbWV0YWxfYmluZGluZycsICctaW1hZScsICc8aW5maWxlLm1hZT4nLCAnLW9tYWUnLCAnPG91dGZpbGUubWFlPic=

> <r_lp_tautomer_probability>
1

> <r_epik_Ionization_Penalty>
3.18221e-08

> <r_epik_Ionization_Penalty_Charging>
1.27752e-08

> <r_epik_Ionization_Penalty_Neutral>
1.90469e-08

> <r_epik_State_Penalty>
-0

> <r_epik_Charging_Adjusted_Penalty>
1.27752e-08

> <i_epik_Tot_Q>
0

> <i_epik_Tot_abs_Q>
0

> <r_epik_Metal_State_Penalty>
-0

> <b_epik_Metal_Only>
0

> <s_lp_Force_Field>
OPLS_2005

> <r_lp_Energy>
16.4869

> <b_lp_Chiralities_Consistent>
1

> <s_lp_Variant>
AV-unprocessed.smi:2103-1

> <Gold.Version>
5.8.1

> <Gold.Id.Protein>
6NUR|6NUR_protein|mol2

> <Gold.PLP.Fitness>
41.5792

> <Gold.PLP.PLP>
-36.5950

> <Gold.PLP.part.hbond>
-1.0000

> <Gold.PLP.part.metal>
0.0000

> <Gold.PLP.part.buried>
-6.5239

> <Gold.PLP.part.nonpolar>
-29.3709

> <Gold.PLP.part.repulsive>
0.3455

> <Gold.PLP.ligand.clash>
0.0000

> <Gold.PLP.ligand.torsion>
0.4984

> <Gold.PLP.Chemscore.Hbond>
0.9920

> <Gold.PLP.Chemscore.CHOScore>
1.0000

> <Gold.PLP.Chemscore.Metal>
0.0000

> <Gold.Chemscore.Hbonds>
donor molecule, donor type, donor heavy atom, donor atom, acceptor molecule, acceptor atom, score
      P1  H  7989  7998       L1    10  0.98
      L1  C     6    24       P1  7957  0.65

> <Gold.PLP.Chemscore.Internal.Correction>
0.0050

> <Gold.Rescore>
     Score         DG    S(hbond)    S(metal)    S(lipo)     H(rot)  DE(clash)    DE(int)     intcor
     14.42     -14.88       0.91        0.00      88.10       1.54       0.10       0.37       ----

> <Gold.Chemscore.Fitness>
14.4197

> <Gold.Chemscore.DG>
-14.8830

> <Gold.Chemscore.ZeroCoef>
-5.4800

> <Gold.Chemscore.Hbond>
0.9082

> <Gold.Chemscore.Metal>
0.0000

> <Gold.Chemscore.Lipo>
88.0995

> <Gold.Chemscore.Internal_Hbond>
0.0000

> <Gold.Chemscore.DEClash>
0.0970

> <Gold.Chemscore.DEInternal>
0.3664

> <Gold.Chemscore.Rot>
1.5383

> <Gold.Chemscore.Internal.Correction>
   9.000000E+99

> <Gold.Chemscore.Hbonds>
donor molecule, donor type, donor heavy atom, donor atom, acceptor molecule, acceptor atom, score
      P1  H  7989  7998       L1    10  0.93

> <Gold.Chemscore.Hbond.Weighted>
-3.0334

> <Gold.Chemscore.Metal.Weighted>
-0.0000

> <Gold.Chemscore.Lipo.Weighted>
-10.3076

> <Gold.Chemscore.Internal_Hbond.Weighted>
0.0000

> <Gold.Chemscore.DEClash.Weighted>
0.0970

> <Gold.Chemscore.DEInternal.Weighted>
0.3664

> <Gold.Chemscore.Rot.Weighted>
3.9380

> <Gold.Chemscore.Internal.Correction.Weighted>
   9.000000E+99

> <Gold.Protein.RotatedTorsions>
[ 6907 6896 6895 6894 ] final   23.68 input  -60.11 | X-H torsion
[ 7974 7965 7964 7962 ] final -152.69 input  175.53 | X-H torsion
[ 8008 7997 7996 7995 ] final   45.01 input   59.86 | X-H torsion
[ 10167 10162 10161 10158 ] final   -5.01 input  -65.29 | X-H torsion
[ 10718 10713 10712 10709 ] final -136.59 input   66.30 | X-H torsion
[ 10763 10752 10751 10750 ] final   70.44 input  -60.55 | X-H torsion
[ 11005 11000 10999 10996 ] final  -63.63 input  -57.11 | X-H torsion

> <Gold.Protein.ActiveResidues>
 VAL166  LYS551  ARG553  GLY616  TRP617  ASP618  TYR619  PRO620  LYS621  CYS622 
 ASP623  PHE694  ASN695  SER759  ASP760  ASP761  ALA762  ILE779  LEU786  VAL792 
 PHE793  MET794  SER795  GLU796  ALA797  LYS798  CYS799  TRP800  GLU811  SER814 

> <Gold.Protein.RotatedAtoms>
  151.9461  135.0191  160.0538 H   0  0  0  0  0  0  0  0  0  0  0  0  # atno 6907 bound_to 6896
  152.1994  133.4825  159.5059 H   0  0  0  0  0  0  0  0  0  0  0  0  # atno 6908 bound_to 6896
  150.6951  134.1527  159.4189 H   0  0  0  0  0  0  0  0  0  0  0  0  # atno 6909 bound_to 6896
  144.7781  140.4628  143.5859 H   0  0  0  0  0  0  0  0  0  0  0  0  # atno 7974 bound_to 7965
  155.3289  140.3401  155.4240 H   0  0  0  0  0  0  0  0  0  0  0  0  # atno 8008 bound_to 7997
  156.1872  140.1684  156.8199 H   0  0  0  0  0  0  0  0  0  0  0  0  # atno 8009 bound_to 7997
  154.5399  140.0727  156.8476 H   0  0  0  0  0  0  0  0  0  0  0  0  # atno 8010 bound_to 7997
  140.6948  143.6357  150.8481 H   0  0  0  0  0  0  0  0  0  0  0  0  # atno 10167 bound_to 10162
  156.2787  130.7308  151.1299 H   0  0  0  0  0  0  0  0  0  0  0  0  # atno 10718 bound_to 10713
  153.0342  135.5174  154.7441 H   0  0  0  0  0  0  0  0  0  0  0  0  # atno 10763 bound_to 10752
  154.6431  135.2915  155.0081 H   0  0  0  0  0  0  0  0  0  0  0  0  # atno 10764 bound_to 10752
  154.0991  135.6639  153.4918 H   0  0  0  0  0  0  0  0  0  0  0  0  # atno 10765 bound_to 10752
  141.1399  133.6654  156.5709 H   0  0  0  0  0  0  0  0  0  0  0  0  # atno 11005 bound_to 11000
  145.6129  139.1515  143.3065 LP  0  0  0  0  0  0  0  0  0  0  0  0  # atno 17320 bound_to 7965
  146.1972  140.6244  142.9119 LP  0  0  0  0  0  0  0  0  0  0  0  0  # atno 17321 bound_to 7965
  140.0074  143.5679  152.2852 LP  0  0  0  0  0  0  0  0  0  0  0  0  # atno 17342 bound_to 10162
  139.6390  144.7653  151.2378 LP  0  0  0  0  0  0  0  0  0  0  0  0  # atno 17343 bound_to 10162
  157.7307  131.0614  150.5711 LP  0  0  0  0  0  0  0  0  0  0  0  0  # atno 17370 bound_to 10713
  156.5815  130.4305  149.5975 LP  0  0  0  0  0  0  0  0  0  0  0  0  # atno 17371 bound_to 10713
  140.3914  134.7437  157.4723 LP  0  0  0  0  0  0  0  0  0  0  0  0  # atno 17394 bound_to 11000
  140.0564  134.6058  155.8801 LP  0  0  0  0  0  0  0  0  0  0  0  0  # atno 17395 bound_to 11000

$$$$
