AV-unprocessed.smi:1099|AV-procd|sdf|4758|dock4
  -GOLD-   22720 3293D 1   1.00000     0.00000
 Structure written by MMmdl.
 41 43  0  0  0  0  0  0  0  0  1 V2000
  153.1719  142.3338  162.0966 C   0  0  0  0  0  0  0  0  0  0  0  0
  153.6559  142.1545  160.6548 C   0  0  0  0  0  0  0  0  0  0  0  0
  152.7077  142.7225  159.6524 C   0  0  0  0  0  0  0  0  0  0  0  0
  152.2386  142.0340  158.6086 N   0  0  0  0  0  0  0  0  0  0  0  0
  151.3703  142.7877  157.8117 C   0  0  0  0  0  0  0  0  0  0  0  0
  150.7373  142.1697  156.5983 C   0  0  0  0  0  0  0  0  0  0  0  0
  149.6032  141.1767  156.9193 C   0  0  0  0  0  0  0  0  0  0  0  0
  149.6810  139.9485  156.1305 N   0  0  0  0  0  0  0  0  0  0  0  0
  150.0108  139.8778  154.8305 C   0  0  0  0  0  0  0  0  0  0  0  0
  150.2804  140.8697  154.1522 O   0  0  0  0  0  0  0  0  0  0  0  0
  150.0309  138.4699  154.2097 C   0  0  1  0  0  0  0  0  0  0  0  0
  151.4252  138.0510  153.6826 C   0  0  0  0  0  0  0  0  0  0  0  0
  151.7009  136.7263  154.4206 C   0  0  2  0  0  0  0  0  0  0  0  0
  150.7521  135.6371  153.8859 C   0  0  0  0  0  0  0  0  0  0  0  0
  149.3901  136.0553  154.4742 C   0  0  0  0  0  0  0  0  0  0  0  0
  149.7362  137.3482  155.2378 C   0  0  1  0  0  0  0  0  0  0  0  0
  151.1149  137.0000  155.7984 C   0  0  0  0  0  0  0  0  0  0  0  0
  151.1659  144.0588  158.2878 C   0  0  0  0  0  0  0  0  0  0  0  0
  152.0542  144.3529  159.7570 S   0  0  0  0  0  0  0  0  0  0  0  0
  153.8947  141.9253  162.8031 H   0  0  0  0  0  0  0  0  0  0  0  0
  152.2255  141.8175  162.2550 H   0  0  0  0  0  0  0  0  0  0  0  0
  153.0271  143.3876  162.3369 H   0  0  0  0  0  0  0  0  0  0  0  0
  154.6261  142.6355  160.5279 H   0  0  0  0  0  0  0  0  0  0  0  0
  153.8025  141.0954  160.4404 H   0  0  0  0  0  0  0  0  0  0  0  0
  150.3480  142.9528  155.9471 H   0  0  0  0  0  0  0  0  0  0  0  0
  151.4977  141.6548  156.0094 H   0  0  0  0  0  0  0  0  0  0  0  0
  149.6101  140.9454  157.9857 H   0  0  0  0  0  0  0  0  0  0  0  0
  148.6402  141.6481  156.7230 H   0  0  0  0  0  0  0  0  0  0  0  0
  149.4657  139.0862  156.6096 H   0  0  0  0  0  0  0  0  0  0  0  0
  149.2998  138.4365  153.3999 H   0  0  0  0  0  0  0  0  0  0  0  0
  151.4253  137.9151  152.6010 H   0  0  0  0  0  0  0  0  0  0  0  0
  152.1965  138.7862  153.9188 H   0  0  0  0  0  0  0  0  0  0  0  0
  152.7511  136.4334  154.4151 H   0  0  0  0  0  0  0  0  0  0  0  0
  150.7416  135.5967  152.7960 H   0  0  0  0  0  0  0  0  0  0  0  0
  151.0423  134.6524  154.2545 H   0  0  0  0  0  0  0  0  0  0  0  0
  148.6321  136.2117  153.7057 H   0  0  0  0  0  0  0  0  0  0  0  0
  149.0180  135.2907  155.1574 H   0  0  0  0  0  0  0  0  0  0  0  0
  148.9946  137.6168  155.9913 H   0  0  0  0  0  0  0  0  0  0  0  0
  151.1083  136.1219  156.4467 H   0  0  0  0  0  0  0  0  0  0  0  0
  151.6084  137.8180  156.3234 H   0  0  0  0  0  0  0  0  0  0  0  0
  150.5344  144.8311  157.8743 H   0  0  0  0  0  0  0  0  0  0  0  0
  1  2  1  0  0  0  0
  1 20  1  0  0  0  0
  1 21  1  0  0  0  0
  1 22  1  0  0  0  0
  2  3  1  0  0  0  0
  2 23  1  0  0  0  0
  2 24  1  0  0  0  0
  3 19  1  0  0  0  0
  3  4  2  0  0  0  0
  4  5  1  0  0  0  0
  5  6  1  0  0  0  0
  5 18  2  0  0  0  0
  6  7  1  0  0  0  0
  6 25  1  0  0  0  0
  6 26  1  0  0  0  0
  7  8  1  0  0  0  0
  7 27  1  0  0  0  0
  7 28  1  0  0  0  0
  8  9  1  0  0  0  0
  8 29  1  0  0  0  0
  9 10  2  0  0  0  0
  9 11  1  0  0  0  0
 11 16  1  0  0  0  0
 11 12  1  0  0  0  0
 11 30  1  0  0  0  0
 12 13  1  0  0  0  0
 12 31  1  0  0  0  0
 12 32  1  0  0  0  0
 13 17  1  0  0  0  0
 13 14  1  0  0  0  0
 13 33  1  0  0  0  0
 14 15  1  0  0  0  0
 14 34  1  0  0  0  0
 14 35  1  0  0  0  0
 15 16  1  0  0  0  0
 15 36  1  0  0  0  0
 15 37  1  0  0  0  0
 16 17  1  0  0  0  0
 16 38  1  0  0  0  0
 17 39  1  0  0  0  0
 17 40  1  0  0  0  0
 18 19  1  0  0  0  0
 18 41  1  0  0  0  0
M  END
> <s_m_source_file>
AV-unprocessed.smi

> <i_m_source_file_index>
1099

> <i_lp_mmshare_version>
43012

> <i_f3d_flags>
0

> <s_epik_input>
W0NIM11bQ0gyXWMxbmMoW2NIXXMxKVtDSDJdW0NIMl1bTkhdQyg9TylbQ0BIXShbQ0gyXVtDQEBIXTIzKVtDQEBIXShbQ0gyXTMpW0NIMl1bQ0gyXTI=

> <s_epik_cmdline>
J2VwaWtfcHl0aG9uJywgJy1waCcsICc3LjAnLCAnLXRuJywgJzgnLCAnLW1hJywgJzIwMCcsICctbWV0YWxfYmluZGluZycsICctaW1hZScsICc8aW5maWxlLm1hZT4nLCAnLW9tYWUnLCAnPG91dGZpbGUubWFlPic=

> <r_epik_Ionization_Penalty>
0.00110131

> <r_epik_Ionization_Penalty_Charging>
0

> <r_epik_Ionization_Penalty_Neutral>
0.00110131

> <r_epik_State_Penalty>
0.00072257

> <r_epik_Charging_Adjusted_Penalty>
0.00072257

> <i_epik_Tot_Q>
0

> <i_epik_Tot_abs_Q>
0

> <r_epik_Metal_State_Penalty>
-0

> <b_epik_Metal_Only>
0

> <s_lp_Force_Field>
OPLS_2005

> <r_lp_Energy>
38.7505

> <b_lp_Chiralities_Consistent>
1

> <s_lp_Variant>
AV-unprocessed.smi:1099-4

> <Gold.Version>
5.8.1

> <Gold.Id.Protein>
6NUR|6NUR_protein|mol2

> <Gold.PLP.Fitness>
44.2023

> <Gold.PLP.PLP>
-39.6763

> <Gold.PLP.part.hbond>
-0.7940

> <Gold.PLP.part.metal>
0.0000

> <Gold.PLP.part.buried>
-4.3688

> <Gold.PLP.part.nonpolar>
-35.4023

> <Gold.PLP.part.repulsive>
0.1477

> <Gold.PLP.ligand.clash>
0.0042

> <Gold.PLP.ligand.torsion>
0.7411

> <Gold.PLP.Chemscore.Hbond>
0.9920

> <Gold.PLP.Chemscore.CHOScore>
0.9930

> <Gold.PLP.Chemscore.Metal>
0.0000

> <Gold.Chemscore.Hbonds>
donor molecule, donor type, donor heavy atom, donor atom, acceptor molecule, acceptor atom, score
      P1  H  7989  7998       L1    10  0.56
      P1  H  8011  8017       L1    10  0.01
      L1  C    18    41       P1  8028  0.45
      L1  C    18    41       P1  8029  0.03

> <Gold.PLP.Chemscore.Internal.Correction>
0.0575

> <Gold.Rescore>
     Score         DG    S(hbond)    S(metal)    S(lipo)     H(rot)  DE(clash)    DE(int)     intcor
     15.75     -17.95       0.97        0.00     109.87       1.42       0.08       2.12       ----

> <Gold.Chemscore.Fitness>
15.7530

> <Gold.Chemscore.DG>
-17.9532

> <Gold.Chemscore.ZeroCoef>
-5.4800

> <Gold.Chemscore.Hbond>
0.9715

> <Gold.Chemscore.Metal>
0.0000

> <Gold.Chemscore.Lipo>
109.8672

> <Gold.Chemscore.Internal_Hbond>
0.0000

> <Gold.Chemscore.DEClash>
0.0850

> <Gold.Chemscore.DEInternal>
2.1152

> <Gold.Chemscore.Rot>
1.4165

> <Gold.Chemscore.Internal.Correction>
   9.000000E+99

> <Gold.Chemscore.Hbonds>
donor molecule, donor type, donor heavy atom, donor atom, acceptor molecule, acceptor atom, score
      P1  H  7989  7998       L1    10  0.52
      P1  H  8011  8017       L1    10  0.06

> <Gold.Chemscore.Hbond.Weighted>
-3.2449

> <Gold.Chemscore.Metal.Weighted>
-0.0000

> <Gold.Chemscore.Lipo.Weighted>
-12.8545

> <Gold.Chemscore.Internal_Hbond.Weighted>
0.0000

> <Gold.Chemscore.DEClash.Weighted>
0.0850

> <Gold.Chemscore.DEInternal.Weighted>
2.1152

> <Gold.Chemscore.Rot.Weighted>
3.6262

> <Gold.Chemscore.Internal.Correction.Weighted>
   9.000000E+99

> <Gold.Protein.RotatedTorsions>
[ 6907 6896 6895 6894 ] final -117.98 input  -60.11 | X-H torsion
[ 7974 7965 7964 7962 ] final -134.38 input  175.53 | X-H torsion
[ 8008 7997 7996 7995 ] final   20.08 input   59.86 | X-H torsion
[ 10167 10162 10161 10158 ] final -120.32 input  -65.29 | X-H torsion
[ 10718 10713 10712 10709 ] final -177.36 input   66.30 | X-H torsion
[ 10763 10752 10751 10750 ] final   76.48 input  -60.55 | X-H torsion
[ 11005 11000 10999 10996 ] final   50.28 input  -57.11 | X-H torsion

> <Gold.Protein.ActiveResidues>
 VAL166  LYS551  ARG553  GLY616  TRP617  ASP618  TYR619  PRO620  LYS621  CYS622 
 ASP623  PHE694  ASN695  SER759  ASP760  ASP761  ALA762  ILE779  LEU786  VAL792 
 PHE793  MET794  SER795  GLU796  ALA797  LYS798  CYS799  TRP800  GLU811  SER814 

> <Gold.Protein.RotatedAtoms>
  150.8182  133.8300  159.3150 H   0  0  0  0  0  0  0  0  0  0  0  0  # atno 6907 bound_to 6896
  151.6066  135.1042  160.0081 H   0  0  0  0  0  0  0  0  0  0  0  0  # atno 6908 bound_to 6896
  152.4272  133.7175  159.6571 H   0  0  0  0  0  0  0  0  0  0  0  0  # atno 6909 bound_to 6896
  144.9108  140.6892  143.5026 H   0  0  0  0  0  0  0  0  0  0  0  0  # atno 7974 bound_to 7965
  154.9303  140.3039  155.5171 H   0  0  0  0  0  0  0  0  0  0  0  0  # atno 8008 bound_to 7997
  156.3004  140.2355  156.4298 H   0  0  0  0  0  0  0  0  0  0  0  0  # atno 8009 bound_to 7997
  154.8244  140.0421  157.1422 H   0  0  0  0  0  0  0  0  0  0  0  0  # atno 8010 bound_to 7997
  140.0371  143.5190  152.2148 H   0  0  0  0  0  0  0  0  0  0  0  0  # atno 10167 bound_to 10162
  156.8284  130.9644  151.3108 H   0  0  0  0  0  0  0  0  0  0  0  0  # atno 10718 bound_to 10713
  153.0728  135.4950  154.8342 H   0  0  0  0  0  0  0  0  0  0  0  0  # atno 10763 bound_to 10752
  154.7047  135.3008  154.9291 H   0  0  0  0  0  0  0  0  0  0  0  0  # atno 10764 bound_to 10752
  154.0004  135.6767  153.4812 H   0  0  0  0  0  0  0  0  0  0  0  0  # atno 10765 bound_to 10752
  140.1030  134.5055  155.8745 H   0  0  0  0  0  0  0  0  0  0  0  0  # atno 11005 bound_to 11000
  145.3458  139.1719  143.4461 LP  0  0  0  0  0  0  0  0  0  0  0  0  # atno 17320 bound_to 7965
  146.3157  140.3504  142.8655 LP  0  0  0  0  0  0  0  0  0  0  0  0  # atno 17321 bound_to 7965
  139.6038  144.7590  151.3109 LP  0  0  0  0  0  0  0  0  0  0  0  0  # atno 17342 bound_to 10162
  140.7277  143.6957  150.7886 LP  0  0  0  0  0  0  0  0  0  0  0  0  # atno 17343 bound_to 10162
  157.6420  130.8813  149.9466 LP  0  0  0  0  0  0  0  0  0  0  0  0  # atno 17370 bound_to 10713
  156.0948  130.3660  150.0326 LP  0  0  0  0  0  0  0  0  0  0  0  0  # atno 17371 bound_to 10713
  141.2111  133.6702  156.6556 LP  0  0  0  0  0  0  0  0  0  0  0  0  # atno 17394 bound_to 11000
  140.3193  134.8021  157.4240 LP  0  0  0  0  0  0  0  0  0  0  0  0  # atno 17395 bound_to 11000

$$$$
