AV-unprocessed.smi:1118|AV-procd|sdf|4814|dock3
  -GOLD-   22720 3363D 1   1.00000     0.00000
 Structure written by MMmdl.
 45 46  0  0  0  0  0  0  0  0  2 V2000
  147.0280  133.1858  152.1556 C   0  0  0  0  0  0  0  0  0  0  0  0
  148.3258  133.1946  152.7241 O   0  0  0  0  0  0  0  0  0  0  0  0
  148.3002  133.3111  154.1372 C   0  0  0  0  0  0  0  0  0  0  0  0
  147.6131  134.6327  154.5140 C   0  0  0  0  0  0  0  0  0  0  0  0
  148.5276  135.7979  154.4082 N   0  3  2  0  0  0  0  0  0  0  0  0
  149.8262  135.5567  155.0866 C   0  0  0  0  0  0  0  0  0  0  0  0
  150.8065  136.7146  154.8370 C   0  0  0  0  0  0  0  0  0  0  0  0
  150.2184  138.0615  155.2921 C   0  0  1  0  0  0  0  0  0  0  0  0
  151.2090  139.2147  155.0278 C   0  0  0  0  0  0  0  0  0  0  0  0
  150.7106  140.4861  155.5416 N   0  0  0  0  0  0  0  0  0  0  0  0
  150.8394  140.9225  156.8044 C   0  0  0  0  0  0  0  0  0  0  0  0
  151.3438  140.2572  157.7088 O   0  0  0  0  0  0  0  0  0  0  0  0
  150.3598  142.3470  157.0790 C   0  0  0  0  0  0  0  0  0  0  0  0
  151.4045  143.1181  157.7286 N   0  0  0  0  0  0  0  0  0  0  0  0
  151.9078  144.3510  157.3687 C   0  0  0  0  0  0  0  0  0  0  0  0
  152.8613  144.6845  158.2873 C   0  0  0  0  0  0  0  0  0  0  0  0
  152.8701  143.5787  159.1828 C   0  0  0  0  0  0  0  0  0  0  0  0
  151.9959  142.6437  158.8477 N   0  0  0  0  0  0  0  0  0  0  0  0
  148.8504  138.2645  154.6084 C   0  0  0  0  0  0  0  0  0  0  0  0
  147.9108  137.0735  154.8579 C   0  0  0  0  0  0  0  0  0  0  0  0
  147.1033  133.0970  151.0717 H   0  0  0  0  0  0  0  0  0  0  0  0
  146.4922  134.1089  152.3811 H   0  0  0  0  0  0  0  0  0  0  0  0
  146.4420  132.3420  152.5224 H   0  0  0  0  0  0  0  0  0  0  0  0
  147.7980  132.4540  154.5861 H   0  0  0  0  0  0  0  0  0  0  0  0
  149.3227  133.3157  154.5180 H   0  0  0  0  0  0  0  0  0  0  0  0
  146.7351  134.7985  153.8883 H   0  0  0  0  0  0  0  0  0  0  0  0
  147.2462  134.5407  155.5374 H   0  0  0  0  0  0  0  0  0  0  0  0
  149.6613  135.4245  156.1573 H   0  0  0  0  0  0  0  0  0  0  0  0
  150.2690  134.6312  154.7169 H   0  0  0  0  0  0  0  0  0  0  0  0
  151.7418  136.5190  155.3631 H   0  0  0  0  0  0  0  0  0  0  0  0
  151.0538  136.7586  153.7752 H   0  0  0  0  0  0  0  0  0  0  0  0
  150.0513  138.0065  156.3692 H   0  0  0  0  0  0  0  0  0  0  0  0
  152.1548  139.0082  155.5295 H   0  0  0  0  0  0  0  0  0  0  0  0
  151.4406  139.2826  153.9635 H   0  0  0  0  0  0  0  0  0  0  0  0
  150.2827  141.1094  154.8719 H   0  0  0  0  0  0  0  0  0  0  0  0
  150.0667  142.8387  156.1497 H   0  0  0  0  0  0  0  0  0  0  0  0
  149.4809  142.3269  157.7249 H   0  0  0  0  0  0  0  0  0  0  0  0
  151.5467  144.8826  156.5003 H   0  0  0  0  0  0  0  0  0  0  0  0
  153.4613  145.5821  158.3156 H   0  0  0  0  0  0  0  0  0  0  0  0
  153.4804  143.4292  160.0612 H   0  0  0  0  0  0  0  0  0  0  0  0
  148.3695  139.1710  154.9770 H   0  0  0  0  0  0  0  0  0  0  0  0
  148.9897  138.4036  153.5353 H   0  0  0  0  0  0  0  0  0  0  0  0
  146.9741  137.2505  154.3308 H   0  0  0  0  0  0  0  0  0  0  0  0
  147.6670  137.0071  155.9194 H   0  0  0  0  0  0  0  0  0  0  0  0
  148.7402  135.9014  153.4258 H   0  0  0  0  0  0  0  0  0  0  0  0
  1  2  1  0  0  0  0
  1 21  1  0  0  0  0
  1 22  1  0  0  0  0
  1 23  1  0  0  0  0
  2  3  1  0  0  0  0
  3  4  1  0  0  0  0
  3 24  1  0  0  0  0
  3 25  1  0  0  0  0
  4  5  1  0  0  0  0
  4 26  1  0  0  0  0
  4 27  1  0  0  0  0
  5 20  1  0  0  0  0
  5  6  1  0  0  0  0
  5 45  1  0  0  0  0
  6  7  1  0  0  0  0
  6 28  1  0  0  0  0
  6 29  1  0  0  0  0
  7  8  1  0  0  0  0
  7 30  1  0  0  0  0
  7 31  1  0  0  0  0
  8  9  1  0  0  0  0
  8 19  1  0  0  0  0
  8 32  1  0  0  0  0
  9 10  1  0  0  0  0
  9 33  1  0  0  0  0
  9 34  1  0  0  0  0
 10 11  1  0  0  0  0
 10 35  1  0  0  0  0
 11 12  2  0  0  0  0
 11 13  1  0  0  0  0
 13 14  1  0  0  0  0
 13 36  1  0  0  0  0
 13 37  1  0  0  0  0
 14 18  1  0  0  0  0
 14 15  1  0  0  0  0
 15 16  2  0  0  0  0
 15 38  1  0  0  0  0
 16 17  1  0  0  0  0
 16 39  1  0  0  0  0
 17 18  2  0  0  0  0
 17 40  1  0  0  0  0
 19 20  1  0  0  0  0
 19 41  1  0  0  0  0
 19 42  1  0  0  0  0
 20 43  1  0  0  0  0
 20 44  1  0  0  0  0
M  CHG  1   5   1
M  END
> <s_m_source_file>
AV-unprocessed.smi

> <i_m_source_file_index>
1118

> <i_lp_mmshare_version>
43012

> <i_f3d_flags>
0

> <s_epik_input>
W0NIM11PW0NIMl1bQ0gyXU4xW0NIMl1bQ0gyXVtDSF0oW0NIMl1bQ0gyXTEpW0NIMl1bTkhdQyg9TylbQ0gyXW4yW2NIXVtjSF1bY0hdbjI=

> <s_epik_cmdline>
J2VwaWtfcHl0aG9uJywgJy1waCcsICc3LjAnLCAnLXRuJywgJzgnLCAnLW1hJywgJzIwMCcsICctbWV0YWxfYmluZGluZycsICctaW1hZScsICc8aW5maWxlLm1hZT4nLCAnLW9tYWUnLCAnPG91dGZpbGUubWFlPic=

> <r_lp_tautomer_probability>
1

> <r_epik_Ionization_Penalty>
0.00991549

> <r_epik_Ionization_Penalty_Charging>
0.00990284

> <r_epik_Ionization_Penalty_Neutral>
1.26554e-05

> <r_epik_State_Penalty>
0.00754525

> <r_epik_Charging_Adjusted_Penalty>
0.0174481

> <i_epik_Tot_Q>
1

> <i_epik_Tot_abs_Q>
1

> <r_epik_Metal_State_Penalty>
0.00754527

> <b_epik_Metal_Only>
0

> <s_lp_Force_Field>
OPLS_2005

> <r_lp_Energy>
19.0863

> <b_lp_Chiralities_Consistent>
1

> <s_lp_Variant>
AV-unprocessed.smi:1118-1

> <Gold.Version>
5.8.1

> <Gold.Id.Protein>
6NUR|6NUR_protein|mol2

> <Gold.PLP.Fitness>
46.0820

> <Gold.PLP.PLP>
-37.7764

> <Gold.PLP.part.hbond>
-1.0000

> <Gold.PLP.part.metal>
0.0000

> <Gold.PLP.part.buried>
-4.4218

> <Gold.PLP.part.nonpolar>
-33.3518

> <Gold.PLP.part.repulsive>
0.3700

> <Gold.PLP.ligand.clash>
0.0000

> <Gold.PLP.ligand.torsion>
0.4360

> <Gold.PLP.Chemscore.Hbond>
2.0000

> <Gold.PLP.Chemscore.CHOScore>
1.0000

> <Gold.PLP.Chemscore.Metal>
0.0000

> <Gold.Chemscore.Hbonds>
donor molecule, donor type, donor heavy atom, donor atom, acceptor molecule, acceptor atom, score
      L1  H     5    45       P1  7948  2.00
      L1  C    15    38       P1  8028  0.39

> <Gold.PLP.Chemscore.Internal.Correction>
0.1775

> <Gold.Rescore>
     Score         DG    S(hbond)    S(metal)    S(lipo)     H(rot)  DE(clash)    DE(int)     intcor
     12.38     -14.21       0.98        0.00      95.03       2.22       0.15       1.68       ----

> <Gold.Chemscore.Fitness>
12.3796

> <Gold.Chemscore.DG>
-14.2095

> <Gold.Chemscore.ZeroCoef>
-5.4800

> <Gold.Chemscore.Hbond>
0.9836

> <Gold.Chemscore.Metal>
0.0000

> <Gold.Chemscore.Lipo>
95.0320

> <Gold.Chemscore.Internal_Hbond>
0.0000

> <Gold.Chemscore.DEClash>
0.1530

> <Gold.Chemscore.DEInternal>
1.6769

> <Gold.Chemscore.Rot>
2.2166

> <Gold.Chemscore.Internal.Correction>
   9.000000E+99

> <Gold.Chemscore.Hbonds>
donor molecule, donor type, donor heavy atom, donor atom, acceptor molecule, acceptor atom, score
      L1  H     5    45       P1  7948  0.98

> <Gold.Chemscore.Hbond.Weighted>
-3.2853

> <Gold.Chemscore.Metal.Weighted>
-0.0000

> <Gold.Chemscore.Lipo.Weighted>
-11.1187

> <Gold.Chemscore.Internal_Hbond.Weighted>
0.0000

> <Gold.Chemscore.DEClash.Weighted>
0.1530

> <Gold.Chemscore.DEInternal.Weighted>
1.6769

> <Gold.Chemscore.Rot.Weighted>
5.6745

> <Gold.Chemscore.Internal.Correction.Weighted>
   9.000000E+99

> <Gold.Protein.RotatedTorsions>
[ 6907 6896 6895 6894 ] final  160.76 input  -60.11 | X-H torsion
[ 7974 7965 7964 7962 ] final   23.07 input  175.53 | X-H torsion
[ 8008 7997 7996 7995 ] final  157.92 input   59.86 | X-H torsion
[ 10167 10162 10161 10158 ] final  139.18 input  -65.29 | X-H torsion
[ 10718 10713 10712 10709 ] final  -39.08 input   66.30 | X-H torsion
[ 10763 10752 10751 10750 ] final  -52.02 input  -60.55 | X-H torsion
[ 11005 11000 10999 10996 ] final -142.16 input  -57.11 | X-H torsion

> <Gold.Protein.ActiveResidues>
 VAL166  LYS551  ARG553  GLY616  TRP617  ASP618  TYR619  PRO620  LYS621  CYS622 
 ASP623  PHE694  ASN695  SER759  ASP760  ASP761  ALA762  ILE779  LEU786  VAL792 
 PHE793  MET794  SER795  GLU796  ALA797  LYS798  CYS799  TRP800  GLU811  SER814 

> <Gold.Protein.RotatedAtoms>
  151.9657  133.3709  159.4051 H   0  0  0  0  0  0  0  0  0  0  0  0  # atno 6907 bound_to 6896
  150.6957  134.4193  159.5207 H   0  0  0  0  0  0  0  0  0  0  0  0  # atno 6908 bound_to 6896
  152.1889  134.8689  160.0570 H   0  0  0  0  0  0  0  0  0  0  0  0  # atno 6909 bound_to 6896
  146.2001  139.7796  142.8768 H   0  0  0  0  0  0  0  0  0  0  0  0  # atno 7974 bound_to 7965
  156.2334  140.1872  156.7182 H   0  0  0  0  0  0  0  0  0  0  0  0  # atno 8008 bound_to 7997
  154.6063  140.0628  156.9463 H   0  0  0  0  0  0  0  0  0  0  0  0  # atno 8009 bound_to 7997
  155.2089  140.3298  155.4334 H   0  0  0  0  0  0  0  0  0  0  0  0  # atno 8010 bound_to 7997
  139.5087  144.6310  151.5818 H   0  0  0  0  0  0  0  0  0  0  0  0  # atno 10167 bound_to 10162
  156.2964  130.4234  149.8186 H   0  0  0  0  0  0  0  0  0  0  0  0  # atno 10718 bound_to 10713
  154.1360  135.6512  153.4932 H   0  0  0  0  0  0  0  0  0  0  0  0  # atno 10763 bound_to 10752
  153.0180  135.5304  154.6953 H   0  0  0  0  0  0  0  0  0  0  0  0  # atno 10764 bound_to 10752
  154.6201  135.2963  155.0306 H   0  0  0  0  0  0  0  0  0  0  0  0  # atno 10765 bound_to 10752
  140.8253  134.2582  157.4882 H   0  0  0  0  0  0  0  0  0  0  0  0  # atno 11005 bound_to 11000
  145.3514  141.0308  143.3336 LP  0  0  0  0  0  0  0  0  0  0  0  0  # atno 17320 bound_to 7965
  144.8664  139.5102  143.6788 LP  0  0  0  0  0  0  0  0  0  0  0  0  # atno 17321 bound_to 7965
  140.6043  143.9554  150.6407 LP  0  0  0  0  0  0  0  0  0  0  0  0  # atno 17342 bound_to 10162
  140.2775  143.3412  152.1181 LP  0  0  0  0  0  0  0  0  0  0  0  0  # atno 17343 bound_to 10162
  156.5580  130.8371  151.3320 LP  0  0  0  0  0  0  0  0  0  0  0  0  # atno 17370 bound_to 10713
  157.7356  130.9765  150.2093 LP  0  0  0  0  0  0  0  0  0  0  0  0  # atno 17371 bound_to 10713
  139.8707  134.9557  156.4214 LP  0  0  0  0  0  0  0  0  0  0  0  0  # atno 17394 bound_to 11000
  140.9056  133.7748  155.9731 LP  0  0  0  0  0  0  0  0  0  0  0  0  # atno 17395 bound_to 11000

$$$$
