AV-unprocessed.smi:299|AV-procd|sdf|2265|dock6
  -GOLD-   2262022153D 1   1.00000     0.00000
 Structure written by MMmdl.
 42 43  0  0  0  0  0  0  0  0  2 V2000
  146.7167  129.5140  153.1310 C   0  0  0  0  0  0  0  0  0  0  0  0
  146.2053  130.8870  152.6475 C   0  0  2  0  0  0  0  0  0  0  0  0
  145.2005  130.6569  151.4966 C   0  0  0  0  0  0  0  0  0  0  0  0
  144.6320  131.9709  150.9570 C   0  0  0  0  0  0  0  0  0  0  0  0
  145.7824  132.8808  150.5291 C   0  0  0  0  0  0  0  0  0  0  0  0
  146.7600  133.1004  151.6922 C   0  0  0  0  0  0  0  0  0  0  0  0
  147.3049  131.8148  152.2196 N   0  3  1  0  0  0  0  0  0  0  0  0
  148.3492  132.0376  153.2631 C   0  0  0  0  0  0  0  0  0  0  0  0
  148.0870  133.2726  154.1472 C   0  0  0  0  0  0  0  0  0  0  0  0
  149.3797  133.8375  154.7595 C   0  0  0  0  0  0  0  0  0  0  0  0
  149.5577  135.2461  154.4266 N   0  0  0  0  0  0  0  0  0  0  0  0
  149.9768  136.1932  155.2818 C   0  0  0  0  0  0  0  0  0  0  0  0
  150.2446  135.9660  156.4613 O   0  0  0  0  0  0  0  0  0  0  0  0
  150.0970  137.6178  154.7342 C   0  0  0  0  0  0  0  0  0  0  0  0
  151.4634  138.1053  154.7892 N   0  0  0  0  0  0  0  0  0  0  0  0
  151.9865  139.1825  155.3783 C   0  0  0  0  0  0  0  0  0  0  0  0
  153.2930  139.2633  155.1789 N   0  0  0  0  0  0  0  0  0  0  0  0
  153.5641  138.1422  154.4125 N   0  0  0  0  0  0  0  0  0  0  0  0
  152.4825  137.4506  154.1787 N   0  0  0  0  0  0  0  0  0  0  0  0
  145.8900  128.8157  153.2647 H   0  0  0  0  0  0  0  0  0  0  0  0
  147.2168  129.5724  154.0972 H   0  0  0  0  0  0  0  0  0  0  0  0
  147.4060  129.0702  152.4117 H   0  0  0  0  0  0  0  0  0  0  0  0
  145.6726  131.3586  153.4752 H   0  0  0  0  0  0  0  0  0  0  0  0
  145.6871  130.1124  150.6857 H   0  0  0  0  0  0  0  0  0  0  0  0
  144.3782  130.0265  151.8377 H   0  0  0  0  0  0  0  0  0  0  0  0
  143.9691  131.7776  150.1130 H   0  0  0  0  0  0  0  0  0  0  0  0
  144.0314  132.4616  151.7239 H   0  0  0  0  0  0  0  0  0  0  0  0
  146.3093  132.4393  149.6819 H   0  0  0  0  0  0  0  0  0  0  0  0
  145.3904  133.8386  150.1856 H   0  0  0  0  0  0  0  0  0  0  0  0
  147.5604  133.7399  151.3252 H   0  0  0  0  0  0  0  0  0  0  0  0
  146.2667  133.6451  152.4987 H   0  0  0  0  0  0  0  0  0  0  0  0
  148.4543  131.1430  153.8789 H   0  0  0  0  0  0  0  0  0  0  0  0
  149.3157  132.2046  152.7937 H   0  0  0  0  0  0  0  0  0  0  0  0
  147.6007  134.0495  153.5556 H   0  0  0  0  0  0  0  0  0  0  0  0
  147.4047  133.0210  154.9582 H   0  0  0  0  0  0  0  0  0  0  0  0
  149.3822  133.7033  155.8427 H   0  0  0  0  0  0  0  0  0  0  0  0
  150.2430  133.2913  154.3785 H   0  0  0  0  0  0  0  0  0  0  0  0
  149.3572  135.5193  153.4754 H   0  0  0  0  0  0  0  0  0  0  0  0
  149.7534  137.6417  153.6994 H   0  0  0  0  0  0  0  0  0  0  0  0
  149.4573  138.2954  155.3017 H   0  0  0  0  0  0  0  0  0  0  0  0
  151.4147  139.9019  155.9458 H   0  0  0  0  0  0  0  0  0  0  0  0
  147.7686  131.3593  151.4466 H   0  0  0  0  0  0  0  0  0  0  0  0
  1  2  1  0  0  0  0
  1 20  1  0  0  0  0
  1 21  1  0  0  0  0
  1 22  1  0  0  0  0
  2  7  1  0  0  0  0
  2  3  1  0  0  0  0
  2 23  1  0  0  0  0
  3  4  1  0  0  0  0
  3 24  1  0  0  0  0
  3 25  1  0  0  0  0
  4  5  1  0  0  0  0
  4 26  1  0  0  0  0
  4 27  1  0  0  0  0
  5  6  1  0  0  0  0
  5 28  1  0  0  0  0
  5 29  1  0  0  0  0
  6  7  1  0  0  0  0
  6 30  1  0  0  0  0
  6 31  1  0  0  0  0
  7  8  1  0  0  0  0
  7 42  1  0  0  0  0
  8  9  1  0  0  0  0
  8 32  1  0  0  0  0
  8 33  1  0  0  0  0
  9 10  1  0  0  0  0
  9 34  1  0  0  0  0
  9 35  1  0  0  0  0
 10 11  1  0  0  0  0
 10 36  1  0  0  0  0
 10 37  1  0  0  0  0
 11 12  1  0  0  0  0
 11 38  1  0  0  0  0
 12 13  2  0  0  0  0
 12 14  1  0  0  0  0
 14 15  1  0  0  0  0
 14 39  1  0  0  0  0
 14 40  1  0  0  0  0
 15 19  1  0  0  0  0
 15 16  1  0  0  0  0
 16 17  2  0  0  0  0
 16 41  1  0  0  0  0
 17 18  1  0  0  0  0
 18 19  2  0  0  0  0
M  CHG  1   7   1
M  END
> <s_m_source_file>
AV-unprocessed.smi

> <i_m_source_file_index>
299

> <i_lp_mmshare_version>
43012

> <i_f3d_flags>
0

> <s_epik_input>
W0NIM11bQ0BASF0xW0NIMl1bQ0gyXVtDSDJdW0NIMl1OMVtDSDJdW0NIMl1bQ0gyXVtOSF1DKD1PKVtDSDJdbjJbY0hdbm5uMg==

> <s_epik_cmdline>
J2VwaWtfcHl0aG9uJywgJy1waCcsICc3LjAnLCAnLXRuJywgJzgnLCAnLW1hJywgJzIwMCcsICctbWV0YWxfYmluZGluZycsICctaW1hZScsICc8aW5maWxlLm1hZT4nLCAnLW9tYWUnLCAnPG91dGZpbGUubWFlPic=

> <r_lp_tautomer_probability>
1

> <r_epik_Ionization_Penalty>
0.000544863

> <r_epik_Ionization_Penalty_Charging>
0.000543475

> <r_epik_Ionization_Penalty_Neutral>
1.38784e-06

> <r_epik_State_Penalty>
0.000340025

> <r_epik_Charging_Adjusted_Penalty>
0.0008835

> <i_epik_Tot_Q>
1

> <i_epik_Tot_abs_Q>
1

> <r_epik_Metal_State_Penalty>
-0

> <b_epik_Metal_Only>
0

> <s_lp_Force_Field>
OPLS_2005

> <r_lp_Energy>
24.2757

> <b_lp_Chiralities_Consistent>
1

> <s_lp_Variant>
AV-unprocessed.smi:299-1

> <Gold.Version>
5.8.1

> <Gold.Id.Protein>
6NUR|6NUR_protein|mol2

> <Gold.PLP.Fitness>
47.6983

> <Gold.PLP.PLP>
-38.6249

> <Gold.PLP.part.hbond>
-5.0000

> <Gold.PLP.part.metal>
0.0000

> <Gold.PLP.part.buried>
-6.1181

> <Gold.PLP.part.nonpolar>
-27.8125

> <Gold.PLP.part.repulsive>
0.2076

> <Gold.PLP.ligand.clash>
0.0000

> <Gold.PLP.ligand.torsion>
1.0042

> <Gold.PLP.Chemscore.Hbond>
3.6720

> <Gold.PLP.Chemscore.CHOScore>
0.0000

> <Gold.PLP.Chemscore.Metal>
0.0000

> <Gold.Chemscore.Hbonds>
donor molecule, donor type, donor heavy atom, donor atom, acceptor molecule, acceptor atom, score
      L1  H     7    42       P1 10747  1.00
      L1  H    11    38       P1  7948  1.00
      P1  H  7997  8009       L1    17  1.00
      P1  H 10752 10763       L1    19  0.67

> <Gold.PLP.Chemscore.Internal.Correction>
0.0659

> <Gold.Rescore>
     Score         DG    S(hbond)    S(metal)    S(lipo)     H(rot)  DE(clash)    DE(int)     intcor
     13.77     -14.71       2.72        0.00      66.18       2.97       0.00       0.93       ----

> <Gold.Chemscore.Fitness>
13.7729

> <Gold.Chemscore.DG>
-14.7099

> <Gold.Chemscore.ZeroCoef>
-5.4800

> <Gold.Chemscore.Hbond>
2.7200

> <Gold.Chemscore.Metal>
0.0000

> <Gold.Chemscore.Lipo>
66.1808

> <Gold.Chemscore.Internal_Hbond>
0.0000

> <Gold.Chemscore.DEClash>
0.0029

> <Gold.Chemscore.DEInternal>
0.9340

> <Gold.Chemscore.Rot>
2.9680

> <Gold.Chemscore.Internal.Correction>
   9.000000E+99

> <Gold.Chemscore.Hbonds>
donor molecule, donor type, donor heavy atom, donor atom, acceptor molecule, acceptor atom, score
      L1  H     7    42       P1 10747  1.00
      L1  H    11    38       P1  7948  0.26
      P1  H  7997  8009       L1    17  0.99
      P1  H 10752 10763       L1    19  0.34

> <Gold.Chemscore.Hbond.Weighted>
-9.0847

> <Gold.Chemscore.Metal.Weighted>
-0.0000

> <Gold.Chemscore.Lipo.Weighted>
-7.7432

> <Gold.Chemscore.Internal_Hbond.Weighted>
0.0000

> <Gold.Chemscore.DEClash.Weighted>
0.0029

> <Gold.Chemscore.DEInternal.Weighted>
0.9340

> <Gold.Chemscore.Rot.Weighted>
7.5980

> <Gold.Chemscore.Internal.Correction.Weighted>
   9.000000E+99

> <Gold.Protein.RotatedTorsions>
[ 6907 6896 6895 6894 ] final -112.42 input  -60.11 | X-H torsion
[ 7974 7965 7964 7962 ] final  116.40 input  175.53 | X-H torsion
[ 8008 7997 7996 7995 ] final -147.91 input   59.86 | X-H torsion
[ 10167 10162 10161 10158 ] final  178.00 input  -65.29 | X-H torsion
[ 10718 10713 10712 10709 ] final  126.02 input   66.30 | X-H torsion
[ 10763 10752 10751 10750 ] final   28.23 input  -60.55 | X-H torsion
[ 11005 11000 10999 10996 ] final  105.37 input  -57.11 | X-H torsion

> <Gold.Protein.ActiveResidues>
 VAL166  LYS551  ARG553  GLY616  TRP617  ASP618  TYR619  PRO620  LYS621  CYS622 
 ASP623  PHE694  ASN695  SER759  ASP760  ASP761  ALA762  ILE779  LEU786  VAL792 
 PHE793  MET794  SER795  GLU796  ALA797  LYS798  CYS799  TRP800  GLU811  SER814 

> <Gold.Protein.RotatedAtoms>
  150.7757  133.9092  159.3364 H   0  0  0  0  0  0  0  0  0  0  0  0  # atno 6907 bound_to 6896
  151.6968  135.0935  160.0253 H   0  0  0  0  0  0  0  0  0  0  0  0  # atno 6908 bound_to 6896
  152.3792  133.6484  159.6183 H   0  0  0  0  0  0  0  0  0  0  0  0  # atno 6909 bound_to 6896
  145.1801  139.3054  143.4422 H   0  0  0  0  0  0  0  0  0  0  0  0  # atno 7974 bound_to 7965
  155.5832  140.0645  157.2778 H   0  0  0  0  0  0  0  0  0  0  0  0  # atno 8008 bound_to 7997
  154.4326  140.1848  156.1044 H   0  0  0  0  0  0  0  0  0  0  0  0  # atno 8009 bound_to 7997
  156.0289  140.3308  155.7122 H   0  0  0  0  0  0  0  0  0  0  0  0  # atno 8010 bound_to 7997
  139.5276  144.2732  152.0610 H   0  0  0  0  0  0  0  0  0  0  0  0  # atno 10167 bound_to 10162
  157.5454  131.1096  150.8790 H   0  0  0  0  0  0  0  0  0  0  0  0  # atno 10718 bound_to 10713
  153.0505  135.6518  154.0707 H   0  0  0  0  0  0  0  0  0  0  0  0  # atno 10763 bound_to 10752
  154.0396  135.2904  155.3358 H   0  0  0  0  0  0  0  0  0  0  0  0  # atno 10764 bound_to 10752
  154.6790  135.5327  153.8304 H   0  0  0  0  0  0  0  0  0  0  0  0  # atno 10765 bound_to 10752
  139.8801  134.9333  156.5504 H   0  0  0  0  0  0  0  0  0  0  0  0  # atno 11005 bound_to 11000
  146.3454  140.1978  142.8589 LP  0  0  0  0  0  0  0  0  0  0  0  0  # atno 17320 bound_to 7965
  145.0144  140.8742  143.5204 LP  0  0  0  0  0  0  0  0  0  0  0  0  # atno 17321 bound_to 7965
  140.2191  144.4485  150.6350 LP  0  0  0  0  0  0  0  0  0  0  0  0  # atno 17342 bound_to 10162
  140.6430  143.2207  151.6247 LP  0  0  0  0  0  0  0  0  0  0  0  0  # atno 17343 bound_to 10162
  156.9331  130.5357  149.5279 LP  0  0  0  0  0  0  0  0  0  0  0  0  # atno 17370 bound_to 10713
  156.0531  130.5597  150.9033 LP  0  0  0  0  0  0  0  0  0  0  0  0  # atno 17371 bound_to 10713
  140.8244  133.8328  155.8926 LP  0  0  0  0  0  0  0  0  0  0  0  0  # atno 17394 bound_to 11000
  140.9388  134.1928  157.4813 LP  0  0  0  0  0  0  0  0  0  0  0  0  # atno 17395 bound_to 11000

$$$$
