AV-unprocessed.smi:2784|AV-procd|sdf|10743|dock4
  -GOLD-   2272015183D 1   1.00000     0.00000
 Structure written by MMmdl.
 30 31  0  0  0  0  0  0  0  0  2 V2000
  153.9184  141.2437  160.4719 C   0  0  0  0  0  0  0  0  0  0  0  0
  153.6067  142.6002  160.2007 O   0  0  0  0  0  0  0  0  0  0  0  0
  152.2232  142.9106  160.3421 C   0  0  1  0  0  0  0  0  0  0  0  0
  152.0846  144.3996  160.6763 C   0  0  0  0  0  0  0  0  0  0  0  0
  152.1960  145.0960  159.3228 C   0  0  0  0  0  0  0  0  0  0  0  0
  151.4851  144.1597  158.3418 C   0  0  0  0  0  0  0  0  0  0  0  0
  151.5008  142.7582  158.9836 C   0  0  1  0  0  0  0  0  0  0  0  0
  152.1317  141.7771  158.1019 N   0  0  0  0  0  0  0  0  0  0  0  0
  151.5053  141.0509  157.1649 C   0  0  0  0  0  0  0  0  0  0  0  0
  150.2919  141.1879  156.9913 O   0  0  0  0  0  0  0  0  0  0  0  0
  152.3216  140.2090  156.4918 N   0  5  0  0  0  0  0  0  0  0  0  0
  151.8114  139.3808  155.5663 C   0  0  0  0  0  0  0  0  0  0  0  0
  152.1937  138.1241  155.3325 N   0  0  0  0  0  0  0  0  0  0  0  0
  151.3858  137.6676  154.3026 C   0  0  0  0  0  0  0  0  0  0  0  0
  150.5327  138.6801  153.9579 C   0  0  0  0  0  0  0  0  0  0  0  0
  150.7892  139.7648  154.7501 O   0  0  0  0  0  0  0  0  0  0  0  0
  154.9910  141.0873  160.3593 H   0  0  0  0  0  0  0  0  0  0  0  0
  153.4094  140.5787  159.7731 H   0  0  0  0  0  0  0  0  0  0  0  0
  153.6424  140.9612  161.4878 H   0  0  0  0  0  0  0  0  0  0  0  0
  151.7576  142.2723  161.0954 H   0  0  0  0  0  0  0  0  0  0  0  0
  151.0975  144.5872  161.1008 H   0  0  0  0  0  0  0  0  0  0  0  0
  152.8235  144.7569  161.3933 H   0  0  0  0  0  0  0  0  0  0  0  0
  151.7685  146.0988  159.3301 H   0  0  0  0  0  0  0  0  0  0  0  0
  153.2474  145.1855  159.0460 H   0  0  0  0  0  0  0  0  0  0  0  0
  150.4535  144.4837  158.1998 H   0  0  0  0  0  0  0  0  0  0  0  0
  151.9644  144.1846  157.3619 H   0  0  0  0  0  0  0  0  0  0  0  0
  150.4655  142.4611  159.1622 H   0  0  0  0  0  0  0  0  0  0  0  0
  153.1234  141.6296  158.2177 H   0  0  0  0  0  0  0  0  0  0  0  0
  151.4798  136.6691  153.9026 H   0  0  0  0  0  0  0  0  0  0  0  0
  149.7437  138.7847  153.2285 H   0  0  0  0  0  0  0  0  0  0  0  0
  1  2  1  0  0  0  0
  1 17  1  0  0  0  0
  1 18  1  0  0  0  0
  1 19  1  0  0  0  0
  2  3  1  0  0  0  0
  3  7  1  0  0  0  0
  3  4  1  0  0  0  0
  3 20  1  0  0  0  0
  4  5  1  0  0  0  0
  4 21  1  0  0  0  0
  4 22  1  0  0  0  0
  5  6  1  0  0  0  0
  5 23  1  0  0  0  0
  5 24  1  0  0  0  0
  6  7  1  0  0  0  0
  6 25  1  0  0  0  0
  6 26  1  0  0  0  0
  7  8  1  0  0  0  0
  7 27  1  0  0  0  0
  8 28  1  0  0  0  0
  8  9  1  0  0  0  0
  9 11  1  0  0  0  0
  9 10  2  0  0  0  0
 11 12  1  0  0  0  0
 12 16  1  0  0  0  0
 12 13  2  0  0  0  0
 13 14  1  0  0  0  0
 14 29  1  0  0  0  0
 14 15  2  0  0  0  0
 15 30  1  0  0  0  0
 15 16  1  0  0  0  0
M  CHG  1  11  -1
M  END
> <s_m_source_file>
AV-unprocessed.smi

> <i_m_source_file_index>
2784

> <i_lp_mmshare_version>
43012

> <i_f3d_flags>
0

> <s_epik_input>
W0NIM11PW0NAQEhdMVtDSDJdW0NIMl1bQ0gyXVtDQEhdMVtOSF1DKD1PKVtOSF1jMm5bY0hdW2NIXW8y

> <s_epik_cmdline>
J2VwaWtfcHl0aG9uJywgJy1waCcsICc3LjAnLCAnLXRuJywgJzgnLCAnLW1hJywgJzIwMCcsICctbWV0YWxfYmluZGluZycsICctaW1hZScsICc8aW5maWxlLm1hZT4nLCAnLW9tYWUnLCAnPG91dGZpbGUubWFlPic=

> <r_lp_tautomer_probability>
0.107061

> <r_epik_Ionization_Penalty>
10.8857

> <r_epik_Ionization_Penalty_Charging>
7.67908

> <r_epik_Ionization_Penalty_Neutral>
3.20665

> <r_epik_State_Penalty>
5.80296

> <r_epik_Charging_Adjusted_Penalty>
13.482

> <i_epik_Tot_Q>
-1

> <i_epik_Tot_abs_Q>
1

> <r_epik_Metal_State_Penalty>
1.73217

> <b_epik_Metal_Only>
1

> <s_lp_Force_Field>
OPLS_2005

> <r_lp_Energy>
16.6072

> <b_lp_Chiralities_Consistent>
1

> <s_lp_Variant>
AV-unprocessed.smi:2784-18

> <Gold.Version>
5.8.1

> <Gold.Id.Protein>
6NUR|6NUR_protein|mol2

> <Gold.PLP.Fitness>
47.7686

> <Gold.PLP.PLP>
-35.0358

> <Gold.PLP.part.hbond>
-2.0000

> <Gold.PLP.part.metal>
0.0000

> <Gold.PLP.part.buried>
-3.7488

> <Gold.PLP.part.nonpolar>
-28.9828

> <Gold.PLP.part.repulsive>
0.2172

> <Gold.PLP.ligand.clash>
0.0000

> <Gold.PLP.ligand.torsion>
1.0128

> <Gold.PLP.Chemscore.Hbond>
3.0000

> <Gold.PLP.Chemscore.CHOScore>
1.9148

> <Gold.PLP.Chemscore.Metal>
0.0000

> <Gold.Chemscore.Hbonds>
donor molecule, donor type, donor heavy atom, donor atom, acceptor molecule, acceptor atom, score
      P1  H  7989  7998       L1    16  0.95
      P1  H  7997  8009       L1    11  2.00
      L1  C    14    29       P1  7949  0.93
      L1  C    15    30       P1  7957  1.00

> <Gold.PLP.Chemscore.Internal.Correction>
0.0140

> <Gold.Rescore>
     Score         DG    S(hbond)    S(metal)    S(lipo)     H(rot)  DE(clash)    DE(int)     intcor
     15.84     -18.60       1.87        0.00      87.50       1.31       0.16       2.60       ----

> <Gold.Chemscore.Fitness>
15.8385

> <Gold.Chemscore.DG>
-18.5978

> <Gold.Chemscore.ZeroCoef>
-5.4800

> <Gold.Chemscore.Hbond>
1.8668

> <Gold.Chemscore.Metal>
0.0000

> <Gold.Chemscore.Lipo>
87.5021

> <Gold.Chemscore.Internal_Hbond>
0.0000

> <Gold.Chemscore.DEClash>
0.1611

> <Gold.Chemscore.DEInternal>
2.5982

> <Gold.Chemscore.Rot>
1.3106

> <Gold.Chemscore.Internal.Correction>
   9.000000E+99

> <Gold.Chemscore.Hbonds>
donor molecule, donor type, donor heavy atom, donor atom, acceptor molecule, acceptor atom, score
      P1  H  7989  7998       L1    16  0.09
      P1  H  7997  8009       L1    11  0.71

> <Gold.Chemscore.Hbond.Weighted>
-6.2350

> <Gold.Chemscore.Metal.Weighted>
-0.0000

> <Gold.Chemscore.Lipo.Weighted>
-10.2377

> <Gold.Chemscore.Internal_Hbond.Weighted>
0.0000

> <Gold.Chemscore.DEClash.Weighted>
0.1611

> <Gold.Chemscore.DEInternal.Weighted>
2.5982

> <Gold.Chemscore.Rot.Weighted>
3.3550

> <Gold.Chemscore.Internal.Correction.Weighted>
   9.000000E+99

> <Gold.Protein.RotatedTorsions>
[ 6907 6896 6895 6894 ] final -106.54 input  -60.11 | X-H torsion
[ 7974 7965 7964 7962 ] final  -55.34 input  175.53 | X-H torsion
[ 8008 7997 7996 7995 ] final -173.32 input   59.86 | X-H torsion
[ 10167 10162 10161 10158 ] final    7.42 input  -65.29 | X-H torsion
[ 10718 10713 10712 10709 ] final   81.94 input   66.30 | X-H torsion
[ 10763 10752 10751 10750 ] final -117.01 input  -60.55 | X-H torsion
[ 11005 11000 10999 10996 ] final  -33.53 input  -57.11 | X-H torsion

> <Gold.Protein.ActiveResidues>
 VAL166  LYS551  ARG553  GLY616  TRP617  ASP618  TYR619  PRO620  LYS621  CYS622 
 ASP623  PHE694  ASN695  SER759  ASP760  ASP761  ALA762  ILE779  LEU786  VAL792 
 PHE793  MET794  SER795  GLU796  ALA797  LYS798  CYS799  TRP800  GLU811  SER814 

> <Gold.Protein.RotatedAtoms>
  150.7395  133.9960  159.3622 H   0  0  0  0  0  0  0  0  0  0  0  0  # atno 6907 bound_to 6896
  151.7911  135.0733  160.0397 H   0  0  0  0  0  0  0  0  0  0  0  0  # atno 6908 bound_to 6896
  152.3207  133.5814  159.5779 H   0  0  0  0  0  0  0  0  0  0  0  0  # atno 6909 bound_to 6896
  145.8753  140.8186  142.9867 H   0  0  0  0  0  0  0  0  0  0  0  0  # atno 7974 bound_to 7965
  155.9559  140.1135  157.0937 H   0  0  0  0  0  0  0  0  0  0  0  0  # atno 8008 bound_to 7997
  154.4120  140.1191  156.5181 H   0  0  0  0  0  0  0  0  0  0  0  0  # atno 8009 bound_to 7997
  155.6783  140.3473  155.4847 H   0  0  0  0  0  0  0  0  0  0  0  0  # atno 8010 bound_to 7997
  140.6373  143.7857  150.7377 H   0  0  0  0  0  0  0  0  0  0  0  0  # atno 10167 bound_to 10162
  157.6845  131.0026  150.2301 H   0  0  0  0  0  0  0  0  0  0  0  0  # atno 10718 bound_to 10713
  154.8540  135.4325  154.1911 H   0  0  0  0  0  0  0  0  0  0  0  0  # atno 10763 bound_to 10752
  153.2979  135.6966  153.7236 H   0  0  0  0  0  0  0  0  0  0  0  0  # atno 10764 bound_to 10752
  153.6378  135.3473  155.3036 H   0  0  0  0  0  0  0  0  0  0  0  0  # atno 10765 bound_to 10752
  140.9642  133.7146  156.1418 H   0  0  0  0  0  0  0  0  0  0  0  0  # atno 11005 bound_to 11000
  144.6726  140.1301  143.7444 LP  0  0  0  0  0  0  0  0  0  0  0  0  # atno 17320 bound_to 7965
  145.9088  139.2475  143.1449 LP  0  0  0  0  0  0  0  0  0  0  0  0  # atno 17321 bound_to 7965
  140.1481  143.4382  152.2150 LP  0  0  0  0  0  0  0  0  0  0  0  0  # atno 17342 bound_to 10162
  139.5583  144.7388  151.4230 LP  0  0  0  0  0  0  0  0  0  0  0  0  # atno 17343 bound_to 10162
  156.2935  130.3749  149.7818 LP  0  0  0  0  0  0  0  0  0  0  0  0  # atno 17370 bound_to 10713
  156.5470  130.8325  151.3287 LP  0  0  0  0  0  0  0  0  0  0  0  0  # atno 17371 bound_to 10713
  140.7423  134.4136  157.5553 LP  0  0  0  0  0  0  0  0  0  0  0  0  # atno 17394 bound_to 11000
  139.8889  134.8845  156.2451 LP  0  0  0  0  0  0  0  0  0  0  0  0  # atno 17395 bound_to 11000

$$$$
