AV-unprocessed.smi:193|AV-procd|sdf|1503|dock1
  -GOLD-   2262019333D 1   1.00000     0.00000
 Structure written by MMmdl.
 62 66  0  0  0  0  0  0  0  0  2 V2000
  147.4775  140.0126  153.7860 C   0  0  0  0  0  0  0  0  0  0  0  0
  148.6529  139.7917  154.7486 C   0  0  1  0  0  0  0  0  0  0  0  0
  149.4064  138.4970  154.3698 C   0  0  0  0  0  0  0  0  0  0  0  0
  150.5624  138.2233  155.2238 N   0  0  0  0  0  0  0  0  0  0  0  0
  150.4223  137.6710  156.4684 C   0  0  0  0  0  0  0  0  0  0  0  0
  151.3119  138.0429  157.4290 N   0  0  0  0  0  0  0  0  0  0  0  0
  151.2308  137.5646  158.6720 C   0  0  0  0  0  0  0  0  0  0  0  0
  150.3445  136.7083  159.1753 N   0  0  0  0  0  0  0  0  0  0  0  0
  149.4477  136.3159  158.2280 C   0  0  0  0  0  0  0  0  0  0  0  0
  149.4106  136.7384  156.8652 C   0  0  0  0  0  0  0  0  0  0  0  0
  148.3408  136.1154  156.2287 N   0  0  0  0  0  0  0  0  0  0  0  0
  147.7878  135.3761  157.1491 C   0  0  0  0  0  0  0  0  0  0  0  0
  148.3938  135.4325  158.3810 N   0  0  0  0  0  0  0  0  0  0  0  0
  147.9945  134.7142  159.5820 C   0  0  0  0  0  0  0  0  0  0  0  0
  147.4247  135.6262  160.6969 C   0  0  0  0  0  0  0  0  0  0  0  0
  148.4309  136.5641  161.0395 O   0  0  0  0  0  0  0  0  0  0  0  0
  146.1664  136.4017  160.2477 C   0  0  0  0  0  0  0  0  0  0  0  0
  145.4925  137.1406  161.4175 C   0  0  0  0  0  0  0  0  0  0  0  0
  145.1970  136.2286  162.4684 O   0  0  0  0  0  0  0  0  0  0  0  0
  146.3627  135.6309  163.0226 C   0  0  0  0  0  0  0  0  0  0  0  0
  147.0867  134.7960  161.9515 C   0  0  0  0  0  0  0  0  0  0  0  0
  151.7676  139.0020  154.9170 C   0  0  0  0  0  0  0  0  0  0  0  0
  151.8253  140.3786  155.6174 C   0  0  0  0  0  0  0  0  0  0  0  0
  150.4959  140.9537  155.9479 N   0  3  1  0  0  0  0  0  0  0  0  0
  150.6150  142.2268  156.6942 C   0  0  1  0  0  0  0  0  0  0  0  0
  149.7393  142.3026  157.9255 C   0  0  0  0  0  0  0  0  0  0  0  0
  151.2297  142.0940  158.0770 C   0  0  1  0  0  0  0  0  0  0  0  0
  151.7561  140.7851  158.6395 C   0  0  0  0  0  0  0  0  0  0  0  0
  149.5705  141.0317  154.7894 C   0  0  0  0  0  0  0  0  0  0  0  0
  147.8247  140.1643  152.7634 H   0  0  0  0  0  0  0  0  0  0  0  0
  146.8915  140.8865  154.0719 H   0  0  0  0  0  0  0  0  0  0  0  0
  146.8048  139.1542  153.7859 H   0  0  0  0  0  0  0  0  0  0  0  0
  148.2243  139.6676  155.7436 H   0  0  0  0  0  0  0  0  0  0  0  0
  148.7360  137.6396  154.3482 H   0  0  0  0  0  0  0  0  0  0  0  0
  149.7587  138.5852  153.3414 H   0  0  0  0  0  0  0  0  0  0  0  0
  151.9806  137.9221  159.3624 H   0  0  0  0  0  0  0  0  0  0  0  0
  146.9208  134.7615  156.9532 H   0  0  0  0  0  0  0  0  0  0  0  0
  147.2538  133.9655  159.2977 H   0  0  0  0  0  0  0  0  0  0  0  0
  148.8583  134.1583  159.9500 H   0  0  0  0  0  0  0  0  0  0  0  0
  149.1670  136.4394  160.4599 H   0  0  0  0  0  0  0  0  0  0  0  0
  146.4084  137.1133  159.4574 H   0  0  0  0  0  0  0  0  0  0  0  0
  145.4465  135.7026  159.8203 H   0  0  0  0  0  0  0  0  0  0  0  0
  146.1248  137.9483  161.7892 H   0  0  0  0  0  0  0  0  0  0  0  0
  144.5627  137.5994  161.0807 H   0  0  0  0  0  0  0  0  0  0  0  0
  147.0192  136.3986  163.4350 H   0  0  0  0  0  0  0  0  0  0  0  0
  146.0660  134.9916  163.8544 H   0  0  0  0  0  0  0  0  0  0  0  0
  146.4399  133.9639  161.6694 H   0  0  0  0  0  0  0  0  0  0  0  0
  147.9895  134.3507  162.3716 H   0  0  0  0  0  0  0  0  0  0  0  0
  152.6701  138.4268  155.1270 H   0  0  0  0  0  0  0  0  0  0  0  0
  151.7925  139.1669  153.8393 H   0  0  0  0  0  0  0  0  0  0  0  0
  152.3790  140.2681  156.5500 H   0  0  0  0  0  0  0  0  0  0  0  0
  152.3974  141.0793  155.0078 H   0  0  0  0  0  0  0  0  0  0  0  0
  150.7779  143.1194  156.0928 H   0  0  0  0  0  0  0  0  0  0  0  0
  149.3443  143.2780  158.2019 H   0  0  0  0  0  0  0  0  0  0  0  0
  149.0851  141.4603  158.1444 H   0  0  0  0  0  0  0  0  0  0  0  0
  151.7980  142.9594  158.4126 H   0  0  0  0  0  0  0  0  0  0  0  0
  151.1022  139.9502  158.3863 H   0  0  0  0  0  0  0  0  0  0  0  0
  151.8192  140.8474  159.7258 H   0  0  0  0  0  0  0  0  0  0  0  0
  152.7528  140.5801  158.2488 H   0  0  0  0  0  0  0  0  0  0  0  0
  150.1184  141.1585  153.8543 H   0  0  0  0  0  0  0  0  0  0  0  0
  148.9438  141.9192  154.8885 H   0  0  0  0  0  0  0  0  0  0  0  0
  150.0631  140.3088  156.5935 H   0  0  0  0  0  0  0  0  0  0  0  0
  1  2  1  0  0  0  0
  1 30  1  0  0  0  0
  1 31  1  0  0  0  0
  1 32  1  0  0  0  0
  2 29  1  0  0  0  0
  2  3  1  0  0  0  0
  2 33  1  0  0  0  0
  3  4  1  0  0  0  0
  3 34  1  0  0  0  0
  3 35  1  0  0  0  0
  4  5  1  0  0  0  0
  4 22  1  0  0  0  0
  5 10  1  0  0  0  0
  5  6  2  0  0  0  0
  6  7  1  0  0  0  0
  7  8  2  0  0  0  0
  7 36  1  0  0  0  0
  8  9  1  0  0  0  0
  9 13  1  0  0  0  0
  9 10  2  0  0  0  0
 10 11  1  0  0  0  0
 11 12  2  0  0  0  0
 12 13  1  0  0  0  0
 12 37  1  0  0  0  0
 13 14  1  0  0  0  0
 14 15  1  0  0  0  0
 14 38  1  0  0  0  0
 14 39  1  0  0  0  0
 15 21  1  0  0  0  0
 15 16  1  0  0  0  0
 15 17  1  0  0  0  0
 16 40  1  0  0  0  0
 17 18  1  0  0  0  0
 17 41  1  0  0  0  0
 17 42  1  0  0  0  0
 18 19  1  0  0  0  0
 18 43  1  0  0  0  0
 18 44  1  0  0  0  0
 19 20  1  0  0  0  0
 20 21  1  0  0  0  0
 20 45  1  0  0  0  0
 20 46  1  0  0  0  0
 21 47  1  0  0  0  0
 21 48  1  0  0  0  0
 22 23  1  0  0  0  0
 22 49  1  0  0  0  0
 22 50  1  0  0  0  0
 23 24  1  0  0  0  0
 23 51  1  0  0  0  0
 23 52  1  0  0  0  0
 24 25  1  0  0  0  0
 24 29  1  0  0  0  0
 24 62  1  0  0  0  0
 25 27  1  0  0  0  0
 25 26  1  0  0  0  0
 25 53  1  0  0  0  0
 26 27  1  0  0  0  0
 26 54  1  0  0  0  0
 26 55  1  0  0  0  0
 27 28  1  0  0  0  0
 27 56  1  0  0  0  0
 28 57  1  0  0  0  0
 28 58  1  0  0  0  0
 28 59  1  0  0  0  0
 29 60  1  0  0  0  0
 29 61  1  0  0  0  0
M  CHG  1  24   1
M  END
> <s_m_source_file>
AV-unprocessed.smi

> <i_m_source_file_index>
193

> <i_lp_mmshare_version>
43012

> <i_f3d_flags>
0

> <s_epik_input>
W0NIM11bQ0BASF0xW0NIMl1bQ0BIXTFOKFtDSDJdMilbQ0gyXVtDSDJdTihbQ0gyXVtDQEhdMltDSDNdKWMobltjSF1uMyljKGMzNCluW2NIXW40W0NIMl1DNShbT0hdKVtDSDJdW0NIMl1PW0NIMl1bQ0gyXTU=

> <s_epik_cmdline>
J2VwaWtfcHl0aG9uJywgJy1waCcsICc3LjAnLCAnLXRuJywgJzgnLCAnLW1hJywgJzIwMCcsICctbWV0YWxfYmluZGluZycsICctaW1hZScsICc8aW5maWxlLm1hZT4nLCAnLW9tYWUnLCAnPG91dGZpbGUubWFlPic=

> <r_lp_tautomer_probability>
1

> <r_epik_Ionization_Penalty>
0.0540825

> <r_epik_Ionization_Penalty_Charging>
0.0538476

> <r_epik_Ionization_Penalty_Neutral>
0.000234891

> <r_epik_State_Penalty>
0.0200719

> <r_epik_Charging_Adjusted_Penalty>
0.0739194

> <i_epik_Tot_Q>
1

> <i_epik_Tot_abs_Q>
1

> <r_epik_Metal_State_Penalty>
0.0199414

> <b_epik_Metal_Only>
0

> <s_lp_Force_Field>
OPLS_2005

> <r_lp_Energy>
52.5482

> <b_lp_Chiralities_Consistent>
1

> <s_lp_Variant>
AV-unprocessed.smi:193-8

> <Gold.Version>
5.8.1

> <Gold.Id.Protein>
6NUR|6NUR_protein|mol2

> <Gold.PLP.Fitness>
43.9191

> <Gold.PLP.PLP>
-38.4692

> <Gold.PLP.part.hbond>
-2.0000

> <Gold.PLP.part.metal>
0.0000

> <Gold.PLP.part.buried>
-5.1961

> <Gold.PLP.part.nonpolar>
-32.3025

> <Gold.PLP.part.repulsive>
0.1473

> <Gold.PLP.ligand.clash>
0.0024

> <Gold.PLP.ligand.torsion>
0.9792

> <Gold.PLP.Chemscore.Hbond>
2.0000

> <Gold.PLP.Chemscore.CHOScore>
0.0000

> <Gold.PLP.Chemscore.Metal>
0.0000

> <Gold.Chemscore.Hbonds>
donor molecule, donor type, donor heavy atom, donor atom, acceptor molecule, acceptor atom, score
      P1  H  6896  6907       L1     8  1.00
      P1  H  6931  6943       L1    16  0.90

> <Gold.PLP.Chemscore.Internal.Correction>
1.4106

> <Gold.Rescore>
     Score         DG    S(hbond)    S(metal)    S(lipo)     H(rot)  DE(clash)    DE(int)     intcor
     12.31     -16.40       1.17        0.00     102.05       1.93       0.16       3.93       ----

> <Gold.Chemscore.Fitness>
12.3052

> <Gold.Chemscore.DG>
-16.3979

> <Gold.Chemscore.ZeroCoef>
-5.4800

> <Gold.Chemscore.Hbond>
1.1726

> <Gold.Chemscore.Metal>
0.0000

> <Gold.Chemscore.Lipo>
102.0472

> <Gold.Chemscore.Internal_Hbond>
0.0000

> <Gold.Chemscore.DEClash>
0.1603

> <Gold.Chemscore.DEInternal>
3.9324

> <Gold.Chemscore.Rot>
1.9290

> <Gold.Chemscore.Internal.Correction>
   9.000000E+99

> <Gold.Chemscore.Hbonds>
donor molecule, donor type, donor heavy atom, donor atom, acceptor molecule, acceptor atom, score
      P1  H  6896  6907       L1     8  0.29
      P1  H  6931  6943       L1    16  0.17

> <Gold.Chemscore.Hbond.Weighted>
-3.9166

> <Gold.Chemscore.Metal.Weighted>
-0.0000

> <Gold.Chemscore.Lipo.Weighted>
-11.9395

> <Gold.Chemscore.Internal_Hbond.Weighted>
0.0000

> <Gold.Chemscore.DEClash.Weighted>
0.1603

> <Gold.Chemscore.DEInternal.Weighted>
3.9324

> <Gold.Chemscore.Rot.Weighted>
4.9383

> <Gold.Chemscore.Internal.Correction.Weighted>
   9.000000E+99

> <Gold.Protein.RotatedTorsions>
[ 6907 6896 6895 6894 ] final  -37.61 input  -60.11 | X-H torsion
[ 7974 7965 7964 7962 ] final -171.75 input  175.53 | X-H torsion
[ 8008 7997 7996 7995 ] final  134.70 input   59.86 | X-H torsion
[ 10167 10162 10161 10158 ] final  -91.02 input  -65.29 | X-H torsion
[ 10718 10713 10712 10709 ] final   -8.82 input   66.30 | X-H torsion
[ 10763 10752 10751 10750 ] final  139.46 input  -60.55 | X-H torsion
[ 11005 11000 10999 10996 ] final -147.56 input  -57.11 | X-H torsion

> <Gold.Protein.ActiveResidues>
 VAL166  LYS551  ARG553  GLY616  TRP617  ASP618  TYR619  PRO620  LYS621  CYS622 
 ASP623  PHE694  ASN695  SER759  ASP760  ASP761  ALA762  ILE779  LEU786  VAL792 
 PHE793  MET794  SER795  GLU796  ALA797  LYS798  CYS799  TRP800  GLU811  SER814 

> <Gold.Protein.RotatedAtoms>
  151.0126  134.9408  159.8015 H   0  0  0  0  0  0  0  0  0  0  0  0  # atno 6907 bound_to 6896
  152.5306  134.3008  159.9087 H   0  0  0  0  0  0  0  0  0  0  0  0  # atno 6908 bound_to 6896
  151.3014  133.4079  159.2674 H   0  0  0  0  0  0  0  0  0  0  0  0  # atno 6909 bound_to 6896
  144.7153  140.1876  143.6352 H   0  0  0  0  0  0  0  0  0  0  0  0  # atno 7974 bound_to 7965
  156.3000  140.2489  156.3461 H   0  0  0  0  0  0  0  0  0  0  0  0  # atno 8008 bound_to 7997
  154.9010  140.0406  157.1912 H   0  0  0  0  0  0  0  0  0  0  0  0  # atno 8009 bound_to 7997
  154.8501  140.2904  155.5608 H   0  0  0  0  0  0  0  0  0  0  0  0  # atno 8010 bound_to 7997
  140.3491  143.2901  151.9747 H   0  0  0  0  0  0  0  0  0  0  0  0  # atno 10167 bound_to 10162
  156.6970  130.5082  149.5928 H   0  0  0  0  0  0  0  0  0  0  0  0  # atno 10718 bound_to 10713
  153.9065  135.3016  155.3448 H   0  0  0  0  0  0  0  0  0  0  0  0  # atno 10763 bound_to 10752
  154.7644  135.4917  153.9530 H   0  0  0  0  0  0  0  0  0  0  0  0  # atno 10764 bound_to 10752
  153.1216  135.6783  153.9427 H   0  0  0  0  0  0  0  0  0  0  0  0  # atno 10765 bound_to 10752
  140.7703  134.3196  157.5077 H   0  0  0  0  0  0  0  0  0  0  0  0  # atno 11005 bound_to 11000
  145.8798  139.2317  143.1612 LP  0  0  0  0  0  0  0  0  0  0  0  0  # atno 17320 bound_to 7965
  146.0005  140.8524  143.0021 LP  0  0  0  0  0  0  0  0  0  0  0  0  # atno 17321 bound_to 7965
  139.4829  144.6091  151.7466 LP  0  0  0  0  0  0  0  0  0  0  0  0  # atno 17342 bound_to 10162
  140.5236  144.0840  150.6030 LP  0  0  0  0  0  0  0  0  0  0  0  0  # atno 17343 bound_to 10162
  156.1756  130.6466  151.0890 LP  0  0  0  0  0  0  0  0  0  0  0  0  # atno 17370 bound_to 10713
  157.6987  131.0784  150.6887 LP  0  0  0  0  0  0  0  0  0  0  0  0  # atno 17371 bound_to 10713
  139.8757  134.9257  156.3381 LP  0  0  0  0  0  0  0  0  0  0  0  0  # atno 17394 bound_to 11000
  140.9580  133.7407  156.0362 LP  0  0  0  0  0  0  0  0  0  0  0  0  # atno 17395 bound_to 11000

$$$$
