AV-unprocessed.smi:2049|AV-procd|sdf|8323|dock6
  -GOLD-   2272010593D 1   1.00000     0.00000
 Structure written by MMmdl.
 50 52  0  0  0  0  0  0  0  0  1 V2000
  147.0808  137.4300  155.8815 O   0  0  0  0  0  0  0  0  0  0  0  0
  147.6221  137.2122  154.7974 C   0  0  0  0  0  0  0  0  0  0  0  0
  148.2107  138.3681  153.9798 C   0  0  0  0  0  0  0  0  0  0  0  0
  149.5648  138.7313  154.4259 N   0  0  0  0  0  0  0  0  0  0  0  0
  150.5472  137.7270  154.4123 C   0  0  0  0  0  0  0  0  0  0  0  0
  151.8040  137.9891  154.7986 C   0  0  0  0  0  0  0  0  0  0  0  0
  152.0817  139.3659  155.2280 C   0  0  0  0  0  0  0  0  0  0  0  0
  151.1895  140.2847  155.2381 N   0  0  0  0  0  0  0  0  0  0  0  0
  149.8710  140.0080  154.8293 C   0  0  0  0  0  0  0  0  0  0  0  0
  149.0090  140.8877  154.8320 O   0  0  0  0  0  0  0  0  0  0  0  0
  147.7395  135.9904  154.2580 N   0  0  0  0  0  0  0  0  0  0  0  0
  147.3492  134.7297  154.8881 C   0  0  0  0  0  0  0  0  0  0  0  0
  147.3039  133.5391  153.8701 C   0  0  0  0  0  0  0  0  0  0  0  0
  146.3718  133.8730  152.7439 N   0  0  0  0  0  0  0  0  0  0  0  0
  145.0019  134.2105  153.1578 C   0  0  0  0  0  0  0  0  0  0  0  0
  144.1354  134.6887  151.9814 C   0  0  0  0  0  0  0  0  0  0  0  0
  144.1054  133.6866  150.9744 O   0  0  0  0  0  0  0  0  0  0  0  0
  145.4053  133.3741  150.4920 C   0  0  0  0  0  0  0  0  0  0  0  0
  146.2933  132.8909  151.6519 C   0  0  0  0  0  0  0  0  0  0  0  0
  148.7591  133.2948  153.3423 C   0  0  0  0  0  0  0  0  0  0  0  0
  149.7685  132.8313  154.4099 C   0  0  0  0  0  0  0  0  0  0  0  0
  149.2726  131.5655  155.1193 C   0  0  0  0  0  0  0  0  0  0  0  0
  147.8698  131.7723  155.7047 C   0  0  0  0  0  0  0  0  0  0  0  0
  146.8681  132.2489  154.6341 C   0  0  0  0  0  0  0  0  0  0  0  0
  148.2274  138.1103  152.9188 H   0  0  0  0  0  0  0  0  0  0  0  0
  147.5335  139.2196  154.0591 H   0  0  0  0  0  0  0  0  0  0  0  0
  150.2196  136.7563  154.0696 H   0  0  0  0  0  0  0  0  0  0  0  0
  152.6062  137.2662  154.8101 H   0  0  0  0  0  0  0  0  0  0  0  0
  153.1105  139.5585  155.5424 H   0  0  0  0  0  0  0  0  0  0  0  0
  148.1998  135.9179  153.3624 H   0  0  0  0  0  0  0  0  0  0  0  0
  147.9989  134.5236  155.7364 H   0  0  0  0  0  0  0  0  0  0  0  0
  146.3749  134.8813  155.3509 H   0  0  0  0  0  0  0  0  0  0  0  0
  144.5228  133.3443  153.6142 H   0  0  0  0  0  0  0  0  0  0  0  0
  144.9971  135.0031  153.9027 H   0  0  0  0  0  0  0  0  0  0  0  0
  143.1172  134.8861  152.3166 H   0  0  0  0  0  0  0  0  0  0  0  0
  144.5239  135.6212  151.5694 H   0  0  0  0  0  0  0  0  0  0  0  0
  145.3235  132.5985  149.7303 H   0  0  0  0  0  0  0  0  0  0  0  0
  145.8431  134.2501  150.0105 H   0  0  0  0  0  0  0  0  0  0  0  0
  147.2727  132.6931  151.2247 H   0  0  0  0  0  0  0  0  0  0  0  0
  145.9040  131.9419  152.0193 H   0  0  0  0  0  0  0  0  0  0  0  0
  148.7689  132.5025  152.5974 H   0  0  0  0  0  0  0  0  0  0  0  0
  149.1403  134.1801  152.8330 H   0  0  0  0  0  0  0  0  0  0  0  0
  150.7280  132.6265  153.9345 H   0  0  0  0  0  0  0  0  0  0  0  0
  149.9660  133.6177  155.1365 H   0  0  0  0  0  0  0  0  0  0  0  0
  149.2528  130.7358  154.4116 H   0  0  0  0  0  0  0  0  0  0  0  0
  149.9695  131.2819  155.9086 H   0  0  0  0  0  0  0  0  0  0  0  0
  147.5176  130.8368  156.1403 H   0  0  0  0  0  0  0  0  0  0  0  0
  147.9137  132.4844  156.5285 H   0  0  0  0  0  0  0  0  0  0  0  0
  145.9009  132.3975  155.1143 H   0  0  0  0  0  0  0  0  0  0  0  0
  146.7294  131.4269  153.9328 H   0  0  0  0  0  0  0  0  0  0  0  0
  1  2  2  0  0  0  0
  2  3  1  0  0  0  0
  2 11  1  0  0  0  0
  3  4  1  0  0  0  0
  3 25  1  0  0  0  0
  3 26  1  0  0  0  0
  4  9  1  0  0  0  0
  4  5  1  0  0  0  0
  5  6  2  0  0  0  0
  5 27  1  0  0  0  0
  6  7  1  0  0  0  0
  6 28  1  0  0  0  0
  7  8  2  0  0  0  0
  7 29  1  0  0  0  0
  8  9  1  0  0  0  0
  9 10  2  0  0  0  0
 11 12  1  0  0  0  0
 11 30  1  0  0  0  0
 12 13  1  0  0  0  0
 12 31  1  0  0  0  0
 12 32  1  0  0  0  0
 13 24  1  0  0  0  0
 13 14  1  0  0  0  0
 13 20  1  0  0  0  0
 14 19  1  0  0  0  0
 14 15  1  0  0  0  0
 15 16  1  0  0  0  0
 15 33  1  0  0  0  0
 15 34  1  0  0  0  0
 16 17  1  0  0  0  0
 16 35  1  0  0  0  0
 16 36  1  0  0  0  0
 17 18  1  0  0  0  0
 18 19  1  0  0  0  0
 18 37  1  0  0  0  0
 18 38  1  0  0  0  0
 19 39  1  0  0  0  0
 19 40  1  0  0  0  0
 20 21  1  0  0  0  0
 20 41  1  0  0  0  0
 20 42  1  0  0  0  0
 21 22  1  0  0  0  0
 21 43  1  0  0  0  0
 21 44  1  0  0  0  0
 22 23  1  0  0  0  0
 22 45  1  0  0  0  0
 22 46  1  0  0  0  0
 23 24  1  0  0  0  0
 23 47  1  0  0  0  0
 23 48  1  0  0  0  0
 24 49  1  0  0  0  0
 24 50  1  0  0  0  0
M  END
> <s_m_source_file>
AV-unprocessed.smi

> <i_m_source_file_index>
2049

> <i_lp_mmshare_version>
43012

> <i_f3d_flags>
0

> <s_epik_input>
Tz1jMW5bY0hdW2NIXVtjSF1uMVtDSDJdQyg9TylbTkhdW0NIMl1DMihbQ0gyXVtDSDJdW0NIMl1bQ0gyXVtDSDJdMilOM1tDSDJdW0NIMl1PW0NIMl1bQ0gyXTM=

> <s_epik_cmdline>
J2VwaWtfcHl0aG9uJywgJy1waCcsICc3LjAnLCAnLXRuJywgJzgnLCAnLW1hJywgJzIwMCcsICctbWV0YWxfYmluZGluZycsICctaW1hZScsICc8aW5maWxlLm1hZT4nLCAnLW9tYWUnLCAnPG91dGZpbGUubWFlPic=

> <r_lp_tautomer_probability>
1

> <r_epik_Ionization_Penalty>
0.421133

> <r_epik_Ionization_Penalty_Charging>
1.67008e-08

> <r_epik_Ionization_Penalty_Neutral>
0.421133

> <r_epik_State_Penalty>
0.421833

> <r_epik_Charging_Adjusted_Penalty>
0.421833

> <i_epik_Tot_Q>
0

> <i_epik_Tot_abs_Q>
0

> <r_epik_Metal_State_Penalty>
0.421832

> <b_epik_Metal_Only>
0

> <s_lp_Force_Field>
OPLS_2005

> <r_lp_Energy>
55.5371

> <b_lp_Chiralities_Consistent>
1

> <s_lp_Variant>
AV-unprocessed.smi:2049-2

> <Gold.Version>
5.8.1

> <Gold.Id.Protein>
6NUR|6NUR_protein|mol2

> <Gold.PLP.Fitness>
39.9797

> <Gold.PLP.PLP>
-33.6859

> <Gold.PLP.part.hbond>
-2.0000

> <Gold.PLP.part.metal>
0.0000

> <Gold.PLP.part.buried>
-3.4586

> <Gold.PLP.part.nonpolar>
-28.9027

> <Gold.PLP.part.repulsive>
0.4332

> <Gold.PLP.ligand.clash>
0.0000

> <Gold.PLP.ligand.torsion>
0.4461

> <Gold.PLP.Chemscore.Hbond>
1.4200

> <Gold.PLP.Chemscore.CHOScore>
0.9480

> <Gold.PLP.Chemscore.Metal>
0.0000

> <Gold.Chemscore.Hbonds>
donor molecule, donor type, donor heavy atom, donor atom, acceptor molecule, acceptor atom, score
      L1  H    11    30       P1  7948  1.00
      P1  H  7989  7998       L1     8  0.36
      L1  C     5    27       P1  7948  0.84
      L1  C     5    27       P1  7949  0.04

> <Gold.PLP.Chemscore.Internal.Correction>
0.0820

> <Gold.Rescore>
     Score         DG    S(hbond)    S(metal)    S(lipo)     H(rot)  DE(clash)    DE(int)     intcor
     12.52     -13.09       1.00        0.00      79.34       1.95       0.07       0.49       ----

> <Gold.Chemscore.Fitness>
12.5238

> <Gold.Chemscore.DG>
-13.0906

> <Gold.Chemscore.ZeroCoef>
-5.4800

> <Gold.Chemscore.Hbond>
0.9965

> <Gold.Chemscore.Metal>
0.0000

> <Gold.Chemscore.Lipo>
79.3370

> <Gold.Chemscore.Internal_Hbond>
0.0000

> <Gold.Chemscore.DEClash>
0.0721

> <Gold.Chemscore.DEInternal>
0.4947

> <Gold.Chemscore.Rot>
1.9531

> <Gold.Chemscore.Internal.Correction>
   9.000000E+99

> <Gold.Chemscore.Hbonds>
donor molecule, donor type, donor heavy atom, donor atom, acceptor molecule, acceptor atom, score
      L1  H    11    30       P1  7948  1.00

> <Gold.Chemscore.Hbond.Weighted>
-3.3282

> <Gold.Chemscore.Metal.Weighted>
-0.0000

> <Gold.Chemscore.Lipo.Weighted>
-9.2824

> <Gold.Chemscore.Internal_Hbond.Weighted>
0.0000

> <Gold.Chemscore.DEClash.Weighted>
0.0721

> <Gold.Chemscore.DEInternal.Weighted>
0.4947

> <Gold.Chemscore.Rot.Weighted>
5.0000

> <Gold.Chemscore.Internal.Correction.Weighted>
   9.000000E+99

> <Gold.Protein.RotatedTorsions>
[ 6907 6896 6895 6894 ] final  -51.07 input  -60.11 | X-H torsion
[ 7974 7965 7964 7962 ] final   18.02 input  175.53 | X-H torsion
[ 8008 7997 7996 7995 ] final -179.84 input   59.86 | X-H torsion
[ 10167 10162 10161 10158 ] final  -51.76 input  -65.29 | X-H torsion
[ 10718 10713 10712 10709 ] final  166.85 input   66.30 | X-H torsion
[ 10763 10752 10751 10750 ] final  -87.22 input  -60.55 | X-H torsion
[ 11005 11000 10999 10996 ] final -139.00 input  -57.11 | X-H torsion

> <Gold.Protein.ActiveResidues>
 VAL166  LYS551  ARG553  GLY616  TRP617  ASP618  TYR619  PRO620  LYS621  CYS622 
 ASP623  PHE694  ASN695  SER759  ASP760  ASP761  ALA762  ILE779  LEU786  VAL792 
 PHE793  MET794  SER795  GLU796  ALA797  LYS798  CYS799  TRP800  GLU811  SER814 

> <Gold.Protein.RotatedAtoms>
  150.8646  134.8007  159.7108 H   0  0  0  0  0  0  0  0  0  0  0  0  # atno 6907 bound_to 6896
  152.4672  134.5044  159.9744 H   0  0  0  0  0  0  0  0  0  0  0  0  # atno 6908 bound_to 6896
  151.5142  133.3440  159.2926 H   0  0  0  0  0  0  0  0  0  0  0  0  # atno 6909 bound_to 6896
  146.2199  139.8517  142.8621 H   0  0  0  0  0  0  0  0  0  0  0  0  # atno 7974 bound_to 7965
  156.0351  140.1291  157.0216 H   0  0  0  0  0  0  0  0  0  0  0  0  # atno 8008 bound_to 7997
  154.4366  140.1041  156.6226 H   0  0  0  0  0  0  0  0  0  0  0  0  # atno 8009 bound_to 7997
  155.5749  140.3467  155.4527 H   0  0  0  0  0  0  0  0  0  0  0  0  # atno 8010 bound_to 7997
  140.6572  143.2608  151.4549 H   0  0  0  0  0  0  0  0  0  0  0  0  # atno 10167 bound_to 10162
  157.0600  131.0337  151.2650 H   0  0  0  0  0  0  0  0  0  0  0  0  # atno 10718 bound_to 10713
  154.6312  135.5421  153.7682 H   0  0  0  0  0  0  0  0  0  0  0  0  # atno 10763 bound_to 10752
  153.0285  135.6436  154.1298 H   0  0  0  0  0  0  0  0  0  0  0  0  # atno 10764 bound_to 10752
  154.1228  135.2919  155.3184 H   0  0  0  0  0  0  0  0  0  0  0  0  # atno 10765 bound_to 10752
  140.8561  134.2226  157.4733 H   0  0  0  0  0  0  0  0  0  0  0  0  # atno 11005 bound_to 11000
  145.2794  141.0134  143.3726 LP  0  0  0  0  0  0  0  0  0  0  0  0  # atno 17320 bound_to 7965
  144.9161  139.4468  143.6563 LP  0  0  0  0  0  0  0  0  0  0  0  0  # atno 17321 bound_to 7965
  139.5797  144.1737  152.1952 LP  0  0  0  0  0  0  0  0  0  0  0  0  # atno 17342 bound_to 10162
  140.1058  144.5500  150.6958 LP  0  0  0  0  0  0  0  0  0  0  0  0  # atno 17343 bound_to 10162
  157.4962  130.7852  149.7558 LP  0  0  0  0  0  0  0  0  0  0  0  0  # atno 17370 bound_to 10713
  155.9981  130.3896  150.2714 LP  0  0  0  0  0  0  0  0  0  0  0  0  # atno 17371 bound_to 10713
  139.8705  134.9707  156.4711 LP  0  0  0  0  0  0  0  0  0  0  0  0  # atno 17394 bound_to 11000
  140.8735  133.7970  155.9390 LP  0  0  0  0  0  0  0  0  0  0  0  0  # atno 17395 bound_to 11000

$$$$
