AV-unprocessed.smi:1044|AV-procd|sdf|4543|dock8
  -GOLD-   22720 2573D 1   1.00000     0.00000
 Structure written by MMmdl.
 45 46  0  0  0  0  0  0  0  0  1 V2000
  145.9035  133.3598  151.0840 C   0  0  0  0  0  0  0  0  0  0  0  0
  146.2614  132.7754  152.4526 C   0  0  0  0  0  0  0  0  0  0  0  0
  147.5284  133.2899  152.8507 O   0  0  0  0  0  0  0  0  0  0  0  0
  148.3086  132.5422  153.7122 C   0  0  0  0  0  0  0  0  0  0  0  0
  148.0943  131.2043  153.7804 N   0  0  0  0  0  0  0  0  0  0  0  0
  148.8587  130.4723  154.6162 C   0  0  0  0  0  0  0  0  0  0  0  0
  149.8729  131.0278  155.4172 C   0  0  0  0  0  0  0  0  0  0  0  0
  150.0967  132.4157  155.3493 C   0  0  0  0  0  0  0  0  0  0  0  0
  149.2930  133.2000  154.4864 C   0  0  0  0  0  0  0  0  0  0  0  0
  149.4442  134.6052  154.3221 N   0  0  0  0  0  0  0  0  0  0  0  0
  150.1852  135.4641  155.0426 C   0  0  0  0  0  0  0  0  0  0  0  0
  150.8643  135.1710  156.0264 O   0  0  0  0  0  0  0  0  0  0  0  0
  150.0797  136.7113  154.5623 N   0  0  0  0  0  0  0  0  0  0  0  0
  150.7529  137.8841  155.1112 C   0  0  1  0  0  0  0  0  0  0  0  0
  150.2126  139.1553  154.4416 C   0  0  0  0  0  0  0  0  0  0  0  0
  150.9016  140.3864  155.0404 C   0  0  0  0  0  0  0  0  0  0  0  0
  150.7267  140.4353  156.5680 C   0  0  0  0  0  0  0  0  0  0  0  0
  151.1640  139.1783  157.2098 N   0  0  0  0  0  0  0  0  0  0  0  0
  152.7111  139.0958  158.0023 S   0  0  0  0  0  0  0  0  0  0  0  0
  152.8509  140.7045  158.8824 C   0  0  0  0  0  0  0  0  0  0  0  0
  152.6455  138.0248  159.0084 O   0  0  0  0  0  0  0  0  0  0  0  0
  153.7477  139.0533  156.9597 O   0  0  0  0  0  0  0  0  0  0  0  0
  150.5643  137.9537  156.6423 C   0  0  0  0  0  0  0  0  0  0  0  0
  144.9368  132.9884  150.7432 H   0  0  0  0  0  0  0  0  0  0  0  0
  146.6486  133.0894  150.3353 H   0  0  0  0  0  0  0  0  0  0  0  0
  145.8480  134.4479  151.1255 H   0  0  0  0  0  0  0  0  0  0  0  0
  145.4934  133.0480  153.1783 H   0  0  0  0  0  0  0  0  0  0  0  0
  146.2958  131.6866  152.3880 H   0  0  0  0  0  0  0  0  0  0  0  0
  148.6601  129.4111  154.6424 H   0  0  0  0  0  0  0  0  0  0  0  0
  150.4691  130.4033  156.0658 H   0  0  0  0  0  0  0  0  0  0  0  0
  150.8868  132.8434  155.9466 H   0  0  0  0  0  0  0  0  0  0  0  0
  148.8743  135.0141  153.5959 H   0  0  0  0  0  0  0  0  0  0  0  0
  149.4928  136.8612  153.7548 H   0  0  0  0  0  0  0  0  0  0  0  0
  151.8154  137.8111  154.8786 H   0  0  0  0  0  0  0  0  0  0  0  0
  150.3837  139.1205  153.3651 H   0  0  0  0  0  0  0  0  0  0  0  0
  149.1339  139.2294  154.5871 H   0  0  0  0  0  0  0  0  0  0  0  0
  151.9602  140.3759  154.7841 H   0  0  0  0  0  0  0  0  0  0  0  0
  150.4900  141.2921  154.5943 H   0  0  0  0  0  0  0  0  0  0  0  0
  151.2675  141.2848  156.9844 H   0  0  0  0  0  0  0  0  0  0  0  0
  149.6750  140.5947  156.8082 H   0  0  0  0  0  0  0  0  0  0  0  0
  153.7897  140.7264  159.4349 H   0  0  0  0  0  0  0  0  0  0  0  0
  152.0254  140.8191  159.5826 H   0  0  0  0  0  0  0  0  0  0  0  0
  152.8477  141.5217  158.1627 H   0  0  0  0  0  0  0  0  0  0  0  0
  149.5008  137.9504  156.8845 H   0  0  0  0  0  0  0  0  0  0  0  0
  150.9900  137.0726  157.1227 H   0  0  0  0  0  0  0  0  0  0  0  0
  1  2  1  0  0  0  0
  1 24  1  0  0  0  0
  1 25  1  0  0  0  0
  1 26  1  0  0  0  0
  2  3  1  0  0  0  0
  2 27  1  0  0  0  0
  2 28  1  0  0  0  0
  3  4  1  0  0  0  0
  4  9  1  0  0  0  0
  4  5  2  0  0  0  0
  5  6  1  0  0  0  0
  6  7  2  0  0  0  0
  6 29  1  0  0  0  0
  7  8  1  0  0  0  0
  7 30  1  0  0  0  0
  8  9  2  0  0  0  0
  8 31  1  0  0  0  0
  9 10  1  0  0  0  0
 10 11  1  0  0  0  0
 10 32  1  0  0  0  0
 11 12  2  0  0  0  0
 11 13  1  0  0  0  0
 13 14  1  0  0  0  0
 13 33  1  0  0  0  0
 14 23  1  0  0  0  0
 14 15  1  0  0  0  0
 14 34  1  0  0  0  0
 15 16  1  0  0  0  0
 15 35  1  0  0  0  0
 15 36  1  0  0  0  0
 16 17  1  0  0  0  0
 16 37  1  0  0  0  0
 16 38  1  0  0  0  0
 17 18  1  0  0  0  0
 17 39  1  0  0  0  0
 17 40  1  0  0  0  0
 18 19  1  0  0  0  0
 18 23  1  0  0  0  0
 19 20  1  0  0  0  0
 19 21  2  0  0  0  0
 19 22  2  0  0  0  0
 20 41  1  0  0  0  0
 20 42  1  0  0  0  0
 20 43  1  0  0  0  0
 23 44  1  0  0  0  0
 23 45  1  0  0  0  0
M  END
> <s_m_source_file>
AV-unprocessed.smi

> <i_m_source_file_index>
1044

> <i_lp_mmshare_version>
43012

> <i_f3d_flags>
0

> <s_epik_input>
W0NIM11bQ0gyXU9jMW5bY0hdW2NIXVtjSF1jMVtOSF1DKD1PKVtOSF1bQ0BASF0yW0NIMl1bQ0gyXVtDSDJdTihbQ0gyXTIpUyg9TykoPU8pW0NIM10=

> <s_epik_cmdline>
J2VwaWtfcHl0aG9uJywgJy1waCcsICc3LjAnLCAnLXRuJywgJzgnLCAnLW1hJywgJzIwMCcsICctbWV0YWxfYmluZGluZycsICctaW1hZScsICc8aW5maWxlLm1hZT4nLCAnLW9tYWUnLCAnPG91dGZpbGUubWFlPic=

> <r_lp_tautomer_probability>
1

> <r_epik_Ionization_Penalty>
0.000106941

> <r_epik_Ionization_Penalty_Charging>
0

> <r_epik_Ionization_Penalty_Neutral>
0.000106941

> <r_epik_State_Penalty>
-0

> <r_epik_Charging_Adjusted_Penalty>
0

> <i_epik_Tot_Q>
0

> <i_epik_Tot_abs_Q>
0

> <r_epik_Metal_State_Penalty>
-0

> <b_epik_Metal_Only>
0

> <s_lp_Force_Field>
OPLS_2005

> <r_lp_Energy>
2.58549

> <b_lp_Chiralities_Consistent>
1

> <s_lp_Variant>
AV-unprocessed.smi:1044-2

> <Gold.Version>
5.8.1

> <Gold.Id.Protein>
6NUR|6NUR_protein|mol2

> <Gold.PLP.Fitness>
43.1660

> <Gold.PLP.PLP>
-35.8331

> <Gold.PLP.part.hbond>
-3.1950

> <Gold.PLP.part.metal>
0.0000

> <Gold.PLP.part.buried>
-3.5378

> <Gold.PLP.part.nonpolar>
-29.1414

> <Gold.PLP.part.repulsive>
0.9546

> <Gold.PLP.ligand.clash>
0.0000

> <Gold.PLP.ligand.torsion>
1.7813

> <Gold.PLP.Chemscore.Hbond>
2.9344

> <Gold.PLP.Chemscore.CHOScore>
0.0000

> <Gold.PLP.Chemscore.Metal>
0.0000

> <Gold.Chemscore.Hbonds>
donor molecule, donor type, donor heavy atom, donor atom, acceptor molecule, acceptor atom, score
      L1  H    10    32       P1  7948  0.73
      L1  H    13    33       P1  7948  0.90
      P1  H  7997  8009       L1    22  0.32

> <Gold.PLP.Chemscore.Internal.Correction>
2.0923

> <Gold.Rescore>
     Score         DG    S(hbond)    S(metal)    S(lipo)     H(rot)  DE(clash)    DE(int)     intcor
     12.46     -16.79       2.25        0.00      64.29       1.45       0.28       4.06       ----

> <Gold.Chemscore.Fitness>
12.4552

> <Gold.Chemscore.DG>
-16.7901

> <Gold.Chemscore.ZeroCoef>
-5.4800

> <Gold.Chemscore.Hbond>
2.2493

> <Gold.Chemscore.Metal>
0.0000

> <Gold.Chemscore.Lipo>
64.2898

> <Gold.Chemscore.Internal_Hbond>
0.0000

> <Gold.Chemscore.DEClash>
0.2789

> <Gold.Chemscore.DEInternal>
4.0560

> <Gold.Chemscore.Rot>
1.4549

> <Gold.Chemscore.Internal.Correction>
   9.000000E+99

> <Gold.Chemscore.Hbonds>
donor molecule, donor type, donor heavy atom, donor atom, acceptor molecule, acceptor atom, score
      L1  H    10    32       P1  7948  0.39
      L1  H    13    33       P1  7948  0.72
      P1  H  7997  8009       L1    22  0.29

> <Gold.Chemscore.Hbond.Weighted>
-7.5126

> <Gold.Chemscore.Metal.Weighted>
-0.0000

> <Gold.Chemscore.Lipo.Weighted>
-7.5219

> <Gold.Chemscore.Internal_Hbond.Weighted>
0.0000

> <Gold.Chemscore.DEClash.Weighted>
0.2789

> <Gold.Chemscore.DEInternal.Weighted>
4.0560

> <Gold.Chemscore.Rot.Weighted>
3.7244

> <Gold.Chemscore.Internal.Correction.Weighted>
   9.000000E+99

> <Gold.Protein.RotatedTorsions>
[ 6907 6896 6895 6894 ] final -172.35 input  -60.11 | X-H torsion
[ 7974 7965 7964 7962 ] final  115.07 input  175.53 | X-H torsion
[ 8008 7997 7996 7995 ] final  153.29 input   59.86 | X-H torsion
[ 10167 10162 10161 10158 ] final  -30.31 input  -65.29 | X-H torsion
[ 10718 10713 10712 10709 ] final -123.16 input   66.30 | X-H torsion
[ 10763 10752 10751 10750 ] final  139.97 input  -60.55 | X-H torsion
[ 11005 11000 10999 10996 ] final  162.23 input  -57.11 | X-H torsion

> <Gold.Protein.ActiveResidues>
 VAL166  LYS551  ARG553  GLY616  TRP617  ASP618  TYR619  PRO620  LYS621  CYS622 
 ASP623  PHE694  ASN695  SER759  ASP760  ASP761  ALA762  ILE779  LEU786  VAL792 
 PHE793  MET794  SER795  GLU796  ALA797  LYS798  CYS799  TRP800  GLU811  SER814 

> <Gold.Protein.RotatedAtoms>
  151.5385  133.3437  159.2930 H   0  0  0  0  0  0  0  0  0  0  0  0  # atno 6907 bound_to 6896
  150.8550  134.7889  159.7049 H   0  0  0  0  0  0  0  0  0  0  0  0  # atno 6908 bound_to 6896
  152.4586  134.5244  159.9844 H   0  0  0  0  0  0  0  0  0  0  0  0  # atno 6909 bound_to 6896
  145.1966  139.2973  143.4340 H   0  0  0  0  0  0  0  0  0  0  0  0  # atno 7974 bound_to 7965
  156.2588  140.1997  156.6467 H   0  0  0  0  0  0  0  0  0  0  0  0  # atno 8008 bound_to 7997
  154.6568  140.0565  157.0042 H   0  0  0  0  0  0  0  0  0  0  0  0  # atno 8009 bound_to 7997
  155.1336  140.3236  155.4471 H   0  0  0  0  0  0  0  0  0  0  0  0  # atno 8010 bound_to 7997
  140.7251  143.3859  151.1517 H   0  0  0  0  0  0  0  0  0  0  0  0  # atno 10167 bound_to 10162
  156.1478  130.6513  150.9869 H   0  0  0  0  0  0  0  0  0  0  0  0  # atno 10718 bound_to 10713
  153.9150  135.3007  155.3448 H   0  0  0  0  0  0  0  0  0  0  0  0  # atno 10763 bound_to 10752
  154.7604  135.4936  153.9457 H   0  0  0  0  0  0  0  0  0  0  0  0  # atno 10764 bound_to 10752
  153.1172  135.6773  153.9499 H   0  0  0  0  0  0  0  0  0  0  0  0  # atno 10765 bound_to 10752
  140.2237  134.8177  157.3246 H   0  0  0  0  0  0  0  0  0  0  0  0  # atno 11005 bound_to 11000
  146.3426  140.2197  142.8591 LP  0  0  0  0  0  0  0  0  0  0  0  0  # atno 17320 bound_to 7965
  144.9989  140.8614  143.5294 LP  0  0  0  0  0  0  0  0  0  0  0  0  # atno 17321 bound_to 7965
  139.7455  143.8858  152.3062 LP  0  0  0  0  0  0  0  0  0  0  0  0  # atno 17342 bound_to 10162
  139.8694  144.7076  150.9006 LP  0  0  0  0  0  0  0  0  0  0  0  0  # atno 17343 bound_to 10162
  157.6632  131.0877  150.7791 LP  0  0  0  0  0  0  0  0  0  0  0  0  # atno 17370 bound_to 10713
  156.7861  130.4875  149.5392 LP  0  0  0  0  0  0  0  0  0  0  0  0  # atno 17371 bound_to 10713
  140.1823  134.4475  155.7765 LP  0  0  0  0  0  0  0  0  0  0  0  0  # atno 17394 bound_to 11000
  141.2222  133.6989  156.7888 LP  0  0  0  0  0  0  0  0  0  0  0  0  # atno 17395 bound_to 11000

$$$$
