AV-unprocessed.smi:3041|AV-procd|sdf|11598|dock9
  -GOLD-   2272016573D 1   1.00000     0.00000
 Structure written by MMmdl.
 38 39  0  0  0  0  0  0  0  0  1 V2000
  144.3608  132.3056  149.6543 C   0  0  0  0  0  0  0  0  0  0  0  0
  144.8033  133.3835  150.5122 N   0  0  0  0  0  0  0  0  0  0  0  0
  144.1351  134.5385  150.8563 C   0  0  0  0  0  0  0  0  0  0  0  0
  144.9502  135.2506  151.6906 C   0  0  0  0  0  0  0  0  0  0  0  0
  144.6894  136.5734  152.3609 C   0  0  0  0  0  0  0  0  0  0  0  0
  145.4456  136.7321  153.6929 C   0  0  0  0  0  0  0  0  0  0  0  0
  146.7987  137.2496  153.5029 N   0  0  0  0  0  0  0  0  0  0  0  0
  147.3134  138.3258  154.1155 C   0  0  0  0  0  0  0  0  0  0  0  0
  146.7023  139.0112  154.9354 O   0  0  0  0  0  0  0  0  0  0  0  0
  148.5706  138.5657  153.7188 N   0  0  0  0  0  0  0  0  0  0  0  0
  149.4161  139.6545  154.1974 C   0  0  0  0  0  0  0  0  0  0  0  0
  150.4797  139.1333  155.1779 C   0  0  1  0  0  0  0  0  0  0  0  0
  151.5711  138.2906  154.5466 C   0  0  0  0  0  0  0  0  0  0  0  0
  152.6674  138.3506  155.6062 C   0  0  0  0  0  0  0  0  0  0  0  0
  152.5215  139.6141  156.2485 O   0  0  0  0  0  0  0  0  0  0  0  0
  151.3066  140.2350  155.8393 C   0  0  0  0  0  0  0  0  0  0  0  0
  146.1132  134.4349  151.7914 C   0  0  0  0  0  0  0  0  0  0  0  0
  146.0228  133.3203  151.0847 N   0  0  0  0  0  0  0  0  0  0  0  0
  143.2961  132.4093  149.4431 H   0  0  0  0  0  0  0  0  0  0  0  0
  144.5315  131.3460  150.1437 H   0  0  0  0  0  0  0  0  0  0  0  0
  144.9140  132.3329  148.7152 H   0  0  0  0  0  0  0  0  0  0  0  0
  143.1425  134.7535  150.4891 H   0  0  0  0  0  0  0  0  0  0  0  0
  144.9726  137.3928  151.6995 H   0  0  0  0  0  0  0  0  0  0  0  0
  143.6219  136.7038  152.5428 H   0  0  0  0  0  0  0  0  0  0  0  0
  144.8780  137.3692  154.3734 H   0  0  0  0  0  0  0  0  0  0  0  0
  145.5240  135.7617  154.1834 H   0  0  0  0  0  0  0  0  0  0  0  0
  147.3838  136.7542  152.8463 H   0  0  0  0  0  0  0  0  0  0  0  0
  148.9782  137.9432  153.0367 H   0  0  0  0  0  0  0  0  0  0  0  0
  149.8910  140.1249  153.3357 H   0  0  0  0  0  0  0  0  0  0  0  0
  148.8254  140.4300  154.6880 H   0  0  0  0  0  0  0  0  0  0  0  0
  149.9948  138.5488  155.9619 H   0  0  0  0  0  0  0  0  0  0  0  0
  151.2547  137.2714  154.3229 H   0  0  0  0  0  0  0  0  0  0  0  0
  151.9213  138.7513  153.6215 H   0  0  0  0  0  0  0  0  0  0  0  0
  152.5219  137.5655  156.3492 H   0  0  0  0  0  0  0  0  0  0  0  0
  153.6636  138.2328  155.1799 H   0  0  0  0  0  0  0  0  0  0  0  0
  151.5480  141.0213  155.1228 H   0  0  0  0  0  0  0  0  0  0  0  0
  150.7905  140.6941  156.6827 H   0  0  0  0  0  0  0  0  0  0  0  0
  147.0137  134.6176  152.3588 H   0  0  0  0  0  0  0  0  0  0  0  0
  1  2  1  0  0  0  0
  1 19  1  0  0  0  0
  1 20  1  0  0  0  0
  1 21  1  0  0  0  0
  2 18  1  0  0  0  0
  2  3  1  0  0  0  0
  3  4  2  0  0  0  0
  3 22  1  0  0  0  0
  4  5  1  0  0  0  0
  4 17  1  0  0  0  0
  5  6  1  0  0  0  0
  5 23  1  0  0  0  0
  5 24  1  0  0  0  0
  6  7  1  0  0  0  0
  6 25  1  0  0  0  0
  6 26  1  0  0  0  0
  7  8  1  0  0  0  0
  7 27  1  0  0  0  0
  8  9  2  0  0  0  0
  8 10  1  0  0  0  0
 10 11  1  0  0  0  0
 10 28  1  0  0  0  0
 11 12  1  0  0  0  0
 11 29  1  0  0  0  0
 11 30  1  0  0  0  0
 12 16  1  0  0  0  0
 12 13  1  0  0  0  0
 12 31  1  0  0  0  0
 13 14  1  0  0  0  0
 13 32  1  0  0  0  0
 13 33  1  0  0  0  0
 14 15  1  0  0  0  0
 14 34  1  0  0  0  0
 14 35  1  0  0  0  0
 15 16  1  0  0  0  0
 16 36  1  0  0  0  0
 16 37  1  0  0  0  0
 17 18  2  0  0  0  0
 17 38  1  0  0  0  0
M  END
> <s_m_source_file>
AV-unprocessed.smi

> <i_m_source_file_index>
3041

> <i_lp_mmshare_version>
43012

> <i_f3d_flags>
0

> <s_epik_input>
W0NIM11uMVtjSF1jKFtjSF1uMSlbQ0gyXVtDSDJdW05IXUMoPU8pW05IXVtDSDJdW0NAQEhdMltDSDJdW0NIMl1PW0NIMl0y

> <s_epik_cmdline>
J2VwaWtfcHl0aG9uJywgJy1waCcsICc3LjAnLCAnLXRuJywgJzgnLCAnLW1hJywgJzIwMCcsICctbWV0YWxfYmluZGluZycsICctaW1hZScsICc8aW5maWxlLm1hZT4nLCAnLW9tYWUnLCAnPG91dGZpbGUubWFlPic=

> <r_lp_tautomer_probability>
1

> <r_epik_Ionization_Penalty>
0.000557811

> <r_epik_Ionization_Penalty_Charging>
0

> <r_epik_Ionization_Penalty_Neutral>
0.000557811

> <r_epik_State_Penalty>
-0

> <r_epik_Charging_Adjusted_Penalty>
0

> <i_epik_Tot_Q>
0

> <i_epik_Tot_abs_Q>
0

> <r_epik_Metal_State_Penalty>
-0

> <b_epik_Metal_Only>
0

> <s_lp_Force_Field>
OPLS_2005

> <r_lp_Energy>
14.3495

> <b_lp_Chiralities_Consistent>
1

> <s_lp_Variant>
AV-unprocessed.smi:3041-2

> <Gold.Version>
5.8.1

> <Gold.Id.Protein>
6NUR|6NUR_protein|mol2

> <Gold.PLP.Fitness>
46.6074

> <Gold.PLP.PLP>
-32.9517

> <Gold.PLP.part.hbond>
-4.0000

> <Gold.PLP.part.metal>
0.0000

> <Gold.PLP.part.buried>
-3.3283

> <Gold.PLP.part.nonpolar>
-26.5187

> <Gold.PLP.part.repulsive>
0.2972

> <Gold.PLP.ligand.clash>
0.0000

> <Gold.PLP.ligand.torsion>
0.6780

> <Gold.PLP.Chemscore.Hbond>
3.0000

> <Gold.PLP.Chemscore.CHOScore>
2.0000

> <Gold.PLP.Chemscore.Metal>
0.0000

> <Gold.Chemscore.Hbonds>
donor molecule, donor type, donor heavy atom, donor atom, acceptor molecule, acceptor atom, score
      L1  H     7    27       P1  7948  1.00
      L1  H    10    28       P1  7948  0.96
      P1  H  7997  8008       L1    15  0.95
      L1  C     3    22       P1 10186  1.00
      L1  C    17    38       P1  7948  0.96

> <Gold.PLP.Chemscore.Internal.Correction>
0.0116

> <Gold.Rescore>
     Score         DG    S(hbond)    S(metal)    S(lipo)     H(rot)  DE(clash)    DE(int)     intcor
     17.73     -18.76       2.88        0.00      71.88       1.85       0.37       0.67       ----

> <Gold.Chemscore.Fitness>
17.7256

> <Gold.Chemscore.DG>
-18.7563

> <Gold.Chemscore.ZeroCoef>
-5.4800

> <Gold.Chemscore.Hbond>
2.8771

> <Gold.Chemscore.Metal>
0.0000

> <Gold.Chemscore.Lipo>
71.8803

> <Gold.Chemscore.Internal_Hbond>
0.0000

> <Gold.Chemscore.DEClash>
0.3652

> <Gold.Chemscore.DEInternal>
0.6655

> <Gold.Chemscore.Rot>
1.8528

> <Gold.Chemscore.Internal.Correction>
   9.000000E+99

> <Gold.Chemscore.Hbonds>
donor molecule, donor type, donor heavy atom, donor atom, acceptor molecule, acceptor atom, score
      L1  H     7    27       P1  7948  0.99
      L1  H    10    28       P1  7948  0.88
      P1  H  7997  8008       L1    15  0.22

> <Gold.Chemscore.Hbond.Weighted>
-9.6096

> <Gold.Chemscore.Metal.Weighted>
-0.0000

> <Gold.Chemscore.Lipo.Weighted>
-8.4100

> <Gold.Chemscore.Internal_Hbond.Weighted>
0.0000

> <Gold.Chemscore.DEClash.Weighted>
0.3652

> <Gold.Chemscore.DEInternal.Weighted>
0.6655

> <Gold.Chemscore.Rot.Weighted>
4.7433

> <Gold.Chemscore.Internal.Correction.Weighted>
   9.000000E+99

> <Gold.Protein.RotatedTorsions>
[ 6907 6896 6895 6894 ] final  126.81 input  -60.11 | X-H torsion
[ 7974 7965 7964 7962 ] final  158.61 input  175.53 | X-H torsion
[ 8008 7997 7996 7995 ] final  -42.30 input   59.86 | X-H torsion
[ 10167 10162 10161 10158 ] final  -66.78 input  -65.29 | X-H torsion
[ 10718 10713 10712 10709 ] final   39.12 input   66.30 | X-H torsion
[ 10763 10752 10751 10750 ] final  122.72 input  -60.55 | X-H torsion
[ 11005 11000 10999 10996 ] final  148.98 input  -57.11 | X-H torsion

> <Gold.Protein.ActiveResidues>
 VAL166  LYS551  ARG553  GLY616  TRP617  ASP618  TYR619  PRO620  LYS621  CYS622 
 ASP623  PHE694  ASN695  SER759  ASP760  ASP761  ALA762  ILE779  LEU786  VAL792 
 PHE793  MET794  SER795  GLU796  ALA797  LYS798  CYS799  TRP800  GLU811  SER814 

> <Gold.Protein.RotatedAtoms>
  152.3870  133.6625  159.6206 H   0  0  0  0  0  0  0  0  0  0  0  0  # atno 6907 bound_to 6896
  150.7787  133.9019  159.3352 H   0  0  0  0  0  0  0  0  0  0  0  0  # atno 6908 bound_to 6896
  151.6813  135.0962  160.0268 H   0  0  0  0  0  0  0  0  0  0  0  0  # atno 6909 bound_to 6896
  144.7836  139.7502  143.6250 H   0  0  0  0  0  0  0  0  0  0  0  0  # atno 7974 bound_to 7965
  154.3999  140.1477  156.3333 H   0  0  0  0  0  0  0  0  0  0  0  0  # atno 8008 bound_to 7997
  155.8423  140.3461  155.5619 H   0  0  0  0  0  0  0  0  0  0  0  0  # atno 8009 bound_to 7997
  155.8073  140.0879  157.1914 H   0  0  0  0  0  0  0  0  0  0  0  0  # atno 8010 bound_to 7997
  140.5632  143.2313  151.6687 H   0  0  0  0  0  0  0  0  0  0  0  0  # atno 10167 bound_to 10162
  157.3668  130.7679  149.7089 H   0  0  0  0  0  0  0  0  0  0  0  0  # atno 10718 bound_to 10713
  153.6342  135.3391  155.3051 H   0  0  0  0  0  0  0  0  0  0  0  0  # atno 10763 bound_to 10752
  154.8574  135.4303  154.2074 H   0  0  0  0  0  0  0  0  0  0  0  0  # atno 10764 bound_to 10752
  153.2977  135.7022  153.7306 H   0  0  0  0  0  0  0  0  0  0  0  0  # atno 10765 bound_to 10752
  140.1006  134.8986  157.1790 H   0  0  0  0  0  0  0  0  0  0  0  0  # atno 11005 bound_to 11000
  146.2057  139.5379  142.9714 LP  0  0  0  0  0  0  0  0  0  0  0  0  # atno 17320 bound_to 7965
  145.5982  141.0359  143.2032 LP  0  0  0  0  0  0  0  0  0  0  0  0  # atno 17321 bound_to 7965
  139.5080  144.3626  152.0547 LP  0  0  0  0  0  0  0  0  0  0  0  0  # atno 17342 bound_to 10162
  140.2755  144.3917  150.6136 LP  0  0  0  0  0  0  0  0  0  0  0  0  # atno 17343 bound_to 10162
  155.9747  130.4098  150.3899 LP  0  0  0  0  0  0  0  0  0  0  0  0  # atno 17370 bound_to 10713
  157.1984  131.0432  151.2663 LP  0  0  0  0  0  0  0  0  0  0  0  0  # atno 17371 bound_to 10713
  140.3226  134.2900  155.7243 LP  0  0  0  0  0  0  0  0  0  0  0  0  # atno 17394 bound_to 11000
  141.2104  133.7719  156.9931 LP  0  0  0  0  0  0  0  0  0  0  0  0  # atno 17395 bound_to 11000

$$$$
