AV-unprocessed.smi:2636|AV-procd|sdf|10259|dock2
  -GOLD-   2272014273D 1   1.00000     0.00000
 Structure written by MMmdl.
 35 36  0  0  0  0  0  0  0  0  2 V2000
  150.9876  141.0459  156.9537 C   0  0  0  0  0  0  0  0  0  0  0  0
  151.8995  139.8325  156.9657 C   0  0  0  0  0  0  0  0  0  0  0  0
  152.4246  139.3266  158.1007 C   0  0  0  0  0  0  0  0  0  0  0  0
  153.2649  138.2014  158.1002 N   0  0  0  0  0  0  0  0  0  0  0  0
  153.7427  137.6858  159.3718 C   0  0  0  0  0  0  0  0  0  0  0  0
  153.6297  138.6839  160.3322 O   0  0  0  0  0  0  0  0  0  0  0  0
  154.6867  139.6286  160.2799 C   0  0  0  0  0  0  0  0  0  0  0  0
  154.2047  141.0003  159.8470 C   0  0  0  0  0  0  0  0  0  0  0  0
  153.1833  141.6781  160.4050 C   0  0  0  0  0  0  0  0  0  0  0  0
  152.6922  143.0099  160.0061 C   0  0  0  0  0  0  0  0  0  0  0  0
  152.0829  143.9045  160.9183 C   0  0  0  0  0  0  0  0  0  0  0  0
  151.6304  145.1675  160.4888 C   0  0  0  0  0  0  0  0  0  0  0  0
  151.7830  145.5527  159.1442 C   0  0  0  0  0  0  0  0  0  0  0  0
  152.3886  144.6720  158.2290 C   0  0  0  0  0  0  0  0  0  0  0  0
  152.8391  143.4087  158.6593 C   0  0  0  0  0  0  0  0  0  0  0  0
  153.5472  137.5524  156.9315 C   0  0  0  0  0  0  0  0  0  0  0  0
  154.2557  136.5450  156.9577 O   0  0  0  0  0  0  0  0  0  0  0  0
  153.0332  138.0535  155.7666 N   0  5  0  0  0  0  0  0  0  0  0  0
  152.2312  139.1570  155.7084 C   0  0  0  0  0  0  0  0  0  0  0  0
  151.7853  139.5921  154.6471 O   0  0  0  0  0  0  0  0  0  0  0  0
  150.8453  141.4417  157.9596 H   0  0  0  0  0  0  0  0  0  0  0  0
  150.0089  140.7821  156.5515 H   0  0  0  0  0  0  0  0  0  0  0  0
  151.4130  141.8368  156.3354 H   0  0  0  0  0  0  0  0  0  0  0  0
  152.2280  139.7492  159.0751 H   0  0  0  0  0  0  0  0  0  0  0  0
  153.1496  136.8097  159.6431 H   0  0  0  0  0  0  0  0  0  0  0  0
  154.7839  137.3746  159.2721 H   0  0  0  0  0  0  0  0  0  0  0  0
  155.1536  139.7199  161.2616 H   0  0  0  0  0  0  0  0  0  0  0  0
  155.4533  139.2961  159.5787 H   0  0  0  0  0  0  0  0  0  0  0  0
  154.7542  141.4260  159.0218 H   0  0  0  0  0  0  0  0  0  0  0  0
  152.6560  141.2202  161.2296 H   0  0  0  0  0  0  0  0  0  0  0  0
  151.9516  143.6403  161.9560 H   0  0  0  0  0  0  0  0  0  0  0  0
  151.1655  145.8417  161.1932 H   0  0  0  0  0  0  0  0  0  0  0  0
  151.4361  146.5214  158.8158 H   0  0  0  0  0  0  0  0  0  0  0  0
  152.5070  144.9639  157.1960 H   0  0  0  0  0  0  0  0  0  0  0  0
  153.3012  142.7429  157.9447 H   0  0  0  0  0  0  0  0  0  0  0  0
  1  2  1  0  0  0  0
  1 21  1  0  0  0  0
  1 22  1  0  0  0  0
  1 23  1  0  0  0  0
  2 19  1  0  0  0  0
  2  3  2  0  0  0  0
  3  4  1  0  0  0  0
  3 24  1  0  0  0  0
  4  5  1  0  0  0  0
  4 16  1  0  0  0  0
  5  6  1  0  0  0  0
  5 25  1  0  0  0  0
  5 26  1  0  0  0  0
  6  7  1  0  0  0  0
  7  8  1  0  0  0  0
  7 27  1  0  0  0  0
  7 28  1  0  0  0  0
  8  9  2  0  0  0  0
  8 29  1  0  0  0  0
  9 10  1  0  0  0  0
  9 30  1  0  0  0  0
 10 15  1  0  0  0  0
 10 11  2  0  0  0  0
 11 12  1  0  0  0  0
 11 31  1  0  0  0  0
 12 13  2  0  0  0  0
 12 32  1  0  0  0  0
 13 14  1  0  0  0  0
 13 33  1  0  0  0  0
 14 15  2  0  0  0  0
 14 34  1  0  0  0  0
 15 35  1  0  0  0  0
 16 17  2  0  0  0  0
 16 18  1  0  0  0  0
 18 19  1  0  0  0  0
 19 20  2  0  0  0  0
M  CHG  1  18  -1
M  END
> <s_m_source_file>
AV-unprocessed.smi

> <i_m_source_file_index>
2636

> <i_lp_mmshare_version>
43012

> <i_f3d_flags>
0

> <s_epik_input>
Tz1jMVtuSF1jKD1PKW4oW2NIXWMxW0NIM10pW0NIMl1PW0NIMl0vW0NIXT1bQ0hdL2MyW2NIXVtjSF1bY0hdW2NIXVtjSF0y

> <s_epik_cmdline>
J2VwaWtfcHl0aG9uJywgJy1waCcsICc3LjAnLCAnLXRuJywgJzgnLCAnLW1hJywgJzIwMCcsICctbWV0YWxfYmluZGluZycsICctaW1hZScsICc8aW5maWxlLm1hZT4nLCAnLW9tYWUnLCAnPG91dGZpbGUubWFlPic=

> <r_lp_tautomer_probability>
0.999537

> <r_epik_Ionization_Penalty>
3.43625

> <r_epik_Ionization_Penalty_Charging>
7.29021e-08

> <r_epik_Ionization_Penalty_Neutral>
3.43625

> <r_epik_State_Penalty>
3.43567

> <r_epik_Charging_Adjusted_Penalty>
3.43567

> <i_epik_Tot_Q>
-1

> <i_epik_Tot_abs_Q>
1

> <r_epik_Metal_State_Penalty>
0.168611

> <b_epik_Metal_Only>
1

> <s_epik_Chemistry_Notes>
This compound contains an acetal/aminal-like group ( X-CH(R)-Y where X, Y are N, S, or O) that may be acid/base labile, releasing an aldehyde.

> <s_lp_Force_Field>
OPLS_2005

> <r_lp_Energy>
15.3134

> <b_lp_Chiralities_Consistent>
1

> <s_lp_Variant>
AV-unprocessed.smi:2636-3

> <Gold.Version>
5.8.1

> <Gold.Id.Protein>
6NUR|6NUR_protein|mol2

> <Gold.PLP.Fitness>
51.5571

> <Gold.PLP.PLP>
-47.3045

> <Gold.PLP.part.hbond>
-2.0648

> <Gold.PLP.part.metal>
0.0000

> <Gold.PLP.part.buried>
-4.4039

> <Gold.PLP.part.nonpolar>
-40.4968

> <Gold.PLP.part.repulsive>
0.0636

> <Gold.PLP.ligand.clash>
0.0000

> <Gold.PLP.ligand.torsion>
0.8995

> <Gold.PLP.Chemscore.Hbond>
2.0000

> <Gold.PLP.Chemscore.CHOScore>
0.0000

> <Gold.PLP.Chemscore.Metal>
0.0000

> <Gold.Chemscore.Hbonds>
donor molecule, donor type, donor heavy atom, donor atom, acceptor molecule, acceptor atom, score
      P1  H  7989  7998       L1    20  1.00
      P1  H 10752 10765       L1    17  1.00

> <Gold.PLP.Chemscore.Internal.Correction>
0.0516

> <Gold.Rescore>
     Score         DG    S(hbond)    S(metal)    S(lipo)     H(rot)  DE(clash)    DE(int)     intcor
     20.19     -21.19       1.89        0.00     121.35       1.88       0.14       0.86       ----

> <Gold.Chemscore.Fitness>
20.1870

> <Gold.Chemscore.DG>
-21.1884

> <Gold.Chemscore.ZeroCoef>
-5.4800

> <Gold.Chemscore.Hbond>
1.8933

> <Gold.Chemscore.Metal>
0.0000

> <Gold.Chemscore.Lipo>
121.3460

> <Gold.Chemscore.Internal_Hbond>
0.0000

> <Gold.Chemscore.DEClash>
0.1448

> <Gold.Chemscore.DEInternal>
0.8566

> <Gold.Chemscore.Rot>
1.8800

> <Gold.Chemscore.Internal.Correction>
   9.000000E+99

> <Gold.Chemscore.Hbonds>
donor molecule, donor type, donor heavy atom, donor atom, acceptor molecule, acceptor atom, score
      P1  H  7989  7998       L1    20  0.96
      P1  H 10752 10765       L1    17  0.82

> <Gold.Chemscore.Hbond.Weighted>
-6.3237

> <Gold.Chemscore.Metal.Weighted>
-0.0000

> <Gold.Chemscore.Lipo.Weighted>
-14.1975

> <Gold.Chemscore.Internal_Hbond.Weighted>
0.0000

> <Gold.Chemscore.DEClash.Weighted>
0.1448

> <Gold.Chemscore.DEInternal.Weighted>
0.8566

> <Gold.Chemscore.Rot.Weighted>
4.8129

> <Gold.Chemscore.Internal.Correction.Weighted>
   9.000000E+99

> <Gold.Protein.RotatedTorsions>
[ 6907 6896 6895 6894 ] final   53.27 input  -60.11 | X-H torsion
[ 7974 7965 7964 7962 ] final  -46.71 input  175.53 | X-H torsion
[ 8008 7997 7996 7995 ] final  -46.78 input   59.86 | X-H torsion
[ 10167 10162 10161 10158 ] final  168.38 input  -65.29 | X-H torsion
[ 10718 10713 10712 10709 ] final   -9.88 input   66.30 | X-H torsion
[ 10763 10752 10751 10750 ] final  -95.13 input  -60.55 | X-H torsion
[ 11005 11000 10999 10996 ] final  147.70 input  -57.11 | X-H torsion

> <Gold.Protein.ActiveResidues>
 VAL166  LYS551  ARG553  GLY616  TRP617  ASP618  TYR619  PRO620  LYS621  CYS622 
 ASP623  PHE694  ASN695  SER759  ASP760  ASP761  ALA762  ILE779  LEU786  VAL792 
 PHE793  MET794  SER795  GLU796  ALA797  LYS798  CYS799  TRP800  GLU811  SER814 

> <Gold.Protein.RotatedAtoms>
  152.3319  134.7248  160.0286 H   0  0  0  0  0  0  0  0  0  0  0  0  # atno 6907 bound_to 6896
  151.7661  133.3332  159.3439 H   0  0  0  0  0  0  0  0  0  0  0  0  # atno 6908 bound_to 6896
  150.7428  134.5993  159.6072 H   0  0  0  0  0  0  0  0  0  0  0  0  # atno 6909 bound_to 6896
  145.9691  140.7401  142.9419 H   0  0  0  0  0  0  0  0  0  0  0  0  # atno 7974 bound_to 7965
  154.4010  140.1363  156.4068 H   0  0  0  0  0  0  0  0  0  0  0  0  # atno 8008 bound_to 7997
  155.7772  140.3482  155.5257 H   0  0  0  0  0  0  0  0  0  0  0  0  # atno 8009 bound_to 7997
  155.8709  140.0971  157.1541 H   0  0  0  0  0  0  0  0  0  0  0  0  # atno 8010 bound_to 7997
  139.4967  144.3820  151.9611 H   0  0  0  0  0  0  0  0  0  0  0  0  # atno 10167 bound_to 10162
  156.6816  130.5038  149.5970 H   0  0  0  0  0  0  0  0  0  0  0  0  # atno 10718 bound_to 10713
  154.7120  135.5132  153.8681 H   0  0  0  0  0  0  0  0  0  0  0  0  # atno 10763 bound_to 10752
  153.0788  135.6625  154.0097 H   0  0  0  0  0  0  0  0  0  0  0  0  # atno 10764 bound_to 10752
  153.9937  135.3017  155.3389 H   0  0  0  0  0  0  0  0  0  0  0  0  # atno 10765 bound_to 10752
  140.0898  134.9048  157.1632 H   0  0  0  0  0  0  0  0  0  0  0  0  # atno 11005 bound_to 11000
  144.6832  140.2719  143.7304 LP  0  0  0  0  0  0  0  0  0  0  0  0  # atno 17320 bound_to 7965
  145.7931  139.1935  143.2091 LP  0  0  0  0  0  0  0  0  0  0  0  0  # atno 17321 bound_to 7965
  140.3257  144.3376  150.5999 LP  0  0  0  0  0  0  0  0  0  0  0  0  # atno 17342 bound_to 10162
  140.5686  143.2183  151.7638 LP  0  0  0  0  0  0  0  0  0  0  0  0  # atno 17343 bound_to 10162
  156.1864  130.6531  151.1011 LP  0  0  0  0  0  0  0  0  0  0  0  0  # atno 17370 bound_to 10713
  157.7042  131.0763  150.6723 LP  0  0  0  0  0  0  0  0  0  0  0  0  # atno 17371 bound_to 10713
  140.3369  134.2747  155.7218 LP  0  0  0  0  0  0  0  0  0  0  0  0  # atno 17394 bound_to 11000
  141.2074  133.7806  157.0120 LP  0  0  0  0  0  0  0  0  0  0  0  0  # atno 17395 bound_to 11000

$$$$
