AV-unprocessed.smi:227|AV-procd|sdf|1727|dock6
  -GOLD-   2262020213D 1   1.00000     0.00000
 Structure written by MMmdl.
 54 58  0  0  0  0  0  0  0  0  1 V2000
  147.1943  136.5801  153.8418 O   0  0  0  0  0  0  0  0  0  0  0  0
  145.8422  136.1768  153.7786 C   0  0  0  0  0  0  0  0  0  0  0  0
  145.7189  134.6642  153.4621 C   0  0  2  0  0  0  0  0  0  0  0  0
  146.4853  133.8140  154.5178 C   0  0  0  0  0  0  0  0  0  0  0  0
  146.0408  134.0186  155.8894 N   0  0  0  0  0  0  0  0  0  0  0  0
  144.7458  133.9830  156.3531 C   0  0  0  0  0  0  0  0  0  0  0  0
  144.6078  134.1961  157.6320 N   0  0  0  0  0  0  0  0  0  0  0  0
  145.9022  134.4080  158.0926 C   0  0  0  0  0  0  0  0  0  0  0  0
  146.4815  134.6889  159.3665 C   0  0  0  0  0  0  0  0  0  0  0  0
  145.7830  134.8127  160.5300 N   0  0  0  0  0  0  0  0  0  0  0  0
  145.9713  133.8843  161.6355 C   0  0  2  0  0  0  0  0  0  0  0  0
  144.8556  134.3023  162.6083 C   0  0  0  0  0  0  0  0  0  0  0  0
  144.8136  135.8204  162.3854 C   0  0  0  0  0  0  0  0  0  0  0  0
  145.9417  136.0054  161.3534 C   0  0  1  0  0  0  0  0  0  0  0  0
  147.3392  135.8068  161.9963 C   0  0  1  0  0  0  0  0  0  0  0  0
  147.6512  136.6690  163.2336 C   0  0  0  0  0  0  0  0  0  0  0  0
  147.1755  137.9831  163.0359 O   0  0  0  0  0  0  0  0  0  0  0  0
  147.3336  134.2850  162.2380 C   0  0  0  0  0  0  0  0  0  0  0  0
  147.8286  134.8684  159.4074 N   0  0  0  0  0  0  0  0  0  0  0  0
  148.5647  134.7623  158.2986 C   0  0  0  0  0  0  0  0  0  0  0  0
  148.1639  134.4915  157.0567 N   0  0  0  0  0  0  0  0  0  0  0  0
  146.8130  134.3187  156.9994 C   0  0  0  0  0  0  0  0  0  0  0  0
  146.1480  134.3524  151.9936 C   0  0  2  0  0  0  0  0  0  0  0  0
  145.2379  134.9430  150.9191 C   0  0  0  0  0  0  0  0  0  0  0  0
  144.1212  133.9094  150.7743 C   0  0  0  0  0  0  0  0  0  0  0  0
  144.6603  132.6838  151.2555 O   0  0  0  0  0  0  0  0  0  0  0  0
  146.0259  132.8736  151.5966 C   0  0  0  0  0  0  0  0  0  0  0  0
  147.6086  136.3660  153.0194 H   0  0  0  0  0  0  0  0  0  0  0  0
  145.4100  136.4250  154.7449 H   0  0  0  0  0  0  0  0  0  0  0  0
  145.3159  136.7807  153.0395 H   0  0  0  0  0  0  0  0  0  0  0  0
  144.6640  134.4023  153.5570 H   0  0  0  0  0  0  0  0  0  0  0  0
  146.3944  132.7523  154.2876 H   0  0  0  0  0  0  0  0  0  0  0  0
  147.5560  134.0066  154.4748 H   0  0  0  0  0  0  0  0  0  0  0  0
  143.8982  133.7876  155.7130 H   0  0  0  0  0  0  0  0  0  0  0  0
  145.9015  132.8274  161.3863 H   0  0  0  0  0  0  0  0  0  0  0  0
  143.9036  133.8486  162.3296 H   0  0  0  0  0  0  0  0  0  0  0  0
  145.0726  134.0294  163.6416 H   0  0  0  0  0  0  0  0  0  0  0  0
  143.8542  136.1102  161.9545 H   0  0  0  0  0  0  0  0  0  0  0  0
  144.9476  136.3967  163.2999 H   0  0  0  0  0  0  0  0  0  0  0  0
  145.8501  136.9478  160.8124 H   0  0  0  0  0  0  0  0  0  0  0  0
  148.0881  136.0355  161.2359 H   0  0  0  0  0  0  0  0  0  0  0  0
  147.1662  136.2541  164.1175 H   0  0  0  0  0  0  0  0  0  0  0  0
  148.7209  136.7139  163.4358 H   0  0  0  0  0  0  0  0  0  0  0  0
  147.2790  138.4641  163.8427 H   0  0  0  0  0  0  0  0  0  0  0  0
  147.4174  134.0113  163.2905 H   0  0  0  0  0  0  0  0  0  0  0  0
  148.1564  133.8097  161.7025 H   0  0  0  0  0  0  0  0  0  0  0  0
  149.6263  134.9147  158.4257 H   0  0  0  0  0  0  0  0  0  0  0  0
  147.1702  134.7013  151.8438 H   0  0  0  0  0  0  0  0  0  0  0  0
  144.8568  135.9425  151.1154 H   0  0  0  0  0  0  0  0  0  0  0  0
  145.7913  135.0003  149.9804 H   0  0  0  0  0  0  0  0  0  0  0  0
  143.2582  134.1771  151.3848 H   0  0  0  0  0  0  0  0  0  0  0  0
  143.7888  133.8146  149.7402 H   0  0  0  0  0  0  0  0  0  0  0  0
  146.6286  132.6793  150.7080 H   0  0  0  0  0  0  0  0  0  0  0  0
  146.3444  132.1612  152.3541 H   0  0  0  0  0  0  0  0  0  0  0  0
  1  2  1  0  0  0  0
  1 28  1  0  0  0  0
  2  3  1  0  0  0  0
  2 29  1  0  0  0  0
  2 30  1  0  0  0  0
  3  4  1  0  0  0  0
  3 23  1  0  0  0  0
  3 31  1  0  0  0  0
  4  5  1  0  0  0  0
  4 32  1  0  0  0  0
  4 33  1  0  0  0  0
  5 22  1  0  0  0  0
  5  6  1  0  0  0  0
  6  7  2  0  0  0  0
  6 34  1  0  0  0  0
  7  8  1  0  0  0  0
  8 22  2  0  0  0  0
  8  9  1  0  0  0  0
  9 10  1  0  0  0  0
  9 19  2  0  0  0  0
 10 14  1  0  0  0  0
 10 11  1  0  0  0  0
 11 18  1  0  0  0  0
 11 12  1  0  0  0  0
 11 35  1  0  0  0  0
 12 13  1  0  0  0  0
 12 36  1  0  0  0  0
 12 37  1  0  0  0  0
 13 14  1  0  0  0  0
 13 38  1  0  0  0  0
 13 39  1  0  0  0  0
 14 15  1  0  0  0  0
 14 40  1  0  0  0  0
 15 16  1  0  0  0  0
 15 18  1  0  0  0  0
 15 41  1  0  0  0  0
 16 17  1  0  0  0  0
 16 42  1  0  0  0  0
 16 43  1  0  0  0  0
 17 44  1  0  0  0  0
 18 45  1  0  0  0  0
 18 46  1  0  0  0  0
 19 20  1  0  0  0  0
 20 21  2  0  0  0  0
 20 47  1  0  0  0  0
 21 22  1  0  0  0  0
 23 27  1  0  0  0  0
 23 24  1  0  0  0  0
 23 48  1  0  0  0  0
 24 25  1  0  0  0  0
 24 49  1  0  0  0  0
 24 50  1  0  0  0  0
 25 26  1  0  0  0  0
 25 51  1  0  0  0  0
 25 52  1  0  0  0  0
 26 27  1  0  0  0  0
 27 53  1  0  0  0  0
 27 54  1  0  0  0  0
M  END
> <s_m_source_file>
AV-unprocessed.smi

> <i_m_source_file_index>
227

> <i_lp_mmshare_version>
43012

> <i_f3d_flags>
0

> <s_epik_input>
W0NIMl0xT1tDSDJdW0NIMl1bQ0BIXTFbQ0BIXShbQ0gyXVtPSF0pW0NIMl1uKFtjSF1uMiljKGMyMyluW2NIXW5jM04oW0NASF00NSlbQ0BASF0oW0NIMl1bQ0gyXTQpW0NASF0oW0NIMl01KVtDSDJdW09IXQ==

> <s_epik_cmdline>
J2VwaWtfcHl0aG9uJywgJy1waCcsICc3LjAnLCAnLXRuJywgJzgnLCAnLW1hJywgJzIwMCcsICctbWV0YWxfYmluZGluZycsICctaW1hZScsICc8aW5maWxlLm1hZT4nLCAnLW9tYWUnLCAnPG91dGZpbGUubWFlPic=

> <r_lp_tautomer_probability>
1

> <r_epik_Ionization_Penalty>
0.0055791

> <r_epik_Ionization_Penalty_Charging>
0

> <r_epik_Ionization_Penalty_Neutral>
0.0055791

> <r_epik_State_Penalty>
0.00401299

> <r_epik_Charging_Adjusted_Penalty>
0.00401299

> <i_epik_Tot_Q>
0

> <i_epik_Tot_abs_Q>
0

> <r_epik_Metal_State_Penalty>
-0

> <b_epik_Metal_Only>
0

> <s_lp_Force_Field>
OPLS_2005

> <r_lp_Energy>
89.6374

> <b_lp_Chiralities_Consistent>
1

> <s_lp_Variant>
AV-unprocessed.smi:227-1

> <Gold.Version>
5.8.1

> <Gold.Id.Protein>
6NUR|6NUR_protein|mol2

> <Gold.PLP.Fitness>
40.9264

> <Gold.PLP.PLP>
-34.6947

> <Gold.PLP.part.hbond>
-3.0000

> <Gold.PLP.part.metal>
0.0000

> <Gold.PLP.part.buried>
-5.1772

> <Gold.PLP.part.nonpolar>
-26.4662

> <Gold.PLP.part.repulsive>
0.1706

> <Gold.PLP.ligand.clash>
0.0000

> <Gold.PLP.ligand.torsion>
0.4190

> <Gold.PLP.Chemscore.Hbond>
1.3006

> <Gold.PLP.Chemscore.CHOScore>
1.0000

> <Gold.PLP.Chemscore.Metal>
0.0000

> <Gold.Chemscore.Hbonds>
donor molecule, donor type, donor heavy atom, donor atom, acceptor molecule, acceptor atom, score
      L1  H     1    28       P1  7948  1.00
      P1  H  6931  6943       L1    17  0.05
      P1  H  6934  6947       L1    17  0.05
      L1  C     6    34       P1 10957  1.00

> <Gold.PLP.Chemscore.Internal.Correction>
0.1679

> <Gold.Rescore>
     Score         DG    S(hbond)    S(metal)    S(lipo)     H(rot)  DE(clash)    DE(int)     intcor
      6.82      -9.89       1.13        0.00      84.31       3.61       0.01       3.05       ----

> <Gold.Chemscore.Fitness>
6.8231

> <Gold.Chemscore.DG>
-9.8864

> <Gold.Chemscore.ZeroCoef>
-5.4800

> <Gold.Chemscore.Hbond>
1.1307

> <Gold.Chemscore.Metal>
0.0000

> <Gold.Chemscore.Lipo>
84.3095

> <Gold.Chemscore.Internal_Hbond>
0.0000

> <Gold.Chemscore.DEClash>
0.0149

> <Gold.Chemscore.DEInternal>
3.0484

> <Gold.Chemscore.Rot>
3.6071

> <Gold.Chemscore.Internal.Correction>
   9.000000E+99

> <Gold.Chemscore.Hbonds>
donor molecule, donor type, donor heavy atom, donor atom, acceptor molecule, acceptor atom, score
      L1  H     1    28       P1  7948  0.99
      P1  H  6934  6947       L1    17  0.06

> <Gold.Chemscore.Hbond.Weighted>
-3.7764

> <Gold.Chemscore.Metal.Weighted>
-0.0000

> <Gold.Chemscore.Lipo.Weighted>
-9.8642

> <Gold.Chemscore.Internal_Hbond.Weighted>
0.0000

> <Gold.Chemscore.DEClash.Weighted>
0.0149

> <Gold.Chemscore.DEInternal.Weighted>
3.0484

> <Gold.Chemscore.Rot.Weighted>
9.2342

> <Gold.Chemscore.Internal.Correction.Weighted>
   9.000000E+99

> <Gold.Protein.RotatedTorsions>
[ 6907 6896 6895 6894 ] final  109.42 input  -60.11 | X-H torsion
[ 7974 7965 7964 7962 ] final  -31.27 input  175.53 | X-H torsion
[ 8008 7997 7996 7995 ] final  -25.81 input   59.86 | X-H torsion
[ 10167 10162 10161 10158 ] final  126.73 input  -65.29 | X-H torsion
[ 10718 10713 10712 10709 ] final  -29.79 input   66.30 | X-H torsion
[ 10763 10752 10751 10750 ] final  164.68 input  -60.55 | X-H torsion
[ 11005 11000 10999 10996 ] final -165.57 input  -57.11 | X-H torsion

> <Gold.Protein.ActiveResidues>
 VAL166  LYS551  ARG553  GLY616  TRP617  ASP618  TYR619  PRO620  LYS621  CYS622 
 ASP623  PHE694  ASN695  SER759  ASP760  ASP761  ALA762  ILE779  LEU786  VAL792 
 PHE793  MET794  SER795  GLU796  ALA797  LYS798  CYS799  TRP800  GLU811  SER814 

> <Gold.Protein.RotatedAtoms>
  152.5068  133.8947  159.7410 H   0  0  0  0  0  0  0  0  0  0  0  0  # atno 6907 bound_to 6896
  150.9377  133.6684  159.2804 H   0  0  0  0  0  0  0  0  0  0  0  0  # atno 6908 bound_to 6896
  151.4006  135.0975  159.9607 H   0  0  0  0  0  0  0  0  0  0  0  0  # atno 6909 bound_to 6896
  146.1080  140.5646  142.8791 H   0  0  0  0  0  0  0  0  0  0  0  0  # atno 7974 bound_to 7965
  154.4457  140.1916  156.0677 H   0  0  0  0  0  0  0  0  0  0  0  0  # atno 8008 bound_to 7997
  156.0535  140.3305  155.7351 H   0  0  0  0  0  0  0  0  0  0  0  0  # atno 8009 bound_to 7997
  155.5522  140.0596  157.2838 H   0  0  0  0  0  0  0  0  0  0  0  0  # atno 8010 bound_to 7997
  139.5615  144.6885  151.4029 H   0  0  0  0  0  0  0  0  0  0  0  0  # atno 10167 bound_to 10162
  156.4079  130.4402  149.7274 H   0  0  0  0  0  0  0  0  0  0  0  0  # atno 10718 bound_to 10713
  154.3125  135.2757  155.2559 H   0  0  0  0  0  0  0  0  0  0  0  0  # atno 10763 bound_to 10752
  154.4948  135.5824  153.6489 H   0  0  0  0  0  0  0  0  0  0  0  0  # atno 10764 bound_to 10752
  152.9886  135.6143  154.3303 H   0  0  0  0  0  0  0  0  0  0  0  0  # atno 10765 bound_to 10752
  140.5742  134.5207  157.5167 H   0  0  0  0  0  0  0  0  0  0  0  0  # atno 11005 bound_to 11000
  144.7487  140.5135  143.6817 LP  0  0  0  0  0  0  0  0  0  0  0  0  # atno 17320 bound_to 7965
  145.5722  139.1484  143.3282 LP  0  0  0  0  0  0  0  0  0  0  0  0  # atno 17321 bound_to 7965
  140.6895  143.7894  150.7235 LP  0  0  0  0  0  0  0  0  0  0  0  0  # atno 17342 bound_to 10162
  140.1372  143.4473  152.2217 LP  0  0  0  0  0  0  0  0  0  0  0  0  # atno 17343 bound_to 10162
  156.4264  130.7794  151.2812 LP  0  0  0  0  0  0  0  0  0  0  0  0  # atno 17370 bound_to 10713
  157.7506  131.0167  150.3556 LP  0  0  0  0  0  0  0  0  0  0  0  0  # atno 17371 bound_to 10713
  139.9347  134.7897  156.0834 LP  0  0  0  0  0  0  0  0  0  0  0  0  # atno 17394 bound_to 11000
  141.1037  133.6668  156.2814 LP  0  0  0  0  0  0  0  0  0  0  0  0  # atno 17395 bound_to 11000

$$$$
