AV-unprocessed.smi:767|AV-procd|sdf|3668|dock6
  -GOLD-   22720 1 73D 1   1.00000     0.00000
 Structure written by MMmdl.
 48 50  0  0  0  0  0  0  0  0  2 V2000
  143.8972  144.9055  155.1692 C   0  0  0  0  0  0  0  0  0  0  0  0
  144.9377  143.8265  154.9578 C   0  0  0  0  0  0  0  0  0  0  0  0
  145.6094  143.6591  153.7279 C   0  0  0  0  0  0  0  0  0  0  0  0
  146.5626  142.6277  153.5991 C   0  0  0  0  0  0  0  0  0  0  0  0
  146.8251  141.7845  154.7015 C   0  0  0  0  0  0  0  0  0  0  0  0
  147.8121  140.6357  154.5834 C   0  0  0  0  0  0  0  0  0  0  0  0
  149.2835  141.0904  154.5065 C   0  0  0  0  0  0  0  0  0  0  0  0
  149.6168  142.0856  155.5237 N   0  0  0  0  0  0  0  0  0  0  0  0
  150.2867  141.8408  156.6594 C   0  0  0  0  0  0  0  0  0  0  0  0
  150.6979  140.7292  156.9936 O   0  0  0  0  0  0  0  0  0  0  0  0
  150.4739  142.9546  157.3786 N   0  0  0  0  0  0  0  0  0  0  0  0
  151.2184  143.0009  158.6323 C   0  0  1  0  0  0  0  0  0  0  0  0
  152.4693  142.1092  158.6106 C   0  0  2  0  0  0  0  0  0  0  0  0
  152.5495  140.9106  159.5160 C   0  0  0  0  0  0  0  0  0  0  0  0
  153.2944  141.4550  160.7383 C   0  0  0  0  0  0  0  0  0  0  0  0
  153.1044  142.8671  160.6792 O   0  0  0  0  0  0  0  0  0  0  0  0
  153.1868  143.2544  159.3095 C   0  0  2  0  0  0  0  0  0  0  0  0
  152.1193  144.2495  158.8064 C   0  0  0  0  0  0  0  0  0  0  0  0
  152.5206  145.0172  157.5386 C   0  0  0  0  0  0  0  0  0  0  0  0
  151.6410  145.2909  159.8194 C   0  0  0  0  0  0  0  0  0  0  0  0
  146.1299  142.0065  155.9096 C   0  0  0  0  0  0  0  0  0  0  0  0
  145.2226  143.0039  155.9921 N   0  3  0  0  0  0  0  0  0  0  0  0
  143.5318  145.2872  154.2153 H   0  0  0  0  0  0  0  0  0  0  0  0
  144.3238  145.7371  155.7305 H   0  0  0  0  0  0  0  0  0  0  0  0
  143.0443  144.5150  155.7257 H   0  0  0  0  0  0  0  0  0  0  0  0
  145.3945  144.3072  152.8910 H   0  0  0  0  0  0  0  0  0  0  0  0
  147.0741  142.4789  152.6594 H   0  0  0  0  0  0  0  0  0  0  0  0
  147.6812  139.9616  155.4310 H   0  0  0  0  0  0  0  0  0  0  0  0
  147.5632  140.0544  153.6948 H   0  0  0  0  0  0  0  0  0  0  0  0
  149.9374  140.2303  154.6517 H   0  0  0  0  0  0  0  0  0  0  0  0
  149.5088  141.4745  153.5100 H   0  0  0  0  0  0  0  0  0  0  0  0
  149.3208  143.0340  155.3438 H   0  0  0  0  0  0  0  0  0  0  0  0
  150.0992  143.8255  157.0317 H   0  0  0  0  0  0  0  0  0  0  0  0
  150.6031  142.8097  159.5148 H   0  0  0  0  0  0  0  0  0  0  0  0
  152.8564  141.9479  157.6028 H   0  0  0  0  0  0  0  0  0  0  0  0
  151.5533  140.5622  159.7906 H   0  0  0  0  0  0  0  0  0  0  0  0
  153.0833  140.0757  159.0612 H   0  0  0  0  0  0  0  0  0  0  0  0
  152.9243  141.0393  161.6757 H   0  0  0  0  0  0  0  0  0  0  0  0
  154.3610  141.2379  160.6650 H   0  0  0  0  0  0  0  0  0  0  0  0
  154.2071  143.4216  158.9609 H   0  0  0  0  0  0  0  0  0  0  0  0
  153.3228  145.7273  157.7413 H   0  0  0  0  0  0  0  0  0  0  0  0
  151.6833  145.5808  157.1256 H   0  0  0  0  0  0  0  0  0  0  0  0
  152.8787  144.3480  156.7559 H   0  0  0  0  0  0  0  0  0  0  0  0
  152.4356  145.9912  160.0785 H   0  0  0  0  0  0  0  0  0  0  0  0
  151.3056  144.8260  160.7467 H   0  0  0  0  0  0  0  0  0  0  0  0
  150.8024  145.8698  159.4314 H   0  0  0  0  0  0  0  0  0  0  0  0
  146.2569  141.4089  156.8005 H   0  0  0  0  0  0  0  0  0  0  0  0
  144.7250  143.1376  156.8726 H   0  0  0  0  0  0  0  0  0  0  0  0
  1  2  1  0  0  0  0
  1 23  1  0  0  0  0
  1 24  1  0  0  0  0
  1 25  1  0  0  0  0
  2 22  1  0  0  0  0
  2  3  2  0  0  0  0
  3  4  1  0  0  0  0
  3 26  1  0  0  0  0
  4  5  2  0  0  0  0
  4 27  1  0  0  0  0
  5  6  1  0  0  0  0
  5 21  1  0  0  0  0
  6  7  1  0  0  0  0
  6 28  1  0  0  0  0
  6 29  1  0  0  0  0
  7  8  1  0  0  0  0
  7 30  1  0  0  0  0
  7 31  1  0  0  0  0
  8  9  1  0  0  0  0
  8 32  1  0  0  0  0
  9 10  2  0  0  0  0
  9 11  1  0  0  0  0
 11 12  1  0  0  0  0
 11 33  1  0  0  0  0
 12 18  1  0  0  0  0
 12 13  1  0  0  0  0
 12 34  1  0  0  0  0
 13 17  1  0  0  0  0
 13 14  1  0  0  0  0
 13 35  1  0  0  0  0
 14 15  1  0  0  0  0
 14 36  1  0  0  0  0
 14 37  1  0  0  0  0
 15 16  1  0  0  0  0
 15 38  1  0  0  0  0
 15 39  1  0  0  0  0
 16 17  1  0  0  0  0
 17 18  1  0  0  0  0
 17 40  1  0  0  0  0
 18 19  1  0  0  0  0
 18 20  1  0  0  0  0
 19 41  1  0  0  0  0
 19 42  1  0  0  0  0
 19 43  1  0  0  0  0
 20 44  1  0  0  0  0
 20 45  1  0  0  0  0
 20 46  1  0  0  0  0
 21 22  2  0  0  0  0
 21 47  1  0  0  0  0
 22 48  1  0  0  0  0
M  CHG  1  22   1
M  END
> <s_m_source_file>
AV-unprocessed.smi

> <i_m_source_file_index>
767

> <i_lp_mmshare_version>
43012

> <i_f3d_flags>
0

> <s_epik_input>
W0NIM11jMVtjSF1bY0hdYyhbY0hdbjEpW0NIMl1bQ0gyXVtOSF1DKD1PKVtOSF1bQ0BIXTJDKFtDSDNdKShbQ0gzXSlbQ0BIXShbQ0BASF0yMylPW0NIMl1bQ0gyXTM=

> <s_epik_cmdline>
J2VwaWtfcHl0aG9uJywgJy1waCcsICc3LjAnLCAnLXRuJywgJzgnLCAnLW1hJywgJzIwMCcsICctbWV0YWxfYmluZGluZycsICctaW1hZScsICc8aW5maWxlLm1hZT4nLCAnLW9tYWUnLCAnPG91dGZpbGUubWFlPic=

> <r_epik_Ionization_Penalty>
1.41853

> <r_epik_Ionization_Penalty_Charging>
1.41848

> <r_epik_Ionization_Penalty_Neutral>
5.17407e-05

> <r_epik_State_Penalty>
1.50205

> <r_epik_Charging_Adjusted_Penalty>
2.92053

> <i_epik_Tot_Q>
1

> <i_epik_Tot_abs_Q>
1

> <r_epik_Metal_State_Penalty>
1.5544

> <b_epik_Metal_Only>
0

> <s_lp_Force_Field>
OPLS_2005

> <r_lp_Energy>
39.2779

> <b_lp_Chiralities_Consistent>
1

> <s_lp_Variant>
AV-unprocessed.smi:767-12

> <Gold.Version>
5.8.1

> <Gold.Id.Protein>
6NUR|6NUR_protein|mol2

> <Gold.PLP.Fitness>
55.5017

> <Gold.PLP.PLP>
-50.5756

> <Gold.PLP.part.hbond>
-2.0000

> <Gold.PLP.part.metal>
0.0000

> <Gold.PLP.part.buried>
-9.5631

> <Gold.PLP.part.nonpolar>
-40.0003

> <Gold.PLP.part.repulsive>
0.2045

> <Gold.PLP.ligand.clash>
0.0000

> <Gold.PLP.ligand.torsion>
0.5667

> <Gold.PLP.Chemscore.Hbond>
1.9600

> <Gold.PLP.Chemscore.CHOScore>
0.0000

> <Gold.PLP.Chemscore.Metal>
0.0000

> <Gold.Chemscore.Hbonds>
donor molecule, donor type, donor heavy atom, donor atom, acceptor molecule, acceptor atom, score
      L1  H     8    32       P1  8028  1.00
      L1  H    11    33       P1  8028  0.94

> <Gold.PLP.Chemscore.Internal.Correction>
0.1796

> <Gold.Rescore>
     Score         DG    S(hbond)    S(metal)    S(lipo)     H(rot)  DE(clash)    DE(int)     intcor
     20.75     -24.57       1.92        0.00     141.57       1.52       1.80       2.02       ----

> <Gold.Chemscore.Fitness>
20.7478

> <Gold.Chemscore.DG>
-24.5717

> <Gold.Chemscore.ZeroCoef>
-5.4800

> <Gold.Chemscore.Hbond>
1.9244

> <Gold.Chemscore.Metal>
0.0000

> <Gold.Chemscore.Lipo>
141.5710

> <Gold.Chemscore.Internal_Hbond>
0.0000

> <Gold.Chemscore.DEClash>
1.8013

> <Gold.Chemscore.DEInternal>
2.0226

> <Gold.Chemscore.Rot>
1.5233

> <Gold.Chemscore.Internal.Correction>
   9.000000E+99

> <Gold.Chemscore.Hbonds>
donor molecule, donor type, donor heavy atom, donor atom, acceptor molecule, acceptor atom, score
      L1  H     8    32       P1  8028  1.00
      L1  H    11    33       P1  8028  0.84

> <Gold.Chemscore.Hbond.Weighted>
-6.4274

> <Gold.Chemscore.Metal.Weighted>
-0.0000

> <Gold.Chemscore.Lipo.Weighted>
-16.5638

> <Gold.Chemscore.Internal_Hbond.Weighted>
0.0000

> <Gold.Chemscore.DEClash.Weighted>
1.8013

> <Gold.Chemscore.DEInternal.Weighted>
2.0226

> <Gold.Chemscore.Rot.Weighted>
3.8995

> <Gold.Chemscore.Internal.Correction.Weighted>
   9.000000E+99

> <Gold.Protein.RotatedTorsions>
[ 6907 6896 6895 6894 ] final  160.04 input  -60.11 | X-H torsion
[ 7974 7965 7964 7962 ] final   -8.70 input  175.53 | X-H torsion
[ 8008 7997 7996 7995 ] final  -51.72 input   59.86 | X-H torsion
[ 10167 10162 10161 10158 ] final  179.46 input  -65.29 | X-H torsion
[ 10718 10713 10712 10709 ] final  134.29 input   66.30 | X-H torsion
[ 10763 10752 10751 10750 ] final  165.79 input  -60.55 | X-H torsion
[ 11005 11000 10999 10996 ] final -169.78 input  -57.11 | X-H torsion

> <Gold.Protein.ActiveResidues>
 VAL166  LYS551  ARG553  GLY616  TRP617  ASP618  TYR619  PRO620  LYS621  CYS622 
 ASP623  PHE694  ASN695  SER759  ASP760  ASP761  ALA762  ILE779  LEU786  VAL792 
 PHE793  MET794  SER795  GLU796  ALA797  LYS798  CYS799  TRP800  GLU811  SER814 

> <Gold.Protein.RotatedAtoms>
  151.9766  133.3743  159.4091 H   0  0  0  0  0  0  0  0  0  0  0  0  # atno 6907 bound_to 6896
  150.6941  134.4083  159.5159 H   0  0  0  0  0  0  0  0  0  0  0  0  # atno 6908 bound_to 6896
  152.1796  134.8765  160.0578 H   0  0  0  0  0  0  0  0  0  0  0  0  # atno 6909 bound_to 6896
  146.2273  140.2507  142.8347 H   0  0  0  0  0  0  0  0  0  0  0  0  # atno 7974 bound_to 7965
  154.4089  140.1241  156.4874 H   0  0  0  0  0  0  0  0  0  0  0  0  # atno 8008 bound_to 7997
  155.7024  140.3494  155.4919 H   0  0  0  0  0  0  0  0  0  0  0  0  # atno 8009 bound_to 7997
  155.9373  140.1080  157.1074 H   0  0  0  0  0  0  0  0  0  0  0  0  # atno 8010 bound_to 7997
  139.5337  144.2558  152.0747 H   0  0  0  0  0  0  0  0  0  0  0  0  # atno 10167 bound_to 10162
  157.4687  131.1078  150.9830 H   0  0  0  0  0  0  0  0  0  0  0  0  # atno 10718 bound_to 10713
  154.3293  135.2755  155.2480 H   0  0  0  0  0  0  0  0  0  0  0  0  # atno 10763 bound_to 10752
  154.4799  135.5861  153.6385 H   0  0  0  0  0  0  0  0  0  0  0  0  # atno 10764 bound_to 10752
  152.9868  135.6109  154.3484 H   0  0  0  0  0  0  0  0  0  0  0  0  # atno 10765 bound_to 10752
  140.5268  134.5655  157.5064 H   0  0  0  0  0  0  0  0  0  0  0  0  # atno 11005 bound_to 11000
  144.9414  140.8082  143.5628 LP  0  0  0  0  0  0  0  0  0  0  0  0  # atno 17320 bound_to 7965
  145.2459  139.2052  143.4968 LP  0  0  0  0  0  0  0  0  0  0  0  0  # atno 17321 bound_to 7965
  140.2025  144.4643  150.6424 LP  0  0  0  0  0  0  0  0  0  0  0  0  # atno 17342 bound_to 10162
  140.6532  143.2230  151.6030 LP  0  0  0  0  0  0  0  0  0  0  0  0  # atno 17343 bound_to 10162
  157.0602  130.5822  149.5384 LP  0  0  0  0  0  0  0  0  0  0  0  0  # atno 17370 bound_to 10713
  156.0063  130.5150  150.7840 LP  0  0  0  0  0  0  0  0  0  0  0  0  # atno 17371 bound_to 10713
  139.9575  134.7509  156.0308 LP  0  0  0  0  0  0  0  0  0  0  0  0  # atno 17394 bound_to 11000
  141.1303  133.6588  156.3447 LP  0  0  0  0  0  0  0  0  0  0  0  0  # atno 17395 bound_to 11000

$$$$
