AV-unprocessed.smi:1195|AV-procd|sdf|4994|dock1
  -GOLD-   22720 3593D 1   1.00000     0.00000
 Structure written by MMmdl.
 39 40  0  0  0  0  0  0  0  0  1 V2000
  151.2962  129.0995  154.3680 N   0  0  0  0  0  0  0  0  0  0  0  0
  152.0048  129.7285  155.3087 C   0  0  0  0  0  0  0  0  0  0  0  0
  153.2316  129.6503  155.3603 O   0  0  0  0  0  0  0  0  0  0  0  0
  151.2055  130.5569  156.3231 C   0  0  0  0  0  0  0  0  0  0  0  0
  150.6271  131.7585  155.7435 N   0  0  0  0  0  0  0  0  0  0  0  0
  149.7487  131.8560  154.6817 C   0  0  0  0  0  0  0  0  0  0  0  0
  149.5043  133.1909  154.5251 C   0  0  0  0  0  0  0  0  0  0  0  0
  148.6721  133.8488  153.5850 N   0  0  0  0  0  0  0  0  0  0  0  0
  147.6698  133.3138  152.8690 C   0  0  0  0  0  0  0  0  0  0  0  0
  147.3150  132.1359  152.9178 O   0  0  0  0  0  0  0  0  0  0  0  0
  147.0918  134.2313  152.0806 N   0  0  0  0  0  0  0  0  0  0  0  0
  145.9751  133.9812  151.1743 C   0  0  2  0  0  0  0  0  0  0  0  0
  144.7080  133.6717  151.9941 C   0  0  0  0  0  0  0  0  0  0  0  0
  143.5152  133.3344  151.0847 C   0  0  0  0  0  0  0  0  0  0  0  0
  143.8536  132.1713  150.1367 C   0  0  1  0  0  0  0  0  0  0  0  0
  142.7621  131.9345  149.2730 O   0  0  0  0  0  0  0  0  0  0  0  0
  145.1092  132.4849  149.3054 C   0  0  0  0  0  0  0  0  0  0  0  0
  146.3039  132.8193  150.2131 C   0  0  0  0  0  0  0  0  0  0  0  0
  150.2668  133.8445  155.5277 C   0  0  0  0  0  0  0  0  0  0  0  0
  150.9448  132.9729  156.2586 N   0  0  0  0  0  0  0  0  0  0  0  0
  151.7717  128.5411  153.6737 H   0  0  0  0  0  0  0  0  0  0  0  0
  150.2901  129.1839  154.3517 H   0  0  0  0  0  0  0  0  0  0  0  0
  150.4098  129.9426  156.7476 H   0  0  0  0  0  0  0  0  0  0  0  0
  151.8575  130.8524  157.1459 H   0  0  0  0  0  0  0  0  0  0  0  0
  149.3881  130.9852  154.1543 H   0  0  0  0  0  0  0  0  0  0  0  0
  148.8627  134.8296  153.4401 H   0  0  0  0  0  0  0  0  0  0  0  0
  147.4501  135.1748  152.1082 H   0  0  0  0  0  0  0  0  0  0  0  0
  145.7867  134.8826  150.5873 H   0  0  0  0  0  0  0  0  0  0  0  0
  144.8972  132.8320  152.6646 H   0  0  0  0  0  0  0  0  0  0  0  0
  144.4558  134.5225  152.6284 H   0  0  0  0  0  0  0  0  0  0  0  0
  142.6469  133.0813  151.6942 H   0  0  0  0  0  0  0  0  0  0  0  0
  143.2406  134.2177  150.5062 H   0  0  0  0  0  0  0  0  0  0  0  0
  144.0222  131.2657  150.7208 H   0  0  0  0  0  0  0  0  0  0  0  0
  142.2773  132.7398  149.1740 H   0  0  0  0  0  0  0  0  0  0  0  0
  145.3590  131.6377  148.6657 H   0  0  0  0  0  0  0  0  0  0  0  0
  144.9138  133.3281  148.6412 H   0  0  0  0  0  0  0  0  0  0  0  0
  147.1683  133.0707  149.5973 H   0  0  0  0  0  0  0  0  0  0  0  0
  146.5811  131.9332  150.7859 H   0  0  0  0  0  0  0  0  0  0  0  0
  150.3513  134.8991  155.7441 H   0  0  0  0  0  0  0  0  0  0  0  0
  1  2  1  0  0  0  0
  1 21  1  0  0  0  0
  1 22  1  0  0  0  0
  2  3  2  0  0  0  0
  2  4  1  0  0  0  0
  4  5  1  0  0  0  0
  4 23  1  0  0  0  0
  4 24  1  0  0  0  0
  5 20  1  0  0  0  0
  5  6  1  0  0  0  0
  6  7  2  0  0  0  0
  6 25  1  0  0  0  0
  7  8  1  0  0  0  0
  7 19  1  0  0  0  0
  8  9  1  0  0  0  0
  8 26  1  0  0  0  0
  9 10  2  0  0  0  0
  9 11  1  0  0  0  0
 11 12  1  0  0  0  0
 11 27  1  0  0  0  0
 12 18  1  0  0  0  0
 12 13  1  0  0  0  0
 12 28  1  0  0  0  0
 13 14  1  0  0  0  0
 13 29  1  0  0  0  0
 13 30  1  0  0  0  0
 14 15  1  0  0  0  0
 14 31  1  0  0  0  0
 14 32  1  0  0  0  0
 15 16  1  0  0  0  0
 15 17  1  0  0  0  0
 15 33  1  0  0  0  0
 16 34  1  0  0  0  0
 17 18  1  0  0  0  0
 17 35  1  0  0  0  0
 17 36  1  0  0  0  0
 18 37  1  0  0  0  0
 18 38  1  0  0  0  0
 19 20  2  0  0  0  0
 19 39  1  0  0  0  0
M  END
> <s_m_source_file>
AV-unprocessed.smi

> <i_m_source_file_index>
1195

> <i_lp_mmshare_version>
43012

> <i_f3d_flags>
0

> <s_epik_input>
W05IMl1DKD1PKVtDSDJdbjFbY0hdYyhbY0hdbjEpW05IXUMoPU8pW05IXVtDQEBIXTJbQ0gyXVtDSDJdW0NAQEhdKFtPSF0pW0NIMl1bQ0gyXTI=

> <s_epik_cmdline>
J2VwaWtfcHl0aG9uJywgJy1waCcsICc3LjAnLCAnLXRuJywgJzgnLCAnLW1hJywgJzIwMCcsICctbWV0YWxfYmluZGluZycsICctaW1hZScsICc8aW5maWxlLm1hZT4nLCAnLW9tYWUnLCAnPG91dGZpbGUubWFlPic=

> <r_lp_tautomer_probability>
1

> <r_epik_Ionization_Penalty>
4.75851e-05

> <r_epik_Ionization_Penalty_Charging>
0

> <r_epik_Ionization_Penalty_Neutral>
4.75851e-05

> <r_epik_State_Penalty>
-0

> <r_epik_Charging_Adjusted_Penalty>
0

> <i_epik_Tot_Q>
0

> <i_epik_Tot_abs_Q>
0

> <r_epik_Metal_State_Penalty>
-0

> <b_epik_Metal_Only>
0

> <s_lp_Force_Field>
OPLS_2005

> <r_lp_Energy>
13.1232

> <b_lp_Chiralities_Consistent>
1

> <s_lp_Variant>
AV-unprocessed.smi:1195-1

> <Gold.Version>
5.8.1

> <Gold.Id.Protein>
6NUR|6NUR_protein|mol2

> <Gold.PLP.Fitness>
51.4970

> <Gold.PLP.PLP>
-38.3528

> <Gold.PLP.part.hbond>
-5.7671

> <Gold.PLP.part.metal>
0.0000

> <Gold.PLP.part.buried>
-3.6465

> <Gold.PLP.part.nonpolar>
-28.0552

> <Gold.PLP.part.repulsive>
0.2732

> <Gold.PLP.ligand.clash>
0.0000

> <Gold.PLP.ligand.torsion>
0.2345

> <Gold.PLP.Chemscore.Hbond>
4.5318

> <Gold.PLP.Chemscore.CHOScore>
0.0000

> <Gold.PLP.Chemscore.Metal>
0.0000

> <Gold.Chemscore.Hbonds>
donor molecule, donor type, donor heavy atom, donor atom, acceptor molecule, acceptor atom, score
      L1  H     1    21       P1 10737  0.78
      L1  H     8    26       P1  7948  0.69
      L1  H    11    27       P1  7948  0.86
      L1  H    16    34       P1 10186  0.75
      P1  H 10785 10796       L1    16  0.95

> <Gold.PLP.Chemscore.Internal.Correction>
0.0180

> <Gold.Rescore>
     Score         DG    S(hbond)    S(metal)    S(lipo)     H(rot)  DE(clash)    DE(int)     intcor
     12.64     -16.18       2.85        0.00      67.51       2.62       1.30       2.24       ----

> <Gold.Chemscore.Fitness>
12.6380

> <Gold.Chemscore.DG>
-16.1825

> <Gold.Chemscore.ZeroCoef>
-5.4800

> <Gold.Chemscore.Hbond>
2.8484

> <Gold.Chemscore.Metal>
0.0000

> <Gold.Chemscore.Lipo>
67.5143

> <Gold.Chemscore.Internal_Hbond>
0.0000

> <Gold.Chemscore.DEClash>
1.3047

> <Gold.Chemscore.DEInternal>
2.2398

> <Gold.Chemscore.Rot>
2.6212

> <Gold.Chemscore.Internal.Correction>
   9.000000E+99

> <Gold.Chemscore.Hbonds>
donor molecule, donor type, donor heavy atom, donor atom, acceptor molecule, acceptor atom, score
      L1  H     1    21       P1 10737  0.66
      L1  H     8    26       P1  7948  0.23
      L1  H    11    27       P1  7948  0.84
      L1  H    16    34       P1 10186  0.75
      P1  H 10785 10796       L1    16  0.21

> <Gold.Chemscore.Hbond.Weighted>
-9.5136

> <Gold.Chemscore.Metal.Weighted>
-0.0000

> <Gold.Chemscore.Lipo.Weighted>
-7.8992

> <Gold.Chemscore.Internal_Hbond.Weighted>
0.0000

> <Gold.Chemscore.DEClash.Weighted>
1.3047

> <Gold.Chemscore.DEInternal.Weighted>
2.2398

> <Gold.Chemscore.Rot.Weighted>
6.7103

> <Gold.Chemscore.Internal.Correction.Weighted>
   9.000000E+99

> <Gold.Protein.RotatedTorsions>
[ 6907 6896 6895 6894 ] final  -23.39 input  -60.11 | X-H torsion
[ 7974 7965 7964 7962 ] final  -42.74 input  175.53 | X-H torsion
[ 8008 7997 7996 7995 ] final  -68.94 input   59.86 | X-H torsion
[ 10167 10162 10161 10158 ] final  -90.09 input  -65.29 | X-H torsion
[ 10718 10713 10712 10709 ] final  103.45 input   66.30 | X-H torsion
[ 10763 10752 10751 10750 ] final   -5.01 input  -60.55 | X-H torsion
[ 11005 11000 10999 10996 ] final  -35.97 input  -57.11 | X-H torsion

> <Gold.Protein.ActiveResidues>
 VAL166  LYS551  ARG553  GLY616  TRP617  ASP618  TYR619  PRO620  LYS621  CYS622 
 ASP623  PHE694  ASN695  SER759  ASP760  ASP761  ALA762  ILE779  LEU786  VAL792 
 PHE793  MET794  SER795  GLU796  ALA797  LYS798  CYS799  TRP800  GLU811  SER814 

> <Gold.Protein.RotatedAtoms>
  151.2046  135.0457  159.8886 H   0  0  0  0  0  0  0  0  0  0  0  0  # atno 6907 bound_to 6896
  152.5430  134.0812  159.8246 H   0  0  0  0  0  0  0  0  0  0  0  0  # atno 6908 bound_to 6896
  151.0957  133.5234  159.2644 H   0  0  0  0  0  0  0  0  0  0  0  0  # atno 6909 bound_to 6896
  146.0087  140.6990  142.9235 H   0  0  0  0  0  0  0  0  0  0  0  0  # atno 7974 bound_to 7965
  154.4903  140.0863  156.7579 H   0  0  0  0  0  0  0  0  0  0  0  0  # atno 8008 bound_to 7997
  155.4248  140.3447  155.4256 H   0  0  0  0  0  0  0  0  0  0  0  0  # atno 8009 bound_to 7997
  156.1320  140.1504  156.9039 H   0  0  0  0  0  0  0  0  0  0  0  0  # atno 8010 bound_to 7997
  140.3584  143.2855  151.9644 H   0  0  0  0  0  0  0  0  0  0  0  0  # atno 10167 bound_to 10162
  157.6772  131.0779  150.5556 H   0  0  0  0  0  0  0  0  0  0  0  0  # atno 10718 bound_to 10713
  153.3927  135.7002  153.6483 H   0  0  0  0  0  0  0  0  0  0  0  0  # atno 10763 bound_to 10752
  153.5049  135.3644  155.2558 H   0  0  0  0  0  0  0  0  0  0  0  0  # atno 10764 bound_to 10752
  154.8704  135.4121  154.3247 H   0  0  0  0  0  0  0  0  0  0  0  0  # atno 10765 bound_to 10752
  140.9838  133.7042  156.1730 H   0  0  0  0  0  0  0  0  0  0  0  0  # atno 11005 bound_to 11000
  144.6945  140.3360  143.7207 LP  0  0  0  0  0  0  0  0  0  0  0  0  # atno 17320 bound_to 7965
  145.7376  139.1754  143.2394 LP  0  0  0  0  0  0  0  0  0  0  0  0  # atno 17321 bound_to 7965
  139.4817  144.6015  151.7597 LP  0  0  0  0  0  0  0  0  0  0  0  0  # atno 17342 bound_to 10162
  140.5151  144.0965  150.6006 LP  0  0  0  0  0  0  0  0  0  0  0  0  # atno 17343 bound_to 10162
  156.5860  130.4317  149.5957 LP  0  0  0  0  0  0  0  0  0  0  0  0  # atno 17370 bound_to 10713
  156.2622  130.6969  151.1741 LP  0  0  0  0  0  0  0  0  0  0  0  0  # atno 17371 bound_to 10713
  140.7146  134.4425  157.5579 LP  0  0  0  0  0  0  0  0  0  0  0  0  # atno 17394 bound_to 11000
  139.8961  134.8666  156.2100 LP  0  0  0  0  0  0  0  0  0  0  0  0  # atno 17395 bound_to 11000

$$$$
