AV-unprocessed.smi:2451|AV-procd|sdf|9672|dock1
  -GOLD-   2272013313D 1   1.00000     0.00000
 Structure written by MMmdl.
 38 39  0  0  0  0  0  0  0  0  1 V2000
  151.9046  143.4272  161.1456 C   0  0  0  0  0  0  0  0  0  0  0  0
  153.0884  143.2299  160.1760 C   0  0  1  0  0  0  0  0  0  0  0  0
  153.8874  141.9548  160.5127 C   0  0  0  0  0  0  0  0  0  0  0  0
  153.1230  140.6761  160.1365 C   0  0  0  0  0  0  0  0  0  0  0  0
  152.7371  140.6831  158.6513 C   0  0  0  0  0  0  0  0  0  0  0  0
  151.9449  141.9475  158.2673 C   0  0  2  0  0  0  0  0  0  0  0  0
  151.7138  141.9323  156.8196 N   0  0  0  0  0  0  0  0  0  0  0  0
  150.6218  140.7690  156.1657 S   0  0  0  0  0  0  0  0  0  0  0  0
  151.3361  140.0362  155.1094 O   0  0  0  0  0  0  0  0  0  0  0  0
  150.0244  140.0361  157.2930 O   0  0  0  0  0  0  0  0  0  0  0  0
  149.3236  141.8279  155.3997 C   0  0  0  0  0  0  0  0  0  0  0  0
  148.4418  140.9875  154.5214 C   0  0  0  0  0  0  0  0  0  0  0  0
  147.3335  141.3986  153.7300 C   0  0  0  0  0  0  0  0  0  0  0  0
  146.9118  140.2393  153.1456 C   0  0  0  0  0  0  0  0  0  0  0  0
  147.6921  139.1998  153.5356 O   0  0  0  0  0  0  0  0  0  0  0  0
  148.6673  139.6877  154.4129 N   0  0  0  0  0  0  0  0  0  0  0  0
  152.6913  143.2433  158.6747 C   0  0  1  0  0  0  0  0  0  0  0  0
  151.9144  144.5190  158.2925 C   0  0  0  0  0  0  0  0  0  0  0  0
  151.1316  142.6712  161.0113 H   0  0  0  0  0  0  0  0  0  0  0  0
  151.4380  144.4034  161.0162 H   0  0  0  0  0  0  0  0  0  0  0  0
  152.2386  143.3729  162.1820 H   0  0  0  0  0  0  0  0  0  0  0  0
  153.7597  144.0737  160.3416 H   0  0  0  0  0  0  0  0  0  0  0  0
  154.8361  141.9729  159.9746 H   0  0  0  0  0  0  0  0  0  0  0  0
  154.1436  141.9383  161.5726 H   0  0  0  0  0  0  0  0  0  0  0  0
  153.7375  139.8020  160.3535 H   0  0  0  0  0  0  0  0  0  0  0  0
  152.2277  140.5787  160.7510 H   0  0  0  0  0  0  0  0  0  0  0  0
  153.6451  140.6214  158.0494 H   0  0  0  0  0  0  0  0  0  0  0  0
  152.1539  139.7909  158.4194 H   0  0  0  0  0  0  0  0  0  0  0  0
  150.9812  141.9209  158.7772 H   0  0  0  0  0  0  0  0  0  0  0  0
  152.5935  141.9478  156.3040 H   0  0  0  0  0  0  0  0  0  0  0  0
  148.7456  142.2924  156.1983 H   0  0  0  0  0  0  0  0  0  0  0  0
  149.8130  142.6227  154.8361 H   0  0  0  0  0  0  0  0  0  0  0  0
  146.9127  142.3864  153.6142 H   0  0  0  0  0  0  0  0  0  0  0  0
  146.1107  140.0016  152.4613 H   0  0  0  0  0  0  0  0  0  0  0  0
  153.6243  143.2680  158.1088 H   0  0  0  0  0  0  0  0  0  0  0  0
  150.9112  144.5226  158.7195 H   0  0  0  0  0  0  0  0  0  0  0  0
  151.8053  144.6099  157.2116 H   0  0  0  0  0  0  0  0  0  0  0  0
  152.4313  145.4136  158.6402 H   0  0  0  0  0  0  0  0  0  0  0  0
  1  2  1  0  0  0  0
  1 19  1  0  0  0  0
  1 20  1  0  0  0  0
  1 21  1  0  0  0  0
  2 17  1  0  0  0  0
  2  3  1  0  0  0  0
  2 22  1  0  0  0  0
  3  4  1  0  0  0  0
  3 23  1  0  0  0  0
  3 24  1  0  0  0  0
  4  5  1  0  0  0  0
  4 25  1  0  0  0  0
  4 26  1  0  0  0  0
  5  6  1  0  0  0  0
  5 27  1  0  0  0  0
  5 28  1  0  0  0  0
  6  7  1  0  0  0  0
  6 17  1  0  0  0  0
  6 29  1  0  0  0  0
  7  8  1  0  0  0  0
  7 30  1  0  0  0  0
  8  9  2  0  0  0  0
  8 10  2  0  0  0  0
  8 11  1  0  0  0  0
 11 12  1  0  0  0  0
 11 31  1  0  0  0  0
 11 32  1  0  0  0  0
 12 16  2  0  0  0  0
 12 13  1  0  0  0  0
 13 14  2  0  0  0  0
 13 33  1  0  0  0  0
 14 15  1  0  0  0  0
 14 34  1  0  0  0  0
 15 16  1  0  0  0  0
 17 18  1  0  0  0  0
 17 35  1  0  0  0  0
 18 36  1  0  0  0  0
 18 37  1  0  0  0  0
 18 38  1  0  0  0  0
M  END
> <s_m_source_file>
AV-unprocessed.smi

> <i_m_source_file_index>
2451

> <i_lp_mmshare_version>
43012

> <i_f3d_flags>
0

> <s_epik_input>
W0NIM11bQ0BASF0xW0NIMl1bQ0gyXVtDSDJdW0NASF0oW0NASF0xW0NIM10pW05IXVMoPU8pKD1PKVtDSDJdYzJbY0hdW2NIXW9uMg==

> <s_epik_cmdline>
J2VwaWtfcHl0aG9uJywgJy1waCcsICc3LjAnLCAnLXRuJywgJzgnLCAnLW1hJywgJzIwMCcsICctbWV0YWxfYmluZGluZycsICctaW1hZScsICc8aW5maWxlLm1hZT4nLCAnLW9tYWUnLCAnPG91dGZpbGUubWFlPic=

> <r_lp_tautomer_probability>
1

> <r_epik_Ionization_Penalty>
8.73668e-05

> <r_epik_Ionization_Penalty_Charging>
0

> <r_epik_Ionization_Penalty_Neutral>
8.73668e-05

> <r_epik_State_Penalty>
-0

> <r_epik_Charging_Adjusted_Penalty>
0

> <i_epik_Tot_Q>
0

> <i_epik_Tot_abs_Q>
0

> <r_epik_Metal_State_Penalty>
0.0716439

> <b_epik_Metal_Only>
0

> <s_lp_Force_Field>
OPLS_2005

> <r_lp_Energy>
8.38809

> <b_lp_Chiralities_Consistent>
1

> <s_lp_Variant>
AV-unprocessed.smi:2451-4

> <Gold.Version>
5.8.1

> <Gold.Id.Protein>
6NUR|6NUR_protein|mol2

> <Gold.PLP.Fitness>
40.8966

> <Gold.PLP.PLP>
-35.3627

> <Gold.PLP.part.hbond>
-1.0000

> <Gold.PLP.part.metal>
0.0000

> <Gold.PLP.part.buried>
-0.6011

> <Gold.PLP.part.nonpolar>
-34.9402

> <Gold.PLP.part.repulsive>
0.5785

> <Gold.PLP.ligand.clash>
0.0000

> <Gold.PLP.ligand.torsion>
0.3100

> <Gold.PLP.Chemscore.Hbond>
1.0000

> <Gold.PLP.Chemscore.CHOScore>
1.0000

> <Gold.PLP.Chemscore.Metal>
0.0000

> <Gold.Chemscore.Hbonds>
donor molecule, donor type, donor heavy atom, donor atom, acceptor molecule, acceptor atom, score
      P1  H  7989  7998       L1     9  1.00
      L1  C    14    34       P1 10175  1.00

> <Gold.PLP.Chemscore.Internal.Correction>
0.1539

> <Gold.Rescore>
     Score         DG    S(hbond)    S(metal)    S(lipo)     H(rot)  DE(clash)    DE(int)     intcor
     15.03     -18.01       0.93        0.00     116.76       1.66       1.36       1.62       ----

> <Gold.Chemscore.Fitness>
15.0256

> <Gold.Chemscore.DG>
-18.0065

> <Gold.Chemscore.ZeroCoef>
-5.4800

> <Gold.Chemscore.Hbond>
0.9319

> <Gold.Chemscore.Metal>
0.0000

> <Gold.Chemscore.Lipo>
116.7567

> <Gold.Chemscore.Internal_Hbond>
0.0000

> <Gold.Chemscore.DEClash>
1.3560

> <Gold.Chemscore.DEInternal>
1.6250

> <Gold.Chemscore.Rot>
1.6588

> <Gold.Chemscore.Internal.Correction>
   9.000000E+99

> <Gold.Chemscore.Hbonds>
donor molecule, donor type, donor heavy atom, donor atom, acceptor molecule, acceptor atom, score
      P1  H  7989  7998       L1     9  0.96

> <Gold.Chemscore.Hbond.Weighted>
-3.1126

> <Gold.Chemscore.Metal.Weighted>
-0.0000

> <Gold.Chemscore.Lipo.Weighted>
-13.6605

> <Gold.Chemscore.Internal_Hbond.Weighted>
0.0000

> <Gold.Chemscore.DEClash.Weighted>
1.3560

> <Gold.Chemscore.DEInternal.Weighted>
1.6250

> <Gold.Chemscore.Rot.Weighted>
4.2466

> <Gold.Chemscore.Internal.Correction.Weighted>
   9.000000E+99

> <Gold.Protein.RotatedTorsions>
[ 6907 6896 6895 6894 ] final  -46.63 input  -60.11 | X-H torsion
[ 7974 7965 7964 7962 ] final   20.34 input  175.53 | X-H torsion
[ 8008 7997 7996 7995 ] final  179.60 input   59.86 | X-H torsion
[ 10167 10162 10161 10158 ] final -136.94 input  -65.29 | X-H torsion
[ 10718 10713 10712 10709 ] final   79.08 input   66.30 | X-H torsion
[ 10763 10752 10751 10750 ] final  -82.84 input  -60.55 | X-H torsion
[ 11005 11000 10999 10996 ] final  -51.97 input  -57.11 | X-H torsion

> <Gold.Protein.ActiveResidues>
 VAL166  LYS551  ARG553  GLY616  TRP617  ASP618  TYR619  PRO620  LYS621  CYS622 
 ASP623  PHE694  ASN695  SER759  ASP760  ASP761  ALA762  ILE779  LEU786  VAL792 
 PHE793  MET794  SER795  GLU796  ALA797  LYS798  CYS799  TRP800  GLU811  SER814 

> <Gold.Protein.RotatedAtoms>
  150.9092  134.8508  159.7413 H   0  0  0  0  0  0  0  0  0  0  0  0  # atno 6907 bound_to 6896
  152.4935  134.4385  159.9545 H   0  0  0  0  0  0  0  0  0  0  0  0  # atno 6908 bound_to 6896
  151.4429  133.3599  159.2819 H   0  0  0  0  0  0  0  0  0  0  0  0  # atno 6909 bound_to 6896
  146.2115  139.8183  142.8685 H   0  0  0  0  0  0  0  0  0  0  0  0  # atno 7974 bound_to 7965
  156.0415  140.1304  157.0150 H   0  0  0  0  0  0  0  0  0  0  0  0  # atno 8008 bound_to 7997
  154.4393  140.1029  156.6315 H   0  0  0  0  0  0  0  0  0  0  0  0  # atno 8009 bound_to 7997
  155.5659  140.3465  155.4505 H   0  0  0  0  0  0  0  0  0  0  0  0  # atno 8010 bound_to 7997
  139.8627  143.7056  152.2648 H   0  0  0  0  0  0  0  0  0  0  0  0  # atno 10167 bound_to 10162
  157.6765  130.9898  150.1880 H   0  0  0  0  0  0  0  0  0  0  0  0  # atno 10718 bound_to 10713
  154.5805  135.5577  153.7181 H   0  0  0  0  0  0  0  0  0  0  0  0  # atno 10763 bound_to 10752
  153.0080  135.6319  154.1989 H   0  0  0  0  0  0  0  0  0  0  0  0  # atno 10764 bound_to 10752
  154.1929  135.2881  155.2996 H   0  0  0  0  0  0  0  0  0  0  0  0  # atno 10765 bound_to 10752
  141.0900  133.6634  156.3956 H   0  0  0  0  0  0  0  0  0  0  0  0  # atno 11005 bound_to 11000
  145.3123  141.0223  143.3548 LP  0  0  0  0  0  0  0  0  0  0  0  0  # atno 17320 bound_to 7965
  144.8927  139.4753  143.6670 LP  0  0  0  0  0  0  0  0  0  0  0  0  # atno 17321 bound_to 7965
  139.7358  144.7571  151.0730 LP  0  0  0  0  0  0  0  0  0  0  0  0  # atno 17342 bound_to 10162
  140.7772  143.5032  150.9745 LP  0  0  0  0  0  0  0  0  0  0  0  0  # atno 17343 bound_to 10162
  156.2598  130.3709  149.8143 LP  0  0  0  0  0  0  0  0  0  0  0  0  # atno 17370 bound_to 10713
  156.5891  130.8498  151.3403 LP  0  0  0  0  0  0  0  0  0  0  0  0  # atno 17371 bound_to 10713
  140.5275  134.6245  157.5339 LP  0  0  0  0  0  0  0  0  0  0  0  0  # atno 17394 bound_to 11000
  139.9724  134.7271  156.0016 LP  0  0  0  0  0  0  0  0  0  0  0  0  # atno 17395 bound_to 11000

$$$$
