AV-unprocessed.smi:672|AV-procd|sdf|3293|dock8
  -GOLD-   22720 0253D 1   1.00000     0.00000
 Structure written by MMmdl.
 35 36  0  0  0  0  0  0  0  0  2 V2000
  149.9150  134.6579  156.2840 C   0  0  0  0  0  0  0  0  0  0  0  0
  150.1250  135.0833  154.8270 C   0  0  0  0  0  0  0  0  0  0  0  0
  150.5283  136.5144  154.7012 C   0  0  0  0  0  0  0  0  0  0  0  0
  151.7333  136.8925  154.2666 N   0  0  0  0  0  0  0  0  0  0  0  0
  151.8798  138.2720  154.2667 N   0  0  0  0  0  0  0  0  0  0  0  0
  150.7965  138.9157  154.7242 C   0  0  0  0  0  0  0  0  0  0  0  0
  150.7352  140.2549  154.8077 N   0  5  0  0  0  0  0  0  0  0  0  0
  150.3287  140.8414  155.9566 C   0  0  0  0  0  0  0  0  0  0  0  0
  149.3937  140.4758  156.6729 O   0  0  0  0  0  0  0  0  0  0  0  0
  151.0465  141.9222  156.2945 N   0  0  0  0  0  0  0  0  0  0  0  0
  150.8348  142.7530  157.4781 C   0  0  2  0  0  0  0  0  0  0  0  0
  151.6209  144.0790  157.3982 C   0  0  0  0  0  0  0  0  0  0  0  0
  152.4083  144.1880  158.7053 C   0  0  0  0  0  0  0  0  0  0  0  0
  152.6456  142.7383  159.1255 C   0  0  1  0  0  0  0  0  0  0  0  0
  153.0402  142.5581  160.8893 S   0  0  0  0  0  0  0  0  0  0  0  0
  152.3015  144.0794  161.5413 C   0  0  0  0  0  0  0  0  0  0  0  0
  151.3437  142.0330  158.7392 C   0  0  0  0  0  0  0  0  0  0  0  0
  149.4772  137.8373  155.1776 S   0  0  0  0  0  0  0  0  0  0  0  0
  149.6174  133.6111  156.3444 H   0  0  0  0  0  0  0  0  0  0  0  0
  149.1356  135.2545  156.7591 H   0  0  0  0  0  0  0  0  0  0  0  0
  150.8302  134.7791  156.8642 H   0  0  0  0  0  0  0  0  0  0  0  0
  150.8889  134.4586  154.3626 H   0  0  0  0  0  0  0  0  0  0  0  0
  149.2073  134.9283  154.2590 H   0  0  0  0  0  0  0  0  0  0  0  0
  151.8028  142.1860  155.6803 H   0  0  0  0  0  0  0  0  0  0  0  0
  149.7671  142.9498  157.5911 H   0  0  0  0  0  0  0  0  0  0  0  0
  152.3211  144.0621  156.5615 H   0  0  0  0  0  0  0  0  0  0  0  0
  150.9634  144.9358  157.2477 H   0  0  0  0  0  0  0  0  0  0  0  0
  153.3344  144.7501  158.5846 H   0  0  0  0  0  0  0  0  0  0  0  0
  151.8024  144.6996  159.4544 H   0  0  0  0  0  0  0  0  0  0  0  0
  153.4612  142.3191  158.5344 H   0  0  0  0  0  0  0  0  0  0  0  0
  152.4816  144.1533  162.6137 H   0  0  0  0  0  0  0  0  0  0  0  0
  151.2249  144.0872  161.3728 H   0  0  0  0  0  0  0  0  0  0  0  0
  152.7375  144.9530  161.0564 H   0  0  0  0  0  0  0  0  0  0  0  0
  150.6094  142.1572  159.5363 H   0  0  0  0  0  0  0  0  0  0  0  0
  151.4822  140.9602  158.5985 H   0  0  0  0  0  0  0  0  0  0  0  0
  1  2  1  0  0  0  0
  1 19  1  0  0  0  0
  1 20  1  0  0  0  0
  1 21  1  0  0  0  0
  2  3  1  0  0  0  0
  2 22  1  0  0  0  0
  2 23  1  0  0  0  0
  3 18  1  0  0  0  0
  3  4  2  0  0  0  0
  4  5  1  0  0  0  0
  5  6  2  0  0  0  0
  6  7  1  0  0  0  0
  6 18  1  0  0  0  0
  7  8  1  0  0  0  0
  8  9  2  0  0  0  0
  8 10  1  0  0  0  0
 10 11  1  0  0  0  0
 10 24  1  0  0  0  0
 11 17  1  0  0  0  0
 11 12  1  0  0  0  0
 11 25  1  0  0  0  0
 12 13  1  0  0  0  0
 12 26  1  0  0  0  0
 12 27  1  0  0  0  0
 13 14  1  0  0  0  0
 13 28  1  0  0  0  0
 13 29  1  0  0  0  0
 14 15  1  0  0  0  0
 14 17  1  0  0  0  0
 14 30  1  0  0  0  0
 15 16  1  0  0  0  0
 16 31  1  0  0  0  0
 16 32  1  0  0  0  0
 16 33  1  0  0  0  0
 17 34  1  0  0  0  0
 17 35  1  0  0  0  0
M  CHG  1   7  -1
M  END
> <s_m_source_file>
AV-unprocessed.smi

> <i_m_source_file_index>
672

> <i_lp_mmshare_version>
43012

> <i_f3d_flags>
0

> <s_epik_input>
W0NIM11bQ0gyXWMxbm5jKHMxKVtOSF1DKD1PKVtOSF1bQ0BASF0yW0NIMl1bQ0gyXVtDQEhdKFtDSDJdMilTW0NIM10=

> <s_epik_cmdline>
J2VwaWtfcHl0aG9uJywgJy1waCcsICc3LjAnLCAnLXRuJywgJzgnLCAnLW1hJywgJzIwMCcsICctbWV0YWxfYmluZGluZycsICctaW1hZScsICc8aW5maWxlLm1hZT4nLCAnLW9tYWUnLCAnPG91dGZpbGUubWFlPic=

> <r_lp_tautomer_probability>
1

> <r_epik_Ionization_Penalty>
4.49964

> <r_epik_Ionization_Penalty_Charging>
4.32991

> <r_epik_Ionization_Penalty_Neutral>
0.169727

> <r_epik_State_Penalty>
4.32952

> <r_epik_Charging_Adjusted_Penalty>
8.65943

> <i_epik_Tot_Q>
-1

> <i_epik_Tot_abs_Q>
1

> <r_epik_Metal_State_Penalty>
0.740482

> <b_epik_Metal_Only>
1

> <s_lp_Force_Field>
OPLS_2005

> <r_lp_Energy>
9.96547

> <b_lp_Chiralities_Consistent>
1

> <s_lp_Variant>
AV-unprocessed.smi:672-5

> <Gold.Version>
5.8.1

> <Gold.Id.Protein>
6NUR|6NUR_protein|mol2

> <Gold.PLP.Fitness>
42.5301

> <Gold.PLP.PLP>
-39.3755

> <Gold.PLP.part.hbond>
-2.0000

> <Gold.PLP.part.metal>
0.0000

> <Gold.PLP.part.buried>
-5.3993

> <Gold.PLP.part.nonpolar>
-33.6908

> <Gold.PLP.part.repulsive>
0.5798

> <Gold.PLP.ligand.clash>
0.0000

> <Gold.PLP.ligand.torsion>
1.4485

> <Gold.PLP.Chemscore.Hbond>
2.0000

> <Gold.PLP.Chemscore.CHOScore>
0.0000

> <Gold.PLP.Chemscore.Metal>
0.0000

> <Gold.Chemscore.Hbonds>
donor molecule, donor type, donor heavy atom, donor atom, acceptor molecule, acceptor atom, score
      P1  H  7989  7998       L1     7  1.00
      P1  H 10752 10765       L1     4  1.00

> <Gold.PLP.Chemscore.Internal.Correction>
0.0515

> <Gold.Rescore>
     Score         DG    S(hbond)    S(metal)    S(lipo)     H(rot)  DE(clash)    DE(int)     intcor
     16.94     -19.36       1.85        0.00      95.21       1.34       0.01       2.41       ----

> <Gold.Chemscore.Fitness>
16.9435

> <Gold.Chemscore.DG>
-19.3599

> <Gold.Chemscore.ZeroCoef>
-5.4800

> <Gold.Chemscore.Hbond>
1.8484

> <Gold.Chemscore.Metal>
0.0000

> <Gold.Chemscore.Lipo>
95.2062

> <Gold.Chemscore.Internal_Hbond>
0.0000

> <Gold.Chemscore.DEClash>
0.0110

> <Gold.Chemscore.DEInternal>
2.4053

> <Gold.Chemscore.Rot>
1.3410

> <Gold.Chemscore.Internal.Correction>
   9.000000E+99

> <Gold.Chemscore.Hbonds>
donor molecule, donor type, donor heavy atom, donor atom, acceptor molecule, acceptor atom, score
      P1  H  7989  7998       L1     7  0.60
      P1  H 10752 10765       L1     4  0.95

> <Gold.Chemscore.Hbond.Weighted>
-6.1737

> <Gold.Chemscore.Metal.Weighted>
-0.0000

> <Gold.Chemscore.Lipo.Weighted>
-11.1391

> <Gold.Chemscore.Internal_Hbond.Weighted>
0.0000

> <Gold.Chemscore.DEClash.Weighted>
0.0110

> <Gold.Chemscore.DEInternal.Weighted>
2.4053

> <Gold.Chemscore.Rot.Weighted>
3.4329

> <Gold.Chemscore.Internal.Correction.Weighted>
   9.000000E+99

> <Gold.Protein.RotatedTorsions>
[ 6907 6896 6895 6894 ] final -151.98 input  -60.11 | X-H torsion
[ 7974 7965 7964 7962 ] final  114.47 input  175.53 | X-H torsion
[ 8008 7997 7996 7995 ] final -107.78 input   59.86 | X-H torsion
[ 10167 10162 10161 10158 ] final -108.61 input  -65.29 | X-H torsion
[ 10718 10713 10712 10709 ] final -166.93 input   66.30 | X-H torsion
[ 10763 10752 10751 10750 ] final  152.91 input  -60.55 | X-H torsion
[ 11005 11000 10999 10996 ] final  113.36 input  -57.11 | X-H torsion

> <Gold.Protein.ActiveResidues>
 VAL166  LYS551  ARG553  GLY616  TRP617  ASP618  TYR619  PRO620  LYS621  CYS622 
 ASP623  PHE694  ASN695  SER759  ASP760  ASP761  ALA762  ILE779  LEU786  VAL792 
 PHE793  MET794  SER795  GLU796  ALA797  LYS798  CYS799  TRP800  GLU811  SER814 

> <Gold.Protein.RotatedAtoms>
  151.2211  133.4502  159.2600 H   0  0  0  0  0  0  0  0  0  0  0  0  # atno 6907 bound_to 6896
  151.0884  134.9901  159.8401 H   0  0  0  0  0  0  0  0  0  0  0  0  # atno 6908 bound_to 6896
  152.5432  134.2146  159.8816 H   0  0  0  0  0  0  0  0  0  0  0  0  # atno 6909 bound_to 6896
  145.2041  139.2938  143.4303 H   0  0  0  0  0  0  0  0  0  0  0  0  # atno 7974 bound_to 7965
  154.9345  140.0404  157.2065 H   0  0  0  0  0  0  0  0  0  0  0  0  # atno 8008 bound_to 7997
  154.8129  140.2871  155.5819 H   0  0  0  0  0  0  0  0  0  0  0  0  # atno 8009 bound_to 7997
  156.2973  140.2533  156.3020 H   0  0  0  0  0  0  0  0  0  0  0  0  # atno 8010 bound_to 7997
  140.1643  143.4095  152.1402 H   0  0  0  0  0  0  0  0  0  0  0  0  # atno 10167 bound_to 10162
  156.6750  130.9099  151.3049 H   0  0  0  0  0  0  0  0  0  0  0  0  # atno 10718 bound_to 10713
  154.1277  135.2828  155.3193 H   0  0  0  0  0  0  0  0  0  0  0  0  # atno 10763 bound_to 10752
  154.6378  135.5413  153.7757 H   0  0  0  0  0  0  0  0  0  0  0  0  # atno 10764 bound_to 10752
  153.0291  135.6478  154.1429 H   0  0  0  0  0  0  0  0  0  0  0  0  # atno 10765 bound_to 10752
  139.8951  134.9548  156.6727 H   0  0  0  0  0  0  0  0  0  0  0  0  # atno 11005 bound_to 11000
  146.3411  140.2295  142.8593 LP  0  0  0  0  0  0  0  0  0  0  0  0  # atno 17320 bound_to 7965
  144.9919  140.8555  143.5334 LP  0  0  0  0  0  0  0  0  0  0  0  0  # atno 17321 bound_to 7965
  139.5367  144.7216  151.4870 LP  0  0  0  0  0  0  0  0  0  0  0  0  # atno 17342 bound_to 10162
  140.6623  143.8472  150.6902 LP  0  0  0  0  0  0  0  0  0  0  0  0  # atno 17343 bound_to 10162
  157.7064  130.9390  150.0944 LP  0  0  0  0  0  0  0  0  0  0  0  0  # atno 17370 bound_to 10713
  156.1910  130.3654  149.8910 LP  0  0  0  0  0  0  0  0  0  0  0  0  # atno 17371 bound_to 10713
  140.7361  133.9018  155.8245 LP  0  0  0  0  0  0  0  0  0  0  0  0  # atno 17394 bound_to 11000
  141.0115  134.1014  157.4216 LP  0  0  0  0  0  0  0  0  0  0  0  0  # atno 17395 bound_to 11000

$$$$
