AV-unprocessed.smi:151|AV-procd|sdf|1244|dock7
  -GOLD-   2262018463D 1   1.00000     0.00000
 Structure written by MMmdl.
 56 59  0  0  0  0  0  0  0  0  1 V2000
  151.9078  138.3252  154.4268 C   0  0  0  0  0  0  0  0  0  0  0  0
  150.4232  138.0470  154.7165 C   0  0  0  0  0  0  0  0  0  0  0  0
  149.4397  139.1495  154.2432 C   0  0  2  0  0  0  0  0  0  0  0  0
  150.0139  140.5585  154.5077 C   0  0  0  0  0  0  0  0  0  0  0  0
  149.0940  141.5701  154.1065 O   0  0  0  0  0  0  0  0  0  0  0  0
  147.8091  141.5017  154.7292 C   0  0  0  0  0  0  0  0  0  0  0  0
  147.8925  141.7894  156.2439 C   0  0  0  0  0  0  0  0  0  0  0  0
  146.9657  142.5930  154.0519 C   0  0  0  0  0  0  0  0  0  0  0  0
  147.1990  140.1159  154.4402 C   0  0  0  0  0  0  0  0  0  0  0  0
  148.1005  139.0380  154.8340 N   0  0  0  0  0  0  0  0  0  0  0  0
  147.4617  137.8473  154.7466 C   0  0  0  0  0  0  0  0  0  0  0  0
  147.5550  136.9384  155.7532 N   0  0  0  0  0  0  0  0  0  0  0  0
  146.9380  135.7582  155.6448 C   0  0  0  0  0  0  0  0  0  0  0  0
  146.2015  135.2908  154.6346 N   0  0  0  0  0  0  0  0  0  0  0  0
  146.1192  136.1948  153.6159 C   0  0  0  0  0  0  0  0  0  0  0  0
  146.7178  137.4853  153.5927 C   0  0  0  0  0  0  0  0  0  0  0  0
  146.4255  138.1280  152.3971 N   0  0  0  0  0  0  0  0  0  0  0  0
  145.6916  137.2659  151.7482 C   0  0  0  0  0  0  0  0  0  0  0  0
  145.4572  136.0767  152.4036 N   0  0  0  0  0  0  0  0  0  0  0  0
  144.6799  134.9731  151.9120 C   0  0  0  0  0  0  0  0  0  0  0  0
  144.8573  133.5629  152.4835 C   0  0  0  0  0  0  0  0  0  0  0  0
  144.6443  132.9597  151.0749 C   0  0  0  0  0  0  0  0  0  0  0  0
  145.6286  131.8532  150.6506 C   0  0  0  0  0  0  0  0  0  0  0  0
  146.9819  132.2343  150.7992 O   0  0  0  0  0  0  0  0  0  0  0  0
  143.2432  132.3805  150.7873 C   0  0  0  0  0  0  0  0  0  0  0  0
  142.9691  132.2288  149.4090 O   0  0  0  0  0  0  0  0  0  0  0  0
  144.9228  134.3774  150.5208 C   0  0  0  0  0  0  0  0  0  0  0  0
  152.5297  137.5200  154.8182 H   0  0  0  0  0  0  0  0  0  0  0  0
  152.2415  139.2517  154.8944 H   0  0  0  0  0  0  0  0  0  0  0  0
  152.1079  138.3968  153.3584 H   0  0  0  0  0  0  0  0  0  0  0  0
  150.1457  137.1028  154.2473 H   0  0  0  0  0  0  0  0  0  0  0  0
  150.3058  137.8744  155.7859 H   0  0  0  0  0  0  0  0  0  0  0  0
  149.3256  139.0505  153.1626 H   0  0  0  0  0  0  0  0  0  0  0  0
  150.2798  140.6987  155.5541 H   0  0  0  0  0  0  0  0  0  0  0  0
  150.9356  140.6950  153.9417 H   0  0  0  0  0  0  0  0  0  0  0  0
  146.8964  141.8478  156.6834 H   0  0  0  0  0  0  0  0  0  0  0  0
  148.3949  142.7375  156.4374 H   0  0  0  0  0  0  0  0  0  0  0  0
  148.4297  141.0127  156.7879 H   0  0  0  0  0  0  0  0  0  0  0  0
  145.9460  142.6041  154.4384 H   0  0  0  0  0  0  0  0  0  0  0  0
  146.9087  142.4371  152.9741 H   0  0  0  0  0  0  0  0  0  0  0  0
  147.3940  143.5822  154.2177 H   0  0  0  0  0  0  0  0  0  0  0  0
  146.2426  140.0200  154.9573 H   0  0  0  0  0  0  0  0  0  0  0  0
  146.9903  140.0191  153.3732 H   0  0  0  0  0  0  0  0  0  0  0  0
  147.0514  135.0922  156.4874 H   0  0  0  0  0  0  0  0  0  0  0  0
  145.2976  137.4782  150.7649 H   0  0  0  0  0  0  0  0  0  0  0  0
  143.6355  135.2753  152.0013 H   0  0  0  0  0  0  0  0  0  0  0  0
  145.8575  133.3965  152.8846 H   0  0  0  0  0  0  0  0  0  0  0  0
  144.1012  133.2837  153.2179 H   0  0  0  0  0  0  0  0  0  0  0  0
  145.4723  130.9493  151.2406 H   0  0  0  0  0  0  0  0  0  0  0  0
  145.4751  131.5770  149.6068 H   0  0  0  0  0  0  0  0  0  0  0  0
  147.5277  131.5607  150.4233 H   0  0  0  0  0  0  0  0  0  0  0  0
  143.1270  131.4021  151.2549 H   0  0  0  0  0  0  0  0  0  0  0  0
  142.4674  133.0210  151.2085 H   0  0  0  0  0  0  0  0  0  0  0  0
  142.2264  132.7701  149.1887 H   0  0  0  0  0  0  0  0  0  0  0  0
  144.2147  134.7167  149.7644 H   0  0  0  0  0  0  0  0  0  0  0  0
  145.9461  134.5180  150.1727 H   0  0  0  0  0  0  0  0  0  0  0  0
  1  2  1  0  0  0  0
  1 28  1  0  0  0  0
  1 29  1  0  0  0  0
  1 30  1  0  0  0  0
  2  3  1  0  0  0  0
  2 31  1  0  0  0  0
  2 32  1  0  0  0  0
  3 10  1  0  0  0  0
  3  4  1  0  0  0  0
  3 33  1  0  0  0  0
  4  5  1  0  0  0  0
  4 34  1  0  0  0  0
  4 35  1  0  0  0  0
  5  6  1  0  0  0  0
  6  7  1  0  0  0  0
  6  8  1  0  0  0  0
  6  9  1  0  0  0  0
  7 36  1  0  0  0  0
  7 37  1  0  0  0  0
  7 38  1  0  0  0  0
  8 39  1  0  0  0  0
  8 40  1  0  0  0  0
  8 41  1  0  0  0  0
  9 10  1  0  0  0  0
  9 42  1  0  0  0  0
  9 43  1  0  0  0  0
 10 11  1  0  0  0  0
 11 16  1  0  0  0  0
 11 12  2  0  0  0  0
 12 13  1  0  0  0  0
 13 14  2  0  0  0  0
 13 44  1  0  0  0  0
 14 15  1  0  0  0  0
 15 19  1  0  0  0  0
 15 16  2  0  0  0  0
 16 17  1  0  0  0  0
 17 18  2  0  0  0  0
 18 19  1  0  0  0  0
 18 45  1  0  0  0  0
 19 20  1  0  0  0  0
 20 27  1  0  0  0  0
 20 21  1  0  0  0  0
 20 46  1  0  0  0  0
 21 22  1  0  0  0  0
 21 47  1  0  0  0  0
 21 48  1  0  0  0  0
 22 23  1  0  0  0  0
 22 25  1  0  0  0  0
 22 27  1  0  0  0  0
 23 24  1  0  0  0  0
 23 49  1  0  0  0  0
 23 50  1  0  0  0  0
 24 51  1  0  0  0  0
 25 26  1  0  0  0  0
 25 52  1  0  0  0  0
 25 53  1  0  0  0  0
 26 54  1  0  0  0  0
 27 55  1  0  0  0  0
 27 56  1  0  0  0  0
M  END
> <s_m_source_file>
AV-unprocessed.smi

> <i_m_source_file_index>
151

> <i_lp_mmshare_version>
43012

> <i_f3d_flags>
0

> <s_epik_input>
W0NIM11DMShbQ0gzXSlPW0NIMl1bQ0BASF0oW0NIMl1bQ0gzXSlOKFtDSDJdMSljKG5bY0hdbjIpYyhjMjMpbltjSF1uM1tDSF0oW0NIMl00KVtDSDJdQzQoW0NIMl1bT0hdKVtDSDJdW09IXQ==

> <s_epik_cmdline>
J2VwaWtfcHl0aG9uJywgJy1waCcsICc3LjAnLCAnLXRuJywgJzgnLCAnLW1hJywgJzIwMCcsICctbWV0YWxfYmluZGluZycsICctaW1hZScsICc8aW5maWxlLm1hZT4nLCAnLW9tYWUnLCAnPG91dGZpbGUubWFlPic=

> <r_lp_tautomer_probability>
1

> <r_epik_Ionization_Penalty>
0.000102837

> <r_epik_Ionization_Penalty_Charging>
0

> <r_epik_Ionization_Penalty_Neutral>
0.000102837

> <r_epik_State_Penalty>
-0

> <r_epik_Charging_Adjusted_Penalty>
0

> <i_epik_Tot_Q>
0

> <i_epik_Tot_abs_Q>
0

> <r_epik_Metal_State_Penalty>
-0

> <b_epik_Metal_Only>
0

> <s_lp_Force_Field>
OPLS_2005

> <r_lp_Energy>
52.7657

> <b_lp_Chiralities_Consistent>
1

> <s_lp_Variant>
AV-unprocessed.smi:151-1

> <Gold.Version>
5.8.1

> <Gold.Id.Protein>
6NUR|6NUR_protein|mol2

> <Gold.PLP.Fitness>
49.9924

> <Gold.PLP.PLP>
-39.7510

> <Gold.PLP.part.hbond>
-4.7732

> <Gold.PLP.part.metal>
0.0000

> <Gold.PLP.part.buried>
-0.7996

> <Gold.PLP.part.nonpolar>
-33.9265

> <Gold.PLP.part.repulsive>
0.6694

> <Gold.PLP.ligand.clash>
0.0000

> <Gold.PLP.ligand.torsion>
1.1782

> <Gold.PLP.Chemscore.Hbond>
3.0263

> <Gold.PLP.Chemscore.CHOScore>
0.9981

> <Gold.PLP.Chemscore.Metal>
0.0000

> <Gold.Chemscore.Hbonds>
donor molecule, donor type, donor heavy atom, donor atom, acceptor molecule, acceptor atom, score
      L1  H    24    51       P1 10747  1.00
      L1  H    26    54       P1 10186  0.89
      P1  H  8011  8017       L1     5  0.54
      P1  H 10785 10796       L1    26  0.57
      L1  C    18    45       P1 10171  1.00

> <Gold.PLP.Chemscore.Internal.Correction>
0.5246

> <Gold.Rescore>
     Score         DG    S(hbond)    S(metal)    S(lipo)     H(rot)  DE(clash)    DE(int)     intcor
     12.24     -16.66       2.59        0.00      92.97       3.26       1.34       3.08       ----

> <Gold.Chemscore.Fitness>
12.2397

> <Gold.Chemscore.DG>
-16.6618

> <Gold.Chemscore.ZeroCoef>
-5.4800

> <Gold.Chemscore.Hbond>
2.5897

> <Gold.Chemscore.Metal>
0.0000

> <Gold.Chemscore.Lipo>
92.9651

> <Gold.Chemscore.Internal_Hbond>
0.0000

> <Gold.Chemscore.DEClash>
1.3435

> <Gold.Chemscore.DEInternal>
3.0786

> <Gold.Chemscore.Rot>
3.2596

> <Gold.Chemscore.Internal.Correction>
   9.000000E+99

> <Gold.Chemscore.Hbonds>
donor molecule, donor type, donor heavy atom, donor atom, acceptor molecule, acceptor atom, score
      L1  H    24    51       P1 10747  0.93
      L1  H    26    54       P1 10186  0.84
      P1  H  8011  8017       L1     5  0.34
      P1  H 10785 10796       L1    26  0.46

> <Gold.Chemscore.Hbond.Weighted>
-8.6496

> <Gold.Chemscore.Metal.Weighted>
-0.0000

> <Gold.Chemscore.Lipo.Weighted>
-10.8769

> <Gold.Chemscore.Internal_Hbond.Weighted>
0.0000

> <Gold.Chemscore.DEClash.Weighted>
1.3435

> <Gold.Chemscore.DEInternal.Weighted>
3.0786

> <Gold.Chemscore.Rot.Weighted>
8.3447

> <Gold.Chemscore.Internal.Correction.Weighted>
   9.000000E+99

> <Gold.Protein.RotatedTorsions>
[ 6907 6896 6895 6894 ] final -116.58 input  -60.11 | X-H torsion
[ 7974 7965 7964 7962 ] final -141.79 input  175.53 | X-H torsion
[ 8008 7997 7996 7995 ] final -147.68 input   59.86 | X-H torsion
[ 10167 10162 10161 10158 ] final   26.54 input  -65.29 | X-H torsion
[ 10718 10713 10712 10709 ] final -106.38 input   66.30 | X-H torsion
[ 10763 10752 10751 10750 ] final  162.37 input  -60.55 | X-H torsion
[ 11005 11000 10999 10996 ] final  106.34 input  -57.11 | X-H torsion

> <Gold.Protein.ActiveResidues>
 VAL166  LYS551  ARG553  GLY616  TRP617  ASP618  TYR619  PRO620  LYS621  CYS622 
 ASP623  PHE694  ASN695  SER759  ASP760  ASP761  ALA762  ILE779  LEU786  VAL792 
 PHE793  MET794  SER795  GLU796  ALA797  LYS798  CYS799  TRP800  GLU811  SER814 

> <Gold.Protein.RotatedAtoms>
  150.8067  133.8497  159.3201 H   0  0  0  0  0  0  0  0  0  0  0  0  # atno 6907 bound_to 6896
  151.6293  135.1022  160.0128 H   0  0  0  0  0  0  0  0  0  0  0  0  # atno 6908 bound_to 6896
  152.4158  133.6996  159.6473 H   0  0  0  0  0  0  0  0  0  0  0  0  # atno 6909 bound_to 6896
  144.8492  140.6037  143.5401 H   0  0  0  0  0  0  0  0  0  0  0  0  # atno 7974 bound_to 7965
  155.5795  140.0642  157.2787 H   0  0  0  0  0  0  0  0  0  0  0  0  # atno 8008 bound_to 7997
  154.4337  140.1854  156.1008 H   0  0  0  0  0  0  0  0  0  0  0  0  # atno 8009 bound_to 7997
  156.0316  140.3306  155.7149 H   0  0  0  0  0  0  0  0  0  0  0  0  # atno 8010 bound_to 7997
  140.5014  144.0308  150.6334 H   0  0  0  0  0  0  0  0  0  0  0  0  # atno 10167 bound_to 10162
  156.0387  130.5610  150.7673 H   0  0  0  0  0  0  0  0  0  0  0  0  # atno 10718 bound_to 10713
  154.2773  135.2764  155.2712 H   0  0  0  0  0  0  0  0  0  0  0  0  # atno 10763 bound_to 10752
  154.5249  135.5746  153.6715 H   0  0  0  0  0  0  0  0  0  0  0  0  # atno 10764 bound_to 10752
  152.9935  135.6213  154.2930 H   0  0  0  0  0  0  0  0  0  0  0  0  # atno 10765 bound_to 10752
  139.8813  134.9366  156.5652 H   0  0  0  0  0  0  0  0  0  0  0  0  # atno 11005 bound_to 11000
  145.4533  139.1521  143.3906 LP  0  0  0  0  0  0  0  0  0  0  0  0  # atno 17320 bound_to 7965
  146.2771  140.4660  142.8791 LP  0  0  0  0  0  0  0  0  0  0  0  0  # atno 17321 bound_to 7965
  140.3605  143.2911  152.0388 LP  0  0  0  0  0  0  0  0  0  0  0  0  # atno 17342 bound_to 10162
  139.4873  144.6306  151.7077 LP  0  0  0  0  0  0  0  0  0  0  0  0  # atno 17343 bound_to 10162
  157.5176  131.0929  151.0119 LP  0  0  0  0  0  0  0  0  0  0  0  0  # atno 17370 bound_to 10713
  157.0458  130.5767  149.5363 LP  0  0  0  0  0  0  0  0  0  0  0  0  # atno 17371 bound_to 10713
  140.8140  133.8407  155.8835 LP  0  0  0  0  0  0  0  0  0  0  0  0  # atno 17394 bound_to 11000
  140.9480  134.1815  157.4749 LP  0  0  0  0  0  0  0  0  0  0  0  0  # atno 17395 bound_to 11000

$$$$
