AV-unprocessed.smi:1258|AV-procd|sdf|5290|dock7
  -GOLD-   22720 4413D 1   1.00000     0.00000
 Structure written by MMmdl.
 33 34  0  0  0  0  0  0  0  0  1 V2000
  153.1042  142.7110  162.8103 C   0  0  0  0  0  0  0  0  0  0  0  0
  152.5486  142.8237  161.3834 C   0  0  1  0  0  0  0  0  0  0  0  0
  151.8863  144.1945  161.1466 C   0  0  0  0  0  0  0  0  0  0  0  0
  151.3347  144.3168  159.7179 C   0  0  0  0  0  0  0  0  0  0  0  0
  152.4335  144.0609  158.6733 C   0  0  0  0  0  0  0  0  0  0  0  0
  153.1285  142.6980  158.8830 C   0  0  2  0  0  0  0  0  0  0  0  0
  152.2416  141.5826  158.5550 N   0  0  0  0  0  0  0  0  0  0  0  0
  152.6044  140.2926  158.4826 C   0  0  0  0  0  0  0  0  0  0  0  0
  153.7555  139.9018  158.6805 O   0  0  0  0  0  0  0  0  0  0  0  0
  151.4984  139.2967  158.1217 C   0  0  0  0  0  0  0  0  0  0  0  0
  151.8188  138.5489  156.9195 N   0  0  0  0  0  0  0  0  0  0  0  0
  152.1010  138.9581  155.6808 C   0  0  0  0  0  0  0  0  0  0  0  0
  152.3450  137.9377  154.8726 N   0  0  0  0  0  0  0  0  0  0  0  0
  152.1961  136.8377  155.7009 N   0  0  0  0  0  0  0  0  0  0  0  0
  151.8843  137.1941  156.9169 N   0  0  0  0  0  0  0  0  0  0  0  0
  153.6458  142.5615  160.3295 C   0  0  0  0  0  0  0  0  0  0  0  0
  153.8765  143.4582  162.9956 H   0  0  0  0  0  0  0  0  0  0  0  0
  153.5431  141.7283  162.9847 H   0  0  0  0  0  0  0  0  0  0  0  0
  152.3170  142.8557  163.5507 H   0  0  0  0  0  0  0  0  0  0  0  0
  151.7809  142.0566  161.2732 H   0  0  0  0  0  0  0  0  0  0  0  0
  151.0786  144.3481  161.8631 H   0  0  0  0  0  0  0  0  0  0  0  0
  152.6109  144.9902  161.3242 H   0  0  0  0  0  0  0  0  0  0  0  0
  150.5180  143.6079  159.5771 H   0  0  0  0  0  0  0  0  0  0  0  0
  150.9084  145.3095  159.5697 H   0  0  0  0  0  0  0  0  0  0  0  0
  152.0173  144.1320  157.6679 H   0  0  0  0  0  0  0  0  0  0  0  0
  153.1796  144.8532  158.7441 H   0  0  0  0  0  0  0  0  0  0  0  0
  153.9914  142.6430  158.2167 H   0  0  0  0  0  0  0  0  0  0  0  0
  151.2750  141.8123  158.3741 H   0  0  0  0  0  0  0  0  0  0  0  0
  151.3264  138.5951  158.9400 H   0  0  0  0  0  0  0  0  0  0  0  0
  150.5665  139.8388  157.9593 H   0  0  0  0  0  0  0  0  0  0  0  0
  152.1300  139.9938  155.3755 H   0  0  0  0  0  0  0  0  0  0  0  0
  154.4611  143.2709  160.4793 H   0  0  0  0  0  0  0  0  0  0  0  0
  154.0790  141.5713  160.4767 H   0  0  0  0  0  0  0  0  0  0  0  0
  1  2  1  0  0  0  0
  1 17  1  0  0  0  0
  1 18  1  0  0  0  0
  1 19  1  0  0  0  0
  2 16  1  0  0  0  0
  2  3  1  0  0  0  0
  2 20  1  0  0  0  0
  3  4  1  0  0  0  0
  3 21  1  0  0  0  0
  3 22  1  0  0  0  0
  4  5  1  0  0  0  0
  4 23  1  0  0  0  0
  4 24  1  0  0  0  0
  5  6  1  0  0  0  0
  5 25  1  0  0  0  0
  5 26  1  0  0  0  0
  6  7  1  0  0  0  0
  6 16  1  0  0  0  0
  6 27  1  0  0  0  0
  7  8  1  0  0  0  0
  7 28  1  0  0  0  0
  8  9  2  0  0  0  0
  8 10  1  0  0  0  0
 10 11  1  0  0  0  0
 10 29  1  0  0  0  0
 10 30  1  0  0  0  0
 11 15  1  0  0  0  0
 11 12  1  0  0  0  0
 12 13  2  0  0  0  0
 12 31  1  0  0  0  0
 13 14  1  0  0  0  0
 14 15  2  0  0  0  0
 16 32  1  0  0  0  0
 16 33  1  0  0  0  0
M  END
> <s_m_source_file>
AV-unprocessed.smi

> <i_m_source_file_index>
1258

> <i_lp_mmshare_version>
43012

> <i_f3d_flags>
0

> <s_epik_input>
W0NIM11bQ0BASF0xW0NIMl1bQ0gyXVtDSDJdW0NASF0oW0NIMl0xKVtOSF1DKD1PKVtDSDJdbjJbY0hdbm5uMg==

> <s_epik_cmdline>
J2VwaWtfcHl0aG9uJywgJy1waCcsICc3LjAnLCAnLXRuJywgJzgnLCAnLW1hJywgJzIwMCcsICctbWV0YWxfYmluZGluZycsICctaW1hZScsICc8aW5maWxlLm1hZT4nLCAnLW9tYWUnLCAnPG91dGZpbGUubWFlPic=

> <r_lp_tautomer_probability>
1

> <r_epik_Ionization_Penalty>
5.03816e-07

> <r_epik_Ionization_Penalty_Charging>
0

> <r_epik_Ionization_Penalty_Neutral>
5.03816e-07

> <r_epik_State_Penalty>
-0

> <r_epik_Charging_Adjusted_Penalty>
0

> <i_epik_Tot_Q>
0

> <i_epik_Tot_abs_Q>
0

> <r_epik_Metal_State_Penalty>
-0

> <b_epik_Metal_Only>
0

> <s_lp_Force_Field>
OPLS_2005

> <r_lp_Energy>
10.3289

> <b_lp_Chiralities_Consistent>
1

> <s_lp_Variant>
AV-unprocessed.smi:1258-4

> <Gold.Version>
5.8.1

> <Gold.Id.Protein>
6NUR|6NUR_protein|mol2

> <Gold.PLP.Fitness>
41.5259

> <Gold.PLP.PLP>
-35.6990

> <Gold.PLP.part.hbond>
-3.0000

> <Gold.PLP.part.metal>
0.0000

> <Gold.PLP.part.buried>
-4.8506

> <Gold.PLP.part.nonpolar>
-27.6327

> <Gold.PLP.part.repulsive>
0.1532

> <Gold.PLP.ligand.clash>
0.0000

> <Gold.PLP.ligand.torsion>
0.0547

> <Gold.PLP.Chemscore.Hbond>
1.9760

> <Gold.PLP.Chemscore.CHOScore>
0.0000

> <Gold.PLP.Chemscore.Metal>
0.0000

> <Gold.Chemscore.Hbonds>
donor molecule, donor type, donor heavy atom, donor atom, acceptor molecule, acceptor atom, score
      P1  H  7997  8009       L1     9  0.91
      P1  H 10752 10763       L1    14  0.91

> <Gold.PLP.Chemscore.Internal.Correction>
0.0083

> <Gold.Rescore>
     Score         DG    S(hbond)    S(metal)    S(lipo)     H(rot)  DE(clash)    DE(int)     intcor
     16.85     -17.01       1.90        0.00      86.26       1.92       0.00       0.16       ----

> <Gold.Chemscore.Fitness>
16.8522

> <Gold.Chemscore.DG>
-17.0095

> <Gold.Chemscore.ZeroCoef>
-5.4800

> <Gold.Chemscore.Hbond>
1.8996

> <Gold.Chemscore.Metal>
0.0000

> <Gold.Chemscore.Lipo>
86.2573

> <Gold.Chemscore.Internal_Hbond>
0.0000

> <Gold.Chemscore.DEClash>
0.0021

> <Gold.Chemscore.DEInternal>
0.1551

> <Gold.Chemscore.Rot>
1.9169

> <Gold.Chemscore.Internal.Correction>
   9.000000E+99

> <Gold.Chemscore.Hbonds>
donor molecule, donor type, donor heavy atom, donor atom, acceptor molecule, acceptor atom, score
      P1  H  7997  8009       L1     9  0.87
      P1  H 10752 10763       L1    14  0.63

> <Gold.Chemscore.Hbond.Weighted>
-6.3446

> <Gold.Chemscore.Metal.Weighted>
-0.0000

> <Gold.Chemscore.Lipo.Weighted>
-10.0921

> <Gold.Chemscore.Internal_Hbond.Weighted>
0.0000

> <Gold.Chemscore.DEClash.Weighted>
0.0021

> <Gold.Chemscore.DEInternal.Weighted>
0.1551

> <Gold.Chemscore.Rot.Weighted>
4.9073

> <Gold.Chemscore.Internal.Correction.Weighted>
   9.000000E+99

> <Gold.Protein.RotatedTorsions>
[ 6907 6896 6895 6894 ] final   90.05 input  -60.11 | X-H torsion
[ 7974 7965 7964 7962 ] final   -1.23 input  175.53 | X-H torsion
[ 8008 7997 7996 7995 ] final  124.28 input   59.86 | X-H torsion
[ 10167 10162 10161 10158 ] final  -14.41 input  -65.29 | X-H torsion
[ 10718 10713 10712 10709 ] final   80.69 input   66.30 | X-H torsion
[ 10763 10752 10751 10750 ] final   91.02 input  -60.55 | X-H torsion
[ 11005 11000 10999 10996 ] final  170.81 input  -57.11 | X-H torsion

> <Gold.Protein.ActiveResidues>
 VAL166  LYS551  ARG553  GLY616  TRP617  ASP618  TYR619  PRO620  LYS621  CYS622 
 ASP623  PHE694  ASN695  SER759  ASP760  ASP761  ALA762  ILE779  LEU786  VAL792 
 PHE793  MET794  SER795  GLU796  ALA797  LYS798  CYS799  TRP800  GLU811  SER814 

> <Gold.Protein.RotatedAtoms>
  152.5441  134.1872  159.8659 H   0  0  0  0  0  0  0  0  0  0  0  0  # atno 6907 bound_to 6896
  151.1870  133.4683  159.2602 H   0  0  0  0  0  0  0  0  0  0  0  0  # atno 6908 bound_to 6896
  151.1121  135.0044  159.8554 H   0  0  0  0  0  0  0  0  0  0  0  0  # atno 6909 bound_to 6896
  146.2419  140.1388  142.8336 H   0  0  0  0  0  0  0  0  0  0  0  0  # atno 7974 bound_to 7965
  156.2796  140.2743  156.1763 H   0  0  0  0  0  0  0  0  0  0  0  0  # atno 8008 bound_to 7997
  155.0603  140.0386  157.2592 H   0  0  0  0  0  0  0  0  0  0  0  0  # atno 8009 bound_to 7997
  154.7123  140.2671  155.6623 H   0  0  0  0  0  0  0  0  0  0  0  0  # atno 8010 bound_to 7997
  140.7200  143.5325  150.9503 H   0  0  0  0  0  0  0  0  0  0  0  0  # atno 10167 bound_to 10162
  157.6813  130.9970  150.2116 H   0  0  0  0  0  0  0  0  0  0  0  0  # atno 10718 bound_to 10713
  153.2037  135.4413  155.0297 H   0  0  0  0  0  0  0  0  0  0  0  0  # atno 10763 bound_to 10752
  154.8161  135.3316  154.7173 H   0  0  0  0  0  0  0  0  0  0  0  0  # atno 10764 bound_to 10752
  153.7616  135.6991  153.4980 H   0  0  0  0  0  0  0  0  0  0  0  0  # atno 10765 bound_to 10752
  140.3123  134.7506  157.4001 H   0  0  0  0  0  0  0  0  0  0  0  0  # atno 11005 bound_to 11000
  145.0264  140.8835  143.5136 LP  0  0  0  0  0  0  0  0  0  0  0  0  # atno 17320 bound_to 7965
  145.1445  139.2552  143.5473 LP  0  0  0  0  0  0  0  0  0  0  0  0  # atno 17321 bound_to 7965
  139.9045  143.6795  152.3126 LP  0  0  0  0  0  0  0  0  0  0  0  0  # atno 17342 bound_to 10162
  139.7156  144.7612  151.1039 LP  0  0  0  0  0  0  0  0  0  0  0  0  # atno 17343 bound_to 10162
  156.2786  130.3730  149.7958 LP  0  0  0  0  0  0  0  0  0  0  0  0  # atno 17370 bound_to 10713
  156.5654  130.8401  151.3341 LP  0  0  0  0  0  0  0  0  0  0  0  0  # atno 17371 bound_to 10713
  140.1014  134.5468  155.8350 LP  0  0  0  0  0  0  0  0  0  0  0  0  # atno 17394 bound_to 11000
  141.2105  133.6696  156.6516 LP  0  0  0  0  0  0  0  0  0  0  0  0  # atno 17395 bound_to 11000

$$$$
