AV-unprocessed.smi:2061|AV-procd|sdf|8363|dock1
  -GOLD-   2272011 33D 1   1.00000     0.00000
 Structure written by MMmdl.
 45 46  0  0  0  0  0  0  0  0  1 V2000
  150.7362  131.1801  155.6212 C   0  0  0  0  0  0  0  0  0  0  0  0
  150.5222  132.5225  156.2319 C   0  0  0  0  0  0  0  0  0  0  0  0
  150.5284  133.7890  155.7187 C   0  0  0  0  0  0  0  0  0  0  0  0
  150.2548  134.5956  156.8553 C   0  0  0  0  0  0  0  0  0  0  0  0
  150.1758  136.0071  156.7432 N   0  0  0  0  0  0  0  0  0  0  0  0
  150.5100  136.9228  157.6684 C   0  0  0  0  0  0  0  0  0  0  0  0
  150.9419  136.6676  158.7928 O   0  0  0  0  0  0  0  0  0  0  0  0
  150.3079  138.1679  157.2127 N   0  0  0  0  0  0  0  0  0  0  0  0
  150.5645  139.4000  157.9556 C   0  0  0  0  0  0  0  0  0  0  0  0
  151.8321  140.1525  157.4597 C   0  0  1  0  0  0  0  0  0  0  0  0
  151.6609  140.4913  155.9567 C   0  0  0  0  0  0  0  0  0  0  0  0
  152.1630  141.3417  158.2811 N   0  0  0  0  0  0  0  0  0  0  0  0
  152.7468  140.9890  159.5789 C   0  0  0  0  0  0  0  0  0  0  0  0
  153.1166  142.2214  160.4237 C   0  0  2  0  0  0  0  0  0  0  0  0
  153.6510  141.8324  161.8063 C   0  0  0  0  0  0  0  0  0  0  0  0
  151.9622  143.0329  160.6107 O   0  0  0  0  0  0  0  0  0  0  0  0
  151.3128  143.4314  159.4058 C   0  0  1  0  0  0  0  0  0  0  0  0
  152.1001  144.5248  158.6634 C   0  0  0  0  0  0  0  0  0  0  0  0
  151.0000  142.2019  158.5297 C   0  0  0  0  0  0  0  0  0  0  0  0
  150.0961  133.8858  157.9620 N   0  0  0  0  0  0  0  0  0  0  0  0
  150.2677  132.5535  157.5681 O   0  0  0  0  0  0  0  0  0  0  0  0
  150.6884  131.2360  154.5334 H   0  0  0  0  0  0  0  0  0  0  0  0
  149.9754  130.4752  155.9571 H   0  0  0  0  0  0  0  0  0  0  0  0
  151.7127  130.7821  155.8972 H   0  0  0  0  0  0  0  0  0  0  0  0
  150.7011  134.0867  154.6949 H   0  0  0  0  0  0  0  0  0  0  0  0
  149.8279  136.3573  155.8629 H   0  0  0  0  0  0  0  0  0  0  0  0
  149.9473  138.2754  156.2760 H   0  0  0  0  0  0  0  0  0  0  0  0
  149.7030  140.0697  157.9354 H   0  0  0  0  0  0  0  0  0  0  0  0
  150.6745  139.0740  158.9877 H   0  0  0  0  0  0  0  0  0  0  0  0
  152.6658  139.4524  157.5332 H   0  0  0  0  0  0  0  0  0  0  0  0
  151.3724  139.6250  155.3630 H   0  0  0  0  0  0  0  0  0  0  0  0
  152.5859  140.8436  155.5027 H   0  0  0  0  0  0  0  0  0  0  0  0
  150.8978  141.2565  155.8099 H   0  0  0  0  0  0  0  0  0  0  0  0
  152.0542  140.3556  160.1355 H   0  0  0  0  0  0  0  0  0  0  0  0
  153.6618  140.4155  159.4452 H   0  0  0  0  0  0  0  0  0  0  0  0
  153.8874  142.7965  159.9099 H   0  0  0  0  0  0  0  0  0  0  0  0
  154.5441  141.2126  161.7226 H   0  0  0  0  0  0  0  0  0  0  0  0
  152.9067  141.2730  162.3737 H   0  0  0  0  0  0  0  0  0  0  0  0
  153.9147  142.7178  162.3851 H   0  0  0  0  0  0  0  0  0  0  0  0
  150.3632  143.8754  159.7057 H   0  0  0  0  0  0  0  0  0  0  0  0
  151.5300  144.9026  157.8143 H   0  0  0  0  0  0  0  0  0  0  0  0
  153.0507  144.1572  158.2776 H   0  0  0  0  0  0  0  0  0  0  0  0
  152.3091  145.3683  159.3216 H   0  0  0  0  0  0  0  0  0  0  0  0
  150.5823  142.5745  157.5968 H   0  0  0  0  0  0  0  0  0  0  0  0
  150.2157  141.6159  159.0115 H   0  0  0  0  0  0  0  0  0  0  0  0
  1  2  1  0  0  0  0
  1 22  1  0  0  0  0
  1 23  1  0  0  0  0
  1 24  1  0  0  0  0
  2 21  1  0  0  0  0
  2  3  2  0  0  0  0
  3  4  1  0  0  0  0
  3 25  1  0  0  0  0
  4  5  1  0  0  0  0
  4 20  2  0  0  0  0
  5  6  1  0  0  0  0
  5 26  1  0  0  0  0
  6  7  2  0  0  0  0
  6  8  1  0  0  0  0
  8  9  1  0  0  0  0
  8 27  1  0  0  0  0
  9 10  1  0  0  0  0
  9 28  1  0  0  0  0
  9 29  1  0  0  0  0
 10 11  1  0  0  0  0
 10 12  1  0  0  0  0
 10 30  1  0  0  0  0
 11 31  1  0  0  0  0
 11 32  1  0  0  0  0
 11 33  1  0  0  0  0
 12 19  1  0  0  0  0
 12 13  1  0  0  0  0
 13 14  1  0  0  0  0
 13 34  1  0  0  0  0
 13 35  1  0  0  0  0
 14 15  1  0  0  0  0
 14 16  1  0  0  0  0
 14 36  1  0  0  0  0
 15 37  1  0  0  0  0
 15 38  1  0  0  0  0
 15 39  1  0  0  0  0
 16 17  1  0  0  0  0
 17 18  1  0  0  0  0
 17 19  1  0  0  0  0
 17 40  1  0  0  0  0
 18 41  1  0  0  0  0
 18 42  1  0  0  0  0
 18 43  1  0  0  0  0
 19 44  1  0  0  0  0
 19 45  1  0  0  0  0
 20 21  1  0  0  0  0
M  END
> <s_m_source_file>
AV-unprocessed.smi

> <i_m_source_file_index>
2061

> <i_lp_mmshare_version>
43012

> <i_f3d_flags>
0

> <s_epik_input>
W0NIM11jMVtjSF1jKG5vMSlbTkhdQyg9TylbTkhdW0NIMl1bQ0BIXShbQ0gzXSlOMltDSDJdW0NAQEhdKFtDSDNdKU9bQ0BASF0oW0NIM10pW0NIMl0y

> <s_epik_cmdline>
J2VwaWtfcHl0aG9uJywgJy1waCcsICc3LjAnLCAnLXRuJywgJzgnLCAnLW1hJywgJzIwMCcsICctbWV0YWxfYmluZGluZycsICctaW1hZScsICc8aW5maWxlLm1hZT4nLCAnLW9tYWUnLCAnPG91dGZpbGUubWFlPic=

> <r_epik_Ionization_Penalty>
0.214073

> <r_epik_Ionization_Penalty_Charging>
0

> <r_epik_Ionization_Penalty_Neutral>
0.214073

> <r_epik_State_Penalty>
0.204211

> <r_epik_Charging_Adjusted_Penalty>
0.204211

> <i_epik_Tot_Q>
0

> <i_epik_Tot_abs_Q>
0

> <r_epik_Metal_State_Penalty>
0.217067

> <b_epik_Metal_Only>
0

> <s_lp_Force_Field>
OPLS_2005

> <r_lp_Energy>
29.4213

> <b_lp_Chiralities_Consistent>
1

> <s_lp_Variant>
AV-unprocessed.smi:2061-4

> <Gold.Version>
5.8.1

> <Gold.Id.Protein>
6NUR|6NUR_protein|mol2

> <Gold.PLP.Fitness>
40.2350

> <Gold.PLP.PLP>
-36.1651

> <Gold.PLP.part.hbond>
-2.4554

> <Gold.PLP.part.metal>
0.0000

> <Gold.PLP.part.buried>
-5.5379

> <Gold.PLP.part.nonpolar>
-28.3306

> <Gold.PLP.part.repulsive>
0.1369

> <Gold.PLP.ligand.clash>
0.0000

> <Gold.PLP.ligand.torsion>
0.5342

> <Gold.PLP.Chemscore.Hbond>
1.7040

> <Gold.PLP.Chemscore.CHOScore>
0.0000

> <Gold.PLP.Chemscore.Metal>
0.0000

> <Gold.Chemscore.Hbonds>
donor molecule, donor type, donor heavy atom, donor atom, acceptor molecule, acceptor atom, score
      P1  H  6896  6907       L1    20  0.72
      P1  H  6896  6908       L1     7  0.74

> <Gold.PLP.Chemscore.Internal.Correction>
0.0264

> <Gold.Rescore>
     Score         DG    S(hbond)    S(metal)    S(lipo)     H(rot)  DE(clash)    DE(int)     intcor
     15.48     -16.94       1.37        0.00      92.87       1.55       0.03       1.43       ----

> <Gold.Chemscore.Fitness>
15.4819

> <Gold.Chemscore.DG>
-16.9436

> <Gold.Chemscore.ZeroCoef>
-5.4800

> <Gold.Chemscore.Hbond>
1.3651

> <Gold.Chemscore.Metal>
0.0000

> <Gold.Chemscore.Lipo>
92.8663

> <Gold.Chemscore.Internal_Hbond>
0.0000

> <Gold.Chemscore.DEClash>
0.0310

> <Gold.Chemscore.DEInternal>
1.4307

> <Gold.Chemscore.Rot>
1.5474

> <Gold.Chemscore.Internal.Correction>
   9.000000E+99

> <Gold.Chemscore.Hbonds>
donor molecule, donor type, donor heavy atom, donor atom, acceptor molecule, acceptor atom, score
      P1  H  6896  6907       L1    20  0.12
      P1  H  6896  6908       L1     7  0.71

> <Gold.Chemscore.Hbond.Weighted>
-4.5595

> <Gold.Chemscore.Metal.Weighted>
-0.0000

> <Gold.Chemscore.Lipo.Weighted>
-10.8654

> <Gold.Chemscore.Internal_Hbond.Weighted>
0.0000

> <Gold.Chemscore.DEClash.Weighted>
0.0310

> <Gold.Chemscore.DEInternal.Weighted>
1.4307

> <Gold.Chemscore.Rot.Weighted>
3.9612

> <Gold.Chemscore.Internal.Correction.Weighted>
   9.000000E+99

> <Gold.Protein.RotatedTorsions>
[ 6907 6896 6895 6894 ] final -120.78 input  -60.11 | X-H torsion
[ 7974 7965 7964 7962 ] final  148.51 input  175.53 | X-H torsion
[ 8008 7997 7996 7995 ] final   43.62 input   59.86 | X-H torsion
[ 10167 10162 10161 10158 ] final  105.58 input  -65.29 | X-H torsion
[ 10718 10713 10712 10709 ] final -138.96 input   66.30 | X-H torsion
[ 10763 10752 10751 10750 ] final    2.04 input  -60.55 | X-H torsion
[ 11005 11000 10999 10996 ] final -121.38 input  -57.11 | X-H torsion

> <Gold.Protein.ActiveResidues>
 VAL166  LYS551  ARG553  GLY616  TRP617  ASP618  TYR619  PRO620  LYS621  CYS622 
 ASP623  PHE694  ASN695  SER759  ASP760  ASP761  ALA762  ILE779  LEU786  VAL792 
 PHE793  MET794  SER795  GLU796  ALA797  LYS798  CYS799  TRP800  GLU811  SER814 

> <Gold.Protein.RotatedAtoms>
  150.8424  133.7915  159.3055 H   0  0  0  0  0  0  0  0  0  0  0  0  # atno 6907 bound_to 6896
  151.5612  135.1064  159.9982 H   0  0  0  0  0  0  0  0  0  0  0  0  # atno 6908 bound_to 6896
  152.4485  133.7540  159.6766 H   0  0  0  0  0  0  0  0  0  0  0  0  # atno 6909 bound_to 6896
  144.8509  139.6162  143.5974 H   0  0  0  0  0  0  0  0  0  0  0  0  # atno 7974 bound_to 7965
  155.3057  140.3388  155.4246 H   0  0  0  0  0  0  0  0  0  0  0  0  # atno 8008 bound_to 7997
  156.1980  140.1722  156.7997 H   0  0  0  0  0  0  0  0  0  0  0  0  # atno 8009 bound_to 7997
  154.5523  140.0703  156.8671 H   0  0  0  0  0  0  0  0  0  0  0  0  # atno 8010 bound_to 7997
  139.7081  144.7082  151.1073 H   0  0  0  0  0  0  0  0  0  0  0  0  # atno 10167 bound_to 10162
  156.3053  130.7451  151.1514 H   0  0  0  0  0  0  0  0  0  0  0  0  # atno 10718 bound_to 10713
  153.3005  135.6955  153.7208 H   0  0  0  0  0  0  0  0  0  0  0  0  # atno 10763 bound_to 10752
  153.6124  135.3442  155.2984 H   0  0  0  0  0  0  0  0  0  0  0  0  # atno 10764 bound_to 10752
  154.8549  135.4366  154.2114 H   0  0  0  0  0  0  0  0  0  0  0  0  # atno 10765 bound_to 10752
  141.0074  134.0314  157.3459 H   0  0  0  0  0  0  0  0  0  0  0  0  # atno 11005 bound_to 11000
  146.2783  139.6811  142.9247 LP  0  0  0  0  0  0  0  0  0  0  0  0  # atno 17320 bound_to 7965
  145.4503  141.0428  143.2808 LP  0  0  0  0  0  0  0  0  0  0  0  0  # atno 17321 bound_to 7965
  140.7726  143.5331  150.9400 LP  0  0  0  0  0  0  0  0  0  0  0  0  # atno 17342 bound_to 10162
  139.9015  143.6830  152.3130 LP  0  0  0  0  0  0  0  0  0  0  0  0  # atno 17343 bound_to 10162
  157.7378  131.0548  150.5333 LP  0  0  0  0  0  0  0  0  0  0  0  0  # atno 17370 bound_to 10713
  156.5466  130.4221  149.6128 LP  0  0  0  0  0  0  0  0  0  0  0  0  # atno 17371 bound_to 10713
  139.9071  135.0182  156.7532 LP  0  0  0  0  0  0  0  0  0  0  0  0  # atno 17394 bound_to 11000
  140.6790  133.9491  155.7899 LP  0  0  0  0  0  0  0  0  0  0  0  0  # atno 17395 bound_to 11000

$$$$
