AV-unprocessed.smi:532|AV-procd|sdf|2851|dock3
  -GOLD-   2262023343D 1   1.00000     0.00000
 Structure written by MMmdl.
 48 50  0  0  0  0  0  0  0  0  2 V2000
  149.1268  141.1193  155.0644 C   0  0  0  0  0  0  0  0  0  0  0  0
  150.5132  141.1941  155.3405 O   0  0  0  0  0  0  0  0  0  0  0  0
  150.8057  142.0154  156.4580 C   0  0  0  0  0  0  0  0  0  0  0  0
  150.4887  141.2636  157.7600 C   0  0  0  0  0  0  0  0  0  0  0  0
  151.5246  140.2977  158.1193 N   0  0  0  0  0  0  0  0  0  0  0  0
  152.5781  140.4765  158.9568 C   0  0  0  0  0  0  0  0  0  0  0  0
  152.7887  141.6909  159.6015 N   0  0  0  0  0  0  0  0  0  0  0  0
  152.6192  142.9952  158.9689 C   0  0  0  0  0  0  0  0  0  0  0  0
  151.7916  143.9513  159.8491 C   0  0  2  0  0  0  0  0  0  0  0  0
  151.5804  145.3055  159.1598 C   0  0  0  0  0  0  0  0  0  0  0  0
  152.4659  144.1083  161.2229 C   0  0  0  0  0  0  0  0  0  0  0  0
  152.7218  142.7301  161.8586 C   0  0  2  0  0  0  0  0  0  0  0  0
  153.4594  142.8543  163.1984 C   0  0  0  0  0  0  0  0  0  0  0  0
  153.4913  141.8278  160.8734 C   0  0  0  0  0  0  0  0  0  0  0  0
  153.3627  139.4097  159.1131 N   0  0  0  0  0  0  0  0  0  0  0  0
  152.7552  138.4643  158.2986 C   0  0  0  0  0  0  0  0  0  0  0  0
  151.6456  138.9714  157.6962 C   0  0  0  0  0  0  0  0  0  0  0  0
  150.7768  138.1983  156.7829 C   0  0  0  0  0  0  0  0  0  0  0  0
  149.7814  138.7078  156.2718 O   0  0  0  0  0  0  0  0  0  0  0  0
  151.2224  136.9135  156.6112 N   0  5  0  0  0  0  0  0  0  0  0  0
  152.3389  136.3577  157.1989 C   0  0  0  0  0  0  0  0  0  0  0  0
  152.6670  135.1883  156.9942 O   0  0  0  0  0  0  0  0  0  0  0  0
  153.1152  137.1139  158.0378 N   0  0  0  0  0  0  0  0  0  0  0  0
  154.3083  136.5499  158.6752 C   0  0  0  0  0  0  0  0  0  0  0  0
  148.9617  140.4709  154.2039 H   0  0  0  0  0  0  0  0  0  0  0  0
  148.7191  142.1030  154.8285 H   0  0  0  0  0  0  0  0  0  0  0  0
  148.5772  140.7046  155.9103 H   0  0  0  0  0  0  0  0  0  0  0  0
  151.8597  142.2963  156.4478 H   0  0  0  0  0  0  0  0  0  0  0  0
  150.2249  142.9364  156.3976 H   0  0  0  0  0  0  0  0  0  0  0  0
  150.3569  141.9766  158.5726 H   0  0  0  0  0  0  0  0  0  0  0  0
  149.5359  140.7415  157.6756 H   0  0  0  0  0  0  0  0  0  0  0  0
  153.6027  143.4214  158.7668 H   0  0  0  0  0  0  0  0  0  0  0  0
  152.1373  142.8637  157.9999 H   0  0  0  0  0  0  0  0  0  0  0  0
  150.8081  143.5062  160.0054 H   0  0  0  0  0  0  0  0  0  0  0  0
  152.5304  145.8041  158.9645 H   0  0  0  0  0  0  0  0  0  0  0  0
  150.9749  145.9700  159.7767 H   0  0  0  0  0  0  0  0  0  0  0  0
  151.0666  145.1818  158.2063 H   0  0  0  0  0  0  0  0  0  0  0  0
  153.4109  144.6417  161.1091 H   0  0  0  0  0  0  0  0  0  0  0  0
  151.8418  144.7149  161.8801 H   0  0  0  0  0  0  0  0  0  0  0  0
  151.7554  142.2648  162.0585 H   0  0  0  0  0  0  0  0  0  0  0  0
  154.4418  143.3094  163.0693 H   0  0  0  0  0  0  0  0  0  0  0  0
  153.6033  141.8763  163.6583 H   0  0  0  0  0  0  0  0  0  0  0  0
  152.8959  143.4692  163.9005 H   0  0  0  0  0  0  0  0  0  0  0  0
  153.6299  140.8377  161.3096 H   0  0  0  0  0  0  0  0  0  0  0  0
  154.4886  142.2288  160.6878 H   0  0  0  0  0  0  0  0  0  0  0  0
  155.0019  136.1687  157.9242 H   0  0  0  0  0  0  0  0  0  0  0  0
  154.0329  135.7260  159.3350 H   0  0  0  0  0  0  0  0  0  0  0  0
  154.8505  137.2813  159.2740 H   0  0  0  0  0  0  0  0  0  0  0  0
  1  2  1  0  0  0  0
  1 25  1  0  0  0  0
  1 26  1  0  0  0  0
  1 27  1  0  0  0  0
  2  3  1  0  0  0  0
  3  4  1  0  0  0  0
  3 28  1  0  0  0  0
  3 29  1  0  0  0  0
  4  5  1  0  0  0  0
  4 30  1  0  0  0  0
  4 31  1  0  0  0  0
  5 17  1  0  0  0  0
  5  6  1  0  0  0  0
  6  7  1  0  0  0  0
  6 15  2  0  0  0  0
  7 14  1  0  0  0  0
  7  8  1  0  0  0  0
  8  9  1  0  0  0  0
  8 32  1  0  0  0  0
  8 33  1  0  0  0  0
  9 10  1  0  0  0  0
  9 11  1  0  0  0  0
  9 34  1  0  0  0  0
 10 35  1  0  0  0  0
 10 36  1  0  0  0  0
 10 37  1  0  0  0  0
 11 12  1  0  0  0  0
 11 38  1  0  0  0  0
 11 39  1  0  0  0  0
 12 13  1  0  0  0  0
 12 14  1  0  0  0  0
 12 40  1  0  0  0  0
 13 41  1  0  0  0  0
 13 42  1  0  0  0  0
 13 43  1  0  0  0  0
 14 44  1  0  0  0  0
 14 45  1  0  0  0  0
 15 16  1  0  0  0  0
 16 23  1  0  0  0  0
 16 17  2  0  0  0  0
 17 18  1  0  0  0  0
 18 19  2  0  0  0  0
 18 20  1  0  0  0  0
 20 21  1  0  0  0  0
 21 22  2  0  0  0  0
 21 23  1  0  0  0  0
 23 24  1  0  0  0  0
 24 46  1  0  0  0  0
 24 47  1  0  0  0  0
 24 48  1  0  0  0  0
M  CHG  1  20  -1
M  END
> <s_m_source_file>
AV-unprocessed.smi

> <i_m_source_file_index>
532

> <i_lp_mmshare_version>
43012

> <i_f3d_flags>
0

> <s_epik_input>
W0NIM11uMWMoPU8pW25IXWMoPU8pYyhjMTIpbihbQ0gyXVtDSDJdT1tDSDNdKWMobjIpTjNbQ0gyXVtDQEBIXShbQ0gzXSlbQ0gyXVtDQEBIXShbQ0gzXSlbQ0gyXTM=

> <s_epik_cmdline>
J2VwaWtfcHl0aG9uJywgJy1waCcsICc3LjAnLCAnLXRuJywgJzgnLCAnLW1hJywgJzIwMCcsICctbWV0YWxfYmluZGluZycsICctaW1hZScsICc8aW5maWxlLm1hZT4nLCAnLW9tYWUnLCAnPG91dGZpbGUubWFlPic=

> <r_lp_tautomer_probability>
1

> <r_epik_Ionization_Penalty>
5.12128

> <r_epik_Ionization_Penalty_Charging>
0.0789629

> <r_epik_Ionization_Penalty_Neutral>
5.04232

> <r_epik_State_Penalty>
5.03111

> <r_epik_Charging_Adjusted_Penalty>
5.11007

> <i_epik_Tot_Q>
-1

> <i_epik_Tot_abs_Q>
1

> <r_epik_Metal_State_Penalty>
1.14201

> <b_epik_Metal_Only>
1

> <s_lp_Force_Field>
OPLS_2005

> <r_lp_Energy>
42.9177

> <b_lp_Chiralities_Consistent>
1

> <s_lp_Variant>
AV-unprocessed.smi:532-4

> <Gold.Version>
5.8.1

> <Gold.Id.Protein>
6NUR|6NUR_protein|mol2

> <Gold.PLP.Fitness>
52.7373

> <Gold.PLP.PLP>
-49.2857

> <Gold.PLP.part.hbond>
-2.2409

> <Gold.PLP.part.metal>
0.0000

> <Gold.PLP.part.buried>
-6.2403

> <Gold.PLP.part.nonpolar>
-39.0078

> <Gold.PLP.part.repulsive>
0.0791

> <Gold.PLP.ligand.clash>
0.0072

> <Gold.PLP.ligand.torsion>
0.9776

> <Gold.PLP.Chemscore.Hbond>
1.4834

> <Gold.PLP.Chemscore.CHOScore>
0.0000

> <Gold.PLP.Chemscore.Metal>
0.0000

> <Gold.Chemscore.Hbonds>
donor molecule, donor type, donor heavy atom, donor atom, acceptor molecule, acceptor atom, score
      P1  H  7989  7998       L1     2  0.42
      P1  H 10752 10763       L1    22  0.95

> <Gold.PLP.Chemscore.Internal.Correction>
0.9639

> <Gold.Rescore>
     Score         DG    S(hbond)    S(metal)    S(lipo)     H(rot)  DE(clash)    DE(int)     intcor
     13.75     -17.25       0.81        0.00     108.47       1.41       0.05       3.45       ----

> <Gold.Chemscore.Fitness>
13.7536

> <Gold.Chemscore.DG>
-17.2521

> <Gold.Chemscore.ZeroCoef>
-5.4800

> <Gold.Chemscore.Hbond>
0.8093

> <Gold.Chemscore.Metal>
0.0000

> <Gold.Chemscore.Lipo>
108.4668

> <Gold.Chemscore.Internal_Hbond>
0.0000

> <Gold.Chemscore.DEClash>
0.0451

> <Gold.Chemscore.DEInternal>
3.4535

> <Gold.Chemscore.Rot>
1.4147

> <Gold.Chemscore.Internal.Correction>
   9.000000E+99

> <Gold.Chemscore.Hbonds>
donor molecule, donor type, donor heavy atom, donor atom, acceptor molecule, acceptor atom, score
      P1  H  7989  7998       L1     2  0.29
      P1  H 10752 10763       L1    22  0.21

> <Gold.Chemscore.Hbond.Weighted>
-2.7031

> <Gold.Chemscore.Metal.Weighted>
-0.0000

> <Gold.Chemscore.Lipo.Weighted>
-12.6906

> <Gold.Chemscore.Internal_Hbond.Weighted>
0.0000

> <Gold.Chemscore.DEClash.Weighted>
0.0451

> <Gold.Chemscore.DEInternal.Weighted>
3.4535

> <Gold.Chemscore.Rot.Weighted>
3.6216

> <Gold.Chemscore.Internal.Correction.Weighted>
   9.000000E+99

> <Gold.Protein.RotatedTorsions>
[ 6907 6896 6895 6894 ] final  -84.17 input  -60.11 | X-H torsion
[ 7974 7965 7964 7962 ] final -104.62 input  175.53 | X-H torsion
[ 8008 7997 7996 7995 ] final  140.50 input   59.86 | X-H torsion
[ 10167 10162 10161 10158 ] final -128.79 input  -65.29 | X-H torsion
[ 10718 10713 10712 10709 ] final   58.72 input   66.30 | X-H torsion
[ 10763 10752 10751 10750 ] final  109.51 input  -60.55 | X-H torsion
[ 11005 11000 10999 10996 ] final  -66.87 input  -57.11 | X-H torsion

> <Gold.Protein.ActiveResidues>
 VAL166  LYS551  ARG553  GLY616  TRP617  ASP618  TYR619  PRO620  LYS621  CYS622 
 ASP623  PHE694  ASN695  SER759  ASP760  ASP761  ALA762  ILE779  LEU786  VAL792 
 PHE793  MET794  SER795  GLU796  ALA797  LYS798  CYS799  TRP800  GLU811  SER814 

> <Gold.Protein.RotatedAtoms>
  150.6879  134.3399  159.4863 H   0  0  0  0  0  0  0  0  0  0  0  0  # atno 6907 bound_to 6896
  152.1254  134.9172  160.0570 H   0  0  0  0  0  0  0  0  0  0  0  0  # atno 6908 bound_to 6896
  152.0362  133.3923  159.4355 H   0  0  0  0  0  0  0  0  0  0  0  0  # atno 6909 bound_to 6896
  145.2408  140.9204  143.3151 H   0  0  0  0  0  0  0  0  0  0  0  0  # atno 7974 bound_to 7965
  156.2978  140.2340  156.4412 H   0  0  0  0  0  0  0  0  0  0  0  0  # atno 8008 bound_to 7997
  154.8184  140.0439  157.1414 H   0  0  0  0  0  0  0  0  0  0  0  0  # atno 8009 bound_to 7997
  154.9343  140.3021  155.5156 H   0  0  0  0  0  0  0  0  0  0  0  0  # atno 8010 bound_to 7997
  139.9466  143.6103  152.2488 H   0  0  0  0  0  0  0  0  0  0  0  0  # atno 10167 bound_to 10162
  157.5618  130.8841  149.9124 H   0  0  0  0  0  0  0  0  0  0  0  0  # atno 10718 bound_to 10713
  153.4358  135.3778  155.2198 H   0  0  0  0  0  0  0  0  0  0  0  0  # atno 10763 bound_to 10752
  154.8752  135.3851  154.4213 H   0  0  0  0  0  0  0  0  0  0  0  0  # atno 10764 bound_to 10752
  153.4752  135.7087  153.6033 H   0  0  0  0  0  0  0  0  0  0  0  0  # atno 10765 bound_to 10752
  141.1493  133.6707  156.6205 H   0  0  0  0  0  0  0  0  0  0  0  0  # atno 11005 bound_to 11000
  144.9591  139.3999  143.6365 LP  0  0  0  0  0  0  0  0  0  0  0  0  # atno 17320 bound_to 7965
  146.3329  139.8635  142.8852 LP  0  0  0  0  0  0  0  0  0  0  0  0  # atno 17321 bound_to 7965
  139.6662  144.7662  151.1869 LP  0  0  0  0  0  0  0  0  0  0  0  0  # atno 17342 bound_to 10162
  140.7595  143.5935  150.8772 LP  0  0  0  0  0  0  0  0  0  0  0  0  # atno 17343 bound_to 10162
  156.0670  130.3690  150.0856 LP  0  0  0  0  0  0  0  0  0  0  0  0  # atno 17370 bound_to 10713
  156.9019  130.9623  151.3575 LP  0  0  0  0  0  0  0  0  0  0  0  0  # atno 17371 bound_to 10713
  140.3544  134.7741  157.4490 LP  0  0  0  0  0  0  0  0  0  0  0  0  # atno 17394 bound_to 11000
  140.0835  134.5699  155.8516 LP  0  0  0  0  0  0  0  0  0  0  0  0  # atno 17395 bound_to 11000

$$$$
