AV-unprocessed.smi:2094|AV-procd|sdf|8553|dock6
  -GOLD-   2272011273D 1   1.00000     0.00000
 Structure written by MMmdl.
 35 36  0  0  0  0  0  0  0  0  3 V2000
  144.4036  136.3677  151.9609 O   0  0  0  0  0  0  0  0  0  0  0  0
  145.5985  136.0693  151.8954 C   0  0  0  0  0  0  0  0  0  0  0  0
  146.5274  137.0339  151.9184 N   0  0  0  0  0  0  0  0  0  0  0  0
  146.2481  138.4598  152.0122 C   0  0  0  0  0  0  0  0  0  0  0  0
  146.9752  139.0701  153.2202 C   0  0  0  0  0  0  0  0  0  0  0  0
  146.2965  140.2889  153.7276 N   0  3  0  0  0  0  0  0  0  0  0  0
  147.1005  141.5177  153.4972 C   0  0  0  0  0  0  0  0  0  0  0  0
  146.3186  142.7797  153.9007 C   0  0  0  0  0  0  0  0  0  0  0  0
  145.8570  142.6976  155.3616 C   0  0  0  0  0  0  0  0  0  0  0  0
  145.0593  141.4067  155.5859 C   0  0  0  0  0  0  0  0  0  0  0  0
  145.8691  140.1743  155.1482 C   0  0  0  0  0  0  0  0  0  0  0  0
  146.1120  134.8227  151.7982 N   0  5  0  0  0  0  0  0  0  0  0  0
  145.3518  133.8186  151.3316 C   0  0  0  0  0  0  0  0  0  0  0  0
  144.0393  133.9429  151.1037 N   0  0  0  0  0  0  0  0  0  0  0  0
  143.4475  132.7761  150.6164 C   0  0  0  0  0  0  0  0  0  0  0  0
  144.3320  131.7419  150.4613 C   0  0  0  0  0  0  0  0  0  0  0  0
  145.9441  132.2054  150.9258 S   0  0  0  0  0  0  0  0  0  0  0  0
  147.4949  136.7512  151.8623 H   0  0  0  0  0  0  0  0  0  0  0  0
  146.5709  138.9522  151.0934 H   0  0  0  0  0  0  0  0  0  0  0  0
  145.1696  138.5957  152.0916 H   0  0  0  0  0  0  0  0  0  0  0  0
  147.0771  138.3392  154.0242 H   0  0  0  0  0  0  0  0  0  0  0  0
  147.9885  139.3267  152.9068 H   0  0  0  0  0  0  0  0  0  0  0  0
  148.0329  141.4548  154.0605 H   0  0  0  0  0  0  0  0  0  0  0  0
  147.3708  141.5900  152.4429 H   0  0  0  0  0  0  0  0  0  0  0  0
  146.9383  143.6652  153.7554 H   0  0  0  0  0  0  0  0  0  0  0  0
  145.4522  142.8977  153.2486 H   0  0  0  0  0  0  0  0  0  0  0  0
  146.7230  142.7165  156.0248 H   0  0  0  0  0  0  0  0  0  0  0  0
  145.2492  143.5667  155.6154 H   0  0  0  0  0  0  0  0  0  0  0  0
  144.7833  141.3175  156.6370 H   0  0  0  0  0  0  0  0  0  0  0  0
  144.1254  141.4495  155.0239 H   0  0  0  0  0  0  0  0  0  0  0  0
  145.2573  139.2845  155.2913 H   0  0  0  0  0  0  0  0  0  0  0  0
  146.7476  140.0580  155.7851 H   0  0  0  0  0  0  0  0  0  0  0  0
  142.3885  132.7716  150.4060 H   0  0  0  0  0  0  0  0  0  0  0  0
  144.1359  130.7424  150.1044 H   0  0  0  0  0  0  0  0  0  0  0  0
  145.4577  140.3950  153.1751 H   0  0  0  0  0  0  0  0  0  0  0  0
  1  2  2  0  0  0  0
  2  3  1  0  0  0  0
  2 12  1  0  0  0  0
  3  4  1  0  0  0  0
  3 18  1  0  0  0  0
  4  5  1  0  0  0  0
  4 19  1  0  0  0  0
  4 20  1  0  0  0  0
  5  6  1  0  0  0  0
  5 21  1  0  0  0  0
  5 22  1  0  0  0  0
  6 11  1  0  0  0  0
  6  7  1  0  0  0  0
  6 35  1  0  0  0  0
  7  8  1  0  0  0  0
  7 23  1  0  0  0  0
  7 24  1  0  0  0  0
  8  9  1  0  0  0  0
  8 25  1  0  0  0  0
  8 26  1  0  0  0  0
  9 10  1  0  0  0  0
  9 27  1  0  0  0  0
  9 28  1  0  0  0  0
 10 11  1  0  0  0  0
 10 29  1  0  0  0  0
 10 30  1  0  0  0  0
 11 31  1  0  0  0  0
 11 32  1  0  0  0  0
 12 13  1  0  0  0  0
 13 17  1  0  0  0  0
 13 14  2  0  0  0  0
 14 15  1  0  0  0  0
 15 16  2  0  0  0  0
 15 33  1  0  0  0  0
 16 17  1  0  0  0  0
 16 34  1  0  0  0  0
M  CHG  1   6   1
M  CHG  1  12  -1
M  END
> <s_m_source_file>
AV-unprocessed.smi

> <i_m_source_file_index>
2094

> <i_lp_mmshare_version>
43012

> <i_f3d_flags>
0

> <s_epik_input>
czFbY0hdW2NIXW5jMVtOSF1DKD1PKVtOSF1bQ0gyXVtDSDJdTjJbQ0gyXVtDSDJdW0NIMl1bQ0gyXVtDSDJdMg==

> <s_epik_cmdline>
J2VwaWtfcHl0aG9uJywgJy1waCcsICc3LjAnLCAnLXRuJywgJzgnLCAnLW1hJywgJzIwMCcsICctbWV0YWxfYmluZGluZycsICctaW1hZScsICc8aW5maWxlLm1hZT4nLCAnLW9tYWUnLCAnPG91dGZpbGUubWFlPic=

> <r_lp_tautomer_probability>
0.999

> <r_epik_Ionization_Penalty>
6.21931

> <r_epik_Ionization_Penalty_Charging>
5.38824

> <r_epik_Ionization_Penalty_Neutral>
0.831074

> <r_epik_State_Penalty>
5.38819

> <r_epik_Charging_Adjusted_Penalty>
10.7764

> <i_epik_Tot_Q>
0

> <i_epik_Tot_abs_Q>
2

> <r_epik_Metal_State_Penalty>
1.41404

> <b_epik_Metal_Only>
1

> <s_lp_Force_Field>
OPLS_2005

> <r_lp_Energy>
7.37815

> <b_lp_Chiralities_Consistent>
1

> <s_lp_Variant>
AV-unprocessed.smi:2094-2

> <Gold.Version>
5.8.1

> <Gold.Id.Protein>
6NUR|6NUR_protein|mol2

> <Gold.PLP.Fitness>
40.2255

> <Gold.PLP.PLP>
-30.1930

> <Gold.PLP.part.hbond>
-2.0000

> <Gold.PLP.part.metal>
0.0000

> <Gold.PLP.part.buried>
-5.6708

> <Gold.PLP.part.nonpolar>
-24.5758

> <Gold.PLP.part.repulsive>
0.5497

> <Gold.PLP.ligand.clash>
0.0000

> <Gold.PLP.ligand.torsion>
1.0098

> <Gold.PLP.Chemscore.Hbond>
3.0000

> <Gold.PLP.Chemscore.CHOScore>
1.0000

> <Gold.PLP.Chemscore.Metal>
0.0000

> <Gold.Chemscore.Hbonds>
donor molecule, donor type, donor heavy atom, donor atom, acceptor molecule, acceptor atom, score
      L1  H     3    18       P1  7948  0.99
      L1  H     6    35       P1 10175  2.00
      L1  C    15    33       P1 10186  1.00

> <Gold.PLP.Chemscore.Internal.Correction>
0.0521

> <Gold.Rescore>
     Score         DG    S(hbond)    S(metal)    S(lipo)     H(rot)  DE(clash)    DE(int)     intcor
     13.16     -15.88       1.99        0.00      66.75       1.58       0.05       2.67       ----

> <Gold.Chemscore.Fitness>
13.1623

> <Gold.Chemscore.DG>
-15.8770

> <Gold.Chemscore.ZeroCoef>
-5.4800

> <Gold.Chemscore.Hbond>
1.9866

> <Gold.Chemscore.Metal>
0.0000

> <Gold.Chemscore.Lipo>
66.7490

> <Gold.Chemscore.Internal_Hbond>
0.0000

> <Gold.Chemscore.DEClash>
0.0479

> <Gold.Chemscore.DEInternal>
2.6668

> <Gold.Chemscore.Rot>
1.5812

> <Gold.Chemscore.Internal.Correction>
   9.000000E+99

> <Gold.Chemscore.Hbonds>
donor molecule, donor type, donor heavy atom, donor atom, acceptor molecule, acceptor atom, score
      L1  H     3    18       P1  7948  0.92
      L1  H     6    35       P1 10175  0.97

> <Gold.Chemscore.Hbond.Weighted>
-6.6351

> <Gold.Chemscore.Metal.Weighted>
-0.0000

> <Gold.Chemscore.Lipo.Weighted>
-7.8096

> <Gold.Chemscore.Internal_Hbond.Weighted>
0.0000

> <Gold.Chemscore.DEClash.Weighted>
0.0479

> <Gold.Chemscore.DEInternal.Weighted>
2.6668

> <Gold.Chemscore.Rot.Weighted>
4.0478

> <Gold.Chemscore.Internal.Correction.Weighted>
   9.000000E+99

> <Gold.Protein.RotatedTorsions>
[ 6907 6896 6895 6894 ] final -104.14 input  -60.11 | X-H torsion
[ 7974 7965 7964 7962 ] final  102.89 input  175.53 | X-H torsion
[ 8008 7997 7996 7995 ] final -129.08 input   59.86 | X-H torsion
[ 10167 10162 10161 10158 ] final -104.46 input  -65.29 | X-H torsion
[ 10718 10713 10712 10709 ] final   52.64 input   66.30 | X-H torsion
[ 10763 10752 10751 10750 ] final   56.01 input  -60.55 | X-H torsion
[ 11005 11000 10999 10996 ] final   88.89 input  -57.11 | X-H torsion

> <Gold.Protein.ActiveResidues>
 VAL166  LYS551  ARG553  GLY616  TRP617  ASP618  TYR619  PRO620  LYS621  CYS622 
 ASP623  PHE694  ASN695  SER759  ASP760  ASP761  ALA762  ILE779  LEU786  VAL792 
 PHE793  MET794  SER795  GLU796  ALA797  LYS798  CYS799  TRP800  GLU811  SER814 

> <Gold.Protein.RotatedAtoms>
  150.7273  134.0322  159.3737 H   0  0  0  0  0  0  0  0  0  0  0  0  # atno 6907 bound_to 6896
  151.8292  135.0625  160.0444 H   0  0  0  0  0  0  0  0  0  0  0  0  # atno 6908 bound_to 6896
  152.2946  133.5559  159.5615 H   0  0  0  0  0  0  0  0  0  0  0  0  # atno 6909 bound_to 6896
  145.3532  139.2434  143.3547 H   0  0  0  0  0  0  0  0  0  0  0  0  # atno 7974 bound_to 7965
  155.2733  140.0441  157.3009 H   0  0  0  0  0  0  0  0  0  0  0  0  # atno 8008 bound_to 7997
  154.5640  140.2354  155.8260 H   0  0  0  0  0  0  0  0  0  0  0  0  # atno 8009 bound_to 7997
  156.2070  140.3009  155.9657 H   0  0  0  0  0  0  0  0  0  0  0  0  # atno 8010 bound_to 7997
  140.2090  143.3761  152.1066 H   0  0  0  0  0  0  0  0  0  0  0  0  # atno 10167 bound_to 10162
  157.5094  130.8490  149.8415 H   0  0  0  0  0  0  0  0  0  0  0  0  # atno 10718 bound_to 10713
  152.9825  135.5691  154.5159 H   0  0  0  0  0  0  0  0  0  0  0  0  # atno 10763 bound_to 10752
  154.4655  135.2783  155.1683 H   0  0  0  0  0  0  0  0  0  0  0  0  # atno 10764 bound_to 10752
  154.3253  135.6260  153.5579 H   0  0  0  0  0  0  0  0  0  0  0  0  # atno 10765 bound_to 10752
  139.8887  134.8517  156.3064 H   0  0  0  0  0  0  0  0  0  0  0  0  # atno 11005 bound_to 11000
  146.2959  140.4152  142.8722 LP  0  0  0  0  0  0  0  0  0  0  0  0  # atno 17320 bound_to 7965
  144.8702  140.7262  143.6052 LP  0  0  0  0  0  0  0  0  0  0  0  0  # atno 17321 bound_to 7965
  139.5187  144.7010  151.5494 LP  0  0  0  0  0  0  0  0  0  0  0  0  # atno 17342 bound_to 10162
  140.6337  143.9026  150.6628 LP  0  0  0  0  0  0  0  0  0  0  0  0  # atno 17343 bound_to 10162
  156.0279  130.3773  150.1771 LP  0  0  0  0  0  0  0  0  0  0  0  0  # atno 17370 bound_to 10713
  156.9960  130.9908  151.3403 LP  0  0  0  0  0  0  0  0  0  0  0  0  # atno 17371 bound_to 10713
  140.9879  133.7227  156.0769 LP  0  0  0  0  0  0  0  0  0  0  0  0  # atno 17394 bound_to 11000
  140.7664  134.3882  157.5516 LP  0  0  0  0  0  0  0  0  0  0  0  0  # atno 17395 bound_to 11000

$$$$
