AV-unprocessed.smi:492|AV-procd|sdf|2711|dock4
  -GOLD-   2262023153D 1   1.00000     0.00000
 Structure written by MMmdl.
 47 49  0  0  0  0  0  0  0  0  2 V2000
  156.4260  134.7846  164.9082 C   0  0  0  0  0  0  0  0  0  0  0  0
  155.1589  135.3625  164.6305 O   0  0  0  0  0  0  0  0  0  0  0  0
  154.8688  135.6919  163.3238 C   0  0  0  0  0  0  0  0  0  0  0  0
  153.9718  136.7598  163.1157 C   0  0  0  0  0  0  0  0  0  0  0  0
  153.6192  137.1635  161.8135 C   0  0  0  0  0  0  0  0  0  0  0  0
  154.1577  136.4961  160.6953 C   0  0  0  0  0  0  0  0  0  0  0  0
  153.7922  136.9381  159.2915 C   0  0  0  0  0  0  0  0  0  0  0  0
  152.4050  136.7902  159.0380 O   0  0  0  0  0  0  0  0  0  0  0  0
  152.0248  137.2508  157.7512 C   0  0  0  0  0  0  0  0  0  0  0  0
  152.0953  138.7855  157.6958 C   0  0  1  0  0  0  0  0  0  0  0  0
  152.9663  139.1770  156.6538 O   0  0  0  0  0  0  0  0  0  0  0  0
  150.7167  139.4657  157.5631 C   0  0  0  0  0  0  0  0  0  0  0  0
  150.8148  140.9229  157.3917 N   0  0  0  0  0  0  0  0  0  0  0  0
  150.3120  141.7330  156.4166 C   0  0  0  0  0  0  0  0  0  0  0  0
  149.5005  141.3119  155.2376 C   0  0  0  0  0  0  0  0  0  0  0  0
  150.6888  143.0081  156.7175 N   0  3  0  0  0  0  0  0  0  0  0  0
  151.4347  143.0141  157.8975 C   0  0  0  0  0  0  0  0  0  0  0  0
  152.0295  144.0606  158.5960 C   0  0  0  0  0  0  0  0  0  0  0  0
  152.7222  143.7201  159.7765 C   0  0  0  0  0  0  0  0  0  0  0  0
  152.8037  142.3844  160.2215 C   0  0  0  0  0  0  0  0  0  0  0  0
  152.1974  141.3317  159.5047 C   0  0  0  0  0  0  0  0  0  0  0  0
  151.5160  141.6771  158.3381 C   0  0  0  0  0  0  0  0  0  0  0  0
  155.0627  135.4333  160.8922 C   0  0  0  0  0  0  0  0  0  0  0  0
  155.4148  135.0302  162.1950 C   0  0  0  0  0  0  0  0  0  0  0  0
  156.5026  134.5828  165.9764 H   0  0  0  0  0  0  0  0  0  0  0  0
  157.2395  135.4609  164.6417 H   0  0  0  0  0  0  0  0  0  0  0  0
  156.5566  133.8372  164.3835 H   0  0  0  0  0  0  0  0  0  0  0  0
  153.5499  137.2773  163.9646 H   0  0  0  0  0  0  0  0  0  0  0  0
  152.9329  137.9864  161.6785 H   0  0  0  0  0  0  0  0  0  0  0  0
  154.0818  137.9806  159.1490 H   0  0  0  0  0  0  0  0  0  0  0  0
  154.3666  136.3400  158.5825 H   0  0  0  0  0  0  0  0  0  0  0  0
  152.7116  136.8350  157.0122 H   0  0  0  0  0  0  0  0  0  0  0  0
  151.0239  136.9010  157.4919 H   0  0  0  0  0  0  0  0  0  0  0  0
  152.5664  139.1245  158.6187 H   0  0  0  0  0  0  0  0  0  0  0  0
  153.2756  138.3998  156.2146 H   0  0  0  0  0  0  0  0  0  0  0  0
  150.1757  139.0718  156.7021 H   0  0  0  0  0  0  0  0  0  0  0  0
  150.0946  139.2600  158.4351 H   0  0  0  0  0  0  0  0  0  0  0  0
  149.3558  142.1479  154.5530 H   0  0  0  0  0  0  0  0  0  0  0  0
  148.5230  140.9559  155.5633 H   0  0  0  0  0  0  0  0  0  0  0  0
  150.0024  140.5071  154.7000 H   0  0  0  0  0  0  0  0  0  0  0  0
  151.9681  145.0847  158.2580 H   0  0  0  0  0  0  0  0  0  0  0  0
  153.2004  144.4992  160.3525 H   0  0  0  0  0  0  0  0  0  0  0  0
  153.3426  142.1623  161.1312 H   0  0  0  0  0  0  0  0  0  0  0  0
  152.2653  140.3116  159.8532 H   0  0  0  0  0  0  0  0  0  0  0  0
  155.4916  134.9222  160.0426 H   0  0  0  0  0  0  0  0  0  0  0  0
  156.1085  134.2101  162.3016 H   0  0  0  0  0  0  0  0  0  0  0  0
  150.4499  143.8147  156.1551 H   0  0  0  0  0  0  0  0  0  0  0  0
  1  2  1  0  0  0  0
  1 25  1  0  0  0  0
  1 26  1  0  0  0  0
  1 27  1  0  0  0  0
  2  3  1  0  0  0  0
  3 24  1  0  0  0  0
  3  4  2  0  0  0  0
  4  5  1  0  0  0  0
  4 28  1  0  0  0  0
  5  6  2  0  0  0  0
  5 29  1  0  0  0  0
  6  7  1  0  0  0  0
  6 23  1  0  0  0  0
  7  8  1  0  0  0  0
  7 30  1  0  0  0  0
  7 31  1  0  0  0  0
  8  9  1  0  0  0  0
  9 10  1  0  0  0  0
  9 32  1  0  0  0  0
  9 33  1  0  0  0  0
 10 11  1  0  0  0  0
 10 12  1  0  0  0  0
 10 34  1  0  0  0  0
 11 35  1  0  0  0  0
 12 13  1  0  0  0  0
 12 36  1  0  0  0  0
 12 37  1  0  0  0  0
 13 22  1  0  0  0  0
 13 14  1  0  0  0  0
 14 15  1  0  0  0  0
 14 16  2  0  0  0  0
 15 38  1  0  0  0  0
 15 39  1  0  0  0  0
 15 40  1  0  0  0  0
 16 17  1  0  0  0  0
 16 47  1  0  0  0  0
 17 22  2  0  0  0  0
 17 18  1  0  0  0  0
 18 19  2  0  0  0  0
 18 41  1  0  0  0  0
 19 20  1  0  0  0  0
 19 42  1  0  0  0  0
 20 21  2  0  0  0  0
 20 43  1  0  0  0  0
 21 22  1  0  0  0  0
 21 44  1  0  0  0  0
 23 24  2  0  0  0  0
 23 45  1  0  0  0  0
 24 46  1  0  0  0  0
M  CHG  1  16   1
M  END
> <s_m_source_file>
AV-unprocessed.smi

> <i_m_source_file_index>
492

> <i_lp_mmshare_version>
43012

> <i_f3d_flags>
0

> <s_epik_input>
W0NIM11PYzFbY0hdW2NIXWMoW2NIXVtjSF0xKVtDSDJdT1tDSDJdW0NASF0oW09IXSlbQ0gyXW4oYyhuMilbQ0gzXSljKGMyMylbY0hdW2NIXVtjSF1bY0hdMw==

> <s_epik_cmdline>
J2VwaWtfcHl0aG9uJywgJy1waCcsICc3LjAnLCAnLXRuJywgJzgnLCAnLW1hJywgJzIwMCcsICctbWV0YWxfYmluZGluZycsICctaW1hZScsICc8aW5maWxlLm1hZT4nLCAnLW9tYWUnLCAnPG91dGZpbGUubWFlPic=

> <r_lp_tautomer_probability>
1

> <r_epik_Ionization_Penalty>
0.952

> <r_epik_Ionization_Penalty_Charging>
0.951999

> <r_epik_Ionization_Penalty_Neutral>
9.7482e-07

> <r_epik_State_Penalty>
0.996343

> <r_epik_Charging_Adjusted_Penalty>
1.94834

> <i_epik_Tot_Q>
1

> <i_epik_Tot_abs_Q>
1

> <r_epik_Metal_State_Penalty>
4.96724

> <b_epik_Metal_Only>
0

> <s_lp_Force_Field>
OPLS_2005

> <r_lp_Energy>
22.9053

> <b_lp_Chiralities_Consistent>
1

> <s_lp_Variant>
AV-unprocessed.smi:492-4

> <Gold.Version>
5.8.1

> <Gold.Id.Protein>
6NUR|6NUR_protein|mol2

> <Gold.PLP.Fitness>
54.2802

> <Gold.PLP.PLP>
-46.0176

> <Gold.PLP.part.hbond>
-3.0000

> <Gold.PLP.part.metal>
0.0000

> <Gold.PLP.part.buried>
-6.8637

> <Gold.PLP.part.nonpolar>
-36.9629

> <Gold.PLP.part.repulsive>
0.1495

> <Gold.PLP.ligand.clash>
0.0000

> <Gold.PLP.ligand.torsion>
1.1921

> <Gold.PLP.Chemscore.Hbond>
3.4800

> <Gold.PLP.Chemscore.CHOScore>
0.0000

> <Gold.PLP.Chemscore.Metal>
0.0000

> <Gold.Chemscore.Hbonds>
donor molecule, donor type, donor heavy atom, donor atom, acceptor molecule, acceptor atom, score
      L1  H    16    47       P1  8028  1.50
      P1  H  6896  6908       L1     8  0.93
      P1  H  7997  8010       L1    11  0.95

> <Gold.PLP.Chemscore.Internal.Correction>
0.2069

> <Gold.Rescore>
     Score         DG    S(hbond)    S(metal)    S(lipo)     H(rot)  DE(clash)    DE(int)     intcor
     20.40     -21.67       2.51        0.00     121.44       2.50       0.03       1.24       ----

> <Gold.Chemscore.Fitness>
20.3965

> <Gold.Chemscore.DG>
-21.6671

> <Gold.Chemscore.ZeroCoef>
-5.4800

> <Gold.Chemscore.Hbond>
2.5116

> <Gold.Chemscore.Metal>
0.0000

> <Gold.Chemscore.Lipo>
121.4379

> <Gold.Chemscore.Internal_Hbond>
0.0000

> <Gold.Chemscore.DEClash>
0.0270

> <Gold.Chemscore.DEInternal>
1.2435

> <Gold.Chemscore.Rot>
2.5038

> <Gold.Chemscore.Internal.Correction>
   9.000000E+99

> <Gold.Chemscore.Hbonds>
donor molecule, donor type, donor heavy atom, donor atom, acceptor molecule, acceptor atom, score
      L1  H    16    47       P1  8028  0.76
      P1  H  6896  6908       L1     8  0.52
      P1  H  7997  8010       L1    11  0.22

> <Gold.Chemscore.Hbond.Weighted>
-8.3886

> <Gold.Chemscore.Metal.Weighted>
-0.0000

> <Gold.Chemscore.Lipo.Weighted>
-14.2082

> <Gold.Chemscore.Internal_Hbond.Weighted>
0.0000

> <Gold.Chemscore.DEClash.Weighted>
0.0270

> <Gold.Chemscore.DEInternal.Weighted>
1.2435

> <Gold.Chemscore.Rot.Weighted>
6.4098

> <Gold.Chemscore.Internal.Correction.Weighted>
   9.000000E+99

> <Gold.Protein.RotatedTorsions>
[ 6907 6896 6895 6894 ] final -107.18 input  -60.11 | X-H torsion
[ 7974 7965 7964 7962 ] final   87.08 input  175.53 | X-H torsion
[ 8008 7997 7996 7995 ] final   61.11 input   59.86 | X-H torsion
[ 10167 10162 10161 10158 ] final -162.12 input  -65.29 | X-H torsion
[ 10718 10713 10712 10709 ] final   50.17 input   66.30 | X-H torsion
[ 10763 10752 10751 10750 ] final   99.56 input  -60.55 | X-H torsion
[ 11005 11000 10999 10996 ] final  166.80 input  -57.11 | X-H torsion

> <Gold.Protein.ActiveResidues>
 VAL166  LYS551  ARG553  GLY616  TRP617  ASP618  TYR619  PRO620  LYS621  CYS622 
 ASP623  PHE694  ASN695  SER759  ASP760  ASP761  ALA762  ILE779  LEU786  VAL792 
 PHE793  MET794  SER795  GLU796  ALA797  LYS798  CYS799  TRP800  GLU811  SER814 

> <Gold.Protein.RotatedAtoms>
  150.7430  133.9865  159.3592 H   0  0  0  0  0  0  0  0  0  0  0  0  # atno 6907 bound_to 6896
  151.7810  135.0759  160.0383 H   0  0  0  0  0  0  0  0  0  0  0  0  # atno 6908 bound_to 6896
  152.3274  133.5883  159.5822 H   0  0  0  0  0  0  0  0  0  0  0  0  # atno 6909 bound_to 6896
  145.5638  139.2306  143.2445 H   0  0  0  0  0  0  0  0  0  0  0  0  # atno 7974 bound_to 7965
  155.5931  140.3493  155.4572 H   0  0  0  0  0  0  0  0  0  0  0  0  # atno 8008 bound_to 7997
  156.0286  140.1269  157.0307 H   0  0  0  0  0  0  0  0  0  0  0  0  # atno 8009 bound_to 7997
  154.4343  140.1048  156.6053 H   0  0  0  0  0  0  0  0  0  0  0  0  # atno 8010 bound_to 7997
  139.6415  144.0251  152.2095 H   0  0  0  0  0  0  0  0  0  0  0  0  # atno 10167 bound_to 10162
  157.4858  130.8344  149.8146 H   0  0  0  0  0  0  0  0  0  0  0  0  # atno 10718 bound_to 10713
  153.3029  135.4109  155.1268 H   0  0  0  0  0  0  0  0  0  0  0  0  # atno 10763 bound_to 10752
  154.8554  135.3546  154.5827 H   0  0  0  0  0  0  0  0  0  0  0  0  # atno 10764 bound_to 10752
  153.6253  135.7063  153.5353 H   0  0  0  0  0  0  0  0  0  0  0  0  # atno 10765 bound_to 10752
  140.2702  134.7833  157.3668 H   0  0  0  0  0  0  0  0  0  0  0  0  # atno 11005 bound_to 11000
  146.1833  140.6463  142.9179 LP  0  0  0  0  0  0  0  0  0  0  0  0  # atno 17320 bound_to 7965
  144.7470  140.5094  143.6828 LP  0  0  0  0  0  0  0  0  0  0  0  0  # atno 17321 bound_to 7965
  139.9941  144.6340  150.7788 LP  0  0  0  0  0  0  0  0  0  0  0  0  # atno 17342 bound_to 10162
  140.7493  143.2937  151.3263 LP  0  0  0  0  0  0  0  0  0  0  0  0  # atno 17343 bound_to 10162
  156.0146  130.3819  150.2152 LP  0  0  0  0  0  0  0  0  0  0  0  0  # atno 17370 bound_to 10713
  157.0339  131.0015  151.3304 LP  0  0  0  0  0  0  0  0  0  0  0  0  # atno 17371 bound_to 10713
  140.1380  134.5008  155.8053 LP  0  0  0  0  0  0  0  0  0  0  0  0  # atno 17394 bound_to 11000
  141.2178  133.6815  156.7160 LP  0  0  0  0  0  0  0  0  0  0  0  0  # atno 17395 bound_to 11000

$$$$
