AV-unprocessed.smi:3026|AV-procd|sdf|11513|dock8
  -GOLD-   2272016453D 1   1.00000     0.00000
 Structure written by MMmdl.
 33 34  0  0  0  0  0  0  0  0  1 V2000
  153.0781  138.4157  154.9038 C   0  0  0  0  0  0  0  0  0  0  0  0
  152.0078  139.3563  155.4144 C   0  0  0  0  0  0  0  0  0  0  0  0
  150.7373  139.4281  154.8071 C   0  0  0  0  0  0  0  0  0  0  0  0
  149.8296  140.3453  155.3732 C   0  0  0  0  0  0  0  0  0  0  0  0
  150.1596  141.1093  156.4371 N   0  0  0  0  0  0  0  0  0  0  0  0
  151.3886  140.9542  156.9415 C   0  0  0  0  0  0  0  0  0  0  0  0
  151.7132  141.7692  158.0192 N   0  0  0  0  0  0  0  0  0  0  0  0
  151.4837  143.1837  157.7379 C   0  0  0  0  0  0  0  0  0  0  0  0
  151.5397  144.0181  159.0224 C   0  0  0  0  0  0  0  0  0  0  0  0
  152.8008  143.8150  159.6400 O   0  0  0  0  0  0  0  0  0  0  0  0
  152.9777  142.4587  160.0267 C   0  0  0  0  0  0  0  0  0  0  0  0
  152.9363  141.5153  158.7985 C   0  0  1  0  0  0  0  0  0  0  0  0
  153.0486  140.0323  159.2504 C   0  0  0  0  0  0  0  0  0  0  0  0
  154.3283  139.6820  160.0301 C   0  0  0  0  0  0  0  0  0  0  0  0
  155.4375  139.6131  159.1593 O   0  0  0  0  0  0  0  0  0  0  0  0
  152.3323  140.1249  156.4764 N   0  0  0  0  0  0  0  0  0  0  0  0
  152.6525  137.6593  154.2439 H   0  0  0  0  0  0  0  0  0  0  0  0
  153.5682  137.9051  155.7334 H   0  0  0  0  0  0  0  0  0  0  0  0
  153.8326  138.9718  154.3470 H   0  0  0  0  0  0  0  0  0  0  0  0
  150.4717  138.8182  153.9562 H   0  0  0  0  0  0  0  0  0  0  0  0
  148.8353  140.4677  154.9695 H   0  0  0  0  0  0  0  0  0  0  0  0
  152.2387  143.5337  157.0326 H   0  0  0  0  0  0  0  0  0  0  0  0
  150.5135  143.3208  157.2584 H   0  0  0  0  0  0  0  0  0  0  0  0
  151.4244  145.0765  158.7890 H   0  0  0  0  0  0  0  0  0  0  0  0
  150.7305  143.7493  159.7034 H   0  0  0  0  0  0  0  0  0  0  0  0
  153.9393  142.3906  160.5335 H   0  0  0  0  0  0  0  0  0  0  0  0
  152.2153  142.1826  160.7573 H   0  0  0  0  0  0  0  0  0  0  0  0
  153.7837  141.7541  158.1544 H   0  0  0  0  0  0  0  0  0  0  0  0
  152.1821  139.7820  159.8639 H   0  0  0  0  0  0  0  0  0  0  0  0
  153.0023  139.3588  158.3954 H   0  0  0  0  0  0  0  0  0  0  0  0
  154.5294  140.3976  160.8262 H   0  0  0  0  0  0  0  0  0  0  0  0
  154.2109  138.7099  160.5094 H   0  0  0  0  0  0  0  0  0  0  0  0
  155.9138  138.8170  159.3408 H   0  0  0  0  0  0  0  0  0  0  0  0
  1  2  1  0  0  0  0
  1 17  1  0  0  0  0
  1 18  1  0  0  0  0
  1 19  1  0  0  0  0
  2 16  1  0  0  0  0
  2  3  2  0  0  0  0
  3  4  1  0  0  0  0
  3 20  1  0  0  0  0
  4  5  2  0  0  0  0
  4 21  1  0  0  0  0
  5  6  1  0  0  0  0
  6  7  1  0  0  0  0
  6 16  2  0  0  0  0
  7 12  1  0  0  0  0
  7  8  1  0  0  0  0
  8  9  1  0  0  0  0
  8 22  1  0  0  0  0
  8 23  1  0  0  0  0
  9 10  1  0  0  0  0
  9 24  1  0  0  0  0
  9 25  1  0  0  0  0
 10 11  1  0  0  0  0
 11 12  1  0  0  0  0
 11 26  1  0  0  0  0
 11 27  1  0  0  0  0
 12 13  1  0  0  0  0
 12 28  1  0  0  0  0
 13 14  1  0  0  0  0
 13 29  1  0  0  0  0
 13 30  1  0  0  0  0
 14 15  1  0  0  0  0
 14 31  1  0  0  0  0
 14 32  1  0  0  0  0
 15 33  1  0  0  0  0
M  END
> <s_m_source_file>
AV-unprocessed.smi

> <i_m_source_file_index>
3026

> <i_lp_mmshare_version>
43012

> <i_f3d_flags>
0

> <s_epik_input>
W0NIM11jMVtjSF1bY0hdbmMobjEpTjJbQ0gyXVtDSDJdT1tDSDJdW0NASF0yW0NIMl1bQ0gyXVtPSF0=

> <s_epik_cmdline>
J2VwaWtfcHl0aG9uJywgJy1waCcsICc3LjAnLCAnLXRuJywgJzgnLCAnLW1hJywgJzIwMCcsICctbWV0YWxfYmluZGluZycsICctaW1hZScsICc8aW5maWxlLm1hZT4nLCAnLW9tYWUnLCAnPG91dGZpbGUubWFlPic=

> <r_lp_tautomer_probability>
1

> <r_epik_Ionization_Penalty>
6.52665e-05

> <r_epik_Ionization_Penalty_Charging>
0

> <r_epik_Ionization_Penalty_Neutral>
6.52665e-05

> <r_epik_State_Penalty>
-0

> <r_epik_Charging_Adjusted_Penalty>
0

> <i_epik_Tot_Q>
0

> <i_epik_Tot_abs_Q>
0

> <r_epik_Metal_State_Penalty>
-0

> <b_epik_Metal_Only>
0

> <s_lp_Force_Field>
OPLS_2005

> <r_lp_Energy>
15.2375

> <b_lp_Chiralities_Consistent>
1

> <s_lp_Variant>
AV-unprocessed.smi:3026-1

> <Gold.Version>
5.8.1

> <Gold.Id.Protein>
6NUR|6NUR_protein|mol2

> <Gold.PLP.Fitness>
36.7490

> <Gold.PLP.PLP>
-31.1465

> <Gold.PLP.part.hbond>
-2.0000

> <Gold.PLP.part.metal>
0.0000

> <Gold.PLP.part.buried>
-3.5148

> <Gold.PLP.part.nonpolar>
-25.7625

> <Gold.PLP.part.repulsive>
0.0687

> <Gold.PLP.ligand.clash>
0.0000

> <Gold.PLP.ligand.torsion>
0.2182

> <Gold.PLP.Chemscore.Hbond>
1.9100

> <Gold.PLP.Chemscore.CHOScore>
0.0000

> <Gold.PLP.Chemscore.Metal>
0.0000

> <Gold.Chemscore.Hbonds>
donor molecule, donor type, donor heavy atom, donor atom, acceptor molecule, acceptor atom, score
      P1  H  7997  8008       L1    16  0.95
      P1  H  7997  8010       L1    15  0.96

> <Gold.PLP.Chemscore.Internal.Correction>
0.3090

> <Gold.Rescore>
     Score         DG    S(hbond)    S(metal)    S(lipo)     H(rot)  DE(clash)    DE(int)     intcor
     13.53     -15.28       1.43        0.00      86.38       1.99       0.18       1.57       ----

> <Gold.Chemscore.Fitness>
13.5295

> <Gold.Chemscore.DG>
-15.2798

> <Gold.Chemscore.ZeroCoef>
-5.4800

> <Gold.Chemscore.Hbond>
1.4306

> <Gold.Chemscore.Metal>
0.0000

> <Gold.Chemscore.Lipo>
86.3825

> <Gold.Chemscore.Internal_Hbond>
0.0000

> <Gold.Chemscore.DEClash>
0.1784

> <Gold.Chemscore.DEInternal>
1.5719

> <Gold.Chemscore.Rot>
1.9864

> <Gold.Chemscore.Internal.Correction>
   9.000000E+99

> <Gold.Chemscore.Hbonds>
donor molecule, donor type, donor heavy atom, donor atom, acceptor molecule, acceptor atom, score
      P1  H  7997  8008       L1    16  0.20
      P1  H  7997  8010       L1    15  0.60

> <Gold.Chemscore.Hbond.Weighted>
-4.7782

> <Gold.Chemscore.Metal.Weighted>
-0.0000

> <Gold.Chemscore.Lipo.Weighted>
-10.1068

> <Gold.Chemscore.Internal_Hbond.Weighted>
0.0000

> <Gold.Chemscore.DEClash.Weighted>
0.1784

> <Gold.Chemscore.DEInternal.Weighted>
1.5719

> <Gold.Chemscore.Rot.Weighted>
5.0851

> <Gold.Chemscore.Internal.Correction.Weighted>
   9.000000E+99

> <Gold.Protein.RotatedTorsions>
[ 6907 6896 6895 6894 ] final  -53.05 input  -60.11 | X-H torsion
[ 7974 7965 7964 7962 ] final -161.24 input  175.53 | X-H torsion
[ 8008 7997 7996 7995 ] final  -34.93 input   59.86 | X-H torsion
[ 10167 10162 10161 10158 ] final  -35.45 input  -65.29 | X-H torsion
[ 10718 10713 10712 10709 ] final  -33.73 input   66.30 | X-H torsion
[ 10763 10752 10751 10750 ] final  -97.39 input  -60.55 | X-H torsion
[ 11005 11000 10999 10996 ] final  102.55 input  -57.11 | X-H torsion

> <Gold.Protein.ActiveResidues>
 VAL166  LYS551  ARG553  GLY616  TRP617  ASP618  TYR619  PRO620  LYS621  CYS622 
 ASP623  PHE694  ASN695  SER759  ASP760  ASP761  ALA762  ILE779  LEU786  VAL792 
 PHE793  MET794  SER795  GLU796  ALA797  LYS798  CYS799  TRP800  GLU811  SER814 

> <Gold.Protein.RotatedAtoms>
  150.8461  134.7771  159.6971 H   0  0  0  0  0  0  0  0  0  0  0  0  # atno 6907 bound_to 6896
  152.4538  134.5333  159.9827 H   0  0  0  0  0  0  0  0  0  0  0  0  # atno 6908 bound_to 6896
  151.5463  133.3386  159.2980 H   0  0  0  0  0  0  0  0  0  0  0  0  # atno 6909 bound_to 6896
  144.7398  140.3426  143.6131 H   0  0  0  0  0  0  0  0  0  0  0  0  # atno 7974 bound_to 7965
  154.4108  140.1671  156.2129 H   0  0  0  0  0  0  0  0  0  0  0  0  # atno 8008 bound_to 7997
  155.9429  140.3406  155.6319 H   0  0  0  0  0  0  0  0  0  0  0  0  # atno 8009 bound_to 7997
  155.6967  140.0740  157.2417 H   0  0  0  0  0  0  0  0  0  0  0  0  # atno 8010 bound_to 7997
  140.7165  143.3477  151.2222 H   0  0  0  0  0  0  0  0  0  0  0  0  # atno 10167 bound_to 10162
  156.3591  130.4321  149.7639 H   0  0  0  0  0  0  0  0  0  0  0  0  # atno 10718 bound_to 10713
  154.7324  135.5048  153.8985 H   0  0  0  0  0  0  0  0  0  0  0  0  # atno 10763 bound_to 10752
  153.0962  135.6673  153.9767 H   0  0  0  0  0  0  0  0  0  0  0  0  # atno 10764 bound_to 10752
  153.9565  135.3052  155.3415 H   0  0  0  0  0  0  0  0  0  0  0  0  # atno 10765 bound_to 10752
  139.8778  134.9228  156.5075 H   0  0  0  0  0  0  0  0  0  0  0  0  # atno 11005 bound_to 11000
  145.7359  139.1749  143.2404 LP  0  0  0  0  0  0  0  0  0  0  0  0  # atno 17320 bound_to 7965
  146.1171  140.7356  142.9475 LP  0  0  0  0  0  0  0  0  0  0  0  0  # atno 17321 bound_to 7965
  139.7000  143.9549  152.2901 LP  0  0  0  0  0  0  0  0  0  0  0  0  # atno 17342 bound_to 10162
  139.9239  144.6783  150.8433 LP  0  0  0  0  0  0  0  0  0  0  0  0  # atno 17343 bound_to 10162
  156.4810  130.8041  151.3055 LP  0  0  0  0  0  0  0  0  0  0  0  0  # atno 17370 bound_to 10713
  157.7471  131.0006  150.2931 LP  0  0  0  0  0  0  0  0  0  0  0  0  # atno 17371 bound_to 10713
  140.8544  133.8107  155.9201 LP  0  0  0  0  0  0  0  0  0  0  0  0  # atno 17394 bound_to 11000
  140.9112  134.2258  157.4984 LP  0  0  0  0  0  0  0  0  0  0  0  0  # atno 17395 bound_to 11000

$$$$
