AV-unprocessed.smi:155|AV-procd|sdf|1278|dock2
  -GOLD-   2262018543D 1   1.00000     0.00000
 Structure written by MMmdl.
 63 66  0  0  0  0  0  0  0  0  2 V2000
  145.9955  132.0536  150.5282 C   0  0  0  0  0  0  0  0  0  0  0  0
  146.9811  131.6435  151.5559 N   0  3  0  0  0  0  0  0  0  0  0  0
  146.5612  130.4007  152.2407 C   0  0  0  0  0  0  0  0  0  0  0  0
  147.3127  132.7278  152.5141 C   0  0  0  0  0  0  0  0  0  0  0  0
  148.3994  132.3032  153.5245 C   0  0  0  0  0  0  0  0  0  0  0  0
  148.4648  133.2112  154.6703 N   0  0  0  0  0  0  0  0  0  0  0  0
  149.2048  132.6376  155.8045 C   0  0  0  0  0  0  0  0  0  0  0  0
  150.7306  132.8671  155.7721 C   0  0  0  0  0  0  0  0  0  0  0  0
  151.1457  134.1832  156.4575 C   0  0  0  0  0  0  0  0  0  0  0  0
  150.7084  135.3763  155.7306 N   0  0  0  0  0  0  0  0  0  0  0  0
  151.3403  136.5484  155.9947 C   0  0  0  0  0  0  0  0  0  0  0  0
  152.5908  136.5352  156.5288 N   0  0  0  0  0  0  0  0  0  0  0  0
  153.2175  137.6815  156.8090 C   0  0  0  0  0  0  0  0  0  0  0  0
  152.7871  138.9323  156.6345 N   0  0  0  0  0  0  0  0  0  0  0  0
  151.5387  138.9538  156.0863 C   0  0  0  0  0  0  0  0  0  0  0  0
  150.7517  137.8195  155.7384 C   0  0  0  0  0  0  0  0  0  0  0  0
  149.5398  138.2333  155.1974 N   0  0  0  0  0  0  0  0  0  0  0  0
  149.6017  139.5363  155.2356 C   0  0  0  0  0  0  0  0  0  0  0  0
  150.7732  140.0542  155.7404 N   0  0  0  0  0  0  0  0  0  0  0  0
  151.1000  141.4605  155.9059 C   0  0  0  0  0  0  0  0  0  0  0  0
  150.5845  142.0697  157.2297 C   0  0  1  0  0  0  0  0  0  0  0  0
  150.2733  140.9714  158.0624 O   0  0  0  0  0  0  0  0  0  0  0  0
  151.6038  142.9412  157.9976 C   0  0  1  0  0  0  0  0  0  0  0  0
  151.8968  144.3206  157.4005 C   0  0  0  0  0  0  0  0  0  0  0  0
  152.3182  145.1606  158.5957 C   0  0  0  0  0  0  0  0  0  0  0  0
  151.8741  144.3325  159.8016 C   0  0  0  0  0  0  0  0  0  0  0  0
  151.0541  143.3110  159.2544 O   0  0  0  0  0  0  0  0  0  0  0  0
  149.2968  135.4819  155.3635 C   0  0  0  0  0  0  0  0  0  0  0  0
  148.9631  134.5135  154.2173 C   0  0  0  0  0  0  0  0  0  0  0  0
  145.0379  132.3075  150.9848 H   0  0  0  0  0  0  0  0  0  0  0  0
  145.8264  131.2444  149.8169 H   0  0  0  0  0  0  0  0  0  0  0  0
  146.3394  132.9170  149.9600 H   0  0  0  0  0  0  0  0  0  0  0  0
  145.6509  130.5622  152.8199 H   0  0  0  0  0  0  0  0  0  0  0  0
  147.3402  130.0479  152.9175 H   0  0  0  0  0  0  0  0  0  0  0  0
  146.3705  129.6063  151.5182 H   0  0  0  0  0  0  0  0  0  0  0  0
  147.6228  133.6131  151.9560 H   0  0  0  0  0  0  0  0  0  0  0  0
  146.4126  133.0085  153.0616 H   0  0  0  0  0  0  0  0  0  0  0  0
  148.2507  131.2733  153.8519 H   0  0  0  0  0  0  0  0  0  0  0  0
  149.3685  132.3278  153.0268 H   0  0  0  0  0  0  0  0  0  0  0  0
  148.8031  133.0619  156.7250 H   0  0  0  0  0  0  0  0  0  0  0  0
  149.0018  131.5710  155.8829 H   0  0  0  0  0  0  0  0  0  0  0  0
  151.2007  132.0529  156.3245 H   0  0  0  0  0  0  0  0  0  0  0  0
  151.1312  132.8012  154.7599 H   0  0  0  0  0  0  0  0  0  0  0  0
  150.7524  134.2164  157.4745 H   0  0  0  0  0  0  0  0  0  0  0  0
  152.2334  134.1970  156.5407 H   0  0  0  0  0  0  0  0  0  0  0  0
  154.2049  137.5821  157.2353 H   0  0  0  0  0  0  0  0  0  0  0  0
  148.7899  140.1593  154.8892 H   0  0  0  0  0  0  0  0  0  0  0  0
  152.1875  141.5375  155.8607 H   0  0  0  0  0  0  0  0  0  0  0  0
  150.7174  142.0240  155.0541 H   0  0  0  0  0  0  0  0  0  0  0  0
  149.6668  142.6315  157.0520 H   0  0  0  0  0  0  0  0  0  0  0  0
  149.9026  140.2876  157.5251 H   0  0  0  0  0  0  0  0  0  0  0  0
  152.5404  142.4008  158.1513 H   0  0  0  0  0  0  0  0  0  0  0  0
  152.6647  144.2902  156.6281 H   0  0  0  0  0  0  0  0  0  0  0  0
  150.9917  144.7447  156.9641 H   0  0  0  0  0  0  0  0  0  0  0  0
  153.3969  145.3210  158.6142 H   0  0  0  0  0  0  0  0  0  0  0  0
  151.8322  146.1368  158.5749 H   0  0  0  0  0  0  0  0  0  0  0  0
  152.7350  143.8775  160.2940 H   0  0  0  0  0  0  0  0  0  0  0  0
  151.3301  144.9223  160.5399 H   0  0  0  0  0  0  0  0  0  0  0  0
  148.6646  135.3047  156.2344 H   0  0  0  0  0  0  0  0  0  0  0  0
  149.0603  136.4950  155.0394 H   0  0  0  0  0  0  0  0  0  0  0  0
  149.8300  134.3973  153.5639 H   0  0  0  0  0  0  0  0  0  0  0  0
  148.1810  134.9597  153.6019 H   0  0  0  0  0  0  0  0  0  0  0  0
  147.8375  131.4180  151.0700 H   0  0  0  0  0  0  0  0  0  0  0  0
  1  2  1  0  0  0  0
  1 30  1  0  0  0  0
  1 31  1  0  0  0  0
  1 32  1  0  0  0  0
  2  3  1  0  0  0  0
  2  4  1  0  0  0  0
  2 63  1  0  0  0  0
  3 33  1  0  0  0  0
  3 34  1  0  0  0  0
  3 35  1  0  0  0  0
  4  5  1  0  0  0  0
  4 36  1  0  0  0  0
  4 37  1  0  0  0  0
  5  6  1  0  0  0  0
  5 38  1  0  0  0  0
  5 39  1  0  0  0  0
  6 29  1  0  0  0  0
  6  7  1  0  0  0  0
  7  8  1  0  0  0  0
  7 40  1  0  0  0  0
  7 41  1  0  0  0  0
  8  9  1  0  0  0  0
  8 42  1  0  0  0  0
  8 43  1  0  0  0  0
  9 10  1  0  0  0  0
  9 44  1  0  0  0  0
  9 45  1  0  0  0  0
 10 11  1  0  0  0  0
 10 28  1  0  0  0  0
 11 16  1  0  0  0  0
 11 12  2  0  0  0  0
 12 13  1  0  0  0  0
 13 14  2  0  0  0  0
 13 46  1  0  0  0  0
 14 15  1  0  0  0  0
 15 19  1  0  0  0  0
 15 16  2  0  0  0  0
 16 17  1  0  0  0  0
 17 18  2  0  0  0  0
 18 19  1  0  0  0  0
 18 47  1  0  0  0  0
 19 20  1  0  0  0  0
 20 21  1  0  0  0  0
 20 48  1  0  0  0  0
 20 49  1  0  0  0  0
 21 22  1  0  0  0  0
 21 23  1  0  0  0  0
 21 50  1  0  0  0  0
 22 51  1  0  0  0  0
 23 27  1  0  0  0  0
 23 24  1  0  0  0  0
 23 52  1  0  0  0  0
 24 25  1  0  0  0  0
 24 53  1  0  0  0  0
 24 54  1  0  0  0  0
 25 26  1  0  0  0  0
 25 55  1  0  0  0  0
 25 56  1  0  0  0  0
 26 27  1  0  0  0  0
 26 57  1  0  0  0  0
 26 58  1  0  0  0  0
 28 29  1  0  0  0  0
 28 59  1  0  0  0  0
 28 60  1  0  0  0  0
 29 61  1  0  0  0  0
 29 62  1  0  0  0  0
M  CHG  1   2   1
M  END
> <s_m_source_file>
AV-unprocessed.smi

> <i_m_source_file_index>
155

> <i_lp_mmshare_version>
43012

> <i_f3d_flags>
0

> <s_epik_input>
W0NIM11OKFtDSDNdKVtDSDJdW0NIMl1OMVtDSDJdW0NIMl1bQ0gyXU4oW0NIMl1bQ0gyXTEpYyhuW2NIXW4yKWMoYzIzKW5bY0hdbjNbQ0gyXVtDQEhdKFtPSF0pW0NAQEhdNFtDSDJdW0NIMl1bQ0gyXU80

> <s_epik_cmdline>
J2VwaWtfcHl0aG9uJywgJy1waCcsICc3LjAnLCAnLXRuJywgJzgnLCAnLW1hJywgJzIwMCcsICctbWV0YWxfYmluZGluZycsICctaW1hZScsICc8aW5maWxlLm1hZT4nLCAnLW9tYWUnLCAnPG91dGZpbGUubWFlPic=

> <r_lp_tautomer_probability>
1

> <r_epik_Ionization_Penalty>
0.0599493

> <r_epik_Ionization_Penalty_Charging>
0.00816363

> <r_epik_Ionization_Penalty_Neutral>
0.0517857

> <r_epik_State_Penalty>
0.460607

> <r_epik_Charging_Adjusted_Penalty>
0.468771

> <i_epik_Tot_Q>
1

> <i_epik_Tot_abs_Q>
1

> <r_epik_Metal_State_Penalty>
0.45965

> <b_epik_Metal_Only>
0

> <s_lp_Force_Field>
OPLS_2005

> <r_lp_Energy>
60.0635

> <b_lp_Chiralities_Consistent>
1

> <s_lp_Variant>
AV-unprocessed.smi:155-12

> <Gold.Version>
5.8.1

> <Gold.Id.Protein>
6NUR|6NUR_protein|mol2

> <Gold.PLP.Fitness>
55.8869

> <Gold.PLP.PLP>
-49.0121

> <Gold.PLP.part.hbond>
-3.0000

> <Gold.PLP.part.metal>
0.0000

> <Gold.PLP.part.buried>
-4.6627

> <Gold.PLP.part.nonpolar>
-40.2925

> <Gold.PLP.part.repulsive>
0.1768

> <Gold.PLP.ligand.clash>
0.0000

> <Gold.PLP.ligand.torsion>
1.3519

> <Gold.PLP.Chemscore.Hbond>
3.0000

> <Gold.PLP.Chemscore.CHOScore>
0.0000

> <Gold.PLP.Chemscore.Metal>
0.0000

> <Gold.Chemscore.Hbonds>
donor molecule, donor type, donor heavy atom, donor atom, acceptor molecule, acceptor atom, score
      L1  H     2    63       P1 10747  0.93
      P1  H  7997  8008       L1    14  1.00
      P1  H 10752 10765       L1    12  0.85

> <Gold.PLP.Chemscore.Internal.Correction>
0.5785

> <Gold.Rescore>
     Score         DG    S(hbond)    S(metal)    S(lipo)     H(rot)  DE(clash)    DE(int)     intcor
     16.73     -19.68       2.16        0.00     118.88       2.71       0.29       2.66       ----

> <Gold.Chemscore.Fitness>
16.7334

> <Gold.Chemscore.DG>
-19.6829

> <Gold.Chemscore.ZeroCoef>
-5.4800

> <Gold.Chemscore.Hbond>
2.1638

> <Gold.Chemscore.Metal>
0.0000

> <Gold.Chemscore.Lipo>
118.8752

> <Gold.Chemscore.Internal_Hbond>
0.0000

> <Gold.Chemscore.DEClash>
0.2901

> <Gold.Chemscore.DEInternal>
2.6594

> <Gold.Chemscore.Rot>
2.7080

> <Gold.Chemscore.Internal.Correction>
   9.000000E+99

> <Gold.Chemscore.Hbonds>
donor molecule, donor type, donor heavy atom, donor atom, acceptor molecule, acceptor atom, score
      L1  H     2    63       P1 10747  0.89
      P1  H  7997  8008       L1    14  0.60
      P1  H 10752 10765       L1    12  0.14

> <Gold.Chemscore.Hbond.Weighted>
-7.2271

> <Gold.Chemscore.Metal.Weighted>
-0.0000

> <Gold.Chemscore.Lipo.Weighted>
-13.9084

> <Gold.Chemscore.Internal_Hbond.Weighted>
0.0000

> <Gold.Chemscore.DEClash.Weighted>
0.2901

> <Gold.Chemscore.DEInternal.Weighted>
2.6594

> <Gold.Chemscore.Rot.Weighted>
6.9326

> <Gold.Chemscore.Internal.Correction.Weighted>
   9.000000E+99

> <Gold.Protein.RotatedTorsions>
[ 6907 6896 6895 6894 ] final -165.55 input  -60.11 | X-H torsion
[ 7974 7965 7964 7962 ] final  124.60 input  175.53 | X-H torsion
[ 8008 7997 7996 7995 ] final  -54.78 input   59.86 | X-H torsion
[ 10167 10162 10161 10158 ] final   83.66 input  -65.29 | X-H torsion
[ 10718 10713 10712 10709 ] final    8.47 input   66.30 | X-H torsion
[ 10763 10752 10751 10750 ] final -133.27 input  -60.55 | X-H torsion
[ 11005 11000 10999 10996 ] final -162.94 input  -57.11 | X-H torsion

> <Gold.Protein.ActiveResidues>
 VAL166  LYS551  ARG553  GLY616  TRP617  ASP618  TYR619  PRO620  LYS621  CYS622 
 ASP623  PHE694  ASN695  SER759  ASP760  ASP761  ALA762  ILE779  LEU786  VAL792 
 PHE793  MET794  SER795  GLU796  ALA797  LYS798  CYS799  TRP800  GLU811  SER814 

> <Gold.Protein.RotatedAtoms>
  151.4294  133.3674  159.2766 H   0  0  0  0  0  0  0  0  0  0  0  0  # atno 6907 bound_to 6896
  150.9236  134.8654  159.7515 H   0  0  0  0  0  0  0  0  0  0  0  0  # atno 6908 bound_to 6896
  152.4994  134.4234  159.9540 H   0  0  0  0  0  0  0  0  0  0  0  0  # atno 6909 bound_to 6896
  145.0825  139.3646  143.4902 H   0  0  0  0  0  0  0  0  0  0  0  0  # atno 7974 bound_to 7965
  154.4173  140.1168  156.5371 H   0  0  0  0  0  0  0  0  0  0  0  0  # atno 8008 bound_to 7997
  155.6546  140.3496  155.4741 H   0  0  0  0  0  0  0  0  0  0  0  0  # atno 8009 bound_to 7997
  155.9764  140.1151  157.0756 H   0  0  0  0  0  0  0  0  0  0  0  0  # atno 8010 bound_to 7997
  139.9160  144.6242  150.8488 H   0  0  0  0  0  0  0  0  0  0  0  0  # atno 10167 bound_to 10162
  156.9521  130.5901  149.5657 H   0  0  0  0  0  0  0  0  0  0  0  0  # atno 10718 bound_to 10713
  154.8734  135.3771  154.4546 H   0  0  0  0  0  0  0  0  0  0  0  0  # atno 10763 bound_to 10752
  153.5219  135.7029  153.5732 H   0  0  0  0  0  0  0  0  0  0  0  0  # atno 10764 bound_to 10752
  153.3975  135.3956  155.1931 H   0  0  0  0  0  0  0  0  0  0  0  0  # atno 10765 bound_to 10752
  140.6036  134.4921  157.5208 H   0  0  0  0  0  0  0  0  0  0  0  0  # atno 11005 bound_to 11000
  146.3531  140.0622  142.8628 LP  0  0  0  0  0  0  0  0  0  0  0  0  # atno 17320 bound_to 7965
  145.1161  140.9434  143.4628 LP  0  0  0  0  0  0  0  0  0  0  0  0  # atno 17321 bound_to 7965
  140.7674  143.3331  151.2368 LP  0  0  0  0  0  0  0  0  0  0  0  0  # atno 17342 bound_to 10162
  139.6901  143.9706  152.2855 LP  0  0  0  0  0  0  0  0  0  0  0  0  # atno 17343 bound_to 10162
  156.0358  130.5446  150.8650 LP  0  0  0  0  0  0  0  0  0  0  0  0  # atno 17370 bound_to 10713
  157.5714  131.0946  150.9411 LP  0  0  0  0  0  0  0  0  0  0  0  0  # atno 17371 bound_to 10713
  139.9222  134.8127  156.1178 LP  0  0  0  0  0  0  0  0  0  0  0  0  # atno 17394 bound_to 11000
  141.0855  133.6736  156.2427 LP  0  0  0  0  0  0  0  0  0  0  0  0  # atno 17395 bound_to 11000

$$$$
