AV-unprocessed.smi:2650|AV-procd|sdf|10291|dock2
  -GOLD-   2272014303D 1   1.00000     0.00000
 Structure written by MMmdl.
 33 34  0  0  0  0  0  0  0  0  1 V2000
  144.7879  137.1124  150.4863 O   0  0  0  0  0  0  0  0  0  0  0  0
  145.9382  136.8199  150.8146 C   0  0  0  0  0  0  0  0  0  0  0  0
  146.8846  137.7325  151.0786 N   0  0  0  0  0  0  0  0  0  0  0  0
  146.6881  139.1757  151.0237 C   0  0  0  0  0  0  0  0  0  0  0  0
  148.0330  139.9253  150.9985 C   0  0  0  0  0  0  0  0  0  0  0  0
  148.0531  141.0198  151.9728 N   0  0  0  0  0  0  0  0  0  0  0  0
  149.0633  141.2507  152.8228 C   0  0  0  0  0  0  0  0  0  0  0  0
  150.0997  140.5939  152.9189 O   0  0  0  0  0  0  0  0  0  0  0  0
  148.7806  142.4709  153.6888 C   0  0  0  0  0  0  0  0  0  0  0  0
  147.4082  142.9372  153.1927 C   0  0  0  0  0  0  0  0  0  0  0  0
  147.0763  141.9289  152.1009 C   0  0  0  0  0  0  0  0  0  0  0  0
  146.0379  141.9814  151.4429 O   0  0  0  0  0  0  0  0  0  0  0  0
  146.4121  135.5697  150.9594 N   0  0  0  0  0  0  0  0  0  0  0  0
  145.7196  134.3426  150.7796 C   0  0  0  0  0  0  0  0  0  0  0  0
  146.4635  133.1831  151.0955 C   0  0  0  0  0  0  0  0  0  0  0  0
  145.8662  131.9159  150.9511 C   0  0  0  0  0  0  0  0  0  0  0  0
  144.5384  131.8407  150.4939 C   0  0  0  0  0  0  0  0  0  0  0  0
  143.8685  133.0429  150.2020 C   0  0  0  0  0  0  0  0  0  0  0  0
  144.4391  134.2582  150.3395 N   0  0  0  0  0  0  0  0  0  0  0  0
  147.8037  137.4073  151.3410 H   0  0  0  0  0  0  0  0  0  0  0  0
  146.1153  139.4043  150.1246 H   0  0  0  0  0  0  0  0  0  0  0  0
  146.0804  139.5010  151.8701 H   0  0  0  0  0  0  0  0  0  0  0  0
  148.8535  139.2354  151.2044 H   0  0  0  0  0  0  0  0  0  0  0  0
  148.2234  140.3132  149.9962 H   0  0  0  0  0  0  0  0  0  0  0  0
  148.7599  142.1948  154.7436 H   0  0  0  0  0  0  0  0  0  0  0  0
  149.5473  143.2315  153.5380 H   0  0  0  0  0  0  0  0  0  0  0  0
  146.6576  142.9047  153.9830 H   0  0  0  0  0  0  0  0  0  0  0  0
  147.4446  143.9469  152.7822 H   0  0  0  0  0  0  0  0  0  0  0  0
  147.3794  135.4858  151.2342 H   0  0  0  0  0  0  0  0  0  0  0  0
  147.4826  133.2590  151.4461 H   0  0  0  0  0  0  0  0  0  0  0  0
  146.4178  131.0181  151.1879 H   0  0  0  0  0  0  0  0  0  0  0  0
  144.0463  130.8873  150.3703 H   0  0  0  0  0  0  0  0  0  0  0  0
  142.8479  133.0297  149.8490 H   0  0  0  0  0  0  0  0  0  0  0  0
  1  2  2  0  0  0  0
  2  3  1  0  0  0  0
  2 13  1  0  0  0  0
  3  4  1  0  0  0  0
  3 20  1  0  0  0  0
  4  5  1  0  0  0  0
  4 21  1  0  0  0  0
  4 22  1  0  0  0  0
  5  6  1  0  0  0  0
  5 23  1  0  0  0  0
  5 24  1  0  0  0  0
  6 11  1  0  0  0  0
  6  7  1  0  0  0  0
  7  8  2  0  0  0  0
  7  9  1  0  0  0  0
  9 10  1  0  0  0  0
  9 25  1  0  0  0  0
  9 26  1  0  0  0  0
 10 11  1  0  0  0  0
 10 27  1  0  0  0  0
 10 28  1  0  0  0  0
 11 12  2  0  0  0  0
 13 14  1  0  0  0  0
 13 29  1  0  0  0  0
 14 19  1  0  0  0  0
 14 15  2  0  0  0  0
 15 16  1  0  0  0  0
 15 30  1  0  0  0  0
 16 17  2  0  0  0  0
 16 31  1  0  0  0  0
 17 18  1  0  0  0  0
 17 32  1  0  0  0  0
 18 19  2  0  0  0  0
 18 33  1  0  0  0  0
M  END
> <s_m_source_file>
AV-unprocessed.smi

> <i_m_source_file_index>
2650

> <i_lp_mmshare_version>
43012

> <i_f3d_flags>
0

> <s_epik_input>
bjFbY0hdW2NIXVtjSF1bY0hdYzFbTkhdQyg9TylbTkhdW0NIMl1bQ0gyXU4yQyg9TylbQ0gyXVtDSDJdQzI9Tw==

> <s_epik_cmdline>
J2VwaWtfcHl0aG9uJywgJy1waCcsICc3LjAnLCAnLXRuJywgJzgnLCAnLW1hJywgJzIwMCcsICctbWV0YWxfYmluZGluZycsICctaW1hZScsICc8aW5maWxlLm1hZT4nLCAnLW9tYWUnLCAnPG91dGZpbGUubWFlPic=

> <r_lp_tautomer_probability>
1

> <r_epik_Ionization_Penalty>
4.11926e-05

> <r_epik_Ionization_Penalty_Charging>
0

> <r_epik_Ionization_Penalty_Neutral>
4.11926e-05

> <r_epik_State_Penalty>
-0

> <r_epik_Charging_Adjusted_Penalty>
0

> <i_epik_Tot_Q>
0

> <i_epik_Tot_abs_Q>
0

> <r_epik_Metal_State_Penalty>
-0

> <b_epik_Metal_Only>
0

> <s_lp_Force_Field>
OPLS_2005

> <r_lp_Energy>
11.0549

> <b_lp_Chiralities_Consistent>
1

> <s_lp_Variant>
AV-unprocessed.smi:2650-1

> <Gold.Version>
5.8.1

> <Gold.Id.Protein>
6NUR|6NUR_protein|mol2

> <Gold.PLP.Fitness>
40.9722

> <Gold.PLP.PLP>
-30.0930

> <Gold.PLP.part.hbond>
-3.0000

> <Gold.PLP.part.metal>
0.0000

> <Gold.PLP.part.buried>
-1.4981

> <Gold.PLP.part.nonpolar>
-27.2804

> <Gold.PLP.part.repulsive>
1.3526

> <Gold.PLP.ligand.clash>
0.0000

> <Gold.PLP.ligand.torsion>
0.5790

> <Gold.PLP.Chemscore.Hbond>
3.0000

> <Gold.PLP.Chemscore.CHOScore>
1.0000

> <Gold.PLP.Chemscore.Metal>
0.0000

> <Gold.Chemscore.Hbonds>
donor molecule, donor type, donor heavy atom, donor atom, acceptor molecule, acceptor atom, score
      L1  H     3    20       P1  7948  1.00
      L1  H    13    29       P1  7948  1.00
      P1  H  7989  7998       L1     8  0.16
      L1  C    18    33       P1 10186  1.00

> <Gold.PLP.Chemscore.Internal.Correction>
0.0371

> <Gold.Rescore>
     Score         DG    S(hbond)    S(metal)    S(lipo)     H(rot)  DE(clash)    DE(int)     intcor
     12.76     -17.19       2.92        0.00      55.96       1.80       1.40       3.03       ----

> <Gold.Chemscore.Fitness>
12.7609

> <Gold.Chemscore.DG>
-17.1897

> <Gold.Chemscore.ZeroCoef>
-5.4800

> <Gold.Chemscore.Hbond>
2.9229

> <Gold.Chemscore.Metal>
0.0000

> <Gold.Chemscore.Lipo>
55.9576

> <Gold.Chemscore.Internal_Hbond>
0.0000

> <Gold.Chemscore.DEClash>
1.3962

> <Gold.Chemscore.DEInternal>
3.0326

> <Gold.Chemscore.Rot>
1.7968

> <Gold.Chemscore.Internal.Correction>
   9.000000E+99

> <Gold.Chemscore.Hbonds>
donor molecule, donor type, donor heavy atom, donor atom, acceptor molecule, acceptor atom, score
      L1  H     3    20       P1  7948  0.98
      L1  H    13    29       P1  7948  0.79
      P1  H  7989  7998       L1     8  0.17

> <Gold.Chemscore.Hbond.Weighted>
-9.7626

> <Gold.Chemscore.Metal.Weighted>
-0.0000

> <Gold.Chemscore.Lipo.Weighted>
-6.5470

> <Gold.Chemscore.Internal_Hbond.Weighted>
0.0000

> <Gold.Chemscore.DEClash.Weighted>
1.3962

> <Gold.Chemscore.DEInternal.Weighted>
3.0326

> <Gold.Chemscore.Rot.Weighted>
4.5999

> <Gold.Chemscore.Internal.Correction.Weighted>
   9.000000E+99

> <Gold.Protein.RotatedTorsions>
[ 6907 6896 6895 6894 ] final   25.54 input  -60.11 | X-H torsion
[ 7974 7965 7964 7962 ] final  112.21 input  175.53 | X-H torsion
[ 8008 7997 7996 7995 ] final -124.85 input   59.86 | X-H torsion
[ 10167 10162 10161 10158 ] final   48.46 input  -65.29 | X-H torsion
[ 10718 10713 10712 10709 ] final   80.72 input   66.30 | X-H torsion
[ 10763 10752 10751 10750 ] final   74.50 input  -60.55 | X-H torsion
[ 11005 11000 10999 10996 ] final   31.85 input  -57.11 | X-H torsion

> <Gold.Protein.ActiveResidues>
 VAL166  LYS551  ARG553  GLY616  TRP617  ASP618  TYR619  PRO620  LYS621  CYS622 
 ASP623  PHE694  ASN695  SER759  ASP760  ASP761  ALA762  ILE779  LEU786  VAL792 
 PHE793  MET794  SER795  GLU796  ALA797  LYS798  CYS799  TRP800  GLU811  SER814 

> <Gold.Protein.RotatedAtoms>
  151.9741  135.0062  160.0553 H   0  0  0  0  0  0  0  0  0  0  0  0  # atno 6907 bound_to 6896
  152.1756  133.4668  159.4940 H   0  0  0  0  0  0  0  0  0  0  0  0  # atno 6908 bound_to 6896
  150.6909  134.1815  159.4293 H   0  0  0  0  0  0  0  0  0  0  0  0  # atno 6909 bound_to 6896
  145.2324  139.2813  143.4161 H   0  0  0  0  0  0  0  0  0  0  0  0  # atno 7974 bound_to 7965
  155.2037  140.0416  157.2922 H   0  0  0  0  0  0  0  0  0  0  0  0  # atno 8008 bound_to 7997
  154.6057  140.2464  155.7705 H   0  0  0  0  0  0  0  0  0  0  0  0  # atno 8009 bound_to 7997
  156.2349  140.2925  156.0295 H   0  0  0  0  0  0  0  0  0  0  0  0  # atno 8010 bound_to 7997
  140.2931  144.3023  150.6236 H   0  0  0  0  0  0  0  0  0  0  0  0  # atno 10167 bound_to 10162
  157.6814  130.9972  150.2121 H   0  0  0  0  0  0  0  0  0  0  0  0  # atno 10718 bound_to 10713
  153.0591  135.5023  154.8051 H   0  0  0  0  0  0  0  0  0  0  0  0  # atno 10763 bound_to 10752
  154.6854  135.2975  154.9557 H   0  0  0  0  0  0  0  0  0  0  0  0  # atno 10764 bound_to 10752
  154.0329  135.6727  153.4835 H   0  0  0  0  0  0  0  0  0  0  0  0  # atno 10765 bound_to 10752
  140.2796  134.2988  155.7804 H   0  0  0  0  0  0  0  0  0  0  0  0  # atno 11005 bound_to 11000
  146.3349  140.2664  142.8604 LP  0  0  0  0  0  0  0  0  0  0  0  0  # atno 17320 bound_to 7965
  144.9664  140.8325  143.5482 LP  0  0  0  0  0  0  0  0  0  0  0  0  # atno 17321 bound_to 7965
  140.5715  143.2180  151.7590 LP  0  0  0  0  0  0  0  0  0  0  0  0  # atno 17342 bound_to 10162
  139.4933  144.4209  151.9978 LP  0  0  0  0  0  0  0  0  0  0  0  0  # atno 17343 bound_to 10162
  156.2790  130.3731  149.7955 LP  0  0  0  0  0  0  0  0  0  0  0  0  # atno 17370 bound_to 10713
  156.5649  130.8399  151.3339 LP  0  0  0  0  0  0  0  0  0  0  0  0  # atno 17371 bound_to 10713
  141.2165  133.7517  156.9460 LP  0  0  0  0  0  0  0  0  0  0  0  0  # atno 17394 bound_to 11000
  140.1296  134.9365  157.2318 LP  0  0  0  0  0  0  0  0  0  0  0  0  # atno 17395 bound_to 11000

$$$$
