AV-unprocessed.smi:11|AV-procd|sdf|56|dock1
  -GOLD-   2262015173D 1   1.00000     0.00000
 Structure written by MMmdl.
 33 35  0  0  0  0  0  0  0  0  1 V2000
  152.7207  144.9272  158.0242 C   0  0  0  0  0  0  0  0  0  0  0  0
  152.0500  143.8549  157.1484 C   0  0  0  0  0  0  0  0  0  0  0  0
  151.0072  142.9662  157.8714 C   0  0  2  0  0  0  0  0  0  0  0  0
  149.8603  143.7467  158.1469 O   0  0  0  0  0  0  0  0  0  0  0  0
  151.5680  142.3934  159.1805 C   0  0  0  0  0  0  0  0  0  0  0  0
  152.2592  141.1070  158.7336 C   0  0  0  0  0  0  0  0  0  0  0  0
  151.4537  140.6225  157.6222 N   0  0  0  0  0  0  0  0  0  0  0  0
  151.9089  139.5782  156.7918 C   0  0  0  0  0  0  0  0  0  0  0  0
  153.0381  138.9179  157.1577 N   0  0  0  0  0  0  0  0  0  0  0  0
  153.5079  137.9258  156.3966 C   0  0  0  0  0  0  0  0  0  0  0  0
  153.0105  137.4404  155.2570 N   0  0  0  0  0  0  0  0  0  0  0  0
  151.8692  138.0919  154.8971 C   0  0  0  0  0  0  0  0  0  0  0  0
  151.0882  137.8480  153.7869 N   0  0  0  0  0  0  0  0  0  0  0  0
  150.0020  138.7047  153.7659 C   0  0  0  0  0  0  0  0  0  0  0  0
  150.0588  139.5246  154.8640 C   0  0  0  0  0  0  0  0  0  0  0  0
  151.2455  139.1637  155.5997 C   0  0  0  0  0  0  0  0  0  0  0  0
  150.6320  141.6970  157.0815 C   0  0  0  0  0  0  0  0  0  0  0  0
  151.2590  137.1477  153.0797 H   0  0  0  0  0  0  0  0  0  0  0  0
  153.4566  145.4856  157.4456 H   0  0  0  0  0  0  0  0  0  0  0  0
  153.2429  144.4837  158.8720 H   0  0  0  0  0  0  0  0  0  0  0  0
  152.0015  145.6475  158.4121 H   0  0  0  0  0  0  0  0  0  0  0  0
  151.5821  144.3478  156.2954 H   0  0  0  0  0  0  0  0  0  0  0  0
  152.8314  143.2186  156.7306 H   0  0  0  0  0  0  0  0  0  0  0  0
  149.5455  144.1129  157.3346 H   0  0  0  0  0  0  0  0  0  0  0  0
  152.2369  143.0755  159.7065 H   0  0  0  0  0  0  0  0  0  0  0  0
  150.7543  142.1388  159.8619 H   0  0  0  0  0  0  0  0  0  0  0  0
  153.2739  141.3188  158.3938 H   0  0  0  0  0  0  0  0  0  0  0  0
  152.3118  140.3747  159.5399 H   0  0  0  0  0  0  0  0  0  0  0  0
  154.4125  137.4537  156.7506 H   0  0  0  0  0  0  0  0  0  0  0  0
  149.2729  138.6593  152.9701 H   0  0  0  0  0  0  0  0  0  0  0  0
  149.3500  140.2946  155.1281 H   0  0  0  0  0  0  0  0  0  0  0  0
  149.5865  141.4327  157.2450 H   0  0  0  0  0  0  0  0  0  0  0  0
  150.7811  141.8226  156.0100 H   0  0  0  0  0  0  0  0  0  0  0  0
  1  2  1  0  0  0  0
  1 19  1  0  0  0  0
  1 20  1  0  0  0  0
  1 21  1  0  0  0  0
  2  3  1  0  0  0  0
  2 22  1  0  0  0  0
  2 23  1  0  0  0  0
  3 17  1  0  0  0  0
  3  4  1  0  0  0  0
  3  5  1  0  0  0  0
  4 24  1  0  0  0  0
  5  6  1  0  0  0  0
  5 25  1  0  0  0  0
  5 26  1  0  0  0  0
  6  7  1  0  0  0  0
  6 27  1  0  0  0  0
  6 28  1  0  0  0  0
  7  8  1  0  0  0  0
  7 17  1  0  0  0  0
  8 16  1  0  0  0  0
  8  9  2  0  0  0  0
  9 10  1  0  0  0  0
 10 11  2  0  0  0  0
 10 29  1  0  0  0  0
 11 12  1  0  0  0  0
 12 16  2  0  0  0  0
 12 13  1  0  0  0  0
 13 18  1  0  0  0  0
 13 14  1  0  0  0  0
 14 15  2  0  0  0  0
 14 30  1  0  0  0  0
 15 16  1  0  0  0  0
 15 31  1  0  0  0  0
 17 32  1  0  0  0  0
 17 33  1  0  0  0  0
M  END
> <s_m_source_file>
AV-unprocessed.smi

> <i_m_source_file_index>
11

> <i_lp_mmshare_version>
43012

> <i_f3d_flags>
0

> <s_epik_input>
W0NIM11bQ0gyXVtDQEBdMShbT0hdKVtDSDJdW0NIMl1OKFtDSDJdMSljKG5bY0hdbjIpYyhjMjMpW2NIXVtjSF1bbkhdMw==

> <s_epik_cmdline>
J2VwaWtfcHl0aG9uJywgJy1waCcsICc3LjAnLCAnLXRuJywgJzgnLCAnLW1hJywgJzIwMCcsICctbWV0YWxfYmluZGluZycsICctaW1hZScsICc8aW5maWxlLm1hZT4nLCAnLW9tYWUnLCAnPG91dGZpbGUubWFlPic=

> <r_lp_tautomer_probability>
0.999998

> <r_epik_Ionization_Penalty>
0.0511253

> <r_epik_Ionization_Penalty_Charging>
0

> <r_epik_Ionization_Penalty_Neutral>
0.0511253

> <r_epik_State_Penalty>
0.0394181

> <r_epik_Charging_Adjusted_Penalty>
0.0394181

> <i_epik_Tot_Q>
0

> <i_epik_Tot_abs_Q>
0

> <r_epik_Metal_State_Penalty>
0.0367127

> <b_epik_Metal_Only>
0

> <s_lp_Force_Field>
OPLS_2005

> <r_lp_Energy>
27.4112

> <b_lp_Chiralities_Consistent>
1

> <s_lp_Variant>
AV-unprocessed.smi:11-2

> <Gold.Version>
5.8.1

> <Gold.Id.Protein>
6NUR|6NUR_protein|mol2

> <Gold.PLP.Fitness>
44.7397

> <Gold.PLP.PLP>
-31.6602

> <Gold.PLP.part.hbond>
-5.2135

> <Gold.PLP.part.metal>
0.0000

> <Gold.PLP.part.buried>
-1.0264

> <Gold.PLP.part.nonpolar>
-25.5212

> <Gold.PLP.part.repulsive>
0.1435

> <Gold.PLP.ligand.clash>
0.0000

> <Gold.PLP.ligand.torsion>
0.2630

> <Gold.PLP.Chemscore.Hbond>
3.1360

> <Gold.PLP.Chemscore.CHOScore>
1.3140

> <Gold.PLP.Chemscore.Metal>
0.0000

> <Gold.Chemscore.Hbonds>
donor molecule, donor type, donor heavy atom, donor atom, acceptor molecule, acceptor atom, score
      L1  H     4    24       P1  8028  1.00
      L1  H    13    18       P1  7949  1.00
      P1  H  7997  8009       L1     9  0.75
      P1  H 10752 10765       L1    11  0.34
      L1  C    14    30       P1  7948  0.49
      L1  C    14    30       P1  7957  0.75

> <Gold.PLP.Chemscore.Internal.Correction>
0.2557

> <Gold.Rescore>
     Score         DG    S(hbond)    S(metal)    S(lipo)     H(rot)  DE(clash)    DE(int)     intcor
     15.66     -19.28       2.19        0.00      86.64       1.43       3.48       0.15       ----

> <Gold.Chemscore.Fitness>
15.6609

> <Gold.Chemscore.DG>
-19.2845

> <Gold.Chemscore.ZeroCoef>
-5.4800

> <Gold.Chemscore.Hbond>
2.1928

> <Gold.Chemscore.Metal>
0.0000

> <Gold.Chemscore.Lipo>
86.6435

> <Gold.Chemscore.Internal_Hbond>
0.0000

> <Gold.Chemscore.DEClash>
3.4765

> <Gold.Chemscore.DEInternal>
0.1471

> <Gold.Chemscore.Rot>
1.4283

> <Gold.Chemscore.Internal.Correction>
   9.000000E+99

> <Gold.Chemscore.Hbonds>
donor molecule, donor type, donor heavy atom, donor atom, acceptor molecule, acceptor atom, score
      L1  H     4    24       P1  8028  0.30
      L1  H    13    18       P1  7949  0.64
      P1  H  7997  8009       L1     9  0.07
      P1  H 10752 10765       L1    11  0.32

> <Gold.Chemscore.Hbond.Weighted>
-7.3238

> <Gold.Chemscore.Metal.Weighted>
-0.0000

> <Gold.Chemscore.Lipo.Weighted>
-10.1373

> <Gold.Chemscore.Internal_Hbond.Weighted>
0.0000

> <Gold.Chemscore.DEClash.Weighted>
3.4765

> <Gold.Chemscore.DEInternal.Weighted>
0.1471

> <Gold.Chemscore.Rot.Weighted>
3.6566

> <Gold.Chemscore.Internal.Correction.Weighted>
   9.000000E+99

> <Gold.Protein.RotatedTorsions>
[ 6907 6896 6895 6894 ] final  153.60 input  -60.11 | X-H torsion
[ 7974 7965 7964 7962 ] final -136.53 input  175.53 | X-H torsion
[ 8008 7997 7996 7995 ] final  156.25 input   59.86 | X-H torsion
[ 10167 10162 10161 10158 ] final -134.89 input  -65.29 | X-H torsion
[ 10718 10713 10712 10709 ] final -143.24 input   66.30 | X-H torsion
[ 10763 10752 10751 10750 ] final -159.26 input  -60.55 | X-H torsion
[ 11005 11000 10999 10996 ] final  -84.19 input  -57.11 | X-H torsion

> <Gold.Protein.ActiveResidues>
 VAL166  LYS551  ARG553  GLY616  TRP617  ASP618  TYR619  PRO620  LYS621  CYS622 
 ASP623  PHE694  ASN695  SER759  ASP760  ASP761  ALA762  ILE779  LEU786  VAL792 
 PHE793  MET794  SER795  GLU796  ALA797  LYS798  CYS799  TRP800  GLU811  SER814 

> <Gold.Protein.RotatedAtoms>
  152.0703  133.4103  159.4456 H   0  0  0  0  0  0  0  0  0  0  0  0  # atno 6907 bound_to 6896
  150.6863  134.3099  159.4751 H   0  0  0  0  0  0  0  0  0  0  0  0  # atno 6908 bound_to 6896
  152.0930  134.9394  160.0622 H   0  0  0  0  0  0  0  0  0  0  0  0  # atno 6909 bound_to 6896
  144.8919  140.6654  143.5140 H   0  0  0  0  0  0  0  0  0  0  0  0  # atno 7974 bound_to 7965
  156.2433  140.1917  156.6927 H   0  0  0  0  0  0  0  0  0  0  0  0  # atno 8008 bound_to 7997
  154.6240  140.0605  156.9676 H   0  0  0  0  0  0  0  0  0  0  0  0  # atno 8009 bound_to 7997
  155.1817  140.3277  155.4376 H   0  0  0  0  0  0  0  0  0  0  0  0  # atno 8010 bound_to 7997
  139.8835  143.6810  152.2623 H   0  0  0  0  0  0  0  0  0  0  0  0  # atno 10167 bound_to 10162
  156.3555  130.7711  151.1870 H   0  0  0  0  0  0  0  0  0  0  0  0  # atno 10718 bound_to 10713
  154.7489  135.3087  154.8593 H   0  0  0  0  0  0  0  0  0  0  0  0  # atno 10763 bound_to 10752
  153.9386  135.6777  153.4749 H   0  0  0  0  0  0  0  0  0  0  0  0  # atno 10764 bound_to 10752
  153.1085  135.4877  154.8921 H   0  0  0  0  0  0  0  0  0  0  0  0  # atno 10765 bound_to 10752
  141.1652  133.7333  156.8831 H   0  0  0  0  0  0  0  0  0  0  0  0  # atno 11005 bound_to 11000
  145.3767  139.1646  143.4302 LP  0  0  0  0  0  0  0  0  0  0  0  0  # atno 17320 bound_to 7965
  146.3059  140.3844  142.8687 LP  0  0  0  0  0  0  0  0  0  0  0  0  # atno 17321 bound_to 7965
  139.7174  144.7609  151.1011 LP  0  0  0  0  0  0  0  0  0  0  0  0  # atno 17342 bound_to 10162
  140.7740  143.5251  150.9490 LP  0  0  0  0  0  0  0  0  0  0  0  0  # atno 17343 bound_to 10162
  157.7467  131.0415  150.4649 LP  0  0  0  0  0  0  0  0  0  0  0  0  # atno 17370 bound_to 10713
  156.4851  130.4082  149.6439 LP  0  0  0  0  0  0  0  0  0  0  0  0  # atno 17371 bound_to 10713
  140.1701  134.9106  157.2823 LP  0  0  0  0  0  0  0  0  0  0  0  0  # atno 17394 bound_to 11000
  140.2512  134.3681  155.7442 LP  0  0  0  0  0  0  0  0  0  0  0  0  # atno 17395 bound_to 11000

$$$$
