AV-unprocessed.smi:1641|AV-procd|sdf|6558|dock7
  -GOLD-   22720 7243D 1   1.00000     0.00000
 Structure written by MMmdl.
 41 42  0  0  0  0  0  0  0  0  1 V2000
  145.0376  130.5945  151.6316 C   0  0  0  0  0  0  0  0  0  0  0  0
  145.1873  132.0745  151.7254 C   0  0  0  0  0  0  0  0  0  0  0  0
  144.1396  132.9074  151.7278 N   0  0  0  0  0  0  0  0  0  0  0  0
  144.5247  134.2374  151.8254 N   0  0  0  0  0  0  0  0  0  0  0  0
  145.8568  134.3680  151.8928 C   0  0  0  0  0  0  0  0  0  0  0  0
  146.5237  135.6172  151.9975 N   0  0  0  0  0  0  0  0  0  0  0  0
  146.0099  136.8094  152.3471 C   0  0  0  0  0  0  0  0  0  0  0  0
  144.8376  137.0128  152.6640 O   0  0  0  0  0  0  0  0  0  0  0  0
  146.9464  137.7690  152.3111 N   0  0  0  0  0  0  0  0  0  0  0  0
  146.7230  139.1803  152.6103 C   0  0  0  0  0  0  0  0  0  0  0  0
  146.7026  139.4443  154.1293 C   0  0  0  0  0  0  0  0  0  0  0  0
  148.0048  139.7151  154.7375 N   0  0  0  0  0  0  0  0  0  0  0  0
  149.0359  138.7766  154.3060 C   0  0  0  0  0  0  0  0  0  0  0  0
  150.3823  139.0521  154.9987 C   0  0  1  0  0  0  0  0  0  0  0  0
  151.4925  138.1275  154.4892 C   0  0  0  0  0  0  0  0  0  0  0  0
  150.7768  140.4011  154.7514 O   0  0  0  0  0  0  0  0  0  0  0  0
  149.8123  141.3930  155.1085 C   0  0  2  0  0  0  0  0  0  0  0  0
  149.7239  141.5793  156.6331 C   0  0  0  0  0  0  0  0  0  0  0  0
  148.4534  141.0731  154.4545 C   0  0  0  0  0  0  0  0  0  0  0  0
  146.7568  132.8623  151.8343 S   0  0  0  0  0  0  0  0  0  0  0  0
  144.1753  130.2634  152.2110 H   0  0  0  0  0  0  0  0  0  0  0  0
  145.9277  130.0990  152.0202 H   0  0  0  0  0  0  0  0  0  0  0  0
  144.8971  130.2995  150.5919 H   0  0  0  0  0  0  0  0  0  0  0  0
  147.5090  135.6009  151.7800 H   0  0  0  0  0  0  0  0  0  0  0  0
  147.8833  137.5072  152.0420 H   0  0  0  0  0  0  0  0  0  0  0  0
  147.4447  139.8139  152.0941 H   0  0  0  0  0  0  0  0  0  0  0  0
  145.7505  139.4459  152.1955 H   0  0  0  0  0  0  0  0  0  0  0  0
  146.0262  140.2739  154.3399 H   0  0  0  0  0  0  0  0  0  0  0  0
  146.2576  138.5720  154.6104 H   0  0  0  0  0  0  0  0  0  0  0  0
  148.7364  137.7533  154.5275 H   0  0  0  0  0  0  0  0  0  0  0  0
  149.1606  138.8370  153.2237 H   0  0  0  0  0  0  0  0  0  0  0  0
  150.2754  138.8969  156.0729 H   0  0  0  0  0  0  0  0  0  0  0  0
  151.2454  137.0815  154.6724 H   0  0  0  0  0  0  0  0  0  0  0  0
  152.4368  138.3385  154.9918 H   0  0  0  0  0  0  0  0  0  0  0  0
  151.6493  138.2525  153.4173 H   0  0  0  0  0  0  0  0  0  0  0  0
  150.1719  142.3345  154.6924 H   0  0  0  0  0  0  0  0  0  0  0  0
  149.0694  142.4142  156.8836 H   0  0  0  0  0  0  0  0  0  0  0  0
  150.7059  141.7905  157.0565 H   0  0  0  0  0  0  0  0  0  0  0  0
  149.3272  140.6955  157.1328 H   0  0  0  0  0  0  0  0  0  0  0  0
  148.5389  141.2084  153.3750 H   0  0  0  0  0  0  0  0  0  0  0  0
  147.7078  141.7923  154.7954 H   0  0  0  0  0  0  0  0  0  0  0  0
  1  2  1  0  0  0  0
  1 21  1  0  0  0  0
  1 22  1  0  0  0  0
  1 23  1  0  0  0  0
  2 20  1  0  0  0  0
  2  3  2  0  0  0  0
  3  4  1  0  0  0  0
  4  5  2  0  0  0  0
  5  6  1  0  0  0  0
  5 20  1  0  0  0  0
  6  7  1  0  0  0  0
  6 24  1  0  0  0  0
  7  8  2  0  0  0  0
  7  9  1  0  0  0  0
  9 10  1  0  0  0  0
  9 25  1  0  0  0  0
 10 11  1  0  0  0  0
 10 26  1  0  0  0  0
 10 27  1  0  0  0  0
 11 12  1  0  0  0  0
 11 28  1  0  0  0  0
 11 29  1  0  0  0  0
 12 19  1  0  0  0  0
 12 13  1  0  0  0  0
 13 14  1  0  0  0  0
 13 30  1  0  0  0  0
 13 31  1  0  0  0  0
 14 15  1  0  0  0  0
 14 16  1  0  0  0  0
 14 32  1  0  0  0  0
 15 33  1  0  0  0  0
 15 34  1  0  0  0  0
 15 35  1  0  0  0  0
 16 17  1  0  0  0  0
 17 18  1  0  0  0  0
 17 19  1  0  0  0  0
 17 36  1  0  0  0  0
 18 37  1  0  0  0  0
 18 38  1  0  0  0  0
 18 39  1  0  0  0  0
 19 40  1  0  0  0  0
 19 41  1  0  0  0  0
M  END
> <s_m_source_file>
AV-unprocessed.smi

> <i_m_source_file_index>
1641

> <i_lp_mmshare_version>
43012

> <i_f3d_flags>
0

> <s_epik_input>
W0NIM11jMW5uYyhzMSlbTkhdQyg9TylbTkhdW0NIMl1bQ0gyXU4yW0NIMl1bQ0BASF0oW0NIM10pT1tDQEBIXShbQ0gzXSlbQ0gyXTI=

> <s_epik_cmdline>
J2VwaWtfcHl0aG9uJywgJy1waCcsICc3LjAnLCAnLXRuJywgJzgnLCAnLW1hJywgJzIwMCcsICctbWV0YWxfYmluZGluZycsICctaW1hZScsICc8aW5maWxlLm1hZT4nLCAnLW9tYWUnLCAnPG91dGZpbGUubWFlPic=

> <r_lp_tautomer_probability>
1

> <r_epik_Ionization_Penalty>
0.221104

> <r_epik_Ionization_Penalty_Charging>
0

> <r_epik_Ionization_Penalty_Neutral>
0.221104

> <r_epik_State_Penalty>
0.209349

> <r_epik_Charging_Adjusted_Penalty>
0.209349

> <i_epik_Tot_Q>
0

> <i_epik_Tot_abs_Q>
0

> <r_epik_Metal_State_Penalty>
0.560954

> <b_epik_Metal_Only>
0

> <s_lp_Force_Field>
OPLS_2005

> <r_lp_Energy>
25.2137

> <b_lp_Chiralities_Consistent>
1

> <s_lp_Variant>
AV-unprocessed.smi:1641-3

> <Gold.Version>
5.8.1

> <Gold.Id.Protein>
6NUR|6NUR_protein|mol2

> <Gold.PLP.Fitness>
40.4797

> <Gold.PLP.PLP>
-32.7986

> <Gold.PLP.part.hbond>
-2.8292

> <Gold.PLP.part.metal>
0.0000

> <Gold.PLP.part.buried>
-4.6982

> <Gold.PLP.part.nonpolar>
-26.8899

> <Gold.PLP.part.repulsive>
0.7922

> <Gold.PLP.ligand.clash>
0.0000

> <Gold.PLP.ligand.torsion>
0.4856

> <Gold.PLP.Chemscore.Hbond>
2.8800

> <Gold.PLP.Chemscore.CHOScore>
0.0000

> <Gold.PLP.Chemscore.Metal>
0.0000

> <Gold.Chemscore.Hbonds>
donor molecule, donor type, donor heavy atom, donor atom, acceptor molecule, acceptor atom, score
      L1  H     6    24       P1  7948  1.00
      L1  H     9    25       P1  7948  0.93
      P1  H  7989  7998       L1    16  1.00

> <Gold.PLP.Chemscore.Internal.Correction>
0.0124

> <Gold.Rescore>
     Score         DG    S(hbond)    S(metal)    S(lipo)     H(rot)  DE(clash)    DE(int)     intcor
     17.95     -19.91       2.81        0.00      78.00       1.60       0.13       1.84       ----

> <Gold.Chemscore.Fitness>
17.9502

> <Gold.Chemscore.DG>
-19.9143

> <Gold.Chemscore.ZeroCoef>
-5.4800

> <Gold.Chemscore.Hbond>
2.8138

> <Gold.Chemscore.Metal>
0.0000

> <Gold.Chemscore.Lipo>
77.9978

> <Gold.Chemscore.Internal_Hbond>
0.0000

> <Gold.Chemscore.DEClash>
0.1288

> <Gold.Chemscore.DEInternal>
1.8352

> <Gold.Chemscore.Rot>
1.5975

> <Gold.Chemscore.Internal.Correction>
   9.000000E+99

> <Gold.Chemscore.Hbonds>
donor molecule, donor type, donor heavy atom, donor atom, acceptor molecule, acceptor atom, score
      L1  H     6    24       P1  7948  0.91
      L1  H     9    25       P1  7948  0.89
      P1  H  7989  7998       L1    16  0.72

> <Gold.Chemscore.Hbond.Weighted>
-9.3981

> <Gold.Chemscore.Metal.Weighted>
-0.0000

> <Gold.Chemscore.Lipo.Weighted>
-9.1257

> <Gold.Chemscore.Internal_Hbond.Weighted>
0.0000

> <Gold.Chemscore.DEClash.Weighted>
0.1288

> <Gold.Chemscore.DEInternal.Weighted>
1.8352

> <Gold.Chemscore.Rot.Weighted>
4.0896

> <Gold.Chemscore.Internal.Correction.Weighted>
   9.000000E+99

> <Gold.Protein.RotatedTorsions>
[ 6907 6896 6895 6894 ] final   29.74 input  -60.11 | X-H torsion
[ 7974 7965 7964 7962 ] final   28.88 input  175.53 | X-H torsion
[ 8008 7997 7996 7995 ] final   73.43 input   59.86 | X-H torsion
[ 10167 10162 10161 10158 ] final  -25.39 input  -65.29 | X-H torsion
[ 10718 10713 10712 10709 ] final  -66.44 input   66.30 | X-H torsion
[ 10763 10752 10751 10750 ] final   47.78 input  -60.55 | X-H torsion
[ 11005 11000 10999 10996 ] final   68.19 input  -57.11 | X-H torsion

> <Gold.Protein.ActiveResidues>
 VAL166  LYS551  ARG553  GLY616  TRP617  ASP618  TYR619  PRO620  LYS621  CYS622 
 ASP623  PHE694  ASN695  SER759  ASP760  ASP761  ALA762  ILE779  LEU786  VAL792 
 PHE793  MET794  SER795  GLU796  ALA797  LYS798  CYS799  TRP800  GLU811  SER814 

> <Gold.Protein.RotatedAtoms>
  152.0359  134.9740  160.0573 H   0  0  0  0  0  0  0  0  0  0  0  0  # atno 6907 bound_to 6896
  152.1199  133.4342  159.4679 H   0  0  0  0  0  0  0  0  0  0  0  0  # atno 6908 bound_to 6896
  150.6848  134.2466  159.4537 H   0  0  0  0  0  0  0  0  0  0  0  0  # atno 6909 bound_to 6896
  146.1704  139.6997  142.8972 H   0  0  0  0  0  0  0  0  0  0  0  0  # atno 7974 bound_to 7965
  155.7835  140.3481  155.5310 H   0  0  0  0  0  0  0  0  0  0  0  0  # atno 8008 bound_to 7997
  155.8704  140.0985  157.1574 H   0  0  0  0  0  0  0  0  0  0  0  0  # atno 8009 bound_to 7997
  154.4017  140.1341  156.4059 H   0  0  0  0  0  0  0  0  0  0  0  0  # atno 8010 bound_to 7997
  140.7286  143.4269  151.0863 H   0  0  0  0  0  0  0  0  0  0  0  0  # atno 10167 bound_to 10162
  156.0612  130.4262  150.1709 H   0  0  0  0  0  0  0  0  0  0  0  0  # atno 10718 bound_to 10713
  152.9797  135.5965  154.3818 H   0  0  0  0  0  0  0  0  0  0  0  0  # atno 10763 bound_to 10752
  154.3482  135.2767  155.2388 H   0  0  0  0  0  0  0  0  0  0  0  0  # atno 10764 bound_to 10752
  154.4439  135.6006  153.6202 H   0  0  0  0  0  0  0  0  0  0  0  0  # atno 10765 bound_to 10752
  139.9726  134.6875  156.0417 H   0  0  0  0  0  0  0  0  0  0  0  0  # atno 11005 bound_to 11000
  145.4356  141.0418  143.2886 LP  0  0  0  0  0  0  0  0  0  0  0  0  # atno 17320 bound_to 7965
  144.8154  139.5886  143.7011 LP  0  0  0  0  0  0  0  0  0  0  0  0  # atno 17321 bound_to 7965
  139.7921  143.8203  152.3153 LP  0  0  0  0  0  0  0  0  0  0  0  0  # atno 17342 bound_to 10162
  139.8191  144.7303  150.9596 LP  0  0  0  0  0  0  0  0  0  0  0  0  # atno 17343 bound_to 10162
  156.9777  130.9854  151.3444 LP  0  0  0  0  0  0  0  0  0  0  0  0  # atno 17370 bound_to 10713
  157.5622  130.8254  149.8281 LP  0  0  0  0  0  0  0  0  0  0  0  0  # atno 17371 bound_to 10713
  141.1405  133.6566  156.3715 LP  0  0  0  0  0  0  0  0  0  0  0  0  # atno 17394 bound_to 11000
  140.5262  134.6257  157.5335 LP  0  0  0  0  0  0  0  0  0  0  0  0  # atno 17395 bound_to 11000

$$$$
