AV-unprocessed.smi:1586|AV-procd|sdf|6379|dock9
  -GOLD-   22720 7 13D 1   1.00000     0.00000
 Structure written by MMmdl.
 46 47  0  0  0  0  0  0  0  0  3 V2000
  151.9169  144.7584  159.0515 C   0  0  0  0  0  0  0  0  0  0  0  0
  150.5713  144.0278  159.1631 C   0  0  0  0  0  0  0  0  0  0  0  0
  150.2477  143.2369  157.9498 N   0  3  0  0  0  0  0  0  0  0  0  0
  148.9845  142.4731  158.0982 C   0  0  0  0  0  0  0  0  0  0  0  0
  148.6691  141.6874  156.8078 C   0  0  0  0  0  0  0  0  0  0  0  0
  149.7411  140.7398  156.4702 N   0  0  0  0  0  0  0  0  0  0  0  0
  149.9169  139.6091  157.4116 C   0  0  2  0  0  0  0  0  0  0  0  0
  151.2559  138.8815  157.1401 C   0  0  0  0  0  0  0  0  0  0  0  0
  148.7250  138.6168  157.3299 C   0  0  0  0  0  0  0  0  0  0  0  0
  149.0156  137.3417  157.9810 N   0  0  0  0  0  0  0  0  0  0  0  0
  148.4233  136.8495  159.0787 C   0  0  0  0  0  0  0  0  0  0  0  0
  147.5343  137.4914  159.6422 O   0  0  0  0  0  0  0  0  0  0  0  0
  148.8926  135.6350  159.4453 N   0  5  0  0  0  0  0  0  0  0  0  0
  148.1001  134.7739  160.1020 C   0  0  0  0  0  0  0  0  0  0  0  0
  147.1788  135.1079  161.1320 C   0  0  0  0  0  0  0  0  0  0  0  0
  146.6166  133.9044  161.4504 C   0  0  0  0  0  0  0  0  0  0  0  0
  145.5791  133.5040  162.4431 C   0  0  0  0  0  0  0  0  0  0  0  0
  147.1421  132.9181  160.6752 O   0  0  0  0  0  0  0  0  0  0  0  0
  148.0867  133.4841  159.8104 N   0  0  0  0  0  0  0  0  0  0  0  0
  150.9406  141.5595  156.2437 C   0  0  0  0  0  0  0  0  0  0  0  0
  151.3497  142.3436  157.5094 C   0  0  0  0  0  0  0  0  0  0  0  0
  152.0756  145.4014  159.9175 H   0  0  0  0  0  0  0  0  0  0  0  0
  151.9509  145.3890  158.1627 H   0  0  0  0  0  0  0  0  0  0  0  0
  152.7565  144.0654  159.0075 H   0  0  0  0  0  0  0  0  0  0  0  0
  150.5549  143.3847  160.0443 H   0  0  0  0  0  0  0  0  0  0  0  0
  149.7947  144.7787  159.3140 H   0  0  0  0  0  0  0  0  0  0  0  0
  149.0410  141.8094  158.9619 H   0  0  0  0  0  0  0  0  0  0  0  0
  148.1689  143.1691  158.2971 H   0  0  0  0  0  0  0  0  0  0  0  0
  147.7036  141.1914  156.8825 H   0  0  0  0  0  0  0  0  0  0  0  0
  148.5527  142.3896  155.9808 H   0  0  0  0  0  0  0  0  0  0  0  0
  149.9536  139.9885  158.4318 H   0  0  0  0  0  0  0  0  0  0  0  0
  151.3837  138.0136  157.7855 H   0  0  0  0  0  0  0  0  0  0  0  0
  152.1220  139.5098  157.3414 H   0  0  0  0  0  0  0  0  0  0  0  0
  151.3171  138.5331  156.1085 H   0  0  0  0  0  0  0  0  0  0  0  0
  147.8570  138.9966  157.8647 H   0  0  0  0  0  0  0  0  0  0  0  0
  148.4117  138.4775  156.2939 H   0  0  0  0  0  0  0  0  0  0  0  0
  149.7369  136.7743  157.5608 H   0  0  0  0  0  0  0  0  0  0  0  0
  146.9683  136.0733  161.5669 H   0  0  0  0  0  0  0  0  0  0  0  0
  144.6080  133.9186  162.1728 H   0  0  0  0  0  0  0  0  0  0  0  0
  145.8373  133.8677  163.4376 H   0  0  0  0  0  0  0  0  0  0  0  0
  145.4813  132.4194  162.4953 H   0  0  0  0  0  0  0  0  0  0  0  0
  151.7710  140.9595  155.8769 H   0  0  0  0  0  0  0  0  0  0  0  0
  150.7335  142.2644  155.4373 H   0  0  0  0  0  0  0  0  0  0  0  0
  152.2329  142.9375  157.2765 H   0  0  0  0  0  0  0  0  0  0  0  0
  151.6372  141.6682  158.3158 H   0  0  0  0  0  0  0  0  0  0  0  0
  150.0892  143.8967  157.2018 H   0  0  0  0  0  0  0  0  0  0  0  0
  1  2  1  0  0  0  0
  1 22  1  0  0  0  0
  1 23  1  0  0  0  0
  1 24  1  0  0  0  0
  2  3  1  0  0  0  0
  2 25  1  0  0  0  0
  2 26  1  0  0  0  0
  3 21  1  0  0  0  0
  3  4  1  0  0  0  0
  3 46  1  0  0  0  0
  4  5  1  0  0  0  0
  4 27  1  0  0  0  0
  4 28  1  0  0  0  0
  5  6  1  0  0  0  0
  5 29  1  0  0  0  0
  5 30  1  0  0  0  0
  6  7  1  0  0  0  0
  6 20  1  0  0  0  0
  7  8  1  0  0  0  0
  7  9  1  0  0  0  0
  7 31  1  0  0  0  0
  8 32  1  0  0  0  0
  8 33  1  0  0  0  0
  8 34  1  0  0  0  0
  9 10  1  0  0  0  0
  9 35  1  0  0  0  0
  9 36  1  0  0  0  0
 10 11  1  0  0  0  0
 10 37  1  0  0  0  0
 11 12  2  0  0  0  0
 11 13  1  0  0  0  0
 13 14  1  0  0  0  0
 14 19  2  0  0  0  0
 14 15  1  0  0  0  0
 15 16  2  0  0  0  0
 15 38  1  0  0  0  0
 16 17  1  0  0  0  0
 16 18  1  0  0  0  0
 17 39  1  0  0  0  0
 17 40  1  0  0  0  0
 17 41  1  0  0  0  0
 18 19  1  0  0  0  0
 20 21  1  0  0  0  0
 20 42  1  0  0  0  0
 20 43  1  0  0  0  0
 21 44  1  0  0  0  0
 21 45  1  0  0  0  0
M  CHG  1   3   1
M  CHG  1  13  -1
M  END
> <s_m_source_file>
AV-unprocessed.smi

> <i_m_source_file_index>
1586

> <i_lp_mmshare_version>
43012

> <i_f3d_flags>
0

> <s_epik_input>
W0NIM11bQ0gyXU4xW0NIMl1bQ0gyXU4oW0NIMl1bQ0gyXTEpW0NASF0oW0NIM10pW0NIMl1bTkhdQyg9TylbTkhdYzJbY0hdYyhbQ0gzXSlvbjI=

> <s_epik_cmdline>
J2VwaWtfcHl0aG9uJywgJy1waCcsICc3LjAnLCAnLXRuJywgJzgnLCAnLW1hJywgJzIwMCcsICctbWV0YWxfYmluZGluZycsICctaW1hZScsICc8aW5maWxlLm1hZT4nLCAnLW9tYWUnLCAnPG91dGZpbGUubWFlPic=

> <r_epik_Ionization_Penalty>
6.66134

> <r_epik_Ionization_Penalty_Charging>
6.66063

> <r_epik_Ionization_Penalty_Neutral>
0.000714131

> <r_epik_State_Penalty>
6.77843

> <r_epik_Charging_Adjusted_Penalty>
13.4391

> <i_epik_Tot_Q>
0

> <i_epik_Tot_abs_Q>
2

> <r_epik_Metal_State_Penalty>
2.70494

> <b_epik_Metal_Only>
1

> <s_lp_Force_Field>
OPLS_2005

> <r_lp_Energy>
11.4851

> <b_lp_Chiralities_Consistent>
1

> <s_lp_Variant>
AV-unprocessed.smi:1586-7

> <Gold.Version>
5.8.1

> <Gold.Id.Protein>
6NUR|6NUR_protein|mol2

> <Gold.PLP.Fitness>
43.0741

> <Gold.PLP.PLP>
-30.3507

> <Gold.PLP.part.hbond>
-3.0000

> <Gold.PLP.part.metal>
0.0000

> <Gold.PLP.part.buried>
-4.7924

> <Gold.PLP.part.nonpolar>
-22.3492

> <Gold.PLP.part.repulsive>
0.1682

> <Gold.PLP.ligand.clash>
0.0000

> <Gold.PLP.ligand.torsion>
0.8417

> <Gold.PLP.Chemscore.Hbond>
4.7520

> <Gold.PLP.Chemscore.CHOScore>
0.0000

> <Gold.PLP.Chemscore.Metal>
0.0000

> <Gold.Chemscore.Hbonds>
donor molecule, donor type, donor heavy atom, donor atom, acceptor molecule, acceptor atom, score
      L1  H     3    46       P1  8028  1.62
      P1  H  6896  6909       L1    13  1.89
      P1  H  6934  6947       L1    12  0.77

> <Gold.PLP.Chemscore.Internal.Correction>
0.1509

> <Gold.Rescore>
     Score         DG    S(hbond)    S(metal)    S(lipo)     H(rot)  DE(clash)    DE(int)     intcor
     14.59     -16.83       2.10        0.00      74.98       1.73       0.00       2.25       ----

> <Gold.Chemscore.Fitness>
14.5851

> <Gold.Chemscore.DG>
-16.8344

> <Gold.Chemscore.ZeroCoef>
-5.4800

> <Gold.Chemscore.Hbond>
2.0951

> <Gold.Chemscore.Metal>
0.0000

> <Gold.Chemscore.Lipo>
74.9826

> <Gold.Chemscore.Internal_Hbond>
0.0000

> <Gold.Chemscore.DEClash>
0.0038

> <Gold.Chemscore.DEInternal>
2.2455

> <Gold.Chemscore.Rot>
1.7250

> <Gold.Chemscore.Internal.Correction>
   9.000000E+99

> <Gold.Chemscore.Hbonds>
donor molecule, donor type, donor heavy atom, donor atom, acceptor molecule, acceptor atom, score
      L1  H     3    46       P1  8028  0.70
      P1  H  6896  6909       L1    13  0.27
      P1  H  6934  6947       L1    12  0.72

> <Gold.Chemscore.Hbond.Weighted>
-6.9975

> <Gold.Chemscore.Metal.Weighted>
-0.0000

> <Gold.Chemscore.Lipo.Weighted>
-8.7730

> <Gold.Chemscore.Internal_Hbond.Weighted>
0.0000

> <Gold.Chemscore.DEClash.Weighted>
0.0038

> <Gold.Chemscore.DEInternal.Weighted>
2.2455

> <Gold.Chemscore.Rot.Weighted>
4.4161

> <Gold.Chemscore.Internal.Correction.Weighted>
   9.000000E+99

> <Gold.Protein.RotatedTorsions>
[ 6907 6896 6895 6894 ] final   58.21 input  -60.11 | X-H torsion
[ 7974 7965 7964 7962 ] final   23.62 input  175.53 | X-H torsion
[ 8008 7997 7996 7995 ] final  121.71 input   59.86 | X-H torsion
[ 10167 10162 10161 10158 ] final -133.99 input  -65.29 | X-H torsion
[ 10718 10713 10712 10709 ] final  153.92 input   66.30 | X-H torsion
[ 10763 10752 10751 10750 ] final -131.99 input  -60.55 | X-H torsion
[ 11005 11000 10999 10996 ] final  -89.37 input  -57.11 | X-H torsion

> <Gold.Protein.ActiveResidues>
 VAL166  LYS551  ARG553  GLY616  TRP617  ASP618  TYR619  PRO620  LYS621  CYS622 
 ASP623  PHE694  ASN695  SER759  ASP760  ASP761  ALA762  ILE779  LEU786  VAL792 
 PHE793  MET794  SER795  GLU796  ALA797  LYS798  CYS799  TRP800  GLU811  SER814 

> <Gold.Protein.RotatedAtoms>
  152.3803  134.6600  160.0144 H   0  0  0  0  0  0  0  0  0  0  0  0  # atno 6907 bound_to 6896
  151.6865  133.3306  159.3240 H   0  0  0  0  0  0  0  0  0  0  0  0  # atno 6908 bound_to 6896
  150.7742  134.6671  159.6416 H   0  0  0  0  0  0  0  0  0  0  0  0  # atno 6909 bound_to 6896
  146.1976  139.7719  142.8786 H   0  0  0  0  0  0  0  0  0  0  0  0  # atno 7974 bound_to 7965
  156.2698  140.2802  156.1351 H   0  0  0  0  0  0  0  0  0  0  0  0  # atno 8008 bound_to 7997
  155.1013  140.0389  157.2715 H   0  0  0  0  0  0  0  0  0  0  0  0  # atno 8009 bound_to 7997
  154.6813  140.2609  155.6911 H   0  0  0  0  0  0  0  0  0  0  0  0  # atno 8010 bound_to 7997
  139.8926  143.6704  152.2609 H   0  0  0  0  0  0  0  0  0  0  0  0  # atno 10167 bound_to 10162
  157.2384  131.0754  151.1808 H   0  0  0  0  0  0  0  0  0  0  0  0  # atno 10718 bound_to 10713
  154.8747  135.3812  154.4337 H   0  0  0  0  0  0  0  0  0  0  0  0  # atno 10763 bound_to 10752
  153.5028  135.7030  153.5827 H   0  0  0  0  0  0  0  0  0  0  0  0  # atno 10764 bound_to 10752
  153.4152  135.3915  155.2042 H   0  0  0  0  0  0  0  0  0  0  0  0  # atno 10765 bound_to 10752
  141.1586  133.7626  156.9586 H   0  0  0  0  0  0  0  0  0  0  0  0  # atno 11005 bound_to 11000
  145.3593  141.0322  143.3294 LP  0  0  0  0  0  0  0  0  0  0  0  0  # atno 17320 bound_to 7965
  144.8613  139.5173  143.6811 LP  0  0  0  0  0  0  0  0  0  0  0  0  # atno 17321 bound_to 7965
  139.7096  144.7622  151.1134 LP  0  0  0  0  0  0  0  0  0  0  0  0  # atno 17342 bound_to 10162
  140.7723  143.5348  150.9381 LP  0  0  0  0  0  0  0  0  0  0  0  0  # atno 17343 bound_to 10162
  157.3404  130.7030  149.6378 LP  0  0  0  0  0  0  0  0  0  0  0  0  # atno 17370 bound_to 10713
  155.9671  130.4281  150.4775 LP  0  0  0  0  0  0  0  0  0  0  0  0  # atno 17371 bound_to 10713
  140.1209  134.9418  157.2201 LP  0  0  0  0  0  0  0  0  0  0  0  0  # atno 17394 bound_to 11000
  140.3074  134.3063  155.7275 LP  0  0  0  0  0  0  0  0  0  0  0  0  # atno 17395 bound_to 11000

$$$$
