AV-unprocessed.smi:77|AV-procd|sdf|772|dock6
  -GOLD-   2262017123D 1   1.00000     0.00000
 Structure written by MMmdl.
 57 61  0  0  0  0  0  0  0  0  1 V2000
  151.1172  143.2362  156.6500 O   0  0  0  0  0  0  0  0  0  0  0  0
  151.0743  142.5167  157.6485 C   0  0  0  0  0  0  0  0  0  0  0  0
  150.4675  141.1112  157.5637 C   0  0  0  0  0  0  0  0  0  0  0  0
  150.1989  140.6980  156.1822 N   0  0  0  0  0  0  0  0  0  0  0  0
  150.8395  139.5625  155.8223 C   0  0  0  0  0  0  0  0  0  0  0  0
  151.8308  139.6103  154.8937 N   0  0  0  0  0  0  0  0  0  0  0  0
  152.4337  138.4821  154.5060 C   0  0  0  0  0  0  0  0  0  0  0  0
  152.1960  137.2292  154.9018 N   0  0  0  0  0  0  0  0  0  0  0  0
  151.2042  137.1843  155.8372 C   0  0  0  0  0  0  0  0  0  0  0  0
  150.4896  138.2967  156.3596 C   0  0  0  0  0  0  0  0  0  0  0  0
  149.5666  137.8718  157.3062 N   0  0  0  0  0  0  0  0  0  0  0  0
  149.7109  136.5751  157.3273 C   0  0  0  0  0  0  0  0  0  0  0  0
  150.6501  136.0757  156.4522 N   0  0  0  0  0  0  0  0  0  0  0  0
  150.9916  134.6802  156.2496 C   0  0  0  0  0  0  0  0  0  0  0  0
  149.8107  133.7856  155.7766 C   0  0  1  0  0  0  0  0  0  0  0  0
  149.4434  134.1638  154.3210 C   0  0  0  0  0  0  0  0  0  0  0  0
  148.7806  135.4101  154.2633 O   0  0  0  0  0  0  0  0  0  0  0  0
  150.0963  132.2586  155.9194 C   0  0  2  0  0  0  0  0  0  0  0  0
  151.5484  131.8506  155.7135 C   0  0  0  0  0  0  0  0  0  0  0  0
  151.4336  130.3594  155.4386 C   0  0  0  0  0  0  0  0  0  0  0  0
  150.2766  130.2497  154.6281 O   0  0  0  0  0  0  0  0  0  0  0  0
  149.4048  131.3454  154.8886 C   0  0  0  0  0  0  0  0  0  0  0  0
  148.8087  140.7427  155.7495 C   0  0  0  0  0  0  0  0  0  0  0  0
  148.4620  140.3062  154.3444 C   0  0  0  0  0  0  0  0  0  0  0  0
  148.4135  141.7706  154.7174 C   0  0  0  0  0  0  0  0  0  0  0  0
  151.5198  142.8977  158.8546 N   0  0  0  0  0  0  0  0  0  0  0  0
  152.1239  144.1549  159.1562 C   0  0  0  0  0  0  0  0  0  0  0  0
  151.6330  144.8940  160.3819 C   0  0  0  0  0  0  0  0  0  0  0  0
  151.2703  145.3964  159.0119 C   0  0  0  0  0  0  0  0  0  0  0  0
  151.1142  140.3862  158.0623 H   0  0  0  0  0  0  0  0  0  0  0  0
  149.5326  141.1216  158.1255 H   0  0  0  0  0  0  0  0  0  0  0  0
  153.2109  138.5982  153.7650 H   0  0  0  0  0  0  0  0  0  0  0  0
  149.1154  135.9423  157.9688 H   0  0  0  0  0  0  0  0  0  0  0  0
  151.8058  134.6567  155.5248 H   0  0  0  0  0  0  0  0  0  0  0  0
  151.4021  134.2880  157.1811 H   0  0  0  0  0  0  0  0  0  0  0  0
  148.9386  134.0124  156.3911 H   0  0  0  0  0  0  0  0  0  0  0  0
  150.3341  134.1988  153.6929 H   0  0  0  0  0  0  0  0  0  0  0  0
  148.7656  133.4365  153.8764 H   0  0  0  0  0  0  0  0  0  0  0  0
  148.7479  135.6919  153.3618 H   0  0  0  0  0  0  0  0  0  0  0  0
  149.8029  131.9353  156.9197 H   0  0  0  0  0  0  0  0  0  0  0  0
  151.9699  132.3572  154.8439 H   0  0  0  0  0  0  0  0  0  0  0  0
  152.1819  132.0598  156.5759 H   0  0  0  0  0  0  0  0  0  0  0  0
  152.3131  129.9503  154.9410 H   0  0  0  0  0  0  0  0  0  0  0  0
  151.2748  129.8080  156.3666 H   0  0  0  0  0  0  0  0  0  0  0  0
  148.4473  130.9716  155.2492 H   0  0  0  0  0  0  0  0  0  0  0  0
  149.2320  131.8638  153.9452 H   0  0  0  0  0  0  0  0  0  0  0  0
  148.0652  140.5271  156.5153 H   0  0  0  0  0  0  0  0  0  0  0  0
  149.2738  139.9817  153.6960 H   0  0  0  0  0  0  0  0  0  0  0  0
  147.5145  139.7916  154.1987 H   0  0  0  0  0  0  0  0  0  0  0  0
  147.4333  142.2322  154.8183 H   0  0  0  0  0  0  0  0  0  0  0  0
  149.1950  142.4158  154.3205 H   0  0  0  0  0  0  0  0  0  0  0  0
  151.4328  142.2421  159.6178 H   0  0  0  0  0  0  0  0  0  0  0  0
  153.1812  144.2711  158.9220 H   0  0  0  0  0  0  0  0  0  0  0  0
  150.8457  144.4309  160.9739 H   0  0  0  0  0  0  0  0  0  0  0  0
  152.3652  145.4659  160.9484 H   0  0  0  0  0  0  0  0  0  0  0  0
  151.7599  146.3040  158.6645 H   0  0  0  0  0  0  0  0  0  0  0  0
  150.2383  145.2714  158.6893 H   0  0  0  0  0  0  0  0  0  0  0  0
  1  2  2  0  0  0  0
  2  3  1  0  0  0  0
  2 26  1  0  0  0  0
  3  4  1  0  0  0  0
  3 30  1  0  0  0  0
  3 31  1  0  0  0  0
  4  5  1  0  0  0  0
  4 23  1  0  0  0  0
  5 10  1  0  0  0  0
  5  6  2  0  0  0  0
  6  7  1  0  0  0  0
  7  8  2  0  0  0  0
  7 32  1  0  0  0  0
  8  9  1  0  0  0  0
  9 13  1  0  0  0  0
  9 10  2  0  0  0  0
 10 11  1  0  0  0  0
 11 12  2  0  0  0  0
 12 13  1  0  0  0  0
 12 33  1  0  0  0  0
 13 14  1  0  0  0  0
 14 15  1  0  0  0  0
 14 34  1  0  0  0  0
 14 35  1  0  0  0  0
 15 16  1  0  0  0  0
 15 18  1  0  0  0  0
 15 36  1  0  0  0  0
 16 17  1  0  0  0  0
 16 37  1  0  0  0  0
 16 38  1  0  0  0  0
 17 39  1  0  0  0  0
 18 22  1  0  0  0  0
 18 19  1  0  0  0  0
 18 40  1  0  0  0  0
 19 20  1  0  0  0  0
 19 41  1  0  0  0  0
 19 42  1  0  0  0  0
 20 21  1  0  0  0  0
 20 43  1  0  0  0  0
 20 44  1  0  0  0  0
 21 22  1  0  0  0  0
 22 45  1  0  0  0  0
 22 46  1  0  0  0  0
 23 25  1  0  0  0  0
 23 24  1  0  0  0  0
 23 47  1  0  0  0  0
 24 25  1  0  0  0  0
 24 48  1  0  0  0  0
 24 49  1  0  0  0  0
 25 50  1  0  0  0  0
 25 51  1  0  0  0  0
 26 27  1  0  0  0  0
 26 52  1  0  0  0  0
 27 29  1  0  0  0  0
 27 28  1  0  0  0  0
 27 53  1  0  0  0  0
 28 29  1  0  0  0  0
 28 54  1  0  0  0  0
 28 55  1  0  0  0  0
 29 56  1  0  0  0  0
 29 57  1  0  0  0  0
M  END
> <s_m_source_file>
AV-unprocessed.smi

> <i_m_source_file_index>
77

> <i_lp_mmshare_version>
43012

> <i_f3d_flags>
0

> <s_epik_input>
W0NIMl0xW0NIMl1bQ0hdMVtOSF1DKD1PKVtDSDJdTihbQ0hdMltDSDJdW0NIMl0yKWMobltjSF1uMyljKGMzNCluW2NIXW40W0NIMl1bQ0BIXShbQ0gyXVtPSF0pW0NAQEhdNVtDSDJdW0NIMl1PW0NIMl01

> <s_epik_cmdline>
J2VwaWtfcHl0aG9uJywgJy1waCcsICc3LjAnLCAnLXRuJywgJzgnLCAnLW1hJywgJzIwMCcsICctbWV0YWxfYmluZGluZycsICctaW1hZScsICc8aW5maWxlLm1hZT4nLCAnLW9tYWUnLCAnPG91dGZpbGUubWFlPic=

> <r_lp_tautomer_probability>
1

> <r_epik_Ionization_Penalty>
0.000703847

> <r_epik_Ionization_Penalty_Charging>
0

> <r_epik_Ionization_Penalty_Neutral>
0.000703847

> <r_epik_State_Penalty>
0.00034025

> <r_epik_Charging_Adjusted_Penalty>
0.00034025

> <i_epik_Tot_Q>
0

> <i_epik_Tot_abs_Q>
0

> <r_epik_Metal_State_Penalty>
-0

> <b_epik_Metal_Only>
0

> <s_lp_Force_Field>
OPLS_2005

> <r_lp_Energy>
54.5586

> <b_lp_Chiralities_Consistent>
1

> <s_lp_Variant>
AV-unprocessed.smi:77-2

> <Gold.Version>
5.8.1

> <Gold.Id.Protein>
6NUR|6NUR_protein|mol2

> <Gold.PLP.Fitness>
51.7513

> <Gold.PLP.PLP>
-46.7555

> <Gold.PLP.part.hbond>
-2.9579

> <Gold.PLP.part.metal>
0.0000

> <Gold.PLP.part.buried>
-6.1747

> <Gold.PLP.part.nonpolar>
-37.9595

> <Gold.PLP.part.repulsive>
1.3367

> <Gold.PLP.ligand.clash>
0.0000

> <Gold.PLP.ligand.torsion>
2.7337

> <Gold.PLP.Chemscore.Hbond>
2.8400

> <Gold.PLP.Chemscore.CHOScore>
0.0000

> <Gold.PLP.Chemscore.Metal>
0.0000

> <Gold.Chemscore.Hbonds>
donor molecule, donor type, donor heavy atom, donor atom, acceptor molecule, acceptor atom, score
      L1  H    17    39       P1  7948  1.00
      P1  H  7989  7998       L1     6  1.00
      P1  H 10752 10765       L1     8  0.82

> <Gold.PLP.Chemscore.Internal.Correction>
1.9432

> <Gold.Rescore>
     Score         DG    S(hbond)    S(metal)    S(lipo)     H(rot)  DE(clash)    DE(int)     intcor
     11.91     -16.18       2.70        0.00      96.87       3.77       1.57       2.70       ----

> <Gold.Chemscore.Fitness>
11.9106

> <Gold.Chemscore.DG>
-16.1820

> <Gold.Chemscore.ZeroCoef>
-5.4800

> <Gold.Chemscore.Hbond>
2.7016

> <Gold.Chemscore.Metal>
0.0000

> <Gold.Chemscore.Lipo>
96.8677

> <Gold.Chemscore.Internal_Hbond>
0.0000

> <Gold.Chemscore.DEClash>
1.5687

> <Gold.Chemscore.DEInternal>
2.7028

> <Gold.Chemscore.Rot>
3.7714

> <Gold.Chemscore.Internal.Correction>
   9.000000E+99

> <Gold.Chemscore.Hbonds>
donor molecule, donor type, donor heavy atom, donor atom, acceptor molecule, acceptor atom, score
      L1  H    17    39       P1  7948  0.95
      P1  H  7989  7998       L1     6  0.78
      P1  H 10752 10765       L1     8  0.75

> <Gold.Chemscore.Hbond.Weighted>
-9.0233

> <Gold.Chemscore.Metal.Weighted>
-0.0000

> <Gold.Chemscore.Lipo.Weighted>
-11.3335

> <Gold.Chemscore.Internal_Hbond.Weighted>
0.0000

> <Gold.Chemscore.DEClash.Weighted>
1.5687

> <Gold.Chemscore.DEInternal.Weighted>
2.7028

> <Gold.Chemscore.Rot.Weighted>
9.6548

> <Gold.Chemscore.Internal.Correction.Weighted>
   9.000000E+99

> <Gold.Protein.RotatedTorsions>
[ 6907 6896 6895 6894 ] final   19.89 input  -60.11 | X-H torsion
[ 7974 7965 7964 7962 ] final  141.77 input  175.53 | X-H torsion
[ 8008 7997 7996 7995 ] final  -79.29 input   59.86 | X-H torsion
[ 10167 10162 10161 10158 ] final  140.20 input  -65.29 | X-H torsion
[ 10718 10713 10712 10709 ] final -165.65 input   66.30 | X-H torsion
[ 10763 10752 10751 10750 ] final  172.21 input  -60.55 | X-H torsion
[ 11005 11000 10999 10996 ] final  100.32 input  -57.11 | X-H torsion

> <Gold.Protein.ActiveResidues>
 VAL166  LYS551  ARG553  GLY616  TRP617  ASP618  TYR619  PRO620  LYS621  CYS622 
 ASP623  PHE694  ASN695  SER759  ASP760  ASP761  ALA762  ILE779  LEU786  VAL792 
 PHE793  MET794  SER795  GLU796  ALA797  LYS798  CYS799  TRP800  GLU811  SER814 

> <Gold.Protein.RotatedAtoms>
  151.8878  135.0428  160.0494 H   0  0  0  0  0  0  0  0  0  0  0  0  # atno 6907 bound_to 6896
  152.2460  133.5171  159.5306 H   0  0  0  0  0  0  0  0  0  0  0  0  # atno 6908 bound_to 6896
  150.7068  134.0941  159.3984 H   0  0  0  0  0  0  0  0  0  0  0  0  # atno 6909 bound_to 6896
  144.9066  139.5349  143.5728 H   0  0  0  0  0  0  0  0  0  0  0  0  # atno 7974 bound_to 7965
  154.5771  140.0680  156.9050 H   0  0  0  0  0  0  0  0  0  0  0  0  # atno 8008 bound_to 7997
  155.2529  140.3353  155.4262 H   0  0  0  0  0  0  0  0  0  0  0  0  # atno 8009 bound_to 7997
  156.2162  140.1779  156.7568 H   0  0  0  0  0  0  0  0  0  0  0  0  # atno 8010 bound_to 7997
  139.5056  144.6249  151.5962 H   0  0  0  0  0  0  0  0  0  0  0  0  # atno 10167 bound_to 10162
  156.6564  130.9028  151.3022 H   0  0  0  0  0  0  0  0  0  0  0  0  # atno 10718 bound_to 10713
  154.4228  135.2758  155.1964 H   0  0  0  0  0  0  0  0  0  0  0  0  # atno 10763 bound_to 10752
  154.3902  135.6068  153.5843 H   0  0  0  0  0  0  0  0  0  0  0  0  # atno 10764 bound_to 10752
  152.9833  135.5901  154.4527 H   0  0  0  0  0  0  0  0  0  0  0  0  # atno 10765 bound_to 10752
  139.8771  134.9135  156.4739 H   0  0  0  0  0  0  0  0  0  0  0  0  # atno 11005 bound_to 11000
  146.3137  139.7839  142.9000 LP  0  0  0  0  0  0  0  0  0  0  0  0  # atno 17320 bound_to 7965
  145.3525  141.0310  143.3331 LP  0  0  0  0  0  0  0  0  0  0  0  0  # atno 17321 bound_to 7965
  140.5962  143.9691  150.6356 LP  0  0  0  0  0  0  0  0  0  0  0  0  # atno 17342 bound_to 10162
  140.2888  143.3338  152.1082 LP  0  0  0  0  0  0  0  0  0  0  0  0  # atno 17343 bound_to 10162
  157.7124  130.9456  150.1135 LP  0  0  0  0  0  0  0  0  0  0  0  0  # atno 17370 bound_to 10713
  156.2044  130.3662  149.8747 LP  0  0  0  0  0  0  0  0  0  0  0  0  # atno 17371 bound_to 10713
  140.8776  133.7942  155.9432 LP  0  0  0  0  0  0  0  0  0  0  0  0  # atno 17394 bound_to 11000
  140.8888  134.2521  157.5106 LP  0  0  0  0  0  0  0  0  0  0  0  0  # atno 17395 bound_to 11000

$$$$
