AV-unprocessed.smi:3249|AV-procd|sdf|12423|dock9
  -GOLD-   2272018313D 1   1.00000     0.00000
 Structure written by MMmdl.
 44 45  0  0  0  0  0  0  0  0  2 V2000
  145.8607  142.4739  154.2271 C   0  0  0  0  0  0  0  0  0  0  0  0
  146.9565  141.4477  154.2151 C   0  0  0  0  0  0  0  0  0  0  0  0
  146.9503  140.1681  153.5916 C   0  0  0  0  0  0  0  0  0  0  0  0
  148.0848  139.5092  153.7608 N   0  0  0  0  0  0  0  0  0  0  0  0
  148.8492  140.3317  154.5113 N   0  0  0  0  0  0  0  0  0  0  0  0
  150.2062  139.9306  154.8667 C   0  0  2  0  0  0  0  0  0  0  0  0
  150.6668  138.7821  153.9494 C   0  0  0  0  0  0  0  0  0  0  0  0
  150.2983  139.5930  156.3778 C   0  0  1  0  0  0  0  0  0  0  0  0
  151.7186  139.1809  156.8087 C   0  0  0  0  0  0  0  0  0  0  0  0
  149.8476  140.7558  157.1786 N   0  3  0  0  0  0  0  0  0  0  0  0
  150.6219  141.9994  156.9855 C   0  0  0  0  0  0  0  0  0  0  0  0
  150.8810  142.6938  158.3293 C   0  0  1  0  0  0  0  0  0  0  0  0
  152.2036  142.2312  158.9705 C   0  0  0  0  0  0  0  0  0  0  0  0
  152.4753  143.0069  160.2645 C   0  0  0  0  0  0  0  0  0  0  0  0
  152.4047  144.5124  159.9890 C   0  0  0  0  0  0  0  0  0  0  0  0
  151.0837  144.8662  159.2878 C   0  0  0  0  0  0  0  0  0  0  0  0
  150.9461  144.0992  158.0952 O   0  0  0  0  0  0  0  0  0  0  0  0
  148.1934  141.5143  154.7910 C   0  0  0  0  0  0  0  0  0  0  0  0
  144.9289  142.0770  153.8236 H   0  0  0  0  0  0  0  0  0  0  0  0
  146.1223  143.3479  153.6304 H   0  0  0  0  0  0  0  0  0  0  0  0
  145.6486  142.8246  155.2371 H   0  0  0  0  0  0  0  0  0  0  0  0
  146.1614  139.7039  153.0180 H   0  0  0  0  0  0  0  0  0  0  0  0
  150.8624  140.7806  154.6681 H   0  0  0  0  0  0  0  0  0  0  0  0
  151.7308  138.5769  154.0641 H   0  0  0  0  0  0  0  0  0  0  0  0
  150.5052  139.0329  152.9004 H   0  0  0  0  0  0  0  0  0  0  0  0
  150.1244  137.8595  154.1575 H   0  0  0  0  0  0  0  0  0  0  0  0
  149.6212  138.7600  156.5752 H   0  0  0  0  0  0  0  0  0  0  0  0
  152.0452  138.2728  156.3031 H   0  0  0  0  0  0  0  0  0  0  0  0
  151.7707  138.9750  157.8776 H   0  0  0  0  0  0  0  0  0  0  0  0
  152.4431  139.9651  156.5872 H   0  0  0  0  0  0  0  0  0  0  0  0
  148.8722  140.9335  156.9848 H   0  0  0  0  0  0  0  0  0  0  0  0
  151.5745  141.7473  156.5175 H   0  0  0  0  0  0  0  0  0  0  0  0
  150.0979  142.6729  156.3070 H   0  0  0  0  0  0  0  0  0  0  0  0
  150.0542  142.4755  159.0081 H   0  0  0  0  0  0  0  0  0  0  0  0
  152.1711  141.1612  159.1789 H   0  0  0  0  0  0  0  0  0  0  0  0
  153.0265  142.3883  158.2717 H   0  0  0  0  0  0  0  0  0  0  0  0
  151.7350  142.7358  161.0183 H   0  0  0  0  0  0  0  0  0  0  0  0
  153.4506  142.7395  160.6721 H   0  0  0  0  0  0  0  0  0  0  0  0
  152.5011  145.0722  160.9197 H   0  0  0  0  0  0  0  0  0  0  0  0
  153.2425  144.8092  159.3567 H   0  0  0  0  0  0  0  0  0  0  0  0
  150.2327  144.6891  159.9474 H   0  0  0  0  0  0  0  0  0  0  0  0
  151.0699  145.9249  159.0286 H   0  0  0  0  0  0  0  0  0  0  0  0
  148.6571  142.3008  155.3681 H   0  0  0  0  0  0  0  0  0  0  0  0
  149.9343  140.5002  158.1525 H   0  0  0  0  0  0  0  0  0  0  0  0
  1  2  1  0  0  0  0
  1 19  1  0  0  0  0
  1 20  1  0  0  0  0
  1 21  1  0  0  0  0
  2 18  2  0  0  0  0
  2  3  1  0  0  0  0
  3  4  2  0  0  0  0
  3 22  1  0  0  0  0
  4  5  1  0  0  0  0
  5  6  1  0  0  0  0
  5 18  1  0  0  0  0
  6  7  1  0  0  0  0
  6  8  1  0  0  0  0
  6 23  1  0  0  0  0
  7 24  1  0  0  0  0
  7 25  1  0  0  0  0
  7 26  1  0  0  0  0
  8  9  1  0  0  0  0
  8 10  1  0  0  0  0
  8 27  1  0  0  0  0
  9 28  1  0  0  0  0
  9 29  1  0  0  0  0
  9 30  1  0  0  0  0
 10 11  1  0  0  0  0
 10 31  1  0  0  0  0
 10 44  1  0  0  0  0
 11 12  1  0  0  0  0
 11 32  1  0  0  0  0
 11 33  1  0  0  0  0
 12 17  1  0  0  0  0
 12 13  1  0  0  0  0
 12 34  1  0  0  0  0
 13 14  1  0  0  0  0
 13 35  1  0  0  0  0
 13 36  1  0  0  0  0
 14 15  1  0  0  0  0
 14 37  1  0  0  0  0
 14 38  1  0  0  0  0
 15 16  1  0  0  0  0
 15 39  1  0  0  0  0
 15 40  1  0  0  0  0
 16 17  1  0  0  0  0
 16 41  1  0  0  0  0
 16 42  1  0  0  0  0
 18 43  1  0  0  0  0
M  CHG  1  10   1
M  END
> <s_m_source_file>
AV-unprocessed.smi

> <i_m_source_file_index>
3249

> <i_lp_mmshare_version>
43012

> <i_f3d_flags>
0

> <s_epik_input>
W0NIM11jMVtjSF1ubihbY0hdMSlbQ0BIXShbQ0gzXSlbQ0BIXShbQ0gzXSlbTkhdW0NIMl1bQ0BASF0yW0NIMl1bQ0gyXVtDSDJdW0NIMl1PMg==

> <s_epik_cmdline>
J2VwaWtfcHl0aG9uJywgJy1waCcsICc3LjAnLCAnLXRuJywgJzgnLCAnLW1hJywgJzIwMCcsICctbWV0YWxfYmluZGluZycsICctaW1hZScsICc8aW5maWxlLm1hZT4nLCAnLW9tYWUnLCAnPG91dGZpbGUubWFlPic=

> <r_lp_tautomer_probability>
1

> <r_epik_Ionization_Penalty>
0.00659207

> <r_epik_Ionization_Penalty_Charging>
0.00656881

> <r_epik_Ionization_Penalty_Neutral>
2.32662e-05

> <r_epik_State_Penalty>
0.0048654

> <r_epik_Charging_Adjusted_Penalty>
0.0114342

> <i_epik_Tot_Q>
1

> <i_epik_Tot_abs_Q>
1

> <r_epik_Metal_State_Penalty>
-0

> <b_epik_Metal_Only>
0

> <s_lp_Force_Field>
OPLS_2005

> <r_lp_Energy>
17.4327

> <b_lp_Chiralities_Consistent>
1

> <s_lp_Variant>
AV-unprocessed.smi:3249-7

> <Gold.Version>
5.8.1

> <Gold.Id.Protein>
6NUR|6NUR_protein|mol2

> <Gold.PLP.Fitness>
43.3654

> <Gold.PLP.PLP>
-39.4311

> <Gold.PLP.part.hbond>
0.0000

> <Gold.PLP.part.metal>
0.0000

> <Gold.PLP.part.buried>
-6.6201

> <Gold.PLP.part.nonpolar>
-34.7390

> <Gold.PLP.part.repulsive>
1.2457

> <Gold.PLP.ligand.clash>
0.0000

> <Gold.PLP.ligand.torsion>
1.0874

> <Gold.PLP.Chemscore.Hbond>
0.0000

> <Gold.PLP.Chemscore.CHOScore>
2.0000

> <Gold.PLP.Chemscore.Metal>
0.0000

> <Gold.Chemscore.Hbonds>
donor molecule, donor type, donor heavy atom, donor atom, acceptor molecule, acceptor atom, score
      L1  C     3    22       P1 10175  0.70
      L1  C    18    43       P1  8028  1.00

> <Gold.PLP.Chemscore.Internal.Correction>
0.1091

> <Gold.Rescore>
     Score         DG    S(hbond)    S(metal)    S(lipo)     H(rot)  DE(clash)    DE(int)     intcor
     13.23     -14.86       0.00        0.00     113.74       1.53       0.18       1.45       ----

> <Gold.Chemscore.Fitness>
13.2279

> <Gold.Chemscore.DG>
-14.8621

> <Gold.Chemscore.ZeroCoef>
-5.4800

> <Gold.Chemscore.Hbond>
0.0000

> <Gold.Chemscore.Metal>
0.0000

> <Gold.Chemscore.Lipo>
113.7379

> <Gold.Chemscore.Internal_Hbond>
0.0000

> <Gold.Chemscore.DEClash>
0.1812

> <Gold.Chemscore.DEInternal>
1.4530

> <Gold.Chemscore.Rot>
1.5333

> <Gold.Chemscore.Internal.Correction>
   9.000000E+99

> <Gold.Chemscore.Hbond.Weighted>
-0.0000

> <Gold.Chemscore.Metal.Weighted>
-0.0000

> <Gold.Chemscore.Lipo.Weighted>
-13.3073

> <Gold.Chemscore.Internal_Hbond.Weighted>
0.0000

> <Gold.Chemscore.DEClash.Weighted>
0.1812

> <Gold.Chemscore.DEInternal.Weighted>
1.4530

> <Gold.Chemscore.Rot.Weighted>
3.9252

> <Gold.Chemscore.Internal.Correction.Weighted>
   9.000000E+99

> <Gold.Protein.RotatedTorsions>
[ 6907 6896 6895 6894 ] final   -5.15 input  -60.11 | X-H torsion
[ 7974 7965 7964 7962 ] final  126.88 input  175.53 | X-H torsion
[ 8008 7997 7996 7995 ] final   81.08 input   59.86 | X-H torsion
[ 10167 10162 10161 10158 ] final   28.49 input  -65.29 | X-H torsion
[ 10718 10713 10712 10709 ] final  164.13 input   66.30 | X-H torsion
[ 10763 10752 10751 10750 ] final -152.14 input  -60.55 | X-H torsion
[ 11005 11000 10999 10996 ] final  108.50 input  -57.11 | X-H torsion

> <Gold.Protein.ActiveResidues>
 VAL166  LYS551  ARG553  GLY616  TRP617  ASP618  TYR619  PRO620  LYS621  CYS622 
 ASP623  PHE694  ASN695  SER759  ASP760  ASP761  ALA762  ILE779  LEU786  VAL792 
 PHE793  MET794  SER795  GLU796  ALA797  LYS798  CYS799  TRP800  GLU811  SER814 

> <Gold.Protein.RotatedAtoms>
  151.4862  135.1055  159.9790 H   0  0  0  0  0  0  0  0  0  0  0  0  # atno 6907 bound_to 6896
  152.4759  133.8134  159.7026 H   0  0  0  0  0  0  0  0  0  0  0  0  # atno 6908 bound_to 6896
  150.8798  133.7326  159.2962 H   0  0  0  0  0  0  0  0  0  0  0  0  # atno 6909 bound_to 6896
  145.0567  139.3838  143.5026 H   0  0  0  0  0  0  0  0  0  0  0  0  # atno 7974 bound_to 7965
  155.8922  140.3438  155.5965 H   0  0  0  0  0  0  0  0  0  0  0  0  # atno 8008 bound_to 7997
  155.7597  140.0831  157.2180 H   0  0  0  0  0  0  0  0  0  0  0  0  # atno 8009 bound_to 7997
  154.4034  140.1538  156.2806 H   0  0  0  0  0  0  0  0  0  0  0  0  # atno 8010 bound_to 7997
  140.4848  144.0559  150.6277 H   0  0  0  0  0  0  0  0  0  0  0  0  # atno 10167 bound_to 10162
  157.0987  131.0437  151.2507 H   0  0  0  0  0  0  0  0  0  0  0  0  # atno 10718 bound_to 10713
  154.8013  135.3243  154.7542 H   0  0  0  0  0  0  0  0  0  0  0  0  # atno 10763 bound_to 10752
  153.8209  135.6887  153.4831 H   0  0  0  0  0  0  0  0  0  0  0  0  # atno 10764 bound_to 10752
  153.1732  135.4615  154.9874 H   0  0  0  0  0  0  0  0  0  0  0  0  # atno 10765 bound_to 10752
  139.8845  134.9432  156.5982 H   0  0  0  0  0  0  0  0  0  0  0  0  # atno 11005 bound_to 11000
  146.3522  140.0245  142.8655 LP  0  0  0  0  0  0  0  0  0  0  0  0  # atno 17320 bound_to 7965
  145.1459  140.9597  143.4461 LP  0  0  0  0  0  0  0  0  0  0  0  0  # atno 17321 bound_to 7965
  140.3812  143.2802  152.0168 LP  0  0  0  0  0  0  0  0  0  0  0  0  # atno 17342 bound_to 10162
  139.4840  144.6153  151.7357 LP  0  0  0  0  0  0  0  0  0  0  0  0  # atno 17343 bound_to 10162
  157.4659  130.7680  149.7279 LP  0  0  0  0  0  0  0  0  0  0  0  0  # atno 17370 bound_to 10713
  155.9879  130.3963  150.3143 LP  0  0  0  0  0  0  0  0  0  0  0  0  # atno 17371 bound_to 10713
  140.7904  133.8587  155.8641 LP  0  0  0  0  0  0  0  0  0  0  0  0  # atno 17394 bound_to 11000
  140.9682  134.1565  157.4598 LP  0  0  0  0  0  0  0  0  0  0  0  0  # atno 17395 bound_to 11000

$$$$
