AV-unprocessed.smi:1538|AV-procd|sdf|6194|dock2
  -GOLD-   22720 6363D 1   1.00000     0.00000
 Structure written by MMmdl.
 36 37  0  0  0  0  0  0  0  0  1 V2000
  150.6037  137.6102  156.3234 C   0  0  0  0  0  0  0  0  0  0  0  0
  150.2778  139.0371  156.3584 N   0  0  0  0  0  0  0  0  0  0  0  0
  149.8097  139.5328  157.6586 C   0  0  0  0  0  0  0  0  0  0  0  0
  149.0344  140.8529  157.5558 C   0  0  0  0  0  0  0  0  0  0  0  0
  149.7830  141.8862  156.7017 C   0  0  1  0  0  0  0  0  0  0  0  0
  151.0167  142.4555  157.4225 C   0  0  0  0  0  0  0  0  0  0  0  0
  151.8460  141.7000  157.9303 O   0  0  0  0  0  0  0  0  0  0  0  0
  151.1147  143.7933  157.4744 N   0  0  0  0  0  0  0  0  0  0  0  0
  152.1432  144.5330  158.2007 C   0  0  0  0  0  0  0  0  0  0  0  0
  151.8962  144.5138  159.7213 C   0  0  0  0  0  0  0  0  0  0  0  0
  152.7435  143.5605  160.4145 N   0  0  0  0  0  0  0  0  0  0  0  0
  152.8055  143.3324  161.7828 C   0  0  0  0  0  0  0  0  0  0  0  0
  153.7574  142.3566  161.9756 C   0  0  0  0  0  0  0  0  0  0  0  0
  154.2849  141.9660  160.7470 N   0  0  0  0  0  0  0  0  0  0  0  0
  153.6335  142.7187  159.8702 C   0  0  0  0  0  0  0  0  0  0  0  0
  150.1254  141.3131  155.3073 C   0  0  0  0  0  0  0  0  0  0  0  0
  150.4646  139.8103  155.2609 C   0  0  0  0  0  0  0  0  0  0  0  0
  150.8890  139.3522  154.1994 O   0  0  0  0  0  0  0  0  0  0  0  0
  151.6225  137.4517  155.9658 H   0  0  0  0  0  0  0  0  0  0  0  0
  149.9211  137.0802  155.6580 H   0  0  0  0  0  0  0  0  0  0  0  0
  150.5345  137.1474  157.3084 H   0  0  0  0  0  0  0  0  0  0  0  0
  149.1702  138.7884  158.1350 H   0  0  0  0  0  0  0  0  0  0  0  0
  150.6758  139.6538  158.3102 H   0  0  0  0  0  0  0  0  0  0  0  0
  148.0584  140.6614  157.1077 H   0  0  0  0  0  0  0  0  0  0  0  0
  148.8362  141.2464  158.5539 H   0  0  0  0  0  0  0  0  0  0  0  0
  149.1039  142.7255  156.5415 H   0  0  0  0  0  0  0  0  0  0  0  0
  150.3956  144.3384  157.0212 H   0  0  0  0  0  0  0  0  0  0  0  0
  153.1408  144.1565  157.9685 H   0  0  0  0  0  0  0  0  0  0  0  0
  152.1201  145.5636  157.8463 H   0  0  0  0  0  0  0  0  0  0  0  0
  152.0874  145.5022  160.1402 H   0  0  0  0  0  0  0  0  0  0  0  0
  150.8521  144.2803  159.9347 H   0  0  0  0  0  0  0  0  0  0  0  0
  152.1915  143.8747  162.4866 H   0  0  0  0  0  0  0  0  0  0  0  0
  154.1001  141.9091  162.8967 H   0  0  0  0  0  0  0  0  0  0  0  0
  153.8167  142.6644  158.8071 H   0  0  0  0  0  0  0  0  0  0  0  0
  149.2657  141.4589  154.6524 H   0  0  0  0  0  0  0  0  0  0  0  0
  150.9408  141.8728  154.8461 H   0  0  0  0  0  0  0  0  0  0  0  0
  1  2  1  0  0  0  0
  1 19  1  0  0  0  0
  1 20  1  0  0  0  0
  1 21  1  0  0  0  0
  2 17  1  0  0  0  0
  2  3  1  0  0  0  0
  3  4  1  0  0  0  0
  3 22  1  0  0  0  0
  3 23  1  0  0  0  0
  4  5  1  0  0  0  0
  4 24  1  0  0  0  0
  4 25  1  0  0  0  0
  5  6  1  0  0  0  0
  5 16  1  0  0  0  0
  5 26  1  0  0  0  0
  6  7  2  0  0  0  0
  6  8  1  0  0  0  0
  8  9  1  0  0  0  0
  8 27  1  0  0  0  0
  9 10  1  0  0  0  0
  9 28  1  0  0  0  0
  9 29  1  0  0  0  0
 10 11  1  0  0  0  0
 10 30  1  0  0  0  0
 10 31  1  0  0  0  0
 11 15  1  0  0  0  0
 11 12  1  0  0  0  0
 12 13  2  0  0  0  0
 12 32  1  0  0  0  0
 13 14  1  0  0  0  0
 13 33  1  0  0  0  0
 14 15  2  0  0  0  0
 15 34  1  0  0  0  0
 16 17  1  0  0  0  0
 16 35  1  0  0  0  0
 16 36  1  0  0  0  0
 17 18  2  0  0  0  0
M  END
> <s_m_source_file>
AV-unprocessed.smi

> <i_m_source_file_index>
1538

> <i_lp_mmshare_version>
43012

> <i_f3d_flags>
0

> <s_epik_input>
W0NIM11OMVtDSDJdW0NIMl1bQ0BIXShbQ0gyXUMxPU8pQyg9TylbTkhdW0NIMl1bQ0gyXW4yW2NIXVtjSF1uW2NIXTI=

> <s_epik_cmdline>
J2VwaWtfcHl0aG9uJywgJy1waCcsICc3LjAnLCAnLXRuJywgJzgnLCAnLW1hJywgJzIwMCcsICctbWV0YWxfYmluZGluZycsICctaW1hZScsICc8aW5maWxlLm1hZT4nLCAnLW9tYWUnLCAnPG91dGZpbGUubWFlPic=

> <r_lp_tautomer_probability>
1

> <r_epik_Ionization_Penalty>
0.590576

> <r_epik_Ionization_Penalty_Charging>
0.590576

> <r_epik_Ionization_Penalty_Neutral>
2.97775e-08

> <r_epik_State_Penalty>
0.604111

> <r_epik_Charging_Adjusted_Penalty>
1.19469

> <i_epik_Tot_Q>
0

> <i_epik_Tot_abs_Q>
0

> <r_epik_Metal_State_Penalty>
0.298544

> <b_epik_Metal_Only>
0

> <s_lp_Force_Field>
OPLS_2005

> <r_lp_Energy>
13.4422

> <b_lp_Chiralities_Consistent>
1

> <s_lp_Variant>
AV-unprocessed.smi:1538-3

> <Gold.Version>
5.8.1

> <Gold.Id.Protein>
6NUR|6NUR_protein|mol2

> <Gold.PLP.Fitness>
44.4368

> <Gold.PLP.PLP>
-39.6987

> <Gold.PLP.part.hbond>
-2.0037

> <Gold.PLP.part.metal>
0.0000

> <Gold.PLP.part.buried>
-4.6380

> <Gold.PLP.part.nonpolar>
-33.1033

> <Gold.PLP.part.repulsive>
0.1804

> <Gold.PLP.ligand.clash>
0.0000

> <Gold.PLP.ligand.torsion>
0.6591

> <Gold.PLP.Chemscore.Hbond>
2.0000

> <Gold.PLP.Chemscore.CHOScore>
0.0000

> <Gold.PLP.Chemscore.Metal>
0.0000

> <Gold.Chemscore.Hbonds>
donor molecule, donor type, donor heavy atom, donor atom, acceptor molecule, acceptor atom, score
      L1  H     8    27       P1  8028  0.98
      P1  H  7989  7998       L1    18  1.00

> <Gold.PLP.Chemscore.Internal.Correction>
0.0563

> <Gold.Rescore>
     Score         DG    S(hbond)    S(metal)    S(lipo)     H(rot)  DE(clash)    DE(int)     intcor
     10.41     -12.64       1.27        0.00      68.18       1.98       0.21       2.01       ----

> <Gold.Chemscore.Fitness>
10.4126

> <Gold.Chemscore.DG>
-12.6385

> <Gold.Chemscore.ZeroCoef>
-5.4800

> <Gold.Chemscore.Hbond>
1.2712

> <Gold.Chemscore.Metal>
0.0000

> <Gold.Chemscore.Lipo>
68.1800

> <Gold.Chemscore.Internal_Hbond>
0.0000

> <Gold.Chemscore.DEClash>
0.2112

> <Gold.Chemscore.DEInternal>
2.0146

> <Gold.Chemscore.Rot>
1.9782

> <Gold.Chemscore.Internal.Correction>
   9.000000E+99

> <Gold.Chemscore.Hbonds>
donor molecule, donor type, donor heavy atom, donor atom, acceptor molecule, acceptor atom, score
      L1  H     8    27       P1  8028  0.81
      P1  H  7989  7998       L1    18  0.26

> <Gold.Chemscore.Hbond.Weighted>
-4.2457

> <Gold.Chemscore.Metal.Weighted>
-0.0000

> <Gold.Chemscore.Lipo.Weighted>
-7.9771

> <Gold.Chemscore.Internal_Hbond.Weighted>
0.0000

> <Gold.Chemscore.DEClash.Weighted>
0.2112

> <Gold.Chemscore.DEInternal.Weighted>
2.0146

> <Gold.Chemscore.Rot.Weighted>
5.0643

> <Gold.Chemscore.Internal.Correction.Weighted>
   9.000000E+99

> <Gold.Protein.RotatedTorsions>
[ 6907 6896 6895 6894 ] final  146.20 input  -60.11 | X-H torsion
[ 7974 7965 7964 7962 ] final  106.29 input  175.53 | X-H torsion
[ 8008 7997 7996 7995 ] final -120.21 input   59.86 | X-H torsion
[ 10167 10162 10161 10158 ] final -161.03 input  -65.29 | X-H torsion
[ 10718 10713 10712 10709 ] final  -21.43 input   66.30 | X-H torsion
[ 10763 10752 10751 10750 ] final  160.78 input  -60.55 | X-H torsion
[ 11005 11000 10999 10996 ] final  -50.36 input  -57.11 | X-H torsion

> <Gold.Protein.ActiveResidues>
 VAL166  LYS551  ARG553  GLY616  TRP617  ASP618  TYR619  PRO620  LYS621  CYS622 
 ASP623  PHE694  ASN695  SER759  ASP760  ASP761  ALA762  ILE779  LEU786  VAL792 
 PHE793  MET794  SER795  GLU796  ALA797  LYS798  CYS799  TRP800  GLU811  SER814 

> <Gold.Protein.RotatedAtoms>
  152.1710  133.4643  159.4908 H   0  0  0  0  0  0  0  0  0  0  0  0  # atno 6907 bound_to 6896
  150.6920  134.1953  159.4310 H   0  0  0  0  0  0  0  0  0  0  0  0  # atno 6908 bound_to 6896
  151.9860  135.0004  160.0610 H   0  0  0  0  0  0  0  0  0  0  0  0  # atno 6909 bound_to 6896
  145.3085  139.2547  143.3776 H   0  0  0  0  0  0  0  0  0  0  0  0  # atno 7974 bound_to 7965
  155.1282  140.0399  157.2768 H   0  0  0  0  0  0  0  0  0  0  0  0  # atno 8008 bound_to 7997
  154.6562  140.2580  155.7132 H   0  0  0  0  0  0  0  0  0  0  0  0  # atno 8009 bound_to 7997
  156.2599  140.2826  156.1016 H   0  0  0  0  0  0  0  0  0  0  0  0  # atno 8010 bound_to 7997
  139.6496  144.0109  152.2152 H   0  0  0  0  0  0  0  0  0  0  0  0  # atno 10167 bound_to 10162
  156.5182  130.4626  149.6611 H   0  0  0  0  0  0  0  0  0  0  0  0  # atno 10718 bound_to 10713
  154.2527  135.2771  155.2810 H   0  0  0  0  0  0  0  0  0  0  0  0  # atno 10763 bound_to 10752
  154.5451  135.5691  153.6876 H   0  0  0  0  0  0  0  0  0  0  0  0  # atno 10764 bound_to 10752
  152.9977  135.6260  154.2675 H   0  0  0  0  0  0  0  0  0  0  0  0  # atno 10765 bound_to 10752
  141.0811  133.6653  156.3720 H   0  0  0  0  0  0  0  0  0  0  0  0  # atno 11005 bound_to 11000
  146.3126  140.3615  142.8665 LP  0  0  0  0  0  0  0  0  0  0  0  0  # atno 17320 bound_to 7965
  144.9035  140.7672  143.5852 LP  0  0  0  0  0  0  0  0  0  0  0  0  # atno 17321 bound_to 7965
  139.9820  144.6422  150.7892 LP  0  0  0  0  0  0  0  0  0  0  0  0  # atno 17342 bound_to 10162
  140.7531  143.3002  151.3100 LP  0  0  0  0  0  0  0  0  0  0  0  0  # atno 17343 bound_to 10162
  156.3174  130.7262  151.2167 LP  0  0  0  0  0  0  0  0  0  0  0  0  # atno 17370 bound_to 10713
  157.7441  131.0465  150.4895 LP  0  0  0  0  0  0  0  0  0  0  0  0  # atno 17371 bound_to 10713
  140.5465  134.6069  157.5395 LP  0  0  0  0  0  0  0  0  0  0  0  0  # atno 17394 bound_to 11000
  139.9626  134.7427  156.0206 LP  0  0  0  0  0  0  0  0  0  0  0  0  # atno 17395 bound_to 11000

$$$$
