AV-unprocessed.smi:688|AV-procd|sdf|3357|dock8
  -GOLD-   22720 0333D 1   1.00000     0.00000
 Structure written by MMmdl.
 35 36  0  0  0  0  0  0  0  0  2 V2000
  152.6166  135.0505  156.7350 O   0  0  0  0  0  0  0  0  0  0  0  0
  151.9094  135.8563  156.1321 C   0  0  0  0  0  0  0  0  0  0  0  0
  152.4249  136.9066  155.4293 N   0  5  0  0  0  0  0  0  0  0  0  0
  151.6549  137.8177  154.7584 C   0  0  0  0  0  0  0  0  0  0  0  0
  152.1453  138.7567  154.1315 O   0  0  0  0  0  0  0  0  0  0  0  0
  150.2954  137.6808  154.7871 N   0  0  0  0  0  0  0  0  0  0  0  0
  149.3937  138.6258  154.1052 C   0  0  0  0  0  0  0  0  0  0  0  0
  149.5607  140.0775  154.6099 C   0  0  1  0  0  0  0  0  0  0  0  0
  148.8540  140.9350  153.7374 O   0  0  0  0  0  0  0  0  0  0  0  0
  149.0472  140.2982  156.0461 C   0  0  0  0  0  0  0  0  0  0  0  0
  149.4096  141.6055  156.4705 O   0  0  0  0  0  0  0  0  0  0  0  0
  150.8112  141.8362  156.4799 C   0  0  0  0  0  0  0  0  0  0  0  0
  151.3424  142.1470  157.8700 C   0  0  0  0  0  0  0  0  0  0  0  0
  150.9835  143.3527  158.5090 C   0  0  0  0  0  0  0  0  0  0  0  0
  151.4838  143.6512  159.7908 C   0  0  0  0  0  0  0  0  0  0  0  0
  152.3473  142.7465  160.4383 C   0  0  0  0  0  0  0  0  0  0  0  0
  152.9736  143.1189  162.0019 Cl  0  0  0  0  0  0  0  0  0  0  0  0
  152.7028  141.5390  159.8062 C   0  0  0  0  0  0  0  0  0  0  0  0
  152.1982  141.2375  158.5260 C   0  0  0  0  0  0  0  0  0  0  0  0
  149.7151  136.6104  155.4908 C   0  0  0  0  0  0  0  0  0  0  0  0
  150.4563  135.7069  156.1605 C   0  0  0  0  0  0  0  0  0  0  0  0
  149.7121  134.4175  157.0373 Cl  0  0  0  0  0  0  0  0  0  0  0  0
  149.5869  138.5832  153.0315 H   0  0  0  0  0  0  0  0  0  0  0  0
  148.3540  138.3147  154.2166 H   0  0  0  0  0  0  0  0  0  0  0  0
  150.6144  140.3526  154.5532 H   0  0  0  0  0  0  0  0  0  0  0  0
  148.3356  140.4019  153.1542 H   0  0  0  0  0  0  0  0  0  0  0  0
  147.9682  140.1557  156.1240 H   0  0  0  0  0  0  0  0  0  0  0  0
  149.4931  139.5625  156.7124 H   0  0  0  0  0  0  0  0  0  0  0  0
  151.3064  140.9320  156.1256 H   0  0  0  0  0  0  0  0  0  0  0  0
  151.0675  142.6302  155.7763 H   0  0  0  0  0  0  0  0  0  0  0  0
  150.3317  144.0575  158.0131 H   0  0  0  0  0  0  0  0  0  0  0  0
  151.2141  144.5807  160.2705 H   0  0  0  0  0  0  0  0  0  0  0  0
  153.3655  140.8444  160.3010 H   0  0  0  0  0  0  0  0  0  0  0  0
  152.4787  140.3109  158.0468 H   0  0  0  0  0  0  0  0  0  0  0  0
  148.6358  136.5767  155.4649 H   0  0  0  0  0  0  0  0  0  0  0  0
  1  2  2  0  0  0  0
  2 21  1  0  0  0  0
  2  3  1  0  0  0  0
  3  4  1  0  0  0  0
  4  5  2  0  0  0  0
  4  6  1  0  0  0  0
  6  7  1  0  0  0  0
  6 20  1  0  0  0  0
  7  8  1  0  0  0  0
  7 23  1  0  0  0  0
  7 24  1  0  0  0  0
  8  9  1  0  0  0  0
  8 10  1  0  0  0  0
  8 25  1  0  0  0  0
  9 26  1  0  0  0  0
 10 11  1  0  0  0  0
 10 27  1  0  0  0  0
 10 28  1  0  0  0  0
 11 12  1  0  0  0  0
 12 13  1  0  0  0  0
 12 29  1  0  0  0  0
 12 30  1  0  0  0  0
 13 19  1  0  0  0  0
 13 14  2  0  0  0  0
 14 15  1  0  0  0  0
 14 31  1  0  0  0  0
 15 16  2  0  0  0  0
 15 32  1  0  0  0  0
 16 17  1  0  0  0  0
 16 18  1  0  0  0  0
 18 19  2  0  0  0  0
 18 33  1  0  0  0  0
 19 34  1  0  0  0  0
 20 21  2  0  0  0  0
 20 35  1  0  0  0  0
 21 22  1  0  0  0  0
M  CHG  1   3  -1
M  END
> <s_m_source_file>
AV-unprocessed.smi

> <i_m_source_file_index>
688

> <i_lp_mmshare_version>
43012

> <i_f3d_flags>
0

> <s_epik_input>
Tz1jMVtuSF1jKD1PKW4oW2NIXWMxQ2wpW0NIMl1bQ0BIXShbT0hdKVtDSDJdT1tDSDJdYzJbY0hdW2NIXWMoQ2wpW2NIXVtjSF0y

> <s_epik_cmdline>
J2VwaWtfcHl0aG9uJywgJy1waCcsICc3LjAnLCAnLXRuJywgJzgnLCAnLW1hJywgJzIwMCcsICctbWV0YWxfYmluZGluZycsICctaW1hZScsICc8aW5maWxlLm1hZT4nLCAnLW9tYWUnLCAnPG91dGZpbGUubWFlPic=

> <r_epik_Ionization_Penalty>
1.82111

> <r_epik_Ionization_Penalty_Charging>
5.03334e-08

> <r_epik_Ionization_Penalty_Neutral>
1.82111

> <r_epik_State_Penalty>
1.93633

> <r_epik_Charging_Adjusted_Penalty>
1.93633

> <i_epik_Tot_Q>
-1

> <i_epik_Tot_abs_Q>
1

> <r_epik_Metal_State_Penalty>
0.0147818

> <b_epik_Metal_Only>
0

> <s_lp_Force_Field>
OPLS_2005

> <r_lp_Energy>
20.5354

> <b_lp_Chiralities_Consistent>
1

> <s_lp_Variant>
AV-unprocessed.smi:688-4

> <Gold.Version>
5.8.1

> <Gold.Id.Protein>
6NUR|6NUR_protein|mol2

> <Gold.PLP.Fitness>
50.0014

> <Gold.PLP.PLP>
-40.9600

> <Gold.PLP.part.hbond>
-5.0000

> <Gold.PLP.part.metal>
0.0000

> <Gold.PLP.part.buried>
-5.7568

> <Gold.PLP.part.nonpolar>
-30.6745

> <Gold.PLP.part.repulsive>
0.9568

> <Gold.PLP.ligand.clash>
0.0000

> <Gold.PLP.ligand.torsion>
0.5146

> <Gold.PLP.Chemscore.Hbond>
3.3040

> <Gold.PLP.Chemscore.CHOScore>
0.0000

> <Gold.PLP.Chemscore.Metal>
0.0000

> <Gold.Chemscore.Hbonds>
donor molecule, donor type, donor heavy atom, donor atom, acceptor molecule, acceptor atom, score
      L1  H     9    26       P1  7957  0.02
      P1  H  7989  7998       L1     5  0.35
      P1  H  8011  8017       L1     9  0.45

> <Gold.PLP.Chemscore.Internal.Correction>
0.1586

> <Gold.Rescore>
     Score         DG    S(hbond)    S(metal)    S(lipo)     H(rot)  DE(clash)    DE(int)     intcor
     12.77     -14.89       1.37        0.00     103.69       2.85       1.50       0.63       ----

> <Gold.Chemscore.Fitness>
12.7657

> <Gold.Chemscore.DG>
-14.8920

> <Gold.Chemscore.ZeroCoef>
-5.4800

> <Gold.Chemscore.Hbond>
1.3735

> <Gold.Chemscore.Metal>
0.0000

> <Gold.Chemscore.Lipo>
103.6860

> <Gold.Chemscore.Internal_Hbond>
0.0000

> <Gold.Chemscore.DEClash>
1.5013

> <Gold.Chemscore.DEInternal>
0.6251

> <Gold.Chemscore.Rot>
2.8542

> <Gold.Chemscore.Internal.Correction>
   9.000000E+99

> <Gold.Chemscore.Hbonds>
donor molecule, donor type, donor heavy atom, donor atom, acceptor molecule, acceptor atom, score
      L1  H     9    26       P1  7957  0.02
      P1  H  7989  7998       L1     5  0.36
      P1  H  8011  8017       L1     9  0.15

> <Gold.Chemscore.Hbond.Weighted>
-4.5875

> <Gold.Chemscore.Metal.Weighted>
-0.0000

> <Gold.Chemscore.Lipo.Weighted>
-12.1313

> <Gold.Chemscore.Internal_Hbond.Weighted>
0.0000

> <Gold.Chemscore.DEClash.Weighted>
1.5013

> <Gold.Chemscore.DEInternal.Weighted>
0.6251

> <Gold.Chemscore.Rot.Weighted>
7.3067

> <Gold.Chemscore.Internal.Correction.Weighted>
   9.000000E+99

> <Gold.Protein.RotatedTorsions>
[ 6907 6896 6895 6894 ] final   48.87 input  -60.11 | X-H torsion
[ 7974 7965 7964 7962 ] final  170.32 input  175.53 | X-H torsion
[ 8008 7997 7996 7995 ] final   81.95 input   59.86 | X-H torsion
[ 10167 10162 10161 10158 ] final    5.97 input  -65.29 | X-H torsion
[ 10718 10713 10712 10709 ] final -175.28 input   66.30 | X-H torsion
[ 10763 10752 10751 10750 ] final  -52.19 input  -60.55 | X-H torsion
[ 11005 11000 10999 10996 ] final   10.09 input  -57.11 | X-H torsion

> <Gold.Protein.ActiveResidues>
 VAL166  LYS551  ARG553  GLY616  TRP617  ASP618  TYR619  PRO620  LYS621  CYS622 
 ASP623  PHE694  ASN695  SER759  ASP760  ASP761  ALA762  ILE779  LEU786  VAL792 
 PHE793  MET794  SER795  GLU796  ALA797  LYS798  CYS799  TRP800  GLU811  SER814 

> <Gold.Protein.RotatedAtoms>
  152.2844  134.7792  160.0390 H   0  0  0  0  0  0  0  0  0  0  0  0  # atno 6907 bound_to 6896
  151.8360  133.3411  159.3636 H   0  0  0  0  0  0  0  0  0  0  0  0  # atno 6908 bound_to 6896
  150.7203  134.5365  159.5770 H   0  0  0  0  0  0  0  0  0  0  0  0  # atno 6909 bound_to 6896
  144.7327  139.9184  143.6419 H   0  0  0  0  0  0  0  0  0  0  0  0  # atno 7974 bound_to 7965
  155.9041  140.3431  155.6049 H   0  0  0  0  0  0  0  0  0  0  0  0  # atno 8008 bound_to 7997
  155.7465  140.0814  157.2240 H   0  0  0  0  0  0  0  0  0  0  0  0  # atno 8009 bound_to 7997
  154.4047  140.1561  156.2663 H   0  0  0  0  0  0  0  0  0  0  0  0  # atno 8010 bound_to 7997
  140.6453  143.7676  150.7490 H   0  0  0  0  0  0  0  0  0  0  0  0  # atno 10167 bound_to 10162
  156.7975  130.9540  151.3119 H   0  0  0  0  0  0  0  0  0  0  0  0  # atno 10718 bound_to 10713
  154.1387  135.6508  153.4937 H   0  0  0  0  0  0  0  0  0  0  0  0  # atno 10763 bound_to 10752
  153.0172  135.5310  154.6927 H   0  0  0  0  0  0  0  0  0  0  0  0  # atno 10764 bound_to 10752
  154.6182  135.2961  155.0327 H   0  0  0  0  0  0  0  0  0  0  0  0  # atno 10765 bound_to 10752
  140.5184  134.0583  155.7838 H   0  0  0  0  0  0  0  0  0  0  0  0  # atno 11005 bound_to 11000
  146.0948  139.3940  143.0383 LP  0  0  0  0  0  0  0  0  0  0  0  0  # atno 17320 bound_to 7965
  145.7661  140.9916  143.1174 LP  0  0  0  0  0  0  0  0  0  0  0  0  # atno 17321 bound_to 7965
  140.1316  143.4521  152.2250 LP  0  0  0  0  0  0  0  0  0  0  0  0  # atno 17342 bound_to 10162
  139.5663  144.7437  151.4012 LP  0  0  0  0  0  0  0  0  0  0  0  0  # atno 17343 bound_to 10162
  157.6570  130.8933  149.9750 LP  0  0  0  0  0  0  0  0  0  0  0  0  # atno 17370 bound_to 10713
  156.1121  130.3649  150.0031 LP  0  0  0  0  0  0  0  0  0  0  0  0  # atno 17371 bound_to 10713
  141.1347  133.9241  157.2459 LP  0  0  0  0  0  0  0  0  0  0  0  0  # atno 17394 bound_to 11000
  139.9619  135.0152  156.9285 LP  0  0  0  0  0  0  0  0  0  0  0  0  # atno 17395 bound_to 11000

$$$$
