AV-unprocessed.smi:78|AV-procd|sdf|775|dock8
  -GOLD-   2262017133D 1   1.00000     0.00000
 Structure written by MMmdl.
 56 59  0  0  0  0  0  0  0  0  1 V2000
  149.3314  132.8122  153.7524 C   0  0  0  0  0  0  0  0  0  0  0  0
  150.1293  133.3774  154.9369 C   0  0  0  0  0  0  0  0  0  0  0  0
  150.5868  132.2379  155.8627 C   0  0  0  0  0  0  0  0  0  0  0  0
  149.3049  134.4541  155.6809 C   0  0  0  0  0  0  0  0  0  0  0  0
  149.5391  135.9351  155.2688 C   0  0  2  0  0  0  0  0  0  0  0  0
  150.8006  136.4677  155.9815 C   0  0  0  0  0  0  0  0  0  0  0  0
  151.9068  136.0496  155.6452 O   0  0  0  0  0  0  0  0  0  0  0  0
  150.6736  137.3836  156.9577 N   0  0  0  0  0  0  0  0  0  0  0  0
  149.4243  137.9838  157.4212 C   0  0  0  0  0  0  0  0  0  0  0  0
  148.1689  137.2426  156.9340 C   0  0  0  0  0  0  0  0  0  0  0  0
  148.3622  136.7652  155.5693 N   0  0  0  0  0  0  0  0  0  0  0  0
  147.3398  136.8365  154.6793 C   0  0  0  0  0  0  0  0  0  0  0  0
  146.9279  138.0650  154.2736 N   0  0  0  0  0  0  0  0  0  0  0  0
  145.9394  138.1869  153.3841 C   0  0  0  0  0  0  0  0  0  0  0  0
  145.2438  137.2260  152.7743 N   0  0  0  0  0  0  0  0  0  0  0  0
  145.6563  135.9877  153.1693 C   0  0  0  0  0  0  0  0  0  0  0  0
  146.6785  135.7045  154.1193 C   0  0  0  0  0  0  0  0  0  0  0  0
  146.8142  134.3292  154.2644 N   0  0  0  0  0  0  0  0  0  0  0  0
  145.9159  133.8305  153.4609 C   0  0  0  0  0  0  0  0  0  0  0  0
  145.2003  134.7551  152.7323 N   0  0  0  0  0  0  0  0  0  0  0  0
  144.1493  134.5006  151.7831 C   0  0  0  0  0  0  0  0  0  0  0  0
  143.7537  133.0708  151.3841 C   0  0  0  0  0  0  0  0  0  0  0  0
  144.5538  133.2162  150.0704 C   0  0  0  0  0  0  0  0  0  0  0  0
  146.0131  132.7229  150.1250 C   0  0  0  0  0  0  0  0  0  0  0  0
  146.0831  131.3209  150.2880 O   0  0  0  0  0  0  0  0  0  0  0  0
  143.9258  132.6297  148.7911 C   0  0  0  0  0  0  0  0  0  0  0  0
  143.3063  133.6147  147.9886 O   0  0  0  0  0  0  0  0  0  0  0  0
  144.3968  134.7378  150.2862 C   0  0  0  0  0  0  0  0  0  0  0  0
  148.4196  132.3168  154.0872 H   0  0  0  0  0  0  0  0  0  0  0  0
  149.9198  132.0843  153.1933 H   0  0  0  0  0  0  0  0  0  0  0  0
  149.0458  133.6026  153.0576 H   0  0  0  0  0  0  0  0  0  0  0  0
  151.0159  133.8400  154.5089 H   0  0  0  0  0  0  0  0  0  0  0  0
  149.7358  131.7466  156.3357 H   0  0  0  0  0  0  0  0  0  0  0  0
  151.2459  132.5959  156.6522 H   0  0  0  0  0  0  0  0  0  0  0  0
  151.1394  131.4806  155.3061 H   0  0  0  0  0  0  0  0  0  0  0  0
  148.2448  134.2232  155.5670 H   0  0  0  0  0  0  0  0  0  0  0  0
  149.5077  134.3426  156.7475 H   0  0  0  0  0  0  0  0  0  0  0  0
  149.7731  135.9802  154.2056 H   0  0  0  0  0  0  0  0  0  0  0  0
  151.5202  137.7050  157.4044 H   0  0  0  0  0  0  0  0  0  0  0  0
  149.4299  138.0503  158.5093 H   0  0  0  0  0  0  0  0  0  0  0  0
  149.4047  139.0076  157.0461 H   0  0  0  0  0  0  0  0  0  0  0  0
  147.9636  136.3871  157.5780 H   0  0  0  0  0  0  0  0  0  0  0  0
  147.3136  137.9146  157.0133 H   0  0  0  0  0  0  0  0  0  0  0  0
  145.6713  139.1991  153.1193 H   0  0  0  0  0  0  0  0  0  0  0  0
  145.7687  132.7645  153.3746 H   0  0  0  0  0  0  0  0  0  0  0  0
  143.2864  135.0658  152.1376 H   0  0  0  0  0  0  0  0  0  0  0  0
  144.1050  132.2762  152.0408 H   0  0  0  0  0  0  0  0  0  0  0  0
  142.6779  132.9786  151.2273 H   0  0  0  0  0  0  0  0  0  0  0  0
  146.5537  132.9970  149.2184 H   0  0  0  0  0  0  0  0  0  0  0  0
  146.5586  133.1803  150.9502 H   0  0  0  0  0  0  0  0  0  0  0  0
  146.9407  131.0295  150.0180 H   0  0  0  0  0  0  0  0  0  0  0  0
  144.6801  132.1301  148.1823 H   0  0  0  0  0  0  0  0  0  0  0  0
  143.1704  131.8815  149.0326 H   0  0  0  0  0  0  0  0  0  0  0  0
  142.6033  134.0066  148.4838 H   0  0  0  0  0  0  0  0  0  0  0  0
  143.5240  135.1675  149.7926 H   0  0  0  0  0  0  0  0  0  0  0  0
  145.2909  135.3157  150.0507 H   0  0  0  0  0  0  0  0  0  0  0  0
  1  2  1  0  0  0  0
  1 29  1  0  0  0  0
  1 30  1  0  0  0  0
  1 31  1  0  0  0  0
  2  3  1  0  0  0  0
  2  4  1  0  0  0  0
  2 32  1  0  0  0  0
  3 33  1  0  0  0  0
  3 34  1  0  0  0  0
  3 35  1  0  0  0  0
  4  5  1  0  0  0  0
  4 36  1  0  0  0  0
  4 37  1  0  0  0  0
  5 11  1  0  0  0  0
  5  6  1  0  0  0  0
  5 38  1  0  0  0  0
  6  7  2  0  0  0  0
  6  8  1  0  0  0  0
  8  9  1  0  0  0  0
  8 39  1  0  0  0  0
  9 10  1  0  0  0  0
  9 40  1  0  0  0  0
  9 41  1  0  0  0  0
 10 11  1  0  0  0  0
 10 42  1  0  0  0  0
 10 43  1  0  0  0  0
 11 12  1  0  0  0  0
 12 17  1  0  0  0  0
 12 13  2  0  0  0  0
 13 14  1  0  0  0  0
 14 15  2  0  0  0  0
 14 44  1  0  0  0  0
 15 16  1  0  0  0  0
 16 20  1  0  0  0  0
 16 17  2  0  0  0  0
 17 18  1  0  0  0  0
 18 19  2  0  0  0  0
 19 20  1  0  0  0  0
 19 45  1  0  0  0  0
 20 21  1  0  0  0  0
 21 28  1  0  0  0  0
 21 22  1  0  0  0  0
 21 46  1  0  0  0  0
 22 23  1  0  0  0  0
 22 47  1  0  0  0  0
 22 48  1  0  0  0  0
 23 24  1  0  0  0  0
 23 26  1  0  0  0  0
 23 28  1  0  0  0  0
 24 25  1  0  0  0  0
 24 49  1  0  0  0  0
 24 50  1  0  0  0  0
 25 51  1  0  0  0  0
 26 27  1  0  0  0  0
 26 52  1  0  0  0  0
 26 53  1  0  0  0  0
 27 54  1  0  0  0  0
 28 55  1  0  0  0  0
 28 56  1  0  0  0  0
M  END
> <s_m_source_file>
AV-unprocessed.smi

> <i_m_source_file_index>
78

> <i_lp_mmshare_version>
43012

> <i_f3d_flags>
0

> <s_epik_input>
W0NIM11bQ0hdKFtDSDNdKVtDSDJdW0NAQEhdMUMoPU8pW05IXVtDSDJdW0NIMl1OMWMobltjSF1uMiljKGMyMyluW2NIXW4zW0NIXShbQ0gyXTQpW0NIMl1DNChbQ0gyXVtPSF0pW0NIMl1bT0hd

> <s_epik_cmdline>
J2VwaWtfcHl0aG9uJywgJy1waCcsICc3LjAnLCAnLXRuJywgJzgnLCAnLW1hJywgJzIwMCcsICctbWV0YWxfYmluZGluZycsICctaW1hZScsICc8aW5maWxlLm1hZT4nLCAnLW9tYWUnLCAnPG91dGZpbGUubWFlPic=

> <r_lp_tautomer_probability>
1

> <r_epik_Ionization_Penalty>
0.000550083

> <r_epik_Ionization_Penalty_Charging>
0

> <r_epik_Ionization_Penalty_Neutral>
0.000550083

> <r_epik_State_Penalty>
0.000250415

> <r_epik_Charging_Adjusted_Penalty>
0.000250415

> <i_epik_Tot_Q>
0

> <i_epik_Tot_abs_Q>
0

> <r_epik_Metal_State_Penalty>
-0

> <b_epik_Metal_Only>
0

> <s_lp_Force_Field>
OPLS_2005

> <r_lp_Energy>
48.6174

> <b_lp_Chiralities_Consistent>
1

> <s_lp_Variant>
AV-unprocessed.smi:78-1

> <Gold.Version>
5.8.1

> <Gold.Id.Protein>
6NUR|6NUR_protein|mol2

> <Gold.PLP.Fitness>
44.5997

> <Gold.PLP.PLP>
-38.1142

> <Gold.PLP.part.hbond>
-5.6012

> <Gold.PLP.part.metal>
0.0000

> <Gold.PLP.part.buried>
-5.3224

> <Gold.PLP.part.nonpolar>
-27.7789

> <Gold.PLP.part.repulsive>
0.4745

> <Gold.PLP.ligand.clash>
0.0000

> <Gold.PLP.ligand.torsion>
3.0987

> <Gold.PLP.Chemscore.Hbond>
3.0000

> <Gold.PLP.Chemscore.CHOScore>
1.0000

> <Gold.PLP.Chemscore.Metal>
0.0000

> <Gold.Chemscore.Hbonds>
donor molecule, donor type, donor heavy atom, donor atom, acceptor molecule, acceptor atom, score
      L1  H    25    51       P1 10747  0.98
      L1  H    27    54       P1 10186  1.00
      P1  H 10752 10763       L1     7  0.81
      L1  C    14    44       P1 10175  1.00

> <Gold.PLP.Chemscore.Internal.Correction>
0.6830

> <Gold.Rescore>
     Score         DG    S(hbond)    S(metal)    S(lipo)     H(rot)  DE(clash)    DE(int)     intcor
     11.71     -15.69       2.99        0.00      76.05       3.39       0.00       3.98       ----

> <Gold.Chemscore.Fitness>
11.7064

> <Gold.Chemscore.DG>
-15.6930

> <Gold.Chemscore.ZeroCoef>
-5.4800

> <Gold.Chemscore.Hbond>
2.9890

> <Gold.Chemscore.Metal>
0.0000

> <Gold.Chemscore.Lipo>
76.0481

> <Gold.Chemscore.Internal_Hbond>
0.0000

> <Gold.Chemscore.DEClash>
0.0048

> <Gold.Chemscore.DEInternal>
3.9817

> <Gold.Chemscore.Rot>
3.3859

> <Gold.Chemscore.Internal.Correction>
   9.000000E+99

> <Gold.Chemscore.Hbonds>
donor molecule, donor type, donor heavy atom, donor atom, acceptor molecule, acceptor atom, score
      L1  H    25    51       P1 10747  0.89
      L1  H    27    54       P1 10186  0.99
      P1  H 10752 10763       L1     7  0.80

> <Gold.Chemscore.Hbond.Weighted>
-9.9833

> <Gold.Chemscore.Metal.Weighted>
-0.0000

> <Gold.Chemscore.Lipo.Weighted>
-8.8976

> <Gold.Chemscore.Internal_Hbond.Weighted>
0.0000

> <Gold.Chemscore.DEClash.Weighted>
0.0048

> <Gold.Chemscore.DEInternal.Weighted>
3.9817

> <Gold.Chemscore.Rot.Weighted>
8.6679

> <Gold.Chemscore.Internal.Correction.Weighted>
   9.000000E+99

> <Gold.Protein.RotatedTorsions>
[ 6907 6896 6895 6894 ] final  -27.21 input  -60.11 | X-H torsion
[ 7974 7965 7964 7962 ] final  155.23 input  175.53 | X-H torsion
[ 8008 7997 7996 7995 ] final  -88.18 input   59.86 | X-H torsion
[ 10167 10162 10161 10158 ] final   56.60 input  -65.29 | X-H torsion
[ 10718 10713 10712 10709 ] final -134.16 input   66.30 | X-H torsion
[ 10763 10752 10751 10750 ] final   75.45 input  -60.55 | X-H torsion
[ 11005 11000 10999 10996 ] final  -92.30 input  -57.11 | X-H torsion

> <Gold.Protein.ActiveResidues>
 VAL166  LYS551  ARG553  GLY616  TRP617  ASP618  TYR619  PRO620  LYS621  CYS622 
 ASP623  PHE694  ASN695  SER759  ASP760  ASP761  ALA762  ILE779  LEU786  VAL792 
 PHE793  MET794  SER795  GLU796  ALA797  LYS798  CYS799  TRP800  GLU811  SER814 

> <Gold.Protein.RotatedAtoms>
  151.1501  135.0223  159.8664 H   0  0  0  0  0  0  0  0  0  0  0  0  # atno 6907 bound_to 6896
  152.5453  134.1399  159.8484 H   0  0  0  0  0  0  0  0  0  0  0  0  # atno 6908 bound_to 6896
  151.1483  133.4879  159.2628 H   0  0  0  0  0  0  0  0  0  0  0  0  # atno 6909 bound_to 6896
  144.8038  139.7040  143.6171 H   0  0  0  0  0  0  0  0  0  0  0  0  # atno 7974 bound_to 7965
  154.6718  140.0557  157.0173 H   0  0  0  0  0  0  0  0  0  0  0  0  # atno 8008 bound_to 7997
  155.1078  140.3235  155.4511 H   0  0  0  0  0  0  0  0  0  0  0  0  # atno 8009 bound_to 7997
  156.2660  140.2019  156.6203 H   0  0  0  0  0  0  0  0  0  0  0  0  # atno 8010 bound_to 7997
  140.2070  144.3928  150.6504 H   0  0  0  0  0  0  0  0  0  0  0  0  # atno 10167 bound_to 10162
  156.2525  130.7161  151.1066 H   0  0  0  0  0  0  0  0  0  0  0  0  # atno 10718 bound_to 10713
  153.0655  135.4988  154.8191 H   0  0  0  0  0  0  0  0  0  0  0  0  # atno 10763 bound_to 10752
  154.6947  135.2991  154.9431 H   0  0  0  0  0  0  0  0  0  0  0  0  # atno 10764 bound_to 10752
  154.0174  135.6746  153.4822 H   0  0  0  0  0  0  0  0  0  0  0  0  # atno 10765 bound_to 10752
  141.1525  133.7812  157.0000 H   0  0  0  0  0  0  0  0  0  0  0  0  # atno 11005 bound_to 11000
  146.2325  139.5841  142.9546 LP  0  0  0  0  0  0  0  0  0  0  0  0  # atno 17320 bound_to 7965
  145.5489  141.0415  143.2289 LP  0  0  0  0  0  0  0  0  0  0  0  0  # atno 17321 bound_to 7965
  140.6350  143.2193  151.6414 LP  0  0  0  0  0  0  0  0  0  0  0  0  # atno 17342 bound_to 10162
  139.5194  144.3253  152.0875 LP  0  0  0  0  0  0  0  0  0  0  0  0  # atno 17343 bound_to 10162
  157.7220  131.0675  150.6096 LP  0  0  0  0  0  0  0  0  0  0  0  0  # atno 17370 bound_to 10713
  156.6177  130.4397  149.5834 LP  0  0  0  0  0  0  0  0  0  0  0  0  # atno 17371 bound_to 10713
  140.0946  134.9572  157.1829 LP  0  0  0  0  0  0  0  0  0  0  0  0  # atno 17394 bound_to 11000
  140.3400  134.2715  155.7214 LP  0  0  0  0  0  0  0  0  0  0  0  0  # atno 17395 bound_to 11000

$$$$
