AV-unprocessed.smi:2034|AV-procd|sdf|8264|dock2
  -GOLD-   2272010533D 1   1.00000     0.00000
 Structure written by MMmdl.
 50 52  0  0  0  0  0  0  0  0  1 V2000
  153.6130  141.1136  160.4809 C   0  0  0  0  0  0  0  0  0  0  0  0
  153.0938  141.7115  159.1693 C   0  0  1  0  0  0  0  0  0  0  0  0
  151.9869  140.8461  158.5383 C   0  0  0  0  0  0  0  0  0  0  0  0
  151.4387  141.5035  157.3550 N   0  0  0  0  0  0  0  0  0  0  0  0
  150.6359  140.6979  156.5180 C   0  0  0  0  0  0  0  0  0  0  0  0
  149.4222  140.1549  157.0016 C   0  0  0  0  0  0  0  0  0  0  0  0
  148.6354  139.3549  156.1512 C   0  0  0  0  0  0  0  0  0  0  0  0
  149.0855  139.1058  154.8337 C   0  0  0  0  0  0  0  0  0  0  0  0
  148.3829  138.3293  153.8715 N   0  0  0  0  0  0  0  0  0  0  0  0
  147.0574  138.1557  153.7299 C   0  0  0  0  0  0  0  0  0  0  0  0
  146.1905  138.6420  154.4553 O   0  0  0  0  0  0  0  0  0  0  0  0
  146.7833  137.3598  152.6873 N   0  0  0  0  0  0  0  0  0  0  0  0
  145.4425  136.9838  152.2536 C   0  0  0  0  0  0  0  0  0  0  0  0
  145.4811  135.8279  151.2407 C   0  0  2  0  0  0  0  0  0  0  0  0
  144.0999  135.2966  150.8630 C   0  0  0  0  0  0  0  0  0  0  0  0
  144.4266  133.8879  150.4242 C   0  0  0  0  0  0  0  0  0  0  0  0
  145.5093  133.4941  151.4246 C   0  0  0  0  0  0  0  0  0  0  0  0
  146.1695  134.7047  151.7867 O   0  0  0  0  0  0  0  0  0  0  0  0
  150.3039  139.6942  154.4410 C   0  0  0  0  0  0  0  0  0  0  0  0
  151.0615  140.4604  155.2532 N   0  0  0  0  0  0  0  0  0  0  0  0
  151.0095  142.8778  157.6064 C   0  0  0  0  0  0  0  0  0  0  0  0
  152.1442  143.6846  158.2653 C   0  0  1  0  0  0  0  0  0  0  0  0
  151.6959  145.0964  158.6568 C   0  0  0  0  0  0  0  0  0  0  0  0
  152.5750  143.0098  159.4442 O   0  0  0  0  0  0  0  0  0  0  0  0
  154.0302  140.1192  160.3208 H   0  0  0  0  0  0  0  0  0  0  0  0
  152.8145  141.0269  161.2184 H   0  0  0  0  0  0  0  0  0  0  0  0
  154.3968  141.7381  160.9101 H   0  0  0  0  0  0  0  0  0  0  0  0
  153.9308  141.8001  158.4745 H   0  0  0  0  0  0  0  0  0  0  0  0
  152.3966  139.8651  158.3029 H   0  0  0  0  0  0  0  0  0  0  0  0
  151.1793  140.6875  159.2546 H   0  0  0  0  0  0  0  0  0  0  0  0
  149.0894  140.3310  158.0134 H   0  0  0  0  0  0  0  0  0  0  0  0
  147.7048  138.9622  156.5287 H   0  0  0  0  0  0  0  0  0  0  0  0
  148.9653  137.8097  153.2312 H   0  0  0  0  0  0  0  0  0  0  0  0
  147.5542  137.0012  152.1433 H   0  0  0  0  0  0  0  0  0  0  0  0
  144.8645  136.6937  153.1315 H   0  0  0  0  0  0  0  0  0  0  0  0
  144.9363  137.8486  151.8214 H   0  0  0  0  0  0  0  0  0  0  0  0
  146.0013  136.1312  150.3305 H   0  0  0  0  0  0  0  0  0  0  0  0
  143.4425  135.2732  151.7334 H   0  0  0  0  0  0  0  0  0  0  0  0
  143.6166  135.8871  150.0838 H   0  0  0  0  0  0  0  0  0  0  0  0
  143.5650  133.2200  150.4423 H   0  0  0  0  0  0  0  0  0  0  0  0
  144.8337  133.8960  149.4123 H   0  0  0  0  0  0  0  0  0  0  0  0
  145.0616  133.0647  152.3212 H   0  0  0  0  0  0  0  0  0  0  0  0
  146.2091  132.7663  151.0137 H   0  0  0  0  0  0  0  0  0  0  0  0
  150.6885  139.5442  153.4427 H   0  0  0  0  0  0  0  0  0  0  0  0
  150.7214  143.3590  156.6708 H   0  0  0  0  0  0  0  0  0  0  0  0
  150.1302  142.8663  158.2524 H   0  0  0  0  0  0  0  0  0  0  0  0
  152.9848  143.7676  157.5737 H   0  0  0  0  0  0  0  0  0  0  0  0
  151.3651  145.6594  157.7838 H   0  0  0  0  0  0  0  0  0  0  0  0
  152.5134  145.6497  159.1195 H   0  0  0  0  0  0  0  0  0  0  0  0
  150.8702  145.0652  159.3682 H   0  0  0  0  0  0  0  0  0  0  0  0
  1  2  1  0  0  0  0
  1 25  1  0  0  0  0
  1 26  1  0  0  0  0
  1 27  1  0  0  0  0
  2 24  1  0  0  0  0
  2  3  1  0  0  0  0
  2 28  1  0  0  0  0
  3  4  1  0  0  0  0
  3 29  1  0  0  0  0
  3 30  1  0  0  0  0
  4  5  1  0  0  0  0
  4 21  1  0  0  0  0
  5 20  1  0  0  0  0
  5  6  2  0  0  0  0
  6  7  1  0  0  0  0
  6 31  1  0  0  0  0
  7  8  2  0  0  0  0
  7 32  1  0  0  0  0
  8  9  1  0  0  0  0
  8 19  1  0  0  0  0
  9 10  1  0  0  0  0
  9 33  1  0  0  0  0
 10 11  2  0  0  0  0
 10 12  1  0  0  0  0
 12 13  1  0  0  0  0
 12 34  1  0  0  0  0
 13 14  1  0  0  0  0
 13 35  1  0  0  0  0
 13 36  1  0  0  0  0
 14 18  1  0  0  0  0
 14 15  1  0  0  0  0
 14 37  1  0  0  0  0
 15 16  1  0  0  0  0
 15 38  1  0  0  0  0
 15 39  1  0  0  0  0
 16 17  1  0  0  0  0
 16 40  1  0  0  0  0
 16 41  1  0  0  0  0
 17 18  1  0  0  0  0
 17 42  1  0  0  0  0
 17 43  1  0  0  0  0
 19 20  2  0  0  0  0
 19 44  1  0  0  0  0
 21 22  1  0  0  0  0
 21 45  1  0  0  0  0
 21 46  1  0  0  0  0
 22 23  1  0  0  0  0
 22 24  1  0  0  0  0
 22 47  1  0  0  0  0
 23 48  1  0  0  0  0
 23 49  1  0  0  0  0
 23 50  1  0  0  0  0
M  END
> <s_m_source_file>
AV-unprocessed.smi

> <i_m_source_file_index>
2034

> <i_lp_mmshare_version>
43012

> <i_f3d_flags>
0

> <s_epik_input>
W0NIM11bQ0BASF0xW0NIMl1OKFtDSDJdW0NASF0oTzEpW0NIM10pYzJbY0hdW2NIXWMoW2NIXW4yKVtOSF1DKD1PKVtOSF1bQ0gyXVtDQEBIXTNbQ0gyXVtDSDJdW0NIMl1PMw==

> <s_epik_cmdline>
J2VwaWtfcHl0aG9uJywgJy1waCcsICc3LjAnLCAnLXRuJywgJzgnLCAnLW1hJywgJzIwMCcsICctbWV0YWxfYmluZGluZycsICctaW1hZScsICc8aW5maWxlLm1hZT4nLCAnLW9tYWUnLCAnPG91dGZpbGUubWFlPic=

> <r_lp_tautomer_probability>
1

> <r_epik_Ionization_Penalty>
0.00268225

> <r_epik_Ionization_Penalty_Charging>
0

> <r_epik_Ionization_Penalty_Neutral>
0.00268225

> <r_epik_State_Penalty>
0.00184408

> <r_epik_Charging_Adjusted_Penalty>
0.00184408

> <i_epik_Tot_Q>
0

> <i_epik_Tot_abs_Q>
0

> <r_epik_Metal_State_Penalty>
-0

> <b_epik_Metal_Only>
0

> <s_lp_Force_Field>
OPLS_2005

> <r_lp_Energy>
33.1724

> <b_lp_Chiralities_Consistent>
1

> <s_lp_Variant>
AV-unprocessed.smi:2034-2

> <Gold.Version>
5.8.1

> <Gold.Id.Protein>
6NUR|6NUR_protein|mol2

> <Gold.PLP.Fitness>
50.6704

> <Gold.PLP.PLP>
-42.8573

> <Gold.PLP.part.hbond>
-3.0000

> <Gold.PLP.part.metal>
0.0000

> <Gold.PLP.part.buried>
-5.2810

> <Gold.PLP.part.nonpolar>
-35.1506

> <Gold.PLP.part.repulsive>
0.5739

> <Gold.PLP.ligand.clash>
0.0000

> <Gold.PLP.ligand.torsion>
0.4966

> <Gold.PLP.Chemscore.Hbond>
1.8151

> <Gold.PLP.Chemscore.CHOScore>
1.0000

> <Gold.PLP.Chemscore.Metal>
0.0000

> <Gold.Chemscore.Hbonds>
donor molecule, donor type, donor heavy atom, donor atom, acceptor molecule, acceptor atom, score
      L1  H     9    33       P1  7948  0.82
      L1  H    12    34       P1  7948  1.00
      L1  C    19    44       P1  7957  0.93

> <Gold.PLP.Chemscore.Internal.Correction>
0.3610

> <Gold.Rescore>
     Score         DG    S(hbond)    S(metal)    S(lipo)     H(rot)  DE(clash)    DE(int)     intcor
     20.19     -20.81       1.92        0.00     106.19       1.37       0.03       0.60       ----

> <Gold.Chemscore.Fitness>
20.1855

> <Gold.Chemscore.DG>
-20.8114

> <Gold.Chemscore.ZeroCoef>
-5.4800

> <Gold.Chemscore.Hbond>
1.9175

> <Gold.Chemscore.Metal>
0.0000

> <Gold.Chemscore.Lipo>
106.1931

> <Gold.Chemscore.Internal_Hbond>
0.0000

> <Gold.Chemscore.DEClash>
0.0263

> <Gold.Chemscore.DEInternal>
0.5996

> <Gold.Chemscore.Rot>
1.3663

> <Gold.Chemscore.Internal.Correction>
   9.000000E+99

> <Gold.Chemscore.Hbonds>
donor molecule, donor type, donor heavy atom, donor atom, acceptor molecule, acceptor atom, score
      L1  H     9    33       P1  7948  0.77
      L1  H    12    34       P1  7948  0.98

> <Gold.Chemscore.Hbond.Weighted>
-6.4045

> <Gold.Chemscore.Metal.Weighted>
-0.0000

> <Gold.Chemscore.Lipo.Weighted>
-12.4246

> <Gold.Chemscore.Internal_Hbond.Weighted>
0.0000

> <Gold.Chemscore.DEClash.Weighted>
0.0263

> <Gold.Chemscore.DEInternal.Weighted>
0.5996

> <Gold.Chemscore.Rot.Weighted>
3.4977

> <Gold.Chemscore.Internal.Correction.Weighted>
   9.000000E+99

> <Gold.Protein.RotatedTorsions>
[ 6907 6896 6895 6894 ] final  178.63 input  -60.11 | X-H torsion
[ 7974 7965 7964 7962 ] final   68.63 input  175.53 | X-H torsion
[ 8008 7997 7996 7995 ] final -102.30 input   59.86 | X-H torsion
[ 10167 10162 10161 10158 ] final   57.01 input  -65.29 | X-H torsion
[ 10718 10713 10712 10709 ] final -142.80 input   66.30 | X-H torsion
[ 10763 10752 10751 10750 ] final  174.83 input  -60.55 | X-H torsion
[ 11005 11000 10999 10996 ] final   -1.60 input  -57.11 | X-H torsion

> <Gold.Protein.ActiveResidues>
 VAL166  LYS551  ARG553  GLY616  TRP617  ASP618  TYR619  PRO620  LYS621  CYS622 
 ASP623  PHE694  ASN695  SER759  ASP760  ASP761  ALA762  ILE779  LEU786  VAL792 
 PHE793  MET794  SER795  GLU796  ALA797  LYS798  CYS799  TRP800  GLU811  SER814 

> <Gold.Protein.RotatedAtoms>
  151.6847  133.3311  159.3227 H   0  0  0  0  0  0  0  0  0  0  0  0  # atno 6907 bound_to 6896
  150.7806  134.6750  159.6422 H   0  0  0  0  0  0  0  0  0  0  0  0  # atno 6908 bound_to 6896
  152.3863  134.6516  160.0176 H   0  0  0  0  0  0  0  0  0  0  0  0  # atno 6909 bound_to 6896
  145.8002  139.2978  143.1159 H   0  0  0  0  0  0  0  0  0  0  0  0  # atno 7974 bound_to 7965
  154.8547  140.0429  157.1627 H   0  0  0  0  0  0  0  0  0  0  0  0  # atno 8008 bound_to 7997
  154.8905  140.2986  155.5353 H   0  0  0  0  0  0  0  0  0  0  0  0  # atno 8009 bound_to 7997
  156.2997  140.2394  156.3920 H   0  0  0  0  0  0  0  0  0  0  0  0  # atno 8010 bound_to 7997
  140.2026  144.3972  150.6522 H   0  0  0  0  0  0  0  0  0  0  0  0  # atno 10167 bound_to 10162
  156.3503  130.7684  151.1836 H   0  0  0  0  0  0  0  0  0  0  0  0  # atno 10718 bound_to 10713
  154.4592  135.2767  155.1725 H   0  0  0  0  0  0  0  0  0  0  0  0  # atno 10763 bound_to 10752
  154.3520  135.6148  153.5651 H   0  0  0  0  0  0  0  0  0  0  0  0  # atno 10764 bound_to 10752
  152.9853  135.5813  154.4951 H   0  0  0  0  0  0  0  0  0  0  0  0  # atno 10765 bound_to 10752
  140.6491  133.9421  155.8369 H   0  0  0  0  0  0  0  0  0  0  0  0  # atno 11005 bound_to 11000
  145.9886  140.8622  143.0078 LP  0  0  0  0  0  0  0  0  0  0  0  0  # atno 17320 bound_to 7965
  144.6770  140.2183  143.7369 LP  0  0  0  0  0  0  0  0  0  0  0  0  # atno 17321 bound_to 7965
  140.6380  143.2198  151.6353 LP  0  0  0  0  0  0  0  0  0  0  0  0  # atno 17342 bound_to 10162
  139.5211  144.3203  152.0916 LP  0  0  0  0  0  0  0  0  0  0  0  0  # atno 17343 bound_to 10162
  157.7460  131.0429  150.4719 LP  0  0  0  0  0  0  0  0  0  0  0  0  # atno 17370 bound_to 10713
  156.4913  130.4096  149.6405 LP  0  0  0  0  0  0  0  0  0  0  0  0  # atno 17371 bound_to 10713
  141.0550  134.0429  157.3734 LP  0  0  0  0  0  0  0  0  0  0  0  0  # atno 17394 bound_to 11000
  139.9052  135.0177  156.7454 LP  0  0  0  0  0  0  0  0  0  0  0  0  # atno 17395 bound_to 11000

$$$$
