AV-unprocessed.smi:392|AV-procd|sdf|2481|dock2
  -GOLD-   2262022423D 1   1.00000     0.00000
 Structure written by MMmdl.
 32 34  0  0  0  0  0  0  0  0  1 V2000
  151.8088  140.3888  155.1088 O   0  0  0  0  0  0  0  0  0  0  0  0
  150.5837  140.6520  155.7626 C   0  0  1  0  0  0  0  0  0  0  0  0
  150.6627  142.0613  156.3830 C   0  0  0  0  0  0  0  0  0  0  0  0
  151.3825  142.0685  157.6443 N   0  0  0  0  0  0  0  0  0  0  0  0
  152.0481  141.0384  158.2010 C   0  0  0  0  0  0  0  0  0  0  0  0
  152.6347  141.2541  159.3749 N   0  0  0  0  0  0  0  0  0  0  0  0
  152.3107  142.5792  159.6096 C   0  0  0  0  0  0  0  0  0  0  0  0
  152.6265  143.4208  160.7002 C   0  0  0  0  0  0  0  0  0  0  0  0
  152.1750  144.7569  160.7260 C   0  0  0  0  0  0  0  0  0  0  0  0
  151.4046  145.2718  159.6632 C   0  0  0  0  0  0  0  0  0  0  0  0
  151.0805  144.4537  158.5643 C   0  0  0  0  0  0  0  0  0  0  0  0
  151.5302  143.1200  158.5435 C   0  0  0  0  0  0  0  0  0  0  0  0
  149.3869  140.4980  154.8305 C   0  0  0  0  0  0  0  0  0  0  0  0
  148.5336  141.5962  154.5801 C   0  0  0  0  0  0  0  0  0  0  0  0
  147.4086  141.4489  153.7464 C   0  0  0  0  0  0  0  0  0  0  0  0
  147.1279  140.2024  153.1565 C   0  0  0  0  0  0  0  0  0  0  0  0
  147.9734  139.1037  153.4006 C   0  0  0  0  0  0  0  0  0  0  0  0
  149.0988  139.2482  154.2351 C   0  0  0  0  0  0  0  0  0  0  0  0
  149.8920  138.1755  154.4710 F   0  0  0  0  0  0  0  0  0  0  0  0
  151.9748  139.4592  155.1480 H   0  0  0  0  0  0  0  0  0  0  0  0
  150.5090  139.9170  156.5648 H   0  0  0  0  0  0  0  0  0  0  0  0
  151.1779  142.7414  155.7029 H   0  0  0  0  0  0  0  0  0  0  0  0
  149.6658  142.4755  156.5399 H   0  0  0  0  0  0  0  0  0  0  0  0
  152.1018  140.0738  157.7177 H   0  0  0  0  0  0  0  0  0  0  0  0
  153.2152  143.0368  161.5203 H   0  0  0  0  0  0  0  0  0  0  0  0
  152.4210  145.3898  161.5658 H   0  0  0  0  0  0  0  0  0  0  0  0
  151.0615  146.2956  159.6921 H   0  0  0  0  0  0  0  0  0  0  0  0
  150.4880  144.8448  157.7509 H   0  0  0  0  0  0  0  0  0  0  0  0
  148.7327  142.5548  155.0366 H   0  0  0  0  0  0  0  0  0  0  0  0
  146.7586  142.2919  153.5631 H   0  0  0  0  0  0  0  0  0  0  0  0
  146.2633  140.0881  152.5194 H   0  0  0  0  0  0  0  0  0  0  0  0
  147.7556  138.1461  152.9514 H   0  0  0  0  0  0  0  0  0  0  0  0
  1  2  1  0  0  0  0
  1 20  1  0  0  0  0
  2  3  1  0  0  0  0
  2 13  1  0  0  0  0
  2 21  1  0  0  0  0
  3  4  1  0  0  0  0
  3 22  1  0  0  0  0
  3 23  1  0  0  0  0
  4 12  1  0  0  0  0
  4  5  1  0  0  0  0
  5  6  2  0  0  0  0
  5 24  1  0  0  0  0
  6  7  1  0  0  0  0
  7 12  2  0  0  0  0
  7  8  1  0  0  0  0
  8  9  2  0  0  0  0
  8 25  1  0  0  0  0
  9 10  1  0  0  0  0
  9 26  1  0  0  0  0
 10 11  2  0  0  0  0
 10 27  1  0  0  0  0
 11 12  1  0  0  0  0
 11 28  1  0  0  0  0
 13 18  1  0  0  0  0
 13 14  2  0  0  0  0
 14 15  1  0  0  0  0
 14 29  1  0  0  0  0
 15 16  2  0  0  0  0
 15 30  1  0  0  0  0
 16 17  1  0  0  0  0
 16 31  1  0  0  0  0
 17 18  2  0  0  0  0
 17 32  1  0  0  0  0
 18 19  1  0  0  0  0
M  END
> <s_m_source_file>
AV-unprocessed.smi

> <i_m_source_file_index>
392

> <i_lp_mmshare_version>
43012

> <i_f3d_flags>
0

> <s_epik_input>
RmMxW2NIXVtjSF1bY0hdW2NIXWMxW0NASF0oW09IXSlbQ0gyXW4oW2NIXW4yKWMoYzIzKVtjSF1bY0hdW2NIXVtjSF0z

> <s_epik_cmdline>
J2VwaWtfcHl0aG9uJywgJy1waCcsICc3LjAnLCAnLXRuJywgJzgnLCAnLW1hJywgJzIwMCcsICctbWV0YWxfYmluZGluZycsICctaW1hZScsICc8aW5maWxlLm1hZT4nLCAnLW9tYWUnLCAnPG91dGZpbGUubWFlPic=

> <r_epik_Ionization_Penalty>
0.0696512

> <r_epik_Ionization_Penalty_Charging>
0

> <r_epik_Ionization_Penalty_Neutral>
0.0696512

> <r_epik_State_Penalty>
0.0610247

> <r_epik_Charging_Adjusted_Penalty>
0.0610247

> <i_epik_Tot_Q>
0

> <i_epik_Tot_abs_Q>
0

> <r_epik_Metal_State_Penalty>
6.42746e-05

> <b_epik_Metal_Only>
0

> <s_lp_Force_Field>
OPLS_2005

> <r_lp_Energy>
12.4864

> <b_lp_Chiralities_Consistent>
1

> <s_lp_Variant>
AV-unprocessed.smi:392-2

> <Gold.Version>
5.8.1

> <Gold.Id.Protein>
6NUR|6NUR_protein|mol2

> <Gold.PLP.Fitness>
49.3820

> <Gold.PLP.PLP>
-47.2536

> <Gold.PLP.part.hbond>
-1.0000

> <Gold.PLP.part.metal>
0.0000

> <Gold.PLP.part.buried>
-6.1631

> <Gold.PLP.part.nonpolar>
-41.1576

> <Gold.PLP.part.repulsive>
0.0000

> <Gold.PLP.ligand.clash>
0.0000

> <Gold.PLP.ligand.torsion>
0.2941

> <Gold.PLP.Chemscore.Hbond>
0.8960

> <Gold.PLP.Chemscore.CHOScore>
0.0000

> <Gold.PLP.Chemscore.Metal>
0.0000

> <Gold.Chemscore.Hbonds>
donor molecule, donor type, donor heavy atom, donor atom, acceptor molecule, acceptor atom, score
      P1  H  7989  7998       L1     1  0.80

> <Gold.PLP.Chemscore.Internal.Correction>
0.0287

> <Gold.Rescore>
     Score         DG    S(hbond)    S(metal)    S(lipo)     H(rot)  DE(clash)    DE(int)     intcor
     17.28     -17.90       0.85        0.00     123.60       1.91       0.18       0.44       ----

> <Gold.Chemscore.Fitness>
17.2788

> <Gold.Chemscore.DG>
-17.8994

> <Gold.Chemscore.ZeroCoef>
-5.4800

> <Gold.Chemscore.Hbond>
0.8540

> <Gold.Chemscore.Metal>
0.0000

> <Gold.Chemscore.Lipo>
123.5956

> <Gold.Chemscore.Internal_Hbond>
0.0000

> <Gold.Chemscore.DEClash>
0.1796

> <Gold.Chemscore.DEInternal>
0.4410

> <Gold.Chemscore.Rot>
1.9116

> <Gold.Chemscore.Internal.Correction>
   9.000000E+99

> <Gold.Chemscore.Hbonds>
donor molecule, donor type, donor heavy atom, donor atom, acceptor molecule, acceptor atom, score
      P1  H  7989  7998       L1     1  0.39

> <Gold.Chemscore.Hbond.Weighted>
-2.8524

> <Gold.Chemscore.Metal.Weighted>
-0.0000

> <Gold.Chemscore.Lipo.Weighted>
-14.4607

> <Gold.Chemscore.Internal_Hbond.Weighted>
0.0000

> <Gold.Chemscore.DEClash.Weighted>
0.1796

> <Gold.Chemscore.DEInternal.Weighted>
0.4410

> <Gold.Chemscore.Rot.Weighted>
4.8937

> <Gold.Chemscore.Internal.Correction.Weighted>
   9.000000E+99

> <Gold.Protein.RotatedTorsions>
[ 6907 6896 6895 6894 ] final   13.03 input  -60.11 | X-H torsion
[ 7974 7965 7964 7962 ] final  128.96 input  175.53 | X-H torsion
[ 8008 7997 7996 7995 ] final  -35.31 input   59.86 | X-H torsion
[ 10167 10162 10161 10158 ] final  175.78 input  -65.29 | X-H torsion
[ 10718 10713 10712 10709 ] final   91.18 input   66.30 | X-H torsion
[ 10763 10752 10751 10750 ] final  130.23 input  -60.55 | X-H torsion
[ 11005 11000 10999 10996 ] final  175.11 input  -57.11 | X-H torsion

> <Gold.Protein.ActiveResidues>
 VAL166  LYS551  ARG553  GLY616  TRP617  ASP618  TYR619  PRO620  LYS621  CYS622 
 ASP623  PHE694  ASN695  SER759  ASP760  ASP761  ALA762  ILE779  LEU786  VAL792 
 PHE793  MET794  SER795  GLU796  ALA797  LYS798  CYS799  TRP800  GLU811  SER814 

> <Gold.Protein.RotatedAtoms>
  151.7798  135.0764  160.0371 H   0  0  0  0  0  0  0  0  0  0  0  0  # atno 6907 bound_to 6896
  152.3231  133.5871  159.5766 H   0  0  0  0  0  0  0  0  0  0  0  0  # atno 6908 bound_to 6896
  150.7380  133.9897  159.3645 H   0  0  0  0  0  0  0  0  0  0  0  0  # atno 6909 bound_to 6896
  145.0339  139.4022  143.5136 H   0  0  0  0  0  0  0  0  0  0  0  0  # atno 7974 bound_to 7965
  154.4098  140.1660  156.2191 H   0  0  0  0  0  0  0  0  0  0  0  0  # atno 8008 bound_to 7997
  155.9379  140.3410  155.6280 H   0  0  0  0  0  0  0  0  0  0  0  0  # atno 8009 bound_to 7997
  155.7026  140.0747  157.2395 H   0  0  0  0  0  0  0  0  0  0  0  0  # atno 8010 bound_to 7997
  139.5189  144.2992  152.0394 H   0  0  0  0  0  0  0  0  0  0  0  0  # atno 10167 bound_to 10162
  157.6960  131.0398  150.3690 H   0  0  0  0  0  0  0  0  0  0  0  0  # atno 10718 bound_to 10713
  153.7547  135.3205  155.3327 H   0  0  0  0  0  0  0  0  0  0  0  0  # atno 10763 bound_to 10752
  154.8251  135.4575  154.0897 H   0  0  0  0  0  0  0  0  0  0  0  0  # atno 10764 bound_to 10752
  153.2110  135.6935  153.8197 H   0  0  0  0  0  0  0  0  0  0  0  0  # atno 10765 bound_to 10752
  140.3586  134.7133  157.4316 H   0  0  0  0  0  0  0  0  0  0  0  0  # atno 11005 bound_to 11000
  146.3502  139.9903  142.8686 LP  0  0  0  0  0  0  0  0  0  0  0  0  # atno 17320 bound_to 7965
  145.1735  140.9732  143.4308 LP  0  0  0  0  0  0  0  0  0  0  0  0  # atno 17321 bound_to 7965
  140.2440  144.4239  150.6248 LP  0  0  0  0  0  0  0  0  0  0  0  0  # atno 17342 bound_to 10162
  140.6271  143.2182  151.6574 LP  0  0  0  0  0  0  0  0  0  0  0  0  # atno 17343 bound_to 10162
  156.4117  130.3935  149.6887 LP  0  0  0  0  0  0  0  0  0  0  0  0  # atno 17370 bound_to 10713
  156.4168  130.7749  151.2765 LP  0  0  0  0  0  0  0  0  0  0  0  0  # atno 17371 bound_to 10713
  140.0645  134.5949  155.8711 LP  0  0  0  0  0  0  0  0  0  0  0  0  # atno 17394 bound_to 11000
  141.1991  133.6605  156.5826 LP  0  0  0  0  0  0  0  0  0  0  0  0  # atno 17395 bound_to 11000

$$$$
