AV-unprocessed.smi:1429|AV-procd|sdf|5821|dock5
  -GOLD-   22720 5473D 1   1.00000     0.00000
 Structure written by MMmdl.
 29 30  0  0  0  0  0  0  0  0  2 V2000
  149.9193  137.4337  154.8941 C   0  0  0  0  0  0  0  0  0  0  0  0
  151.0265  137.7195  155.8497 C   0  0  0  0  0  0  0  0  0  0  0  0
  152.0251  136.8620  156.0727 N   0  0  0  0  0  0  0  0  0  0  0  0
  152.9344  137.3488  157.0005 N   0  0  0  0  0  0  0  0  0  0  0  0
  152.6070  138.5599  157.4728 C   0  0  0  0  0  0  0  0  0  0  0  0
  153.3606  139.2062  158.3778 N   0  5  0  0  0  0  0  0  0  0  0  0
  152.7901  140.0962  159.2215 C   0  0  0  0  0  0  0  0  0  0  0  0
  151.5833  140.2294  159.4381 O   0  0  0  0  0  0  0  0  0  0  0  0
  153.6717  140.8816  159.8540 N   0  0  0  0  0  0  0  0  0  0  0  0
  153.3334  141.9193  160.8199 C   0  0  0  0  0  0  0  0  0  0  0  0
  152.3243  142.9150  160.2251 C   0  0  1  0  0  0  0  0  0  0  0  0
  152.1211  144.1605  161.0628 C   0  0  0  0  0  0  0  0  0  0  0  0
  151.4924  145.1153  160.0533 C   0  0  0  0  0  0  0  0  0  0  0  0
  152.0644  144.7759  158.7937 O   0  0  0  0  0  0  0  0  0  0  0  0
  152.7415  143.5248  158.8845 C   0  0  0  0  0  0  0  0  0  0  0  0
  151.1250  139.2102  156.7719 S   0  0  0  0  0  0  0  0  0  0  0  0
  149.3150  136.6038  155.2606 H   0  0  0  0  0  0  0  0  0  0  0  0
  150.3260  137.1699  153.9176 H   0  0  0  0  0  0  0  0  0  0  0  0
  149.2795  138.3089  154.7814 H   0  0  0  0  0  0  0  0  0  0  0  0
  154.6507  140.7428  159.6506 H   0  0  0  0  0  0  0  0  0  0  0  0
  152.9134  141.4501  161.7106 H   0  0  0  0  0  0  0  0  0  0  0  0
  154.2395  142.4427  161.1299 H   0  0  0  0  0  0  0  0  0  0  0  0
  151.3581  142.4225  160.1007 H   0  0  0  0  0  0  0  0  0  0  0  0
  151.4916  143.9923  161.9371 H   0  0  0  0  0  0  0  0  0  0  0  0
  153.0804  144.5541  161.4018 H   0  0  0  0  0  0  0  0  0  0  0  0
  150.4148  144.9552  159.9992 H   0  0  0  0  0  0  0  0  0  0  0  0
  151.6678  146.1620  160.3028 H   0  0  0  0  0  0  0  0  0  0  0  0
  153.8156  143.7152  158.8633 H   0  0  0  0  0  0  0  0  0  0  0  0
  152.4976  142.8798  158.0400 H   0  0  0  0  0  0  0  0  0  0  0  0
  1  2  1  0  0  0  0
  1 17  1  0  0  0  0
  1 18  1  0  0  0  0
  1 19  1  0  0  0  0
  2 16  1  0  0  0  0
  2  3  2  0  0  0  0
  3  4  1  0  0  0  0
  4  5  2  0  0  0  0
  5  6  1  0  0  0  0
  5 16  1  0  0  0  0
  6  7  1  0  0  0  0
  7  8  2  0  0  0  0
  7  9  1  0  0  0  0
  9 10  1  0  0  0  0
  9 20  1  0  0  0  0
 10 11  1  0  0  0  0
 10 21  1  0  0  0  0
 10 22  1  0  0  0  0
 11 15  1  0  0  0  0
 11 12  1  0  0  0  0
 11 23  1  0  0  0  0
 12 13  1  0  0  0  0
 12 24  1  0  0  0  0
 12 25  1  0  0  0  0
 13 14  1  0  0  0  0
 13 26  1  0  0  0  0
 13 27  1  0  0  0  0
 14 15  1  0  0  0  0
 15 28  1  0  0  0  0
 15 29  1  0  0  0  0
M  CHG  1   6  -1
M  END
> <s_m_source_file>
AV-unprocessed.smi

> <i_m_source_file_index>
1429

> <i_lp_mmshare_version>
43012

> <i_f3d_flags>
0

> <s_epik_input>
W0NIM11jMW5uYyhzMSlbTkhdQyg9TylbTkhdW0NIMl1bQ0BASF0yW0NIMl1bQ0gyXU9bQ0gyXTI=

> <s_epik_cmdline>
J2VwaWtfcHl0aG9uJywgJy1waCcsICc3LjAnLCAnLXRuJywgJzgnLCAnLW1hJywgJzIwMCcsICctbWV0YWxfYmluZGluZycsICctaW1hZScsICc8aW5maWxlLm1hZT4nLCAnLW9tYWUnLCAnPG91dGZpbGUubWFlPic=

> <r_lp_tautomer_probability>
1

> <r_epik_Ionization_Penalty>
4.4122

> <r_epik_Ionization_Penalty_Charging>
4.26477

> <r_epik_Ionization_Penalty_Neutral>
0.147429

> <r_epik_State_Penalty>
4.26433

> <r_epik_Charging_Adjusted_Penalty>
8.5291

> <i_epik_Tot_Q>
-1

> <i_epik_Tot_abs_Q>
1

> <r_epik_Metal_State_Penalty>
0.713483

> <b_epik_Metal_Only>
1

> <s_lp_Force_Field>
OPLS_2005

> <r_lp_Energy>
16.2384

> <b_lp_Chiralities_Consistent>
1

> <s_lp_Variant>
AV-unprocessed.smi:1429-4

> <Gold.Version>
5.8.1

> <Gold.Id.Protein>
6NUR|6NUR_protein|mol2

> <Gold.PLP.Fitness>
41.4274

> <Gold.PLP.PLP>
-33.5487

> <Gold.PLP.part.hbond>
-2.2009

> <Gold.PLP.part.metal>
0.0000

> <Gold.PLP.part.buried>
-2.8604

> <Gold.PLP.part.nonpolar>
-28.3203

> <Gold.PLP.part.repulsive>
0.1441

> <Gold.PLP.ligand.clash>
0.0000

> <Gold.PLP.ligand.torsion>
0.2662

> <Gold.PLP.Chemscore.Hbond>
2.7930

> <Gold.PLP.Chemscore.CHOScore>
0.0000

> <Gold.PLP.Chemscore.Metal>
0.0000

> <Gold.Chemscore.Hbonds>
donor molecule, donor type, donor heavy atom, donor atom, acceptor molecule, acceptor atom, score
      P1  H  7997  8008       L1     6  2.00
      P1  H 10752 10765       L1     3  0.69

> <Gold.PLP.Chemscore.Internal.Correction>
0.0322

> <Gold.Rescore>
     Score         DG    S(hbond)    S(metal)    S(lipo)     H(rot)  DE(clash)    DE(int)     intcor
     11.08     -14.01       0.72        0.00      80.73       1.30       0.02       2.90       ----

> <Gold.Chemscore.Fitness>
11.0842

> <Gold.Chemscore.DG>
-14.0115

> <Gold.Chemscore.ZeroCoef>
-5.4800

> <Gold.Chemscore.Hbond>
0.7212

> <Gold.Chemscore.Metal>
0.0000

> <Gold.Chemscore.Lipo>
80.7320

> <Gold.Chemscore.Internal_Hbond>
0.0000

> <Gold.Chemscore.DEClash>
0.0243

> <Gold.Chemscore.DEInternal>
2.9031

> <Gold.Chemscore.Rot>
1.2980

> <Gold.Chemscore.Internal.Correction>
   9.000000E+99

> <Gold.Chemscore.Hbonds>
donor molecule, donor type, donor heavy atom, donor atom, acceptor molecule, acceptor atom, score
      P1  H  7997  8008       L1     6  0.25
      P1  H 10752 10765       L1     3  0.52

> <Gold.Chemscore.Hbond.Weighted>
-2.4088

> <Gold.Chemscore.Metal.Weighted>
-0.0000

> <Gold.Chemscore.Lipo.Weighted>
-9.4456

> <Gold.Chemscore.Internal_Hbond.Weighted>
0.0000

> <Gold.Chemscore.DEClash.Weighted>
0.0243

> <Gold.Chemscore.DEInternal.Weighted>
2.9031

> <Gold.Chemscore.Rot.Weighted>
3.3229

> <Gold.Chemscore.Internal.Correction.Weighted>
   9.000000E+99

> <Gold.Protein.RotatedTorsions>
[ 6907 6896 6895 6894 ] final    3.05 input  -60.11 | X-H torsion
[ 7974 7965 7964 7962 ] final  141.75 input  175.53 | X-H torsion
[ 8008 7997 7996 7995 ] final -100.34 input   59.86 | X-H torsion
[ 10167 10162 10161 10158 ] final  -90.58 input  -65.29 | X-H torsion
[ 10718 10713 10712 10709 ] final    9.77 input   66.30 | X-H torsion
[ 10763 10752 10751 10750 ] final -177.44 input  -60.55 | X-H torsion
[ 11005 11000 10999 10996 ] final  120.44 input  -57.11 | X-H torsion

> <Gold.Protein.ActiveResidues>
 VAL166  LYS551  ARG553  GLY616  TRP617  ASP618  TYR619  PRO620  LYS621  CYS622 
 ASP623  PHE694  ASN695  SER759  ASP760  ASP761  ALA762  ILE779  LEU786  VAL792 
 PHE793  MET794  SER795  GLU796  ALA797  LYS798  CYS799  TRP800  GLU811  SER814 

> <Gold.Protein.RotatedAtoms>
  151.6188  135.1034  160.0096 H   0  0  0  0  0  0  0  0  0  0  0  0  # atno 6907 bound_to 6896
  152.4169  133.7049  159.6456 H   0  0  0  0  0  0  0  0  0  0  0  0  # atno 6908 bound_to 6896
  150.8057  133.8441  159.3228 H   0  0  0  0  0  0  0  0  0  0  0  0  # atno 6909 bound_to 6896
  144.9068  139.5347  143.5727 H   0  0  0  0  0  0  0  0  0  0  0  0  # atno 7974 bound_to 7965
  154.8273  140.0441  157.1453 H   0  0  0  0  0  0  0  0  0  0  0  0  # atno 8008 bound_to 7997
  154.9192  140.3024  155.5205 H   0  0  0  0  0  0  0  0  0  0  0  0  # atno 8009 bound_to 7997
  156.2984  140.2344  156.4240 H   0  0  0  0  0  0  0  0  0  0  0  0  # atno 8010 bound_to 7997
  140.3535  143.2879  151.9699 H   0  0  0  0  0  0  0  0  0  0  0  0  # atno 10167 bound_to 10162
  156.9712  130.5970  149.5669 H   0  0  0  0  0  0  0  0  0  0  0  0  # atno 10718 bound_to 10713
  154.5600  135.2819  155.0928 H   0  0  0  0  0  0  0  0  0  0  0  0  # atno 10763 bound_to 10752
  154.2340  135.6369  153.5188 H   0  0  0  0  0  0  0  0  0  0  0  0  # atno 10764 bound_to 10752
  153.0026  135.5544  154.6192 H   0  0  0  0  0  0  0  0  0  0  0  0  # atno 10765 bound_to 10752
  139.9185  134.9634  156.7807 H   0  0  0  0  0  0  0  0  0  0  0  0  # atno 11005 bound_to 11000
  146.3138  139.7842  142.8999 LP  0  0  0  0  0  0  0  0  0  0  0  0  # atno 17320 bound_to 7965
  145.3522  141.0309  143.3332 LP  0  0  0  0  0  0  0  0  0  0  0  0  # atno 17321 bound_to 7965
  139.4823  144.6056  151.7528 LP  0  0  0  0  0  0  0  0  0  0  0  0  # atno 17342 bound_to 10162
  140.5196  144.0899  150.6019 LP  0  0  0  0  0  0  0  0  0  0  0  0  # atno 17343 bound_to 10162
  156.0282  130.5375  150.8464 LP  0  0  0  0  0  0  0  0  0  0  0  0  # atno 17370 bound_to 10713
  157.5591  131.0945  150.9585 LP  0  0  0  0  0  0  0  0  0  0  0  0  # atno 17371 bound_to 10713
  140.6546  133.9700  155.7773 LP  0  0  0  0  0  0  0  0  0  0  0  0  # atno 17394 bound_to 11000
  141.0684  134.0242  157.3560 LP  0  0  0  0  0  0  0  0  0  0  0  0  # atno 17395 bound_to 11000

$$$$
