AV-unprocessed.smi:2|AV-procd|sdf|26|dock8
  -GOLD-   2262015143D 1   1.00000     0.00000
 Structure written by MMmdl.
 52 54  0  0  0  0  0  0  0  0  3 V2000
  148.0274  127.1106  151.1231 C   0  0  0  0  0  0  0  0  0  0  0  0
  147.5877  128.1871  152.1281 C   0  0  0  0  0  0  0  0  0  0  0  0
  148.6006  128.4392  153.2561 C   0  0  0  0  0  0  0  0  0  0  0  0
  149.2015  127.4900  153.7620 O   0  0  0  0  0  0  0  0  0  0  0  0
  148.8063  129.8514  153.6902 C   0  0  0  0  0  0  0  0  0  0  0  0
  147.9179  130.8533  153.2394 C   0  0  0  0  0  0  0  0  0  0  0  0
  148.0929  132.1951  153.6278 C   0  0  0  0  0  0  0  0  0  0  0  0
  149.1568  132.5725  154.4698 C   0  0  0  0  0  0  0  0  0  0  0  0
  149.2583  133.9124  154.7849 O   0  0  0  0  0  0  0  0  0  0  0  0
  150.0997  134.3226  155.8599 C   0  0  0  0  0  0  0  0  0  0  0  0
  150.4851  135.8132  155.7415 C   0  0  1  0  0  0  0  0  0  0  0  0
  150.9771  136.0394  154.4352 O   0  0  0  0  0  0  0  0  0  0  0  0
  149.2818  136.7410  156.0297 C   0  0  0  0  0  0  0  0  0  0  0  0
  149.0914  137.0170  157.4590 N   0  0  0  0  0  0  0  0  0  0  0  0
  149.5287  138.1135  158.1504 C   0  0  0  0  0  0  0  0  0  0  0  0
  150.2584  139.2575  157.6181 N   0  3  0  0  0  0  0  0  0  0  0  0
  150.4522  139.3437  156.4120 O   0  0  0  0  0  0  0  0  0  0  0  0
  150.6800  140.0786  158.4271 O   0  5  0  0  0  0  0  0  0  0  0  0
  149.2684  138.0713  159.4577 N   0  0  0  0  0  0  0  0  0  0  0  0
  148.6218  136.8639  159.6268 C   0  0  0  0  0  0  0  0  0  0  0  0
  148.1471  136.2240  160.8698 C   0  0  0  0  0  0  0  0  0  0  0  0
  148.2240  136.8048  161.9534 O   0  0  0  0  0  0  0  0  0  0  0  0
  147.6628  134.9548  160.6939 N   0  0  0  0  0  0  0  0  0  0  0  0
  147.2499  134.1960  161.8902 C   0  0  0  0  0  0  0  0  0  0  0  0
  147.5022  134.3251  159.4729 C   0  0  0  0  0  0  0  0  0  0  0  0
  147.0723  133.1694  159.4154 O   0  0  0  0  0  0  0  0  0  0  0  0
  147.8086  135.0240  158.3273 N   0  0  0  0  0  0  0  0  0  0  0  0
  147.3367  134.5099  157.0355 C   0  0  0  0  0  0  0  0  0  0  0  0
  148.4499  136.2272  158.4397 C   0  0  0  0  0  0  0  0  0  0  0  0
  150.0404  131.5673  154.9336 C   0  0  0  0  0  0  0  0  0  0  0  0
  149.8689  130.2248  154.5454 C   0  0  0  0  0  0  0  0  0  0  0  0
  147.2647  126.9678  150.3575 H   0  0  0  0  0  0  0  0  0  0  0  0
  148.1867  126.1484  151.6114 H   0  0  0  0  0  0  0  0  0  0  0  0
  148.9520  127.3920  150.6174 H   0  0  0  0  0  0  0  0  0  0  0  0
  147.4164  129.1243  151.5977 H   0  0  0  0  0  0  0  0  0  0  0  0
  146.6371  127.8940  152.5745 H   0  0  0  0  0  0  0  0  0  0  0  0
  147.0926  130.6054  152.5873 H   0  0  0  0  0  0  0  0  0  0  0  0
  147.4047  132.9457  153.2676 H   0  0  0  0  0  0  0  0  0  0  0  0
  149.5697  134.1476  156.7973 H   0  0  0  0  0  0  0  0  0  0  0  0
  150.9778  133.6801  155.9208 H   0  0  0  0  0  0  0  0  0  0  0  0
  151.2927  136.0518  156.4314 H   0  0  0  0  0  0  0  0  0  0  0  0
  150.3804  136.6159  153.9830 H   0  0  0  0  0  0  0  0  0  0  0  0
  149.3854  137.6756  155.4845 H   0  0  0  0  0  0  0  0  0  0  0  0
  148.3741  136.3306  155.6026 H   0  0  0  0  0  0  0  0  0  0  0  0
  147.7516  133.2275  161.9263 H   0  0  0  0  0  0  0  0  0  0  0  0
  146.1741  134.0149  161.8688 H   0  0  0  0  0  0  0  0  0  0  0  0
  147.4694  134.6835  162.8406 H   0  0  0  0  0  0  0  0  0  0  0  0
  146.7791  135.2803  156.5043 H   0  0  0  0  0  0  0  0  0  0  0  0
  146.6462  133.6691  157.1094 H   0  0  0  0  0  0  0  0  0  0  0  0
  148.1687  134.1680  156.4277 H   0  0  0  0  0  0  0  0  0  0  0  0
  150.8668  131.7963  155.5874 H   0  0  0  0  0  0  0  0  0  0  0  0
  150.5721  129.4960  154.9194 H   0  0  0  0  0  0  0  0  0  0  0  0
  1  2  1  0  0  0  0
  1 32  1  0  0  0  0
  1 33  1  0  0  0  0
  1 34  1  0  0  0  0
  2  3  1  0  0  0  0
  2 35  1  0  0  0  0
  2 36  1  0  0  0  0
  3  4  2  0  0  0  0
  3  5  1  0  0  0  0
  5 31  1  0  0  0  0
  5  6  2  0  0  0  0
  6  7  1  0  0  0  0
  6 37  1  0  0  0  0
  7  8  2  0  0  0  0
  7 38  1  0  0  0  0
  8  9  1  0  0  0  0
  8 30  1  0  0  0  0
  9 10  1  0  0  0  0
 10 11  1  0  0  0  0
 10 39  1  0  0  0  0
 10 40  1  0  0  0  0
 11 12  1  0  0  0  0
 11 13  1  0  0  0  0
 11 41  1  0  0  0  0
 12 42  1  0  0  0  0
 13 14  1  0  0  0  0
 13 43  1  0  0  0  0
 13 44  1  0  0  0  0
 14 29  1  0  0  0  0
 14 15  1  0  0  0  0
 15 16  1  0  0  0  0
 15 19  2  0  0  0  0
 16 17  2  0  0  0  0
 16 18  1  0  0  0  0
 19 20  1  0  0  0  0
 20 29  2  0  0  0  0
 20 21  1  0  0  0  0
 21 22  2  0  0  0  0
 21 23  1  0  0  0  0
 23 24  1  0  0  0  0
 23 25  1  0  0  0  0
 24 45  1  0  0  0  0
 24 46  1  0  0  0  0
 24 47  1  0  0  0  0
 25 26  2  0  0  0  0
 25 27  1  0  0  0  0
 27 28  1  0  0  0  0
 27 29  1  0  0  0  0
 28 48  1  0  0  0  0
 28 49  1  0  0  0  0
 28 50  1  0  0  0  0
 30 31  2  0  0  0  0
 30 51  1  0  0  0  0
 31 52  1  0  0  0  0
M  CHG  1  16   1
M  CHG  1  18  -1
M  END
> <s_m_source_file>
AV-unprocessed.smi

> <i_m_source_file_index>
2

> <i_lp_mmshare_version>
43012

> <i_f3d_flags>
0

> <s_epik_input>
W0NIM11bQ0gyXUMoPU8pYzFbY0hdW2NIXWMoW2NIXVtjSF0xKU9bQ0gyXVtDQEhdKFtPSF0pW0NIMl1uKGMobjIpW04rXSg9TylbTy1dKWMoYzIzKW4oW0NIM10pYyg9TyluKGMzPU8pW0NIM10=

> <s_epik_cmdline>
J2VwaWtfcHl0aG9uJywgJy1waCcsICc3LjAnLCAnLXRuJywgJzgnLCAnLW1hJywgJzIwMCcsICctbWV0YWxfYmluZGluZycsICctaW1hZScsICc8aW5maWxlLm1hZT4nLCAnLW9tYWUnLCAnPG91dGZpbGUubWFlPic=

> <r_lp_tautomer_probability>
1

> <r_epik_Ionization_Penalty>
1.02275e-06

> <r_epik_Ionization_Penalty_Charging>
4.46226e-11

> <r_epik_Ionization_Penalty_Neutral>
1.02271e-06

> <r_epik_State_Penalty>
-0

> <r_epik_Charging_Adjusted_Penalty>
4.46226e-11

> <i_epik_Tot_Q>
0

> <i_epik_Tot_abs_Q>
2

> <r_epik_Metal_State_Penalty>
-0

> <b_epik_Metal_Only>
0

> <s_lp_Force_Field>
OPLS_2005

> <r_lp_Energy>
60.3612

> <b_lp_Chiralities_Consistent>
1

> <s_lp_Variant>
AV-unprocessed.smi:2-2

> <Gold.Version>
5.8.1

> <Gold.Id.Protein>
6NUR|6NUR_protein|mol2

> <Gold.PLP.Fitness>
48.5896

> <Gold.PLP.PLP>
-45.0099

> <Gold.PLP.part.hbond>
-5.3343

> <Gold.PLP.part.metal>
0.0000

> <Gold.PLP.part.buried>
-5.3860

> <Gold.PLP.part.nonpolar>
-35.5255

> <Gold.PLP.part.repulsive>
0.2185

> <Gold.PLP.ligand.clash>
0.0000

> <Gold.PLP.ligand.torsion>
1.2935

> <Gold.PLP.Chemscore.Hbond>
2.0000

> <Gold.PLP.Chemscore.CHOScore>
0.0000

> <Gold.PLP.Chemscore.Metal>
0.0000

> <Gold.Chemscore.Hbonds>
donor molecule, donor type, donor heavy atom, donor atom, acceptor molecule, acceptor atom, score
      P1  H  6931  6943       L1    22  1.00
      P1  H 10752 10764       L1    12  1.00

> <Gold.PLP.Chemscore.Internal.Correction>
0.1668

> <Gold.Rescore>
     Score         DG    S(hbond)    S(metal)    S(lipo)     H(rot)  DE(clash)    DE(int)     intcor
      9.67     -12.33       1.89        0.00      73.85       3.16       0.00       2.67       ----

> <Gold.Chemscore.Fitness>
9.6670

> <Gold.Chemscore.DG>
-12.3346

> <Gold.Chemscore.ZeroCoef>
-5.4800

> <Gold.Chemscore.Hbond>
1.8872

> <Gold.Chemscore.Metal>
0.0000

> <Gold.Chemscore.Lipo>
73.8465

> <Gold.Chemscore.Internal_Hbond>
0.0000

> <Gold.Chemscore.DEClash>
0.0000

> <Gold.Chemscore.DEInternal>
2.6677

> <Gold.Chemscore.Rot>
3.1597

> <Gold.Chemscore.Internal.Correction>
   9.000000E+99

> <Gold.Chemscore.Hbonds>
donor molecule, donor type, donor heavy atom, donor atom, acceptor molecule, acceptor atom, score
      P1  H  6931  6943       L1    22  0.90
      P1  H 10752 10764       L1    12  0.64

> <Gold.Chemscore.Hbond.Weighted>
-6.3034

> <Gold.Chemscore.Metal.Weighted>
-0.0000

> <Gold.Chemscore.Lipo.Weighted>
-8.6400

> <Gold.Chemscore.Internal_Hbond.Weighted>
0.0000

> <Gold.Chemscore.DEClash.Weighted>
0.0000

> <Gold.Chemscore.DEInternal.Weighted>
2.6677

> <Gold.Chemscore.Rot.Weighted>
8.0888

> <Gold.Chemscore.Internal.Correction.Weighted>
   9.000000E+99

> <Gold.Protein.RotatedTorsions>
[ 6907 6896 6895 6894 ] final  -72.48 input  -60.11 | X-H torsion
[ 7974 7965 7964 7962 ] final -108.93 input  175.53 | X-H torsion
[ 8008 7997 7996 7995 ] final  118.15 input   59.86 | X-H torsion
[ 10167 10162 10161 10158 ] final -178.96 input  -65.29 | X-H torsion
[ 10718 10713 10712 10709 ] final  129.81 input   66.30 | X-H torsion
[ 10763 10752 10751 10750 ] final  -69.23 input  -60.55 | X-H torsion
[ 11005 11000 10999 10996 ] final  117.09 input  -57.11 | X-H torsion

> <Gold.Protein.ActiveResidues>
 VAL166  LYS551  ARG553  GLY616  TRP617  ASP618  TYR619  PRO620  LYS621  CYS622 
 ASP623  PHE694  ASN695  SER759  ASP760  ASP761  ALA762  ILE779  LEU786  VAL792 
 PHE793  MET794  SER795  GLU796  ALA797  LYS798  CYS799  TRP800  GLU811  SER814 

> <Gold.Protein.RotatedAtoms>
  150.7168  134.5156  159.5628 H   0  0  0  0  0  0  0  0  0  0  0  0  # atno 6907 bound_to 6896
  152.2723  134.7916  160.0421 H   0  0  0  0  0  0  0  0  0  0  0  0  # atno 6908 bound_to 6896
  151.8592  133.3418  159.3735 H   0  0  0  0  0  0  0  0  0  0  0  0  # atno 6909 bound_to 6896
  145.1868  140.8996  143.3447 H   0  0  0  0  0  0  0  0  0  0  0  0  # atno 7974 bound_to 7965
  156.2531  140.2881  156.0789 H   0  0  0  0  0  0  0  0  0  0  0  0  # atno 8008 bound_to 7997
  155.1588  140.0399  157.2855 H   0  0  0  0  0  0  0  0  0  0  0  0  # atno 8009 bound_to 7997
  154.6407  140.2521  155.7331 H   0  0  0  0  0  0  0  0  0  0  0  0  # atno 8010 bound_to 7997
  139.5408  144.2369  152.0890 H   0  0  0  0  0  0  0  0  0  0  0  0  # atno 10167 bound_to 10162
  157.5120  131.1097  150.9279 H   0  0  0  0  0  0  0  0  0  0  0  0  # atno 10718 bound_to 10713
  154.4004  135.6032  153.5894 H   0  0  0  0  0  0  0  0  0  0  0  0  # atno 10763 bound_to 10752
  152.9788  135.5905  154.4191 H   0  0  0  0  0  0  0  0  0  0  0  0  # atno 10764 bound_to 10752
  154.3988  135.2842  155.2087 H   0  0  0  0  0  0  0  0  0  0  0  0  # atno 10765 bound_to 10752
  139.9062  134.9606  156.7297 H   0  0  0  0  0  0  0  0  0  0  0  0  # atno 11005 bound_to 11000
  145.0081  139.3536  143.6134 LP  0  0  0  0  0  0  0  0  0  0  0  0  # atno 17320 bound_to 7965
  146.3443  139.9331  142.8751 LP  0  0  0  0  0  0  0  0  0  0  0  0  # atno 17321 bound_to 7965
  140.1847  144.4810  150.6510 LP  0  0  0  0  0  0  0  0  0  0  0  0  # atno 17342 bound_to 10162
  140.6637  143.2260  151.5795 LP  0  0  0  0  0  0  0  0  0  0  0  0  # atno 17343 bound_to 10162
  156.9917  130.5565  149.5304 LP  0  0  0  0  0  0  0  0  0  0  0  0  # atno 17370 bound_to 10713
  156.0295  130.5387  150.8497 LP  0  0  0  0  0  0  0  0  0  0  0  0  # atno 17371 bound_to 10713
  140.6935  133.9369  155.7980 LP  0  0  0  0  0  0  0  0  0  0  0  0  # atno 17394 bound_to 11000
  141.0424  134.0602  157.3885 LP  0  0  0  0  0  0  0  0  0  0  0  0  # atno 17395 bound_to 11000

$$$$
