AV-unprocessed.smi:2148|AV-procd|sdf|8748|dock8
  -GOLD-   2272011523D 1   1.00000     0.00000
 Structure written by MMmdl.
 44 45  0  0  0  0  0  0  0  0  1 V2000
  157.7050  139.6371  167.7240 C   0  0  0  0  0  0  0  0  0  0  0  0
  156.4281  139.9597  166.4770 S   0  0  0  0  0  0  0  0  0  0  0  0
  155.9661  141.6701  166.8859 C   0  0  2  0  0  0  0  0  0  0  0  0
  155.1718  141.7049  168.2013 C   0  0  0  0  0  0  0  0  0  0  0  0
  155.1905  142.3421  165.7451 C   0  0  0  0  0  0  0  0  0  0  0  0
  154.7761  143.4932  165.8812 O   0  0  0  0  0  0  0  0  0  0  0  0
  154.9892  141.5848  164.6503 N   0  0  0  0  0  0  0  0  0  0  0  0
  154.2845  141.9182  163.4631 C   0  0  0  0  0  0  0  0  0  0  0  0
  154.4621  141.0957  162.3340 C   0  0  0  0  0  0  0  0  0  0  0  0
  153.7800  141.4058  161.1427 C   0  0  0  0  0  0  0  0  0  0  0  0
  152.9391  142.5423  161.1059 C   0  0  0  0  0  0  0  0  0  0  0  0
  152.2329  142.8588  159.9262 N   0  0  0  0  0  0  0  0  0  0  0  0
  152.8160  143.9305  159.1236 C   0  0  0  0  0  0  0  0  0  0  0  0
  151.8294  144.4131  158.0423 C   0  0  2  0  0  0  0  0  0  0  0  0
  150.6944  145.2914  158.5986 C   0  0  0  0  0  0  0  0  0  0  0  0
  151.3357  143.3018  157.2914 O   0  0  0  0  0  0  0  0  0  0  0  0
  150.7178  142.2800  158.0727 C   0  0  1  0  0  0  0  0  0  0  0  0
  150.2541  141.1727  157.1209 C   0  0  0  0  0  0  0  0  0  0  0  0
  151.7163  141.7562  159.1202 C   0  0  0  0  0  0  0  0  0  0  0  0
  152.7909  143.3505  162.1842 N   0  0  0  0  0  0  0  0  0  0  0  0
  153.4441  143.0481  163.3261 C   0  0  0  0  0  0  0  0  0  0  0  0
  158.0493  138.6059  167.6465 H   0  0  0  0  0  0  0  0  0  0  0  0
  157.3076  139.7937  168.7269 H   0  0  0  0  0  0  0  0  0  0  0  0
  158.5623  140.2945  167.5805 H   0  0  0  0  0  0  0  0  0  0  0  0
  156.8920  142.2234  167.0508 H   0  0  0  0  0  0  0  0  0  0  0  0
  154.8664  142.7206  168.4550 H   0  0  0  0  0  0  0  0  0  0  0  0
  155.7761  141.3296  169.0276 H   0  0  0  0  0  0  0  0  0  0  0  0
  154.2733  141.0890  168.1457 H   0  0  0  0  0  0  0  0  0  0  0  0
  155.3120  140.6301  164.7095 H   0  0  0  0  0  0  0  0  0  0  0  0
  155.1089  140.2315  162.3778 H   0  0  0  0  0  0  0  0  0  0  0  0
  153.9148  140.7800  160.2728 H   0  0  0  0  0  0  0  0  0  0  0  0
  153.1255  144.7768  159.7356 H   0  0  0  0  0  0  0  0  0  0  0  0
  153.7180  143.5441  158.6472 H   0  0  0  0  0  0  0  0  0  0  0  0
  152.3872  145.0304  157.3375 H   0  0  0  0  0  0  0  0  0  0  0  0
  151.0964  146.1999  159.0474 H   0  0  0  0  0  0  0  0  0  0  0  0
  150.1148  144.7816  159.3678 H   0  0  0  0  0  0  0  0  0  0  0  0
  150.0090  145.5908  157.8054 H   0  0  0  0  0  0  0  0  0  0  0  0
  149.8382  142.6829  158.5750 H   0  0  0  0  0  0  0  0  0  0  0  0
  149.7623  140.3666  157.6660 H   0  0  0  0  0  0  0  0  0  0  0  0
  151.0947  140.7444  156.5744 H   0  0  0  0  0  0  0  0  0  0  0  0
  149.5448  141.5609  156.3895 H   0  0  0  0  0  0  0  0  0  0  0  0
  152.5489  141.2506  158.6286 H   0  0  0  0  0  0  0  0  0  0  0  0
  151.2202  141.0238  159.7586 H   0  0  0  0  0  0  0  0  0  0  0  0
  153.2922  143.7484  164.1327 H   0  0  0  0  0  0  0  0  0  0  0  0
  1  2  1  0  0  0  0
  1 22  1  0  0  0  0
  1 23  1  0  0  0  0
  1 24  1  0  0  0  0
  2  3  1  0  0  0  0
  3  4  1  0  0  0  0
  3  5  1  0  0  0  0
  3 25  1  0  0  0  0
  4 26  1  0  0  0  0
  4 27  1  0  0  0  0
  4 28  1  0  0  0  0
  5  6  2  0  0  0  0
  5  7  1  0  0  0  0
  7  8  1  0  0  0  0
  7 29  1  0  0  0  0
  8 21  1  0  0  0  0
  8  9  2  0  0  0  0
  9 10  1  0  0  0  0
  9 30  1  0  0  0  0
 10 11  2  0  0  0  0
 10 31  1  0  0  0  0
 11 12  1  0  0  0  0
 11 20  1  0  0  0  0
 12 19  1  0  0  0  0
 12 13  1  0  0  0  0
 13 14  1  0  0  0  0
 13 32  1  0  0  0  0
 13 33  1  0  0  0  0
 14 15  1  0  0  0  0
 14 16  1  0  0  0  0
 14 34  1  0  0  0  0
 15 35  1  0  0  0  0
 15 36  1  0  0  0  0
 15 37  1  0  0  0  0
 16 17  1  0  0  0  0
 17 18  1  0  0  0  0
 17 19  1  0  0  0  0
 17 38  1  0  0  0  0
 18 39  1  0  0  0  0
 18 40  1  0  0  0  0
 18 41  1  0  0  0  0
 19 42  1  0  0  0  0
 19 43  1  0  0  0  0
 20 21  2  0  0  0  0
 21 44  1  0  0  0  0
M  END
> <s_m_source_file>
AV-unprocessed.smi

> <i_m_source_file_index>
2148

> <i_lp_mmshare_version>
43012

> <i_f3d_flags>
0

> <s_epik_input>
W0NIM11TW0NASF0oW0NIM10pQyg9TylbTkhdYzFbY0hdW2NIXWMobltjSF0xKU4yW0NIMl1bQ0BASF0oW0NIM10pT1tDQEBIXShbQ0gzXSlbQ0gyXTI=

> <s_epik_cmdline>
J2VwaWtfcHl0aG9uJywgJy1waCcsICc3LjAnLCAnLXRuJywgJzgnLCAnLW1hJywgJzIwMCcsICctbWV0YWxfYmluZGluZycsICctaW1hZScsICc8aW5maWxlLm1hZT4nLCAnLW9tYWUnLCAnPG91dGZpbGUubWFlPic=

> <r_lp_tautomer_probability>
1

> <r_epik_Ionization_Penalty>
0.000646494

> <r_epik_Ionization_Penalty_Charging>
0

> <r_epik_Ionization_Penalty_Neutral>
0.000646494

> <r_epik_State_Penalty>
0.000408447

> <r_epik_Charging_Adjusted_Penalty>
0.000408447

> <i_epik_Tot_Q>
0

> <i_epik_Tot_abs_Q>
0

> <r_epik_Metal_State_Penalty>
-0

> <b_epik_Metal_Only>
0

> <s_lp_Force_Field>
OPLS_2005

> <r_lp_Energy>
25.6211

> <b_lp_Chiralities_Consistent>
1

> <s_lp_Variant>
AV-unprocessed.smi:2148-3

> <Gold.Version>
5.8.1

> <Gold.Id.Protein>
6NUR|6NUR_protein|mol2

> <Gold.PLP.Fitness>
40.9545

> <Gold.PLP.PLP>
-42.1291

> <Gold.PLP.part.hbond>
0.0000

> <Gold.PLP.part.metal>
0.0000

> <Gold.PLP.part.buried>
-2.7763

> <Gold.PLP.part.nonpolar>
-38.3214

> <Gold.PLP.part.repulsive>
0.3339

> <Gold.PLP.ligand.clash>
0.0000

> <Gold.PLP.ligand.torsion>
0.7583

> <Gold.PLP.Chemscore.Hbond>
0.0000

> <Gold.PLP.Chemscore.CHOScore>
0.0000

> <Gold.PLP.Chemscore.Metal>
0.0000

> <Gold.PLP.Chemscore.Internal.Correction>
0.3420

> <Gold.Rescore>
     Score         DG    S(hbond)    S(metal)    S(lipo)     H(rot)  DE(clash)    DE(int)     intcor
     13.88     -16.11       0.00        0.00     118.57       1.27       0.29       1.94       ----

> <Gold.Chemscore.Fitness>
13.8808

> <Gold.Chemscore.DG>
-16.1119

> <Gold.Chemscore.ZeroCoef>
-5.4800

> <Gold.Chemscore.Hbond>
0.0000

> <Gold.Chemscore.Metal>
0.0000

> <Gold.Chemscore.Lipo>
118.5683

> <Gold.Chemscore.Internal_Hbond>
0.0000

> <Gold.Chemscore.DEClash>
0.2882

> <Gold.Chemscore.DEInternal>
1.9429

> <Gold.Chemscore.Rot>
1.2659

> <Gold.Chemscore.Internal.Correction>
   9.000000E+99

> <Gold.Chemscore.Hbond.Weighted>
-0.0000

> <Gold.Chemscore.Metal.Weighted>
-0.0000

> <Gold.Chemscore.Lipo.Weighted>
-13.8725

> <Gold.Chemscore.Internal_Hbond.Weighted>
0.0000

> <Gold.Chemscore.DEClash.Weighted>
0.2882

> <Gold.Chemscore.DEInternal.Weighted>
1.9429

> <Gold.Chemscore.Rot.Weighted>
3.2406

> <Gold.Chemscore.Internal.Correction.Weighted>
   9.000000E+99

> <Gold.Protein.RotatedTorsions>
[ 6907 6896 6895 6894 ] final  -20.76 input  -60.11 | X-H torsion
[ 7974 7965 7964 7962 ] final   32.59 input  175.53 | X-H torsion
[ 8008 7997 7996 7995 ] final  -27.89 input   59.86 | X-H torsion
[ 10167 10162 10161 10158 ] final  -72.39 input  -65.29 | X-H torsion
[ 10718 10713 10712 10709 ] final -109.87 input   66.30 | X-H torsion
[ 10763 10752 10751 10750 ] final -163.56 input  -60.55 | X-H torsion
[ 11005 11000 10999 10996 ] final   27.30 input  -57.11 | X-H torsion

> <Gold.Protein.ActiveResidues>
 VAL166  LYS551  ARG553  GLY616  TRP617  ASP618  TYR619  PRO620  LYS621  CYS622 
 ASP623  PHE694  ASN695  SER759  ASP760  ASP761  ALA762  ILE779  LEU786  VAL792 
 PHE793  MET794  SER795  GLU796  ALA797  LYS798  CYS799  TRP800  GLU811  SER814 

> <Gold.Protein.RotatedAtoms>
  151.2434  135.0597  159.9033 H   0  0  0  0  0  0  0  0  0  0  0  0  # atno 6907 bound_to 6896
  152.5390  134.0410  159.8077 H   0  0  0  0  0  0  0  0  0  0  0  0  # atno 6908 bound_to 6896
  151.0607  133.5498  159.2666 H   0  0  0  0  0  0  0  0  0  0  0  0  # atno 6909 bound_to 6896
  146.1476  139.6506  142.9120 H   0  0  0  0  0  0  0  0  0  0  0  0  # atno 7974 bound_to 7965
  154.4357  140.1860  156.1002 H   0  0  0  0  0  0  0  0  0  0  0  0  # atno 8008 bound_to 7997
  156.0298  140.3332  155.7101 H   0  0  0  0  0  0  0  0  0  0  0  0  # atno 8009 bound_to 7997
  155.5856  140.0626  157.2762 H   0  0  0  0  0  0  0  0  0  0  0  0  # atno 8010 bound_to 7997
  140.5196  143.2333  151.7454 H   0  0  0  0  0  0  0  0  0  0  0  0  # atno 10167 bound_to 10162
  156.0560  130.5786  150.8159 H   0  0  0  0  0  0  0  0  0  0  0  0  # atno 10718 bound_to 10713
  154.7111  135.3006  154.9195 H   0  0  0  0  0  0  0  0  0  0  0  0  # atno 10763 bound_to 10752
  154.0096  135.6696  153.4768 H   0  0  0  0  0  0  0  0  0  0  0  0  # atno 10764 bound_to 10752
  153.0756  135.5037  154.8310 H   0  0  0  0  0  0  0  0  0  0  0  0  # atno 10765 bound_to 10752
  140.3277  134.2472  155.7707 H   0  0  0  0  0  0  0  0  0  0  0  0  # atno 11005 bound_to 11000
  145.4900  141.0438  143.2598 LP  0  0  0  0  0  0  0  0  0  0  0  0  # atno 17320 bound_to 7965
  144.7865  139.6416  143.7132 LP  0  0  0  0  0  0  0  0  0  0  0  0  # atno 17321 bound_to 7965
  139.4919  144.4274  151.9910 LP  0  0  0  0  0  0  0  0  0  0  0  0  # atno 17342 bound_to 10162
  140.3370  144.3248  150.5975 LP  0  0  0  0  0  0  0  0  0  0  0  0  # atno 17343 bound_to 10162
  157.5530  131.0944  150.9668 LP  0  0  0  0  0  0  0  0  0  0  0  0  # atno 17370 bound_to 10713
  156.9924  130.5568  149.5304 LP  0  0  0  0  0  0  0  0  0  0  0  0  # atno 17371 bound_to 10713
  141.2071  133.7815  157.0138 LP  0  0  0  0  0  0  0  0  0  0  0  0  # atno 17394 bound_to 11000
  140.0887  134.9605  157.1742 LP  0  0  0  0  0  0  0  0  0  0  0  0  # atno 17395 bound_to 11000

$$$$
