AV-unprocessed.smi:2774|AV-procd|sdf|10681|dock9
  -GOLD-   2272015123D 1   1.00000     0.00000
 Structure written by MMmdl.
 35 36  0  0  0  0  0  0  0  0  2 V2000
  148.5993  142.5313  154.1189 O   0  0  0  0  0  0  0  0  0  0  0  0
  149.2708  141.3790  154.5898 C   0  0  1  0  0  0  0  0  0  0  0  0
  149.6087  141.5770  156.0777 C   0  0  0  0  0  0  0  0  0  0  0  0
  150.5472  142.7037  156.2722 N   0  3  0  0  0  0  0  0  0  0  0  0
  150.9754  142.9419  157.6686 C   0  0  2  0  0  0  0  0  0  0  0  0
  151.7485  144.2737  157.7958 C   0  0  0  0  0  0  0  0  0  0  0  0
  152.1677  144.5847  159.2424 C   0  0  0  0  0  0  0  0  0  0  0  0
  153.0953  143.5133  159.8314 C   0  0  0  0  0  0  0  0  0  0  0  0
  152.2688  141.9019  159.8974 S   0  0  0  0  0  0  0  0  0  0  0  0
  151.8316  141.7542  158.1437 C   0  0  0  0  0  0  0  0  0  0  0  0
  148.4449  140.1200  154.3762 C   0  0  0  0  0  0  0  0  0  0  0  0
  148.8746  138.8845  154.9045 C   0  0  0  0  0  0  0  0  0  0  0  0
  148.0754  137.7440  154.6873 C   0  0  0  0  0  0  0  0  0  0  0  0
  146.9143  137.7726  153.9989 N   0  0  0  0  0  0  0  0  0  0  0  0
  146.5063  138.9574  153.4968 C   0  0  0  0  0  0  0  0  0  0  0  0
  147.2301  140.1560  153.6576 C   0  0  0  0  0  0  0  0  0  0  0  0
  148.9818  143.2909  154.5324 H   0  0  0  0  0  0  0  0  0  0  0  0
  150.1961  141.2855  154.0192 H   0  0  0  0  0  0  0  0  0  0  0  0
  148.6949  141.7415  156.6489 H   0  0  0  0  0  0  0  0  0  0  0  0
  150.0708  140.6697  156.4694 H   0  0  0  0  0  0  0  0  0  0  0  0
  151.3738  142.4994  155.7293 H   0  0  0  0  0  0  0  0  0  0  0  0
  150.0810  142.9827  158.2928 H   0  0  0  0  0  0  0  0  0  0  0  0
  152.6329  144.2505  157.1575 H   0  0  0  0  0  0  0  0  0  0  0  0
  151.1373  145.1013  157.4365 H   0  0  0  0  0  0  0  0  0  0  0  0
  152.6743  145.5500  159.2692 H   0  0  0  0  0  0  0  0  0  0  0  0
  151.2813  144.6894  159.8694 H   0  0  0  0  0  0  0  0  0  0  0  0
  154.0037  143.4246  159.2346 H   0  0  0  0  0  0  0  0  0  0  0  0
  153.4009  143.7909  160.8405 H   0  0  0  0  0  0  0  0  0  0  0  0
  151.2906  140.8170  158.0088 H   0  0  0  0  0  0  0  0  0  0  0  0
  152.7480  141.6806  157.5565 H   0  0  0  0  0  0  0  0  0  0  0  0
  149.7951  138.8054  155.4643 H   0  0  0  0  0  0  0  0  0  0  0  0
  148.3768  136.7836  155.0785 H   0  0  0  0  0  0  0  0  0  0  0  0
  145.5740  138.9510  152.9517 H   0  0  0  0  0  0  0  0  0  0  0  0
  146.8562  141.0784  153.2374 H   0  0  0  0  0  0  0  0  0  0  0  0
  150.1281  143.5477  155.9080 H   0  0  0  0  0  0  0  0  0  0  0  0
  1  2  1  0  0  0  0
  1 17  1  0  0  0  0
  2  3  1  0  0  0  0
  2 11  1  0  0  0  0
  2 18  1  0  0  0  0
  3  4  1  0  0  0  0
  3 19  1  0  0  0  0
  3 20  1  0  0  0  0
  4  5  1  0  0  0  0
  4 21  1  0  0  0  0
  4 35  1  0  0  0  0
  5 10  1  0  0  0  0
  5  6  1  0  0  0  0
  5 22  1  0  0  0  0
  6  7  1  0  0  0  0
  6 23  1  0  0  0  0
  6 24  1  0  0  0  0
  7  8  1  0  0  0  0
  7 25  1  0  0  0  0
  7 26  1  0  0  0  0
  8  9  1  0  0  0  0
  8 27  1  0  0  0  0
  8 28  1  0  0  0  0
  9 10  1  0  0  0  0
 10 29  1  0  0  0  0
 10 30  1  0  0  0  0
 11 16  1  0  0  0  0
 11 12  2  0  0  0  0
 12 13  1  0  0  0  0
 12 31  1  0  0  0  0
 13 14  2  0  0  0  0
 13 32  1  0  0  0  0
 14 15  1  0  0  0  0
 15 16  2  0  0  0  0
 15 33  1  0  0  0  0
 16 34  1  0  0  0  0
M  CHG  1   4   1
M  END
> <s_m_source_file>
AV-unprocessed.smi

> <i_m_source_file_index>
2774

> <i_lp_mmshare_version>
43012

> <i_f3d_flags>
0

> <s_epik_input>
W2NIXTFbY0hdbltjSF1bY0hdYzFbQ0BIXShbT0hdKVtDSDJdW05IXVtDQEBIXTJbQ0gyXVtDSDJdW0NIMl1TW0NIMl0y

> <s_epik_cmdline>
J2VwaWtfcHl0aG9uJywgJy1waCcsICc3LjAnLCAnLXRuJywgJzgnLCAnLW1hJywgJzIwMCcsICctbWV0YWxfYmluZGluZycsICctaW1hZScsICc8aW5maWxlLm1hZT4nLCAnLW9tYWUnLCAnPG91dGZpbGUubWFlPic=

> <r_epik_Ionization_Penalty>
0.0205977

> <r_epik_Ionization_Penalty_Charging>
0.0185619

> <r_epik_Ionization_Penalty_Neutral>
0.00203589

> <r_epik_State_Penalty>
0.0147768

> <r_epik_Charging_Adjusted_Penalty>
0.0333386

> <i_epik_Tot_Q>
1

> <i_epik_Tot_abs_Q>
1

> <r_epik_Metal_State_Penalty>
0.0152254

> <b_epik_Metal_Only>
0

> <s_lp_Force_Field>
OPLS_2005

> <r_lp_Energy>
10.436

> <b_lp_Chiralities_Consistent>
1

> <s_lp_Variant>
AV-unprocessed.smi:2774-2

> <Gold.Version>
5.8.1

> <Gold.Id.Protein>
6NUR|6NUR_protein|mol2

> <Gold.PLP.Fitness>
47.2422

> <Gold.PLP.PLP>
-35.3944

> <Gold.PLP.part.hbond>
-3.3914

> <Gold.PLP.part.metal>
0.0000

> <Gold.PLP.part.buried>
-2.9010

> <Gold.PLP.part.nonpolar>
-29.9508

> <Gold.PLP.part.repulsive>
0.2480

> <Gold.PLP.ligand.clash>
0.0000

> <Gold.PLP.ligand.torsion>
0.1582

> <Gold.PLP.Chemscore.Hbond>
3.0459

> <Gold.PLP.Chemscore.CHOScore>
1.0000

> <Gold.PLP.Chemscore.Metal>
0.0000

> <Gold.Chemscore.Hbonds>
donor molecule, donor type, donor heavy atom, donor atom, acceptor molecule, acceptor atom, score
      L1  H     1    17       P1  8028  1.00
      L1  H     4    35       P1  8028  2.00
      P1  H  8011  8017       L1     1  0.04
      L1  C    15    33       P1 10175  1.00

> <Gold.PLP.Chemscore.Internal.Correction>
0.0266

> <Gold.Rescore>
     Score         DG    S(hbond)    S(metal)    S(lipo)     H(rot)  DE(clash)    DE(int)     intcor
     19.48     -19.54       1.99        0.00     106.39       1.97       0.01       0.05       ----

> <Gold.Chemscore.Fitness>
19.4827

> <Gold.Chemscore.DG>
-19.5447

> <Gold.Chemscore.ZeroCoef>
-5.4800

> <Gold.Chemscore.Hbond>
1.9930

> <Gold.Chemscore.Metal>
0.0000

> <Gold.Chemscore.Lipo>
106.3904

> <Gold.Chemscore.Internal_Hbond>
0.0000

> <Gold.Chemscore.DEClash>
0.0088

> <Gold.Chemscore.DEInternal>
0.0532

> <Gold.Chemscore.Rot>
1.9686

> <Gold.Chemscore.Internal.Correction>
   9.000000E+99

> <Gold.Chemscore.Hbonds>
donor molecule, donor type, donor heavy atom, donor atom, acceptor molecule, acceptor atom, score
      L1  H     1    17       P1  8028  0.95
      L1  H     4    35       P1  8028  0.99

> <Gold.Chemscore.Hbond.Weighted>
-6.6566

> <Gold.Chemscore.Metal.Weighted>
-0.0000

> <Gold.Chemscore.Lipo.Weighted>
-12.4477

> <Gold.Chemscore.Internal_Hbond.Weighted>
0.0000

> <Gold.Chemscore.DEClash.Weighted>
0.0088

> <Gold.Chemscore.DEInternal.Weighted>
0.0532

> <Gold.Chemscore.Rot.Weighted>
5.0396

> <Gold.Chemscore.Internal.Correction.Weighted>
   9.000000E+99

> <Gold.Protein.RotatedTorsions>
[ 6907 6896 6895 6894 ] final  134.54 input  -60.11 | X-H torsion
[ 7974 7965 7964 7962 ] final   66.95 input  175.53 | X-H torsion
[ 8008 7997 7996 7995 ] final  -58.35 input   59.86 | X-H torsion
[ 10167 10162 10161 10158 ] final  -64.38 input  -65.29 | X-H torsion
[ 10718 10713 10712 10709 ] final   80.18 input   66.30 | X-H torsion
[ 10763 10752 10751 10750 ] final  165.61 input  -60.55 | X-H torsion
[ 11005 11000 10999 10996 ] final  146.87 input  -57.11 | X-H torsion

> <Gold.Protein.ActiveResidues>
 VAL166  LYS551  ARG553  GLY616  TRP617  ASP618  TYR619  PRO620  LYS621  CYS622 
 ASP623  PHE694  ASN695  SER759  ASP760  ASP761  ALA762  ILE779  LEU786  VAL792 
 PHE793  MET794  SER795  GLU796  ALA797  LYS798  CYS799  TRP800  GLU811  SER814 

> <Gold.Protein.RotatedAtoms>
  152.3101  133.5744  159.5675 H   0  0  0  0  0  0  0  0  0  0  0  0  # atno 6907 bound_to 6896
  150.7319  134.0164  159.3695 H   0  0  0  0  0  0  0  0  0  0  0  0  # atno 6908 bound_to 6896
  151.8058  135.0696  160.0457 H   0  0  0  0  0  0  0  0  0  0  0  0  # atno 6909 bound_to 6896
  145.8205  139.3082  143.1046 H   0  0  0  0  0  0  0  0  0  0  0  0  # atno 7974 bound_to 7965
  154.4305  140.1086  156.5943 H   0  0  0  0  0  0  0  0  0  0  0  0  # atno 8008 bound_to 7997
  155.5979  140.3493  155.4566 H   0  0  0  0  0  0  0  0  0  0  0  0  # atno 8009 bound_to 7997
  156.0196  140.1237  157.0360 H   0  0  0  0  0  0  0  0  0  0  0  0  # atno 8010 bound_to 7997
  140.5805  143.2327  151.6353 H   0  0  0  0  0  0  0  0  0  0  0  0  # atno 10167 bound_to 10162
  157.6798  130.9947  150.2041 H   0  0  0  0  0  0  0  0  0  0  0  0  # atno 10718 bound_to 10713
  154.3265  135.2755  155.2493 H   0  0  0  0  0  0  0  0  0  0  0  0  # atno 10763 bound_to 10752
  154.4823  135.5855  153.6402 H   0  0  0  0  0  0  0  0  0  0  0  0  # atno 10764 bound_to 10752
  152.9871  135.6114  154.3454 H   0  0  0  0  0  0  0  0  0  0  0  0  # atno 10765 bound_to 10752
  140.0829  134.9087  157.1529 H   0  0  0  0  0  0  0  0  0  0  0  0  # atno 11005 bound_to 11000
  145.9680  140.8783  143.0177 LP  0  0  0  0  0  0  0  0  0  0  0  0  # atno 17320 bound_to 7965
  144.6748  140.1906  143.7397 LP  0  0  0  0  0  0  0  0  0  0  0  0  # atno 17321 bound_to 7965
  139.5167  144.3339  152.0801 LP  0  0  0  0  0  0  0  0  0  0  0  0  # atno 17342 bound_to 10162
  140.2488  144.4191  150.6230 LP  0  0  0  0  0  0  0  0  0  0  0  0  # atno 17343 bound_to 10162
  156.2725  130.3723  149.8017 LP  0  0  0  0  0  0  0  0  0  0  0  0  # atno 17370 bound_to 10713
  156.5729  130.8432  151.3361 LP  0  0  0  0  0  0  0  0  0  0  0  0  # atno 17371 bound_to 10713
  140.3462  134.2649  155.7205 LP  0  0  0  0  0  0  0  0  0  0  0  0  # atno 17394 bound_to 11000
  141.2052  133.7865  157.0242 LP  0  0  0  0  0  0  0  0  0  0  0  0  # atno 17395 bound_to 11000

$$$$
