AV-unprocessed.smi:197|AV-procd|sdf|1548|dock4
  -GOLD-   2262019413D 1   1.00000     0.00000
 Structure written by MMmdl.
 54 57  0  0  0  0  0  0  0  0  1 V2000
  152.9275  138.7394  154.5090 C   0  0  0  0  0  0  0  0  0  0  0  0
  151.7666  139.5509  154.5960 O   0  0  0  0  0  0  0  0  0  0  0  0
  150.6384  138.9001  155.1667 C   0  0  0  0  0  0  0  0  0  0  0  0
  149.5366  138.6182  154.1272 C   0  0  0  0  0  0  0  0  0  0  0  0
  148.4999  139.7619  153.9675 C   0  0  2  0  0  0  0  0  0  0  0  0
  149.1461  141.1445  154.2220 C   0  0  0  0  0  0  0  0  0  0  0  0
  148.1771  142.1801  154.1041 O   0  0  0  0  0  0  0  0  0  0  0  0
  147.1335  142.0418  155.0588 C   0  0  0  0  0  0  0  0  0  0  0  0
  146.4055  140.7144  154.8100 C   0  0  0  0  0  0  0  0  0  0  0  0
  147.3481  139.6032  154.8657 N   0  0  0  0  0  0  0  0  0  0  0  0
  146.6933  138.4210  154.8152 C   0  0  0  0  0  0  0  0  0  0  0  0
  146.5288  137.7606  155.9875 N   0  0  0  0  0  0  0  0  0  0  0  0
  145.9034  136.5799  156.0068 C   0  0  0  0  0  0  0  0  0  0  0  0
  145.3749  135.8979  154.9886 N   0  0  0  0  0  0  0  0  0  0  0  0
  145.5242  136.5681  153.8100 C   0  0  0  0  0  0  0  0  0  0  0  0
  146.1653  137.8266  153.6332 C   0  0  0  0  0  0  0  0  0  0  0  0
  146.1250  138.1935  152.2934 N   0  0  0  0  0  0  0  0  0  0  0  0
  145.5091  137.2023  151.7099 C   0  0  0  0  0  0  0  0  0  0  0  0
  145.1021  136.1883  152.5475 N   0  0  0  0  0  0  0  0  0  0  0  0
  144.4013  134.9712  152.1651 C   0  0  0  0  0  0  0  0  0  0  0  0
  144.9961  134.2468  150.9268 C   0  0  1  0  0  0  0  0  0  0  0  0
  144.7440  135.0373  149.7780 O   0  0  0  0  0  0  0  0  0  0  0  0
  146.4983  133.9939  151.0211 C   0  0  0  0  0  0  0  0  0  0  0  0
  146.5582  132.6538  151.7349 C   0  0  0  0  0  0  0  0  0  0  0  0
  145.5048  131.9247  151.1276 O   0  0  0  0  0  0  0  0  0  0  0  0
  144.4301  132.8060  150.8019 C   0  0  2  0  0  0  0  0  0  0  0  0
  143.9140  132.3994  149.4111 C   0  0  0  0  0  0  0  0  0  0  0  0
  153.7495  139.3277  154.1018 H   0  0  0  0  0  0  0  0  0  0  0  0
  152.7802  137.8834  153.8509 H   0  0  0  0  0  0  0  0  0  0  0  0
  153.2305  138.3775  155.4922 H   0  0  0  0  0  0  0  0  0  0  0  0
  150.9452  137.9751  155.6570 H   0  0  0  0  0  0  0  0  0  0  0  0
  150.2476  139.5369  155.9594 H   0  0  0  0  0  0  0  0  0  0  0  0
  150.0233  138.4005  153.1777 H   0  0  0  0  0  0  0  0  0  0  0  0
  149.0175  137.6984  154.3985 H   0  0  0  0  0  0  0  0  0  0  0  0
  148.1292  139.7573  152.9427 H   0  0  0  0  0  0  0  0  0  0  0  0
  149.6119  141.1840  155.2081 H   0  0  0  0  0  0  0  0  0  0  0  0
  149.9299  141.3457  153.4926 H   0  0  0  0  0  0  0  0  0  0  0  0
  147.5371  142.0834  156.0718 H   0  0  0  0  0  0  0  0  0  0  0  0
  146.4415  142.8774  154.9542 H   0  0  0  0  0  0  0  0  0  0  0  0
  145.6210  140.5797  155.5561 H   0  0  0  0  0  0  0  0  0  0  0  0
  145.9212  140.7355  153.8325 H   0  0  0  0  0  0  0  0  0  0  0  0
  145.8139  136.1144  156.9773 H   0  0  0  0  0  0  0  0  0  0  0  0
  145.3268  137.1870  150.6451 H   0  0  0  0  0  0  0  0  0  0  0  0
  144.3963  134.3041  153.0279 H   0  0  0  0  0  0  0  0  0  0  0  0
  143.3569  135.2268  151.9799 H   0  0  0  0  0  0  0  0  0  0  0  0
  145.2184  134.6668  149.0495 H   0  0  0  0  0  0  0  0  0  0  0  0
  146.9286  133.8775  150.0249 H   0  0  0  0  0  0  0  0  0  0  0  0
  147.0630  134.7750  151.5274 H   0  0  0  0  0  0  0  0  0  0  0  0
  147.5172  132.1509  151.6098 H   0  0  0  0  0  0  0  0  0  0  0  0
  146.3635  132.7664  152.8023 H   0  0  0  0  0  0  0  0  0  0  0  0
  143.6317  132.6491  151.5287 H   0  0  0  0  0  0  0  0  0  0  0  0
  143.0672  133.0152  149.1066 H   0  0  0  0  0  0  0  0  0  0  0  0
  143.5801  131.3617  149.4115 H   0  0  0  0  0  0  0  0  0  0  0  0
  144.6932  132.4949  148.6543 H   0  0  0  0  0  0  0  0  0  0  0  0
  1  2  1  0  0  0  0
  1 28  1  0  0  0  0
  1 29  1  0  0  0  0
  1 30  1  0  0  0  0
  2  3  1  0  0  0  0
  3  4  1  0  0  0  0
  3 31  1  0  0  0  0
  3 32  1  0  0  0  0
  4  5  1  0  0  0  0
  4 33  1  0  0  0  0
  4 34  1  0  0  0  0
  5 10  1  0  0  0  0
  5  6  1  0  0  0  0
  5 35  1  0  0  0  0
  6  7  1  0  0  0  0
  6 36  1  0  0  0  0
  6 37  1  0  0  0  0
  7  8  1  0  0  0  0
  8  9  1  0  0  0  0
  8 38  1  0  0  0  0
  8 39  1  0  0  0  0
  9 10  1  0  0  0  0
  9 40  1  0  0  0  0
  9 41  1  0  0  0  0
 10 11  1  0  0  0  0
 11 16  1  0  0  0  0
 11 12  2  0  0  0  0
 12 13  1  0  0  0  0
 13 14  2  0  0  0  0
 13 42  1  0  0  0  0
 14 15  1  0  0  0  0
 15 19  1  0  0  0  0
 15 16  2  0  0  0  0
 16 17  1  0  0  0  0
 17 18  2  0  0  0  0
 18 19  1  0  0  0  0
 18 43  1  0  0  0  0
 19 20  1  0  0  0  0
 20 21  1  0  0  0  0
 20 44  1  0  0  0  0
 20 45  1  0  0  0  0
 21 26  1  0  0  0  0
 21 22  1  0  0  0  0
 21 23  1  0  0  0  0
 22 46  1  0  0  0  0
 23 24  1  0  0  0  0
 23 47  1  0  0  0  0
 23 48  1  0  0  0  0
 24 25  1  0  0  0  0
 24 49  1  0  0  0  0
 24 50  1  0  0  0  0
 25 26  1  0  0  0  0
 26 27  1  0  0  0  0
 26 51  1  0  0  0  0
 27 52  1  0  0  0  0
 27 53  1  0  0  0  0
 27 54  1  0  0  0  0
M  END
> <s_m_source_file>
AV-unprocessed.smi

> <i_m_source_file_index>
197

> <i_lp_mmshare_version>
43012

> <i_f3d_flags>
0

> <s_epik_input>
W0NIM11PW0NIMl1bQ0gyXVtDQEBIXTFbQ0gyXU9bQ0gyXVtDSDJdTjFjKG5bY0hdbjIpYyhjMjMpbltjSF1uM1tDSDJdW0NAQF00KFtPSF0pW0NIMl1bQ0gyXU9bQ0BIXTRbQ0gzXQ==

> <s_epik_cmdline>
J2VwaWtfcHl0aG9uJywgJy1waCcsICc3LjAnLCAnLXRuJywgJzgnLCAnLW1hJywgJzIwMCcsICctbWV0YWxfYmluZGluZycsICctaW1hZScsICc8aW5maWxlLm1hZT4nLCAnLW9tYWUnLCAnPG91dGZpbGUubWFlPic=

> <r_lp_tautomer_probability>
1

> <r_epik_Ionization_Penalty>
0.000106218

> <r_epik_Ionization_Penalty_Charging>
0

> <r_epik_Ionization_Penalty_Neutral>
0.000106218

> <r_epik_State_Penalty>
-0

> <r_epik_Charging_Adjusted_Penalty>
0

> <i_epik_Tot_Q>
0

> <i_epik_Tot_abs_Q>
0

> <r_epik_Metal_State_Penalty>
-0

> <b_epik_Metal_Only>
0

> <s_lp_Force_Field>
OPLS_2005

> <r_lp_Energy>
44.1389

> <b_lp_Chiralities_Consistent>
1

> <s_lp_Variant>
AV-unprocessed.smi:197-5

> <Gold.Version>
5.8.1

> <Gold.Id.Protein>
6NUR|6NUR_protein|mol2

> <Gold.PLP.Fitness>
43.5388

> <Gold.PLP.PLP>
-37.9229

> <Gold.PLP.part.hbond>
-2.9570

> <Gold.PLP.part.metal>
0.0000

> <Gold.PLP.part.buried>
-4.0293

> <Gold.PLP.part.nonpolar>
-32.6062

> <Gold.PLP.part.repulsive>
1.4287

> <Gold.PLP.ligand.clash>
0.0000

> <Gold.PLP.ligand.torsion>
1.4327

> <Gold.PLP.Chemscore.Hbond>
2.0000

> <Gold.PLP.Chemscore.CHOScore>
0.7373

> <Gold.PLP.Chemscore.Metal>
0.0000

> <Gold.Chemscore.Hbonds>
donor molecule, donor type, donor heavy atom, donor atom, acceptor molecule, acceptor atom, score
      L1  H    22    46       P1  7921  1.00
      P1  H  7989  7998       L1     2  1.00
      L1  C    18    43       P1 10171  0.79

> <Gold.PLP.Chemscore.Internal.Correction>
0.2695

> <Gold.Rescore>
     Score         DG    S(hbond)    S(metal)    S(lipo)     H(rot)  DE(clash)    DE(int)     intcor
     11.62     -15.30       1.93        0.00      90.74       2.84       1.47       2.22       ----

> <Gold.Chemscore.Fitness>
11.6181

> <Gold.Chemscore.DG>
-15.2993

> <Gold.Chemscore.ZeroCoef>
-5.4800

> <Gold.Chemscore.Hbond>
1.9349

> <Gold.Chemscore.Metal>
0.0000

> <Gold.Chemscore.Lipo>
90.7377

> <Gold.Chemscore.Internal_Hbond>
0.0000

> <Gold.Chemscore.DEClash>
1.4655

> <Gold.Chemscore.DEInternal>
2.2157

> <Gold.Chemscore.Rot>
2.8358

> <Gold.Chemscore.Internal.Correction>
   9.000000E+99

> <Gold.Chemscore.Hbonds>
donor molecule, donor type, donor heavy atom, donor atom, acceptor molecule, acceptor atom, score
      L1  H    22    46       P1  7921  0.96
      P1  H  7989  7998       L1     2  0.89

> <Gold.Chemscore.Hbond.Weighted>
-6.4625

> <Gold.Chemscore.Metal.Weighted>
-0.0000

> <Gold.Chemscore.Lipo.Weighted>
-10.6163

> <Gold.Chemscore.Internal_Hbond.Weighted>
0.0000

> <Gold.Chemscore.DEClash.Weighted>
1.4655

> <Gold.Chemscore.DEInternal.Weighted>
2.2157

> <Gold.Chemscore.Rot.Weighted>
7.2596

> <Gold.Chemscore.Internal.Correction.Weighted>
   9.000000E+99

> <Gold.Protein.RotatedTorsions>
[ 6907 6896 6895 6894 ] final  -55.37 input  -60.11 | X-H torsion
[ 7974 7965 7964 7962 ] final  144.87 input  175.53 | X-H torsion
[ 8008 7997 7996 7995 ] final  120.85 input   59.86 | X-H torsion
[ 10167 10162 10161 10158 ] final    0.09 input  -65.29 | X-H torsion
[ 10718 10713 10712 10709 ] final   70.90 input   66.30 | X-H torsion
[ 10763 10752 10751 10750 ] final -102.20 input  -60.55 | X-H torsion
[ 11005 11000 10999 10996 ] final -173.21 input  -57.11 | X-H torsion

> <Gold.Protein.ActiveResidues>
 VAL166  LYS551  ARG553  GLY616  TRP617  ASP618  TYR619  PRO620  LYS621  CYS622 
 ASP623  PHE694  ASN695  SER759  ASP760  ASP761  ALA762  ILE779  LEU786  VAL792 
 PHE793  MET794  SER795  GLU796  ALA797  LYS798  CYS799  TRP800  GLU811  SER814 

> <Gold.Protein.RotatedAtoms>
  150.8258  134.7488  159.6811 H   0  0  0  0  0  0  0  0  0  0  0  0  # atno 6907 bound_to 6896
  152.4369  134.5666  159.9919 H   0  0  0  0  0  0  0  0  0  0  0  0  # atno 6908 bound_to 6896
  151.5839  133.3337  159.3050 H   0  0  0  0  0  0  0  0  0  0  0  0  # atno 6909 bound_to 6896
  144.8800  139.5714  143.5847 H   0  0  0  0  0  0  0  0  0  0  0  0  # atno 7974 bound_to 7965
  156.2661  140.2821  156.1215 H   0  0  0  0  0  0  0  0  0  0  0  0  # atno 8008 bound_to 7997
  155.1150  140.0391  157.2752 H   0  0  0  0  0  0  0  0  0  0  0  0  # atno 8009 bound_to 7997
  154.6714  140.2588  155.7010 H   0  0  0  0  0  0  0  0  0  0  0  0  # atno 8010 bound_to 7997
  140.6744  143.6958  150.7991 H   0  0  0  0  0  0  0  0  0  0  0  0  # atno 10167 bound_to 10162
  157.6424  130.9501  150.0715 H   0  0  0  0  0  0  0  0  0  0  0  0  # atno 10718 bound_to 10713
  154.7716  135.4869  153.9660 H   0  0  0  0  0  0  0  0  0  0  0  0  # atno 10763 bound_to 10752
  153.1375  135.6765  153.9088 H   0  0  0  0  0  0  0  0  0  0  0  0  # atno 10764 bound_to 10752
  153.8772  135.3136  155.3422 H   0  0  0  0  0  0  0  0  0  0  0  0  # atno 10765 bound_to 10752
  140.4883  134.6009  157.4945 H   0  0  0  0  0  0  0  0  0  0  0  0  # atno 11005 bound_to 11000
  146.2988  139.7361  142.9107 LP  0  0  0  0  0  0  0  0  0  0  0  0  # atno 17320 bound_to 7965
  145.3972  141.0380  143.3091 LP  0  0  0  0  0  0  0  0  0  0  0  0  # atno 17321 bound_to 7965
  140.0648  143.5119  152.2609 LP  0  0  0  0  0  0  0  0  0  0  0  0  # atno 17342 bound_to 10162
  139.6028  144.7588  151.3131 LP  0  0  0  0  0  0  0  0  0  0  0  0  # atno 17343 bound_to 10162
  156.1718  130.3646  149.9155 LP  0  0  0  0  0  0  0  0  0  0  0  0  # atno 17370 bound_to 10713
  156.7129  130.8977  151.3611 LP  0  0  0  0  0  0  0  0  0  0  0  0  # atno 17371 bound_to 10713
  139.9785  134.7176  155.9904 LP  0  0  0  0  0  0  0  0  0  0  0  0  # atno 17394 bound_to 11000
  141.1497  133.6550  156.3975 LP  0  0  0  0  0  0  0  0  0  0  0  0  # atno 17395 bound_to 11000

$$$$
