AV-unprocessed.smi:3057|AV-procd|sdf|11664|dock10
  -GOLD-   2272017 73D 1   1.00000     0.00000
 Structure written by MMmdl.
 40 42  0  0  0  0  0  0  0  0  1 V2000
  151.5808  142.0754  158.0300 C   0  0  0  0  0  0  0  0  0  0  0  0
  152.5549  142.8705  158.9209 C   0  0  2  0  0  0  0  0  0  0  0  0
  153.6799  141.9748  159.4708 C   0  0  0  0  0  0  0  0  0  0  0  0
  153.1909  141.5526  160.8642 C   0  0  0  0  0  0  0  0  0  0  0  0
  152.1992  142.6516  161.2105 C   0  0  0  0  0  0  0  0  0  0  0  0
  151.8038  142.8704  162.3545 O   0  0  0  0  0  0  0  0  0  0  0  0
  151.8922  143.3576  160.1149 N   0  0  0  0  0  0  0  0  0  0  0  0
  151.2612  144.6790  160.0611 C   0  0  2  0  0  0  0  0  0  0  0  0
  149.7273  144.5681  160.1225 C   0  0  0  0  0  0  0  0  0  0  0  0
  149.1096  143.8196  159.3635 O   0  0  0  0  0  0  0  0  0  0  0  0
  149.1236  145.3469  161.0324 N   0  0  0  0  0  0  0  0  0  0  0  0
  147.6821  145.4296  161.2494 C   0  0  0  0  0  0  0  0  0  0  0  0
  147.0836  144.1425  161.8538 C   0  0  0  0  0  0  0  0  0  0  0  0
  145.6130  143.9411  161.5282 C   0  0  0  0  0  0  0  0  0  0  0  0
  144.6568  143.8227  162.5599 C   0  0  0  0  0  0  0  0  0  0  0  0
  143.3095  143.6169  162.2068 C   0  0  0  0  0  0  0  0  0  0  0  0
  142.9706  143.5432  160.8420 C   0  0  0  0  0  0  0  0  0  0  0  0
  143.9985  143.6802  159.8876 C   0  0  0  0  0  0  0  0  0  0  0  0
  145.2943  143.8747  160.2159 N   0  0  0  0  0  0  0  0  0  0  0  0
  151.6831  145.3108  158.7100 C   0  0  0  0  0  0  0  0  0  0  0  0
  153.1147  144.3745  158.1054 S   0  0  0  0  0  0  0  0  0  0  0  0
  151.1569  141.2238  158.5633 H   0  0  0  0  0  0  0  0  0  0  0  0
  152.0879  141.6914  157.1445 H   0  0  0  0  0  0  0  0  0  0  0  0
  150.7510  142.6933  157.6865 H   0  0  0  0  0  0  0  0  0  0  0  0
  153.8886  141.1185  158.8286 H   0  0  0  0  0  0  0  0  0  0  0  0
  154.6080  142.5402  159.5690 H   0  0  0  0  0  0  0  0  0  0  0  0
  152.6707  140.5949  160.8314 H   0  0  0  0  0  0  0  0  0  0  0  0
  154.0032  141.4915  161.5888 H   0  0  0  0  0  0  0  0  0  0  0  0
  151.6316  145.2853  160.8899 H   0  0  0  0  0  0  0  0  0  0  0  0
  149.7045  145.9342  161.6133 H   0  0  0  0  0  0  0  0  0  0  0  0
  147.4435  146.2912  161.8746 H   0  0  0  0  0  0  0  0  0  0  0  0
  147.2227  145.6181  160.2787 H   0  0  0  0  0  0  0  0  0  0  0  0
  147.6441  143.2767  161.4992 H   0  0  0  0  0  0  0  0  0  0  0  0
  147.2092  144.1538  162.9371 H   0  0  0  0  0  0  0  0  0  0  0  0
  144.9494  143.8789  163.5983 H   0  0  0  0  0  0  0  0  0  0  0  0
  142.5512  143.5152  162.9688 H   0  0  0  0  0  0  0  0  0  0  0  0
  141.9476  143.3859  160.5341 H   0  0  0  0  0  0  0  0  0  0  0  0
  143.7742  143.6305  158.8323 H   0  0  0  0  0  0  0  0  0  0  0  0
  150.9000  145.2260  157.9553 H   0  0  0  0  0  0  0  0  0  0  0  0
  151.9281  146.3685  158.8103 H   0  0  0  0  0  0  0  0  0  0  0  0
  1  2  1  0  0  0  0
  1 22  1  0  0  0  0
  1 23  1  0  0  0  0
  1 24  1  0  0  0  0
  2  7  1  0  0  0  0
  2 21  1  0  0  0  0
  2  3  1  0  0  0  0
  3  4  1  0  0  0  0
  3 25  1  0  0  0  0
  3 26  1  0  0  0  0
  4  5  1  0  0  0  0
  4 27  1  0  0  0  0
  4 28  1  0  0  0  0
  5  6  2  0  0  0  0
  5  7  1  0  0  0  0
  7  8  1  0  0  0  0
  8  9  1  0  0  0  0
  8 20  1  0  0  0  0
  8 29  1  0  0  0  0
  9 10  2  0  0  0  0
  9 11  1  0  0  0  0
 11 12  1  0  0  0  0
 11 30  1  0  0  0  0
 12 13  1  0  0  0  0
 12 31  1  0  0  0  0
 12 32  1  0  0  0  0
 13 14  1  0  0  0  0
 13 33  1  0  0  0  0
 13 34  1  0  0  0  0
 14 19  1  0  0  0  0
 14 15  2  0  0  0  0
 15 16  1  0  0  0  0
 15 35  1  0  0  0  0
 16 17  2  0  0  0  0
 16 36  1  0  0  0  0
 17 18  1  0  0  0  0
 17 37  1  0  0  0  0
 18 19  2  0  0  0  0
 18 38  1  0  0  0  0
 20 21  1  0  0  0  0
 20 39  1  0  0  0  0
 20 40  1  0  0  0  0
M  END
> <s_m_source_file>
AV-unprocessed.smi

> <i_m_source_file_index>
3057

> <i_lp_mmshare_version>
43012

> <i_f3d_flags>
0

> <s_epik_input>
W0NIMl0xW0NIMl1DKD1PKU4oW0NAQF0xMltDSDNdKVtDQEhdKFtDSDJdUzIpQyg9TylbTkhdW0NIMl1bQ0gyXWMzW2NIXVtjSF1bY0hdW2NIXW4z

> <s_epik_cmdline>
J2VwaWtfcHl0aG9uJywgJy1waCcsICc3LjAnLCAnLXRuJywgJzgnLCAnLW1hJywgJzIwMCcsICctbWV0YWxfYmluZGluZycsICctaW1hZScsICc8aW5maWxlLm1hZT4nLCAnLW9tYWUnLCAnPG91dGZpbGUubWFlPic=

> <r_epik_Ionization_Penalty>
0.0249631

> <r_epik_Ionization_Penalty_Charging>
0

> <r_epik_Ionization_Penalty_Neutral>
0.0249631

> <r_epik_State_Penalty>
0.0202943

> <r_epik_Charging_Adjusted_Penalty>
0.0202943

> <i_epik_Tot_Q>
0

> <i_epik_Tot_abs_Q>
0

> <r_epik_Metal_State_Penalty>
0.0194661

> <b_epik_Metal_Only>
0

> <s_lp_Force_Field>
OPLS_2005

> <r_lp_Energy>
26.6501

> <b_lp_Chiralities_Consistent>
1

> <s_lp_Variant>
AV-unprocessed.smi:3057-4

> <Gold.Version>
5.8.1

> <Gold.Id.Protein>
6NUR|6NUR_protein|mol2

> <Gold.PLP.Fitness>
50.4436

> <Gold.PLP.PLP>
-48.4248

> <Gold.PLP.part.hbond>
-2.1942

> <Gold.PLP.part.metal>
0.0000

> <Gold.PLP.part.buried>
-8.2688

> <Gold.PLP.part.nonpolar>
-42.4199

> <Gold.PLP.part.repulsive>
3.1762

> <Gold.PLP.ligand.clash>
0.0000

> <Gold.PLP.ligand.torsion>
0.3071

> <Gold.PLP.Chemscore.Hbond>
0.8729

> <Gold.PLP.Chemscore.CHOScore>
0.0000

> <Gold.PLP.Chemscore.Metal>
0.0000

> <Gold.Chemscore.Hbonds>
donor molecule, donor type, donor heavy atom, donor atom, acceptor molecule, acceptor atom, score
      P1  H  6933  6945       L1     6  0.80

> <Gold.PLP.Chemscore.Internal.Correction>
0.0142

> <Gold.Rescore>
     Score         DG    S(hbond)    S(metal)    S(lipo)     H(rot)  DE(clash)    DE(int)     intcor
     16.49     -19.12       0.74        0.00     129.09       1.53       2.05       0.58       ----

> <Gold.Chemscore.Fitness>
16.4888

> <Gold.Chemscore.DG>
-19.1223

> <Gold.Chemscore.ZeroCoef>
-5.4800

> <Gold.Chemscore.Hbond>
0.7383

> <Gold.Chemscore.Metal>
0.0000

> <Gold.Chemscore.Lipo>
129.0850

> <Gold.Chemscore.Internal_Hbond>
0.0000

> <Gold.Chemscore.DEClash>
2.0513

> <Gold.Chemscore.DEInternal>
0.5822

> <Gold.Chemscore.Rot>
1.5339

> <Gold.Chemscore.Internal.Correction>
   9.000000E+99

> <Gold.Chemscore.Hbonds>
donor molecule, donor type, donor heavy atom, donor atom, acceptor molecule, acceptor atom, score
      P1  H  6933  6945       L1     6  0.14

> <Gold.Chemscore.Hbond.Weighted>
-2.4661

> <Gold.Chemscore.Metal.Weighted>
-0.0000

> <Gold.Chemscore.Lipo.Weighted>
-15.1029

> <Gold.Chemscore.Internal_Hbond.Weighted>
0.0000

> <Gold.Chemscore.DEClash.Weighted>
2.0513

> <Gold.Chemscore.DEInternal.Weighted>
0.5822

> <Gold.Chemscore.Rot.Weighted>
3.9267

> <Gold.Chemscore.Internal.Correction.Weighted>
   9.000000E+99

> <Gold.Protein.RotatedTorsions>
[ 6907 6896 6895 6894 ] final -139.49 input  -60.11 | X-H torsion
[ 7974 7965 7964 7962 ] final   73.15 input  175.53 | X-H torsion
[ 8008 7997 7996 7995 ] final    7.29 input   59.86 | X-H torsion
[ 10167 10162 10161 10158 ] final  -58.66 input  -65.29 | X-H torsion
[ 10718 10713 10712 10709 ] final  -55.46 input   66.30 | X-H torsion
[ 10763 10752 10751 10750 ] final  -83.67 input  -60.55 | X-H torsion
[ 11005 11000 10999 10996 ] final -154.00 input  -57.11 | X-H torsion

> <Gold.Protein.ActiveResidues>
 VAL166  LYS551  ARG553  GLY616  TRP617  ASP618  TYR619  PRO620  LYS621  CYS622 
 ASP623  PHE694  ASN695  SER759  ASP760  ASP761  ALA762  ILE779  LEU786  VAL792 
 PHE793  MET794  SER795  GLU796  ALA797  LYS798  CYS799  TRP800  GLU811  SER814 

> <Gold.Protein.RotatedAtoms>
  151.0485  133.5645  159.2644 H   0  0  0  0  0  0  0  0  0  0  0  0  # atno 6907 bound_to 6896
  151.2665  135.0670  159.9127 H   0  0  0  0  0  0  0  0  0  0  0  0  # atno 6908 bound_to 6896
  152.5377  134.0222  159.8041 H   0  0  0  0  0  0  0  0  0  0  0  0  # atno 6909 bound_to 6896
  145.7444  139.2734  143.1467 H   0  0  0  0  0  0  0  0  0  0  0  0  # atno 7974 bound_to 7965
  154.7520  140.2768  155.6285 H   0  0  0  0  0  0  0  0  0  0  0  0  # atno 8008 bound_to 7997
  156.2897  140.2676  156.2202 H   0  0  0  0  0  0  0  0  0  0  0  0  # atno 8009 bound_to 7997
  155.0125  140.0372  157.2395 H   0  0  0  0  0  0  0  0  0  0  0  0  # atno 8010 bound_to 7997
  140.6184  143.2410  151.5542 H   0  0  0  0  0  0  0  0  0  0  0  0  # atno 10167 bound_to 10162
  156.1367  130.4156  150.0173 H   0  0  0  0  0  0  0  0  0  0  0  0  # atno 10718 bound_to 10713
  154.5904  135.5548  153.7273 H   0  0  0  0  0  0  0  0  0  0  0  0  # atno 10763 bound_to 10752
  153.0115  135.6342  154.1857 H   0  0  0  0  0  0  0  0  0  0  0  0  # atno 10764 bound_to 10752
  154.1797  135.2888  155.3035 H   0  0  0  0  0  0  0  0  0  0  0  0  # atno 10765 bound_to 10752
  140.7020  134.3926  157.5208 H   0  0  0  0  0  0  0  0  0  0  0  0  # atno 11005 bound_to 11000
  146.0417  140.8159  142.9825 LP  0  0  0  0  0  0  0  0  0  0  0  0  # atno 17320 bound_to 7965
  144.6863  140.2920  143.7276 LP  0  0  0  0  0  0  0  0  0  0  0  0  # atno 17321 bound_to 7965
  139.5417  144.2629  152.1364 LP  0  0  0  0  0  0  0  0  0  0  0  0  # atno 17342 bound_to 10162
  140.1843  144.4814  150.6512 LP  0  0  0  0  0  0  0  0  0  0  0  0  # atno 17343 bound_to 10162
  156.8070  130.9311  151.3645 LP  0  0  0  0  0  0  0  0  0  0  0  0  # atno 17370 bound_to 10713
  157.6539  130.8907  149.9688 LP  0  0  0  0  0  0  0  0  0  0  0  0  # atno 17371 bound_to 10713
  139.8894  134.8831  156.2423 LP  0  0  0  0  0  0  0  0  0  0  0  0  # atno 17394 bound_to 11000
  141.0155  133.7071  156.1182 LP  0  0  0  0  0  0  0  0  0  0  0  0  # atno 17395 bound_to 11000

$$$$
