AV-unprocessed.smi:2718|AV-procd|sdf|10489|dock5
  -GOLD-   2272014533D 1   1.00000     0.00000
 Structure written by MMmdl.
 47 48  0  0  0  0  0  0  0  0  1 V2000
  153.8091  141.7350  163.1069 C   0  0  0  0  0  0  0  0  0  0  0  0
  153.5800  141.8342  161.6117 C   0  0  0  0  0  0  0  0  0  0  0  0
  154.1640  140.6893  160.8027 C   0  0  0  0  0  0  0  0  0  0  0  0
  152.9112  142.8677  161.0656 C   0  0  0  0  0  0  0  0  0  0  0  0
  152.6319  143.0822  159.6213 C   0  0  1  0  0  0  0  0  0  0  0  0
  151.2057  143.0799  159.1039 C   0  0  2  0  0  0  0  0  0  0  0  0
  150.9156  142.4148  157.7948 C   0  0  0  0  0  0  0  0  0  0  0  0
  151.3062  142.8429  156.7083 O   0  0  0  0  0  0  0  0  0  0  0  0
  150.2070  141.2830  157.9169 N   0  0  0  0  0  0  0  0  0  0  0  0
  149.8346  140.3967  156.8180 C   0  0  0  0  0  0  0  0  0  0  0  0
  151.0560  139.7367  156.1393 C   0  0  2  0  0  0  0  0  0  0  0  0
  150.6389  138.8394  154.9648 C   0  0  0  0  0  0  0  0  0  0  0  0
  151.9350  139.0006  157.1161 C   0  0  0  0  0  0  0  0  0  0  0  0
  153.2401  139.2597  157.2744 N   0  0  0  0  0  0  0  0  0  0  0  0
  153.6859  138.3700  158.2307 N   0  0  0  0  0  0  0  0  0  0  0  0
  152.6067  137.6602  158.5560 C   0  0  0  0  0  0  0  0  0  0  0  0
  151.4853  137.9988  157.9025 N   0  0  0  0  0  0  0  0  0  0  0  0
  150.1624  137.4193  158.0295 C   0  0  0  0  0  0  0  0  0  0  0  0
  152.0083  144.3759  159.1215 C   0  0  0  0  0  0  0  0  0  0  0  0
  151.5522  145.4623  160.0839 C   0  0  0  0  0  0  0  0  0  0  0  0
  152.5802  145.0232  157.8655 C   0  0  0  0  0  0  0  0  0  0  0  0
  153.3629  140.8205  163.4983 H   0  0  0  0  0  0  0  0  0  0  0  0
  153.3703  142.5804  163.6379 H   0  0  0  0  0  0  0  0  0  0  0  0
  154.8773  141.7157  163.3243 H   0  0  0  0  0  0  0  0  0  0  0  0
  155.2477  140.6639  160.9178 H   0  0  0  0  0  0  0  0  0  0  0  0
  153.9413  140.7727  159.7395 H   0  0  0  0  0  0  0  0  0  0  0  0
  153.7617  139.7388  161.1533 H   0  0  0  0  0  0  0  0  0  0  0  0
  152.5248  143.6331  161.7228 H   0  0  0  0  0  0  0  0  0  0  0  0
  153.3901  142.6152  158.9948 H   0  0  0  0  0  0  0  0  0  0  0  0
  150.4146  143.0006  159.8489 H   0  0  0  0  0  0  0  0  0  0  0  0
  149.9277  140.9981  158.8447 H   0  0  0  0  0  0  0  0  0  0  0  0
  149.1870  139.6250  157.2350 H   0  0  0  0  0  0  0  0  0  0  0  0
  149.2333  140.9386  156.0862 H   0  0  0  0  0  0  0  0  0  0  0  0
  151.6430  140.5444  155.7033 H   0  0  0  0  0  0  0  0  0  0  0  0
  151.5123  138.4452  154.4444 H   0  0  0  0  0  0  0  0  0  0  0  0
  150.0446  139.3947  154.2387 H   0  0  0  0  0  0  0  0  0  0  0  0
  150.0416  137.9919  155.3033 H   0  0  0  0  0  0  0  0  0  0  0  0
  152.6368  136.8695  159.2912 H   0  0  0  0  0  0  0  0  0  0  0  0
  150.1599  136.6574  158.8095 H   0  0  0  0  0  0  0  0  0  0  0  0
  149.8682  136.9590  157.0863 H   0  0  0  0  0  0  0  0  0  0  0  0
  149.4429  138.1948  158.2929 H   0  0  0  0  0  0  0  0  0  0  0  0
  150.8078  146.1010  159.6074 H   0  0  0  0  0  0  0  0  0  0  0  0
  152.3967  146.0799  160.3902 H   0  0  0  0  0  0  0  0  0  0  0  0
  151.1036  145.0309  160.9793 H   0  0  0  0  0  0  0  0  0  0  0  0
  151.7806  145.4639  157.2699 H   0  0  0  0  0  0  0  0  0  0  0  0
  153.1166  144.3024  157.2496 H   0  0  0  0  0  0  0  0  0  0  0  0
  153.2867  145.8098  158.1320 H   0  0  0  0  0  0  0  0  0  0  0  0
  1  2  1  0  0  0  0
  1 22  1  0  0  0  0
  1 23  1  0  0  0  0
  1 24  1  0  0  0  0
  2  3  1  0  0  0  0
  2  4  2  0  0  0  0
  3 25  1  0  0  0  0
  3 26  1  0  0  0  0
  3 27  1  0  0  0  0
  4  5  1  0  0  0  0
  4 28  1  0  0  0  0
  5 19  1  0  0  0  0
  5  6  1  0  0  0  0
  5 29  1  0  0  0  0
  6  7  1  0  0  0  0
  6 19  1  0  0  0  0
  6 30  1  0  0  0  0
  7  8  2  0  0  0  0
  7  9  1  0  0  0  0
  9 10  1  0  0  0  0
  9 31  1  0  0  0  0
 10 11  1  0  0  0  0
 10 32  1  0  0  0  0
 10 33  1  0  0  0  0
 11 12  1  0  0  0  0
 11 13  1  0  0  0  0
 11 34  1  0  0  0  0
 12 35  1  0  0  0  0
 12 36  1  0  0  0  0
 12 37  1  0  0  0  0
 13 17  1  0  0  0  0
 13 14  2  0  0  0  0
 14 15  1  0  0  0  0
 15 16  2  0  0  0  0
 16 17  1  0  0  0  0
 16 38  1  0  0  0  0
 17 18  1  0  0  0  0
 18 39  1  0  0  0  0
 18 40  1  0  0  0  0
 18 41  1  0  0  0  0
 19 20  1  0  0  0  0
 19 21  1  0  0  0  0
 20 42  1  0  0  0  0
 20 43  1  0  0  0  0
 20 44  1  0  0  0  0
 21 45  1  0  0  0  0
 21 46  1  0  0  0  0
 21 47  1  0  0  0  0
M  END
> <s_m_source_file>
AV-unprocessed.smi

> <i_m_source_file_index>
2718

> <i_lp_mmshare_version>
43012

> <i_f3d_flags>
0

> <s_epik_input>
W0NIM11DKFtDSDNdKT1bQ0hdW0NAQEhdKEMxKFtDSDNdKVtDSDNdKVtDQEhdMUMoPU8pW05IXVtDSDJdW0NASF0oW0NIM10pYzJubltjSF1uMltDSDNd

> <s_epik_cmdline>
J2VwaWtfcHl0aG9uJywgJy1waCcsICc3LjAnLCAnLXRuJywgJzgnLCAnLW1hJywgJzIwMCcsICctbWV0YWxfYmluZGluZycsICctaW1hZScsICc8aW5maWxlLm1hZT4nLCAnLW9tYWUnLCAnPG91dGZpbGUubWFlPic=

> <r_lp_tautomer_probability>
1

> <r_epik_Ionization_Penalty>
0.000449586

> <r_epik_Ionization_Penalty_Charging>
0

> <r_epik_Ionization_Penalty_Neutral>
0.000449586

> <r_epik_State_Penalty>
0.000243372

> <r_epik_Charging_Adjusted_Penalty>
0.000243372

> <i_epik_Tot_Q>
0

> <i_epik_Tot_abs_Q>
0

> <r_epik_Metal_State_Penalty>
-0

> <b_epik_Metal_Only>
0

> <s_lp_Force_Field>
OPLS_2005

> <r_lp_Energy>
15.8619

> <b_lp_Chiralities_Consistent>
1

> <s_lp_Variant>
AV-unprocessed.smi:2718-4

> <Gold.Version>
5.8.1

> <Gold.Id.Protein>
6NUR|6NUR_protein|mol2

> <Gold.PLP.Fitness>
45.4886

> <Gold.PLP.PLP>
-42.7004

> <Gold.PLP.part.hbond>
-1.2026

> <Gold.PLP.part.metal>
0.0000

> <Gold.PLP.part.buried>
-4.0386

> <Gold.PLP.part.nonpolar>
-36.9961

> <Gold.PLP.part.repulsive>
0.2385

> <Gold.PLP.ligand.clash>
0.0000

> <Gold.PLP.ligand.torsion>
0.2302

> <Gold.PLP.Chemscore.Hbond>
1.0000

> <Gold.PLP.Chemscore.CHOScore>
0.0000

> <Gold.PLP.Chemscore.Metal>
0.0000

> <Gold.Chemscore.Hbonds>
donor molecule, donor type, donor heavy atom, donor atom, acceptor molecule, acceptor atom, score
      P1  H  7997  8009       L1    14  1.00

> <Gold.PLP.Chemscore.Internal.Correction>
0.2486

> <Gold.Rescore>
     Score         DG    S(hbond)    S(metal)    S(lipo)     H(rot)  DE(clash)    DE(int)     intcor
     15.54     -17.72       0.98        0.00     119.41       1.95       0.31       1.87       ----

> <Gold.Chemscore.Fitness>
15.5398

> <Gold.Chemscore.DG>
-17.7153

> <Gold.Chemscore.ZeroCoef>
-5.4800

> <Gold.Chemscore.Hbond>
0.9774

> <Gold.Chemscore.Metal>
0.0000

> <Gold.Chemscore.Lipo>
119.4128

> <Gold.Chemscore.Internal_Hbond>
0.0000

> <Gold.Chemscore.DEClash>
0.3090

> <Gold.Chemscore.DEInternal>
1.8665

> <Gold.Chemscore.Rot>
1.9533

> <Gold.Chemscore.Internal.Correction>
   9.000000E+99

> <Gold.Chemscore.Hbonds>
donor molecule, donor type, donor heavy atom, donor atom, acceptor molecule, acceptor atom, score
      P1  H  7997  8009       L1    14  0.24

> <Gold.Chemscore.Hbond.Weighted>
-3.2646

> <Gold.Chemscore.Metal.Weighted>
-0.0000

> <Gold.Chemscore.Lipo.Weighted>
-13.9713

> <Gold.Chemscore.Internal_Hbond.Weighted>
0.0000

> <Gold.Chemscore.DEClash.Weighted>
0.3090

> <Gold.Chemscore.DEInternal.Weighted>
1.8665

> <Gold.Chemscore.Rot.Weighted>
5.0005

> <Gold.Chemscore.Internal.Correction.Weighted>
   9.000000E+99

> <Gold.Protein.RotatedTorsions>
[ 6907 6896 6895 6894 ] final   27.68 input  -60.11 | X-H torsion
[ 7974 7965 7964 7962 ] final -138.12 input  175.53 | X-H torsion
[ 8008 7997 7996 7995 ] final  157.03 input   59.86 | X-H torsion
[ 10167 10162 10161 10158 ] final  163.92 input  -65.29 | X-H torsion
[ 10718 10713 10712 10709 ] final  170.21 input   66.30 | X-H torsion
[ 10763 10752 10751 10750 ] final -146.75 input  -60.55 | X-H torsion
[ 11005 11000 10999 10996 ] final   64.02 input  -57.11 | X-H torsion

> <Gold.Protein.ActiveResidues>
 VAL166  LYS551  ARG553  GLY616  TRP617  ASP618  TYR619  PRO620  LYS621  CYS622 
 ASP623  PHE694  ASN695  SER759  ASP760  ASP761  ALA762  ILE779  LEU786  VAL792 
 PHE793  MET794  SER795  GLU796  ALA797  LYS798  CYS799  TRP800  GLU811  SER814 

> <Gold.Protein.RotatedAtoms>
  152.0058  134.9903  160.0566 H   0  0  0  0  0  0  0  0  0  0  0  0  # atno 6907 bound_to 6896
  152.1476  133.4497  159.4806 H   0  0  0  0  0  0  0  0  0  0  0  0  # atno 6908 bound_to 6896
  150.6872  134.2147  159.4416 H   0  0  0  0  0  0  0  0  0  0  0  0  # atno 6909 bound_to 6896
  144.8785  140.6473  143.5221 H   0  0  0  0  0  0  0  0  0  0  0  0  # atno 7974 bound_to 7965
  156.2388  140.1896  156.7045 H   0  0  0  0  0  0  0  0  0  0  0  0  # atno 8008 bound_to 7997
  154.6157  140.0615  156.9578 H   0  0  0  0  0  0  0  0  0  0  0  0  # atno 8009 bound_to 7997
  155.1943  140.3287  155.4356 H   0  0  0  0  0  0  0  0  0  0  0  0  # atno 8010 bound_to 7997
  139.4881  144.4288  151.9096 H   0  0  0  0  0  0  0  0  0  0  0  0  # atno 10167 bound_to 10162
  157.0115  131.0205  151.2802 H   0  0  0  0  0  0  0  0  0  0  0  0  # atno 10718 bound_to 10713
  154.8321  135.3378  154.6710 H   0  0  0  0  0  0  0  0  0  0  0  0  # atno 10763 bound_to 10752
  153.7329  135.6951  153.4989 H   0  0  0  0  0  0  0  0  0  0  0  0  # atno 10764 bound_to 10752
  153.2299  135.4420  155.0536 H   0  0  0  0  0  0  0  0  0  0  0  0  # atno 10765 bound_to 10752
  139.9986  134.6477  155.9968 H   0  0  0  0  0  0  0  0  0  0  0  0  # atno 11005 bound_to 11000
  145.3998  139.1600  143.4184 LP  0  0  0  0  0  0  0  0  0  0  0  0  # atno 17320 bound_to 7965
  146.2979  140.4094  142.8715 LP  0  0  0  0  0  0  0  0  0  0  0  0  # atno 17321 bound_to 7965
  140.3735  144.2825  150.5917 LP  0  0  0  0  0  0  0  0  0  0  0  0  # atno 17342 bound_to 10162
  140.5297  143.2246  151.8258 LP  0  0  0  0  0  0  0  0  0  0  0  0  # atno 17343 bound_to 10162
  157.5317  130.8063  149.7925 LP  0  0  0  0  0  0  0  0  0  0  0  0  # atno 17370 bound_to 10713
  156.0134  130.3823  150.2188 LP  0  0  0  0  0  0  0  0  0  0  0  0  # atno 17371 bound_to 10713
  141.1624  133.6538  156.4365 LP  0  0  0  0  0  0  0  0  0  0  0  0  # atno 17394 bound_to 11000
  140.4770  134.6700  157.5154 LP  0  0  0  0  0  0  0  0  0  0  0  0  # atno 17395 bound_to 11000

$$$$
