AV-unprocessed.smi:504|AV-procd|sdf|2747|dock4
  -GOLD-   2262023213D 1   1.00000     0.00000
 Structure written by MMmdl.
 35 36  0  0  0  0  0  0  0  0  1 V2000
  149.8649  142.2107  158.1287 N   0  0  0  0  0  0  0  0  0  0  0  0
  150.8971  142.3749  158.6255 C   0  0  0  0  0  0  0  0  0  0  0  0
  152.2142  142.5848  159.2607 C   0  0  0  0  0  0  0  0  0  0  0  0
  153.0007  141.3490  159.2541 N   0  0  0  0  0  0  0  0  0  0  0  0
  152.5398  140.0972  159.4106 C   0  0  0  0  0  0  0  0  0  0  0  0
  151.3474  139.8276  159.5590 O   0  0  0  0  0  0  0  0  0  0  0  0
  153.5982  138.9850  159.3743 C   0  0  0  0  0  0  0  0  0  0  0  0
  153.9996  138.5150  160.7087 N   0  0  0  0  0  0  0  0  0  0  0  0
  154.5620  139.4955  161.5069 N   0  0  0  0  0  0  0  0  0  0  0  0
  154.9634  139.1943  162.6937 C   0  0  0  0  0  0  0  0  0  0  0  0
  154.8440  137.8569  163.2313 C   0  0  0  0  0  0  0  0  0  0  0  0
  155.4009  137.5129  164.8310 Cl  0  0  0  0  0  0  0  0  0  0  0  0
  154.2862  136.9042  162.4427 C   0  0  0  0  0  0  0  0  0  0  0  0
  154.1085  135.2815  163.0167 Cl  0  0  0  0  0  0  0  0  0  0  0  0
  153.8159  137.2116  161.0847 C   0  0  0  0  0  0  0  0  0  0  0  0
  153.3002  136.3772  160.3397 O   0  0  0  0  0  0  0  0  0  0  0  0
  152.9935  143.7137  158.5392 C   0  0  0  0  0  0  0  0  0  0  0  0
  152.2976  145.0793  158.6719 C   0  0  0  0  0  0  0  0  0  0  0  0
  152.0813  145.4501  160.1459 C   0  0  0  0  0  0  0  0  0  0  0  0
  151.3102  144.3492  160.8880 C   0  0  0  0  0  0  0  0  0  0  0  0
  152.0106  142.9875  160.7393 C   0  0  0  0  0  0  0  0  0  0  0  0
  153.9968  141.4605  159.1336 H   0  0  0  0  0  0  0  0  0  0  0  0
  153.1966  138.1576  158.7865 H   0  0  0  0  0  0  0  0  0  0  0  0
  154.4756  139.3339  158.8260 H   0  0  0  0  0  0  0  0  0  0  0  0
  155.4143  139.9325  163.3570 H   0  0  0  0  0  0  0  0  0  0  0  0
  154.0013  143.7871  158.9506 H   0  0  0  0  0  0  0  0  0  0  0  0
  153.1141  143.4799  157.4811 H   0  0  0  0  0  0  0  0  0  0  0  0
  152.8938  145.8485  158.1802 H   0  0  0  0  0  0  0  0  0  0  0  0
  151.3380  145.0581  158.1542 H   0  0  0  0  0  0  0  0  0  0  0  0
  153.0472  145.6072  160.6278 H   0  0  0  0  0  0  0  0  0  0  0  0
  151.5432  146.3956  160.2173 H   0  0  0  0  0  0  0  0  0  0  0  0
  151.2219  144.6075  161.9437 H   0  0  0  0  0  0  0  0  0  0  0  0
  150.2923  144.2881  160.5011 H   0  0  0  0  0  0  0  0  0  0  0  0
  151.4294  142.2234  161.2575 H   0  0  0  0  0  0  0  0  0  0  0  0
  152.9756  143.0310  161.2472 H   0  0  0  0  0  0  0  0  0  0  0  0
  1  2  3  0  0  0  0
  2  3  1  0  0  0  0
  3 21  1  0  0  0  0
  3  4  1  0  0  0  0
  3 17  1  0  0  0  0
  4  5  1  0  0  0  0
  4 22  1  0  0  0  0
  5  6  2  0  0  0  0
  5  7  1  0  0  0  0
  7  8  1  0  0  0  0
  7 23  1  0  0  0  0
  7 24  1  0  0  0  0
  8 15  1  0  0  0  0
  8  9  1  0  0  0  0
  9 10  2  0  0  0  0
 10 11  1  0  0  0  0
 10 25  1  0  0  0  0
 11 12  1  0  0  0  0
 11 13  2  0  0  0  0
 13 14  1  0  0  0  0
 13 15  1  0  0  0  0
 15 16  2  0  0  0  0
 17 18  1  0  0  0  0
 17 26  1  0  0  0  0
 17 27  1  0  0  0  0
 18 19  1  0  0  0  0
 18 28  1  0  0  0  0
 18 29  1  0  0  0  0
 19 20  1  0  0  0  0
 19 30  1  0  0  0  0
 19 31  1  0  0  0  0
 20 21  1  0  0  0  0
 20 32  1  0  0  0  0
 20 33  1  0  0  0  0
 21 34  1  0  0  0  0
 21 35  1  0  0  0  0
M  END
> <s_m_source_file>
AV-unprocessed.smi

> <i_m_source_file_index>
504

> <i_lp_mmshare_version>
43012

> <i_f3d_flags>
0

> <s_epik_input>
W0NIMl0xW0NIMl1bQ0gyXVtDSDJdW0NIMl1DMShDI04pW05IXUMoPU8pW0NIMl1uMm5bY0hdYyhDbCljKENsKWMyPU8=

> <s_epik_cmdline>
J2VwaWtfcHl0aG9uJywgJy1waCcsICc3LjAnLCAnLXRuJywgJzgnLCAnLW1hJywgJzIwMCcsICctbWV0YWxfYmluZGluZycsICctaW1hZScsICc8aW5maWxlLm1hZT4nLCAnLW9tYWUnLCAnPG91dGZpbGUubWFlPic=

> <r_lp_tautomer_probability>
1

> <r_epik_Ionization_Penalty>
4.52612e-07

> <r_epik_Ionization_Penalty_Charging>
2.33921e-11

> <r_epik_Ionization_Penalty_Neutral>
4.52589e-07

> <r_epik_State_Penalty>
-0

> <r_epik_Charging_Adjusted_Penalty>
2.33921e-11

> <i_epik_Tot_Q>
0

> <i_epik_Tot_abs_Q>
0

> <r_epik_Metal_State_Penalty>
-0

> <b_epik_Metal_Only>
0

> <s_lp_Force_Field>
OPLS_2005

> <r_lp_Energy>
21.394

> <b_lp_Chiralities_Consistent>
1

> <s_lp_Variant>
AV-unprocessed.smi:504-1

> <Gold.Version>
5.8.1

> <Gold.Id.Protein>
6NUR|6NUR_protein|mol2

> <Gold.PLP.Fitness>
40.5361

> <Gold.PLP.PLP>
-39.1213

> <Gold.PLP.part.hbond>
-1.2306

> <Gold.PLP.part.metal>
0.0000

> <Gold.PLP.part.buried>
-4.7700

> <Gold.PLP.part.nonpolar>
-33.6218

> <Gold.PLP.part.repulsive>
0.1734

> <Gold.PLP.ligand.clash>
0.0000

> <Gold.PLP.ligand.torsion>
0.7822

> <Gold.PLP.Chemscore.Hbond>
0.9913

> <Gold.PLP.Chemscore.CHOScore>
0.0000

> <Gold.PLP.Chemscore.Metal>
0.0000

> <Gold.Chemscore.Hbonds>
donor molecule, donor type, donor heavy atom, donor atom, acceptor molecule, acceptor atom, score
      P1  H  6896  6908       L1    16  1.00

> <Gold.PLP.Chemscore.Internal.Correction>
0.0055

> <Gold.Rescore>
     Score         DG    S(hbond)    S(metal)    S(lipo)     H(rot)  DE(clash)    DE(int)     intcor
     15.98     -17.64       1.00        0.00     110.45       1.60       0.21       1.45       ----

> <Gold.Chemscore.Fitness>
15.9757

> <Gold.Chemscore.DG>
-17.6438

> <Gold.Chemscore.ZeroCoef>
-5.4800

> <Gold.Chemscore.Hbond>
0.9997

> <Gold.Chemscore.Metal>
0.0000

> <Gold.Chemscore.Lipo>
110.4488

> <Gold.Chemscore.Internal_Hbond>
0.0000

> <Gold.Chemscore.DEClash>
0.2144

> <Gold.Chemscore.DEInternal>
1.4537

> <Gold.Chemscore.Rot>
1.6007

> <Gold.Chemscore.Internal.Correction>
   9.000000E+99

> <Gold.Chemscore.Hbonds>
donor molecule, donor type, donor heavy atom, donor atom, acceptor molecule, acceptor atom, score
      P1  H  6896  6908       L1    16  1.00

> <Gold.Chemscore.Hbond.Weighted>
-3.3391

> <Gold.Chemscore.Metal.Weighted>
-0.0000

> <Gold.Chemscore.Lipo.Weighted>
-12.9225

> <Gold.Chemscore.Internal_Hbond.Weighted>
0.0000

> <Gold.Chemscore.DEClash.Weighted>
0.2144

> <Gold.Chemscore.DEInternal.Weighted>
1.4537

> <Gold.Chemscore.Rot.Weighted>
4.0978

> <Gold.Chemscore.Internal.Correction.Weighted>
   9.000000E+99

> <Gold.Protein.RotatedTorsions>
[ 6907 6896 6895 6894 ] final  -74.42 input  -60.11 | X-H torsion
[ 7974 7965 7964 7962 ] final   62.43 input  175.53 | X-H torsion
[ 8008 7997 7996 7995 ] final  -91.42 input   59.86 | X-H torsion
[ 10167 10162 10161 10158 ] final  -53.00 input  -65.29 | X-H torsion
[ 10718 10713 10712 10709 ] final   19.96 input   66.30 | X-H torsion
[ 10763 10752 10751 10750 ] final -126.32 input  -60.55 | X-H torsion
[ 11005 11000 10999 10996 ] final   40.40 input  -57.11 | X-H torsion

> <Gold.Protein.ActiveResidues>
 VAL166  LYS551  ARG553  GLY616  TRP617  ASP618  TYR619  PRO620  LYS621  CYS622 
 ASP623  PHE694  ASN695  SER759  ASP760  ASP761  ALA762  ILE779  LEU786  VAL792 
 PHE793  MET794  SER795  GLU796  ALA797  LYS798  CYS799  TRP800  GLU811  SER814 

> <Gold.Protein.RotatedAtoms>
  150.7094  134.4872  159.5498 H   0  0  0  0  0  0  0  0  0  0  0  0  # atno 6907 bound_to 6896
  152.2497  134.8142  160.0457 H   0  0  0  0  0  0  0  0  0  0  0  0  # atno 6908 bound_to 6896
  151.8894  133.3477  159.3830 H   0  0  0  0  0  0  0  0  0  0  0  0  # atno 6909 bound_to 6896
  145.8734  139.3393  143.0749 H   0  0  0  0  0  0  0  0  0  0  0  0  # atno 7974 bound_to 7965
  154.7105  140.0519  157.0546 H   0  0  0  0  0  0  0  0  0  0  0  0  # atno 8008 bound_to 7997
  155.0561  140.3184  155.4657 H   0  0  0  0  0  0  0  0  0  0  0  0  # atno 8009 bound_to 7997
  156.2788  140.2107  156.5687 H   0  0  0  0  0  0  0  0  0  0  0  0  # atno 8010 bound_to 7997
  140.6508  143.2564  151.4729 H   0  0  0  0  0  0  0  0  0  0  0  0  # atno 10167 bound_to 10162
  157.1177  130.6536  149.5915 H   0  0  0  0  0  0  0  0  0  0  0  0  # atno 10718 bound_to 10713
  154.8744  135.3999  154.3412 H   0  0  0  0  0  0  0  0  0  0  0  0  # atno 10763 bound_to 10752
  153.4211  135.7023  153.6298 H   0  0  0  0  0  0  0  0  0  0  0  0  # atno 10764 bound_to 10752
  153.4960  135.3738  155.2486 H   0  0  0  0  0  0  0  0  0  0  0  0  # atno 10765 bound_to 10752
  140.1934  134.3959  155.8134 H   0  0  0  0  0  0  0  0  0  0  0  0  # atno 11005 bound_to 11000
  145.9109  140.9180  143.0454 LP  0  0  0  0  0  0  0  0  0  0  0  0  # atno 17320 bound_to 7965
  144.6726  140.1159  143.7452 LP  0  0  0  0  0  0  0  0  0  0  0  0  # atno 17321 bound_to 7965
  139.5723  144.1900  152.1853 LP  0  0  0  0  0  0  0  0  0  0  0  0  # atno 17342 bound_to 10162
  140.1200  144.5381  150.6869 LP  0  0  0  0  0  0  0  0  0  0  0  0  # atno 17343 bound_to 10162
  155.9835  130.4855  150.6938 LP  0  0  0  0  0  0  0  0  0  0  0  0  # atno 17370 bound_to 10713
  157.4503  131.0872  151.0852 LP  0  0  0  0  0  0  0  0  0  0  0  0  # atno 17371 bound_to 10713
  141.2226  133.7058  156.8134 LP  0  0  0  0  0  0  0  0  0  0  0  0  # atno 17394 bound_to 11000
  140.2134  134.8810  157.3299 LP  0  0  0  0  0  0  0  0  0  0  0  0  # atno 17395 bound_to 11000

$$$$
