AV-unprocessed.smi:1572|AV-procd|sdf|6329|dock7
  -GOLD-   22720 6543D 1   1.00000     0.00000
 Structure written by MMmdl.
 42 43  0  0  0  0  0  0  0  0  1 V2000
  151.5504  142.2330  157.7100 C   0  0  0  0  0  0  0  0  0  0  0  0
  150.3202  142.1923  156.9346 N   0  0  0  0  0  0  0  0  0  0  0  0
  150.4835  141.4217  155.7056 C   0  0  0  0  0  0  0  0  0  0  0  0
  149.1839  141.3952  154.8801 C   0  0  0  0  0  0  0  0  0  0  0  0
  148.0621  140.8226  155.6422 N   0  0  0  0  0  0  0  0  0  0  0  0
  146.8027  140.6472  154.8649 C   0  0  0  0  0  0  0  0  0  0  0  0
  146.0729  141.9833  154.5843 C   0  0  0  0  0  0  0  0  0  0  0  0
  147.0830  139.9851  153.4916 C   0  0  0  0  0  0  0  0  0  0  0  0
  145.7946  139.7210  155.6072 C   0  0  0  0  0  0  0  0  0  0  0  0
  144.6155  139.4074  154.7998 N   0  0  0  0  0  0  0  0  0  0  0  0
  143.6549  138.5302  155.1242 C   0  0  0  0  0  0  0  0  0  0  0  0
  143.6700  137.8524  156.1520 O   0  0  0  0  0  0  0  0  0  0  0  0
  142.6880  138.5038  154.1901 N   0  0  0  0  0  0  0  0  0  0  0  0
  141.5052  137.7183  154.1698 C   0  0  0  0  0  0  0  0  0  0  0  0
  141.3409  136.6003  154.8947 N   0  0  0  0  0  0  0  0  0  0  0  0
  140.0937  136.0253  154.6878 N   0  0  0  0  0  0  0  0  0  0  0  0
  139.3672  136.7314  153.8169 C   0  0  0  0  0  0  0  0  0  0  0  0
  140.1358  138.1676  153.1631 S   0  0  0  0  0  0  0  0  0  0  0  0
  147.9157  141.5956  156.8870 C   0  0  0  0  0  0  0  0  0  0  0  0
  149.2202  141.6193  157.7035 C   0  0  0  0  0  0  0  0  0  0  0  0
  152.3570  142.6841  157.1310 H   0  0  0  0  0  0  0  0  0  0  0  0
  151.8635  141.2310  158.0065 H   0  0  0  0  0  0  0  0  0  0  0  0
  151.4173  142.8288  158.6135 H   0  0  0  0  0  0  0  0  0  0  0  0
  151.2832  141.8546  155.1036 H   0  0  0  0  0  0  0  0  0  0  0  0
  150.7883  140.4005  155.9410 H   0  0  0  0  0  0  0  0  0  0  0  0
  148.9469  142.4084  154.5551 H   0  0  0  0  0  0  0  0  0  0  0  0
  149.3791  140.8126  153.9817 H   0  0  0  0  0  0  0  0  0  0  0  0
  145.1635  141.8171  154.0056 H   0  0  0  0  0  0  0  0  0  0  0  0
  146.6869  142.6763  154.0098 H   0  0  0  0  0  0  0  0  0  0  0  0
  145.7718  142.4891  155.5014 H   0  0  0  0  0  0  0  0  0  0  0  0
  146.1588  139.6828  152.9974 H   0  0  0  0  0  0  0  0  0  0  0  0
  147.7038  139.0940  153.5917 H   0  0  0  0  0  0  0  0  0  0  0  0
  147.5885  140.6615  152.8024 H   0  0  0  0  0  0  0  0  0  0  0  0
  146.2632  138.7793  155.8916 H   0  0  0  0  0  0  0  0  0  0  0  0
  145.5009  140.1710  156.5574 H   0  0  0  0  0  0  0  0  0  0  0  0
  144.5123  139.9261  153.9401 H   0  0  0  0  0  0  0  0  0  0  0  0
  142.8093  139.1234  153.4030 H   0  0  0  0  0  0  0  0  0  0  0  0
  138.3714  136.4038  153.5575 H   0  0  0  0  0  0  0  0  0  0  0  0
  147.6158  142.6202  156.6661 H   0  0  0  0  0  0  0  0  0  0  0  0
  147.1409  141.1692  157.5209 H   0  0  0  0  0  0  0  0  0  0  0  0
  149.4720  140.6064  158.0215 H   0  0  0  0  0  0  0  0  0  0  0  0
  149.0646  142.2019  158.6122 H   0  0  0  0  0  0  0  0  0  0  0  0
  1  2  1  0  0  0  0
  1 21  1  0  0  0  0
  1 22  1  0  0  0  0
  1 23  1  0  0  0  0
  2 20  1  0  0  0  0
  2  3  1  0  0  0  0
  3  4  1  0  0  0  0
  3 24  1  0  0  0  0
  3 25  1  0  0  0  0
  4  5  1  0  0  0  0
  4 26  1  0  0  0  0
  4 27  1  0  0  0  0
  5  6  1  0  0  0  0
  5 19  1  0  0  0  0
  6  7  1  0  0  0  0
  6  8  1  0  0  0  0
  6  9  1  0  0  0  0
  7 28  1  0  0  0  0
  7 29  1  0  0  0  0
  7 30  1  0  0  0  0
  8 31  1  0  0  0  0
  8 32  1  0  0  0  0
  8 33  1  0  0  0  0
  9 10  1  0  0  0  0
  9 34  1  0  0  0  0
  9 35  1  0  0  0  0
 10 11  1  0  0  0  0
 10 36  1  0  0  0  0
 11 12  2  0  0  0  0
 11 13  1  0  0  0  0
 13 14  1  0  0  0  0
 13 37  1  0  0  0  0
 14 18  1  0  0  0  0
 14 15  2  0  0  0  0
 15 16  1  0  0  0  0
 16 17  2  0  0  0  0
 17 18  1  0  0  0  0
 17 38  1  0  0  0  0
 19 20  1  0  0  0  0
 19 39  1  0  0  0  0
 19 40  1  0  0  0  0
 20 41  1  0  0  0  0
 20 42  1  0  0  0  0
M  END
> <s_m_source_file>
AV-unprocessed.smi

> <i_m_source_file_index>
1572

> <i_lp_mmshare_version>
43012

> <i_f3d_flags>
0

> <s_epik_input>
W0NIM11OMVtDSDJdW0NIMl1OKFtDSDJdW0NIMl0xKUMoW0NIM10pKFtDSDNdKVtDSDJdW05IXUMoPU8pW05IXWMybm5bY0hdczI=

> <s_epik_cmdline>
J2VwaWtfcHl0aG9uJywgJy1waCcsICc3LjAnLCAnLXRuJywgJzgnLCAnLW1hJywgJzIwMCcsICctbWV0YWxfYmluZGluZycsICctaW1hZScsICc8aW5maWxlLm1hZT4nLCAnLW9tYWUnLCAnPG91dGZpbGUubWFlPic=

> <r_lp_tautomer_probability>
1

> <r_epik_Ionization_Penalty>
3.01909

> <r_epik_Ionization_Penalty_Charging>
0

> <r_epik_Ionization_Penalty_Neutral>
3.01909

> <r_epik_State_Penalty>
2.1369

> <r_epik_Charging_Adjusted_Penalty>
2.1369

> <i_epik_Tot_Q>
0

> <i_epik_Tot_abs_Q>
0

> <r_epik_Metal_State_Penalty>
2.47072

> <b_epik_Metal_Only>
0

> <s_lp_Force_Field>
OPLS_2005

> <r_lp_Energy>
48.823

> <b_lp_Chiralities_Consistent>
1

> <s_lp_Variant>
AV-unprocessed.smi:1572-3

> <Gold.Version>
5.8.1

> <Gold.Id.Protein>
6NUR|6NUR_protein|mol2

> <Gold.PLP.Fitness>
36.6764

> <Gold.PLP.PLP>
-28.2750

> <Gold.PLP.part.hbond>
-3.5063

> <Gold.PLP.part.metal>
0.0000

> <Gold.PLP.part.buried>
-5.4328

> <Gold.PLP.part.nonpolar>
-19.4352

> <Gold.PLP.part.repulsive>
0.2934

> <Gold.PLP.ligand.clash>
0.0000

> <Gold.PLP.ligand.torsion>
0.3263

> <Gold.PLP.Chemscore.Hbond>
3.0000

> <Gold.PLP.Chemscore.CHOScore>
0.0000

> <Gold.PLP.Chemscore.Metal>
0.0000

> <Gold.Chemscore.Hbonds>
donor molecule, donor type, donor heavy atom, donor atom, acceptor molecule, acceptor atom, score
      L1  H    10    36       P1 10175  1.00
      L1  H    13    37       P1 10175  1.00
      P1  H 11000 11005       L1    16  1.00

> <Gold.PLP.Chemscore.Internal.Correction>
0.0541

> <Gold.Rescore>
     Score         DG    S(hbond)    S(metal)    S(lipo)     H(rot)  DE(clash)    DE(int)     intcor
     15.98     -17.81       2.78        0.00      62.19       1.66       0.27       1.55       ----

> <Gold.Chemscore.Fitness>
15.9768

> <Gold.Chemscore.DG>
-17.8061

> <Gold.Chemscore.ZeroCoef>
-5.4800

> <Gold.Chemscore.Hbond>
2.7835

> <Gold.Chemscore.Metal>
0.0000

> <Gold.Chemscore.Lipo>
62.1894

> <Gold.Chemscore.Internal_Hbond>
0.0000

> <Gold.Chemscore.DEClash>
0.2746

> <Gold.Chemscore.DEInternal>
1.5547

> <Gold.Chemscore.Rot>
1.6590

> <Gold.Chemscore.Internal.Correction>
   9.000000E+99

> <Gold.Chemscore.Hbonds>
donor molecule, donor type, donor heavy atom, donor atom, acceptor molecule, acceptor atom, score
      L1  H    10    36       P1 10175  0.98
      L1  H    13    37       P1 10175  0.98
      P1  H 11000 11005       L1    16  0.44

> <Gold.Chemscore.Hbond.Weighted>
-9.2968

> <Gold.Chemscore.Metal.Weighted>
-0.0000

> <Gold.Chemscore.Lipo.Weighted>
-7.2762

> <Gold.Chemscore.Internal_Hbond.Weighted>
0.0000

> <Gold.Chemscore.DEClash.Weighted>
0.2746

> <Gold.Chemscore.DEInternal.Weighted>
1.5547

> <Gold.Chemscore.Rot.Weighted>
4.2469

> <Gold.Chemscore.Internal.Correction.Weighted>
   9.000000E+99

> <Gold.Protein.RotatedTorsions>
[ 6907 6896 6895 6894 ] final  135.20 input  -60.11 | X-H torsion
[ 7974 7965 7964 7962 ] final  -42.03 input  175.53 | X-H torsion
[ 8008 7997 7996 7995 ] final  -34.70 input   59.86 | X-H torsion
[ 10167 10162 10161 10158 ] final -168.31 input  -65.29 | X-H torsion
[ 10718 10713 10712 10709 ] final  106.65 input   66.30 | X-H torsion
[ 10763 10752 10751 10750 ] final   17.13 input  -60.55 | X-H torsion
[ 11005 11000 10999 10996 ] final   71.39 input  -57.11 | X-H torsion

> <Gold.Protein.ActiveResidues>
 VAL166  LYS551  ARG553  GLY616  TRP617  ASP618  TYR619  PRO620  LYS621  CYS622 
 ASP623  PHE694  ASN695  SER759  ASP760  ASP761  ALA762  ILE779  LEU786  VAL792 
 PHE793  MET794  SER795  GLU796  ALA797  LYS798  CYS799  TRP800  GLU811  SER814 

> <Gold.Protein.RotatedAtoms>
  152.3030  133.5674  159.5630 H   0  0  0  0  0  0  0  0  0  0  0  0  # atno 6907 bound_to 6896
  150.7286  134.0264  159.3727 H   0  0  0  0  0  0  0  0  0  0  0  0  # atno 6908 bound_to 6896
  151.8162  135.0666  160.0470 H   0  0  0  0  0  0  0  0  0  0  0  0  # atno 6909 bound_to 6896
  146.0155  140.6913  142.9203 H   0  0  0  0  0  0  0  0  0  0  0  0  # atno 7974 bound_to 7965
  154.4114  140.1677  156.2092 H   0  0  0  0  0  0  0  0  0  0  0  0  # atno 8008 bound_to 7997
  155.9458  140.3404  155.6343 H   0  0  0  0  0  0  0  0  0  0  0  0  # atno 8009 bound_to 7997
  155.6932  140.0736  157.2431 H   0  0  0  0  0  0  0  0  0  0  0  0  # atno 8010 bound_to 7997
  139.5993  144.1044  152.1725 H   0  0  0  0  0  0  0  0  0  0  0  0  # atno 10167 bound_to 10162
  157.6660  131.0855  150.6038 H   0  0  0  0  0  0  0  0  0  0  0  0  # atno 10718 bound_to 10713
  153.1367  135.6751  153.9092 H   0  0  0  0  0  0  0  0  0  0  0  0  # atno 10763 bound_to 10752
  153.8561  135.3087  155.3436 H   0  0  0  0  0  0  0  0  0  0  0  0  # atno 10764 bound_to 10752
  154.7753  135.4917  153.9815 H   0  0  0  0  0  0  0  0  0  0  0  0  # atno 10765 bound_to 10752
  139.9546  134.7167  156.0783 H   0  0  0  0  0  0  0  0  0  0  0  0  # atno 11005 bound_to 11000
  144.6969  140.3473  143.7188 LP  0  0  0  0  0  0  0  0  0  0  0  0  # atno 17320 bound_to 7965
  145.7275  139.1727  143.2449 LP  0  0  0  0  0  0  0  0  0  0  0  0  # atno 17321 bound_to 7965
  140.0636  144.5836  150.7244 LP  0  0  0  0  0  0  0  0  0  0  0  0  # atno 17342 bound_to 10162
  140.7237  143.2614  151.4192 LP  0  0  0  0  0  0  0  0  0  0  0  0  # atno 17343 bound_to 10162
  156.6339  130.4439  149.5776 LP  0  0  0  0  0  0  0  0  0  0  0  0  # atno 17370 bound_to 10713
  156.2261  130.6766  151.1417 LP  0  0  0  0  0  0  0  0  0  0  0  0  # atno 17371 bound_to 10713
  141.1215  133.6611  156.3227 LP  0  0  0  0  0  0  0  0  0  0  0  0  # atno 17394 bound_to 11000
  140.5639  134.5906  157.5441 LP  0  0  0  0  0  0  0  0  0  0  0  0  # atno 17395 bound_to 11000

$$$$
