AV-unprocessed.smi:834|AV-procd|sdf|3885|dock7
  -GOLD-   22720 1343D 1   1.00000     0.00000
 Structure written by MMmdl.
 38 39  0  0  0  0  0  0  0  0  2 V2000
  146.5432  134.4841  163.0589 C   0  0  0  0  0  0  0  0  0  0  0  0
  147.4476  135.1442  162.0757 C   0  0  0  0  0  0  0  0  0  0  0  0
  147.7732  136.4371  162.1477 N   0  0  0  0  0  0  0  0  0  0  0  0
  148.6258  136.8193  161.1222 N   0  0  0  0  0  0  0  0  0  0  0  0
  148.9228  135.8163  160.2839 C   0  0  0  0  0  0  0  0  0  0  0  0
  149.7361  135.9781  159.2272 N   0  5  0  0  0  0  0  0  0  0  0  0
  150.2907  137.1864  158.9789 C   0  0  0  0  0  0  0  0  0  0  0  0
  150.7872  137.9476  159.8127 O   0  0  0  0  0  0  0  0  0  0  0  0
  150.2639  137.5368  157.6851 N   0  0  0  0  0  0  0  0  0  0  0  0
  150.7766  138.7831  157.1252 C   0  0  0  0  0  0  0  0  0  0  0  0
  150.2842  140.0046  157.9262 C   0  0  0  0  0  0  0  0  0  0  0  0
  151.4159  140.8622  158.5017 C   0  0  0  0  0  0  0  0  0  0  0  0
  152.3051  140.3633  159.1927 O   0  0  0  0  0  0  0  0  0  0  0  0
  151.3707  142.1681  158.1964 N   0  0  0  0  0  0  0  0  0  0  0  0
  152.3422  143.1682  158.6312 C   0  0  0  0  0  0  0  0  0  0  0  0
  152.3960  143.2492  160.1691 C   0  0  0  0  0  0  0  0  0  0  0  0
  152.3345  144.7375  160.5175 C   0  0  0  0  0  0  0  0  0  0  0  0
  151.5225  145.3558  159.3842 C   0  0  0  0  0  0  0  0  0  0  0  0
  151.9637  144.5815  158.1419 C   0  0  0  0  0  0  0  0  0  0  0  0
  148.1682  134.2847  160.7252 S   0  0  0  0  0  0  0  0  0  0  0  0
  145.5035  134.6774  162.7953 H   0  0  0  0  0  0  0  0  0  0  0  0
  146.7297  134.8675  164.0624 H   0  0  0  0  0  0  0  0  0  0  0  0
  146.7102  133.4069  163.0618 H   0  0  0  0  0  0  0  0  0  0  0  0
  149.8498  136.8827  157.0375 H   0  0  0  0  0  0  0  0  0  0  0  0
  151.8672  138.7557  157.0880 H   0  0  0  0  0  0  0  0  0  0  0  0
  150.4313  138.8461  156.0928 H   0  0  0  0  0  0  0  0  0  0  0  0
  149.6663  140.6378  157.2883 H   0  0  0  0  0  0  0  0  0  0  0  0
  149.6492  139.6757  158.7500 H   0  0  0  0  0  0  0  0  0  0  0  0
  150.6051  142.4931  157.6238 H   0  0  0  0  0  0  0  0  0  0  0  0
  153.3300  142.9039  158.2486 H   0  0  0  0  0  0  0  0  0  0  0  0
  151.5331  142.7477  160.6103 H   0  0  0  0  0  0  0  0  0  0  0  0
  153.2879  142.7716  160.5761 H   0  0  0  0  0  0  0  0  0  0  0  0
  151.8957  144.9219  161.4985 H   0  0  0  0  0  0  0  0  0  0  0  0
  153.3414  145.1571  160.5180 H   0  0  0  0  0  0  0  0  0  0  0  0
  150.4588  145.1917  159.5617 H   0  0  0  0  0  0  0  0  0  0  0  0
  151.6834  146.4299  159.2881 H   0  0  0  0  0  0  0  0  0  0  0  0
  152.8464  145.0595  157.7153 H   0  0  0  0  0  0  0  0  0  0  0  0
  151.1950  144.5847  157.3678 H   0  0  0  0  0  0  0  0  0  0  0  0
  1  2  1  0  0  0  0
  1 21  1  0  0  0  0
  1 22  1  0  0  0  0
  1 23  1  0  0  0  0
  2 20  1  0  0  0  0
  2  3  2  0  0  0  0
  3  4  1  0  0  0  0
  4  5  2  0  0  0  0
  5  6  1  0  0  0  0
  5 20  1  0  0  0  0
  6  7  1  0  0  0  0
  7  8  2  0  0  0  0
  7  9  1  0  0  0  0
  9 10  1  0  0  0  0
  9 24  1  0  0  0  0
 10 11  1  0  0  0  0
 10 25  1  0  0  0  0
 10 26  1  0  0  0  0
 11 12  1  0  0  0  0
 11 27  1  0  0  0  0
 11 28  1  0  0  0  0
 12 13  2  0  0  0  0
 12 14  1  0  0  0  0
 14 15  1  0  0  0  0
 14 29  1  0  0  0  0
 15 19  1  0  0  0  0
 15 16  1  0  0  0  0
 15 30  1  0  0  0  0
 16 17  1  0  0  0  0
 16 31  1  0  0  0  0
 16 32  1  0  0  0  0
 17 18  1  0  0  0  0
 17 33  1  0  0  0  0
 17 34  1  0  0  0  0
 18 19  1  0  0  0  0
 18 35  1  0  0  0  0
 18 36  1  0  0  0  0
 19 37  1  0  0  0  0
 19 38  1  0  0  0  0
M  CHG  1   6  -1
M  END
> <s_m_source_file>
AV-unprocessed.smi

> <i_m_source_file_index>
834

> <i_lp_mmshare_version>
43012

> <i_f3d_flags>
0

> <s_epik_input>
W0NIM11jMW5uYyhzMSlbTkhdQyg9TylbTkhdW0NIMl1bQ0gyXUMoPU8pW05IXVtDSF0yW0NIMl1bQ0gyXVtDSDJdW0NIMl0y

> <s_epik_cmdline>
J2VwaWtfcHl0aG9uJywgJy1waCcsICc3LjAnLCAnLXRuJywgJzgnLCAnLW1hJywgJzIwMCcsICctbWV0YWxfYmluZGluZycsICctaW1hZScsICc8aW5maWxlLm1hZT4nLCAnLW9tYWUnLCAnPG91dGZpbGUubWFlPic=

> <r_lp_tautomer_probability>
1

> <r_epik_Ionization_Penalty>
3.40129

> <r_epik_Ionization_Penalty_Charging>
3.26946

> <r_epik_Ionization_Penalty_Neutral>
0.131835

> <r_epik_State_Penalty>
3.26707

> <r_epik_Charging_Adjusted_Penalty>
6.53653

> <i_epik_Tot_Q>
-1

> <i_epik_Tot_abs_Q>
1

> <r_epik_Metal_State_Penalty>
0.478667

> <b_epik_Metal_Only>
1

> <s_lp_Force_Field>
OPLS_2005

> <r_lp_Energy>
15.9775

> <b_lp_Chiralities_Consistent>
1

> <s_lp_Variant>
AV-unprocessed.smi:834-2

> <Gold.Version>
5.8.1

> <Gold.Id.Protein>
6NUR|6NUR_protein|mol2

> <Gold.PLP.Fitness>
45.2343

> <Gold.PLP.PLP>
-38.4923

> <Gold.PLP.part.hbond>
-3.4791

> <Gold.PLP.part.metal>
0.0000

> <Gold.PLP.part.buried>
-5.9494

> <Gold.PLP.part.nonpolar>
-30.0934

> <Gold.PLP.part.repulsive>
0.0978

> <Gold.PLP.ligand.clash>
0.0000

> <Gold.PLP.ligand.torsion>
0.8318

> <Gold.PLP.Chemscore.Hbond>
2.7637

> <Gold.PLP.Chemscore.CHOScore>
0.0000

> <Gold.PLP.Chemscore.Metal>
0.0000

> <Gold.Chemscore.Hbonds>
donor molecule, donor type, donor heavy atom, donor atom, acceptor molecule, acceptor atom, score
      P1  H  6896  6909       L1     6  1.60
      P1  H  6931  6943       L1     4  0.65

> <Gold.PLP.Chemscore.Internal.Correction>
0.1143

> <Gold.Rescore>
     Score         DG    S(hbond)    S(metal)    S(lipo)     H(rot)  DE(clash)    DE(int)     intcor
      9.26     -14.69       1.09        0.00      90.25       1.95       0.58       4.85       ----

> <Gold.Chemscore.Fitness>
9.2629

> <Gold.Chemscore.DG>
-14.6906

> <Gold.Chemscore.ZeroCoef>
-5.4800

> <Gold.Chemscore.Hbond>
1.0873

> <Gold.Chemscore.Metal>
0.0000

> <Gold.Chemscore.Lipo>
90.2519

> <Gold.Chemscore.Internal_Hbond>
0.0000

> <Gold.Chemscore.DEClash>
0.5821

> <Gold.Chemscore.DEInternal>
4.8455

> <Gold.Chemscore.Rot>
1.9455

> <Gold.Chemscore.Internal.Correction>
   9.000000E+99

> <Gold.Chemscore.Hbonds>
donor molecule, donor type, donor heavy atom, donor atom, acceptor molecule, acceptor atom, score
      P1  H  6896  6909       L1     6  0.09
      P1  H  6931  6943       L1     4  0.06

> <Gold.Chemscore.Hbond.Weighted>
-3.6316

> <Gold.Chemscore.Metal.Weighted>
-0.0000

> <Gold.Chemscore.Lipo.Weighted>
-10.5595

> <Gold.Chemscore.Internal_Hbond.Weighted>
0.0000

> <Gold.Chemscore.DEClash.Weighted>
0.5821

> <Gold.Chemscore.DEInternal.Weighted>
4.8455

> <Gold.Chemscore.Rot.Weighted>
4.9805

> <Gold.Chemscore.Internal.Correction.Weighted>
   9.000000E+99

> <Gold.Protein.RotatedTorsions>
[ 6907 6896 6895 6894 ] final   76.61 input  -60.11 | X-H torsion
[ 7974 7965 7964 7962 ] final   95.06 input  175.53 | X-H torsion
[ 8008 7997 7996 7995 ] final  -53.08 input   59.86 | X-H torsion
[ 10167 10162 10161 10158 ] final   36.92 input  -65.29 | X-H torsion
[ 10718 10713 10712 10709 ] final -119.61 input   66.30 | X-H torsion
[ 10763 10752 10751 10750 ] final    8.78 input  -60.55 | X-H torsion
[ 11005 11000 10999 10996 ] final -159.42 input  -57.11 | X-H torsion

> <Gold.Protein.ActiveResidues>
 VAL166  LYS551  ARG553  GLY616  TRP617  ASP618  TYR619  PRO620  LYS621  CYS622 
 ASP623  PHE694  ASN695  SER759  ASP760  ASP761  ALA762  ILE779  LEU786  VAL792 
 PHE793  MET794  SER795  GLU796  ALA797  LYS798  CYS799  TRP800  GLU811  SER814 

> <Gold.Protein.RotatedAtoms>
  152.5080  134.3943  159.9394 H   0  0  0  0  0  0  0  0  0  0  0  0  # atno 6907 bound_to 6896
  151.3905  133.3784  159.2728 H   0  0  0  0  0  0  0  0  0  0  0  0  # atno 6908 bound_to 6896
  150.9436  134.8864  159.7687 H   0  0  0  0  0  0  0  0  0  0  0  0  # atno 6909 bound_to 6896
  145.4573  139.2289  143.3007 H   0  0  0  0  0  0  0  0  0  0  0  0  # atno 7974 bound_to 7965
  154.4123  140.1208  156.5096 H   0  0  0  0  0  0  0  0  0  0  0  0  # atno 8008 bound_to 7997
  155.6812  140.3496  155.4837 H   0  0  0  0  0  0  0  0  0  0  0  0  # atno 8009 bound_to 7997
  155.9550  140.1112  157.0935 H   0  0  0  0  0  0  0  0  0  0  0  0  # atno 8010 bound_to 7997
  140.4081  144.1630  150.6137 H   0  0  0  0  0  0  0  0  0  0  0  0  # atno 10167 bound_to 10162
  156.1194  130.6311  150.9437 H   0  0  0  0  0  0  0  0  0  0  0  0  # atno 10718 bound_to 10713
  153.2212  135.6881  153.7997 H   0  0  0  0  0  0  0  0  0  0  0  0  # atno 10763 bound_to 10752
  153.7195  135.3269  155.3264 H   0  0  0  0  0  0  0  0  0  0  0  0  # atno 10764 bound_to 10752
  154.8270  135.4610  154.1061 H   0  0  0  0  0  0  0  0  0  0  0  0  # atno 10765 bound_to 10752
  140.6428  134.4533  157.5233 H   0  0  0  0  0  0  0  0  0  0  0  0  # atno 11005 bound_to 11000
  146.2471  140.5338  142.8909 LP  0  0  0  0  0  0  0  0  0  0  0  0  # atno 17320 bound_to 7965
  144.8024  140.6238  143.6469 LP  0  0  0  0  0  0  0  0  0  0  0  0  # atno 17321 bound_to 7965
  140.4667  143.2428  151.9145 LP  0  0  0  0  0  0  0  0  0  0  0  0  # atno 17342 bound_to 10162
  139.4783  144.5412  151.8525 LP  0  0  0  0  0  0  0  0  0  0  0  0  # atno 17343 bound_to 10162
  157.6377  131.0914  150.8314 LP  0  0  0  0  0  0  0  0  0  0  0  0  # atno 17370 bound_to 10713
  156.8413  130.5049  149.5321 LP  0  0  0  0  0  0  0  0  0  0  0  0  # atno 17371 bound_to 10713
  139.9074  134.8419  156.1654 LP  0  0  0  0  0  0  0  0  0  0  0  0  # atno 17394 bound_to 11000
  141.0594  133.6849  156.1924 LP  0  0  0  0  0  0  0  0  0  0  0  0  # atno 17395 bound_to 11000

$$$$
