AV-unprocessed.smi:1768|AV-procd|sdf|7143|dock10
  -GOLD-   22720 8383D 1   1.00000     0.00000
 Structure written by MMmdl.
 33 34  0  0  0  0  0  0  0  0  1 V2000
  144.9309  144.6529  162.3817 C   0  0  0  0  0  0  0  0  0  0  0  0
  145.5811  144.0486  161.1842 C   0  0  0  0  0  0  0  0  0  0  0  0
  145.2920  142.8175  160.7452 N   0  0  0  0  0  0  0  0  0  0  0  0
  146.0242  142.4756  159.6166 N   0  0  0  0  0  0  0  0  0  0  0  0
  146.8478  143.4625  159.2375 C   0  0  0  0  0  0  0  0  0  0  0  0
  147.7141  143.3814  158.1153 N   0  0  0  0  0  0  0  0  0  0  0  0
  147.9811  142.3137  157.3429 C   0  0  0  0  0  0  0  0  0  0  0  0
  147.4889  141.1939  157.4827 O   0  0  0  0  0  0  0  0  0  0  0  0
  148.8592  142.6251  156.3779 N   0  0  0  0  0  0  0  0  0  0  0  0
  149.3720  141.7135  155.3560 C   0  0  2  0  0  0  0  0  0  0  0  0
  148.1925  141.1943  154.5208 C   0  0  0  0  0  0  0  0  0  0  0  0
  150.1621  140.5620  156.0111 C   0  0  2  0  0  0  0  0  0  0  0  0
  151.2405  141.0006  157.0047 C   0  0  0  0  0  0  0  0  0  0  0  0
  152.1736  139.8123  156.9871 C   0  0  0  0  0  0  0  0  0  0  0  0
  152.1495  139.4225  155.5128 C   0  0  0  0  0  0  0  0  0  0  0  0
  150.8681  139.8119  155.0243 O   0  0  0  0  0  0  0  0  0  0  0  0
  146.7952  144.9026  160.2401 S   0  0  0  0  0  0  0  0  0  0  0  0
  144.0620  144.0673  162.6841 H   0  0  0  0  0  0  0  0  0  0  0  0
  144.6049  145.6686  162.1571 H   0  0  0  0  0  0  0  0  0  0  0  0
  145.6372  144.6860  163.2113 H   0  0  0  0  0  0  0  0  0  0  0  0
  148.1870  144.2391  157.8719 H   0  0  0  0  0  0  0  0  0  0  0  0
  149.2040  143.5732  156.3443 H   0  0  0  0  0  0  0  0  0  0  0  0
  150.0424  142.2488  154.6811 H   0  0  0  0  0  0  0  0  0  0  0  0
  148.5353  140.5402  153.7187 H   0  0  0  0  0  0  0  0  0  0  0  0
  147.6454  142.0170  154.0589 H   0  0  0  0  0  0  0  0  0  0  0  0
  147.4899  140.6287  155.1335 H   0  0  0  0  0  0  0  0  0  0  0  0
  149.4774  139.8779  156.5159 H   0  0  0  0  0  0  0  0  0  0  0  0
  151.7615  141.8879  156.6416 H   0  0  0  0  0  0  0  0  0  0  0  0
  150.8449  141.2177  157.9973 H   0  0  0  0  0  0  0  0  0  0  0  0
  153.1746  140.0440  157.3515 H   0  0  0  0  0  0  0  0  0  0  0  0
  151.7637  139.0062  157.5970 H   0  0  0  0  0  0  0  0  0  0  0  0
  152.9111  139.9739  154.9602 H   0  0  0  0  0  0  0  0  0  0  0  0
  152.3265  138.3574  155.3625 H   0  0  0  0  0  0  0  0  0  0  0  0
  1  2  1  0  0  0  0
  1 18  1  0  0  0  0
  1 19  1  0  0  0  0
  1 20  1  0  0  0  0
  2 17  1  0  0  0  0
  2  3  2  0  0  0  0
  3  4  1  0  0  0  0
  4  5  2  0  0  0  0
  5  6  1  0  0  0  0
  5 17  1  0  0  0  0
  6  7  1  0  0  0  0
  6 21  1  0  0  0  0
  7  8  2  0  0  0  0
  7  9  1  0  0  0  0
  9 10  1  0  0  0  0
  9 22  1  0  0  0  0
 10 11  1  0  0  0  0
 10 12  1  0  0  0  0
 10 23  1  0  0  0  0
 11 24  1  0  0  0  0
 11 25  1  0  0  0  0
 11 26  1  0  0  0  0
 12 16  1  0  0  0  0
 12 13  1  0  0  0  0
 12 27  1  0  0  0  0
 13 14  1  0  0  0  0
 13 28  1  0  0  0  0
 13 29  1  0  0  0  0
 14 15  1  0  0  0  0
 14 30  1  0  0  0  0
 14 31  1  0  0  0  0
 15 16  1  0  0  0  0
 15 32  1  0  0  0  0
 15 33  1  0  0  0  0
M  END
> <s_m_source_file>
AV-unprocessed.smi

> <i_m_source_file_index>
1768

> <i_lp_mmshare_version>
43012

> <i_f3d_flags>
0

> <s_epik_input>
W0NIM11jMW5uYyhzMSlbTkhdQyg9TylbTkhdW0NASF0oW0NIM10pW0NAQEhdMltDSDJdW0NIMl1bQ0gyXU8y

> <s_epik_cmdline>
J2VwaWtfcHl0aG9uJywgJy1waCcsICc3LjAnLCAnLXRuJywgJzgnLCAnLW1hJywgJzIwMCcsICctbWV0YWxfYmluZGluZycsICctaW1hZScsICc8aW5maWxlLm1hZT4nLCAnLW9tYWUnLCAnPG91dGZpbGUubWFlPic=

> <r_lp_tautomer_probability>
1

> <r_epik_Ionization_Penalty>
0.000523083

> <r_epik_Ionization_Penalty_Charging>
0

> <r_epik_Ionization_Penalty_Neutral>
0.000523083

> <r_epik_State_Penalty>
-0

> <r_epik_Charging_Adjusted_Penalty>
0

> <i_epik_Tot_Q>
0

> <i_epik_Tot_abs_Q>
0

> <r_epik_Metal_State_Penalty>
0.223408

> <b_epik_Metal_Only>
0

> <s_lp_Force_Field>
OPLS_2005

> <r_lp_Energy>
16.8922

> <b_lp_Chiralities_Consistent>
1

> <s_lp_Variant>
AV-unprocessed.smi:1768-1

> <Gold.Version>
5.8.1

> <Gold.Id.Protein>
6NUR|6NUR_protein|mol2

> <Gold.PLP.Fitness>
35.0268

> <Gold.PLP.PLP>
-27.4612

> <Gold.PLP.part.hbond>
-3.6588

> <Gold.PLP.part.metal>
0.0000

> <Gold.PLP.part.buried>
-1.9915

> <Gold.PLP.part.nonpolar>
-21.9488

> <Gold.PLP.part.repulsive>
0.1946

> <Gold.PLP.ligand.clash>
0.0000

> <Gold.PLP.ligand.torsion>
0.1021

> <Gold.PLP.Chemscore.Hbond>
2.5874

> <Gold.PLP.Chemscore.CHOScore>
0.0000

> <Gold.PLP.Chemscore.Metal>
0.0000

> <Gold.Chemscore.Hbonds>
donor molecule, donor type, donor heavy atom, donor atom, acceptor molecule, acceptor atom, score
      L1  H     6    21       P1  8029  0.59
      L1  H     9    22       P1  8028  0.44
      P1  H  6934  6946       L1     4  0.32
      P1  H  7989  7998       L1    16  0.65

> <Gold.PLP.Chemscore.Internal.Correction>
0.0077

> <Gold.Rescore>
     Score         DG    S(hbond)    S(metal)    S(lipo)     H(rot)  DE(clash)    DE(int)     intcor
     10.22     -12.32       0.98        0.00      58.71       1.29       0.02       2.08       ----

> <Gold.Chemscore.Fitness>
10.2244

> <Gold.Chemscore.DG>
-12.3219

> <Gold.Chemscore.ZeroCoef>
-5.4800

> <Gold.Chemscore.Hbond>
0.9822

> <Gold.Chemscore.Metal>
0.0000

> <Gold.Chemscore.Lipo>
58.7052

> <Gold.Chemscore.Internal_Hbond>
0.0000

> <Gold.Chemscore.DEClash>
0.0189

> <Gold.Chemscore.DEInternal>
2.0785

> <Gold.Chemscore.Rot>
1.2919

> <Gold.Chemscore.Internal.Correction>
   9.000000E+99

> <Gold.Chemscore.Hbonds>
donor molecule, donor type, donor heavy atom, donor atom, acceptor molecule, acceptor atom, score
      L1  H     6    21       P1  8029  0.06
      L1  H     9    22       P1  8028  0.43
      P1  H  6934  6946       L1     4  0.01
      P1  H  7989  7998       L1    16  0.05

> <Gold.Chemscore.Hbond.Weighted>
-3.2805

> <Gold.Chemscore.Metal.Weighted>
-0.0000

> <Gold.Chemscore.Lipo.Weighted>
-6.8685

> <Gold.Chemscore.Internal_Hbond.Weighted>
0.0000

> <Gold.Chemscore.DEClash.Weighted>
0.0189

> <Gold.Chemscore.DEInternal.Weighted>
2.0785

> <Gold.Chemscore.Rot.Weighted>
3.3072

> <Gold.Chemscore.Internal.Correction.Weighted>
   9.000000E+99

> <Gold.Protein.RotatedTorsions>
[ 6907 6896 6895 6894 ] final  -56.43 input  -60.11 | X-H torsion
[ 7974 7965 7964 7962 ] final  130.73 input  175.53 | X-H torsion
[ 8008 7997 7996 7995 ] final -146.65 input   59.86 | X-H torsion
[ 10167 10162 10161 10158 ] final  -45.91 input  -65.29 | X-H torsion
[ 10718 10713 10712 10709 ] final  -52.85 input   66.30 | X-H torsion
[ 10763 10752 10751 10750 ] final   18.94 input  -60.55 | X-H torsion
[ 11005 11000 10999 10996 ] final   18.50 input  -57.11 | X-H torsion

> <Gold.Protein.ActiveResidues>
 VAL166  LYS551  ARG553  GLY616  TRP617  ASP618  TYR619  PRO620  LYS621  CYS622 
 ASP623  PHE694  ASN695  SER759  ASP760  ASP761  ALA762  ILE779  LEU786  VAL792 
 PHE793  MET794  SER795  GLU796  ALA797  LYS798  CYS799  TRP800  GLU811  SER814 

> <Gold.Protein.RotatedAtoms>
  150.8168  134.7355  159.6736 H   0  0  0  0  0  0  0  0  0  0  0  0  # atno 6907 bound_to 6896
  152.4286  134.5817  159.9959 H   0  0  0  0  0  0  0  0  0  0  0  0  # atno 6908 bound_to 6896
  151.6012  133.3319  159.3083 H   0  0  0  0  0  0  0  0  0  0  0  0  # atno 6909 bound_to 6896
  145.0148  139.4187  143.5227 H   0  0  0  0  0  0  0  0  0  0  0  0  # atno 7974 bound_to 7965
  155.5629  140.0627  157.2825 H   0  0  0  0  0  0  0  0  0  0  0  0  # atno 8008 bound_to 7997
  154.4385  140.1882  156.0846 H   0  0  0  0  0  0  0  0  0  0  0  0  # atno 8009 bound_to 7997
  156.0434  140.3293  155.7273 H   0  0  0  0  0  0  0  0  0  0  0  0  # atno 8010 bound_to 7997
  140.6839  143.2856  151.3707 H   0  0  0  0  0  0  0  0  0  0  0  0  # atno 10167 bound_to 10162
  156.1586  130.4150  149.9830 H   0  0  0  0  0  0  0  0  0  0  0  0  # atno 10718 bound_to 10713
  153.1205  135.6718  153.9344 H   0  0  0  0  0  0  0  0  0  0  0  0  # atno 10763 bound_to 10752
  153.8861  135.3052  155.3448 H   0  0  0  0  0  0  0  0  0  0  0  0  # atno 10764 bound_to 10752
  154.7617  135.4985  153.9555 H   0  0  0  0  0  0  0  0  0  0  0  0  # atno 10765 bound_to 10752
  140.4242  134.1487  155.7675 H   0  0  0  0  0  0  0  0  0  0  0  0  # atno 11005 bound_to 11000
  146.3476  139.9612  142.8717 LP  0  0  0  0  0  0  0  0  0  0  0  0  # atno 17320 bound_to 7965
  145.1975  140.9839  143.4175 LP  0  0  0  0  0  0  0  0  0  0  0  0  # atno 17321 bound_to 7965
  139.6182  144.0960  152.2366 LP  0  0  0  0  0  0  0  0  0  0  0  0  # atno 17342 bound_to 10162
  140.0396  144.6017  150.7421 LP  0  0  0  0  0  0  0  0  0  0  0  0  # atno 17343 bound_to 10162
  156.7666  130.9170  151.3643 LP  0  0  0  0  0  0  0  0  0  0  0  0  # atno 17370 bound_to 10713
  157.6714  130.9055  150.0050 LP  0  0  0  0  0  0  0  0  0  0  0  0  # atno 17371 bound_to 10713
  141.1772  133.8489  157.1382 LP  0  0  0  0  0  0  0  0  0  0  0  0  # atno 17394 bound_to 11000
  140.0179  134.9959  157.0531 LP  0  0  0  0  0  0  0  0  0  0  0  0  # atno 17395 bound_to 11000

$$$$
