AV-unprocessed.smi:197|AV-procd|sdf|1549|dock3
  -GOLD-   2262019413D 1   1.00000     0.00000
 Structure written by MMmdl.
 54 57  0  0  0  0  0  0  0  0  1 V2000
  143.4431  135.7539  161.3338 C   0  0  0  0  0  0  0  0  0  0  0  0
  144.3607  136.5550  162.0633 O   0  0  0  0  0  0  0  0  0  0  0  0
  145.1017  137.4655  161.2626 C   0  0  0  0  0  0  0  0  0  0  0  0
  146.1136  136.7362  160.3598 C   0  0  0  0  0  0  0  0  0  0  0  0
  147.4908  136.5099  161.0317 C   0  0  1  0  0  0  0  0  0  0  0  0
  147.3884  136.2561  162.5519 C   0  0  0  0  0  0  0  0  0  0  0  0
  146.8029  134.9823  162.8012 O   0  0  0  0  0  0  0  0  0  0  0  0
  147.5978  133.9234  162.2796 C   0  0  0  0  0  0  0  0  0  0  0  0
  147.7219  134.0729  160.7554 C   0  0  0  0  0  0  0  0  0  0  0  0
  148.2318  135.4018  160.4169 N   0  0  0  0  0  0  0  0  0  0  0  0
  148.6709  135.6087  159.1457 C   0  0  0  0  0  0  0  0  0  0  0  0
  149.2922  134.5997  158.4771 N   0  0  0  0  0  0  0  0  0  0  0  0
  149.6799  134.7622  157.2094 C   0  0  0  0  0  0  0  0  0  0  0  0
  149.5432  135.8334  156.4272 N   0  0  0  0  0  0  0  0  0  0  0  0
  148.9353  136.8559  157.0930 C   0  0  0  0  0  0  0  0  0  0  0  0
  148.4826  136.8342  158.4429 C   0  0  0  0  0  0  0  0  0  0  0  0
  147.9367  138.0695  158.7734 N   0  0  0  0  0  0  0  0  0  0  0  0
  148.0341  138.7689  157.6767 C   0  0  0  0  0  0  0  0  0  0  0  0
  148.6034  138.1098  156.6113 N   0  0  0  0  0  0  0  0  0  0  0  0
  148.8012  138.6320  155.2691 C   0  0  0  0  0  0  0  0  0  0  0  0
  149.7569  139.8492  155.2246 C   0  0  1  0  0  0  0  0  0  0  0  0
  150.0216  140.1621  153.8662 O   0  0  0  0  0  0  0  0  0  0  0  0
  149.1602  141.0817  155.8864 C   0  0  0  0  0  0  0  0  0  0  0  0
  150.3965  141.8884  156.2590 C   0  0  0  0  0  0  0  0  0  0  0  0
  151.3433  140.9108  156.6643 O   0  0  0  0  0  0  0  0  0  0  0  0
  151.0775  139.6677  156.0158 C   0  0  2  0  0  0  0  0  0  0  0  0
  152.3128  139.2097  155.2192 C   0  0  0  0  0  0  0  0  0  0  0  0
  142.8879  135.1207  162.0256 H   0  0  0  0  0  0  0  0  0  0  0  0
  143.9449  135.1008  160.6205 H   0  0  0  0  0  0  0  0  0  0  0  0
  142.7220  136.3695  160.7951 H   0  0  0  0  0  0  0  0  0  0  0  0
  144.4319  138.0968  160.6760 H   0  0  0  0  0  0  0  0  0  0  0  0
  145.6322  138.1280  161.9454 H   0  0  0  0  0  0  0  0  0  0  0  0
  145.6911  135.7869  160.0291 H   0  0  0  0  0  0  0  0  0  0  0  0
  146.2558  137.3286  159.4574 H   0  0  0  0  0  0  0  0  0  0  0  0
  148.0633  137.4272  160.9115 H   0  0  0  0  0  0  0  0  0  0  0  0
  148.3780  136.2983  163.0102 H   0  0  0  0  0  0  0  0  0  0  0  0
  146.7942  137.0249  163.0438 H   0  0  0  0  0  0  0  0  0  0  0  0
  148.5820  133.9266  162.7511 H   0  0  0  0  0  0  0  0  0  0  0  0
  147.1296  132.9709  162.5276 H   0  0  0  0  0  0  0  0  0  0  0  0
  148.3917  133.3024  160.3711 H   0  0  0  0  0  0  0  0  0  0  0  0
  146.7500  133.9209  160.2846 H   0  0  0  0  0  0  0  0  0  0  0  0
  150.1597  133.9085  156.7539 H   0  0  0  0  0  0  0  0  0  0  0  0
  147.6762  139.7860  157.6088 H   0  0  0  0  0  0  0  0  0  0  0  0
  149.1797  137.8267  154.6383 H   0  0  0  0  0  0  0  0  0  0  0  0
  147.8261  138.9039  154.8629 H   0  0  0  0  0  0  0  0  0  0  0  0
  149.2298  140.0232  153.3691 H   0  0  0  0  0  0  0  0  0  0  0  0
  148.4648  141.6302  155.2497 H   0  0  0  0  0  0  0  0  0  0  0  0
  148.6283  140.8030  156.7970 H   0  0  0  0  0  0  0  0  0  0  0  0
  150.7849  142.4231  155.3911 H   0  0  0  0  0  0  0  0  0  0  0  0
  150.2052  142.6142  157.0494 H   0  0  0  0  0  0  0  0  0  0  0  0
  150.9082  138.9561  156.8239 H   0  0  0  0  0  0  0  0  0  0  0  0
  152.1323  138.2640  154.7085 H   0  0  0  0  0  0  0  0  0  0  0  0
  153.1655  139.0650  155.8824 H   0  0  0  0  0  0  0  0  0  0  0  0
  152.6048  139.9459  154.4702 H   0  0  0  0  0  0  0  0  0  0  0  0
  1  2  1  0  0  0  0
  1 28  1  0  0  0  0
  1 29  1  0  0  0  0
  1 30  1  0  0  0  0
  2  3  1  0  0  0  0
  3  4  1  0  0  0  0
  3 31  1  0  0  0  0
  3 32  1  0  0  0  0
  4  5  1  0  0  0  0
  4 33  1  0  0  0  0
  4 34  1  0  0  0  0
  5 10  1  0  0  0  0
  5  6  1  0  0  0  0
  5 35  1  0  0  0  0
  6  7  1  0  0  0  0
  6 36  1  0  0  0  0
  6 37  1  0  0  0  0
  7  8  1  0  0  0  0
  8  9  1  0  0  0  0
  8 38  1  0  0  0  0
  8 39  1  0  0  0  0
  9 10  1  0  0  0  0
  9 40  1  0  0  0  0
  9 41  1  0  0  0  0
 10 11  1  0  0  0  0
 11 16  1  0  0  0  0
 11 12  2  0  0  0  0
 12 13  1  0  0  0  0
 13 14  2  0  0  0  0
 13 42  1  0  0  0  0
 14 15  1  0  0  0  0
 15 19  1  0  0  0  0
 15 16  2  0  0  0  0
 16 17  1  0  0  0  0
 17 18  2  0  0  0  0
 18 19  1  0  0  0  0
 18 43  1  0  0  0  0
 19 20  1  0  0  0  0
 20 21  1  0  0  0  0
 20 44  1  0  0  0  0
 20 45  1  0  0  0  0
 21 26  1  0  0  0  0
 21 22  1  0  0  0  0
 21 23  1  0  0  0  0
 22 46  1  0  0  0  0
 23 24  1  0  0  0  0
 23 47  1  0  0  0  0
 23 48  1  0  0  0  0
 24 25  1  0  0  0  0
 24 49  1  0  0  0  0
 24 50  1  0  0  0  0
 25 26  1  0  0  0  0
 26 27  1  0  0  0  0
 26 51  1  0  0  0  0
 27 52  1  0  0  0  0
 27 53  1  0  0  0  0
 27 54  1  0  0  0  0
M  END
> <s_m_source_file>
AV-unprocessed.smi

> <i_m_source_file_index>
197

> <i_lp_mmshare_version>
43012

> <i_f3d_flags>
0

> <s_epik_input>
W0NIM11PW0NIMl1bQ0gyXVtDQEBIXTFbQ0gyXU9bQ0gyXVtDSDJdTjFjKG5bY0hdbjIpYyhjMjMpbltjSF1uM1tDSDJdW0NAQF00KFtPSF0pW0NIMl1bQ0gyXU9bQ0BIXTRbQ0gzXQ==

> <s_epik_cmdline>
J2VwaWtfcHl0aG9uJywgJy1waCcsICc3LjAnLCAnLXRuJywgJzgnLCAnLW1hJywgJzIwMCcsICctbWV0YWxfYmluZGluZycsICctaW1hZScsICc8aW5maWxlLm1hZT4nLCAnLW9tYWUnLCAnPG91dGZpbGUubWFlPic=

> <r_lp_tautomer_probability>
1

> <r_epik_Ionization_Penalty>
0.000106218

> <r_epik_Ionization_Penalty_Charging>
0

> <r_epik_Ionization_Penalty_Neutral>
0.000106218

> <r_epik_State_Penalty>
-0

> <r_epik_Charging_Adjusted_Penalty>
0

> <i_epik_Tot_Q>
0

> <i_epik_Tot_abs_Q>
0

> <r_epik_Metal_State_Penalty>
-0

> <b_epik_Metal_Only>
0

> <s_lp_Force_Field>
OPLS_2005

> <r_lp_Energy>
41.5492

> <b_lp_Chiralities_Consistent>
1

> <s_lp_Variant>
AV-unprocessed.smi:197-6

> <Gold.Version>
5.8.1

> <Gold.Id.Protein>
6NUR|6NUR_protein|mol2

> <Gold.PLP.Fitness>
42.6510

> <Gold.PLP.PLP>
-38.0325

> <Gold.PLP.part.hbond>
-4.0000

> <Gold.PLP.part.metal>
0.0000

> <Gold.PLP.part.buried>
-6.7640

> <Gold.PLP.part.nonpolar>
-27.0402

> <Gold.PLP.part.repulsive>
0.0409

> <Gold.PLP.ligand.clash>
0.0000

> <Gold.PLP.ligand.torsion>
0.8902

> <Gold.PLP.Chemscore.Hbond>
1.9402

> <Gold.PLP.Chemscore.CHOScore>
0.0000

> <Gold.PLP.Chemscore.Metal>
0.0000

> <Gold.Chemscore.Hbonds>
donor molecule, donor type, donor heavy atom, donor atom, acceptor molecule, acceptor atom, score
      L1  H    22    46       P1  7957  0.11
      P1  H  6896  6909       L1    12  0.94
      P1  H  7989  7998       L1    22  0.80

> <Gold.PLP.Chemscore.Internal.Correction>
0.5784

> <Gold.Rescore>
     Score         DG    S(hbond)    S(metal)    S(lipo)     H(rot)  DE(clash)    DE(int)     intcor
      9.53     -13.15       1.69        0.00      79.42       2.84       0.03       3.58       ----

> <Gold.Chemscore.Fitness>
9.5328

> <Gold.Chemscore.DG>
-13.1491

> <Gold.Chemscore.ZeroCoef>
-5.4800

> <Gold.Chemscore.Hbond>
1.6877

> <Gold.Chemscore.Metal>
0.0000

> <Gold.Chemscore.Lipo>
79.4159

> <Gold.Chemscore.Internal_Hbond>
0.0000

> <Gold.Chemscore.DEClash>
0.0350

> <Gold.Chemscore.DEInternal>
3.5813

> <Gold.Chemscore.Rot>
2.8358

> <Gold.Chemscore.Internal.Correction>
   9.000000E+99

> <Gold.Chemscore.Hbonds>
donor molecule, donor type, donor heavy atom, donor atom, acceptor molecule, acceptor atom, score
      L1  H    22    46       P1  7957  0.12
      P1  H  6896  6909       L1    12  0.40
      P1  H  6934  6947       L1    17  0.02
      P1  H  7989  7998       L1    22  0.76

> <Gold.Chemscore.Hbond.Weighted>
-5.6370

> <Gold.Chemscore.Metal.Weighted>
-0.0000

> <Gold.Chemscore.Lipo.Weighted>
-9.2917

> <Gold.Chemscore.Internal_Hbond.Weighted>
0.0000

> <Gold.Chemscore.DEClash.Weighted>
0.0350

> <Gold.Chemscore.DEInternal.Weighted>
3.5813

> <Gold.Chemscore.Rot.Weighted>
7.2596

> <Gold.Chemscore.Internal.Correction.Weighted>
   9.000000E+99

> <Gold.Protein.RotatedTorsions>
[ 6907 6896 6895 6894 ] final    8.50 input  -60.11 | X-H torsion
[ 7974 7965 7964 7962 ] final -153.97 input  175.53 | X-H torsion
[ 8008 7997 7996 7995 ] final -176.29 input   59.86 | X-H torsion
[ 10167 10162 10161 10158 ] final  -61.61 input  -65.29 | X-H torsion
[ 10718 10713 10712 10709 ] final  -10.49 input   66.30 | X-H torsion
[ 10763 10752 10751 10750 ] final -141.48 input  -60.55 | X-H torsion
[ 11005 11000 10999 10996 ] final  -60.72 input  -57.11 | X-H torsion

> <Gold.Protein.ActiveResidues>
 VAL166  LYS551  ARG553  GLY616  TRP617  ASP618  TYR619  PRO620  LYS621  CYS622 
 ASP623  PHE694  ASN695  SER759  ASP760  ASP761  ALA762  ILE779  LEU786  VAL792 
 PHE793  MET794  SER795  GLU796  ALA797  LYS798  CYS799  TRP800  GLU811  SER814 

> <Gold.Protein.RotatedAtoms>
  151.7070  135.0919  160.0260 H   0  0  0  0  0  0  0  0  0  0  0  0  # atno 6907 bound_to 6896
  152.3685  133.6383  159.6077 H   0  0  0  0  0  0  0  0  0  0  0  0  # atno 6908 bound_to 6896
  150.7655  133.9225  159.3444 H   0  0  0  0  0  0  0  0  0  0  0  0  # atno 6909 bound_to 6896
  144.7713  140.4452  143.5905 H   0  0  0  0  0  0  0  0  0  0  0  0  # atno 7974 bound_to 7965
  155.9931  140.1205  157.0619 H   0  0  0  0  0  0  0  0  0  0  0  0  # atno 8008 bound_to 7997
  154.4218  140.1122  156.5661 H   0  0  0  0  0  0  0  0  0  0  0  0  # atno 8009 bound_to 7997
  155.6316  140.3473  155.4687 H   0  0  0  0  0  0  0  0  0  0  0  0  # atno 8010 bound_to 7997
  140.5994  143.2358  151.5962 H   0  0  0  0  0  0  0  0  0  0  0  0  # atno 10167 bound_to 10162
  156.6727  130.5014  149.5995 H   0  0  0  0  0  0  0  0  0  0  0  0  # atno 10718 bound_to 10713
  154.8543  135.3523  154.5875 H   0  0  0  0  0  0  0  0  0  0  0  0  # atno 10763 bound_to 10752
  153.6485  135.6995  153.5222 H   0  0  0  0  0  0  0  0  0  0  0  0  # atno 10764 bound_to 10752
  153.2913  135.4234  155.1128 H   0  0  0  0  0  0  0  0  0  0  0  0  # atno 10765 bound_to 10752
  141.1297  133.6624  156.5265 H   0  0  0  0  0  0  0  0  0  0  0  0  # atno 11005 bound_to 11000
  145.6316  139.1537  143.2966 LP  0  0  0  0  0  0  0  0  0  0  0  0  # atno 17320 bound_to 7965
  146.1861  140.6419  142.9167 LP  0  0  0  0  0  0  0  0  0  0  0  0  # atno 17321 bound_to 7965
  139.5280  144.2999  152.1082 LP  0  0  0  0  0  0  0  0  0  0  0  0  # atno 17342 bound_to 10162
  140.2177  144.4498  150.6356 LP  0  0  0  0  0  0  0  0  0  0  0  0  # atno 17343 bound_to 10162
  156.1926  130.6569  151.1079 LP  0  0  0  0  0  0  0  0  0  0  0  0  # atno 17370 bound_to 10713
  157.7071  131.0751  150.6628 LP  0  0  0  0  0  0  0  0  0  0  0  0  # atno 17371 bound_to 10713
  140.4250  134.7153  157.4911 LP  0  0  0  0  0  0  0  0  0  0  0  0  # atno 17394 bound_to 11000
  140.0333  134.6373  155.9077 LP  0  0  0  0  0  0  0  0  0  0  0  0  # atno 17395 bound_to 11000

$$$$
