AV-unprocessed.smi:3327|AV-procd|sdf|12788|dock7
  -GOLD-   2272019133D 1   1.00000     0.00000
 Structure written by MMmdl.
 41 42  0  0  0  0  0  0  0  0  2 V2000
  155.0312  140.4980  162.1556 C   0  0  0  0  0  0  0  0  0  0  0  0
  153.8669  141.1568  161.4032 C   0  0  1  0  0  0  0  0  0  0  0  0
  153.3717  142.4278  162.1271 C   0  0  0  0  0  0  0  0  0  0  0  0
  152.2863  143.1649  161.3202 C   0  0  0  0  0  0  0  0  0  0  0  0
  152.7438  143.3964  159.8697 C   0  0  0  0  0  0  0  0  0  0  0  0
  153.0913  142.0996  159.2730 N   0  0  0  0  0  0  0  0  0  0  0  0
  152.3902  141.4673  158.3006 C   0  0  0  0  0  0  0  0  0  0  0  0
  152.7077  140.3540  157.8781 O   0  0  0  0  0  0  0  0  0  0  0  0
  151.1534  142.1578  157.7048 C   0  0  0  0  0  0  0  0  0  0  0  0
  150.8985  141.7530  156.3071 N   0  3  0  0  0  0  0  0  0  0  0  0
  150.5435  140.3290  156.1427 C   0  0  0  0  0  0  0  0  0  0  0  0
  150.1216  140.0118  154.6990 C   0  0  0  0  0  0  0  0  0  0  0  0
  148.8411  140.6049  154.3577 N   0  0  0  0  0  0  0  0  0  0  0  0
  148.4575  141.9264  154.4475 C   0  0  0  0  0  0  0  0  0  0  0  0
  147.1670  142.0051  154.0080 C   0  0  0  0  0  0  0  0  0  0  0  0
  146.8423  140.6620  153.6687 C   0  0  0  0  0  0  0  0  0  0  0  0
  147.8477  139.8266  153.8760 N   0  0  0  0  0  0  0  0  0  0  0  0
  154.2464  141.4880  159.9441 C   0  0  0  0  0  0  0  0  0  0  0  0
  155.8944  141.1620  162.2107 H   0  0  0  0  0  0  0  0  0  0  0  0
  155.3488  139.5800  161.6606 H   0  0  0  0  0  0  0  0  0  0  0  0
  154.7437  140.2398  163.1751 H   0  0  0  0  0  0  0  0  0  0  0  0
  153.0439  140.4407  161.3805 H   0  0  0  0  0  0  0  0  0  0  0  0
  152.9912  142.1754  163.1175 H   0  0  0  0  0  0  0  0  0  0  0  0
  154.2133  143.1037  162.2849 H   0  0  0  0  0  0  0  0  0  0  0  0
  151.3657  142.5798  161.3241 H   0  0  0  0  0  0  0  0  0  0  0  0
  152.0509  144.1171  161.7962 H   0  0  0  0  0  0  0  0  0  0  0  0
  151.9764  143.9429  159.3244 H   0  0  0  0  0  0  0  0  0  0  0  0
  153.6232  144.0423  159.8565 H   0  0  0  0  0  0  0  0  0  0  0  0
  150.2773  141.9140  158.3073 H   0  0  0  0  0  0  0  0  0  0  0  0
  151.2964  143.2387  157.7349 H   0  0  0  0  0  0  0  0  0  0  0  0
  150.1401  142.3155  155.9469 H   0  0  0  0  0  0  0  0  0  0  0  0
  151.4068  139.7199  156.4135 H   0  0  0  0  0  0  0  0  0  0  0  0
  149.7394  140.0679  156.8324 H   0  0  0  0  0  0  0  0  0  0  0  0
  150.8761  140.3545  153.9889 H   0  0  0  0  0  0  0  0  0  0  0  0
  150.0396  138.9320  154.5686 H   0  0  0  0  0  0  0  0  0  0  0  0
  149.1268  142.6926  154.8113 H   0  0  0  0  0  0  0  0  0  0  0  0
  146.5481  142.8876  153.9411 H   0  0  0  0  0  0  0  0  0  0  0  0
  145.9134  140.2722  153.2791 H   0  0  0  0  0  0  0  0  0  0  0  0
  155.0865  142.1840  159.9203 H   0  0  0  0  0  0  0  0  0  0  0  0
  154.5975  140.5877  159.4378 H   0  0  0  0  0  0  0  0  0  0  0  0
  151.7246  141.9484  155.7597 H   0  0  0  0  0  0  0  0  0  0  0  0
  1  2  1  0  0  0  0
  1 19  1  0  0  0  0
  1 20  1  0  0  0  0
  1 21  1  0  0  0  0
  2 18  1  0  0  0  0
  2  3  1  0  0  0  0
  2 22  1  0  0  0  0
  3  4  1  0  0  0  0
  3 23  1  0  0  0  0
  3 24  1  0  0  0  0
  4  5  1  0  0  0  0
  4 25  1  0  0  0  0
  4 26  1  0  0  0  0
  5  6  1  0  0  0  0
  5 27  1  0  0  0  0
  5 28  1  0  0  0  0
  6  7  1  0  0  0  0
  6 18  1  0  0  0  0
  7  8  2  0  0  0  0
  7  9  1  0  0  0  0
  9 10  1  0  0  0  0
  9 29  1  0  0  0  0
  9 30  1  0  0  0  0
 10 11  1  0  0  0  0
 10 31  1  0  0  0  0
 10 41  1  0  0  0  0
 11 12  1  0  0  0  0
 11 32  1  0  0  0  0
 11 33  1  0  0  0  0
 12 13  1  0  0  0  0
 12 34  1  0  0  0  0
 12 35  1  0  0  0  0
 13 17  1  0  0  0  0
 13 14  1  0  0  0  0
 14 15  2  0  0  0  0
 14 36  1  0  0  0  0
 15 16  1  0  0  0  0
 15 37  1  0  0  0  0
 16 17  2  0  0  0  0
 16 38  1  0  0  0  0
 18 39  1  0  0  0  0
 18 40  1  0  0  0  0
M  CHG  1  10   1
M  END
> <s_m_source_file>
AV-unprocessed.smi

> <i_m_source_file_index>
3327

> <i_lp_mmshare_version>
43012

> <i_f3d_flags>
0

> <s_epik_input>
W0NIM11bQ0BASF0xW0NIMl1bQ0gyXVtDSDJdTihbQ0gyXTEpQyg9TylbQ0gyXVtOSF1bQ0gyXVtDSDJdbjJbY0hdW2NIXVtjSF1uMg==

> <s_epik_cmdline>
J2VwaWtfcHl0aG9uJywgJy1waCcsICc3LjAnLCAnLXRuJywgJzgnLCAnLW1hJywgJzIwMCcsICctbWV0YWxfYmluZGluZycsICctaW1hZScsICc8aW5maWxlLm1hZT4nLCAnLW9tYWUnLCAnPG91dGZpbGUubWFlPic=

> <r_lp_tautomer_probability>
1

> <r_epik_Ionization_Penalty>
0.195801

> <r_epik_Ionization_Penalty_Charging>
0.195799

> <r_epik_Ionization_Penalty_Neutral>
2.33113e-06

> <r_epik_State_Penalty>
0.185548

> <r_epik_Charging_Adjusted_Penalty>
0.381347

> <i_epik_Tot_Q>
1

> <i_epik_Tot_abs_Q>
1

> <r_epik_Metal_State_Penalty>
0.186014

> <b_epik_Metal_Only>
0

> <s_lp_Force_Field>
OPLS_2005

> <r_lp_Energy>
21.4811

> <b_lp_Chiralities_Consistent>
1

> <s_lp_Variant>
AV-unprocessed.smi:3327-2

> <Gold.Version>
5.8.1

> <Gold.Id.Protein>
6NUR|6NUR_protein|mol2

> <Gold.PLP.Fitness>
51.2843

> <Gold.PLP.PLP>
-43.8134

> <Gold.PLP.part.hbond>
-1.0000

> <Gold.PLP.part.metal>
0.0000

> <Gold.PLP.part.buried>
-1.7518

> <Gold.PLP.part.nonpolar>
-40.3025

> <Gold.PLP.part.repulsive>
0.2766

> <Gold.PLP.ligand.clash>
0.0000

> <Gold.PLP.ligand.torsion>
0.4501

> <Gold.PLP.Chemscore.Hbond>
0.7800

> <Gold.PLP.Chemscore.CHOScore>
2.0000

> <Gold.PLP.Chemscore.Metal>
0.0000

> <Gold.Chemscore.Hbonds>
donor molecule, donor type, donor heavy atom, donor atom, acceptor molecule, acceptor atom, score
      P1  H  7997  8008       L1     8  0.87
      L1  C    14    36       P1  8028  1.00
      L1  C    16    38       P1 10175  1.00

> <Gold.PLP.Chemscore.Internal.Correction>
0.0311

> <Gold.Rescore>
     Score         DG    S(hbond)    S(metal)    S(lipo)     H(rot)  DE(clash)    DE(int)     intcor
     12.69     -15.74       0.70        0.00     106.90       1.80       0.23       2.82       ----

> <Gold.Chemscore.Fitness>
12.6934

> <Gold.Chemscore.DG>
-15.7416

> <Gold.Chemscore.ZeroCoef>
-5.4800

> <Gold.Chemscore.Hbond>
0.7045

> <Gold.Chemscore.Metal>
0.0000

> <Gold.Chemscore.Lipo>
106.8993

> <Gold.Chemscore.Internal_Hbond>
0.0000

> <Gold.Chemscore.DEClash>
0.2291

> <Gold.Chemscore.DEInternal>
2.8192

> <Gold.Chemscore.Rot>
1.7963

> <Gold.Chemscore.Internal.Correction>
   9.000000E+99

> <Gold.Chemscore.Hbonds>
donor molecule, donor type, donor heavy atom, donor atom, acceptor molecule, acceptor atom, score
      P1  H  7997  8008       L1     8  0.79

> <Gold.Chemscore.Hbond.Weighted>
-2.3529

> <Gold.Chemscore.Metal.Weighted>
-0.0000

> <Gold.Chemscore.Lipo.Weighted>
-12.5072

> <Gold.Chemscore.Internal_Hbond.Weighted>
0.0000

> <Gold.Chemscore.DEClash.Weighted>
0.2291

> <Gold.Chemscore.DEInternal.Weighted>
2.8192

> <Gold.Chemscore.Rot.Weighted>
4.5985

> <Gold.Chemscore.Internal.Correction.Weighted>
   9.000000E+99

> <Gold.Protein.RotatedTorsions>
[ 6907 6896 6895 6894 ] final -148.86 input  -60.11 | X-H torsion
[ 7974 7965 7964 7962 ] final  -62.53 input  175.53 | X-H torsion
[ 8008 7997 7996 7995 ] final  -74.18 input   59.86 | X-H torsion
[ 10167 10162 10161 10158 ] final   57.65 input  -65.29 | X-H torsion
[ 10718 10713 10712 10709 ] final -175.54 input   66.30 | X-H torsion
[ 10763 10752 10751 10750 ] final -178.06 input  -60.55 | X-H torsion
[ 11005 11000 10999 10996 ] final   99.88 input  -57.11 | X-H torsion

> <Gold.Protein.ActiveResidues>
 VAL166  LYS551  ARG553  GLY616  TRP617  ASP618  TYR619  PRO620  LYS621  CYS622 
 ASP623  PHE694  ASN695  SER759  ASP760  ASP761  ALA762  ILE779  LEU786  VAL792 
 PHE793  MET794  SER795  GLU796  ALA797  LYS798  CYS799  TRP800  GLU811  SER814 

> <Gold.Protein.RotatedAtoms>
  151.1759  133.4755  159.2593 H   0  0  0  0  0  0  0  0  0  0  0  0  # atno 6907 bound_to 6896
  151.1308  135.0129  159.8592 H   0  0  0  0  0  0  0  0  0  0  0  0  # atno 6908 bound_to 6896
  152.5460  134.1662  159.8631 H   0  0  0  0  0  0  0  0  0  0  0  0  # atno 6909 bound_to 6896
  145.7901  140.8714  143.0285 H   0  0  0  0  0  0  0  0  0  0  0  0  # atno 7974 bound_to 7965
  154.5309  140.0766  156.8343 H   0  0  0  0  0  0  0  0  0  0  0  0  # atno 8008 bound_to 7997
  155.3377  140.3405  155.4221 H   0  0  0  0  0  0  0  0  0  0  0  0  # atno 8009 bound_to 7997
  156.1780  140.1642  156.8314 H   0  0  0  0  0  0  0  0  0  0  0  0  # atno 8010 bound_to 7997
  140.1957  144.4039  150.6551 H   0  0  0  0  0  0  0  0  0  0  0  0  # atno 10167 bound_to 10162
  156.8014  130.9553  151.3118 H   0  0  0  0  0  0  0  0  0  0  0  0  # atno 10718 bound_to 10713
  154.5524  135.2814  155.0996 H   0  0  0  0  0  0  0  0  0  0  0  0  # atno 10763 bound_to 10752
  154.2437  135.6352  153.5219 H   0  0  0  0  0  0  0  0  0  0  0  0  # atno 10764 bound_to 10752
  153.0006  135.5566  154.6094 H   0  0  0  0  0  0  0  0  0  0  0  0  # atno 10765 bound_to 10752
  139.8770  134.9115  156.4672 H   0  0  0  0  0  0  0  0  0  0  0  0  # atno 11005 bound_to 11000
  144.6783  140.0112  143.7484 LP  0  0  0  0  0  0  0  0  0  0  0  0  # atno 17320 bound_to 7965
  145.9985  139.3072  143.0942 LP  0  0  0  0  0  0  0  0  0  0  0  0  # atno 17321 bound_to 7965
  140.6425  143.2206  151.6259 LP  0  0  0  0  0  0  0  0  0  0  0  0  # atno 17342 bound_to 10162
  139.5237  144.3124  152.0981 LP  0  0  0  0  0  0  0  0  0  0  0  0  # atno 17343 bound_to 10162
  157.6552  130.8918  149.9714 LP  0  0  0  0  0  0  0  0  0  0  0  0  # atno 17370 bound_to 10713
  156.1099  130.3650  150.0068 LP  0  0  0  0  0  0  0  0  0  0  0  0  # atno 17371 bound_to 10713
  140.8821  133.7910  155.9478 LP  0  0  0  0  0  0  0  0  0  0  0  0  # atno 17394 bound_to 11000
  140.8843  134.2573  157.5128 LP  0  0  0  0  0  0  0  0  0  0  0  0  # atno 17395 bound_to 11000

$$$$
