AV-unprocessed.smi:1046|AV-procd|sdf|4559|dock7
  -GOLD-   22720 3 03D 1   1.00000     0.00000
 Structure written by MMmdl.
 54 56  0  0  0  0  0  0  0  0  3 V2000
  152.9636  143.0256  161.3408 C   0  0  0  0  0  0  0  0  0  0  0  0
  152.4077  142.4041  160.0707 C   0  0  0  0  0  0  0  0  0  0  0  0
  151.4478  143.1293  159.3293 C   0  0  0  0  0  0  0  0  0  0  0  0
  150.9608  142.5363  158.1704 C   0  0  0  0  0  0  0  0  0  0  0  0
  150.0270  142.9878  157.2353 N   0  3  0  0  0  0  0  0  0  0  0  0
  149.8735  142.0524  156.2578 C   0  0  0  0  0  0  0  0  0  0  0  0
  150.6941  141.0086  156.5553 N   0  0  0  0  0  0  0  0  0  0  0  0
  150.9091  139.7471  155.8318 C   0  0  0  0  0  0  0  0  0  0  0  0
  149.8711  139.5176  154.7149 C   0  0  1  0  0  0  0  0  0  0  0  0
  150.4594  138.8737  153.6022 O   0  0  0  0  0  0  0  0  0  0  0  0
  148.5928  138.7486  155.1185 C   0  0  0  0  0  0  0  0  0  0  0  0
  147.4962  138.7496  154.1389 N   0  0  0  0  0  0  0  0  0  0  0  0
  146.1592  138.5568  154.7150 C   0  0  0  0  0  0  0  0  0  0  0  0
  145.6425  139.7745  155.5120 C   0  0  0  0  0  0  0  0  0  0  0  0
  145.6626  140.9978  154.6705 N   0  3  0  0  0  0  0  0  0  0  0  0
  145.1190  142.1841  155.3789 C   0  0  0  0  0  0  0  0  0  0  0  0
  143.8976  141.8442  156.2501 C   0  0  0  0  0  0  0  0  0  0  0  0
  142.9233  141.1776  155.4760 O   0  0  0  0  0  0  0  0  0  0  0  0
  147.0173  141.2131  154.0990 C   0  0  0  0  0  0  0  0  0  0  0  0
  147.4662  139.9618  153.3201 C   0  0  0  0  0  0  0  0  0  0  0  0
  151.3933  141.2666  157.7410 C   0  0  0  0  0  0  0  0  0  0  0  0
  152.3384  140.5389  158.4606 C   0  0  0  0  0  0  0  0  0  0  0  0
  152.8489  141.1260  159.6403 C   0  0  0  0  0  0  0  0  0  0  0  0
  153.8868  140.3574  160.4404 C   0  0  0  0  0  0  0  0  0  0  0  0
  152.4653  143.9665  161.5752 H   0  0  0  0  0  0  0  0  0  0  0  0
  154.0287  143.2297  161.2301 H   0  0  0  0  0  0  0  0  0  0  0  0
  152.8247  142.3573  162.1908 H   0  0  0  0  0  0  0  0  0  0  0  0
  151.1096  144.1039  159.6491 H   0  0  0  0  0  0  0  0  0  0  0  0
  149.2183  142.1263  155.4018 H   0  0  0  0  0  0  0  0  0  0  0  0
  151.9263  139.7418  155.4411 H   0  0  0  0  0  0  0  0  0  0  0  0
  150.8483  138.9438  156.5669 H   0  0  0  0  0  0  0  0  0  0  0  0
  149.5491  140.4974  154.3594 H   0  0  0  0  0  0  0  0  0  0  0  0
  150.0254  139.1712  152.8173 H   0  0  0  0  0  0  0  0  0  0  0  0
  148.8586  137.7276  155.3894 H   0  0  0  0  0  0  0  0  0  0  0  0
  148.2420  139.1996  156.0480 H   0  0  0  0  0  0  0  0  0  0  0  0
  145.4573  138.3486  153.9061 H   0  0  0  0  0  0  0  0  0  0  0  0
  146.1314  137.6774  155.3530 H   0  0  0  0  0  0  0  0  0  0  0  0
  144.6210  139.5781  155.8398 H   0  0  0  0  0  0  0  0  0  0  0  0
  146.2322  139.9356  156.4148 H   0  0  0  0  0  0  0  0  0  0  0  0
  145.8893  142.6155  156.0204 H   0  0  0  0  0  0  0  0  0  0  0  0
  144.8629  142.9554  154.6512 H   0  0  0  0  0  0  0  0  0  0  0  0
  144.1985  141.1816  157.0620 H   0  0  0  0  0  0  0  0  0  0  0  0
  143.4603  142.7283  156.7125 H   0  0  0  0  0  0  0  0  0  0  0  0
  143.3554  140.7415  154.7566 H   0  0  0  0  0  0  0  0  0  0  0  0
  147.0099  142.0663  153.4220 H   0  0  0  0  0  0  0  0  0  0  0  0
  147.7262  141.4474  154.8946 H   0  0  0  0  0  0  0  0  0  0  0  0
  148.4473  140.1331  152.8755 H   0  0  0  0  0  0  0  0  0  0  0  0
  146.7875  139.8070  152.4801 H   0  0  0  0  0  0  0  0  0  0  0  0
  152.6799  139.5689  158.1308 H   0  0  0  0  0  0  0  0  0  0  0  0
  154.1529  139.4195  159.9521 H   0  0  0  0  0  0  0  0  0  0  0  0
  153.5045  140.1202  161.4334 H   0  0  0  0  0  0  0  0  0  0  0  0
  154.7987  140.9445  160.5506 H   0  0  0  0  0  0  0  0  0  0  0  0
  145.0388  140.8174  153.8965 H   0  0  0  0  0  0  0  0  0  0  0  0
  149.5302  143.8691  157.2598 H   0  0  0  0  0  0  0  0  0  0  0  0
  1  2  1  0  0  0  0
  1 25  1  0  0  0  0
  1 26  1  0  0  0  0
  1 27  1  0  0  0  0
  2 23  1  0  0  0  0
  2  3  2  0  0  0  0
  3  4  1  0  0  0  0
  3 28  1  0  0  0  0
  4 21  2  0  0  0  0
  4  5  1  0  0  0  0
  5  6  2  0  0  0  0
  5 54  1  0  0  0  0
  6  7  1  0  0  0  0
  6 29  1  0  0  0  0
  7  8  1  0  0  0  0
  7 21  1  0  0  0  0
  8  9  1  0  0  0  0
  8 30  1  0  0  0  0
  8 31  1  0  0  0  0
  9 10  1  0  0  0  0
  9 11  1  0  0  0  0
  9 32  1  0  0  0  0
 10 33  1  0  0  0  0
 11 12  1  0  0  0  0
 11 34  1  0  0  0  0
 11 35  1  0  0  0  0
 12 20  1  0  0  0  0
 12 13  1  0  0  0  0
 13 14  1  0  0  0  0
 13 36  1  0  0  0  0
 13 37  1  0  0  0  0
 14 15  1  0  0  0  0
 14 38  1  0  0  0  0
 14 39  1  0  0  0  0
 15 16  1  0  0  0  0
 15 19  1  0  0  0  0
 15 53  1  0  0  0  0
 16 17  1  0  0  0  0
 16 40  1  0  0  0  0
 16 41  1  0  0  0  0
 17 18  1  0  0  0  0
 17 42  1  0  0  0  0
 17 43  1  0  0  0  0
 18 44  1  0  0  0  0
 19 20  1  0  0  0  0
 19 45  1  0  0  0  0
 19 46  1  0  0  0  0
 20 47  1  0  0  0  0
 20 48  1  0  0  0  0
 21 22  1  0  0  0  0
 22 23  2  0  0  0  0
 22 49  1  0  0  0  0
 23 24  1  0  0  0  0
 24 50  1  0  0  0  0
 24 51  1  0  0  0  0
 24 52  1  0  0  0  0
M  CHG  1   5   1
M  CHG  1  15   1
M  END
> <s_m_source_file>
AV-unprocessed.smi

> <i_m_source_file_index>
1046

> <i_lp_mmshare_version>
43012

> <i_f3d_flags>
0

> <s_epik_input>
W0NIM11jKFtjSF0xKWMoW0NIM10pW2NIXWMoYzEyKW4oW2NIXW4yKVtDSDJdW0NASF0oW09IXSlbQ0gyXU4zW0NIMl1bQ0gyXU4oW0NIMl1bQ0gyXTMpW0NIMl1bQ0gyXVtPSF0=

> <s_epik_cmdline>
J2VwaWtfcHl0aG9uJywgJy1waCcsICc3LjAnLCAnLXRuJywgJzgnLCAnLW1hJywgJzIwMCcsICctbWV0YWxfYmluZGluZycsICctaW1hZScsICc8aW5maWxlLm1hZT4nLCAnLW9tYWUnLCAnPG91dGZpbGUubWFlPic=

> <r_epik_Ionization_Penalty>
1.37806

> <r_epik_Ionization_Penalty_Charging>
1.32954

> <r_epik_Ionization_Penalty_Neutral>
0.0485178

> <r_epik_State_Penalty>
2.26587

> <r_epik_Charging_Adjusted_Penalty>
3.59541

> <i_epik_Tot_Q>
2

> <i_epik_Tot_abs_Q>
2

> <r_epik_Metal_State_Penalty>
6.27317

> <b_epik_Metal_Only>
0

> <s_lp_Force_Field>
OPLS_2005

> <r_lp_Energy>
47.9713

> <b_lp_Chiralities_Consistent>
1

> <s_lp_Variant>
AV-unprocessed.smi:1046-12

> <Gold.Version>
5.8.1

> <Gold.Id.Protein>
6NUR|6NUR_protein|mol2

> <Gold.PLP.Fitness>
54.9122

> <Gold.PLP.PLP>
-40.8311

> <Gold.PLP.part.hbond>
-5.1778

> <Gold.PLP.part.metal>
0.0000

> <Gold.PLP.part.buried>
0.6887

> <Gold.PLP.part.nonpolar>
-36.6976

> <Gold.PLP.part.repulsive>
0.1765

> <Gold.PLP.ligand.clash>
0.0000

> <Gold.PLP.ligand.torsion>
1.0684

> <Gold.PLP.Chemscore.Hbond>
5.1200

> <Gold.PLP.Chemscore.CHOScore>
0.2587

> <Gold.PLP.Chemscore.Metal>
0.0000

> <Gold.Chemscore.Hbonds>
donor molecule, donor type, donor heavy atom, donor atom, acceptor molecule, acceptor atom, score
      L1  H     5    54       P1  8028  0.93
      L1  H    10    33       P1  7957  1.00
      L1  H    15    53       P1 10175  2.00
      L1  H    18    44       P1 10175  0.37
      P1  H  7989  7998       L1    10  0.01
      L1  C     6    29       P1  8028  0.22

> <Gold.PLP.Chemscore.Internal.Correction>
0.0819

> <Gold.Rescore>
     Score         DG    S(hbond)    S(metal)    S(lipo)     H(rot)  DE(clash)    DE(int)     intcor
     19.20     -21.14       3.58        0.00     103.65       3.29       0.06       1.88       ----

> <Gold.Chemscore.Fitness>
19.1964

> <Gold.Chemscore.DG>
-21.1357

> <Gold.Chemscore.ZeroCoef>
-5.4800

> <Gold.Chemscore.Hbond>
3.5779

> <Gold.Chemscore.Metal>
0.0000

> <Gold.Chemscore.Lipo>
103.6494

> <Gold.Chemscore.Internal_Hbond>
0.0000

> <Gold.Chemscore.DEClash>
0.0589

> <Gold.Chemscore.DEInternal>
1.8805

> <Gold.Chemscore.Rot>
3.2896

> <Gold.Chemscore.Internal.Correction>
   9.000000E+99

> <Gold.Chemscore.Hbonds>
donor molecule, donor type, donor heavy atom, donor atom, acceptor molecule, acceptor atom, score
      L1  H     5    54       P1  8028  0.28
      L1  H    10    33       P1  7957  0.88
      L1  H    15    53       P1 10175  0.92
      L1  H    18    44       P1 10175  0.35

> <Gold.Chemscore.Hbond.Weighted>
-11.9502

> <Gold.Chemscore.Metal.Weighted>
-0.0000

> <Gold.Chemscore.Lipo.Weighted>
-12.1270

> <Gold.Chemscore.Internal_Hbond.Weighted>
0.0000

> <Gold.Chemscore.DEClash.Weighted>
0.0589

> <Gold.Chemscore.DEInternal.Weighted>
1.8805

> <Gold.Chemscore.Rot.Weighted>
8.4215

> <Gold.Chemscore.Internal.Correction.Weighted>
   9.000000E+99

> <Gold.Protein.RotatedTorsions>
[ 6907 6896 6895 6894 ] final -109.81 input  -60.11 | X-H torsion
[ 7974 7965 7964 7962 ] final  -96.63 input  175.53 | X-H torsion
[ 8008 7997 7996 7995 ] final  120.74 input   59.86 | X-H torsion
[ 10167 10162 10161 10158 ] final   28.82 input  -65.29 | X-H torsion
[ 10718 10713 10712 10709 ] final  174.37 input   66.30 | X-H torsion
[ 10763 10752 10751 10750 ] final  138.11 input  -60.55 | X-H torsion
[ 11005 11000 10999 10996 ] final  -94.61 input  -57.11 | X-H torsion

> <Gold.Protein.ActiveResidues>
 VAL166  LYS551  ARG553  GLY616  TRP617  ASP618  TYR619  PRO620  LYS621  CYS622 
 ASP623  PHE694  ASN695  SER759  ASP760  ASP761  ALA762  ILE779  LEU786  VAL792 
 PHE793  MET794  SER795  GLU796  ALA797  LYS798  CYS799  TRP800  GLU811  SER814 

> <Gold.Protein.RotatedAtoms>
  150.7585  133.9475  159.3475 H   0  0  0  0  0  0  0  0  0  0  0  0  # atno 6907 bound_to 6896
  151.7389  135.0856  160.0322 H   0  0  0  0  0  0  0  0  0  0  0  0  # atno 6908 bound_to 6896
  152.3541  133.6178  159.6002 H   0  0  0  0  0  0  0  0  0  0  0  0  # atno 6909 bound_to 6896
  145.3443  140.9465  143.2590 H   0  0  0  0  0  0  0  0  0  0  0  0  # atno 7974 bound_to 7965
  156.2656  140.2824  156.1197 H   0  0  0  0  0  0  0  0  0  0  0  0  # atno 8008 bound_to 7997
  155.1168  140.0391  157.2757 H   0  0  0  0  0  0  0  0  0  0  0  0  # atno 8009 bound_to 7997
  154.6700  140.2586  155.7023 H   0  0  0  0  0  0  0  0  0  0  0  0  # atno 8010 bound_to 7997
  140.4820  144.0601  150.6268 H   0  0  0  0  0  0  0  0  0  0  0  0  # atno 10167 bound_to 10162
  156.9506  131.0030  151.2949 H   0  0  0  0  0  0  0  0  0  0  0  0  # atno 10718 bound_to 10713
  153.8842  135.3040  155.3446 H   0  0  0  0  0  0  0  0  0  0  0  0  # atno 10763 bound_to 10752
  154.7747  135.4867  153.9723 H   0  0  0  0  0  0  0  0  0  0  0  0  # atno 10764 bound_to 10752
  153.1334  135.6809  153.9239 H   0  0  0  0  0  0  0  0  0  0  0  0  # atno 10765 bound_to 10752
  141.1465  133.7968  157.0321 H   0  0  0  0  0  0  0  0  0  0  0  0  # atno 11005 bound_to 11000
  144.8766  139.4963  143.6743 LP  0  0  0  0  0  0  0  0  0  0  0  0  # atno 17320 bound_to 7965
  146.2994  139.7379  142.9102 LP  0  0  0  0  0  0  0  0  0  0  0  0  # atno 17321 bound_to 7965
  140.3846  143.2784  152.0131 LP  0  0  0  0  0  0  0  0  0  0  0  0  # atno 17342 bound_to 10162
  139.4835  144.6127  151.7404 LP  0  0  0  0  0  0  0  0  0  0  0  0  # atno 17343 bound_to 10162
  157.5724  130.8320  149.8410 LP  0  0  0  0  0  0  0  0  0  0  0  0  # atno 17370 bound_to 10713
  156.0364  130.3750  150.1548 LP  0  0  0  0  0  0  0  0  0  0  0  0  # atno 17371 bound_to 10713
  140.0747  134.9682  157.1526 LP  0  0  0  0  0  0  0  0  0  0  0  0  # atno 17394 bound_to 11000
  140.3661  134.2441  155.7182 LP  0  0  0  0  0  0  0  0  0  0  0  0  # atno 17395 bound_to 11000

$$$$
