AV-unprocessed.smi:148|AV-procd|sdf|1226|dock10
  -GOLD-   2262018423D 1   1.00000     0.00000
 Structure written by MMmdl.
 63 67  0  0  0  0  0  0  0  0  1 V2000
  148.0201  132.8735  159.5217 O   0  0  0  0  0  0  0  0  0  0  0  0
  147.4214  133.1445  160.7725 C   0  0  0  0  0  0  0  0  0  0  0  0
  147.0186  134.6346  160.8956 C   0  0  2  0  0  0  0  0  0  0  0  0
  148.2422  135.5838  160.9313 C   0  0  0  0  0  0  0  0  0  0  0  0
  148.1603  136.6634  159.9626 N   0  0  0  0  0  0  0  0  0  0  0  0
  147.1652  137.6106  159.8710 C   0  0  0  0  0  0  0  0  0  0  0  0
  147.3149  138.4858  158.9138 N   0  0  0  0  0  0  0  0  0  0  0  0
  148.5079  138.1159  158.3070 C   0  0  0  0  0  0  0  0  0  0  0  0
  149.2656  138.6340  157.2245 C   0  0  0  0  0  0  0  0  0  0  0  0
  148.8644  139.7186  156.5266 N   0  0  0  0  0  0  0  0  0  0  0  0
  148.1563  139.2971  155.3153 C   0  0  0  0  0  0  0  0  0  0  0  0
  147.4376  140.4735  154.6481 C   0  0  0  0  0  0  0  0  0  0  0  0
  148.4391  141.5909  154.3535 C   0  0  0  0  0  0  0  0  0  0  0  0
  149.1574  142.0007  155.6456 C   0  0  0  0  0  0  0  0  0  0  0  0
  149.8513  140.8055  156.3546 C   0  0  1  0  0  0  0  0  0  0  0  0
  150.5142  141.2775  157.6971 C   0  0  2  0  0  0  0  0  0  0  0  0
  151.2373  142.6361  157.6278 C   0  0  0  0  0  0  0  0  0  0  0  0
  152.1512  142.7051  158.8557 C   0  0  0  0  0  0  0  0  0  0  0  0
  152.3134  141.2628  159.3480 C   0  0  0  0  0  0  0  0  0  0  0  0
  151.6082  140.3757  158.3157 C   0  0  2  0  0  0  0  0  0  0  0  0
  152.5518  139.9691  157.3421 O   0  0  0  0  0  0  0  0  0  0  0  0
  150.4235  138.0027  156.8941 N   0  0  0  0  0  0  0  0  0  0  0  0
  150.8189  136.9321  157.5900 C   0  0  0  0  0  0  0  0  0  0  0  0
  150.2196  136.3424  158.6272 N   0  0  0  0  0  0  0  0  0  0  0  0
  149.0555  136.9740  158.9543 C   0  0  0  0  0  0  0  0  0  0  0  0
  146.0659  134.8853  162.0917 C   0  0  1  0  0  0  0  0  0  0  0  0
  145.3094  136.2011  162.0433 C   0  0  0  0  0  0  0  0  0  0  0  0
  144.1769  135.9525  163.0323 C   0  0  0  0  0  0  0  0  0  0  0  0
  143.8613  134.5711  162.9064 O   0  0  0  0  0  0  0  0  0  0  0  0
  144.8999  133.8963  162.2023 C   0  0  0  0  0  0  0  0  0  0  0  0
  147.3568  132.9304  158.8509 H   0  0  0  0  0  0  0  0  0  0  0  0
  146.5564  132.4927  160.8946 H   0  0  0  0  0  0  0  0  0  0  0  0
  148.1196  132.8646  161.5611 H   0  0  0  0  0  0  0  0  0  0  0  0
  146.4622  134.8754  159.9886 H   0  0  0  0  0  0  0  0  0  0  0  0
  148.3479  136.0372  161.9170 H   0  0  0  0  0  0  0  0  0  0  0  0
  149.1598  135.0218  160.7527 H   0  0  0  0  0  0  0  0  0  0  0  0
  146.3172  137.6296  160.5404 H   0  0  0  0  0  0  0  0  0  0  0  0
  148.8655  138.8588  154.6113 H   0  0  0  0  0  0  0  0  0  0  0  0
  147.4291  138.5205  155.5589 H   0  0  0  0  0  0  0  0  0  0  0  0
  146.9563  140.1452  153.7267 H   0  0  0  0  0  0  0  0  0  0  0  0
  146.6471  140.8442  155.3019 H   0  0  0  0  0  0  0  0  0  0  0  0
  149.1684  141.2516  153.6166 H   0  0  0  0  0  0  0  0  0  0  0  0
  147.9282  142.4496  153.9176 H   0  0  0  0  0  0  0  0  0  0  0  0
  149.8808  142.7740  155.3896 H   0  0  0  0  0  0  0  0  0  0  0  0
  148.4384  142.4613  156.3249 H   0  0  0  0  0  0  0  0  0  0  0  0
  150.6296  140.4428  155.6825 H   0  0  0  0  0  0  0  0  0  0  0  0
  149.7200  141.3881  158.4379 H   0  0  0  0  0  0  0  0  0  0  0  0
  151.8505  142.6833  156.7264 H   0  0  0  0  0  0  0  0  0  0  0  0
  150.5450  143.4783  157.5995 H   0  0  0  0  0  0  0  0  0  0  0  0
  153.1118  143.1536  158.6001 H   0  0  0  0  0  0  0  0  0  0  0  0
  151.7012  143.3188  159.6372 H   0  0  0  0  0  0  0  0  0  0  0  0
  153.3581  140.9872  159.4994 H   0  0  0  0  0  0  0  0  0  0  0  0
  151.8141  141.1588  160.3122 H   0  0  0  0  0  0  0  0  0  0  0  0
  151.2106  139.4898  158.8062 H   0  0  0  0  0  0  0  0  0  0  0  0
  152.0868  139.5546  156.6309 H   0  0  0  0  0  0  0  0  0  0  0  0
  151.7496  136.4859  157.2723 H   0  0  0  0  0  0  0  0  0  0  0  0
  146.6341  134.8557  163.0231 H   0  0  0  0  0  0  0  0  0  0  0  0
  145.9203  137.0609  162.3196 H   0  0  0  0  0  0  0  0  0  0  0  0
  144.9038  136.3743  161.0452 H   0  0  0  0  0  0  0  0  0  0  0  0
  144.5155  136.1401  164.0521 H   0  0  0  0  0  0  0  0  0  0  0  0
  143.3076  136.5823  162.8417 H   0  0  0  0  0  0  0  0  0  0  0  0
  144.5217  133.6295  161.2145 H   0  0  0  0  0  0  0  0  0  0  0  0
  145.1837  132.9759  162.7134 H   0  0  0  0  0  0  0  0  0  0  0  0
  1  2  1  0  0  0  0
  1 31  1  0  0  0  0
  2  3  1  0  0  0  0
  2 32  1  0  0  0  0
  2 33  1  0  0  0  0
  3  4  1  0  0  0  0
  3 26  1  0  0  0  0
  3 34  1  0  0  0  0
  4  5  1  0  0  0  0
  4 35  1  0  0  0  0
  4 36  1  0  0  0  0
  5 25  1  0  0  0  0
  5  6  1  0  0  0  0
  6  7  2  0  0  0  0
  6 37  1  0  0  0  0
  7  8  1  0  0  0  0
  8 25  2  0  0  0  0
  8  9  1  0  0  0  0
  9 10  1  0  0  0  0
  9 22  2  0  0  0  0
 10 15  1  0  0  0  0
 10 11  1  0  0  0  0
 11 12  1  0  0  0  0
 11 38  1  0  0  0  0
 11 39  1  0  0  0  0
 12 13  1  0  0  0  0
 12 40  1  0  0  0  0
 12 41  1  0  0  0  0
 13 14  1  0  0  0  0
 13 42  1  0  0  0  0
 13 43  1  0  0  0  0
 14 15  1  0  0  0  0
 14 44  1  0  0  0  0
 14 45  1  0  0  0  0
 15 16  1  0  0  0  0
 15 46  1  0  0  0  0
 16 20  1  0  0  0  0
 16 17  1  0  0  0  0
 16 47  1  0  0  0  0
 17 18  1  0  0  0  0
 17 48  1  0  0  0  0
 17 49  1  0  0  0  0
 18 19  1  0  0  0  0
 18 50  1  0  0  0  0
 18 51  1  0  0  0  0
 19 20  1  0  0  0  0
 19 52  1  0  0  0  0
 19 53  1  0  0  0  0
 20 21  1  0  0  0  0
 20 54  1  0  0  0  0
 21 55  1  0  0  0  0
 22 23  1  0  0  0  0
 23 24  2  0  0  0  0
 23 56  1  0  0  0  0
 24 25  1  0  0  0  0
 26 30  1  0  0  0  0
 26 27  1  0  0  0  0
 26 57  1  0  0  0  0
 27 28  1  0  0  0  0
 27 58  1  0  0  0  0
 27 59  1  0  0  0  0
 28 29  1  0  0  0  0
 28 60  1  0  0  0  0
 28 61  1  0  0  0  0
 29 30  1  0  0  0  0
 30 62  1  0  0  0  0
 30 63  1  0  0  0  0
M  END
> <s_m_source_file>
AV-unprocessed.smi

> <i_m_source_file_index>
148

> <i_lp_mmshare_version>
43012

> <i_f3d_flags>
0

> <s_epik_input>
W0NIMl0xT1tDSDJdW0NIMl1bQ0BIXTFbQ0BIXShbQ0gyXVtPSF0pW0NIMl1uKFtjSF1uMiljKGMyMyluW2NIXW5jM040W0NIMl1bQ0gyXVtDSDJdW0NIMl1bQ0BIXTRbQ0BASF01W0NIMl1bQ0gyXVtDSDJdW0NASF01W09IXQ==

> <s_epik_cmdline>
J2VwaWtfcHl0aG9uJywgJy1waCcsICc3LjAnLCAnLXRuJywgJzgnLCAnLW1hJywgJzIwMCcsICctbWV0YWxfYmluZGluZycsICctaW1hZScsICc8aW5maWxlLm1hZT4nLCAnLW9tYWUnLCAnPG91dGZpbGUubWFlPic=

> <r_lp_tautomer_probability>
1

> <r_epik_Ionization_Penalty>
0.00556303

> <r_epik_Ionization_Penalty_Charging>
0

> <r_epik_Ionization_Penalty_Neutral>
0.00556303

> <r_epik_State_Penalty>
0.00401767

> <r_epik_Charging_Adjusted_Penalty>
0.00401767

> <i_epik_Tot_Q>
0

> <i_epik_Tot_abs_Q>
0

> <r_epik_Metal_State_Penalty>
-0

> <b_epik_Metal_Only>
0

> <s_lp_Force_Field>
OPLS_2005

> <r_lp_Energy>
70.5735

> <b_lp_Chiralities_Consistent>
1

> <s_lp_Variant>
AV-unprocessed.smi:148-25

> <Gold.Version>
5.8.1

> <Gold.Id.Protein>
6NUR|6NUR_protein|mol2

> <Gold.PLP.Fitness>
42.5885

> <Gold.PLP.PLP>
-39.1214

> <Gold.PLP.part.hbond>
-3.0000

> <Gold.PLP.part.metal>
0.0000

> <Gold.PLP.part.buried>
-2.7908

> <Gold.PLP.part.nonpolar>
-33.2780

> <Gold.PLP.part.repulsive>
0.0893

> <Gold.PLP.ligand.clash>
0.0000

> <Gold.PLP.ligand.torsion>
1.5801

> <Gold.PLP.Chemscore.Hbond>
1.9920

> <Gold.PLP.Chemscore.CHOScore>
0.0000

> <Gold.PLP.Chemscore.Metal>
0.0000

> <Gold.Chemscore.Hbonds>
donor molecule, donor type, donor heavy atom, donor atom, acceptor molecule, acceptor atom, score
      P1  H  6896  6908       L1    24  1.00
      P1  H  7997  8008       L1    21  1.00

> <Gold.PLP.Chemscore.Internal.Correction>
0.6512

> <Gold.Rescore>
     Score         DG    S(hbond)    S(metal)    S(lipo)     H(rot)  DE(clash)    DE(int)     intcor
     13.34     -16.05       1.83        0.00     110.64       3.32       0.96       1.75       ----

> <Gold.Chemscore.Fitness>
13.3408

> <Gold.Chemscore.DG>
-16.0480

> <Gold.Chemscore.ZeroCoef>
-5.4800

> <Gold.Chemscore.Hbond>
1.8332

> <Gold.Chemscore.Metal>
0.0000

> <Gold.Chemscore.Lipo>
110.6411

> <Gold.Chemscore.Internal_Hbond>
0.0000

> <Gold.Chemscore.DEClash>
0.9611

> <Gold.Chemscore.DEInternal>
1.7461

> <Gold.Chemscore.Rot>
3.3203

> <Gold.Chemscore.Internal.Correction>
   9.000000E+99

> <Gold.Chemscore.Hbonds>
donor molecule, donor type, donor heavy atom, donor atom, acceptor molecule, acceptor atom, score
      P1  H  6896  6908       L1    24  0.93
      P1  H  7997  8008       L1    21  0.58

> <Gold.Chemscore.Hbond.Weighted>
-6.1230

> <Gold.Chemscore.Metal.Weighted>
-0.0000

> <Gold.Chemscore.Lipo.Weighted>
-12.9450

> <Gold.Chemscore.Internal_Hbond.Weighted>
0.0000

> <Gold.Chemscore.DEClash.Weighted>
0.9611

> <Gold.Chemscore.DEInternal.Weighted>
1.7461

> <Gold.Chemscore.Rot.Weighted>
8.5000

> <Gold.Chemscore.Internal.Correction.Weighted>
   9.000000E+99

> <Gold.Protein.RotatedTorsions>
[ 6907 6896 6895 6894 ] final -174.85 input  -60.11 | X-H torsion
[ 7974 7965 7964 7962 ] final  -17.74 input  175.53 | X-H torsion
[ 8008 7997 7996 7995 ] final  -72.21 input   59.86 | X-H torsion
[ 10167 10162 10161 10158 ] final  -57.51 input  -65.29 | X-H torsion
[ 10718 10713 10712 10709 ] final   50.14 input   66.30 | X-H torsion
[ 10763 10752 10751 10750 ] final  -48.73 input  -60.55 | X-H torsion
[ 11005 11000 10999 10996 ] final -102.77 input  -57.11 | X-H torsion

> <Gold.Protein.ActiveResidues>
 VAL166  LYS551  ARG553  GLY616  TRP617  ASP618  TYR619  PRO620  LYS621  CYS622 
 ASP623  PHE694  ASN695  SER759  ASP760  ASP761  ALA762  ILE779  LEU786  VAL792 
 PHE793  MET794  SER795  GLU796  ALA797  LYS798  CYS799  TRP800  GLU811  SER814 

> <Gold.Protein.RotatedAtoms>
  151.5790  133.3380  159.3004 H   0  0  0  0  0  0  0  0  0  0  0  0  # atno 6907 bound_to 6896
  150.8324  134.7586  159.6876 H   0  0  0  0  0  0  0  0  0  0  0  0  # atno 6908 bound_to 6896
  152.4405  134.5606  159.9944 H   0  0  0  0  0  0  0  0  0  0  0  0  # atno 6909 bound_to 6896
  146.1926  140.3821  142.8452 H   0  0  0  0  0  0  0  0  0  0  0  0  # atno 7974 bound_to 7965
  154.5148  140.0801  156.8060 H   0  0  0  0  0  0  0  0  0  0  0  0  # atno 8008 bound_to 7997
  155.3704  140.3422  155.4225 H   0  0  0  0  0  0  0  0  0  0  0  0  # atno 8009 bound_to 7997
  156.1615  140.1590  156.8591 H   0  0  0  0  0  0  0  0  0  0  0  0  # atno 8010 bound_to 7997
  140.6253  143.2436  151.5378 H   0  0  0  0  0  0  0  0  0  0  0  0  # atno 10167 bound_to 10162
  157.4856  130.8343  149.8143 H   0  0  0  0  0  0  0  0  0  0  0  0  # atno 10718 bound_to 10713
  154.0826  135.6589  153.4840 H   0  0  0  0  0  0  0  0  0  0  0  0  # atno 10763 bound_to 10752
  153.0350  135.5183  154.7459 H   0  0  0  0  0  0  0  0  0  0  0  0  # atno 10764 bound_to 10752
  154.6559  135.3008  154.9897 H   0  0  0  0  0  0  0  0  0  0  0  0  # atno 10765 bound_to 10752
  141.1175  133.8586  157.1402 H   0  0  0  0  0  0  0  0  0  0  0  0  # atno 11005 bound_to 11000
  144.8517  140.7011  143.6164 LP  0  0  0  0  0  0  0  0  0  0  0  0  # atno 17320 bound_to 7965
  145.3743  139.1651  143.4315 LP  0  0  0  0  0  0  0  0  0  0  0  0  # atno 17321 bound_to 7965
  139.5475  144.2483  152.1469 LP  0  0  0  0  0  0  0  0  0  0  0  0  # atno 17342 bound_to 10162
  140.1713  144.4933  150.6578 LP  0  0  0  0  0  0  0  0  0  0  0  0  # atno 17343 bound_to 10162
  156.0145  130.3819  150.2156 LP  0  0  0  0  0  0  0  0  0  0  0  0  # atno 17370 bound_to 10713
  157.0344  131.0017  151.3302 LP  0  0  0  0  0  0  0  0  0  0  0  0  # atno 17371 bound_to 10713
  140.0107  134.9989  157.0388 LP  0  0  0  0  0  0  0  0  0  0  0  0  # atno 17394 bound_to 11000
  140.4605  134.1489  155.7191 LP  0  0  0  0  0  0  0  0  0  0  0  0  # atno 17395 bound_to 11000

$$$$
