AV-unprocessed.smi:2069|AV-procd|sdf|8432|dock8
  -GOLD-   2272011133D 1   1.00000     0.00000
 Structure written by MMmdl.
 38 39  0  0  0  0  0  0  0  0  1 V2000
  143.6552  132.3271  149.5771 C   0  0  0  0  0  0  0  0  0  0  0  0
  144.6569  133.1720  150.2877 C   0  0  0  0  0  0  0  0  0  0  0  0
  145.8025  132.6821  150.7771 N   0  0  0  0  0  0  0  0  0  0  0  0
  146.5716  133.6589  151.3941 N   0  0  0  0  0  0  0  0  0  0  0  0
  145.9817  134.8615  151.3502 C   0  0  0  0  0  0  0  0  0  0  0  0
  146.5483  136.0396  151.9049 N   0  0  0  0  0  0  0  0  0  0  0  0
  145.9320  137.0177  152.5918 C   0  0  0  0  0  0  0  0  0  0  0  0
  144.7303  137.0516  152.8574 O   0  0  0  0  0  0  0  0  0  0  0  0
  146.8004  137.9735  152.9551 N   0  0  0  0  0  0  0  0  0  0  0  0
  146.4730  139.1784  153.7149 C   0  0  0  0  0  0  0  0  0  0  0  0
  147.5515  140.2912  153.5849 C   0  0  1  0  0  0  0  0  0  0  0  0
  146.8781  141.6735  153.7801 C   0  0  0  0  0  0  0  0  0  0  0  0
  148.7096  140.0875  154.4872 N   0  0  0  0  0  0  0  0  0  0  0  0
  149.6857  139.1295  153.9541 C   0  0  0  0  0  0  0  0  0  0  0  0
  150.9024  138.9388  154.8766 C   0  0  0  0  0  0  0  0  0  0  0  0
  151.5275  140.1925  155.1118 O   0  0  0  0  0  0  0  0  0  0  0  0
  150.6371  141.1270  155.7051 C   0  0  0  0  0  0  0  0  0  0  0  0
  149.4201  141.3365  154.7875 C   0  0  0  0  0  0  0  0  0  0  0  0
  144.4231  134.8971  150.5427 S   0  0  0  0  0  0  0  0  0  0  0  0
  143.8462  131.2691  149.7601 H   0  0  0  0  0  0  0  0  0  0  0  0
  143.7067  132.5119  148.5042 H   0  0  0  0  0  0  0  0  0  0  0  0
  142.6502  132.5643  149.9264 H   0  0  0  0  0  0  0  0  0  0  0  0
  147.5411  136.1503  151.7618 H   0  0  0  0  0  0  0  0  0  0  0  0
  147.7671  137.8602  152.6876 H   0  0  0  0  0  0  0  0  0  0  0  0
  145.4946  139.5747  153.4377 H   0  0  0  0  0  0  0  0  0  0  0  0
  146.3827  138.8339  154.7432 H   0  0  0  0  0  0  0  0  0  0  0  0
  147.9180  140.2603  152.5576 H   0  0  0  0  0  0  0  0  0  0  0  0
  146.0072  141.8064  153.1398 H   0  0  0  0  0  0  0  0  0  0  0  0
  147.5411  142.4984  153.5236 H   0  0  0  0  0  0  0  0  0  0  0  0
  146.5508  141.8097  154.8113 H   0  0  0  0  0  0  0  0  0  0  0  0
  149.2332  138.1483  153.8259 H   0  0  0  0  0  0  0  0  0  0  0  0
  150.0248  139.4553  152.9695 H   0  0  0  0  0  0  0  0  0  0  0  0
  150.6014  138.4895  155.8243 H   0  0  0  0  0  0  0  0  0  0  0  0
  151.6235  138.2627  154.4170 H   0  0  0  0  0  0  0  0  0  0  0  0
  150.3239  140.7712  156.6877 H   0  0  0  0  0  0  0  0  0  0  0  0
  151.1615  142.0702  155.8590 H   0  0  0  0  0  0  0  0  0  0  0  0
  149.7444  141.8107  153.8599 H   0  0  0  0  0  0  0  0  0  0  0  0
  148.7620  142.0419  155.2912 H   0  0  0  0  0  0  0  0  0  0  0  0
  1  2  1  0  0  0  0
  1 20  1  0  0  0  0
  1 21  1  0  0  0  0
  1 22  1  0  0  0  0
  2 19  1  0  0  0  0
  2  3  2  0  0  0  0
  3  4  1  0  0  0  0
  4  5  2  0  0  0  0
  5  6  1  0  0  0  0
  5 19  1  0  0  0  0
  6  7  1  0  0  0  0
  6 23  1  0  0  0  0
  7  8  2  0  0  0  0
  7  9  1  0  0  0  0
  9 10  1  0  0  0  0
  9 24  1  0  0  0  0
 10 11  1  0  0  0  0
 10 25  1  0  0  0  0
 10 26  1  0  0  0  0
 11 12  1  0  0  0  0
 11 13  1  0  0  0  0
 11 27  1  0  0  0  0
 12 28  1  0  0  0  0
 12 29  1  0  0  0  0
 12 30  1  0  0  0  0
 13 18  1  0  0  0  0
 13 14  1  0  0  0  0
 14 15  1  0  0  0  0
 14 31  1  0  0  0  0
 14 32  1  0  0  0  0
 15 16  1  0  0  0  0
 15 33  1  0  0  0  0
 15 34  1  0  0  0  0
 16 17  1  0  0  0  0
 17 18  1  0  0  0  0
 17 35  1  0  0  0  0
 17 36  1  0  0  0  0
 18 37  1  0  0  0  0
 18 38  1  0  0  0  0
M  END
> <s_m_source_file>
AV-unprocessed.smi

> <i_m_source_file_index>
2069

> <i_lp_mmshare_version>
43012

> <i_f3d_flags>
0

> <s_epik_input>
W0NIM11jMW5uYyhzMSlbTkhdQyg9TylbTkhdW0NIMl1bQ0BIXShbQ0gzXSlOMltDSDJdW0NIMl1PW0NIMl1bQ0gyXTI=

> <s_epik_cmdline>
J2VwaWtfcHl0aG9uJywgJy1waCcsICc3LjAnLCAnLXRuJywgJzgnLCAnLW1hJywgJzIwMCcsICctbWV0YWxfYmluZGluZycsICctaW1hZScsICc8aW5maWxlLm1hZT4nLCAnLW9tYWUnLCAnPG91dGZpbGUubWFlPic=

> <r_lp_tautomer_probability>
1

> <r_epik_Ionization_Penalty>
0.221104

> <r_epik_Ionization_Penalty_Charging>
0

> <r_epik_Ionization_Penalty_Neutral>
0.221104

> <r_epik_State_Penalty>
0.209349

> <r_epik_Charging_Adjusted_Penalty>
0.209349

> <i_epik_Tot_Q>
0

> <i_epik_Tot_abs_Q>
0

> <r_epik_Metal_State_Penalty>
0.561068

> <b_epik_Metal_Only>
0

> <s_lp_Force_Field>
OPLS_2005

> <r_lp_Energy>
28.2693

> <b_lp_Chiralities_Consistent>
1

> <s_lp_Variant>
AV-unprocessed.smi:2069-2

> <Gold.Version>
5.8.1

> <Gold.Id.Protein>
6NUR|6NUR_protein|mol2

> <Gold.PLP.Fitness>
37.4970

> <Gold.PLP.PLP>
-33.3295

> <Gold.PLP.part.hbond>
-2.6732

> <Gold.PLP.part.metal>
0.0000

> <Gold.PLP.part.buried>
-2.4872

> <Gold.PLP.part.nonpolar>
-29.0807

> <Gold.PLP.part.repulsive>
0.7750

> <Gold.PLP.ligand.clash>
0.0000

> <Gold.PLP.ligand.torsion>
1.2672

> <Gold.PLP.Chemscore.Hbond>
2.2246

> <Gold.PLP.Chemscore.CHOScore>
0.0000

> <Gold.PLP.Chemscore.Metal>
0.0000

> <Gold.Chemscore.Hbonds>
donor molecule, donor type, donor heavy atom, donor atom, acceptor molecule, acceptor atom, score
      L1  H     6    23       P1  7948  0.65
      L1  H     9    24       P1  7948  0.47
      P1  H  7989  7998       L1    16  1.00

> <Gold.PLP.Chemscore.Internal.Correction>
0.0282

> <Gold.Rescore>
     Score         DG    S(hbond)    S(metal)    S(lipo)     H(rot)  DE(clash)    DE(int)     intcor
     15.15     -16.57       1.93        0.00      74.70       1.60       0.21       1.20       ----

> <Gold.Chemscore.Fitness>
15.1537

> <Gold.Chemscore.DG>
-16.5695

> <Gold.Chemscore.ZeroCoef>
-5.4800

> <Gold.Chemscore.Hbond>
1.9310

> <Gold.Chemscore.Metal>
0.0000

> <Gold.Chemscore.Lipo>
74.7019

> <Gold.Chemscore.Internal_Hbond>
0.0000

> <Gold.Chemscore.DEClash>
0.2111

> <Gold.Chemscore.DEInternal>
1.2047

> <Gold.Chemscore.Rot>
1.6016

> <Gold.Chemscore.Internal.Correction>
   9.000000E+99

> <Gold.Chemscore.Hbonds>
donor molecule, donor type, donor heavy atom, donor atom, acceptor molecule, acceptor atom, score
      L1  H     6    23       P1  7948  0.65
      L1  H     9    24       P1  7948  0.48
      P1  H  7989  7998       L1    16  0.10

> <Gold.Chemscore.Hbond.Weighted>
-6.4495

> <Gold.Chemscore.Metal.Weighted>
-0.0000

> <Gold.Chemscore.Lipo.Weighted>
-8.7401

> <Gold.Chemscore.Internal_Hbond.Weighted>
0.0000

> <Gold.Chemscore.DEClash.Weighted>
0.2111

> <Gold.Chemscore.DEInternal.Weighted>
1.2047

> <Gold.Chemscore.Rot.Weighted>
4.1001

> <Gold.Chemscore.Internal.Correction.Weighted>
   9.000000E+99

> <Gold.Protein.RotatedTorsions>
[ 6907 6896 6895 6894 ] final  179.59 input  -60.11 | X-H torsion
[ 7974 7965 7964 7962 ] final   77.20 input  175.53 | X-H torsion
[ 8008 7997 7996 7995 ] final -153.72 input   59.86 | X-H torsion
[ 10167 10162 10161 10158 ] final  146.21 input  -65.29 | X-H torsion
[ 10718 10713 10712 10709 ] final   81.38 input   66.30 | X-H torsion
[ 10763 10752 10751 10750 ] final  -10.39 input  -60.55 | X-H torsion
[ 11005 11000 10999 10996 ] final  150.72 input  -57.11 | X-H torsion

> <Gold.Protein.ActiveResidues>
 VAL166  LYS551  ARG553  GLY616  TRP617  ASP618  TYR619  PRO620  LYS621  CYS622 
 ASP623  PHE694  ASN695  SER759  ASP760  ASP761  ALA762  ILE779  LEU786  VAL792 
 PHE793  MET794  SER795  GLU796  ALA797  LYS798  CYS799  TRP800  GLU811  SER814 

> <Gold.Protein.RotatedAtoms>
  151.6692  133.3314  159.3192 H   0  0  0  0  0  0  0  0  0  0  0  0  # atno 6907 bound_to 6896
  150.7876  134.6877  159.6489 H   0  0  0  0  0  0  0  0  0  0  0  0  # atno 6908 bound_to 6896
  152.3949  134.6385  160.0145 H   0  0  0  0  0  0  0  0  0  0  0  0  # atno 6909 bound_to 6896
  145.6931  139.2558  143.1748 H   0  0  0  0  0  0  0  0  0  0  0  0  # atno 7974 bound_to 7965
  155.6752  140.0738  157.2505 H   0  0  0  0  0  0  0  0  0  0  0  0  # atno 8008 bound_to 7997
  154.4116  140.1692  156.1974 H   0  0  0  0  0  0  0  0  0  0  0  0  # atno 8009 bound_to 7997
  155.9582  140.3372  155.6470 H   0  0  0  0  0  0  0  0  0  0  0  0  # atno 8010 bound_to 7997
  139.4911  144.5846  151.6804 H   0  0  0  0  0  0  0  0  0  0  0  0  # atno 10167 bound_to 10162
  157.6831  131.0001  150.2219 H   0  0  0  0  0  0  0  0  0  0  0  0  # atno 10718 bound_to 10713
  153.4685  135.7016  153.6007 H   0  0  0  0  0  0  0  0  0  0  0  0  # atno 10763 bound_to 10752
  153.4271  135.3811  155.2148 H   0  0  0  0  0  0  0  0  0  0  0  0  # atno 10764 bound_to 10752
  154.8726  135.3942  154.4120 H   0  0  0  0  0  0  0  0  0  0  0  0  # atno 10765 bound_to 10752
  140.1156  134.8896  157.1999 H   0  0  0  0  0  0  0  0  0  0  0  0  # atno 11005 bound_to 11000
  146.0864  140.7705  142.9616 LP  0  0  0  0  0  0  0  0  0  0  0  0  # atno 17320 bound_to 7965
  144.6991  140.3569  143.7171 LP  0  0  0  0  0  0  0  0  0  0  0  0  # atno 17321 bound_to 7965
  140.5459  144.0504  150.6107 LP  0  0  0  0  0  0  0  0  0  0  0  0  # atno 17342 bound_to 10162
  140.3542  143.2945  152.0454 LP  0  0  0  0  0  0  0  0  0  0  0  0  # atno 17343 bound_to 10162
  156.2868  130.3740  149.7880 LP  0  0  0  0  0  0  0  0  0  0  0  0  # atno 17370 bound_to 10713
  156.5552  130.8359  151.3312 LP  0  0  0  0  0  0  0  0  0  0  0  0  # atno 17371 bound_to 10713
  140.3033  134.3107  155.7284 LP  0  0  0  0  0  0  0  0  0  0  0  0  # atno 17394 bound_to 11000
  141.2140  133.7605  156.9671 LP  0  0  0  0  0  0  0  0  0  0  0  0  # atno 17395 bound_to 11000

$$$$
