AV-unprocessed.smi:3056|AV-procd|sdf|11656|dock9
  -GOLD-   2272017 53D 1   1.00000     0.00000
 Structure written by MMmdl.
 47 48  0  0  0  0  0  0  0  0  1 V2000
  147.1987  140.3186  153.5209 C   0  0  0  0  0  0  0  0  0  0  0  0
  148.5465  140.1036  154.1469 C   0  0  0  0  0  0  0  0  0  0  0  0
  149.3702  141.0606  154.8035 C   0  0  0  0  0  0  0  0  0  0  0  0
  150.5098  140.5472  155.2365 N   0  0  0  0  0  0  0  0  0  0  0  0
  150.4514  139.2427  154.8913 N   0  0  0  0  0  0  0  0  0  0  0  0
  151.5847  138.3699  155.1856 C   0  0  1  0  0  0  0  0  0  0  0  0
  152.8649  138.8511  154.4701 C   0  0  0  0  0  0  0  0  0  0  0  0
  151.7533  138.1515  156.7137 C   0  0  1  0  0  0  0  0  0  0  0  0
  152.5804  136.8913  157.0388 C   0  0  0  0  0  0  0  0  0  0  0  0
  152.3395  139.3508  157.3071 N   0  0  0  0  0  0  0  0  0  0  0  0
  152.3222  139.3721  158.7751 C   0  0  0  0  0  0  0  0  0  0  0  0
  152.0228  140.7813  159.3002 C   0  0  0  0  0  0  0  0  0  0  0  0
  150.9119  141.2567  159.0647 O   0  0  0  0  0  0  0  0  0  0  0  0
  152.9747  141.4635  159.9837 N   0  0  0  0  0  0  0  0  0  0  0  0
  154.2509  140.8690  160.3861 C   0  0  0  0  0  0  0  0  0  0  0  0
  154.2435  140.7289  161.9200 C   0  0  0  0  0  0  0  0  0  0  0  0
  154.0217  142.0031  162.5244 O   0  0  0  0  0  0  0  0  0  0  0  0
  152.8055  142.6265  162.1110 C   0  0  1  0  0  0  0  0  0  0  0  0
  152.6712  143.9671  162.8401 C   0  0  0  0  0  0  0  0  0  0  0  0
  152.8308  142.7951  160.5786 C   0  0  0  0  0  0  0  0  0  0  0  0
  149.2791  138.9535  154.2191 C   0  0  0  0  0  0  0  0  0  0  0  0
  147.0244  141.3686  153.2856 H   0  0  0  0  0  0  0  0  0  0  0  0
  146.3933  139.9991  154.1823 H   0  0  0  0  0  0  0  0  0  0  0  0
  147.0925  139.7601  152.5907 H   0  0  0  0  0  0  0  0  0  0  0  0
  149.1771  142.1102  154.9708 H   0  0  0  0  0  0  0  0  0  0  0  0
  151.3445  137.3982  154.7498 H   0  0  0  0  0  0  0  0  0  0  0  0
  153.6659  138.1163  154.5487 H   0  0  0  0  0  0  0  0  0  0  0  0
  153.2375  139.7884  154.8839 H   0  0  0  0  0  0  0  0  0  0  0  0
  152.6804  139.0094  153.4073 H   0  0  0  0  0  0  0  0  0  0  0  0
  150.7559  138.0193  157.1362 H   0  0  0  0  0  0  0  0  0  0  0  0
  152.2205  136.0331  156.4708 H   0  0  0  0  0  0  0  0  0  0  0  0
  152.5099  136.6211  158.0922 H   0  0  0  0  0  0  0  0  0  0  0  0
  153.6359  137.0276  156.8014 H   0  0  0  0  0  0  0  0  0  0  0  0
  151.8440  140.1500  156.9378 H   0  0  0  0  0  0  0  0  0  0  0  0
  151.5544  138.6868  159.1380 H   0  0  0  0  0  0  0  0  0  0  0  0
  153.2707  139.0298  159.1877 H   0  0  0  0  0  0  0  0  0  0  0  0
  154.4322  139.8972  159.9253 H   0  0  0  0  0  0  0  0  0  0  0  0
  155.0723  141.5129  160.0687 H   0  0  0  0  0  0  0  0  0  0  0  0
  153.4708  140.0281  162.2405 H   0  0  0  0  0  0  0  0  0  0  0  0
  155.1978  140.3334  162.2681 H   0  0  0  0  0  0  0  0  0  0  0  0
  151.9664  141.9907  162.3992 H   0  0  0  0  0  0  0  0  0  0  0  0
  151.7438  144.4702  162.5648 H   0  0  0  0  0  0  0  0  0  0  0  0
  153.4996  144.6334  162.5980 H   0  0  0  0  0  0  0  0  0  0  0  0
  152.6627  143.8237  163.9208 H   0  0  0  0  0  0  0  0  0  0  0  0
  153.6773  143.4163  160.2818 H   0  0  0  0  0  0  0  0  0  0  0  0
  151.9453  143.3312  160.2419 H   0  0  0  0  0  0  0  0  0  0  0  0
  149.0644  137.9634  153.8446 H   0  0  0  0  0  0  0  0  0  0  0  0
  1  2  1  0  0  0  0
  1 22  1  0  0  0  0
  1 23  1  0  0  0  0
  1 24  1  0  0  0  0
  2 21  2  0  0  0  0
  2  3  1  0  0  0  0
  3  4  2  0  0  0  0
  3 25  1  0  0  0  0
  4  5  1  0  0  0  0
  5  6  1  0  0  0  0
  5 21  1  0  0  0  0
  6  7  1  0  0  0  0
  6  8  1  0  0  0  0
  6 26  1  0  0  0  0
  7 27  1  0  0  0  0
  7 28  1  0  0  0  0
  7 29  1  0  0  0  0
  8  9  1  0  0  0  0
  8 10  1  0  0  0  0
  8 30  1  0  0  0  0
  9 31  1  0  0  0  0
  9 32  1  0  0  0  0
  9 33  1  0  0  0  0
 10 11  1  0  0  0  0
 10 34  1  0  0  0  0
 11 12  1  0  0  0  0
 11 35  1  0  0  0  0
 11 36  1  0  0  0  0
 12 13  2  0  0  0  0
 12 14  1  0  0  0  0
 14 20  1  0  0  0  0
 14 15  1  0  0  0  0
 15 16  1  0  0  0  0
 15 37  1  0  0  0  0
 15 38  1  0  0  0  0
 16 17  1  0  0  0  0
 16 39  1  0  0  0  0
 16 40  1  0  0  0  0
 17 18  1  0  0  0  0
 18 19  1  0  0  0  0
 18 20  1  0  0  0  0
 18 41  1  0  0  0  0
 19 42  1  0  0  0  0
 19 43  1  0  0  0  0
 19 44  1  0  0  0  0
 20 45  1  0  0  0  0
 20 46  1  0  0  0  0
 21 47  1  0  0  0  0
M  END
> <s_m_source_file>
AV-unprocessed.smi

> <i_m_source_file_index>
3056

> <i_lp_mmshare_version>
43012

> <i_f3d_flags>
0

> <s_epik_input>
W0NIM11jMVtjSF1ubihbY0hdMSlbQ0BIXShbQ0gzXSlbQ0BIXShbQ0gzXSlbTkhdW0NIMl1DKD1PKU4yW0NIMl1bQ0gyXU9bQ0BASF0oW0NIM10pW0NIMl0y

> <s_epik_cmdline>
J2VwaWtfcHl0aG9uJywgJy1waCcsICc3LjAnLCAnLXRuJywgJzgnLCAnLW1hJywgJzIwMCcsICctbWV0YWxfYmluZGluZycsICctaW1hZScsICc8aW5maWxlLm1hZT4nLCAnLW9tYWUnLCAnPG91dGZpbGUubWFlPic=

> <r_lp_tautomer_probability>
1

> <r_epik_Ionization_Penalty>
0.667689

> <r_epik_Ionization_Penalty_Charging>
0

> <r_epik_Ionization_Penalty_Neutral>
0.667689

> <r_epik_State_Penalty>
0.684601

> <r_epik_Charging_Adjusted_Penalty>
0.684601

> <i_epik_Tot_Q>
0

> <i_epik_Tot_abs_Q>
0

> <r_epik_Metal_State_Penalty>
0.681448

> <b_epik_Metal_Only>
0

> <s_lp_Force_Field>
OPLS_2005

> <r_lp_Energy>
30.7947

> <b_lp_Chiralities_Consistent>
1

> <s_lp_Variant>
AV-unprocessed.smi:3056-12

> <Gold.Version>
5.8.1

> <Gold.Id.Protein>
6NUR|6NUR_protein|mol2

> <Gold.PLP.Fitness>
51.3085

> <Gold.PLP.PLP>
-45.4171

> <Gold.PLP.part.hbond>
-2.5919

> <Gold.PLP.part.metal>
0.0000

> <Gold.PLP.part.buried>
-0.7131

> <Gold.PLP.part.nonpolar>
-39.9253

> <Gold.PLP.part.repulsive>
0.0819

> <Gold.PLP.ligand.clash>
0.0000

> <Gold.PLP.ligand.torsion>
0.6132

> <Gold.PLP.Chemscore.Hbond>
0.8611

> <Gold.PLP.Chemscore.CHOScore>
1.4487

> <Gold.PLP.Chemscore.Metal>
0.0000

> <Gold.Chemscore.Hbonds>
donor molecule, donor type, donor heavy atom, donor atom, acceptor molecule, acceptor atom, score
      P1  H  7989  7998       L1     4  0.28
      P1  H  7997  8008       L1    10  0.33
      L1  C     3    25       P1  8028  0.56
      L1  C    21    47       P1  7948  0.79

> <Gold.PLP.Chemscore.Internal.Correction>
0.1884

> <Gold.Rescore>
     Score         DG    S(hbond)    S(metal)    S(lipo)     H(rot)  DE(clash)    DE(int)     intcor
     13.48     -14.71       0.02        0.00     115.18       1.68       0.64       0.59       ----

> <Gold.Chemscore.Fitness>
13.4760

> <Gold.Chemscore.DG>
-14.7104

> <Gold.Chemscore.ZeroCoef>
-5.4800

> <Gold.Chemscore.Hbond>
0.0161

> <Gold.Chemscore.Metal>
0.0000

> <Gold.Chemscore.Lipo>
115.1770

> <Gold.Chemscore.Internal_Hbond>
0.0000

> <Gold.Chemscore.DEClash>
0.6396

> <Gold.Chemscore.DEInternal>
0.5948

> <Gold.Chemscore.Rot>
1.6793

> <Gold.Chemscore.Internal.Correction>
   9.000000E+99

> <Gold.Chemscore.Hbonds>
donor molecule, donor type, donor heavy atom, donor atom, acceptor molecule, acceptor atom, score
      P1  H  7997  8008       L1    10  0.02

> <Gold.Chemscore.Hbond.Weighted>
-0.0537

> <Gold.Chemscore.Metal.Weighted>
-0.0000

> <Gold.Chemscore.Lipo.Weighted>
-13.4757

> <Gold.Chemscore.Internal_Hbond.Weighted>
0.0000

> <Gold.Chemscore.DEClash.Weighted>
0.6396

> <Gold.Chemscore.DEInternal.Weighted>
0.5948

> <Gold.Chemscore.Rot.Weighted>
4.2990

> <Gold.Chemscore.Internal.Correction.Weighted>
   9.000000E+99

> <Gold.Protein.RotatedTorsions>
[ 6907 6896 6895 6894 ] final   32.83 input  -60.11 | X-H torsion
[ 7974 7965 7964 7962 ] final -121.93 input  175.53 | X-H torsion
[ 8008 7997 7996 7995 ] final  -67.66 input   59.86 | X-H torsion
[ 10167 10162 10161 10158 ] final -159.42 input  -65.29 | X-H torsion
[ 10718 10713 10712 10709 ] final   63.59 input   66.30 | X-H torsion
[ 10763 10752 10751 10750 ] final -162.73 input  -60.55 | X-H torsion
[ 11005 11000 10999 10996 ] final   18.46 input  -57.11 | X-H torsion

> <Gold.Protein.ActiveResidues>
 VAL166  LYS551  ARG553  GLY616  TRP617  ASP618  TYR619  PRO620  LYS621  CYS622 
 ASP623  PHE694  ASN695  SER759  ASP760  ASP761  ALA762  ILE779  LEU786  VAL792 
 PHE793  MET794  SER795  GLU796  ALA797  LYS798  CYS799  TRP800  GLU811  SER814 

> <Gold.Protein.RotatedAtoms>
  152.0799  134.9478  160.0573 H   0  0  0  0  0  0  0  0  0  0  0  0  # atno 6907 bound_to 6896
  152.0770  133.4129  159.4492 H   0  0  0  0  0  0  0  0  0  0  0  0  # atno 6908 bound_to 6896
  150.6836  134.2945  159.4724 H   0  0  0  0  0  0  0  0  0  0  0  0  # atno 6909 bound_to 6896
  145.0350  140.8098  143.4300 H   0  0  0  0  0  0  0  0  0  0  0  0  # atno 7974 bound_to 7965
  154.4815  140.0888  156.7388 H   0  0  0  0  0  0  0  0  0  0  0  0  # atno 8008 bound_to 7997
  155.4458  140.3455  155.4277 H   0  0  0  0  0  0  0  0  0  0  0  0  # atno 8009 bound_to 7997
  156.1198  140.1471  156.9209 H   0  0  0  0  0  0  0  0  0  0  0  0  # atno 8010 bound_to 7997
  139.6616  143.9902  152.2229 H   0  0  0  0  0  0  0  0  0  0  0  0  # atno 10167 bound_to 10162
  157.5982  130.9114  149.9736 H   0  0  0  0  0  0  0  0  0  0  0  0  # atno 10718 bound_to 10713
  154.7188  135.3021  154.9081 H   0  0  0  0  0  0  0  0  0  0  0  0  # atno 10763 bound_to 10752
  153.9959  135.6713  153.4760 H   0  0  0  0  0  0  0  0  0  0  0  0  # atno 10764 bound_to 10752
  153.0816  135.5006  154.8430 H   0  0  0  0  0  0  0  0  0  0  0  0  # atno 10765 bound_to 10752
  140.4246  134.1483  155.7675 H   0  0  0  0  0  0  0  0  0  0  0  0  # atno 11005 bound_to 11000
  145.1721  139.2398  143.5336 LP  0  0  0  0  0  0  0  0  0  0  0  0  # atno 17320 bound_to 7965
  146.3503  140.1474  142.8593 LP  0  0  0  0  0  0  0  0  0  0  0  0  # atno 17321 bound_to 7965
  139.9643  144.6537  150.8050 LP  0  0  0  0  0  0  0  0  0  0  0  0  # atno 17342 bound_to 10162
  140.7582  143.3103  151.2861 LP  0  0  0  0  0  0  0  0  0  0  0  0  # atno 17343 bound_to 10162
  156.1049  130.3653  150.0152 LP  0  0  0  0  0  0  0  0  0  0  0  0  # atno 17370 bound_to 10713
  156.8261  130.9376  151.3639 LP  0  0  0  0  0  0  0  0  0  0  0  0  # atno 17371 bound_to 10713
  141.1770  133.8492  157.1386 LP  0  0  0  0  0  0  0  0  0  0  0  0  # atno 17394 bound_to 11000
  140.0176  134.9960  157.0526 LP  0  0  0  0  0  0  0  0  0  0  0  0  # atno 17395 bound_to 11000

$$$$
