AV-unprocessed.smi:439|AV-procd|sdf|2579|dock8
  -GOLD-   2262022563D 1   1.00000     0.00000
 Structure written by MMmdl.
 46 47  0  0  0  0  0  0  0  0  1 V2000
  145.9001  132.0753  150.6015 C   0  0  0  0  0  0  0  0  0  0  0  0
  145.6966  131.4070  151.9677 C   0  0  0  0  0  0  0  0  0  0  0  0
  146.3917  132.1423  153.1243 C   0  0  0  0  0  0  0  0  0  0  0  0
  147.9128  131.9093  153.1717 C   0  0  0  0  0  0  0  0  0  0  0  0
  148.5304  132.5077  154.3385 N   0  0  0  0  0  0  0  0  0  0  0  0
  148.5531  133.8848  154.5806 C   0  0  0  0  0  0  0  0  0  0  0  0
  147.9550  134.7157  153.6465 N   0  0  0  0  0  0  0  0  0  0  0  0
  149.1268  134.4083  155.7057 C   0  0  0  0  0  0  0  0  0  0  0  0
  149.1739  135.8004  155.9429 N   0  0  0  0  0  0  0  0  0  0  0  0
  147.8671  136.4701  156.0795 C   0  0  0  0  0  0  0  0  0  0  0  0
  147.0864  136.0463  157.3373 C   0  0  0  0  0  0  0  0  0  0  0  0
  150.3176  136.5443  155.8530 C   0  0  0  0  0  0  0  0  0  0  0  0
  151.4281  136.0098  155.8926 O   0  0  0  0  0  0  0  0  0  0  0  0
  150.1588  137.9918  155.6770 C   0  0  0  0  0  0  0  0  0  0  0  0
  150.7817  138.5922  154.6366 C   0  0  0  0  0  0  0  0  0  0  0  0
  150.6619  139.9267  154.3394 O   0  0  0  0  0  0  0  0  0  0  0  0
  149.6321  140.6048  155.0485 C   0  0  0  0  0  0  0  0  0  0  0  0
  149.5834  140.1304  156.5072 C   0  0  0  0  0  0  0  0  0  0  0  0
  149.3873  138.7227  156.5526 O   0  0  0  0  0  0  0  0  0  0  0  0
  149.7866  133.5275  156.6822 C   0  0  0  0  0  0  0  0  0  0  0  0
  150.3515  133.8917  157.7128 O   0  0  0  0  0  0  0  0  0  0  0  0
  149.7531  132.1719  156.3679 N   0  0  0  0  0  0  0  0  0  0  0  0
  149.1630  131.6174  155.2385 C   0  0  0  0  0  0  0  0  0  0  0  0
  149.2169  130.3992  155.0668 O   0  0  0  0  0  0  0  0  0  0  0  0
  150.2035  131.5378  157.0118 H   0  0  0  0  0  0  0  0  0  0  0  0
  145.4401  131.4831  149.8102 H   0  0  0  0  0  0  0  0  0  0  0  0
  146.9599  132.1765  150.3664 H   0  0  0  0  0  0  0  0  0  0  0  0
  145.4515  133.0679  150.5684 H   0  0  0  0  0  0  0  0  0  0  0  0
  144.6306  131.3121  152.1773 H   0  0  0  0  0  0  0  0  0  0  0  0
  146.0865  130.3899  151.9165 H   0  0  0  0  0  0  0  0  0  0  0  0
  146.1984  133.2107  153.0206 H   0  0  0  0  0  0  0  0  0  0  0  0
  145.9389  131.8449  154.0707 H   0  0  0  0  0  0  0  0  0  0  0  0
  148.1625  130.8496  153.1958 H   0  0  0  0  0  0  0  0  0  0  0  0
  148.4150  132.2931  152.2821 H   0  0  0  0  0  0  0  0  0  0  0  0
  147.5144  134.3494  152.8147 H   0  0  0  0  0  0  0  0  0  0  0  0
  147.9483  135.7200  153.7524 H   0  0  0  0  0  0  0  0  0  0  0  0
  148.0115  137.5517  156.0826 H   0  0  0  0  0  0  0  0  0  0  0  0
  147.2506  136.2654  155.2026 H   0  0  0  0  0  0  0  0  0  0  0  0
  146.1190  136.5478  157.3704 H   0  0  0  0  0  0  0  0  0  0  0  0
  147.6157  136.3056  158.2540 H   0  0  0  0  0  0  0  0  0  0  0  0
  146.8966  134.9743  157.3553 H   0  0  0  0  0  0  0  0  0  0  0  0
  151.4067  138.0821  153.9174 H   0  0  0  0  0  0  0  0  0  0  0  0
  149.8141  141.6784  155.0018 H   0  0  0  0  0  0  0  0  0  0  0  0
  148.6766  140.4184  154.5565 H   0  0  0  0  0  0  0  0  0  0  0  0
  150.5101  140.3816  157.0253 H   0  0  0  0  0  0  0  0  0  0  0  0
  148.7713  140.6215  157.0433 H   0  0  0  0  0  0  0  0  0  0  0  0
  1  2  1  0  0  0  0
  1 26  1  0  0  0  0
  1 27  1  0  0  0  0
  1 28  1  0  0  0  0
  2  3  1  0  0  0  0
  2 29  1  0  0  0  0
  2 30  1  0  0  0  0
  3  4  1  0  0  0  0
  3 31  1  0  0  0  0
  3 32  1  0  0  0  0
  4  5  1  0  0  0  0
  4 33  1  0  0  0  0
  4 34  1  0  0  0  0
  5 23  1  0  0  0  0
  5  6  1  0  0  0  0
  6  7  1  0  0  0  0
  6  8  2  0  0  0  0
  7 35  1  0  0  0  0
  7 36  1  0  0  0  0
  8  9  1  0  0  0  0
  8 20  1  0  0  0  0
  9 10  1  0  0  0  0
  9 12  1  0  0  0  0
 10 11  1  0  0  0  0
 10 37  1  0  0  0  0
 10 38  1  0  0  0  0
 11 39  1  0  0  0  0
 11 40  1  0  0  0  0
 11 41  1  0  0  0  0
 12 13  2  0  0  0  0
 12 14  1  0  0  0  0
 14 19  1  0  0  0  0
 14 15  2  0  0  0  0
 15 16  1  0  0  0  0
 15 42  1  0  0  0  0
 16 17  1  0  0  0  0
 17 18  1  0  0  0  0
 17 43  1  0  0  0  0
 17 44  1  0  0  0  0
 18 19  1  0  0  0  0
 18 45  1  0  0  0  0
 18 46  1  0  0  0  0
 20 21  2  0  0  0  0
 20 22  1  0  0  0  0
 22 25  1  0  0  0  0
 22 23  1  0  0  0  0
 23 24  2  0  0  0  0
M  END
> <s_m_source_file>
AV-unprocessed.smi

> <i_m_source_file_index>
439

> <i_lp_mmshare_version>
43012

> <i_f3d_flags>
0

> <s_epik_input>
W0NIM11bQ0gyXVtDSDJdW0NIMl1uMWMoW05IMl0pYyhjKD1PKVtuSF1jMT1PKU4oW0NIMl1bQ0gzXSlDKD1PKUMyPVtDSF1PW0NIMl1bQ0gyXU8y

> <s_epik_cmdline>
J2VwaWtfcHl0aG9uJywgJy1waCcsICc3LjAnLCAnLXRuJywgJzgnLCAnLW1hJywgJzIwMCcsICctbWV0YWxfYmluZGluZycsICctaW1hZScsICc8aW5maWxlLm1hZT4nLCAnLW9tYWUnLCAnPG91dGZpbGUubWFlPic=

> <r_lp_tautomer_probability>
1

> <r_epik_Ionization_Penalty>
3.16361e-05

> <r_epik_Ionization_Penalty_Charging>
2.29435e-05

> <r_epik_Ionization_Penalty_Neutral>
8.69256e-06

> <r_epik_State_Penalty>
-0

> <r_epik_Charging_Adjusted_Penalty>
2.29435e-05

> <i_epik_Tot_Q>
0

> <i_epik_Tot_abs_Q>
0

> <r_epik_Metal_State_Penalty>
0.0222995

> <b_epik_Metal_Only>
0

> <s_epik_Chemistry_Notes>
This compound has an imine and may undergo hydrolysis.

> <s_lp_Force_Field>
OPLS_2005

> <r_lp_Energy>
28.4658

> <b_lp_Chiralities_Consistent>
1

> <s_lp_Variant>
AV-unprocessed.smi:439-1

> <Gold.Version>
5.8.1

> <Gold.Id.Protein>
6NUR|6NUR_protein|mol2

> <Gold.PLP.Fitness>
38.3481

> <Gold.PLP.PLP>
-31.9952

> <Gold.PLP.part.hbond>
-3.5373

> <Gold.PLP.part.metal>
0.0000

> <Gold.PLP.part.buried>
-4.1182

> <Gold.PLP.part.nonpolar>
-25.5219

> <Gold.PLP.part.repulsive>
0.2400

> <Gold.PLP.ligand.clash>
0.0000

> <Gold.PLP.ligand.torsion>
2.4139

> <Gold.PLP.Chemscore.Hbond>
2.6080

> <Gold.PLP.Chemscore.CHOScore>
0.0000

> <Gold.PLP.Chemscore.Metal>
0.0000

> <Gold.Chemscore.Hbonds>
donor molecule, donor type, donor heavy atom, donor atom, acceptor molecule, acceptor atom, score
      P1  H  6896  6907       L1    21  0.64
      P1  H  7989  7998       L1    16  1.00
      P1  H 10752 10764       L1    13  1.00

> <Gold.PLP.Chemscore.Internal.Correction>
3.3566

> <Gold.Rescore>
     Score         DG    S(hbond)    S(metal)    S(lipo)     H(rot)  DE(clash)    DE(int)     intcor
     11.90     -16.06       2.49        0.00      55.51       1.66       0.15       4.01       ----

> <Gold.Chemscore.Fitness>
11.9019

> <Gold.Chemscore.DG>
-16.0629

> <Gold.Chemscore.ZeroCoef>
-5.4800

> <Gold.Chemscore.Hbond>
2.4933

> <Gold.Chemscore.Metal>
0.0000

> <Gold.Chemscore.Lipo>
55.5143

> <Gold.Chemscore.Internal_Hbond>
0.0000

> <Gold.Chemscore.DEClash>
0.1534

> <Gold.Chemscore.DEInternal>
4.0075

> <Gold.Chemscore.Rot>
1.6562

> <Gold.Chemscore.Internal.Correction>
   9.000000E+99

> <Gold.Chemscore.Hbonds>
donor molecule, donor type, donor heavy atom, donor atom, acceptor molecule, acceptor atom, score
      L1  H     7    36       P1  7948  0.02
      P1  H  6896  6907       L1    21  0.64
      P1  H  7989  7998       L1    16  0.89
      P1  H 10752 10764       L1    13  0.95

> <Gold.Chemscore.Hbond.Weighted>
-8.3276

> <Gold.Chemscore.Metal.Weighted>
-0.0000

> <Gold.Chemscore.Lipo.Weighted>
-6.4952

> <Gold.Chemscore.Internal_Hbond.Weighted>
0.0000

> <Gold.Chemscore.DEClash.Weighted>
0.1534

> <Gold.Chemscore.DEInternal.Weighted>
4.0075

> <Gold.Chemscore.Rot.Weighted>
4.2398

> <Gold.Chemscore.Internal.Correction.Weighted>
   9.000000E+99

> <Gold.Protein.RotatedTorsions>
[ 6907 6896 6895 6894 ] final -144.64 input  -60.11 | X-H torsion
[ 7974 7965 7964 7962 ] final  -82.46 input  175.53 | X-H torsion
[ 8008 7997 7996 7995 ] final  128.01 input   59.86 | X-H torsion
[ 10167 10162 10161 10158 ] final  -61.34 input  -65.29 | X-H torsion
[ 10718 10713 10712 10709 ] final   32.88 input   66.30 | X-H torsion
[ 10763 10752 10751 10750 ] final  -56.74 input  -60.55 | X-H torsion
[ 11005 11000 10999 10996 ] final -129.77 input  -57.11 | X-H torsion

> <Gold.Protein.ActiveResidues>
 VAL166  LYS551  ARG553  GLY616  TRP617  ASP618  TYR619  PRO620  LYS621  CYS622 
 ASP623  PHE694  ASN695  SER759  ASP760  ASP761  ALA762  ILE779  LEU786  VAL792 
 PHE793  MET794  SER795  GLU796  ALA797  LYS798  CYS799  TRP800  GLU811  SER814 

> <Gold.Protein.RotatedAtoms>
  151.1167  133.5133  159.2603 H   0  0  0  0  0  0  0  0  0  0  0  0  # atno 6907 bound_to 6896
  151.1906  135.0400  159.8841 H   0  0  0  0  0  0  0  0  0  0  0  0  # atno 6908 bound_to 6896
  152.5453  134.1008  159.8370 H   0  0  0  0  0  0  0  0  0  0  0  0  # atno 6909 bound_to 6896
  145.5331  140.9519  143.1592 H   0  0  0  0  0  0  0  0  0  0  0  0  # atno 7974 bound_to 7965
  156.2905  140.2655  156.2366 H   0  0  0  0  0  0  0  0  0  0  0  0  # atno 8008 bound_to 7997
  155.0019  140.0387  157.2382 H   0  0  0  0  0  0  0  0  0  0  0  0  # atno 8009 bound_to 7997
  154.7594  140.2758  155.6232 H   0  0  0  0  0  0  0  0  0  0  0  0  # atno 8010 bound_to 7997
  140.6012  143.2362  151.5924 H   0  0  0  0  0  0  0  0  0  0  0  0  # atno 10167 bound_to 10162
  157.2908  130.7302  149.6610 H   0  0  0  0  0  0  0  0  0  0  0  0  # atno 10718 bound_to 10713
  154.2114  135.6394  153.5116 H   0  0  0  0  0  0  0  0  0  0  0  0  # atno 10763 bound_to 10752
  152.9989  135.5475  154.6211 H   0  0  0  0  0  0  0  0  0  0  0  0  # atno 10764 bound_to 10752
  154.5649  135.2912  155.0857 H   0  0  0  0  0  0  0  0  0  0  0  0  # atno 10765 bound_to 10752
  140.9403  134.1202  157.4156 H   0  0  0  0  0  0  0  0  0  0  0  0  # atno 11005 bound_to 11000
  144.7616  139.6944  143.7232 LP  0  0  0  0  0  0  0  0  0  0  0  0  # atno 17320 bound_to 7965
  146.2031  139.5338  142.9730 LP  0  0  0  0  0  0  0  0  0  0  0  0  # atno 17321 bound_to 7965
  139.5292  144.2966  152.1108 LP  0  0  0  0  0  0  0  0  0  0  0  0  # atno 17342 bound_to 10162
  140.2147  144.4527  150.6369 LP  0  0  0  0  0  0  0  0  0  0  0  0  # atno 17343 bound_to 10162
  155.9667  130.4309  150.4898 LP  0  0  0  0  0  0  0  0  0  0  0  0  # atno 17370 bound_to 10713
  157.2860  131.0616  151.2166 LP  0  0  0  0  0  0  0  0  0  0  0  0  # atno 17371 bound_to 10713
  139.8818  135.0034  156.6187 LP  0  0  0  0  0  0  0  0  0  0  0  0  # atno 17394 bound_to 11000
  140.7743  133.8712  155.8516 LP  0  0  0  0  0  0  0  0  0  0  0  0  # atno 17395 bound_to 11000

$$$$
