AV-unprocessed.smi:1554|AV-procd|sdf|6260|dock7
  -GOLD-   22720 6443D 1   1.00000     0.00000
 Structure written by MMmdl.
 49 51  0  0  0  0  0  0  0  0  3 V2000
  152.4607  143.5499  161.0319 C   0  0  0  0  0  0  0  0  0  0  0  0
  152.2815  142.6585  159.8148 C   0  0  0  0  0  0  0  0  0  0  0  0
  151.3797  143.0670  158.8067 C   0  0  0  0  0  0  0  0  0  0  0  0
  151.2383  142.2314  157.7051 C   0  0  0  0  0  0  0  0  0  0  0  0
  150.4437  142.3531  156.5638 N   0  3  0  0  0  0  0  0  0  0  0  0
  150.6429  141.2766  155.7549 C   0  0  0  0  0  0  0  0  0  0  0  0
  151.5480  140.4636  156.3657 N   0  0  0  0  0  0  0  0  0  0  0  0
  152.1029  139.1761  155.9142 C   0  0  0  0  0  0  0  0  0  0  0  0
  151.0308  138.1506  155.4827 C   0  0  2  0  0  0  0  0  0  0  0  0
  151.6137  136.8612  155.4771 O   0  0  0  0  0  0  0  0  0  0  0  0
  150.4368  138.4379  154.0860 C   0  0  0  0  0  0  0  0  0  0  0  0
  148.9730  138.1808  154.0150 N   0  3  1  0  0  0  0  0  0  0  0  0
  148.3603  137.7207  155.2877 C   0  0  0  0  0  0  0  0  0  0  0  0
  148.1363  138.8911  156.2656 C   0  0  0  0  0  0  0  0  0  0  0  0
  147.3745  139.9126  155.6334 O   0  0  0  0  0  0  0  0  0  0  0  0
  148.0214  140.4437  154.4822 C   0  0  2  0  0  0  0  0  0  0  0  0
  147.1642  141.5927  153.9399 C   0  0  0  0  0  0  0  0  0  0  0  0
  148.1993  139.3130  153.4480 C   0  0  0  0  0  0  0  0  0  0  0  0
  151.9547  141.0242  157.5835 C   0  0  0  0  0  0  0  0  0  0  0  0
  152.8488  140.6087  158.5685 C   0  0  0  0  0  0  0  0  0  0  0  0
  153.0062  141.4446  159.6970 C   0  0  0  0  0  0  0  0  0  0  0  0
  153.9743  141.0155  160.7864 C   0  0  0  0  0  0  0  0  0  0  0  0
  151.8525  144.4520  160.9587 H   0  0  0  0  0  0  0  0  0  0  0  0
  153.5017  143.8583  161.1317 H   0  0  0  0  0  0  0  0  0  0  0  0
  152.1667  143.0228  161.9397 H   0  0  0  0  0  0  0  0  0  0  0  0
  150.8249  143.9905  158.8890 H   0  0  0  0  0  0  0  0  0  0  0  0
  150.1643  141.0961  154.8027 H   0  0  0  0  0  0  0  0  0  0  0  0
  152.7686  139.3902  155.0769 H   0  0  0  0  0  0  0  0  0  0  0  0
  152.7373  138.7625  156.6975 H   0  0  0  0  0  0  0  0  0  0  0  0
  150.2470  138.1565  156.2392 H   0  0  0  0  0  0  0  0  0  0  0  0
  150.9395  136.2186  155.6371 H   0  0  0  0  0  0  0  0  0  0  0  0
  150.6410  139.4686  153.7975 H   0  0  0  0  0  0  0  0  0  0  0  0
  150.9507  137.8142  153.3534 H   0  0  0  0  0  0  0  0  0  0  0  0
  147.3974  137.2651  155.0526 H   0  0  0  0  0  0  0  0  0  0  0  0
  148.9577  136.9399  155.7567 H   0  0  0  0  0  0  0  0  0  0  0  0
  147.5918  138.5424  157.1432 H   0  0  0  0  0  0  0  0  0  0  0  0
  149.0813  139.2978  156.6275 H   0  0  0  0  0  0  0  0  0  0  0  0
  148.9943  140.8472  154.7686 H   0  0  0  0  0  0  0  0  0  0  0  0
  147.6232  142.0443  153.0599 H   0  0  0  0  0  0  0  0  0  0  0  0
  147.0432  142.3760  154.6887 H   0  0  0  0  0  0  0  0  0  0  0  0
  146.1697  141.2454  153.6580 H   0  0  0  0  0  0  0  0  0  0  0  0
  148.6749  139.6845  152.5396 H   0  0  0  0  0  0  0  0  0  0  0  0
  147.2200  138.9385  153.1462 H   0  0  0  0  0  0  0  0  0  0  0  0
  153.4055  139.6877  158.4835 H   0  0  0  0  0  0  0  0  0  0  0  0
  154.4230  140.0469  160.5636 H   0  0  0  0  0  0  0  0  0  0  0  0
  153.4616  140.9311  161.7447 H   0  0  0  0  0  0  0  0  0  0  0  0
  154.7816  141.7414  160.8871 H   0  0  0  0  0  0  0  0  0  0  0  0
  148.8714  137.4242  153.3537 H   0  0  0  0  0  0  0  0  0  0  0  0
  149.8130  143.1149  156.3482 H   0  0  0  0  0  0  0  0  0  0  0  0
  1  2  1  0  0  0  0
  1 23  1  0  0  0  0
  1 24  1  0  0  0  0
  1 25  1  0  0  0  0
  2 21  1  0  0  0  0
  2  3  2  0  0  0  0
  3  4  1  0  0  0  0
  3 26  1  0  0  0  0
  4 19  2  0  0  0  0
  4  5  1  0  0  0  0
  5  6  2  0  0  0  0
  5 49  1  0  0  0  0
  6  7  1  0  0  0  0
  6 27  1  0  0  0  0
  7  8  1  0  0  0  0
  7 19  1  0  0  0  0
  8  9  1  0  0  0  0
  8 28  1  0  0  0  0
  8 29  1  0  0  0  0
  9 10  1  0  0  0  0
  9 11  1  0  0  0  0
  9 30  1  0  0  0  0
 10 31  1  0  0  0  0
 11 12  1  0  0  0  0
 11 32  1  0  0  0  0
 11 33  1  0  0  0  0
 12 18  1  0  0  0  0
 12 13  1  0  0  0  0
 12 48  1  0  0  0  0
 13 14  1  0  0  0  0
 13 34  1  0  0  0  0
 13 35  1  0  0  0  0
 14 15  1  0  0  0  0
 14 36  1  0  0  0  0
 14 37  1  0  0  0  0
 15 16  1  0  0  0  0
 16 17  1  0  0  0  0
 16 18  1  0  0  0  0
 16 38  1  0  0  0  0
 17 39  1  0  0  0  0
 17 40  1  0  0  0  0
 17 41  1  0  0  0  0
 18 42  1  0  0  0  0
 18 43  1  0  0  0  0
 19 20  1  0  0  0  0
 20 21  2  0  0  0  0
 20 44  1  0  0  0  0
 21 22  1  0  0  0  0
 22 45  1  0  0  0  0
 22 46  1  0  0  0  0
 22 47  1  0  0  0  0
M  CHG  1   5   1
M  CHG  1  12   1
M  END
> <s_m_source_file>
AV-unprocessed.smi

> <i_m_source_file_index>
1554

> <i_lp_mmshare_version>
43012

> <i_f3d_flags>
0

> <s_epik_input>
W0NIM11jKFtjSF0xKWMoW0NIM10pW2NIXWMoYzEyKW4oW2NIXW4yKVtDSDJdW0NASF0oW09IXSlbQ0gyXU4zW0NIMl1bQ0gyXU9bQ0BASF0oW0NIM10pW0NIMl0z

> <s_epik_cmdline>
J2VwaWtfcHl0aG9uJywgJy1waCcsICc3LjAnLCAnLXRuJywgJzgnLCAnLW1hJywgJzIwMCcsICctbWV0YWxfYmluZGluZycsICctaW1hZScsICc8aW5maWxlLm1hZT4nLCAnLW9tYWUnLCAnPG91dGZpbGUubWFlPic=

> <r_epik_Ionization_Penalty>
1.8848

> <r_epik_Ionization_Penalty_Charging>
1.88479

> <r_epik_Ionization_Penalty_Neutral>
1.42224e-05

> <r_epik_State_Penalty>
1.94551

> <r_epik_Charging_Adjusted_Penalty>
3.8303

> <i_epik_Tot_Q>
2

> <i_epik_Tot_abs_Q>
2

> <r_epik_Metal_State_Penalty>
5.95849

> <b_epik_Metal_Only>
0

> <s_lp_Force_Field>
OPLS_2005

> <r_lp_Energy>
33.2635

> <b_lp_Chiralities_Consistent>
1

> <s_lp_Variant>
AV-unprocessed.smi:1554-21

> <Gold.Version>
5.8.1

> <Gold.Id.Protein>
6NUR|6NUR_protein|mol2

> <Gold.PLP.Fitness>
52.0466

> <Gold.PLP.PLP>
-41.7226

> <Gold.PLP.part.hbond>
-3.0000

> <Gold.PLP.part.metal>
0.0000

> <Gold.PLP.part.buried>
-3.1639

> <Gold.PLP.part.nonpolar>
-36.2466

> <Gold.PLP.part.repulsive>
0.0810

> <Gold.PLP.ligand.clash>
1.3767

> <Gold.PLP.ligand.torsion>
1.4988

> <Gold.PLP.Chemscore.Hbond>
4.8921

> <Gold.PLP.Chemscore.CHOScore>
0.0000

> <Gold.PLP.Chemscore.Metal>
0.0000

> <Gold.Chemscore.Hbonds>
donor molecule, donor type, donor heavy atom, donor atom, acceptor molecule, acceptor atom, score
      L1  H     5    49       P1  8028  2.00
      L1  H    12    48       P1  7948  2.00
      P1  H 10752 10763       L1    10  0.80

> <Gold.PLP.Chemscore.Internal.Correction>
0.0220

> <Gold.Rescore>
     Score         DG    S(hbond)    S(metal)    S(lipo)     H(rot)  DE(clash)    DE(int)     intcor
     19.90     -21.65       2.46        0.00     114.10       2.11       0.46       1.30       ----

> <Gold.Chemscore.Fitness>
19.8963

> <Gold.Chemscore.DG>
-21.6506

> <Gold.Chemscore.ZeroCoef>
-5.4800

> <Gold.Chemscore.Hbond>
2.4636

> <Gold.Chemscore.Metal>
0.0000

> <Gold.Chemscore.Lipo>
114.0966

> <Gold.Chemscore.Internal_Hbond>
0.0000

> <Gold.Chemscore.DEClash>
0.4562

> <Gold.Chemscore.DEInternal>
1.2980

> <Gold.Chemscore.Rot>
2.1122

> <Gold.Chemscore.Internal.Correction>
   9.000000E+99

> <Gold.Chemscore.Hbonds>
donor molecule, donor type, donor heavy atom, donor atom, acceptor molecule, acceptor atom, score
      L1  H     5    49       P1  8028  0.98
      L1  H    12    48       P1  7948  1.00
      P1  H 10752 10763       L1    10  0.11

> <Gold.Chemscore.Hbond.Weighted>
-8.2286

> <Gold.Chemscore.Metal.Weighted>
-0.0000

> <Gold.Chemscore.Lipo.Weighted>
-13.3493

> <Gold.Chemscore.Internal_Hbond.Weighted>
0.0000

> <Gold.Chemscore.DEClash.Weighted>
0.4562

> <Gold.Chemscore.DEInternal.Weighted>
1.2980

> <Gold.Chemscore.Rot.Weighted>
5.4073

> <Gold.Chemscore.Internal.Correction.Weighted>
   9.000000E+99

> <Gold.Protein.RotatedTorsions>
[ 6907 6896 6895 6894 ] final  -37.65 input  -60.11 | X-H torsion
[ 7974 7965 7964 7962 ] final  144.89 input  175.53 | X-H torsion
[ 8008 7997 7996 7995 ] final -121.03 input   59.86 | X-H torsion
[ 10167 10162 10161 10158 ] final  133.68 input  -65.29 | X-H torsion
[ 10718 10713 10712 10709 ] final  105.59 input   66.30 | X-H torsion
[ 10763 10752 10751 10750 ] final   63.84 input  -60.55 | X-H torsion
[ 11005 11000 10999 10996 ] final -147.70 input  -57.11 | X-H torsion

> <Gold.Protein.ActiveResidues>
 VAL166  LYS551  ARG553  GLY616  TRP617  ASP618  TYR619  PRO620  LYS621  CYS622 
 ASP623  PHE694  ASN695  SER759  ASP760  ASP761  ALA762  ILE779  LEU786  VAL792 
 PHE793  MET794  SER795  GLU796  ALA797  LYS798  CYS799  TRP800  GLU811  SER814 

> <Gold.Protein.RotatedAtoms>
  151.0121  134.9405  159.8012 H   0  0  0  0  0  0  0  0  0  0  0  0  # atno 6907 bound_to 6896
  152.5305  134.3014  159.9090 H   0  0  0  0  0  0  0  0  0  0  0  0  # atno 6908 bound_to 6896
  151.3021  133.4076  159.2674 H   0  0  0  0  0  0  0  0  0  0  0  0  # atno 6909 bound_to 6896
  144.8798  139.5717  143.5848 H   0  0  0  0  0  0  0  0  0  0  0  0  # atno 7974 bound_to 7965
  155.1413  140.0402  157.2799 H   0  0  0  0  0  0  0  0  0  0  0  0  # atno 8008 bound_to 7997
  154.6471  140.2560  155.7230 H   0  0  0  0  0  0  0  0  0  0  0  0  # atno 8009 bound_to 7997
  156.2560  140.2844  156.0889 H   0  0  0  0  0  0  0  0  0  0  0  0  # atno 8010 bound_to 7997
  139.5287  144.6604  151.5031 H   0  0  0  0  0  0  0  0  0  0  0  0  # atno 10167 bound_to 10162
  157.6700  131.0831  150.5880 H   0  0  0  0  0  0  0  0  0  0  0  0  # atno 10718 bound_to 10713
  153.0033  135.5414  154.6415 H   0  0  0  0  0  0  0  0  0  0  0  0  # atno 10763 bound_to 10752
  154.5669  135.2838  155.0867 H   0  0  0  0  0  0  0  0  0  0  0  0  # atno 10764 bound_to 10752
  154.2048  135.6477  153.5150 H   0  0  0  0  0  0  0  0  0  0  0  0  # atno 10765 bound_to 10752
  140.7690  134.3211  157.5080 H   0  0  0  0  0  0  0  0  0  0  0  0  # atno 11005 bound_to 11000
  146.2987  139.7357  142.9108 LP  0  0  0  0  0  0  0  0  0  0  0  0  # atno 17320 bound_to 7965
  145.3976  141.0381  143.3089 LP  0  0  0  0  0  0  0  0  0  0  0  0  # atno 17321 bound_to 7965
  140.6449  143.8814  150.6728 LP  0  0  0  0  0  0  0  0  0  0  0  0  # atno 17342 bound_to 10162
  140.2160  143.3846  152.1680 LP  0  0  0  0  0  0  0  0  0  0  0  0  # atno 17343 bound_to 10162
  156.6180  130.4398  149.5833 LP  0  0  0  0  0  0  0  0  0  0  0  0  # atno 17370 bound_to 10713
  156.2378  130.6833  151.1526 LP  0  0  0  0  0  0  0  0  0  0  0  0  # atno 17371 bound_to 10713
  139.8759  134.9249  156.3361 LP  0  0  0  0  0  0  0  0  0  0  0  0  # atno 17394 bound_to 11000
  140.9592  133.7400  156.0378 LP  0  0  0  0  0  0  0  0  0  0  0  0  # atno 17395 bound_to 11000

$$$$
