AV-unprocessed.smi:916|AV-procd|sdf|4160|dock9
  -GOLD-   22720 2 63D 1   1.00000     0.00000
 Structure written by MMmdl.
 43 44  0  0  0  0  0  0  0  0  1 V2000
  143.8030  132.5714  149.3714 C   0  0  0  0  0  0  0  0  0  0  0  0
  144.4100  132.4175  150.7706 C   0  0  0  0  0  0  0  0  0  0  0  0
  144.4466  133.7142  151.5208 C   0  0  0  0  0  0  0  0  0  0  0  0
  143.3906  134.3414  152.1363 C   0  0  0  0  0  0  0  0  0  0  0  0
  143.8715  135.8320  152.9020 S   0  0  0  0  0  0  0  0  0  0  0  0
  145.5139  135.5394  152.3519 C   0  0  0  0  0  0  0  0  0  0  0  0
  146.5769  136.4313  152.6504 N   0  0  0  0  0  0  0  0  0  0  0  0
  146.5100  137.6257  153.2642 C   0  0  0  0  0  0  0  0  0  0  0  0
  145.4884  138.1318  153.7300 O   0  0  0  0  0  0  0  0  0  0  0  0
  147.7127  138.2166  153.3086 N   0  0  0  0  0  0  0  0  0  0  0  0
  147.9775  139.5327  153.8814 C   0  0  0  0  0  0  0  0  0  0  0  0
  148.6424  139.4455  155.2788 C   0  0  2  0  0  0  0  0  0  0  0  0
  148.5792  140.7633  156.0389 C   0  0  0  0  0  0  0  0  0  0  0  0
  149.8416  141.5011  155.5853 C   0  0  0  0  0  0  0  0  0  0  0  0
  150.6630  140.5255  154.9498 O   0  0  0  0  0  0  0  0  0  0  0  0
  150.1649  139.2288  155.2502 C   0  0  2  0  0  0  0  0  0  0  0  0
  150.7152  138.1648  154.2735 C   0  0  0  0  0  0  0  0  0  0  0  0
  150.2875  136.7440  154.6802 C   0  0  0  0  0  0  0  0  0  0  0  0
  152.2474  138.2439  154.1780 C   0  0  0  0  0  0  0  0  0  0  0  0
  145.6526  134.4098  151.6490 N   0  0  0  0  0  0  0  0  0  0  0  0
  143.7873  131.6156  148.8475 H   0  0  0  0  0  0  0  0  0  0  0  0
  144.3791  133.2735  148.7682 H   0  0  0  0  0  0  0  0  0  0  0  0
  142.7773  132.9381  149.4247 H   0  0  0  0  0  0  0  0  0  0  0  0
  143.8379  131.6780  151.3319 H   0  0  0  0  0  0  0  0  0  0  0  0
  145.4174  132.0098  150.6802 H   0  0  0  0  0  0  0  0  0  0  0  0
  142.3621  134.0162  152.1868 H   0  0  0  0  0  0  0  0  0  0  0  0
  147.4898  136.1384  152.3349 H   0  0  0  0  0  0  0  0  0  0  0  0
  148.4998  137.7294  152.9062 H   0  0  0  0  0  0  0  0  0  0  0  0
  148.6011  140.0932  153.1848 H   0  0  0  0  0  0  0  0  0  0  0  0
  147.0313  140.0709  153.9439 H   0  0  0  0  0  0  0  0  0  0  0  0
  148.1635  138.6526  155.8542 H   0  0  0  0  0  0  0  0  0  0  0  0
  147.6690  141.3374  155.8646 H   0  0  0  0  0  0  0  0  0  0  0  0
  148.6386  140.5666  157.1103 H   0  0  0  0  0  0  0  0  0  0  0  0
  149.6081  142.2900  154.8701 H   0  0  0  0  0  0  0  0  0  0  0  0
  150.3619  141.9522  156.4307 H   0  0  0  0  0  0  0  0  0  0  0  0
  150.4977  138.9798  156.2604 H   0  0  0  0  0  0  0  0  0  0  0  0
  150.3239  138.3652  153.2759 H   0  0  0  0  0  0  0  0  0  0  0  0
  150.6569  136.4902  155.6743 H   0  0  0  0  0  0  0  0  0  0  0  0
  150.6769  136.0022  153.9825 H   0  0  0  0  0  0  0  0  0  0  0  0
  149.2031  136.6360  154.6937 H   0  0  0  0  0  0  0  0  0  0  0  0
  152.7157  138.0618  155.1459 H   0  0  0  0  0  0  0  0  0  0  0  0
  152.5734  139.2246  153.8304 H   0  0  0  0  0  0  0  0  0  0  0  0
  152.6363  137.5052  153.4764 H   0  0  0  0  0  0  0  0  0  0  0  0
  1  2  1  0  0  0  0
  1 21  1  0  0  0  0
  1 22  1  0  0  0  0
  1 23  1  0  0  0  0
  2  3  1  0  0  0  0
  2 24  1  0  0  0  0
  2 25  1  0  0  0  0
  3 20  1  0  0  0  0
  3  4  2  0  0  0  0
  4  5  1  0  0  0  0
  4 26  1  0  0  0  0
  5  6  1  0  0  0  0
  6  7  1  0  0  0  0
  6 20  2  0  0  0  0
  7  8  1  0  0  0  0
  7 27  1  0  0  0  0
  8  9  2  0  0  0  0
  8 10  1  0  0  0  0
 10 11  1  0  0  0  0
 10 28  1  0  0  0  0
 11 12  1  0  0  0  0
 11 29  1  0  0  0  0
 11 30  1  0  0  0  0
 12 16  1  0  0  0  0
 12 13  1  0  0  0  0
 12 31  1  0  0  0  0
 13 14  1  0  0  0  0
 13 32  1  0  0  0  0
 13 33  1  0  0  0  0
 14 15  1  0  0  0  0
 14 34  1  0  0  0  0
 14 35  1  0  0  0  0
 15 16  1  0  0  0  0
 16 17  1  0  0  0  0
 16 36  1  0  0  0  0
 17 18  1  0  0  0  0
 17 19  1  0  0  0  0
 17 37  1  0  0  0  0
 18 38  1  0  0  0  0
 18 39  1  0  0  0  0
 18 40  1  0  0  0  0
 19 41  1  0  0  0  0
 19 42  1  0  0  0  0
 19 43  1  0  0  0  0
M  END
> <s_m_source_file>
AV-unprocessed.smi

> <i_m_source_file_index>
916

> <i_lp_mmshare_version>
43012

> <i_f3d_flags>
0

> <s_epik_input>
W0NIM11bQ0gyXWMxW2NIXXNjKG4xKVtOSF1DKD1PKVtOSF1bQ0gyXVtDQEBIXTJbQ0gyXVtDSDJdT1tDQEhdMltDSF0oW0NIM10pW0NIM10=

> <s_epik_cmdline>
J2VwaWtfcHl0aG9uJywgJy1waCcsICc3LjAnLCAnLXRuJywgJzgnLCAnLW1hJywgJzIwMCcsICctbWV0YWxfYmluZGluZycsICctaW1hZScsICc8aW5maWxlLm1hZT4nLCAnLW9tYWUnLCAnPG91dGZpbGUubWFlPic=

> <r_lp_tautomer_probability>
0.999

> <r_epik_Ionization_Penalty>
0.000518907

> <r_epik_Ionization_Penalty_Charging>
0

> <r_epik_Ionization_Penalty_Neutral>
0.000518907

> <r_epik_State_Penalty>
0.000177984

> <r_epik_Charging_Adjusted_Penalty>
0.000177984

> <i_epik_Tot_Q>
0

> <i_epik_Tot_abs_Q>
0

> <r_epik_Metal_State_Penalty>
-0

> <b_epik_Metal_Only>
0

> <s_lp_Force_Field>
OPLS_2005

> <r_lp_Energy>
18.5448

> <b_lp_Chiralities_Consistent>
1

> <s_lp_Variant>
AV-unprocessed.smi:916-3

> <Gold.Version>
5.8.1

> <Gold.Id.Protein>
6NUR|6NUR_protein|mol2

> <Gold.PLP.Fitness>
39.3837

> <Gold.PLP.PLP>
-31.4668

> <Gold.PLP.part.hbond>
-2.9461

> <Gold.PLP.part.metal>
0.0000

> <Gold.PLP.part.buried>
-4.4120

> <Gold.PLP.part.nonpolar>
-26.2044

> <Gold.PLP.part.repulsive>
0.9113

> <Gold.PLP.ligand.clash>
0.0000

> <Gold.PLP.ligand.torsion>
0.5781

> <Gold.PLP.Chemscore.Hbond>
2.8640

> <Gold.PLP.Chemscore.CHOScore>
0.1396

> <Gold.PLP.Chemscore.Metal>
0.0000

> <Gold.Chemscore.Hbonds>
donor molecule, donor type, donor heavy atom, donor atom, acceptor molecule, acceptor atom, score
      L1  H     7    27       P1  7948  0.99
      L1  H    10    28       P1  7948  0.86
      P1  H  7989  7998       L1    15  1.00

> <Gold.PLP.Chemscore.Internal.Correction>
0.0622

> <Gold.Rescore>
     Score         DG    S(hbond)    S(metal)    S(lipo)     H(rot)  DE(clash)    DE(int)     intcor
     18.16     -20.27       2.76        0.00      81.11       1.52       0.29       1.82       ----

> <Gold.Chemscore.Fitness>
18.1591

> <Gold.Chemscore.DG>
-20.2726

> <Gold.Chemscore.ZeroCoef>
-5.4800

> <Gold.Chemscore.Hbond>
2.7555

> <Gold.Chemscore.Metal>
0.0000

> <Gold.Chemscore.Lipo>
81.1103

> <Gold.Chemscore.Internal_Hbond>
0.0000

> <Gold.Chemscore.DEClash>
0.2900

> <Gold.Chemscore.DEInternal>
1.8234

> <Gold.Chemscore.Rot>
1.5238

> <Gold.Chemscore.Internal.Correction>
   9.000000E+99

> <Gold.Chemscore.Hbonds>
donor molecule, donor type, donor heavy atom, donor atom, acceptor molecule, acceptor atom, score
      L1  H     7    27       P1  7948  0.92
      L1  H    10    28       P1  7948  0.86
      P1  H  7989  7998       L1    15  0.94

> <Gold.Chemscore.Hbond.Weighted>
-9.2035

> <Gold.Chemscore.Metal.Weighted>
-0.0000

> <Gold.Chemscore.Lipo.Weighted>
-9.4899

> <Gold.Chemscore.Internal_Hbond.Weighted>
0.0000

> <Gold.Chemscore.DEClash.Weighted>
0.2900

> <Gold.Chemscore.DEInternal.Weighted>
1.8234

> <Gold.Chemscore.Rot.Weighted>
3.9008

> <Gold.Chemscore.Internal.Correction.Weighted>
   9.000000E+99

> <Gold.Protein.RotatedTorsions>
[ 6907 6896 6895 6894 ] final  139.67 input  -60.11 | X-H torsion
[ 7974 7965 7964 7962 ] final   -0.15 input  175.53 | X-H torsion
[ 8008 7997 7996 7995 ] final  177.22 input   59.86 | X-H torsion
[ 10167 10162 10161 10158 ] final   72.42 input  -65.29 | X-H torsion
[ 10718 10713 10712 10709 ] final   14.73 input   66.30 | X-H torsion
[ 10763 10752 10751 10750 ] final -142.00 input  -60.55 | X-H torsion
[ 11005 11000 10999 10996 ] final  140.98 input  -57.11 | X-H torsion

> <Gold.Protein.ActiveResidues>
 VAL166  LYS551  ARG553  GLY616  TRP617  ASP618  TYR619  PRO620  LYS621  CYS622 
 ASP623  PHE694  ASN695  SER759  ASP760  ASP761  ALA762  ILE779  LEU786  VAL792 
 PHE793  MET794  SER795  GLU796  ALA797  LYS798  CYS799  TRP800  GLU811  SER814 

> <Gold.Protein.RotatedAtoms>
  152.2522  133.5224  159.5331 H   0  0  0  0  0  0  0  0  0  0  0  0  # atno 6907 bound_to 6896
  150.7097  134.0945  159.3952 H   0  0  0  0  0  0  0  0  0  0  0  0  # atno 6908 bound_to 6896
  151.8864  135.0433  160.0544 H   0  0  0  0  0  0  0  0  0  0  0  0  # atno 6909 bound_to 6896
  146.2430  140.1226  142.8340 H   0  0  0  0  0  0  0  0  0  0  0  0  # atno 7974 bound_to 7965
  156.0681  140.1364  156.9862 H   0  0  0  0  0  0  0  0  0  0  0  0  # atno 8008 bound_to 7997
  154.4517  140.0977  156.6688 H   0  0  0  0  0  0  0  0  0  0  0  0  # atno 8009 bound_to 7997
  155.5272  140.3458  155.4421 H   0  0  0  0  0  0  0  0  0  0  0  0  # atno 8010 bound_to 7997
  140.0355  144.5431  150.7474 H   0  0  0  0  0  0  0  0  0  0  0  0  # atno 10167 bound_to 10162
  157.0433  130.6240  149.5755 H   0  0  0  0  0  0  0  0  0  0  0  0  # atno 10718 bound_to 10713
  154.8525  135.3508  154.5959 H   0  0  0  0  0  0  0  0  0  0  0  0  # atno 10763 bound_to 10752
  153.6568  135.6991  153.5195 H   0  0  0  0  0  0  0  0  0  0  0  0  # atno 10764 bound_to 10752
  153.2850  135.4252  155.1071 H   0  0  0  0  0  0  0  0  0  0  0  0  # atno 10765 bound_to 10752
  140.0367  134.9325  157.0767 H   0  0  0  0  0  0  0  0  0  0  0  0  # atno 11005 bound_to 11000
  145.0394  140.8933  143.5062 LP  0  0  0  0  0  0  0  0  0  0  0  0  # atno 17320 bound_to 7965
  145.1303  139.2636  143.5542 LP  0  0  0  0  0  0  0  0  0  0  0  0  # atno 17321 bound_to 7965
  140.7283  143.2660  151.4042 LP  0  0  0  0  0  0  0  0  0  0  0  0  # atno 17342 bound_to 10162
  139.6048  144.1220  152.2237 LP  0  0  0  0  0  0  0  0  0  0  0  0  # atno 17343 bound_to 10162
  156.0031  130.5113  150.7734 LP  0  0  0  0  0  0  0  0  0  0  0  0  # atno 17370 bound_to 10713
  157.5087  131.0924  151.0224 LP  0  0  0  0  0  0  0  0  0  0  0  0  # atno 17371 bound_to 10713
  140.4135  134.1956  155.7163 LP  0  0  0  0  0  0  0  0  0  0  0  0  # atno 17394 bound_to 11000
  141.1861  133.8309  157.1079 LP  0  0  0  0  0  0  0  0  0  0  0  0  # atno 17395 bound_to 11000

$$$$
