AV-unprocessed.smi:3141|AV-procd|sdf|11969|dock4
  -GOLD-   2272017363D 1   1.00000     0.00000
 Structure written by MMmdl.
 35 37  0  0  0  0  0  0  0  0  1 V2000
  151.1737  141.4756  157.4809 O   0  0  0  0  0  0  0  0  0  0  0  0
  150.5901  142.4787  157.0699 C   0  0  0  0  0  0  0  0  0  0  0  0
  151.0135  143.7337  157.2691 N   0  0  0  0  0  0  0  0  0  0  0  0
  152.1949  144.1057  157.9776 C   0  0  0  0  0  0  0  0  0  0  0  0
  152.3103  143.6721  159.4229 C   0  0  0  0  0  0  0  0  0  0  0  0
  152.0555  145.1172  159.0947 C   0  0  0  0  0  0  0  0  0  0  0  0
  149.4513  142.4484  156.3644 N   0  0  0  0  0  0  0  0  0  0  0  0
  148.7491  141.2351  155.9558 C   0  0  1  0  0  0  0  0  0  0  0  0
  147.2273  141.4670  155.8504 C   0  0  0  0  0  0  0  0  0  0  0  0
  146.8657  141.3077  154.3710 C   0  0  0  0  0  0  0  0  0  0  0  0
  147.9289  140.3644  153.8166 C   0  0  0  0  0  0  0  0  0  0  0  0
  149.2052  140.7923  154.5495 C   0  0  2  0  0  0  0  0  0  0  0  0
  150.2386  139.7688  154.5767 N   0  0  0  0  0  0  0  0  0  0  0  0
  150.2803  138.6133  153.8067 C   0  0  0  0  0  0  0  0  0  0  0  0
  151.4393  137.9529  154.1454 C   0  0  0  0  0  0  0  0  0  0  0  0
  152.1287  138.6820  155.1106 N   0  0  0  0  0  0  0  0  0  0  0  0
  151.3605  139.7446  155.3123 C   0  0  0  0  0  0  0  0  0  0  0  0
  150.4583  144.4862  156.8894 H   0  0  0  0  0  0  0  0  0  0  0  0
  153.1261  144.1418  157.4137 H   0  0  0  0  0  0  0  0  0  0  0  0
  151.4880  143.1026  159.8519 H   0  0  0  0  0  0  0  0  0  0  0  0
  153.3001  143.4069  159.7887 H   0  0  0  0  0  0  0  0  0  0  0  0
  152.8751  145.8175  159.2416 H   0  0  0  0  0  0  0  0  0  0  0  0
  151.0630  145.5125  159.3030 H   0  0  0  0  0  0  0  0  0  0  0  0
  149.0474  143.3269  156.0748 H   0  0  0  0  0  0  0  0  0  0  0  0
  148.9323  140.4403  156.6818 H   0  0  0  0  0  0  0  0  0  0  0  0
  146.7085  140.7055  156.4341 H   0  0  0  0  0  0  0  0  0  0  0  0
  146.9090  142.4356  156.2389 H   0  0  0  0  0  0  0  0  0  0  0  0
  145.8528  140.9316  154.2251 H   0  0  0  0  0  0  0  0  0  0  0  0
  146.9373  142.2741  153.8699 H   0  0  0  0  0  0  0  0  0  0  0  0
  147.6603  139.3364  154.0622 H   0  0  0  0  0  0  0  0  0  0  0  0
  148.0255  140.4334  152.7327 H   0  0  0  0  0  0  0  0  0  0  0  0
  149.6051  141.6559  154.0139 H   0  0  0  0  0  0  0  0  0  0  0  0
  149.5035  138.3628  153.0994 H   0  0  0  0  0  0  0  0  0  0  0  0
  151.8291  137.0189  153.7681 H   0  0  0  0  0  0  0  0  0  0  0  0
  151.6234  140.5262  156.0102 H   0  0  0  0  0  0  0  0  0  0  0  0
  1  2  2  0  0  0  0
  2  3  1  0  0  0  0
  2  7  1  0  0  0  0
  3  4  1  0  0  0  0
  3 18  1  0  0  0  0
  4  6  1  0  0  0  0
  4  5  1  0  0  0  0
  4 19  1  0  0  0  0
  5  6  1  0  0  0  0
  5 20  1  0  0  0  0
  5 21  1  0  0  0  0
  6 22  1  0  0  0  0
  6 23  1  0  0  0  0
  7  8  1  0  0  0  0
  7 24  1  0  0  0  0
  8 12  1  0  0  0  0
  8  9  1  0  0  0  0
  8 25  1  0  0  0  0
  9 10  1  0  0  0  0
  9 26  1  0  0  0  0
  9 27  1  0  0  0  0
 10 11  1  0  0  0  0
 10 28  1  0  0  0  0
 10 29  1  0  0  0  0
 11 12  1  0  0  0  0
 11 30  1  0  0  0  0
 11 31  1  0  0  0  0
 12 13  1  0  0  0  0
 12 32  1  0  0  0  0
 13 17  1  0  0  0  0
 13 14  1  0  0  0  0
 14 15  2  0  0  0  0
 14 33  1  0  0  0  0
 15 16  1  0  0  0  0
 15 34  1  0  0  0  0
 16 17  2  0  0  0  0
 17 35  1  0  0  0  0
M  END
> <s_m_source_file>
AV-unprocessed.smi

> <i_m_source_file_index>
3141

> <i_lp_mmshare_version>
43012

> <i_f3d_flags>
0

> <s_epik_input>
W0NIMl0xW0NIMl1bQ0hdMVtOSF1DKD1PKVtOSF1bQ0BASF0yW0NIMl1bQ0gyXVtDSDJdW0NASF0ybjNbY0hdW2NIXW5bY0hdMw==

> <s_epik_cmdline>
J2VwaWtfcHl0aG9uJywgJy1waCcsICc3LjAnLCAnLXRuJywgJzgnLCAnLW1hJywgJzIwMCcsICctbWV0YWxfYmluZGluZycsICctaW1hZScsICc8aW5maWxlLm1hZT4nLCAnLW9tYWUnLCAnPG91dGZpbGUubWFlPic=

> <r_lp_tautomer_probability>
1

> <r_epik_Ionization_Penalty>
0.728419

> <r_epik_Ionization_Penalty_Charging>
0.728357

> <r_epik_Ionization_Penalty_Neutral>
6.27871e-05

> <r_epik_State_Penalty>
0.753408

> <r_epik_Charging_Adjusted_Penalty>
1.48176

> <i_epik_Tot_Q>
0

> <i_epik_Tot_abs_Q>
0

> <r_epik_Metal_State_Penalty>
0.332413

> <b_epik_Metal_Only>
0

> <s_lp_Force_Field>
OPLS_2005

> <r_lp_Energy>
34.7591

> <b_lp_Chiralities_Consistent>
1

> <s_lp_Variant>
AV-unprocessed.smi:3141-8

> <Gold.Version>
5.8.1

> <Gold.Id.Protein>
6NUR|6NUR_protein|mol2

> <Gold.PLP.Fitness>
49.1479

> <Gold.PLP.PLP>
-37.8640

> <Gold.PLP.part.hbond>
-1.8711

> <Gold.PLP.part.metal>
0.0000

> <Gold.PLP.part.buried>
-0.6284

> <Gold.PLP.part.nonpolar>
-34.7965

> <Gold.PLP.part.repulsive>
0.1199

> <Gold.PLP.ligand.clash>
0.0000

> <Gold.PLP.ligand.torsion>
0.7068

> <Gold.PLP.Chemscore.Hbond>
1.7514

> <Gold.PLP.Chemscore.CHOScore>
2.4668

> <Gold.PLP.Chemscore.Metal>
0.0000

> <Gold.Chemscore.Hbonds>
donor molecule, donor type, donor heavy atom, donor atom, acceptor molecule, acceptor atom, score
      L1  H     3    18       P1  8028  0.80
      L1  H     7    24       P1  8028  0.83
      L1  C    14    33       P1  7948  1.00
      L1  C    14    33       P1  7957  0.55
      L1  C    15    34       P1  7949  0.77

> <Gold.PLP.Chemscore.Internal.Correction>
0.0429

> <Gold.Rescore>
     Score         DG    S(hbond)    S(metal)    S(lipo)     H(rot)  DE(clash)    DE(int)     intcor
     16.46     -17.17       1.79        0.00      83.16       1.57       0.22       0.48       ----

> <Gold.Chemscore.Fitness>
16.4598

> <Gold.Chemscore.DG>
-17.1661

> <Gold.Chemscore.ZeroCoef>
-5.4800

> <Gold.Chemscore.Hbond>
1.7897

> <Gold.Chemscore.Metal>
0.0000

> <Gold.Chemscore.Lipo>
83.1556

> <Gold.Chemscore.Internal_Hbond>
0.0000

> <Gold.Chemscore.DEClash>
0.2239

> <Gold.Chemscore.DEInternal>
0.4824

> <Gold.Chemscore.Rot>
1.5705

> <Gold.Chemscore.Internal.Correction>
   9.000000E+99

> <Gold.Chemscore.Hbonds>
donor molecule, donor type, donor heavy atom, donor atom, acceptor molecule, acceptor atom, score
      L1  H     3    18       P1  8028  0.69
      L1  H     7    24       P1  8028  0.80

> <Gold.Chemscore.Hbond.Weighted>
-5.9775

> <Gold.Chemscore.Metal.Weighted>
-0.0000

> <Gold.Chemscore.Lipo.Weighted>
-9.7292

> <Gold.Chemscore.Internal_Hbond.Weighted>
0.0000

> <Gold.Chemscore.DEClash.Weighted>
0.2239

> <Gold.Chemscore.DEInternal.Weighted>
0.4824

> <Gold.Chemscore.Rot.Weighted>
4.0206

> <Gold.Chemscore.Internal.Correction.Weighted>
   9.000000E+99

> <Gold.Protein.RotatedTorsions>
[ 6907 6896 6895 6894 ] final  100.05 input  -60.11 | X-H torsion
[ 7974 7965 7964 7962 ] final -165.96 input  175.53 | X-H torsion
[ 8008 7997 7996 7995 ] final  -63.26 input   59.86 | X-H torsion
[ 10167 10162 10161 10158 ] final   55.84 input  -65.29 | X-H torsion
[ 10718 10713 10712 10709 ] final   97.45 input   66.30 | X-H torsion
[ 10763 10752 10751 10750 ] final  120.38 input  -60.55 | X-H torsion
[ 11005 11000 10999 10996 ] final   78.71 input  -57.11 | X-H torsion

> <Gold.Protein.ActiveResidues>
 VAL166  LYS551  ARG553  GLY616  TRP617  ASP618  TYR619  PRO620  LYS621  CYS622 
 ASP623  PHE694  ASN695  SER759  ASP760  ASP761  ALA762  ILE779  LEU786  VAL792 
 PHE793  MET794  SER795  GLU796  ALA797  LYS798  CYS799  TRP800  GLU811  SER814 

> <Gold.Protein.RotatedAtoms>
  152.5380  134.0336  159.8035 H   0  0  0  0  0  0  0  0  0  0  0  0  # atno 6907 bound_to 6896
  151.0503  133.5622  159.2650 H   0  0  0  0  0  0  0  0  0  0  0  0  # atno 6908 bound_to 6896
  151.2559  135.0645  159.9133 H   0  0  0  0  0  0  0  0  0  0  0  0  # atno 6909 bound_to 6896
  144.7257  140.2737  143.6246 H   0  0  0  0  0  0  0  0  0  0  0  0  # atno 7974 bound_to 7965
  154.4545  140.0978  156.6715 H   0  0  0  0  0  0  0  0  0  0  0  0  # atno 8008 bound_to 7997
  155.5182  140.3478  155.4383 H   0  0  0  0  0  0  0  0  0  0  0  0  # atno 8009 bound_to 7997
  156.0749  140.1358  156.9773 H   0  0  0  0  0  0  0  0  0  0  0  0  # atno 8010 bound_to 7997
  140.2151  144.3848  150.6473 H   0  0  0  0  0  0  0  0  0  0  0  0  # atno 10167 bound_to 10162
  157.6912  131.0610  150.4646 H   0  0  0  0  0  0  0  0  0  0  0  0  # atno 10718 bound_to 10713
  153.5976  135.3454  155.2934 H   0  0  0  0  0  0  0  0  0  0  0  0  # atno 10763 bound_to 10752
  154.8642  135.4220  154.2447 H   0  0  0  0  0  0  0  0  0  0  0  0  # atno 10764 bound_to 10752
  153.3269  135.7042  153.7053 H   0  0  0  0  0  0  0  0  0  0  0  0  # atno 10765 bound_to 10752
  139.9202  134.7785  156.1684 H   0  0  0  0  0  0  0  0  0  0  0  0  # atno 11005 bound_to 11000
  145.8018  139.1967  143.2044 LP  0  0  0  0  0  0  0  0  0  0  0  0  # atno 17320 bound_to 7965
  146.0670  140.7909  142.9706 LP  0  0  0  0  0  0  0  0  0  0  0  0  # atno 17321 bound_to 7965
  140.6295  143.2185  151.6525 LP  0  0  0  0  0  0  0  0  0  0  0  0  # atno 17342 bound_to 10162
  139.5165  144.3345  152.0797 LP  0  0  0  0  0  0  0  0  0  0  0  0  # atno 17343 bound_to 10162
  156.4988  130.4112  149.6365 LP  0  0  0  0  0  0  0  0  0  0  0  0  # atno 17370 bound_to 10713
  156.3348  130.7351  151.2286 LP  0  0  0  0  0  0  0  0  0  0  0  0  # atno 17371 bound_to 10713
  141.0715  133.6794  156.2150 LP  0  0  0  0  0  0  0  0  0  0  0  0  # atno 17394 bound_to 11000
  140.6498  134.5078  157.5576 LP  0  0  0  0  0  0  0  0  0  0  0  0  # atno 17395 bound_to 11000

$$$$
