AV-unprocessed.smi:2881|AV-procd|sdf|11065|dock3
  -GOLD-   2272015533D 1   1.00000     0.00000
 Structure written by MMmdl.
 40 42  0  0  0  0  0  0  0  0  1 V2000
  143.8731  133.1881  150.7696 C   0  0  0  0  0  0  0  0  0  0  0  0
  144.8094  134.3116  151.1042 C   0  0  0  0  0  0  0  0  0  0  0  0
  144.5157  135.7036  151.1972 C   0  0  0  0  0  0  0  0  0  0  0  0
  145.7092  136.2802  151.5315 C   0  0  0  0  0  0  0  0  0  0  0  0
  146.0810  137.7067  151.7837 C   0  0  0  0  0  0  0  0  0  0  0  0
  146.6708  137.8787  153.1835 C   0  0  0  0  0  0  0  0  0  0  0  0
  146.0654  137.4490  154.1651 O   0  0  0  0  0  0  0  0  0  0  0  0
  147.8522  138.5097  153.2610 N   0  0  0  0  0  0  0  0  0  0  0  0
  148.6002  138.7399  154.4943 C   0  0  2  0  0  0  0  0  0  0  0  0
  147.9864  139.8347  155.4034 C   0  0  2  0  0  0  0  0  0  0  0  0
  147.7217  141.1385  154.6202 C   0  0  0  0  0  0  0  0  0  0  0  0
  149.1444  141.6606  154.3464 C   0  0  0  0  0  0  0  0  0  0  0  0
  150.0339  140.6032  155.0296 C   0  0  1  0  0  0  0  0  0  0  0  0
  149.1898  140.2386  156.2456 C   0  0  0  0  0  0  0  0  0  0  0  0
  150.0159  139.3006  154.1965 C   0  0  1  0  0  0  0  0  0  0  0  0
  151.1505  138.3292  154.5743 C   0  0  0  0  0  0  0  0  0  0  0  0
  150.8764  137.0419  154.0622 O   0  0  0  0  0  0  0  0  0  0  0  0
  146.6210  135.2518  151.6128 N   0  0  0  0  0  0  0  0  0  0  0  0
  146.0829  134.0457  151.3538 N   0  0  0  0  0  0  0  0  0  0  0  0
  147.5996  135.3562  151.8403 H   0  0  0  0  0  0  0  0  0  0  0  0
  142.8396  133.5337  150.7364 H   0  0  0  0  0  0  0  0  0  0  0  0
  143.9314  132.3918  151.5121 H   0  0  0  0  0  0  0  0  0  0  0  0
  144.1104  132.7568  149.7970 H   0  0  0  0  0  0  0  0  0  0  0  0
  143.5701  136.2030  151.0460 H   0  0  0  0  0  0  0  0  0  0  0  0
  145.2008  138.3421  151.6796 H   0  0  0  0  0  0  0  0  0  0  0  0
  146.8030  138.0517  151.0423 H   0  0  0  0  0  0  0  0  0  0  0  0
  148.2805  138.8263  152.4034 H   0  0  0  0  0  0  0  0  0  0  0  0
  148.6734  137.8037  155.0518 H   0  0  0  0  0  0  0  0  0  0  0  0
  147.1252  139.4912  155.9776 H   0  0  0  0  0  0  0  0  0  0  0  0
  147.1454  140.9893  153.7074 H   0  0  0  0  0  0  0  0  0  0  0  0
  147.1710  141.8488  155.2382 H   0  0  0  0  0  0  0  0  0  0  0  0
  149.3553  141.7583  153.2808 H   0  0  0  0  0  0  0  0  0  0  0  0
  149.2849  142.6407  154.8040 H   0  0  0  0  0  0  0  0  0  0  0  0
  151.0359  140.9681  155.2574 H   0  0  0  0  0  0  0  0  0  0  0  0
  148.9930  141.0854  156.9058 H   0  0  0  0  0  0  0  0  0  0  0  0
  149.6006  139.4181  156.8357 H   0  0  0  0  0  0  0  0  0  0  0  0
  150.1290  139.5543  153.1405 H   0  0  0  0  0  0  0  0  0  0  0  0
  152.0968  138.6701  154.1539 H   0  0  0  0  0  0  0  0  0  0  0  0
  151.2815  138.2669  155.6548 H   0  0  0  0  0  0  0  0  0  0  0  0
  151.0914  137.0316  153.1420 H   0  0  0  0  0  0  0  0  0  0  0  0
  1 21  1  0  0  0  0
  1 22  1  0  0  0  0
  1 23  1  0  0  0  0
  1  2  1  0  0  0  0
  2 19  2  0  0  0  0
  2  3  1  0  0  0  0
  3  4  2  0  0  0  0
  3 24  1  0  0  0  0
  4 18  1  0  0  0  0
  4  5  1  0  0  0  0
  5  6  1  0  0  0  0
  5 25  1  0  0  0  0
  5 26  1  0  0  0  0
  6  7  2  0  0  0  0
  6  8  1  0  0  0  0
  8  9  1  0  0  0  0
  8 27  1  0  0  0  0
  9 15  1  0  0  0  0
  9 10  1  0  0  0  0
  9 28  1  0  0  0  0
 10 14  1  0  0  0  0
 10 11  1  0  0  0  0
 10 29  1  0  0  0  0
 11 12  1  0  0  0  0
 11 30  1  0  0  0  0
 11 31  1  0  0  0  0
 12 13  1  0  0  0  0
 12 32  1  0  0  0  0
 12 33  1  0  0  0  0
 13 14  1  0  0  0  0
 13 15  1  0  0  0  0
 13 34  1  0  0  0  0
 14 35  1  0  0  0  0
 14 36  1  0  0  0  0
 15 16  1  0  0  0  0
 15 37  1  0  0  0  0
 16 17  1  0  0  0  0
 16 38  1  0  0  0  0
 16 39  1  0  0  0  0
 17 40  1  0  0  0  0
 18 19  1  0  0  0  0
 18 20  1  0  0  0  0
M  END
> <s_m_source_file>
AV-unprocessed.smi

> <i_m_source_file_index>
2881

> <i_lp_mmshare_version>
43012

> <i_f3d_flags>
0

> <s_epik_input>
W0NIM11jMVtjSF1jKG5bbkhdMSlbQ0gyXUMoPU8pW05IXVtDQEhdKFtDQEBIXTIzKVtDQEhdKFtDSDJdW09IXSlbQ0BASF0oW0NIMl0zKVtDSDJdW0NIMl0y

> <s_epik_cmdline>
J2VwaWtfcHl0aG9uJywgJy1waCcsICc3LjAnLCAnLXRuJywgJzgnLCAnLW1hJywgJzIwMCcsICctbWV0YWxfYmluZGluZycsICctaW1hZScsICc8aW5maWxlLm1hZT4nLCAnLW9tYWUnLCAnPG91dGZpbGUubWFlPic=

> <r_lp_tautomer_probability>
0.5

> <r_epik_Ionization_Penalty>
0.00013396

> <r_epik_Ionization_Penalty_Charging>
0

> <r_epik_Ionization_Penalty_Neutral>
0.00013396

> <r_epik_State_Penalty>
0.41068

> <r_epik_Charging_Adjusted_Penalty>
0.41068

> <i_epik_Tot_Q>
0

> <i_epik_Tot_abs_Q>
0

> <r_epik_Metal_State_Penalty>
0.41066

> <b_epik_Metal_Only>
0

> <s_lp_Force_Field>
OPLS_2005

> <r_lp_Energy>
46.7591

> <b_lp_Chiralities_Consistent>
1

> <s_lp_Variant>
AV-unprocessed.smi:2881-11

> <Gold.Version>
5.8.1

> <Gold.Id.Protein>
6NUR|6NUR_protein|mol2

> <Gold.PLP.Fitness>
37.8683

> <Gold.PLP.PLP>
-30.5229

> <Gold.PLP.part.hbond>
-4.6504

> <Gold.PLP.part.metal>
0.0000

> <Gold.PLP.part.buried>
3.0431

> <Gold.PLP.part.nonpolar>
-28.2893

> <Gold.PLP.part.repulsive>
0.3691

> <Gold.PLP.ligand.clash>
0.0000

> <Gold.PLP.ligand.torsion>
0.2809

> <Gold.PLP.Chemscore.Hbond>
2.6258

> <Gold.PLP.Chemscore.CHOScore>
0.0000

> <Gold.PLP.Chemscore.Metal>
0.0000

> <Gold.Chemscore.Hbonds>
donor molecule, donor type, donor heavy atom, donor atom, acceptor molecule, acceptor atom, score
      L1  H     8    27       P1  7957  0.67
      L1  H    17    40       P1  7949  0.94
      L1  H    18    20       P1  7948  1.00

> <Gold.PLP.Chemscore.Internal.Correction>
0.0299

> <Gold.Rescore>
     Score         DG    S(hbond)    S(metal)    S(lipo)     H(rot)  DE(clash)    DE(int)     intcor
     15.46     -16.49       2.22        0.00      80.48       2.28       0.75       0.27       ----

> <Gold.Chemscore.Fitness>
15.4627

> <Gold.Chemscore.DG>
-16.4872

> <Gold.Chemscore.ZeroCoef>
-5.4800

> <Gold.Chemscore.Hbond>
2.2203

> <Gold.Chemscore.Metal>
0.0000

> <Gold.Chemscore.Lipo>
80.4844

> <Gold.Chemscore.Internal_Hbond>
0.0000

> <Gold.Chemscore.DEClash>
0.7519

> <Gold.Chemscore.DEInternal>
0.2725

> <Gold.Chemscore.Rot>
2.2755

> <Gold.Chemscore.Internal.Correction>
   9.000000E+99

> <Gold.Chemscore.Hbonds>
donor molecule, donor type, donor heavy atom, donor atom, acceptor molecule, acceptor atom, score
      L1  H     8    27       P1  7957  0.65
      L1  H    17    40       P1  7949  0.36
      L1  H    18    20       P1  7948  0.89

> <Gold.Chemscore.Hbond.Weighted>
-7.4157

> <Gold.Chemscore.Metal.Weighted>
-0.0000

> <Gold.Chemscore.Lipo.Weighted>
-9.4167

> <Gold.Chemscore.Internal_Hbond.Weighted>
0.0000

> <Gold.Chemscore.DEClash.Weighted>
0.7519

> <Gold.Chemscore.DEInternal.Weighted>
0.2725

> <Gold.Chemscore.Rot.Weighted>
5.8252

> <Gold.Chemscore.Internal.Correction.Weighted>
   9.000000E+99

> <Gold.Protein.RotatedTorsions>
[ 6907 6896 6895 6894 ] final  127.23 input  -60.11 | X-H torsion
[ 7974 7965 7964 7962 ] final  -13.59 input  175.53 | X-H torsion
[ 8008 7997 7996 7995 ] final   93.89 input   59.86 | X-H torsion
[ 10167 10162 10161 10158 ] final    0.01 input  -65.29 | X-H torsion
[ 10718 10713 10712 10709 ] final   64.21 input   66.30 | X-H torsion
[ 10763 10752 10751 10750 ] final -163.19 input  -60.55 | X-H torsion
[ 11005 11000 10999 10996 ] final -170.11 input  -57.11 | X-H torsion

> <Gold.Protein.ActiveResidues>
 VAL166  LYS551  ARG553  GLY616  TRP617  ASP618  TYR619  PRO620  LYS621  CYS622 
 ASP623  PHE694  ASN695  SER759  ASP760  ASP761  ALA762  ILE779  LEU786  VAL792 
 PHE793  MET794  SER795  GLU796  ALA797  LYS798  CYS799  TRP800  GLU811  SER814 

> <Gold.Protein.RotatedAtoms>
  152.3832  133.6574  159.6177 H   0  0  0  0  0  0  0  0  0  0  0  0  # atno 6907 bound_to 6896
  150.7757  133.9079  159.3369 H   0  0  0  0  0  0  0  0  0  0  0  0  # atno 6908 bound_to 6896
  151.6881  135.0952  160.0280 H   0  0  0  0  0  0  0  0  0  0  0  0  # atno 6909 bound_to 6896
  146.2108  140.3226  142.8392 H   0  0  0  0  0  0  0  0  0  0  0  0  # atno 7974 bound_to 7965
  156.0519  140.3307  155.7360 H   0  0  0  0  0  0  0  0  0  0  0  0  # atno 8008 bound_to 7997
  155.5588  140.0617  157.2851 H   0  0  0  0  0  0  0  0  0  0  0  0  # atno 8009 bound_to 7997
  154.4439  140.1881  156.0750 H   0  0  0  0  0  0  0  0  0  0  0  0  # atno 8010 bound_to 7997
  140.6748  143.6948  150.7999 H   0  0  0  0  0  0  0  0  0  0  0  0  # atno 10167 bound_to 10162
  157.6024  130.9147  149.9816 H   0  0  0  0  0  0  0  0  0  0  0  0  # atno 10718 bound_to 10713
  154.7145  135.3013  154.9145 H   0  0  0  0  0  0  0  0  0  0  0  0  # atno 10763 bound_to 10752
  154.0036  135.6704  153.4765 H   0  0  0  0  0  0  0  0  0  0  0  0  # atno 10764 bound_to 10752
  153.0782  135.5023  154.8363 H   0  0  0  0  0  0  0  0  0  0  0  0  # atno 10765 bound_to 10752
  140.5232  134.5689  157.5054 H   0  0  0  0  0  0  0  0  0  0  0  0  # atno 11005 bound_to 11000
  144.8909  140.7522  143.5927 LP  0  0  0  0  0  0  0  0  0  0  0  0  # atno 17320 bound_to 7965
  145.3148  139.1807  143.4619 LP  0  0  0  0  0  0  0  0  0  0  0  0  # atno 17321 bound_to 7965
  140.0639  143.5127  152.2614 LP  0  0  0  0  0  0  0  0  0  0  0  0  # atno 17342 bound_to 10162
  139.6034  144.7589  151.3118 LP  0  0  0  0  0  0  0  0  0  0  0  0  # atno 17343 bound_to 10162
  156.1101  130.3650  150.0064 LP  0  0  0  0  0  0  0  0  0  0  0  0  # atno 17370 bound_to 10713
  156.8164  130.9343  151.3642 LP  0  0  0  0  0  0  0  0  0  0  0  0  # atno 17371 bound_to 10713
  139.9595  134.7478  156.0269 LP  0  0  0  0  0  0  0  0  0  0  0  0  # atno 17394 bound_to 11000
  141.1323  133.6583  156.3497 LP  0  0  0  0  0  0  0  0  0  0  0  0  # atno 17395 bound_to 11000

$$$$
