AV-unprocessed.smi:44|AV-procd|sdf|406|dock5
  -GOLD-   2262016263D 1   1.00000     0.00000
 Structure written by MMmdl.
 28 30  0  0  0  0  0  0  0  0  2 V2000
  153.6580  138.2401  156.9626 O   0  0  0  0  0  0  0  0  0  0  0  0
  152.7963  138.4828  156.1200 C   0  0  0  0  0  0  0  0  0  0  0  0
  152.4986  137.6909  155.0409 N   0  5  0  0  0  0  0  0  0  0  0  0
  151.4936  138.0791  154.1571 C   0  0  0  0  0  0  0  0  0  0  0  0
  150.7631  139.1405  154.2119 N   0  0  0  0  0  0  0  0  0  0  0  0
  151.0448  139.9565  155.2880 C   0  0  0  0  0  0  0  0  0  0  0  0
  151.9915  139.7303  156.2502 C   0  0  0  0  0  0  0  0  0  0  0  0
  152.0068  140.7531  157.1905 N   0  0  0  0  0  0  0  0  0  0  0  0
  151.0489  141.5624  156.7381 C   0  0  0  0  0  0  0  0  0  0  0  0
  150.4334  141.1630  155.6045 N   0  0  0  0  0  0  0  0  0  0  0  0
  149.3306  141.8389  154.8485 C   0  0  2  0  0  0  0  0  0  0  0  0
  148.0918  141.9499  155.7383 C   0  0  0  0  0  0  0  0  0  0  0  0
  147.4125  140.6274  155.4633 C   0  0  0  0  0  0  0  0  0  0  0  0
  147.6765  140.4596  153.9671 C   0  0  2  0  0  0  0  0  0  0  0  0
  147.6354  138.9966  153.5007 C   0  0  0  0  0  0  0  0  0  0  0  0
  147.7042  138.9349  152.0926 O   0  0  0  0  0  0  0  0  0  0  0  0
  148.9749  141.0240  153.7677 O   0  0  0  0  0  0  0  0  0  0  0  0
  149.7534  142.7937  154.5341 H   0  0  0  0  0  0  0  0  0  0  0  0
  146.9491  141.0607  153.4184 H   0  0  0  0  0  0  0  0  0  0  0  0
  151.3624  137.3553  153.3487 H   0  0  0  0  0  0  0  0  0  0  0  0
  150.7908  142.4749  157.2530 H   0  0  0  0  0  0  0  0  0  0  0  0
  148.3445  142.1129  156.7867 H   0  0  0  0  0  0  0  0  0  0  0  0
  147.4794  142.7812  155.3868 H   0  0  0  0  0  0  0  0  0  0  0  0
  147.8911  139.8310  156.0354 H   0  0  0  0  0  0  0  0  0  0  0  0
  146.3505  140.6338  155.7096 H   0  0  0  0  0  0  0  0  0  0  0  0
  148.4376  138.4092  153.9463 H   0  0  0  0  0  0  0  0  0  0  0  0
  146.6939  138.5358  153.8011 H   0  0  0  0  0  0  0  0  0  0  0  0
  148.1077  138.1167  151.8463 H   0  0  0  0  0  0  0  0  0  0  0  0
  1  2  2  0  0  0  0
  2  7  1  0  0  0  0
  2  3  1  0  0  0  0
  3  4  1  0  0  0  0
  4  5  2  0  0  0  0
  4 20  1  0  0  0  0
  5  6  1  0  0  0  0
  6 10  1  0  0  0  0
  6  7  2  0  0  0  0
  7  8  1  0  0  0  0
  8  9  2  0  0  0  0
  9 10  1  0  0  0  0
  9 21  1  0  0  0  0
 10 11  1  0  0  0  0
 11 18  1  0  0  0  0
 11 17  1  0  0  0  0
 11 12  1  0  0  0  0
 12 13  1  0  0  0  0
 12 22  1  0  0  0  0
 12 23  1  0  0  0  0
 13 14  1  0  0  0  0
 13 24  1  0  0  0  0
 13 25  1  0  0  0  0
 14 19  1  0  0  0  0
 14 15  1  0  0  0  0
 14 17  1  0  0  0  0
 15 16  1  0  0  0  0
 15 26  1  0  0  0  0
 15 27  1  0  0  0  0
 16 28  1  0  0  0  0
M  CHG  1   3  -1
M  END
> <s_m_source_file>
AV-unprocessed.smi

> <i_m_source_file_index>
44

> <i_lp_mmshare_version>
43012

> <i_f3d_flags>
0

> <s_epik_input>
bjFbY0hdW25IXWMoPU8pYyhjMTIpbltjSF1uMltDQEhdM1tDSDJdW0NIMl1bQ0BIXShPMylbQ0gyXVtPSF0=

> <s_epik_cmdline>
J2VwaWtfcHl0aG9uJywgJy1waCcsICc3LjAnLCAnLXRuJywgJzgnLCAnLW1hJywgJzIwMCcsICctbWV0YWxfYmluZGluZycsICctaW1hZScsICc8aW5maWxlLm1hZT4nLCAnLW9tYWUnLCAnPG91dGZpbGUubWFlPic=

> <r_lp_tautomer_probability>
0.85571

> <r_epik_Ionization_Penalty>
2.55863

> <r_epik_Ionization_Penalty_Charging>
1.36424e-10

> <r_epik_Ionization_Penalty_Neutral>
2.55863

> <r_epik_State_Penalty>
2.63326

> <r_epik_Charging_Adjusted_Penalty>
2.63326

> <i_epik_Tot_Q>
-1

> <i_epik_Tot_abs_Q>
1

> <r_epik_Metal_State_Penalty>
0.475154

> <b_epik_Metal_Only>
1

> <s_epik_Chemistry_Notes>
This compound contains an acetal/aminal-like group ( X-CH(R)-Y where X, Y are N, S, or O) that may be acid/base labile, releasing an aldehyde.

> <s_lp_Force_Field>
OPLS_2005

> <r_lp_Energy>
44.8592

> <b_lp_Chiralities_Consistent>
1

> <s_lp_Variant>
AV-unprocessed.smi:44-12

> <Gold.Version>
5.8.1

> <Gold.Id.Protein>
6NUR|6NUR_protein|mol2

> <Gold.PLP.Fitness>
38.1450

> <Gold.PLP.PLP>
-26.3521

> <Gold.PLP.part.hbond>
-5.6255

> <Gold.PLP.part.metal>
0.0000

> <Gold.PLP.part.buried>
3.4956

> <Gold.PLP.part.nonpolar>
-22.7955

> <Gold.PLP.part.repulsive>
2.0773

> <Gold.PLP.ligand.clash>
0.0000

> <Gold.PLP.ligand.torsion>
0.0543

> <Gold.PLP.Chemscore.Hbond>
2.9607

> <Gold.PLP.Chemscore.CHOScore>
1.0000

> <Gold.PLP.Chemscore.Metal>
0.0000

> <Gold.Chemscore.Hbonds>
donor molecule, donor type, donor heavy atom, donor atom, acceptor molecule, acceptor atom, score
      L1  H    16    28       P1  7948  1.00
      P1  H  7997  8010       L1     1  0.72
      P1  H  8011  8017       L1    17  0.39
      P1  H 10752 10765       L1     3  0.77
      L1  C     4    20       P1  7949  1.00

> <Gold.PLP.Chemscore.Internal.Correction>
0.0195

> <Gold.Rescore>
     Score         DG    S(hbond)    S(metal)    S(lipo)     H(rot)  DE(clash)    DE(int)     intcor
      5.73      -7.74       1.55        0.00      24.57       2.26       0.38       1.63       ----

> <Gold.Chemscore.Fitness>
5.7323

> <Gold.Chemscore.DG>
-7.7446

> <Gold.Chemscore.ZeroCoef>
-5.4800

> <Gold.Chemscore.Hbond>
1.5488

> <Gold.Chemscore.Metal>
0.0000

> <Gold.Chemscore.Lipo>
24.5652

> <Gold.Chemscore.Internal_Hbond>
0.0000

> <Gold.Chemscore.DEClash>
0.3819

> <Gold.Chemscore.DEInternal>
1.6305

> <Gold.Chemscore.Rot>
2.2588

> <Gold.Chemscore.Internal.Correction>
   9.000000E+99

> <Gold.Chemscore.Hbonds>
donor molecule, donor type, donor heavy atom, donor atom, acceptor molecule, acceptor atom, score
      L1  H    16    28       P1  7948  0.93
      P1  H  7997  8010       L1     1  0.21
      P1  H  8011  8017       L1    17  0.03
      P1  H 10752 10765       L1     3  0.19

> <Gold.Chemscore.Hbond.Weighted>
-5.1730

> <Gold.Chemscore.Metal.Weighted>
-0.0000

> <Gold.Chemscore.Lipo.Weighted>
-2.8741

> <Gold.Chemscore.Internal_Hbond.Weighted>
0.0000

> <Gold.Chemscore.DEClash.Weighted>
0.3819

> <Gold.Chemscore.DEInternal.Weighted>
1.6305

> <Gold.Chemscore.Rot.Weighted>
5.7825

> <Gold.Chemscore.Internal.Correction.Weighted>
   9.000000E+99

> <Gold.Protein.RotatedTorsions>
[ 6907 6896 6895 6894 ] final  -59.73 input  -60.11 | X-H torsion
[ 7974 7965 7964 7962 ] final  -21.03 input  175.53 | X-H torsion
[ 8008 7997 7996 7995 ] final   32.56 input   59.86 | X-H torsion
[ 10167 10162 10161 10158 ] final   29.77 input  -65.29 | X-H torsion
[ 10718 10713 10712 10709 ] final  145.75 input   66.30 | X-H torsion
[ 10763 10752 10751 10750 ] final  174.72 input  -60.55 | X-H torsion
[ 11005 11000 10999 10996 ] final -145.36 input  -57.11 | X-H torsion

> <Gold.Protein.ActiveResidues>
 VAL166  LYS551  ARG553  GLY616  TRP617  ASP618  TYR619  PRO620  LYS621  CYS622 
 ASP623  PHE694  ASN695  SER759  ASP760  ASP761  ALA762  ILE779  LEU786  VAL792 
 PHE793  MET794  SER795  GLU796  ALA797  LYS798  CYS799  TRP800  GLU811  SER814 

> <Gold.Protein.RotatedAtoms>
  150.7909  134.6931  159.6507 H   0  0  0  0  0  0  0  0  0  0  0  0  # atno 6907 bound_to 6896
  152.4014  134.6277  160.0077 H   0  0  0  0  0  0  0  0  0  0  0  0  # atno 6908 bound_to 6896
  151.6547  133.3282  159.3196 H   0  0  0  0  0  0  0  0  0  0  0  0  # atno 6909 bound_to 6896
  146.1756  140.4284  142.8515 H   0  0  0  0  0  0  0  0  0  0  0  0  # atno 7974 bound_to 7965
  155.1245  140.3251  155.4489 H   0  0  0  0  0  0  0  0  0  0  0  0  # atno 8008 bound_to 7997
  156.2653  140.2021  156.6314 H   0  0  0  0  0  0  0  0  0  0  0  0  # atno 8009 bound_to 7997
  154.6659  140.0542  157.0100 H   0  0  0  0  0  0  0  0  0  0  0  0  # atno 8010 bound_to 7997
  140.4737  144.0724  150.6244 H   0  0  0  0  0  0  0  0  0  0  0  0  # atno 10167 bound_to 10162
  157.3415  131.0936  151.1078 H   0  0  0  0  0  0  0  0  0  0  0  0  # atno 10718 bound_to 10713
  154.4578  135.2767  155.1735 H   0  0  0  0  0  0  0  0  0  0  0  0  # atno 10763 bound_to 10752
  154.3535  135.6145  153.5658 H   0  0  0  0  0  0  0  0  0  0  0  0  # atno 10764 bound_to 10752
  152.9852  135.5817  154.4934 H   0  0  0  0  0  0  0  0  0  0  0  0  # atno 10765 bound_to 10752
  140.7931  134.2945  157.5006 H   0  0  0  0  0  0  0  0  0  0  0  0  # atno 11005 bound_to 11000
  144.8230  140.6582  143.6340 LP  0  0  0  0  0  0  0  0  0  0  0  0  # atno 17320 bound_to 7965
  145.4222  139.1562  143.4068 LP  0  0  0  0  0  0  0  0  0  0  0  0  # atno 17321 bound_to 7965
  140.3946  143.2735  152.0020 LP  0  0  0  0  0  0  0  0  0  0  0  0  # atno 17342 bound_to 10162
  139.4822  144.6049  151.7539 LP  0  0  0  0  0  0  0  0  0  0  0  0  # atno 17343 bound_to 10162
  157.2288  130.6515  149.5841 LP  0  0  0  0  0  0  0  0  0  0  0  0  # atno 17370 bound_to 10713
  155.9708  130.4605  150.6076 LP  0  0  0  0  0  0  0  0  0  0  0  0  # atno 17371 bound_to 10713
  139.8729  134.9386  156.3719 LP  0  0  0  0  0  0  0  0  0  0  0  0  # atno 17394 bound_to 11000
  140.9370  133.7540  156.0097 LP  0  0  0  0  0  0  0  0  0  0  0  0  # atno 17395 bound_to 11000

$$$$
