AV-unprocessed.smi:1830|AV-procd|sdf|7455|dock7
  -GOLD-   22720 9143D 1   1.00000     0.00000
 Structure written by MMmdl.
 53 56  0  0  0  0  0  0  0  0  2 V2000
  151.2045  135.7983  156.0689 O   0  0  0  0  0  0  0  0  0  0  0  0
  150.5917  135.9566  155.0135 C   0  0  0  0  0  0  0  0  0  0  0  0
  150.7205  137.0378  154.2323 N   0  0  0  0  0  0  0  0  0  0  0  0
  151.6053  138.1713  154.4901 C   0  0  0  0  0  0  0  0  0  0  0  0
  151.0613  139.0952  155.5946 C   0  0  1  0  0  0  0  0  0  0  0  0
  152.0654  139.3644  156.7426 C   0  0  0  0  0  0  0  0  0  0  0  0
  151.4936  140.3087  157.6823 N   0  0  0  0  0  0  0  0  0  0  0  0
  152.3365  140.7335  158.7759 C   0  0  0  0  0  0  0  0  0  0  0  0
  151.6423  141.9935  159.3223 C   0  0  0  0  0  0  0  0  0  0  0  0
  150.7395  142.4700  158.1629 C   0  0  0  0  0  0  0  0  0  0  0  0
  151.1345  141.5337  157.0195 C   0  0  2  0  0  0  0  0  0  0  0  0
  150.0936  141.2734  155.9206 C   0  0  0  0  0  0  0  0  0  0  0  0
  150.6465  140.3309  154.9978 O   0  0  0  0  0  0  0  0  0  0  0  0
  149.7072  135.0875  154.4968 N   0  0  0  0  0  0  0  0  0  0  0  0
  149.2605  133.8570  155.0564 C   0  0  0  0  0  0  0  0  0  0  0  0
  149.9681  133.2324  156.1158 C   0  0  0  0  0  0  0  0  0  0  0  0
  149.5436  131.9826  156.6044 C   0  0  0  0  0  0  0  0  0  0  0  0
  148.4271  131.3656  156.0150 C   0  0  0  0  0  0  0  0  0  0  0  0
  147.7838  131.9778  154.9996 N   0  3  0  0  0  0  0  0  0  0  0  0
  148.1343  133.1875  154.4951 C   0  0  0  0  0  0  0  0  0  0  0  0
  147.3586  133.7104  153.4353 N   0  0  0  0  0  0  0  0  0  0  0  0
  147.4040  133.0959  152.1134 C   0  0  0  0  0  0  0  0  0  0  0  0
  146.2104  133.6812  151.3639 C   0  0  0  0  0  0  0  0  0  0  0  0
  145.1687  133.8268  152.4692 C   0  0  0  0  0  0  0  0  0  0  0  0
  145.9999  134.1677  153.7110 C   0  0  0  0  0  0  0  0  0  0  0  0
  150.1785  137.0789  153.3816 H   0  0  0  0  0  0  0  0  0  0  0  0
  152.5752  137.7761  154.7927 H   0  0  0  0  0  0  0  0  0  0  0  0
  151.7853  138.7452  153.5797 H   0  0  0  0  0  0  0  0  0  0  0  0
  150.1740  138.6205  156.0174 H   0  0  0  0  0  0  0  0  0  0  0  0
  152.3132  138.4333  157.2532 H   0  0  0  0  0  0  0  0  0  0  0  0
  152.9980  139.7660  156.3449 H   0  0  0  0  0  0  0  0  0  0  0  0
  152.4437  139.9522  159.5288 H   0  0  0  0  0  0  0  0  0  0  0  0
  153.3315  140.9886  158.4075 H   0  0  0  0  0  0  0  0  0  0  0  0
  151.0397  141.7579  160.2002 H   0  0  0  0  0  0  0  0  0  0  0  0
  152.3726  142.7502  159.6102 H   0  0  0  0  0  0  0  0  0  0  0  0
  149.6889  142.3377  158.4254 H   0  0  0  0  0  0  0  0  0  0  0  0
  150.8974  143.5187  157.9098 H   0  0  0  0  0  0  0  0  0  0  0  0
  152.0253  141.9509  156.5448 H   0  0  0  0  0  0  0  0  0  0  0  0
  149.1657  140.8823  156.3406 H   0  0  0  0  0  0  0  0  0  0  0  0
  149.8502  142.1957  155.3928 H   0  0  0  0  0  0  0  0  0  0  0  0
  149.2195  135.3918  153.6669 H   0  0  0  0  0  0  0  0  0  0  0  0
  150.8483  133.6831  156.5490 H   0  0  0  0  0  0  0  0  0  0  0  0
  150.0759  131.4996  157.4108 H   0  0  0  0  0  0  0  0  0  0  0  0
  148.0340  130.4060  156.3182 H   0  0  0  0  0  0  0  0  0  0  0  0
  148.3452  133.3106  151.6062 H   0  0  0  0  0  0  0  0  0  0  0  0
  147.2924  132.0135  152.1908 H   0  0  0  0  0  0  0  0  0  0  0  0
  146.4658  134.6625  150.9614 H   0  0  0  0  0  0  0  0  0  0  0  0
  145.8750  133.0515  150.5394 H   0  0  0  0  0  0  0  0  0  0  0  0
  144.4124  134.5797  152.2459 H   0  0  0  0  0  0  0  0  0  0  0  0
  144.6595  132.8736  152.6185 H   0  0  0  0  0  0  0  0  0  0  0  0
  145.5831  133.7048  154.6066 H   0  0  0  0  0  0  0  0  0  0  0  0
  146.0166  135.2473  153.8622 H   0  0  0  0  0  0  0  0  0  0  0  0
  146.9781  131.5036  154.5914 H   0  0  0  0  0  0  0  0  0  0  0  0
  1  2  2  0  0  0  0
  2  3  1  0  0  0  0
  2 14  1  0  0  0  0
  3  4  1  0  0  0  0
  3 26  1  0  0  0  0
  4  5  1  0  0  0  0
  4 27  1  0  0  0  0
  4 28  1  0  0  0  0
  5 13  1  0  0  0  0
  5  6  1  0  0  0  0
  5 29  1  0  0  0  0
  6  7  1  0  0  0  0
  6 30  1  0  0  0  0
  6 31  1  0  0  0  0
  7 11  1  0  0  0  0
  7  8  1  0  0  0  0
  8  9  1  0  0  0  0
  8 32  1  0  0  0  0
  8 33  1  0  0  0  0
  9 10  1  0  0  0  0
  9 34  1  0  0  0  0
  9 35  1  0  0  0  0
 10 11  1  0  0  0  0
 10 36  1  0  0  0  0
 10 37  1  0  0  0  0
 11 12  1  0  0  0  0
 11 38  1  0  0  0  0
 12 13  1  0  0  0  0
 12 39  1  0  0  0  0
 12 40  1  0  0  0  0
 14 15  1  0  0  0  0
 14 41  1  0  0  0  0
 15 20  1  0  0  0  0
 15 16  2  0  0  0  0
 16 17  1  0  0  0  0
 16 42  1  0  0  0  0
 17 18  2  0  0  0  0
 17 43  1  0  0  0  0
 18 19  1  0  0  0  0
 18 44  1  0  0  0  0
 19 20  2  0  0  0  0
 19 53  1  0  0  0  0
 20 21  1  0  0  0  0
 21 25  1  0  0  0  0
 21 22  1  0  0  0  0
 22 23  1  0  0  0  0
 22 45  1  0  0  0  0
 22 46  1  0  0  0  0
 23 24  1  0  0  0  0
 23 47  1  0  0  0  0
 23 48  1  0  0  0  0
 24 25  1  0  0  0  0
 24 49  1  0  0  0  0
 24 50  1  0  0  0  0
 25 51  1  0  0  0  0
 25 52  1  0  0  0  0
M  CHG  1  19   1
M  END
> <s_m_source_file>
AV-unprocessed.smi

> <i_m_source_file_index>
1830

> <i_lp_mmshare_version>
43012

> <i_f3d_flags>
0

> <s_epik_input>
W0NIMl0xW0NIMl1bQ0gyXVtDQEhdKE4xMilbQ0gyXU9bQ0BASF0oW0NIMl0yKVtDSDJdW05IXUMoPU8pW05IXWMzW2NIXVtjSF1bY0hdbmMzTjRbQ0gyXVtDSDJdW0NIMl1bQ0gyXTQ=

> <s_epik_cmdline>
J2VwaWtfcHl0aG9uJywgJy1waCcsICc3LjAnLCAnLXRuJywgJzgnLCAnLW1hJywgJzIwMCcsICctbWV0YWxfYmluZGluZycsICctaW1hZScsICc8aW5maWxlLm1hZT4nLCAnLW9tYWUnLCAnPG91dGZpbGUubWFlPic=

> <r_epik_Ionization_Penalty>
2.19264

> <r_epik_Ionization_Penalty_Charging>
1.12452

> <r_epik_Ionization_Penalty_Neutral>
1.06812

> <r_epik_State_Penalty>
2.334

> <r_epik_Charging_Adjusted_Penalty>
3.45852

> <i_epik_Tot_Q>
1

> <i_epik_Tot_abs_Q>
1

> <r_epik_Metal_State_Penalty>
2.41144

> <b_epik_Metal_Only>
0

> <s_lp_Force_Field>
OPLS_2005

> <r_lp_Energy>
84.0052

> <b_lp_Chiralities_Consistent>
1

> <s_lp_Variant>
AV-unprocessed.smi:1830-24

> <Gold.Version>
5.8.1

> <Gold.Id.Protein>
6NUR|6NUR_protein|mol2

> <Gold.PLP.Fitness>
48.7068

> <Gold.PLP.PLP>
-38.9301

> <Gold.PLP.part.hbond>
-5.6151

> <Gold.PLP.part.metal>
0.0000

> <Gold.PLP.part.buried>
-4.6520

> <Gold.PLP.part.nonpolar>
-29.8463

> <Gold.PLP.part.repulsive>
0.4138

> <Gold.PLP.ligand.clash>
0.0000

> <Gold.PLP.ligand.torsion>
1.0462

> <Gold.PLP.Chemscore.Hbond>
3.8272

> <Gold.PLP.Chemscore.CHOScore>
0.0000

> <Gold.PLP.Chemscore.Metal>
0.0000

> <Gold.Chemscore.Hbonds>
donor molecule, donor type, donor heavy atom, donor atom, acceptor molecule, acceptor atom, score
      L1  H     3    26       P1  7948  0.70
      L1  H    14    41       P1  7948  1.00
      P1  H  7989  7998       L1    13  1.00
      P1  H 10752 10764       L1     1  0.27

> <Gold.PLP.Chemscore.Internal.Correction>
0.3877

> <Gold.Rescore>
     Score         DG    S(hbond)    S(metal)    S(lipo)     H(rot)  DE(clash)    DE(int)     intcor
     19.04     -21.51       2.67        0.00      91.24       1.40       0.06       2.41       ----

> <Gold.Chemscore.Fitness>
19.0359

> <Gold.Chemscore.DG>
-21.5142

> <Gold.Chemscore.ZeroCoef>
-5.4800

> <Gold.Chemscore.Hbond>
2.6746

> <Gold.Chemscore.Metal>
0.0000

> <Gold.Chemscore.Lipo>
91.2370

> <Gold.Chemscore.Internal_Hbond>
0.0000

> <Gold.Chemscore.DEClash>
0.0641

> <Gold.Chemscore.DEInternal>
2.4142

> <Gold.Chemscore.Rot>
1.3959

> <Gold.Chemscore.Internal.Correction>
   9.000000E+99

> <Gold.Chemscore.Hbonds>
donor molecule, donor type, donor heavy atom, donor atom, acceptor molecule, acceptor atom, score
      L1  H     3    26       P1  7948  0.10
      L1  H    14    41       P1  7948  0.43
      P1  H  7989  7998       L1    13  0.90
      P1  H 10752 10764       L1     1  0.01

> <Gold.Chemscore.Hbond.Weighted>
-8.9331

> <Gold.Chemscore.Metal.Weighted>
-0.0000

> <Gold.Chemscore.Lipo.Weighted>
-10.6747

> <Gold.Chemscore.Internal_Hbond.Weighted>
0.0000

> <Gold.Chemscore.DEClash.Weighted>
0.0641

> <Gold.Chemscore.DEInternal.Weighted>
2.4142

> <Gold.Chemscore.Rot.Weighted>
3.5736

> <Gold.Chemscore.Internal.Correction.Weighted>
   9.000000E+99

> <Gold.Protein.RotatedTorsions>
[ 6907 6896 6895 6894 ] final  149.98 input  -60.11 | X-H torsion
[ 7974 7965 7964 7962 ] final  -68.14 input  175.53 | X-H torsion
[ 8008 7997 7996 7995 ] final -147.71 input   59.86 | X-H torsion
[ 10167 10162 10161 10158 ] final  176.49 input  -65.29 | X-H torsion
[ 10718 10713 10712 10709 ] final  102.47 input   66.30 | X-H torsion
[ 10763 10752 10751 10750 ] final  -39.49 input  -60.55 | X-H torsion
[ 11005 11000 10999 10996 ] final -133.11 input  -57.11 | X-H torsion

> <Gold.Protein.ActiveResidues>
 VAL166  LYS551  ARG553  GLY616  TRP617  ASP618  TYR619  PRO620  LYS621  CYS622 
 ASP623  PHE694  ASN695  SER759  ASP760  ASP761  ALA762  ILE779  LEU786  VAL792 
 PHE793  MET794  SER795  GLU796  ALA797  LYS798  CYS799  TRP800  GLU811  SER814 

> <Gold.Protein.RotatedAtoms>
  152.1206  133.4351  159.4673 H   0  0  0  0  0  0  0  0  0  0  0  0  # atno 6907 bound_to 6896
  150.6872  134.2539  159.4531 H   0  0  0  0  0  0  0  0  0  0  0  0  # atno 6908 bound_to 6896
  152.0416  134.9708  160.0624 H   0  0  0  0  0  0  0  0  0  0  0  0  # atno 6909 bound_to 6896
  145.7202  140.9041  143.0634 H   0  0  0  0  0  0  0  0  0  0  0  0  # atno 7974 bound_to 7965
  155.5800  140.0642  157.2785 H   0  0  0  0  0  0  0  0  0  0  0  0  # atno 8008 bound_to 7997
  154.4335  140.1854  156.1013 H   0  0  0  0  0  0  0  0  0  0  0  0  # atno 8009 bound_to 7997
  156.0312  140.3306  155.7146 H   0  0  0  0  0  0  0  0  0  0  0  0  # atno 8010 bound_to 7997
  139.5216  144.2909  152.0464 H   0  0  0  0  0  0  0  0  0  0  0  0  # atno 10167 bound_to 10162
  157.6801  131.0754  150.5408 H   0  0  0  0  0  0  0  0  0  0  0  0  # atno 10718 bound_to 10713
  153.9303  135.6772  153.4745 H   0  0  0  0  0  0  0  0  0  0  0  0  # atno 10763 bound_to 10752
  153.0983  135.4840  154.8816 H   0  0  0  0  0  0  0  0  0  0  0  0  # atno 10764 bound_to 10752
  154.7431  135.3165  154.8650 H   0  0  0  0  0  0  0  0  0  0  0  0  # atno 10765 bound_to 10752
  140.9110  134.1567  157.4389 H   0  0  0  0  0  0  0  0  0  0  0  0  # atno 11005 bound_to 11000
  144.6918  139.9192  143.7467 LP  0  0  0  0  0  0  0  0  0  0  0  0  # atno 17320 bound_to 7965
  146.0632  139.3624  143.0568 LP  0  0  0  0  0  0  0  0  0  0  0  0  # atno 17321 bound_to 7965
  140.2360  144.4319  150.6280 LP  0  0  0  0  0  0  0  0  0  0  0  0  # atno 17342 bound_to 10162
  140.6323  143.2189  151.6469 LP  0  0  0  0  0  0  0  0  0  0  0  0  # atno 17343 bound_to 10162
  156.5715  130.4281  149.6017 LP  0  0  0  0  0  0  0  0  0  0  0  0  # atno 17370 bound_to 10713
  156.2736  130.7031  151.1836 LP  0  0  0  0  0  0  0  0  0  0  0  0  # atno 17371 bound_to 10713
  139.8757  134.9936  156.5651 LP  0  0  0  0  0  0  0  0  0  0  0  0  # atno 17394 bound_to 11000
  140.8109  133.8429  155.8809 LP  0  0  0  0  0  0  0  0  0  0  0  0  # atno 17395 bound_to 11000

$$$$
