AV-unprocessed.smi:1817|AV-procd|sdf|7374|dock2
  -GOLD-   22720 9 43D 1   1.00000     0.00000
 Structure written by MMmdl.
 42 43  0  0  0  0  0  0  0  0  3 V2000
  145.8152  142.6971  156.8690 C   0  0  0  0  0  0  0  0  0  0  0  0
  147.0918  142.1265  157.5032 C   0  0  0  0  0  0  0  0  0  0  0  0
  148.2329  142.0935  156.5554 N   0  3  0  0  0  0  0  0  0  0  0  0
  147.9443  141.2732  155.3539 C   0  0  0  0  0  0  0  0  0  0  0  0
  149.1390  141.3102  154.3793 C   0  0  0  0  0  0  0  0  0  0  0  0
  150.3611  140.7803  155.0004 N   0  0  0  0  0  0  0  0  0  0  0  0
  150.3484  139.3354  155.3241 C   0  0  2  0  0  0  0  0  0  0  0  0
  151.4444  139.0144  156.3685 C   0  0  0  0  0  0  0  0  0  0  0  0
  150.5340  138.4621  154.0566 C   0  0  0  0  0  0  0  0  0  0  0  0
  150.0158  137.1126  154.2485 N   0  0  0  0  0  0  0  0  0  0  0  0
  150.6051  136.1534  154.9738 C   0  0  0  0  0  0  0  0  0  0  0  0
  151.6683  136.3875  155.5528 O   0  0  0  0  0  0  0  0  0  0  0  0
  149.9271  134.9838  154.9807 N   0  5  0  0  0  0  0  0  0  0  0  0
  150.3923  133.9423  155.6902 C   0  0  0  0  0  0  0  0  0  0  0  0
  151.0926  134.1030  156.8246 N   0  0  0  0  0  0  0  0  0  0  0  0
  151.4841  132.9014  157.3997 N   0  0  0  0  0  0  0  0  0  0  0  0
  151.0734  131.8601  156.6763 C   0  0  0  0  0  0  0  0  0  0  0  0
  150.1753  132.2523  155.2253 S   0  0  0  0  0  0  0  0  0  0  0  0
  150.6537  141.6662  156.1369 C   0  0  0  0  0  0  0  0  0  0  0  0
  149.5132  141.6708  157.1789 C   0  0  0  0  0  0  0  0  0  0  0  0
  144.9773  142.6225  157.5627 H   0  0  0  0  0  0  0  0  0  0  0  0
  145.5447  142.1483  155.9663 H   0  0  0  0  0  0  0  0  0  0  0  0
  145.9232  143.7490  156.6059 H   0  0  0  0  0  0  0  0  0  0  0  0
  147.3633  142.6901  158.3971 H   0  0  0  0  0  0  0  0  0  0  0  0
  146.8752  141.1097  157.8334 H   0  0  0  0  0  0  0  0  0  0  0  0
  147.6993  140.2500  155.6422 H   0  0  0  0  0  0  0  0  0  0  0  0
  147.0631  141.6727  154.8507 H   0  0  0  0  0  0  0  0  0  0  0  0
  148.9032  140.7902  153.4528 H   0  0  0  0  0  0  0  0  0  0  0  0
  149.3220  142.3420  154.0755 H   0  0  0  0  0  0  0  0  0  0  0  0
  149.3863  139.0676  155.7587 H   0  0  0  0  0  0  0  0  0  0  0  0
  151.5230  137.9451  156.5624 H   0  0  0  0  0  0  0  0  0  0  0  0
  151.2403  139.4676  157.3374 H   0  0  0  0  0  0  0  0  0  0  0  0
  152.4241  139.3563  156.0325 H   0  0  0  0  0  0  0  0  0  0  0  0
  149.9893  138.8778  153.2096 H   0  0  0  0  0  0  0  0  0  0  0  0
  151.5876  138.4106  153.7772 H   0  0  0  0  0  0  0  0  0  0  0  0
  149.1444  136.8841  153.7932 H   0  0  0  0  0  0  0  0  0  0  0  0
  151.3043  130.8554  156.9968 H   0  0  0  0  0  0  0  0  0  0  0  0
  151.6008  141.4104  156.6081 H   0  0  0  0  0  0  0  0  0  0  0  0
  150.7958  142.6795  155.7584 H   0  0  0  0  0  0  0  0  0  0  0  0
  149.7782  142.3639  157.9766 H   0  0  0  0  0  0  0  0  0  0  0  0
  149.4024  140.6922  157.6471 H   0  0  0  0  0  0  0  0  0  0  0  0
  148.3659  143.0377  156.2227 H   0  0  0  0  0  0  0  0  0  0  0  0
  1  2  1  0  0  0  0
  1 21  1  0  0  0  0
  1 22  1  0  0  0  0
  1 23  1  0  0  0  0
  2  3  1  0  0  0  0
  2 24  1  0  0  0  0
  2 25  1  0  0  0  0
  3 20  1  0  0  0  0
  3  4  1  0  0  0  0
  3 42  1  0  0  0  0
  4  5  1  0  0  0  0
  4 26  1  0  0  0  0
  4 27  1  0  0  0  0
  5  6  1  0  0  0  0
  5 28  1  0  0  0  0
  5 29  1  0  0  0  0
  6  7  1  0  0  0  0
  6 19  1  0  0  0  0
  7  8  1  0  0  0  0
  7  9  1  0  0  0  0
  7 30  1  0  0  0  0
  8 31  1  0  0  0  0
  8 32  1  0  0  0  0
  8 33  1  0  0  0  0
  9 10  1  0  0  0  0
  9 34  1  0  0  0  0
  9 35  1  0  0  0  0
 10 11  1  0  0  0  0
 10 36  1  0  0  0  0
 11 12  2  0  0  0  0
 11 13  1  0  0  0  0
 13 14  1  0  0  0  0
 14 18  1  0  0  0  0
 14 15  2  0  0  0  0
 15 16  1  0  0  0  0
 16 17  2  0  0  0  0
 17 18  1  0  0  0  0
 17 37  1  0  0  0  0
 19 20  1  0  0  0  0
 19 38  1  0  0  0  0
 19 39  1  0  0  0  0
 20 40  1  0  0  0  0
 20 41  1  0  0  0  0
M  CHG  1   3   1
M  CHG  1  13  -1
M  END
> <s_m_source_file>
AV-unprocessed.smi

> <i_m_source_file_index>
1817

> <i_lp_mmshare_version>
43012

> <i_f3d_flags>
0

> <s_epik_input>
W0NIM11bQ0gyXU4xW0NIMl1bQ0gyXU4oW0NIMl1bQ0gyXTEpW0NASF0oW0NIM10pW0NIMl1bTkhdQyg9TylbTkhdYzJubltjSF1zMg==

> <s_epik_cmdline>
J2VwaWtfcHl0aG9uJywgJy1waCcsICc3LjAnLCAnLXRuJywgJzgnLCAnLW1hJywgJzIwMCcsICctbWV0YWxfYmluZGluZycsICctaW1hZScsICc8aW5maWxlLm1hZT4nLCAnLW9tYWUnLCAnPG91dGZpbGUubWFlPic=

> <r_lp_tautomer_probability>
1

> <r_epik_Ionization_Penalty>
3.58527

> <r_epik_Ionization_Penalty_Charging>
3.54445

> <r_epik_Ionization_Penalty_Neutral>
0.0408199

> <r_epik_State_Penalty>
3.6633

> <r_epik_Charging_Adjusted_Penalty>
7.20774

> <i_epik_Tot_Q>
0

> <i_epik_Tot_abs_Q>
2

> <r_epik_Metal_State_Penalty>
0.683711

> <b_epik_Metal_Only>
1

> <s_lp_Force_Field>
OPLS_2005

> <r_lp_Energy>
15.1911

> <b_lp_Chiralities_Consistent>
1

> <s_lp_Variant>
AV-unprocessed.smi:1817-7

> <Gold.Version>
5.8.1

> <Gold.Id.Protein>
6NUR|6NUR_protein|mol2

> <Gold.PLP.Fitness>
47.0091

> <Gold.PLP.PLP>
-32.8030

> <Gold.PLP.part.hbond>
-6.2890

> <Gold.PLP.part.metal>
0.0000

> <Gold.PLP.part.buried>
-4.6753

> <Gold.PLP.part.nonpolar>
-22.0171

> <Gold.PLP.part.repulsive>
0.3412

> <Gold.PLP.ligand.clash>
0.0000

> <Gold.PLP.ligand.torsion>
0.8695

> <Gold.PLP.Chemscore.Hbond>
5.2512

> <Gold.PLP.Chemscore.CHOScore>
0.0000

> <Gold.PLP.Chemscore.Metal>
0.0000

> <Gold.Chemscore.Hbonds>
donor molecule, donor type, donor heavy atom, donor atom, acceptor molecule, acceptor atom, score
      L1  H     3    42       P1  8028  2.00
      L1  H    10    36       P1  7948  0.48
      P1  H  6896  6909       L1    16  0.91
      P1  H  7989  7998       L1     6  0.83
      P1  H 10752 10765       L1    12  1.00

> <Gold.PLP.Chemscore.Internal.Correction>
0.1915

> <Gold.Rescore>
     Score         DG    S(hbond)    S(metal)    S(lipo)     H(rot)  DE(clash)    DE(int)     intcor
     14.31     -18.22       3.14        0.00      60.37       1.88       0.12       3.79       ----

> <Gold.Chemscore.Fitness>
14.3136

> <Gold.Chemscore.DG>
-18.2212

> <Gold.Chemscore.ZeroCoef>
-5.4800

> <Gold.Chemscore.Hbond>
3.1427

> <Gold.Chemscore.Metal>
0.0000

> <Gold.Chemscore.Lipo>
60.3731

> <Gold.Chemscore.Internal_Hbond>
0.0000

> <Gold.Chemscore.DEClash>
0.1205

> <Gold.Chemscore.DEInternal>
3.7871

> <Gold.Chemscore.Rot>
1.8825

> <Gold.Chemscore.Internal.Correction>
   9.000000E+99

> <Gold.Chemscore.Hbonds>
donor molecule, donor type, donor heavy atom, donor atom, acceptor molecule, acceptor atom, score
      L1  H     3    42       P1  8028  0.82
      L1  H    10    36       P1  7948  0.45
      P1  H  6896  6909       L1    16  0.31
      P1  H  7989  7998       L1     6  0.09
      P1  H 10752 10765       L1    12  0.78

> <Gold.Chemscore.Hbond.Weighted>
-10.4967

> <Gold.Chemscore.Metal.Weighted>
-0.0000

> <Gold.Chemscore.Lipo.Weighted>
-7.0637

> <Gold.Chemscore.Internal_Hbond.Weighted>
0.0000

> <Gold.Chemscore.DEClash.Weighted>
0.1205

> <Gold.Chemscore.DEInternal.Weighted>
3.7871

> <Gold.Chemscore.Rot.Weighted>
4.8191

> <Gold.Chemscore.Internal.Correction.Weighted>
   9.000000E+99

> <Gold.Protein.RotatedTorsions>
[ 6907 6896 6895 6894 ] final  -50.01 input  -60.11 | X-H torsion
[ 7974 7965 7964 7962 ] final   11.34 input  175.53 | X-H torsion
[ 8008 7997 7996 7995 ] final  102.34 input   59.86 | X-H torsion
[ 10167 10162 10161 10158 ] final   53.74 input  -65.29 | X-H torsion
[ 10718 10713 10712 10709 ] final   69.75 input   66.30 | X-H torsion
[ 10763 10752 10751 10750 ] final -167.33 input  -60.55 | X-H torsion
[ 11005 11000 10999 10996 ] final  -71.06 input  -57.11 | X-H torsion

> <Gold.Protein.ActiveResidues>
 VAL166  LYS551  ARG553  GLY616  TRP617  ASP618  TYR619  PRO620  LYS621  CYS622 
 ASP623  PHE694  ASN695  SER759  ASP760  ASP761  ALA762  ILE779  LEU786  VAL792 
 PHE793  MET794  SER795  GLU796  ALA797  LYS798  CYS799  TRP800  GLU811  SER814 

> <Gold.Protein.RotatedAtoms>
  150.8749  134.8130  159.7181 H   0  0  0  0  0  0  0  0  0  0  0  0  # atno 6907 bound_to 6896
  152.4740  134.4888  159.9698 H   0  0  0  0  0  0  0  0  0  0  0  0  # atno 6908 bound_to 6896
  151.4971  133.3474  159.2898 H   0  0  0  0  0  0  0  0  0  0  0  0  # atno 6909 bound_to 6896
  146.2372  139.9499  142.8472 H   0  0  0  0  0  0  0  0  0  0  0  0  # atno 7974 bound_to 7965
  156.1383  140.3183  155.8456 H   0  0  0  0  0  0  0  0  0  0  0  0  # atno 8008 bound_to 7997
  155.4202  140.0511  157.3043 H   0  0  0  0  0  0  0  0  0  0  0  0  # atno 8009 bound_to 7997
  154.4955  140.2109  155.9468 H   0  0  0  0  0  0  0  0  0  0  0  0  # atno 8010 bound_to 7997
  140.2375  144.3620  150.6392 H   0  0  0  0  0  0  0  0  0  0  0  0  # atno 10167 bound_to 10162
  157.6363  130.9442  150.0557 H   0  0  0  0  0  0  0  0  0  0  0  0  # atno 10718 bound_to 10713
  154.6743  135.2944  154.9700 H   0  0  0  0  0  0  0  0  0  0  0  0  # atno 10763 bound_to 10752
  154.0716  135.6617  153.4829 H   0  0  0  0  0  0  0  0  0  0  0  0  # atno 10764 bound_to 10752
  153.0506  135.5176  154.7754 H   0  0  0  0  0  0  0  0  0  0  0  0  # atno 10765 bound_to 10752
  141.1585  133.6807  156.6847 H   0  0  0  0  0  0  0  0  0  0  0  0  # atno 11005 bound_to 11000
  145.1871  140.9794  143.4232 LP  0  0  0  0  0  0  0  0  0  0  0  0  # atno 17320 bound_to 7965
  144.9890  139.3708  143.6224 LP  0  0  0  0  0  0  0  0  0  0  0  0  # atno 17321 bound_to 7965
  140.6139  143.2171  151.6831 LP  0  0  0  0  0  0  0  0  0  0  0  0  # atno 17342 bound_to 10162
  139.5088  144.3597  152.0574 LP  0  0  0  0  0  0  0  0  0  0  0  0  # atno 17343 bound_to 10162
  156.1605  130.3644  149.9306 LP  0  0  0  0  0  0  0  0  0  0  0  0  # atno 17370 bound_to 10713
  156.7306  130.9041  151.3625 LP  0  0  0  0  0  0  0  0  0  0  0  0  # atno 17371 bound_to 10713
  140.3075  134.8113  157.4149 LP  0  0  0  0  0  0  0  0  0  0  0  0  # atno 17394 bound_to 11000
  140.1207  134.5223  155.8186 LP  0  0  0  0  0  0  0  0  0  0  0  0  # atno 17395 bound_to 11000

$$$$
