AV-unprocessed.smi:1264|AV-procd|sdf|5314|dock7
  -GOLD-   22720 4443D 1   1.00000     0.00000
 Structure written by MMmdl.
 43 43  0  0  0  0  0  0  0  0  1 V2000
  146.1108  144.5672  159.9637 C   0  0  0  0  0  0  0  0  0  0  0  0
  146.5462  143.9297  158.7309 N   0  0  0  0  0  0  0  0  0  0  0  0
  146.4327  142.6178  158.4791 C   0  0  0  0  0  0  0  0  0  0  0  0
  145.9546  141.8170  159.2852 O   0  0  0  0  0  0  0  0  0  0  0  0
  146.9574  142.1394  157.1143 C   0  0  1  0  0  0  0  0  0  0  0  0
  146.1387  142.8566  156.0148 C   0  0  0  0  0  0  0  0  0  0  0  0
  146.6074  142.5921  154.5656 C   0  0  0  0  0  0  0  0  0  0  0  0
  145.7442  143.3797  153.5686 C   0  0  0  0  0  0  0  0  0  0  0  0
  146.6040  141.0960  154.2096 C   0  0  0  0  0  0  0  0  0  0  0  0
  148.3646  142.5083  156.9682 N   0  0  0  0  0  0  0  0  0  0  0  0
  149.3743  142.0484  157.7236 C   0  0  0  0  0  0  0  0  0  0  0  0
  149.2322  141.2115  158.6146 O   0  0  0  0  0  0  0  0  0  0  0  0
  150.7541  142.6383  157.4378 C   0  0  0  0  0  0  0  0  0  0  0  0
  151.8153  141.7079  157.9671 C   0  0  0  0  0  0  0  0  0  0  0  0
  152.1515  140.4066  157.4955 C   0  0  0  0  0  0  0  0  0  0  0  0
  151.5405  139.6393  156.3583 C   0  0  0  0  0  0  0  0  0  0  0  0
  153.1348  139.8655  158.1950 N   0  0  0  0  0  0  0  0  0  0  0  0
  153.4745  140.8080  159.1702 O   0  0  0  0  0  0  0  0  0  0  0  0
  152.6756  141.8940  159.0147 C   0  0  0  0  0  0  0  0  0  0  0  0
  152.8784  143.0146  159.9777 C   0  0  0  0  0  0  0  0  0  0  0  0
  146.3101  145.6379  159.9189 H   0  0  0  0  0  0  0  0  0  0  0  0
  146.6434  144.1560  160.8224 H   0  0  0  0  0  0  0  0  0  0  0  0
  145.0401  144.4255  160.1168 H   0  0  0  0  0  0  0  0  0  0  0  0
  146.9540  144.5223  158.0220 H   0  0  0  0  0  0  0  0  0  0  0  0
  146.8381  141.0576  157.0368 H   0  0  0  0  0  0  0  0  0  0  0  0
  145.0885  142.5698  156.0965 H   0  0  0  0  0  0  0  0  0  0  0  0
  146.1649  143.9326  156.1981 H   0  0  0  0  0  0  0  0  0  0  0  0
  147.6287  142.9580  154.4560 H   0  0  0  0  0  0  0  0  0  0  0  0
  144.7007  143.0649  153.6126 H   0  0  0  0  0  0  0  0  0  0  0  0
  146.0925  143.2351  152.5456 H   0  0  0  0  0  0  0  0  0  0  0  0
  145.7780  144.4496  153.7766 H   0  0  0  0  0  0  0  0  0  0  0  0
  145.6137  140.6592  154.3412 H   0  0  0  0  0  0  0  0  0  0  0  0
  147.3041  140.5329  154.8261 H   0  0  0  0  0  0  0  0  0  0  0  0
  146.8985  140.9411  153.1711 H   0  0  0  0  0  0  0  0  0  0  0  0
  148.5793  143.2008  156.2660 H   0  0  0  0  0  0  0  0  0  0  0  0
  150.8588  142.7935  156.3634 H   0  0  0  0  0  0  0  0  0  0  0  0
  150.8254  143.6267  157.8933 H   0  0  0  0  0  0  0  0  0  0  0  0
  150.4546  139.7358  156.3612 H   0  0  0  0  0  0  0  0  0  0  0  0
  151.7761  138.5760  156.4165 H   0  0  0  0  0  0  0  0  0  0  0  0
  151.9040  140.0092  155.3996 H   0  0  0  0  0  0  0  0  0  0  0  0
  152.5904  143.9674  159.5338 H   0  0  0  0  0  0  0  0  0  0  0  0
  153.9237  143.0862  160.2787 H   0  0  0  0  0  0  0  0  0  0  0  0
  152.2767  142.8638  160.8740 H   0  0  0  0  0  0  0  0  0  0  0  0
  1  2  1  0  0  0  0
  1 21  1  0  0  0  0
  1 22  1  0  0  0  0
  1 23  1  0  0  0  0
  2  3  1  0  0  0  0
  2 24  1  0  0  0  0
  3  4  2  0  0  0  0
  3  5  1  0  0  0  0
  5  6  1  0  0  0  0
  5 10  1  0  0  0  0
  5 25  1  0  0  0  0
  6  7  1  0  0  0  0
  6 26  1  0  0  0  0
  6 27  1  0  0  0  0
  7  8  1  0  0  0  0
  7  9  1  0  0  0  0
  7 28  1  0  0  0  0
  8 29  1  0  0  0  0
  8 30  1  0  0  0  0
  8 31  1  0  0  0  0
  9 32  1  0  0  0  0
  9 33  1  0  0  0  0
  9 34  1  0  0  0  0
 10 11  1  0  0  0  0
 10 35  1  0  0  0  0
 11 12  2  0  0  0  0
 11 13  1  0  0  0  0
 13 14  1  0  0  0  0
 13 36  1  0  0  0  0
 13 37  1  0  0  0  0
 14 19  2  0  0  0  0
 14 15  1  0  0  0  0
 15 16  1  0  0  0  0
 15 17  2  0  0  0  0
 16 38  1  0  0  0  0
 16 39  1  0  0  0  0
 16 40  1  0  0  0  0
 17 18  1  0  0  0  0
 18 19  1  0  0  0  0
 19 20  1  0  0  0  0
 20 41  1  0  0  0  0
 20 42  1  0  0  0  0
 20 43  1  0  0  0  0
M  END
> <s_m_source_file>
AV-unprocessed.smi

> <i_m_source_file_index>
1264

> <i_lp_mmshare_version>
43012

> <i_f3d_flags>
0

> <s_epik_input>
W0NIM11bTkhdQyg9TylbQ0BIXShbQ0gyXVtDSF0oW0NIM10pW0NIM10pW05IXUMoPU8pW0NIMl1jMWMoW0NIM10pbm9jMVtDSDNd

> <s_epik_cmdline>
J2VwaWtfcHl0aG9uJywgJy1waCcsICc3LjAnLCAnLXRuJywgJzgnLCAnLW1hJywgJzIwMCcsICctbWV0YWxfYmluZGluZycsICctaW1hZScsICc8aW5maWxlLm1hZT4nLCAnLW9tYWUnLCAnPG91dGZpbGUubWFlPic=

> <r_lp_tautomer_probability>
1

> <r_epik_Ionization_Penalty>
6.00781e-08

> <r_epik_Ionization_Penalty_Charging>
0

> <r_epik_Ionization_Penalty_Neutral>
6.00781e-08

> <r_epik_State_Penalty>
-0

> <r_epik_Charging_Adjusted_Penalty>
0

> <i_epik_Tot_Q>
0

> <i_epik_Tot_abs_Q>
0

> <r_epik_Metal_State_Penalty>
-0

> <b_epik_Metal_Only>
0

> <s_lp_Force_Field>
OPLS_2005

> <r_lp_Energy>
-0.987692

> <b_lp_Chiralities_Consistent>
1

> <s_lp_Variant>
AV-unprocessed.smi:1264-2

> <Gold.Version>
5.8.1

> <Gold.Id.Protein>
6NUR|6NUR_protein|mol2

> <Gold.PLP.Fitness>
44.6709

> <Gold.PLP.PLP>
-33.4188

> <Gold.PLP.part.hbond>
-5.1722

> <Gold.PLP.part.metal>
0.0000

> <Gold.PLP.part.buried>
-1.7772

> <Gold.PLP.part.nonpolar>
-24.4517

> <Gold.PLP.part.repulsive>
0.0638

> <Gold.PLP.ligand.clash>
0.0000

> <Gold.PLP.ligand.torsion>
0.3912

> <Gold.PLP.Chemscore.Hbond>
3.9920

> <Gold.PLP.Chemscore.CHOScore>
0.0000

> <Gold.PLP.Chemscore.Metal>
0.0000

> <Gold.Chemscore.Hbonds>
donor molecule, donor type, donor heavy atom, donor atom, acceptor molecule, acceptor atom, score
      L1  H     2    24       P1  8029  1.00
      L1  H    10    35       P1  8028  1.00
      P1  H  6934  6946       L1     4  1.00
      P1  H  7997  8009       L1    17  0.90

> <Gold.PLP.Chemscore.Internal.Correction>
0.0584

> <Gold.Rescore>
     Score         DG    S(hbond)    S(metal)    S(lipo)     H(rot)  DE(clash)    DE(int)     intcor
     18.18     -18.64       2.78        0.00      79.03       2.09       0.12       0.34       ----

> <Gold.Chemscore.Fitness>
18.1792

> <Gold.Chemscore.DG>
-18.6424

> <Gold.Chemscore.ZeroCoef>
-5.4800

> <Gold.Chemscore.Hbond>
2.7768

> <Gold.Chemscore.Metal>
0.0000

> <Gold.Chemscore.Lipo>
79.0278

> <Gold.Chemscore.Internal_Hbond>
0.0000

> <Gold.Chemscore.DEClash>
0.1195

> <Gold.Chemscore.DEInternal>
0.3437

> <Gold.Chemscore.Rot>
2.0931

> <Gold.Chemscore.Internal.Correction>
   9.000000E+99

> <Gold.Chemscore.Hbonds>
donor molecule, donor type, donor heavy atom, donor atom, acceptor molecule, acceptor atom, score
      L1  H     2    24       P1  8029  0.55
      L1  H    10    35       P1  8028  0.89
      P1  H  6934  6946       L1     4  0.95
      P1  H  7997  8009       L1    17  0.09

> <Gold.Chemscore.Hbond.Weighted>
-9.2746

> <Gold.Chemscore.Metal.Weighted>
-0.0000

> <Gold.Chemscore.Lipo.Weighted>
-9.2463

> <Gold.Chemscore.Internal_Hbond.Weighted>
0.0000

> <Gold.Chemscore.DEClash.Weighted>
0.1195

> <Gold.Chemscore.DEInternal.Weighted>
0.3437

> <Gold.Chemscore.Rot.Weighted>
5.3584

> <Gold.Chemscore.Internal.Correction.Weighted>
   9.000000E+99

> <Gold.Protein.RotatedTorsions>
[ 6907 6896 6895 6894 ] final   82.45 input  -60.11 | X-H torsion
[ 7974 7965 7964 7962 ] final  101.36 input  175.53 | X-H torsion
[ 8008 7997 7996 7995 ] final  147.58 input   59.86 | X-H torsion
[ 10167 10162 10161 10158 ] final -103.09 input  -65.29 | X-H torsion
[ 10718 10713 10712 10709 ] final  134.60 input   66.30 | X-H torsion
[ 10763 10752 10751 10750 ] final  129.72 input  -60.55 | X-H torsion
[ 11005 11000 10999 10996 ] final  121.05 input  -57.11 | X-H torsion

> <Gold.Protein.ActiveResidues>
 VAL166  LYS551  ARG553  GLY616  TRP617  ASP618  TYR619  PRO620  LYS621  CYS622 
 ASP623  PHE694  ASN695  SER759  ASP760  ASP761  ALA762  ILE779  LEU786  VAL792 
 PHE793  MET794  SER795  GLU796  ALA797  LYS798  CYS799  TRP800  GLU811  SER814 

> <Gold.Protein.RotatedAtoms>
  152.5299  134.3048  159.9091 H   0  0  0  0  0  0  0  0  0  0  0  0  # atno 6907 bound_to 6896
  151.2998  133.4121  159.2646 H   0  0  0  0  0  0  0  0  0  0  0  0  # atno 6908 bound_to 6896
  151.0129  134.9427  159.8074 H   0  0  0  0  0  0  0  0  0  0  0  0  # atno 6909 bound_to 6896
  145.3734  139.2393  143.3443 H   0  0  0  0  0  0  0  0  0  0  0  0  # atno 7974 bound_to 7965
  156.2820  140.2152  156.5561 H   0  0  0  0  0  0  0  0  0  0  0  0  # atno 8008 bound_to 7997
  154.7251  140.0500  157.0698 H   0  0  0  0  0  0  0  0  0  0  0  0  # atno 8009 bound_to 7997
  155.0427  140.3147  155.4722 H   0  0  0  0  0  0  0  0  0  0  0  0  # atno 8010 bound_to 7997
  140.2237  143.3657  152.0947 H   0  0  0  0  0  0  0  0  0  0  0  0  # atno 10167 bound_to 10162
  157.4656  131.1076  150.9867 H   0  0  0  0  0  0  0  0  0  0  0  0  # atno 10718 bound_to 10713
  153.7463  135.3216  155.3313 H   0  0  0  0  0  0  0  0  0  0  0  0  # atno 10763 bound_to 10752
  154.8278  135.4556  154.0976 H   0  0  0  0  0  0  0  0  0  0  0  0  # atno 10764 bound_to 10752
  153.2166  135.6943  153.8132 H   0  0  0  0  0  0  0  0  0  0  0  0  # atno 10765 bound_to 10752
  139.9210  134.9637  156.7900 H   0  0  0  0  0  0  0  0  0  0  0  0  # atno 11005 bound_to 11000
  146.2875  140.4389  142.8752 LP  0  0  0  0  0  0  0  0  0  0  0  0  # atno 17320 bound_to 7965
  144.8560  140.7071  143.6138 LP  0  0  0  0  0  0  0  0  0  0  0  0  # atno 17321 bound_to 7965
  139.5135  144.6933  151.5700 LP  0  0  0  0  0  0  0  0  0  0  0  0  # atno 17342 bound_to 10162
  140.6236  143.9211  150.6546 LP  0  0  0  0  0  0  0  0  0  0  0  0  # atno 17343 bound_to 10162
  157.0649  130.5840  149.5392 LP  0  0  0  0  0  0  0  0  0  0  0  0  # atno 17370 bound_to 10713
  156.0048  130.5134  150.7793 LP  0  0  0  0  0  0  0  0  0  0  0  0  # atno 17371 bound_to 10713
  140.6475  133.9762  155.7738 LP  0  0  0  0  0  0  0  0  0  0  0  0  # atno 17394 bound_to 11000
  141.0730  134.0176  157.3498 LP  0  0  0  0  0  0  0  0  0  0  0  0  # atno 17395 bound_to 11000

$$$$
