AV-unprocessed.smi:793|AV-procd|sdf|3752|dock2
  -GOLD-   22720 1183D 1   1.00000     0.00000
 Structure written by MMmdl.
 39 40  0  0  0  0  0  0  0  0  1 V2000
  151.9370  138.3226  156.8669 C   0  0  0  0  0  0  0  0  0  0  0  0
  150.5096  138.7858  157.1830 C   0  0  0  0  0  0  0  0  0  0  0  0
  150.2235  138.8461  158.6954 C   0  0  2  0  0  0  0  0  0  0  0  0
  151.3221  139.5082  159.3213 O   0  0  0  0  0  0  0  0  0  0  0  0
  151.6608  140.7958  158.8127 C   0  0  0  0  0  0  0  0  0  0  0  0
  152.5596  141.5982  159.7595 C   0  0  0  0  0  0  0  0  0  0  0  0
  152.2580  143.0732  159.4593 C   0  0  0  0  0  0  0  0  0  0  0  0
  150.9455  143.0949  158.6607 C   0  0  0  0  0  0  0  0  0  0  0  0
  150.4091  141.6626  158.6994 C   0  0  0  0  0  0  0  0  0  0  0  0
  150.0521  137.4380  159.2890 C   0  0  0  0  0  0  0  0  0  0  0  0
  151.0045  136.6587  159.2828 O   0  0  0  0  0  0  0  0  0  0  0  0
  148.8363  137.1747  159.8071 N   0  0  0  0  0  0  0  0  0  0  0  0
  148.3595  135.9984  160.4075 C   0  0  0  0  0  0  0  0  0  0  0  0
  148.4674  134.7459  159.8944 C   0  0  0  0  0  0  0  0  0  0  0  0
  147.9714  133.6101  160.5184 N   0  0  0  0  0  0  0  0  0  0  0  0
  147.3185  133.7435  161.7329 C   0  0  0  0  0  0  0  0  0  0  0  0
  147.1401  134.9289  162.3484 C   0  0  0  0  0  0  0  0  0  0  0  0
  147.6594  136.1610  161.7127 C   0  0  0  0  0  0  0  0  0  0  0  0
  147.5137  137.2603  162.2471 O   0  0  0  0  0  0  0  0  0  0  0  0
  152.1060  138.2966  155.7904 H   0  0  0  0  0  0  0  0  0  0  0  0
  152.1229  137.3211  157.2560 H   0  0  0  0  0  0  0  0  0  0  0  0
  152.6756  138.9951  157.3039 H   0  0  0  0  0  0  0  0  0  0  0  0
  150.3586  139.7711  156.7392 H   0  0  0  0  0  0  0  0  0  0  0  0
  149.7990  138.1178  156.6945 H   0  0  0  0  0  0  0  0  0  0  0  0
  149.3056  139.4170  158.8455 H   0  0  0  0  0  0  0  0  0  0  0  0
  152.1226  140.7334  157.8264 H   0  0  0  0  0  0  0  0  0  0  0  0
  152.2895  141.3788  160.7937 H   0  0  0  0  0  0  0  0  0  0  0  0
  153.6162  141.3582  159.6372 H   0  0  0  0  0  0  0  0  0  0  0  0
  152.1708  143.6441  160.3842 H   0  0  0  0  0  0  0  0  0  0  0  0
  153.0614  143.5219  158.8739 H   0  0  0  0  0  0  0  0  0  0  0  0
  150.2275  143.8112  159.0609 H   0  0  0  0  0  0  0  0  0  0  0  0
  151.1517  143.3802  157.6283 H   0  0  0  0  0  0  0  0  0  0  0  0
  149.8036  141.4151  157.8271 H   0  0  0  0  0  0  0  0  0  0  0  0
  149.7864  141.5307  159.5857 H   0  0  0  0  0  0  0  0  0  0  0  0
  148.1695  137.9330  159.7850 H   0  0  0  0  0  0  0  0  0  0  0  0
  148.9372  134.5178  158.9513 H   0  0  0  0  0  0  0  0  0  0  0  0
  146.9616  132.8124  162.1480 H   0  0  0  0  0  0  0  0  0  0  0  0
  146.6265  135.0012  163.2958 H   0  0  0  0  0  0  0  0  0  0  0  0
  148.0784  132.7016  160.0892 H   0  0  0  0  0  0  0  0  0  0  0  0
  1  2  1  0  0  0  0
  1 20  1  0  0  0  0
  1 21  1  0  0  0  0
  1 22  1  0  0  0  0
  2  3  1  0  0  0  0
  2 23  1  0  0  0  0
  2 24  1  0  0  0  0
  3  4  1  0  0  0  0
  3 10  1  0  0  0  0
  3 25  1  0  0  0  0
  4  5  1  0  0  0  0
  5  9  1  0  0  0  0
  5  6  1  0  0  0  0
  5 26  1  0  0  0  0
  6  7  1  0  0  0  0
  6 27  1  0  0  0  0
  6 28  1  0  0  0  0
  7  8  1  0  0  0  0
  7 29  1  0  0  0  0
  7 30  1  0  0  0  0
  8  9  1  0  0  0  0
  8 31  1  0  0  0  0
  8 32  1  0  0  0  0
  9 33  1  0  0  0  0
  9 34  1  0  0  0  0
 10 11  2  0  0  0  0
 10 12  1  0  0  0  0
 12 35  1  0  0  0  0
 12 13  1  0  0  0  0
 13 18  1  0  0  0  0
 13 14  2  0  0  0  0
 14 36  1  0  0  0  0
 14 15  1  0  0  0  0
 15 39  1  0  0  0  0
 15 16  1  0  0  0  0
 16 37  1  0  0  0  0
 16 17  2  0  0  0  0
 17 18  1  0  0  0  0
 17 38  1  0  0  0  0
 18 19  2  0  0  0  0
M  END
> <s_m_source_file>
AV-unprocessed.smi

> <i_m_source_file_index>
793

> <i_lp_mmshare_version>
43012

> <i_f3d_flags>
0

> <s_epik_input>
W0NIMl0xW0NIMl1bQ0gyXVtDSDJdW0NIXTFPW0NAQEhdKFtDSDJdW0NIM10pQyg9TylbTkhdYzJbY0hdbltjSF1bY0hdYzJbT0hd

> <s_epik_cmdline>
J2VwaWtfcHl0aG9uJywgJy1waCcsICc3LjAnLCAnLXRuJywgJzgnLCAnLW1hJywgJzIwMCcsICctbWV0YWxfYmluZGluZycsICctaW1hZScsICc8aW5maWxlLm1hZT4nLCAnLW9tYWUnLCAnPG91dGZpbGUubWFlPic=

> <r_lp_tautomer_probability>
1

> <r_epik_Ionization_Penalty>
0.000234492

> <r_epik_Ionization_Penalty_Charging>
0.000234447

> <r_epik_Ionization_Penalty_Neutral>
4.48517e-08

> <r_epik_State_Penalty>
-0

> <r_epik_Charging_Adjusted_Penalty>
0.000234447

> <i_epik_Tot_Q>
0

> <i_epik_Tot_abs_Q>
0

> <r_epik_Metal_State_Penalty>
0.110344

> <b_epik_Metal_Only>
0

> <s_lp_Force_Field>
OPLS_2005

> <r_lp_Energy>
24.985

> <b_lp_Chiralities_Consistent>
1

> <s_lp_Variant>
AV-unprocessed.smi:793-1

> <Gold.Version>
5.8.1

> <Gold.Id.Protein>
6NUR|6NUR_protein|mol2

> <Gold.PLP.Fitness>
38.0212

> <Gold.PLP.PLP>
-31.8621

> <Gold.PLP.part.hbond>
-3.0000

> <Gold.PLP.part.metal>
0.0000

> <Gold.PLP.part.buried>
-3.9044

> <Gold.PLP.part.nonpolar>
-24.9221

> <Gold.PLP.part.repulsive>
0.3003

> <Gold.PLP.ligand.clash>
0.0000

> <Gold.PLP.ligand.torsion>
0.6614

> <Gold.PLP.Chemscore.Hbond>
2.4720

> <Gold.PLP.Chemscore.CHOScore>
0.0000

> <Gold.PLP.Chemscore.Metal>
0.0000

> <Gold.Chemscore.Hbonds>
donor molecule, donor type, donor heavy atom, donor atom, acceptor molecule, acceptor atom, score
      P1  H  6896  6907       L1    11  1.00
      P1  H  6931  6943       L1    19  0.85
      P1  H  6934  6947       L1    19  0.32

> <Gold.PLP.Chemscore.Internal.Correction>
0.0659

> <Gold.Rescore>
     Score         DG    S(hbond)    S(metal)    S(lipo)     H(rot)  DE(clash)    DE(int)     intcor
     17.86     -18.76       2.60        0.00      74.40       1.61       0.01       0.89       ----

> <Gold.Chemscore.Fitness>
17.8625

> <Gold.Chemscore.DG>
-18.7591

> <Gold.Chemscore.ZeroCoef>
-5.4800

> <Gold.Chemscore.Hbond>
2.6005

> <Gold.Chemscore.Metal>
0.0000

> <Gold.Chemscore.Lipo>
74.4024

> <Gold.Chemscore.Internal_Hbond>
0.0000

> <Gold.Chemscore.DEClash>
0.0073

> <Gold.Chemscore.DEInternal>
0.8893

> <Gold.Chemscore.Rot>
1.6061

> <Gold.Chemscore.Internal.Correction>
   9.000000E+99

> <Gold.Chemscore.Hbonds>
donor molecule, donor type, donor heavy atom, donor atom, acceptor molecule, acceptor atom, score
      P1  H  6896  6907       L1    11  0.99
      P1  H  6931  6943       L1    19  0.59
      P1  H  6934  6947       L1    19  0.32

> <Gold.Chemscore.Hbond.Weighted>
-8.6856

> <Gold.Chemscore.Metal.Weighted>
-0.0000

> <Gold.Chemscore.Lipo.Weighted>
-8.7051

> <Gold.Chemscore.Internal_Hbond.Weighted>
0.0000

> <Gold.Chemscore.DEClash.Weighted>
0.0073

> <Gold.Chemscore.DEInternal.Weighted>
0.8893

> <Gold.Chemscore.Rot.Weighted>
4.1116

> <Gold.Chemscore.Internal.Correction.Weighted>
   9.000000E+99

> <Gold.Protein.RotatedTorsions>
[ 6907 6896 6895 6894 ] final  -26.48 input  -60.11 | X-H torsion
[ 7974 7965 7964 7962 ] final  149.61 input  175.53 | X-H torsion
[ 8008 7997 7996 7995 ] final  -99.85 input   59.86 | X-H torsion
[ 10167 10162 10161 10158 ] final   96.70 input  -65.29 | X-H torsion
[ 10718 10713 10712 10709 ] final  -68.72 input   66.30 | X-H torsion
[ 10763 10752 10751 10750 ] final   52.31 input  -60.55 | X-H torsion
[ 11005 11000 10999 10996 ] final  171.14 input  -57.11 | X-H torsion

> <Gold.Protein.ActiveResidues>
 VAL166  LYS551  ARG553  GLY616  TRP617  ASP618  TYR619  PRO620  LYS621  CYS622 
 ASP623  PHE694  ASN695  SER759  ASP760  ASP761  ALA762  ILE779  LEU786  VAL792 
 PHE793  MET794  SER795  GLU796  ALA797  LYS798  CYS799  TRP800  GLU811  SER814 

> <Gold.Protein.RotatedAtoms>
  151.1604  135.0270  159.8707 H   0  0  0  0  0  0  0  0  0  0  0  0  # atno 6907 bound_to 6896
  152.5451  134.1286  159.8439 H   0  0  0  0  0  0  0  0  0  0  0  0  # atno 6908 bound_to 6896
  151.1380  133.4944  159.2630 H   0  0  0  0  0  0  0  0  0  0  0  0  # atno 6909 bound_to 6896
  144.8425  139.6302  143.6010 H   0  0  0  0  0  0  0  0  0  0  0  0  # atno 7974 bound_to 7965
  154.8204  140.0445  157.1407 H   0  0  0  0  0  0  0  0  0  0  0  0  # atno 8008 bound_to 7997
  154.9266  140.3034  155.5169 H   0  0  0  0  0  0  0  0  0  0  0  0  # atno 8009 bound_to 7997
  156.2979  140.2331  156.4321 H   0  0  0  0  0  0  0  0  0  0  0  0  # atno 8010 bound_to 7997
  139.7869  144.6867  150.9945 H   0  0  0  0  0  0  0  0  0  0  0  0  # atno 10167 bound_to 10162
  156.0491  130.4300  150.2042 H   0  0  0  0  0  0  0  0  0  0  0  0  # atno 10718 bound_to 10713
  152.9788  135.5817  154.4557 H   0  0  0  0  0  0  0  0  0  0  0  0  # atno 10763 bound_to 10752
  154.4140  135.2770  155.2020 H   0  0  0  0  0  0  0  0  0  0  0  0  # atno 10764 bound_to 10752
  154.3798  135.6149  153.5839 H   0  0  0  0  0  0  0  0  0  0  0  0  # atno 10765 bound_to 10752
  140.3159  134.7478  157.4027 H   0  0  0  0  0  0  0  0  0  0  0  0  # atno 11005 bound_to 11000
  146.2715  139.6647  142.9292 LP  0  0  0  0  0  0  0  0  0  0  0  0  # atno 17320 bound_to 7965
  145.4664  141.0434  143.2723 LP  0  0  0  0  0  0  0  0  0  0  0  0  # atno 17321 bound_to 7965
  140.7820  143.4422  151.0535 LP  0  0  0  0  0  0  0  0  0  0  0  0  # atno 17342 bound_to 10162
  139.8100  143.7964  152.3170 LP  0  0  0  0  0  0  0  0  0  0  0  0  # atno 17343 bound_to 10162
  157.0128  130.9956  151.3361 LP  0  0  0  0  0  0  0  0  0  0  0  0  # atno 17370 bound_to 10713
  157.5398  130.8112  149.8015 LP  0  0  0  0  0  0  0  0  0  0  0  0  # atno 17371 bound_to 10713
  140.0984  134.5506  155.8376 LP  0  0  0  0  0  0  0  0  0  0  0  0  # atno 17394 bound_to 11000
  141.2098  133.6687  156.6462 LP  0  0  0  0  0  0  0  0  0  0  0  0  # atno 17395 bound_to 11000

$$$$
