AV-unprocessed.smi:3267|AV-procd|sdf|12505|dock4
  -GOLD-   2272018413D 1   1.00000     0.00000
 Structure written by MMmdl.
 38 39  0  0  0  0  0  0  0  0  1 V2000
  151.7497  145.1207  160.2264 C   0  0  0  0  0  0  0  0  0  0  0  0
  151.1947  144.3204  159.0368 C   0  0  1  0  0  0  0  0  0  0  0  0
  151.5241  142.8097  159.1065 C   0  0  0  0  0  0  0  0  0  0  0  0
  152.4719  142.4632  160.1533 N   0  0  0  0  0  0  0  0  0  0  0  0
  153.7492  141.9594  160.0212 C   0  0  0  0  0  0  0  0  0  0  0  0
  154.2521  141.7894  161.2791 C   0  0  0  0  0  0  0  0  0  0  0  0
  153.1927  142.2175  162.1269 C   0  0  0  0  0  0  0  0  0  0  0  0
  152.1285  142.6182  161.4508 N   0  0  0  0  0  0  0  0  0  0  0  0
  149.7544  144.5455  158.9350 N   0  0  0  0  0  0  0  0  0  0  0  0
  148.8687  144.3741  159.9259 C   0  0  0  0  0  0  0  0  0  0  0  0
  149.1642  143.9876  161.0570 O   0  0  0  0  0  0  0  0  0  0  0  0
  147.6237  144.6767  159.5338 N   0  0  0  0  0  0  0  0  0  0  0  0
  146.4331  144.5709  160.3688 C   0  0  0  0  0  0  0  0  0  0  0  0
  145.5903  145.8554  160.3084 C   0  0  2  0  0  0  0  0  0  0  0  0
  144.9565  146.1150  158.9420 C   0  0  0  0  0  0  0  0  0  0  0  0
  144.8079  147.6291  158.8893 C   0  0  0  0  0  0  0  0  0  0  0  0
  145.6204  148.1282  160.0869 C   0  0  0  0  0  0  0  0  0  0  0  0
  146.3952  147.0096  160.4908 O   0  0  0  0  0  0  0  0  0  0  0  0
  152.8236  144.9668  160.3341 H   0  0  0  0  0  0  0  0  0  0  0  0
  151.2754  144.8326  161.1651 H   0  0  0  0  0  0  0  0  0  0  0  0
  151.5831  146.1895  160.0889 H   0  0  0  0  0  0  0  0  0  0  0  0
  151.6623  144.7194  158.1347 H   0  0  0  0  0  0  0  0  0  0  0  0
  150.6168  142.2193  159.2439 H   0  0  0  0  0  0  0  0  0  0  0  0
  151.9482  142.4889  158.1543 H   0  0  0  0  0  0  0  0  0  0  0  0
  154.1897  141.7692  159.0534 H   0  0  0  0  0  0  0  0  0  0  0  0
  155.2272  141.4146  161.5526 H   0  0  0  0  0  0  0  0  0  0  0  0
  153.1651  142.2483  163.2062 H   0  0  0  0  0  0  0  0  0  0  0  0
  149.4096  144.8721  158.0443 H   0  0  0  0  0  0  0  0  0  0  0  0
  147.4870  144.9904  158.5842 H   0  0  0  0  0  0  0  0  0  0  0  0
  145.8357  143.7007  160.0906 H   0  0  0  0  0  0  0  0  0  0  0  0
  146.7656  144.4017  161.3932 H   0  0  0  0  0  0  0  0  0  0  0  0
  144.8141  145.8381  161.0760 H   0  0  0  0  0  0  0  0  0  0  0  0
  145.6263  145.7885  158.1453 H   0  0  0  0  0  0  0  0  0  0  0  0
  144.0083  145.5911  158.8176 H   0  0  0  0  0  0  0  0  0  0  0  0
  145.2031  148.0196  157.9509 H   0  0  0  0  0  0  0  0  0  0  0  0
  143.7657  147.9394  158.9697 H   0  0  0  0  0  0  0  0  0  0  0  0
  146.2540  148.9802  159.8390 H   0  0  0  0  0  0  0  0  0  0  0  0
  144.9603  148.4204  160.9047 H   0  0  0  0  0  0  0  0  0  0  0  0
  1  2  1  0  0  0  0
  1 19  1  0  0  0  0
  1 20  1  0  0  0  0
  1 21  1  0  0  0  0
  2  3  1  0  0  0  0
  2  9  1  0  0  0  0
  2 22  1  0  0  0  0
  3  4  1  0  0  0  0
  3 23  1  0  0  0  0
  3 24  1  0  0  0  0
  4  8  1  0  0  0  0
  4  5  1  0  0  0  0
  5  6  2  0  0  0  0
  5 25  1  0  0  0  0
  6  7  1  0  0  0  0
  6 26  1  0  0  0  0
  7  8  2  0  0  0  0
  7 27  1  0  0  0  0
  9 10  1  0  0  0  0
  9 28  1  0  0  0  0
 10 11  2  0  0  0  0
 10 12  1  0  0  0  0
 12 13  1  0  0  0  0
 12 29  1  0  0  0  0
 13 14  1  0  0  0  0
 13 30  1  0  0  0  0
 13 31  1  0  0  0  0
 14 18  1  0  0  0  0
 14 15  1  0  0  0  0
 14 32  1  0  0  0  0
 15 16  1  0  0  0  0
 15 33  1  0  0  0  0
 15 34  1  0  0  0  0
 16 17  1  0  0  0  0
 16 35  1  0  0  0  0
 16 36  1  0  0  0  0
 17 18  1  0  0  0  0
 17 37  1  0  0  0  0
 17 38  1  0  0  0  0
M  END
> <s_m_source_file>
AV-unprocessed.smi

> <i_m_source_file_index>
3267

> <i_lp_mmshare_version>
43012

> <i_f3d_flags>
0

> <s_epik_input>
bjFbY0hdW2NIXVtjSF1uMVtDSDJdW0NAQEhdKFtDSDNdKVtOSF1DKD1PKVtOSF1bQ0gyXVtDQEBIXTJbQ0gyXVtDSDJdW0NIMl1PMg==

> <s_epik_cmdline>
J2VwaWtfcHl0aG9uJywgJy1waCcsICc3LjAnLCAnLXRuJywgJzgnLCAnLW1hJywgJzIwMCcsICctbWV0YWxfYmluZGluZycsICctaW1hZScsICc8aW5maWxlLm1hZT4nLCAnLW9tYWUnLCAnPG91dGZpbGUubWFlPic=

> <r_lp_tautomer_probability>
1

> <r_epik_Ionization_Penalty>
6.24796e-05

> <r_epik_Ionization_Penalty_Charging>
0

> <r_epik_Ionization_Penalty_Neutral>
6.24796e-05

> <r_epik_State_Penalty>
-0

> <r_epik_Charging_Adjusted_Penalty>
0

> <i_epik_Tot_Q>
0

> <i_epik_Tot_abs_Q>
0

> <r_epik_Metal_State_Penalty>
-0

> <b_epik_Metal_Only>
0

> <s_lp_Force_Field>
OPLS_2005

> <r_lp_Energy>
14.7816

> <b_lp_Chiralities_Consistent>
1

> <s_lp_Variant>
AV-unprocessed.smi:3267-2

> <Gold.Version>
5.8.1

> <Gold.Id.Protein>
6NUR|6NUR_protein|mol2

> <Gold.PLP.Fitness>
47.8353

> <Gold.PLP.PLP>
-41.6579

> <Gold.PLP.part.hbond>
-5.8562

> <Gold.PLP.part.metal>
0.0000

> <Gold.PLP.part.buried>
-5.2428

> <Gold.PLP.part.nonpolar>
-33.5336

> <Gold.PLP.part.repulsive>
0.8190

> <Gold.PLP.ligand.clash>
0.0000

> <Gold.PLP.ligand.torsion>
0.9094

> <Gold.PLP.Chemscore.Hbond>
2.6482

> <Gold.PLP.Chemscore.CHOScore>
0.0000

> <Gold.PLP.Chemscore.Metal>
0.0000

> <Gold.Chemscore.Hbonds>
donor molecule, donor type, donor heavy atom, donor atom, acceptor molecule, acceptor atom, score
      L1  H     9    28       P1  8029  0.69
      L1  H    12    29       P1  8029  1.00
      P1  H  6933  6944       L1    11  0.51
      P1  H  6933  6945       L1     8  0.07

> <Gold.PLP.Chemscore.Internal.Correction>
0.0518

> <Gold.Rescore>
     Score         DG    S(hbond)    S(metal)    S(lipo)     H(rot)  DE(clash)    DE(int)     intcor
     15.00     -19.16       2.30        0.00      92.22       1.87       0.67       3.48       ----

> <Gold.Chemscore.Fitness>
15.0046

> <Gold.Chemscore.DG>
-19.1578

> <Gold.Chemscore.ZeroCoef>
-5.4800

> <Gold.Chemscore.Hbond>
2.2997

> <Gold.Chemscore.Metal>
0.0000

> <Gold.Chemscore.Lipo>
92.2214

> <Gold.Chemscore.Internal_Hbond>
0.0000

> <Gold.Chemscore.DEClash>
0.6750

> <Gold.Chemscore.DEInternal>
3.4782

> <Gold.Chemscore.Rot>
1.8724

> <Gold.Chemscore.Internal.Correction>
   9.000000E+99

> <Gold.Chemscore.Hbonds>
donor molecule, donor type, donor heavy atom, donor atom, acceptor molecule, acceptor atom, score
      L1  H     9    28       P1  8029  0.11
      L1  H    12    29       P1  8029  0.97
      P1  H  6933  6944       L1    11  0.44
      P1  H  6933  6945       L1     8  0.08

> <Gold.Chemscore.Hbond.Weighted>
-7.6811

> <Gold.Chemscore.Metal.Weighted>
-0.0000

> <Gold.Chemscore.Lipo.Weighted>
-10.7899

> <Gold.Chemscore.Internal_Hbond.Weighted>
0.0000

> <Gold.Chemscore.DEClash.Weighted>
0.6750

> <Gold.Chemscore.DEInternal.Weighted>
3.4782

> <Gold.Chemscore.Rot.Weighted>
4.7933

> <Gold.Chemscore.Internal.Correction.Weighted>
   9.000000E+99

> <Gold.Protein.RotatedTorsions>
[ 6907 6896 6895 6894 ] final   -7.32 input  -60.11 | X-H torsion
[ 7974 7965 7964 7962 ] final  -11.06 input  175.53 | X-H torsion
[ 8008 7997 7996 7995 ] final  -57.61 input   59.86 | X-H torsion
[ 10167 10162 10161 10158 ] final   78.52 input  -65.29 | X-H torsion
[ 10718 10713 10712 10709 ] final  134.11 input   66.30 | X-H torsion
[ 10763 10752 10751 10750 ] final -109.71 input  -60.55 | X-H torsion
[ 11005 11000 10999 10996 ] final  150.00 input  -57.11 | X-H torsion

> <Gold.Protein.ActiveResidues>
 VAL166  LYS551  ARG553  GLY616  TRP617  ASP618  TYR619  PRO620  LYS621  CYS622 
 ASP623  PHE694  ASN695  SER759  ASP760  ASP761  ALA762  ILE779  LEU786  VAL792 
 PHE793  MET794  SER795  GLU796  ALA797  LYS798  CYS799  TRP800  GLU811  SER814 

> <Gold.Protein.RotatedAtoms>
  151.4514  135.1030  159.9698 H   0  0  0  0  0  0  0  0  0  0  0  0  # atno 6907 bound_to 6896
  152.4887  133.8437  159.7176 H   0  0  0  0  0  0  0  0  0  0  0  0  # atno 6908 bound_to 6896
  150.9019  133.7047  159.2904 H   0  0  0  0  0  0  0  0  0  0  0  0  # atno 6909 bound_to 6896
  146.2200  140.2856  142.8365 H   0  0  0  0  0  0  0  0  0  0  0  0  # atno 7974 bound_to 7965
  154.4275  140.1103  156.5826 H   0  0  0  0  0  0  0  0  0  0  0  0  # atno 8008 bound_to 7997
  155.6096  140.3494  155.4599 H   0  0  0  0  0  0  0  0  0  0  0  0  # atno 8009 bound_to 7997
  156.0109  140.1219  157.0444 H   0  0  0  0  0  0  0  0  0  0  0  0  # atno 8010 bound_to 7997
  139.9700  144.5901  150.7994 H   0  0  0  0  0  0  0  0  0  0  0  0  # atno 10167 bound_to 10162
  157.4706  131.1080  150.9808 H   0  0  0  0  0  0  0  0  0  0  0  0  # atno 10718 bound_to 10713
  154.8208  135.4591  154.0774 H   0  0  0  0  0  0  0  0  0  0  0  0  # atno 10763 bound_to 10752
  153.2129  135.6884  153.8099 H   0  0  0  0  0  0  0  0  0  0  0  0  # atno 10764 bound_to 10752
  153.7543  135.3293  155.3303 H   0  0  0  0  0  0  0  0  0  0  0  0  # atno 10765 bound_to 10752
  140.1094  134.8934  157.1913 H   0  0  0  0  0  0  0  0  0  0  0  0  # atno 11005 bound_to 11000
  144.9165  140.7818  143.5775 LP  0  0  0  0  0  0  0  0  0  0  0  0  # atno 17320 bound_to 7965
  145.2790  139.1925  143.4801 LP  0  0  0  0  0  0  0  0  0  0  0  0  # atno 17321 bound_to 7965
  140.7525  143.2991  151.3126 LP  0  0  0  0  0  0  0  0  0  0  0  0  # atno 17342 bound_to 10162
  139.6488  144.0400  152.2611 LP  0  0  0  0  0  0  0  0  0  0  0  0  # atno 17343 bound_to 10162
  157.0574  130.5811  149.5380 LP  0  0  0  0  0  0  0  0  0  0  0  0  # atno 17370 bound_to 10713
  156.0071  130.5159  150.7867 LP  0  0  0  0  0  0  0  0  0  0  0  0  # atno 17371 bound_to 10713
  140.3112  134.3021  155.7266 LP  0  0  0  0  0  0  0  0  0  0  0  0  # atno 17394 bound_to 11000
  141.2126  133.7651  156.9779 LP  0  0  0  0  0  0  0  0  0  0  0  0  # atno 17395 bound_to 11000

$$$$
