AV-unprocessed.smi:3106|AV-procd|sdf|11823|dock5
  -GOLD-   2272017193D 1   1.00000     0.00000
 Structure written by MMmdl.
 29 30  0  0  0  0  0  0  0  0  1 V2000
  146.8088  138.8157  152.3525 C   0  0  0  0  0  0  0  0  0  0  0  0
  147.4647  139.7049  153.3877 C   0  0  0  0  0  0  0  0  0  0  0  0
  148.6623  139.3197  154.0190 C   0  0  0  0  0  0  0  0  0  0  0  0
  149.2343  140.1828  154.9734 C   0  0  0  0  0  0  0  0  0  0  0  0
  148.5979  141.4082  155.2735 C   0  0  0  0  0  0  0  0  0  0  0  0
  149.2552  142.2031  156.2493 N   0  0  0  0  0  0  0  0  0  0  0  0
  150.0674  141.8040  157.2469 C   0  0  0  0  0  0  0  0  0  0  0  0
  150.3884  140.6339  157.4573 O   0  0  0  0  0  0  0  0  0  0  0  0
  150.6300  142.9148  158.1450 C   0  0  2  0  0  0  0  0  0  0  0  0
  151.6051  143.8617  157.4391 C   0  0  0  0  0  0  0  0  0  0  0  0
  152.4451  144.3532  158.5961 C   0  0  0  0  0  0  0  0  0  0  0  0
  152.5649  143.0986  159.4548 C   0  0  0  0  0  0  0  0  0  0  0  0
  151.3728  142.3510  159.2274 O   0  0  0  0  0  0  0  0  0  0  0  0
  147.4448  141.7713  154.6583 N   0  0  0  0  0  0  0  0  0  0  0  0
  146.8972  140.9439  153.7436 C   0  0  0  0  0  0  0  0  0  0  0  0
  146.9924  137.7638  152.5735 H   0  0  0  0  0  0  0  0  0  0  0  0
  147.2080  139.0346  151.3620 H   0  0  0  0  0  0  0  0  0  0  0  0
  145.7302  138.9741  152.3323 H   0  0  0  0  0  0  0  0  0  0  0  0
  149.1371  138.3798  153.7783 H   0  0  0  0  0  0  0  0  0  0  0  0
  150.1530  139.9024  155.4677 H   0  0  0  0  0  0  0  0  0  0  0  0
  149.0822  143.1960  156.1916 H   0  0  0  0  0  0  0  0  0  0  0  0
  149.8026  143.4868  158.5673 H   0  0  0  0  0  0  0  0  0  0  0  0
  152.2312  143.3263  156.7229 H   0  0  0  0  0  0  0  0  0  0  0  0
  151.1010  144.6737  156.9143 H   0  0  0  0  0  0  0  0  0  0  0  0
  153.4113  144.7535  158.2876 H   0  0  0  0  0  0  0  0  0  0  0  0
  151.9095  145.1318  159.1410 H   0  0  0  0  0  0  0  0  0  0  0  0
  153.4154  142.4972  159.1317 H   0  0  0  0  0  0  0  0  0  0  0  0
  152.6956  143.3293  160.5124 H   0  0  0  0  0  0  0  0  0  0  0  0
  145.9805  141.2826  153.2837 H   0  0  0  0  0  0  0  0  0  0  0  0
  1  2  1  0  0  0  0
  1 16  1  0  0  0  0
  1 17  1  0  0  0  0
  1 18  1  0  0  0  0
  2 15  1  0  0  0  0
  2  3  2  0  0  0  0
  3  4  1  0  0  0  0
  3 19  1  0  0  0  0
  4  5  2  0  0  0  0
  4 20  1  0  0  0  0
  5  6  1  0  0  0  0
  5 14  1  0  0  0  0
  6  7  1  0  0  0  0
  6 21  1  0  0  0  0
  7  8  2  0  0  0  0
  7  9  1  0  0  0  0
  9 13  1  0  0  0  0
  9 10  1  0  0  0  0
  9 22  1  0  0  0  0
 10 11  1  0  0  0  0
 10 23  1  0  0  0  0
 10 24  1  0  0  0  0
 11 12  1  0  0  0  0
 11 25  1  0  0  0  0
 11 26  1  0  0  0  0
 12 13  1  0  0  0  0
 12 27  1  0  0  0  0
 12 28  1  0  0  0  0
 14 15  2  0  0  0  0
 15 29  1  0  0  0  0
M  END
> <s_m_source_file>
AV-unprocessed.smi

> <i_m_source_file_index>
3106

> <i_lp_mmshare_version>
43012

> <i_f3d_flags>
0

> <s_epik_input>
W0NIM11jMVtjSF1bY0hdYyhuW2NIXTEpW05IXUMoPU8pW0NAQEhdMltDSDJdW0NIMl1bQ0gyXU8y

> <s_epik_cmdline>
J2VwaWtfcHl0aG9uJywgJy1waCcsICc3LjAnLCAnLXRuJywgJzgnLCAnLW1hJywgJzIwMCcsICctbWV0YWxfYmluZGluZycsICctaW1hZScsICc8aW5maWxlLm1hZT4nLCAnLW9tYWUnLCAnPG91dGZpbGUubWFlPic=

> <r_epik_Ionization_Penalty>
0.00356606

> <r_epik_Ionization_Penalty_Charging>
0

> <r_epik_Ionization_Penalty_Neutral>
0.00356606

> <r_epik_State_Penalty>
0.00372088

> <r_epik_Charging_Adjusted_Penalty>
0.00372088

> <i_epik_Tot_Q>
0

> <i_epik_Tot_abs_Q>
0

> <r_epik_Metal_State_Penalty>
-0

> <b_epik_Metal_Only>
0

> <s_lp_Force_Field>
OPLS_2005

> <r_lp_Energy>
20.8335

> <b_lp_Chiralities_Consistent>
1

> <s_lp_Variant>
AV-unprocessed.smi:3106-1

> <Gold.Version>
5.8.1

> <Gold.Id.Protein>
6NUR|6NUR_protein|mol2

> <Gold.PLP.Fitness>
36.5512

> <Gold.PLP.PLP>
-31.1094

> <Gold.PLP.part.hbond>
-1.0000

> <Gold.PLP.part.metal>
0.0000

> <Gold.PLP.part.buried>
-2.7321

> <Gold.PLP.part.nonpolar>
-28.3669

> <Gold.PLP.part.repulsive>
0.2180

> <Gold.PLP.ligand.clash>
0.0000

> <Gold.PLP.ligand.torsion>
0.2377

> <Gold.PLP.Chemscore.Hbond>
1.0000

> <Gold.PLP.Chemscore.CHOScore>
0.9710

> <Gold.PLP.Chemscore.Metal>
0.0000

> <Gold.Chemscore.Hbonds>
donor molecule, donor type, donor heavy atom, donor atom, acceptor molecule, acceptor atom, score
      L1  H     6    21       P1  8028  1.00
      L1  C    15    29       P1 10175  0.94

> <Gold.PLP.Chemscore.Internal.Correction>
0.0042

> <Gold.Rescore>
     Score         DG    S(hbond)    S(metal)    S(lipo)     H(rot)  DE(clash)    DE(int)     intcor
     14.26     -15.85       0.98        0.00      82.57       1.00       0.02       1.57       ----

> <Gold.Chemscore.Fitness>
14.2630

> <Gold.Chemscore.DG>
-15.8526

> <Gold.Chemscore.ZeroCoef>
-5.4800

> <Gold.Chemscore.Hbond>
0.9795

> <Gold.Chemscore.Metal>
0.0000

> <Gold.Chemscore.Lipo>
82.5724

> <Gold.Chemscore.Internal_Hbond>
0.0000

> <Gold.Chemscore.DEClash>
0.0203

> <Gold.Chemscore.DEInternal>
1.5693

> <Gold.Chemscore.Rot>
1.0000

> <Gold.Chemscore.Internal.Correction>
   9.000000E+99

> <Gold.Chemscore.Hbonds>
donor molecule, donor type, donor heavy atom, donor atom, acceptor molecule, acceptor atom, score
      L1  H     6    21       P1  8028  0.99

> <Gold.Chemscore.Hbond.Weighted>
-3.2716

> <Gold.Chemscore.Metal.Weighted>
-0.0000

> <Gold.Chemscore.Lipo.Weighted>
-9.6610

> <Gold.Chemscore.Internal_Hbond.Weighted>
0.0000

> <Gold.Chemscore.DEClash.Weighted>
0.0203

> <Gold.Chemscore.DEInternal.Weighted>
1.5693

> <Gold.Chemscore.Rot.Weighted>
2.5600

> <Gold.Chemscore.Internal.Correction.Weighted>
   9.000000E+99

> <Gold.Protein.RotatedTorsions>
[ 6907 6896 6895 6894 ] final -140.32 input  -60.11 | X-H torsion
[ 7974 7965 7964 7962 ] final   40.38 input  175.53 | X-H torsion
[ 8008 7997 7996 7995 ] final  -65.63 input   59.86 | X-H torsion
[ 10167 10162 10161 10158 ] final  -65.88 input  -65.29 | X-H torsion
[ 10718 10713 10712 10709 ] final  -42.91 input   66.30 | X-H torsion
[ 10763 10752 10751 10750 ] final -128.95 input  -60.55 | X-H torsion
[ 11005 11000 10999 10996 ] final  161.38 input  -57.11 | X-H torsion

> <Gold.Protein.ActiveResidues>
 VAL166  LYS551  ARG553  GLY616  TRP617  ASP618  TYR619  PRO620  LYS621  CYS622 
 ASP623  PHE694  ASN695  SER759  ASP760  ASP761  ALA762  ILE779  LEU786  VAL792 
 PHE793  MET794  SER795  GLU796  ALA797  LYS798  CYS799  TRP800  GLU811  SER814 

> <Gold.Protein.RotatedAtoms>
  151.0592  133.5558  159.2635 H   0  0  0  0  0  0  0  0  0  0  0  0  # atno 6907 bound_to 6896
  151.2540  135.0631  159.9082 H   0  0  0  0  0  0  0  0  0  0  0  0  # atno 6908 bound_to 6896
  152.5395  134.0348  159.8095 H   0  0  0  0  0  0  0  0  0  0  0  0  # atno 6909 bound_to 6896
  146.0909  139.5539  142.9476 H   0  0  0  0  0  0  0  0  0  0  0  0  # atno 7974 bound_to 7965
  154.4684  140.0929  156.7080 H   0  0  0  0  0  0  0  0  0  0  0  0  # atno 8008 bound_to 7997
  155.4793  140.3467  155.4319 H   0  0  0  0  0  0  0  0  0  0  0  0  # atno 8009 bound_to 7997
  156.0996  140.1419  156.9473 H   0  0  0  0  0  0  0  0  0  0  0  0  # atno 8010 bound_to 7997
  140.5698  143.2317  151.6562 H   0  0  0  0  0  0  0  0  0  0  0  0  # atno 10167 bound_to 10162
  156.2546  130.4191  149.8611 H   0  0  0  0  0  0  0  0  0  0  0  0  # atno 10718 bound_to 10713
  154.8757  135.3911  154.3840 H   0  0  0  0  0  0  0  0  0  0  0  0  # atno 10763 bound_to 10752
  153.4584  135.7029  153.6071 H   0  0  0  0  0  0  0  0  0  0  0  0  # atno 10764 bound_to 10752
  153.4580  135.3818  155.2290 H   0  0  0  0  0  0  0  0  0  0  0  0  # atno 10765 bound_to 10752
  140.2152  134.8237  157.3163 H   0  0  0  0  0  0  0  0  0  0  0  0  # atno 11005 bound_to 11000
  145.6041  141.0350  143.2002 LP  0  0  0  0  0  0  0  0  0  0  0  0  # atno 17320 bound_to 7965
  144.7359  139.7586  143.7329 LP  0  0  0  0  0  0  0  0  0  0  0  0  # atno 17321 bound_to 7965
  139.5111  144.3519  152.0644 LP  0  0  0  0  0  0  0  0  0  0  0  0  # atno 17342 bound_to 10162
  140.2655  144.4020  150.6170 LP  0  0  0  0  0  0  0  0  0  0  0  0  # atno 17343 bound_to 10162
  156.6148  130.8601  151.3462 LP  0  0  0  0  0  0  0  0  0  0  0  0  # atno 17370 bound_to 10713
  157.7227  130.9581  150.1506 LP  0  0  0  0  0  0  0  0  0  0  0  0  # atno 17371 bound_to 10713
  140.1908  134.4374  155.7717 LP  0  0  0  0  0  0  0  0  0  0  0  0  # atno 17394 bound_to 11000
  141.2225  133.7026  156.8024 LP  0  0  0  0  0  0  0  0  0  0  0  0  # atno 17395 bound_to 11000

$$$$
