AV-unprocessed.smi:178|AV-procd|sdf|1447|dock9
  -GOLD-   2262019243D 1   1.00000     0.00000
 Structure written by MMmdl.
 50 52  0  0  0  0  0  0  0  0  1 V2000
  153.3215  126.5221  154.2910 C   0  0  0  0  0  0  0  0  0  0  0  0
  152.5359  127.3794  155.1008 O   0  0  0  0  0  0  0  0  0  0  0  0
  151.4212  127.9115  154.4062 C   0  0  0  0  0  0  0  0  0  0  0  0
  150.7279  128.9458  155.3068 C   0  0  0  0  0  0  0  0  0  0  0  0
  151.2466  130.3020  155.1142 N   0  0  0  0  0  0  0  0  0  0  0  0
  152.6753  130.5394  155.3025 C   0  0  0  0  0  0  0  0  0  0  0  0
  153.1117  130.3836  156.7652 C   0  0  0  0  0  0  0  0  0  0  0  0
  153.1087  131.6635  157.4879 C   0  0  0  0  0  0  0  0  0  0  0  0
  153.1069  132.6708  158.0566 N   0  0  0  0  0  0  0  0  0  0  0  0
  150.3792  131.3388  154.9272 C   0  0  0  0  0  0  0  0  0  0  0  0
  150.7245  132.5549  155.4291 N   0  0  0  0  0  0  0  0  0  0  0  0
  149.9216  133.6115  155.2844 C   0  0  0  0  0  0  0  0  0  0  0  0
  148.7374  133.6794  154.6779 N   0  0  0  0  0  0  0  0  0  0  0  0
  148.3759  132.4693  154.1662 C   0  0  0  0  0  0  0  0  0  0  0  0
  149.1273  131.2589  154.2398 C   0  0  0  0  0  0  0  0  0  0  0  0
  148.4327  130.2496  153.5794 N   0  0  0  0  0  0  0  0  0  0  0  0
  147.3415  130.8224  153.1541 C   0  0  0  0  0  0  0  0  0  0  0  0
  147.2197  132.1538  153.4737 N   0  0  0  0  0  0  0  0  0  0  0  0
  146.1102  133.0316  153.1357 C   0  0  0  0  0  0  0  0  0  0  0  0
  145.9516  133.2703  151.6145 C   0  0  1  0  0  0  0  0  0  0  0  0
  147.1639  133.8091  151.1123 O   0  0  0  0  0  0  0  0  0  0  0  0
  145.6585  131.9847  150.8547 C   0  0  0  0  0  0  0  0  0  0  0  0
  144.9426  132.4912  149.6101 C   0  0  0  0  0  0  0  0  0  0  0  0
  144.1268  133.5473  150.0940 O   0  0  0  0  0  0  0  0  0  0  0  0
  144.7445  134.1616  151.2241 C   0  0  2  0  0  0  0  0  0  0  0  0
  145.0433  135.6408  150.9219 C   0  0  0  0  0  0  0  0  0  0  0  0
  154.1579  126.1345  154.8728 H   0  0  0  0  0  0  0  0  0  0  0  0
  153.7282  127.0556  153.4308 H   0  0  0  0  0  0  0  0  0  0  0  0
  152.7383  125.6729  153.9327 H   0  0  0  0  0  0  0  0  0  0  0  0
  151.7518  128.3756  153.4759 H   0  0  0  0  0  0  0  0  0  0  0  0
  150.7313  127.1085  154.1447 H   0  0  0  0  0  0  0  0  0  0  0  0
  149.6596  128.9448  155.0877 H   0  0  0  0  0  0  0  0  0  0  0  0
  150.8111  128.6537  156.3542 H   0  0  0  0  0  0  0  0  0  0  0  0
  153.2271  129.8263  154.6891 H   0  0  0  0  0  0  0  0  0  0  0  0
  152.9549  131.5184  154.9146 H   0  0  0  0  0  0  0  0  0  0  0  0
  152.4526  129.7007  157.3006 H   0  0  0  0  0  0  0  0  0  0  0  0
  154.1193  129.9728  156.8239 H   0  0  0  0  0  0  0  0  0  0  0  0
  150.2796  134.5339  155.7172 H   0  0  0  0  0  0  0  0  0  0  0  0
  146.5889  130.2826  152.5981 H   0  0  0  0  0  0  0  0  0  0  0  0
  145.1948  132.6073  153.5507 H   0  0  0  0  0  0  0  0  0  0  0  0
  146.2654  133.9810  153.6503 H   0  0  0  0  0  0  0  0  0  0  0  0
  147.4493  134.4978  151.6931 H   0  0  0  0  0  0  0  0  0  0  0  0
  146.5477  131.3950  150.6283 H   0  0  0  0  0  0  0  0  0  0  0  0
  144.9763  131.3529  151.4255 H   0  0  0  0  0  0  0  0  0  0  0  0
  145.6561  132.8891  148.8872 H   0  0  0  0  0  0  0  0  0  0  0  0
  144.3508  131.7187  149.1188 H   0  0  0  0  0  0  0  0  0  0  0  0
  143.9989  134.1184  152.0186 H   0  0  0  0  0  0  0  0  0  0  0  0
  145.5324  136.1281  151.7653 H   0  0  0  0  0  0  0  0  0  0  0  0
  144.1214  136.1848  150.7155 H   0  0  0  0  0  0  0  0  0  0  0  0
  145.6882  135.7506  150.0498 H   0  0  0  0  0  0  0  0  0  0  0  0
  1  2  1  0  0  0  0
  1 27  1  0  0  0  0
  1 28  1  0  0  0  0
  1 29  1  0  0  0  0
  2  3  1  0  0  0  0
  3  4  1  0  0  0  0
  3 30  1  0  0  0  0
  3 31  1  0  0  0  0
  4  5  1  0  0  0  0
  4 32  1  0  0  0  0
  4 33  1  0  0  0  0
  5  6  1  0  0  0  0
  5 10  1  0  0  0  0
  6  7  1  0  0  0  0
  6 34  1  0  0  0  0
  6 35  1  0  0  0  0
  7  8  1  0  0  0  0
  7 36  1  0  0  0  0
  7 37  1  0  0  0  0
  8  9  3  0  0  0  0
 10 15  1  0  0  0  0
 10 11  2  0  0  0  0
 11 12  1  0  0  0  0
 12 13  2  0  0  0  0
 12 38  1  0  0  0  0
 13 14  1  0  0  0  0
 14 18  1  0  0  0  0
 14 15  2  0  0  0  0
 15 16  1  0  0  0  0
 16 17  2  0  0  0  0
 17 18  1  0  0  0  0
 17 39  1  0  0  0  0
 18 19  1  0  0  0  0
 19 20  1  0  0  0  0
 19 40  1  0  0  0  0
 19 41  1  0  0  0  0
 20 25  1  0  0  0  0
 20 21  1  0  0  0  0
 20 22  1  0  0  0  0
 21 42  1  0  0  0  0
 22 23  1  0  0  0  0
 22 43  1  0  0  0  0
 22 44  1  0  0  0  0
 23 24  1  0  0  0  0
 23 45  1  0  0  0  0
 23 46  1  0  0  0  0
 24 25  1  0  0  0  0
 25 26  1  0  0  0  0
 25 47  1  0  0  0  0
 26 48  1  0  0  0  0
 26 49  1  0  0  0  0
 26 50  1  0  0  0  0
M  END
> <s_m_source_file>
AV-unprocessed.smi

> <i_m_source_file_index>
178

> <i_lp_mmshare_version>
43012

> <i_f3d_flags>
0

> <s_epik_input>
W0NIM11PW0NIMl1bQ0gyXU4oW0NIMl1bQ0gyXUMjTiljKG5bY0hdbjEpYyhjMTIpbltjSF1uMltDSDJdW0NAQF0zKFtPSF0pW0NIMl1bQ0gyXU9bQ0BIXTNbQ0gzXQ==

> <s_epik_cmdline>
J2VwaWtfcHl0aG9uJywgJy1waCcsICc3LjAnLCAnLXRuJywgJzgnLCAnLW1hJywgJzIwMCcsICctbWV0YWxfYmluZGluZycsICctaW1hZScsICc8aW5maWxlLm1hZT4nLCAnLW9tYWUnLCAnPG91dGZpbGUubWFlPic=

> <r_lp_tautomer_probability>
1

> <r_epik_Ionization_Penalty>
0.000885317

> <r_epik_Ionization_Penalty_Charging>
0

> <r_epik_Ionization_Penalty_Neutral>
0.000885317

> <r_epik_State_Penalty>
0.00047273

> <r_epik_Charging_Adjusted_Penalty>
0.00047273

> <i_epik_Tot_Q>
0

> <i_epik_Tot_abs_Q>
0

> <r_epik_Metal_State_Penalty>
-0

> <b_epik_Metal_Only>
0

> <s_lp_Force_Field>
OPLS_2005

> <r_lp_Energy>
28.3017

> <b_lp_Chiralities_Consistent>
1

> <s_lp_Variant>
AV-unprocessed.smi:178-3

> <Gold.Version>
5.8.1

> <Gold.Id.Protein>
6NUR|6NUR_protein|mol2

> <Gold.PLP.Fitness>
37.3379

> <Gold.PLP.PLP>
-34.8594

> <Gold.PLP.part.hbond>
-1.8422

> <Gold.PLP.part.metal>
0.0000

> <Gold.PLP.part.buried>
-1.9142

> <Gold.PLP.part.nonpolar>
-30.5908

> <Gold.PLP.part.repulsive>
0.4306

> <Gold.PLP.ligand.clash>
0.0000

> <Gold.PLP.ligand.torsion>
1.0365

> <Gold.PLP.Chemscore.Hbond>
1.4680

> <Gold.PLP.Chemscore.CHOScore>
0.0000

> <Gold.PLP.Chemscore.Metal>
0.0000

> <Gold.Chemscore.Hbonds>
donor molecule, donor type, donor heavy atom, donor atom, acceptor molecule, acceptor atom, score
      L1  H    21    42       P1  7948  0.38
      P1  H  6896  6907       L1     9  1.00

> <Gold.PLP.Chemscore.Internal.Correction>
0.1474

> <Gold.Rescore>
     Score         DG    S(hbond)    S(metal)    S(lipo)     H(rot)  DE(clash)    DE(int)     intcor
      6.63      -8.40       1.20        0.00      64.46       3.37       0.07       1.71       ----

> <Gold.Chemscore.Fitness>
6.6254

> <Gold.Chemscore.DG>
-8.3982

> <Gold.Chemscore.ZeroCoef>
-5.4800

> <Gold.Chemscore.Hbond>
1.2011

> <Gold.Chemscore.Metal>
0.0000

> <Gold.Chemscore.Lipo>
64.4614

> <Gold.Chemscore.Internal_Hbond>
0.0000

> <Gold.Chemscore.DEClash>
0.0659

> <Gold.Chemscore.DEInternal>
1.7069

> <Gold.Chemscore.Rot>
3.3732

> <Gold.Chemscore.Internal.Correction>
   9.000000E+99

> <Gold.Chemscore.Hbonds>
donor molecule, donor type, donor heavy atom, donor atom, acceptor molecule, acceptor atom, score
      L1  H    21    42       P1  7948  0.15
      P1  H  6896  6907       L1     9  0.97

> <Gold.Chemscore.Hbond.Weighted>
-4.0116

> <Gold.Chemscore.Metal.Weighted>
-0.0000

> <Gold.Chemscore.Lipo.Weighted>
-7.5420

> <Gold.Chemscore.Internal_Hbond.Weighted>
0.0000

> <Gold.Chemscore.DEClash.Weighted>
0.0659

> <Gold.Chemscore.DEInternal.Weighted>
1.7069

> <Gold.Chemscore.Rot.Weighted>
8.6354

> <Gold.Chemscore.Internal.Correction.Weighted>
   9.000000E+99

> <Gold.Protein.RotatedTorsions>
[ 6907 6896 6895 6894 ] final  137.61 input  -60.11 | X-H torsion
[ 7974 7965 7964 7962 ] final  -36.80 input  175.53 | X-H torsion
[ 8008 7997 7996 7995 ] final   -7.81 input   59.86 | X-H torsion
[ 10167 10162 10161 10158 ] final   69.31 input  -65.29 | X-H torsion
[ 10718 10713 10712 10709 ] final   76.77 input   66.30 | X-H torsion
[ 10763 10752 10751 10750 ] final -179.98 input  -60.55 | X-H torsion
[ 11005 11000 10999 10996 ] final -149.20 input  -57.11 | X-H torsion

> <Gold.Protein.ActiveResidues>
 VAL166  LYS551  ARG553  GLY616  TRP617  ASP618  TYR619  PRO620  LYS621  CYS622 
 ASP623  PHE694  ASN695  SER759  ASP760  ASP761  ALA762  ILE779  LEU786  VAL792 
 PHE793  MET794  SER795  GLU796  ALA797  LYS798  CYS799  TRP800  GLU811  SER814 

> <Gold.Protein.RotatedAtoms>
  152.2761  133.5426  159.5468 H   0  0  0  0  0  0  0  0  0  0  0  0  # atno 6907 bound_to 6896
  150.7177  134.0630  159.3847 H   0  0  0  0  0  0  0  0  0  0  0  0  # atno 6908 bound_to 6896
  151.8543  135.0547  160.0513 H   0  0  0  0  0  0  0  0  0  0  0  0  # atno 6909 bound_to 6896
  146.0630  140.6321  142.8988 H   0  0  0  0  0  0  0  0  0  0  0  0  # atno 7974 bound_to 7965
  154.5802  140.2397  155.8065 H   0  0  0  0  0  0  0  0  0  0  0  0  # atno 8008 bound_to 7997
  156.2173  140.3008  155.9826 H   0  0  0  0  0  0  0  0  0  0  0  0  # atno 8009 bound_to 7997
  155.2555  140.0412  157.2982 H   0  0  0  0  0  0  0  0  0  0  0  0  # atno 8010 bound_to 7997
  140.0692  144.5167  150.7239 H   0  0  0  0  0  0  0  0  0  0  0  0  # atno 10167 bound_to 10162
  157.6686  130.9790  150.1545 H   0  0  0  0  0  0  0  0  0  0  0  0  # atno 10718 bound_to 10713
  154.5282  135.2798  155.1204 H   0  0  0  0  0  0  0  0  0  0  0  0  # atno 10763 bound_to 10752
  154.2734  135.6299  153.5323 H   0  0  0  0  0  0  0  0  0  0  0  0  # atno 10764 bound_to 10752
  152.9951  135.5634  154.5788 H   0  0  0  0  0  0  0  0  0  0  0  0  # atno 10765 bound_to 10752
  140.7532  134.3383  157.5120 H   0  0  0  0  0  0  0  0  0  0  0  0  # atno 11005 bound_to 11000
  144.7186  140.4295  143.7025 LP  0  0  0  0  0  0  0  0  0  0  0  0  # atno 17320 bound_to 7965
  145.6527  139.1567  143.2853 LP  0  0  0  0  0  0  0  0  0  0  0  0  # atno 17321 bound_to 7965
  140.7134  143.2524  151.4510 LP  0  0  0  0  0  0  0  0  0  0  0  0  # atno 17342 bound_to 10162
  139.5846  144.1632  152.2013 LP  0  0  0  0  0  0  0  0  0  0  0  0  # atno 17343 bound_to 10162
  156.2336  130.3684  149.8417 LP  0  0  0  0  0  0  0  0  0  0  0  0  # atno 17370 bound_to 10713
  156.6237  130.8637  151.3481 LP  0  0  0  0  0  0  0  0  0  0  0  0  # atno 17371 bound_to 10713
  139.8784  134.9155  156.3133 LP  0  0  0  0  0  0  0  0  0  0  0  0  # atno 17394 bound_to 11000
  140.9731  133.7314  156.0564 LP  0  0  0  0  0  0  0  0  0  0  0  0  # atno 17395 bound_to 11000

$$$$
