AV-unprocessed.smi:2140|AV-procd|sdf|8716|dock8
  -GOLD-   2272011483D 1   1.00000     0.00000
 Structure written by MMmdl.
 40 41  0  0  0  0  0  0  0  0  2 V2000
  149.6821  131.2063  154.2141 C   0  0  0  0  0  0  0  0  0  0  0  0
  148.9386  132.3190  153.4352 C   0  0  2  0  0  0  0  0  0  0  0  0
  148.3846  133.3805  154.4240 C   0  0  0  0  0  0  0  0  0  0  0  0
  148.8443  134.7344  154.1272 N   0  0  0  0  0  0  0  0  0  0  0  0
  149.6587  135.4542  154.9120 C   0  0  0  0  0  0  0  0  0  0  0  0
  150.1120  135.0351  155.9765 O   0  0  0  0  0  0  0  0  0  0  0  0
  149.8836  136.6725  154.3909 N   0  0  0  0  0  0  0  0  0  0  0  0
  150.6608  137.7398  154.9184 C   0  0  0  0  0  0  0  0  0  0  0  0
  151.6684  137.5915  155.9030 C   0  0  0  0  0  0  0  0  0  0  0  0
  152.3746  138.7325  156.3302 C   0  0  0  0  0  0  0  0  0  0  0  0
  152.0552  139.9773  155.7542 C   0  0  0  0  0  0  0  0  0  0  0  0
  151.1063  140.1319  154.8073 N   0  0  0  0  0  0  0  0  0  0  0  0
  150.4331  139.0338  154.4029 C   0  0  0  0  0  0  0  0  0  0  0  0
  147.8414  131.7991  152.5546 N   0  3  0  0  0  0  0  0  0  0  0  0
  147.0722  130.6957  153.1935 C   0  0  0  0  0  0  0  0  0  0  0  0
  146.0153  130.1279  152.2328 C   0  0  0  0  0  0  0  0  0  0  0  0
  145.1363  131.1676  151.8310 O   0  0  0  0  0  0  0  0  0  0  0  0
  145.8270  132.1900  151.1288 C   0  0  0  0  0  0  0  0  0  0  0  0
  146.8936  132.8253  152.0378 C   0  0  0  0  0  0  0  0  0  0  0  0
  150.4496  131.6156  154.8705 H   0  0  0  0  0  0  0  0  0  0  0  0
  150.2042  130.5193  153.5481 H   0  0  0  0  0  0  0  0  0  0  0  0
  148.9972  130.6282  154.8352 H   0  0  0  0  0  0  0  0  0  0  0  0
  149.6767  132.7920  152.7856 H   0  0  0  0  0  0  0  0  0  0  0  0
  147.2959  133.3968  154.4437 H   0  0  0  0  0  0  0  0  0  0  0  0
  148.6994  133.1362  155.4389 H   0  0  0  0  0  0  0  0  0  0  0  0
  148.5137  135.1529  153.2697 H   0  0  0  0  0  0  0  0  0  0  0  0
  149.3903  136.8849  153.5361 H   0  0  0  0  0  0  0  0  0  0  0  0
  151.9239  136.6345  156.3295 H   0  0  0  0  0  0  0  0  0  0  0  0
  153.1478  138.6542  157.0801 H   0  0  0  0  0  0  0  0  0  0  0  0
  152.5791  140.8711  156.0585 H   0  0  0  0  0  0  0  0  0  0  0  0
  149.6831  139.1956  153.6424 H   0  0  0  0  0  0  0  0  0  0  0  0
  147.7259  129.8830  153.5030 H   0  0  0  0  0  0  0  0  0  0  0  0
  146.5845  131.0670  154.0965 H   0  0  0  0  0  0  0  0  0  0  0  0
  146.4843  129.6674  151.3616 H   0  0  0  0  0  0  0  0  0  0  0  0
  145.4354  129.3501  152.7304 H   0  0  0  0  0  0  0  0  0  0  0  0
  146.2796  131.7839  150.2227 H   0  0  0  0  0  0  0  0  0  0  0  0
  145.1074  132.9451  150.8119 H   0  0  0  0  0  0  0  0  0  0  0  0
  146.4159  133.3372  152.8749 H   0  0  0  0  0  0  0  0  0  0  0  0
  147.4166  133.5774  151.4478 H   0  0  0  0  0  0  0  0  0  0  0  0
  148.2935  131.4093  151.7399 H   0  0  0  0  0  0  0  0  0  0  0  0
  1  2  1  0  0  0  0
  1 20  1  0  0  0  0
  1 21  1  0  0  0  0
  1 22  1  0  0  0  0
  2  3  1  0  0  0  0
  2 14  1  0  0  0  0
  2 23  1  0  0  0  0
  3  4  1  0  0  0  0
  3 24  1  0  0  0  0
  3 25  1  0  0  0  0
  4  5  1  0  0  0  0
  4 26  1  0  0  0  0
  5  6  2  0  0  0  0
  5  7  1  0  0  0  0
  7  8  1  0  0  0  0
  7 27  1  0  0  0  0
  8 13  1  0  0  0  0
  8  9  2  0  0  0  0
  9 10  1  0  0  0  0
  9 28  1  0  0  0  0
 10 11  2  0  0  0  0
 10 29  1  0  0  0  0
 11 12  1  0  0  0  0
 11 30  1  0  0  0  0
 12 13  2  0  0  0  0
 13 31  1  0  0  0  0
 14 19  1  0  0  0  0
 14 15  1  0  0  0  0
 14 40  1  0  0  0  0
 15 16  1  0  0  0  0
 15 32  1  0  0  0  0
 15 33  1  0  0  0  0
 16 17  1  0  0  0  0
 16 34  1  0  0  0  0
 16 35  1  0  0  0  0
 17 18  1  0  0  0  0
 18 19  1  0  0  0  0
 18 36  1  0  0  0  0
 18 37  1  0  0  0  0
 19 38  1  0  0  0  0
 19 39  1  0  0  0  0
M  CHG  1  14   1
M  END
> <s_m_source_file>
AV-unprocessed.smi

> <i_m_source_file_index>
2140

> <i_lp_mmshare_version>
43012

> <i_f3d_flags>
0

> <s_epik_input>
W0NIMl0xW0NIMl1PW0NIMl1bQ0gyXU4xW0NASF0oW0NIM10pW0NIMl1bTkhdQyg9TylbTkhdYzJbY0hdW2NIXVtjSF1uW2NIXTI=

> <s_epik_cmdline>
J2VwaWtfcHl0aG9uJywgJy1waCcsICc3LjAnLCAnLXRuJywgJzgnLCAnLW1hJywgJzIwMCcsICctbWV0YWxfYmluZGluZycsICctaW1hZScsICc8aW5maWxlLm1hZT4nLCAnLW9tYWUnLCAnPG91dGZpbGUubWFlPic=

> <r_epik_Ionization_Penalty>
0.60672

> <r_epik_Ionization_Penalty_Charging>
0.602531

> <r_epik_Ionization_Penalty_Neutral>
0.00418997

> <r_epik_State_Penalty>
0.607459

> <r_epik_Charging_Adjusted_Penalty>
1.20999

> <i_epik_Tot_Q>
1

> <i_epik_Tot_abs_Q>
1

> <r_epik_Metal_State_Penalty>
0.604586

> <b_epik_Metal_Only>
0

> <s_lp_Force_Field>
OPLS_2005

> <r_lp_Energy>
23.5262

> <b_lp_Chiralities_Consistent>
1

> <s_lp_Variant>
AV-unprocessed.smi:2140-3

> <Gold.Version>
5.8.1

> <Gold.Id.Protein>
6NUR|6NUR_protein|mol2

> <Gold.PLP.Fitness>
46.1942

> <Gold.PLP.PLP>
-33.7009

> <Gold.PLP.part.hbond>
-4.4550

> <Gold.PLP.part.metal>
0.0000

> <Gold.PLP.part.buried>
-3.7552

> <Gold.PLP.part.nonpolar>
-25.6613

> <Gold.PLP.part.repulsive>
0.3151

> <Gold.PLP.ligand.clash>
0.0000

> <Gold.PLP.ligand.torsion>
1.1786

> <Gold.PLP.Chemscore.Hbond>
3.9433

> <Gold.PLP.Chemscore.CHOScore>
0.9899

> <Gold.PLP.Chemscore.Metal>
0.0000

> <Gold.Chemscore.Hbonds>
donor molecule, donor type, donor heavy atom, donor atom, acceptor molecule, acceptor atom, score
      L1  H     4    26       P1  7948  0.90
      L1  H     7    27       P1  7948  0.86
      L1  H    14    40       P1 10747  1.00
      P1  H  7989  7998       L1    12  1.00
      L1  C    13    31       P1  7957  0.78

> <Gold.PLP.Chemscore.Internal.Correction>
0.0510

> <Gold.Rescore>
     Score         DG    S(hbond)    S(metal)    S(lipo)     H(rot)  DE(clash)    DE(int)     intcor
     19.59     -21.68       3.29        0.00      77.88       1.52       0.03       2.07       ----

> <Gold.Chemscore.Fitness>
19.5868

> <Gold.Chemscore.DG>
-21.6833

> <Gold.Chemscore.ZeroCoef>
-5.4800

> <Gold.Chemscore.Hbond>
3.2866

> <Gold.Chemscore.Metal>
0.0000

> <Gold.Chemscore.Lipo>
77.8794

> <Gold.Chemscore.Internal_Hbond>
0.0000

> <Gold.Chemscore.DEClash>
0.0299

> <Gold.Chemscore.DEInternal>
2.0666

> <Gold.Chemscore.Rot>
1.5179

> <Gold.Chemscore.Internal.Correction>
   9.000000E+99

> <Gold.Chemscore.Hbonds>
donor molecule, donor type, donor heavy atom, donor atom, acceptor molecule, acceptor atom, score
      L1  H     4    26       P1  7948  0.75
      L1  H     7    27       P1  7948  0.79
      L1  H    14    40       P1 10747  1.00
      P1  H  7989  7998       L1    12  0.51

> <Gold.Chemscore.Hbond.Weighted>
-10.9773

> <Gold.Chemscore.Metal.Weighted>
-0.0000

> <Gold.Chemscore.Lipo.Weighted>
-9.1119

> <Gold.Chemscore.Internal_Hbond.Weighted>
0.0000

> <Gold.Chemscore.DEClash.Weighted>
0.0299

> <Gold.Chemscore.DEInternal.Weighted>
2.0666

> <Gold.Chemscore.Rot.Weighted>
3.8859

> <Gold.Chemscore.Internal.Correction.Weighted>
   9.000000E+99

> <Gold.Protein.RotatedTorsions>
[ 6907 6896 6895 6894 ] final   26.82 input  -60.11 | X-H torsion
[ 7974 7965 7964 7962 ] final  -85.95 input  175.53 | X-H torsion
[ 8008 7997 7996 7995 ] final -166.49 input   59.86 | X-H torsion
[ 10167 10162 10161 10158 ] final   98.93 input  -65.29 | X-H torsion
[ 10718 10713 10712 10709 ] final -136.48 input   66.30 | X-H torsion
[ 10763 10752 10751 10750 ] final -158.66 input  -60.55 | X-H torsion
[ 11005 11000 10999 10996 ] final  166.91 input  -57.11 | X-H torsion

> <Gold.Protein.ActiveResidues>
 VAL166  LYS551  ARG553  GLY616  TRP617  ASP618  TYR619  PRO620  LYS621  CYS622 
 ASP623  PHE694  ASN695  SER759  ASP760  ASP761  ALA762  ILE779  LEU786  VAL792 
 PHE793  MET794  SER795  GLU796  ALA797  LYS798  CYS799  TRP800  GLU811  SER814 

> <Gold.Protein.RotatedAtoms>
  151.9931  134.9968  160.0562 H   0  0  0  0  0  0  0  0  0  0  0  0  # atno 6907 bound_to 6896
  152.1590  133.4565  159.4859 H   0  0  0  0  0  0  0  0  0  0  0  0  # atno 6908 bound_to 6896
  150.6885  134.2013  159.4366 H   0  0  0  0  0  0  0  0  0  0  0  0  # atno 6909 bound_to 6896
  145.4865  140.9555  143.1836 H   0  0  0  0  0  0  0  0  0  0  0  0  # atno 7974 bound_to 7965
  155.8645  140.0983  157.1591 H   0  0  0  0  0  0  0  0  0  0  0  0  # atno 8008 bound_to 7997
  154.3992  140.1359  156.4065 H   0  0  0  0  0  0  0  0  0  0  0  0  # atno 8009 bound_to 7997
  155.7819  140.3458  155.5304 H   0  0  0  0  0  0  0  0  0  0  0  0  # atno 8010 bound_to 7997
  139.7664  144.6937  151.0218 H   0  0  0  0  0  0  0  0  0  0  0  0  # atno 10167 bound_to 10162
  156.2775  130.7301  151.1288 H   0  0  0  0  0  0  0  0  0  0  0  0  # atno 10718 bound_to 10713
  154.7538  135.3099  154.8508 H   0  0  0  0  0  0  0  0  0  0  0  0  # atno 10763 bound_to 10752
  153.9287  135.6787  153.4750 H   0  0  0  0  0  0  0  0  0  0  0  0  # atno 10764 bound_to 10752
  153.1135  135.4855  154.9004 H   0  0  0  0  0  0  0  0  0  0  0  0  # atno 10765 bound_to 10752
  140.2713  134.7824  157.3678 H   0  0  0  0  0  0  0  0  0  0  0  0  # atno 11005 bound_to 11000
  144.7859  139.6429  143.7134 LP  0  0  0  0  0  0  0  0  0  0  0  0  # atno 17320 bound_to 7965
  146.2310  139.5813  142.9555 LP  0  0  0  0  0  0  0  0  0  0  0  0  # atno 17321 bound_to 7965
  140.7811  143.4638  151.0240 LP  0  0  0  0  0  0  0  0  0  0  0  0  # atno 17342 bound_to 10162
  139.8323  143.7674  152.3180 LP  0  0  0  0  0  0  0  0  0  0  0  0  # atno 17343 bound_to 10162
  157.7304  131.0616  150.5728 LP  0  0  0  0  0  0  0  0  0  0  0  0  # atno 17370 bound_to 10713
  156.5831  130.4309  149.5969 LP  0  0  0  0  0  0  0  0  0  0  0  0  # atno 17371 bound_to 10713
  140.1370  134.5021  155.8061 LP  0  0  0  0  0  0  0  0  0  0  0  0  # atno 17394 bound_to 11000
  141.2177  133.6811  156.7142 LP  0  0  0  0  0  0  0  0  0  0  0  0  # atno 17395 bound_to 11000

$$$$
