AV-unprocessed.smi:1749|AV-procd|sdf|7051|dock2
  -GOLD-   22720 8263D 1   1.00000     0.00000
 Structure written by MMmdl.
 31 32  0  0  0  0  0  0  0  0  2 V2000
  153.0108  142.1270  161.7197 C   0  0  0  0  0  0  0  0  0  0  0  0
  152.2422  142.9819  160.7022 C   0  0  1  0  0  0  0  0  0  0  0  0
  152.2057  144.4633  161.1241 C   0  0  0  0  0  0  0  0  0  0  0  0
  151.4416  145.3230  160.1048 C   0  0  0  0  0  0  0  0  0  0  0  0
  152.0343  145.1755  158.6932 C   0  0  0  0  0  0  0  0  0  0  0  0
  152.0944  143.7009  158.2428 C   0  0  2  0  0  0  0  0  0  0  0  0
  150.7545  143.1637  158.0161 N   0  0  0  0  0  0  0  0  0  0  0  0
  150.4404  141.9622  157.4943 C   0  0  0  0  0  0  0  0  0  0  0  0
  151.3473  141.1952  157.1733 O   0  0  0  0  0  0  0  0  0  0  0  0
  149.1225  141.6629  157.3487 N   0  5  0  0  0  0  0  0  0  0  0  0
  148.5707  141.3968  156.1499 C   0  0  0  0  0  0  0  0  0  0  0  0
  147.2469  141.2452  155.9844 N   0  0  0  0  0  0  0  0  0  0  0  0
  146.8896  140.9618  154.6732 N   0  0  0  0  0  0  0  0  0  0  0  0
  147.9574  140.9182  153.8773 C   0  0  0  0  0  0  0  0  0  0  0  0
  149.4960  141.2177  154.6569 S   0  0  0  0  0  0  0  0  0  0  0  0
  152.8352  142.8386  159.2841 C   0  0  0  0  0  0  0  0  0  0  0  0
  154.0523  142.4409  161.7950 H   0  0  0  0  0  0  0  0  0  0  0  0
  152.9994  141.0745  161.4354 H   0  0  0  0  0  0  0  0  0  0  0  0
  152.5664  142.2048  162.7124 H   0  0  0  0  0  0  0  0  0  0  0  0
  151.2151  142.6140  160.6812 H   0  0  0  0  0  0  0  0  0  0  0  0
  151.7390  144.5609  162.1048 H   0  0  0  0  0  0  0  0  0  0  0  0
  153.2233  144.8425  161.2275 H   0  0  0  0  0  0  0  0  0  0  0  0
  150.3900  145.0325  160.0954 H   0  0  0  0  0  0  0  0  0  0  0  0
  151.4675  146.3696  160.4091 H   0  0  0  0  0  0  0  0  0  0  0  0
  151.4577  145.7687  157.9826 H   0  0  0  0  0  0  0  0  0  0  0  0
  153.0421  145.5918  158.6857 H   0  0  0  0  0  0  0  0  0  0  0  0
  152.6504  143.6427  157.3054 H   0  0  0  0  0  0  0  0  0  0  0  0
  149.9852  143.7685  158.2637 H   0  0  0  0  0  0  0  0  0  0  0  0
  147.8382  140.7096  152.8247 H   0  0  0  0  0  0  0  0  0  0  0  0
  153.8859  143.1314  159.3026 H   0  0  0  0  0  0  0  0  0  0  0  0
  152.8189  141.7922  158.9756 H   0  0  0  0  0  0  0  0  0  0  0  0
  1  2  1  0  0  0  0
  1 17  1  0  0  0  0
  1 18  1  0  0  0  0
  1 19  1  0  0  0  0
  2 16  1  0  0  0  0
  2  3  1  0  0  0  0
  2 20  1  0  0  0  0
  3  4  1  0  0  0  0
  3 21  1  0  0  0  0
  3 22  1  0  0  0  0
  4  5  1  0  0  0  0
  4 23  1  0  0  0  0
  4 24  1  0  0  0  0
  5  6  1  0  0  0  0
  5 25  1  0  0  0  0
  5 26  1  0  0  0  0
  6  7  1  0  0  0  0
  6 16  1  0  0  0  0
  6 27  1  0  0  0  0
  7  8  1  0  0  0  0
  7 28  1  0  0  0  0
  8  9  2  0  0  0  0
  8 10  1  0  0  0  0
 10 11  1  0  0  0  0
 11 15  1  0  0  0  0
 11 12  2  0  0  0  0
 12 13  1  0  0  0  0
 13 14  2  0  0  0  0
 14 15  1  0  0  0  0
 14 29  1  0  0  0  0
 16 30  1  0  0  0  0
 16 31  1  0  0  0  0
M  CHG  1  10  -1
M  END
> <s_m_source_file>
AV-unprocessed.smi

> <i_m_source_file_index>
1749

> <i_lp_mmshare_version>
43012

> <i_f3d_flags>
0

> <s_epik_input>
W0NIM11bQ0BASF0xW0NIMl1bQ0gyXVtDSDJdW0NASF0oW0NIMl0xKVtOSF1DKD1PKVtOSF1jMm5uW2NIXXMy

> <s_epik_cmdline>
J2VwaWtfcHl0aG9uJywgJy1waCcsICc3LjAnLCAnLXRuJywgJzgnLCAnLW1hJywgJzIwMCcsICctbWV0YWxfYmluZGluZycsICctaW1hZScsICc8aW5maWxlLm1hZT4nLCAnLW9tYWUnLCAnPG91dGZpbGUubWFlPic=

> <r_lp_tautomer_probability>
1

> <r_epik_Ionization_Penalty>
4.55442

> <r_epik_Ionization_Penalty_Charging>
4.5081

> <r_epik_Ionization_Penalty_Neutral>
0.0463156

> <r_epik_State_Penalty>
4.50781

> <r_epik_Charging_Adjusted_Penalty>
9.01591

> <i_epik_Tot_Q>
-1

> <i_epik_Tot_abs_Q>
1

> <r_epik_Metal_State_Penalty>
0.823335

> <b_epik_Metal_Only>
1

> <s_lp_Force_Field>
OPLS_2005

> <r_lp_Energy>
7.79441

> <b_lp_Chiralities_Consistent>
1

> <s_lp_Variant>
AV-unprocessed.smi:1749-8

> <Gold.Version>
5.8.1

> <Gold.Id.Protein>
6NUR|6NUR_protein|mol2

> <Gold.PLP.Fitness>
39.2185

> <Gold.PLP.PLP>
-37.4808

> <Gold.PLP.part.hbond>
0.0000

> <Gold.PLP.part.metal>
0.0000

> <Gold.PLP.part.buried>
-4.9324

> <Gold.PLP.part.nonpolar>
-33.3142

> <Gold.PLP.part.repulsive>
0.3364

> <Gold.PLP.ligand.clash>
0.0000

> <Gold.PLP.ligand.torsion>
0.6131

> <Gold.PLP.Chemscore.Hbond>
0.0000

> <Gold.PLP.Chemscore.CHOScore>
0.9843

> <Gold.PLP.Chemscore.Metal>
0.0000

> <Gold.Chemscore.Hbonds>
donor molecule, donor type, donor heavy atom, donor atom, acceptor molecule, acceptor atom, score
      L1  C    14    29       P1  7957  0.98

> <Gold.PLP.Chemscore.Internal.Correction>
0.0112

> <Gold.Rescore>
     Score         DG    S(hbond)    S(metal)    S(lipo)     H(rot)  DE(clash)    DE(int)     intcor
     14.33     -14.98       0.00        0.00     103.09       1.00       0.05       0.60       ----

> <Gold.Chemscore.Fitness>
14.3299

> <Gold.Chemscore.DG>
-14.9814

> <Gold.Chemscore.ZeroCoef>
-5.4800

> <Gold.Chemscore.Hbond>
0.0000

> <Gold.Chemscore.Metal>
0.0000

> <Gold.Chemscore.Lipo>
103.0886

> <Gold.Chemscore.Internal_Hbond>
0.0000

> <Gold.Chemscore.DEClash>
0.0502

> <Gold.Chemscore.DEInternal>
0.6012

> <Gold.Chemscore.Rot>
1.0000

> <Gold.Chemscore.Internal.Correction>
   9.000000E+99

> <Gold.Chemscore.Hbond.Weighted>
-0.0000

> <Gold.Chemscore.Metal.Weighted>
-0.0000

> <Gold.Chemscore.Lipo.Weighted>
-12.0614

> <Gold.Chemscore.Internal_Hbond.Weighted>
0.0000

> <Gold.Chemscore.DEClash.Weighted>
0.0502

> <Gold.Chemscore.DEInternal.Weighted>
0.6012

> <Gold.Chemscore.Rot.Weighted>
2.5600

> <Gold.Chemscore.Internal.Correction.Weighted>
   9.000000E+99

> <Gold.Protein.RotatedTorsions>
[ 6907 6896 6895 6894 ] final -171.00 input  -60.11 | X-H torsion
[ 7974 7965 7964 7962 ] final   68.44 input  175.53 | X-H torsion
[ 8008 7997 7996 7995 ] final -144.83 input   59.86 | X-H torsion
[ 10167 10162 10161 10158 ] final -105.54 input  -65.29 | X-H torsion
[ 10718 10713 10712 10709 ] final  -13.25 input   66.30 | X-H torsion
[ 10763 10752 10751 10750 ] final  162.68 input  -60.55 | X-H torsion
[ 11005 11000 10999 10996 ] final    6.70 input  -57.11 | X-H torsion

> <Gold.Protein.ActiveResidues>
 VAL166  LYS551  ARG553  GLY616  TRP617  ASP618  TYR619  PRO620  LYS621  CYS622 
 ASP623  PHE694  ASN695  SER759  ASP760  ASP761  ALA762  ILE779  LEU786  VAL792 
 PHE793  MET794  SER795  GLU796  ALA797  LYS798  CYS799  TRP800  GLU811  SER814 

> <Gold.Protein.RotatedAtoms>
  151.5167  133.3474  159.2894 H   0  0  0  0  0  0  0  0  0  0  0  0  # atno 6907 bound_to 6896
  150.8678  134.8047  159.7143 H   0  0  0  0  0  0  0  0  0  0  0  0  # atno 6908 bound_to 6896
  152.4677  134.5046  159.9787 H   0  0  0  0  0  0  0  0  0  0  0  0  # atno 6909 bound_to 6896
  145.8026  139.2990  143.1146 H   0  0  0  0  0  0  0  0  0  0  0  0  # atno 7974 bound_to 7965
  155.5333  140.0601  157.2884 H   0  0  0  0  0  0  0  0  0  0  0  0  # atno 8008 bound_to 7997
  154.4477  140.1932  156.0561 H   0  0  0  0  0  0  0  0  0  0  0  0  # atno 8009 bound_to 7997
  156.0636  140.3269  155.7495 H   0  0  0  0  0  0  0  0  0  0  0  0  # atno 8010 bound_to 7997
  140.1974  143.3845  152.1157 H   0  0  0  0  0  0  0  0  0  0  0  0  # atno 10167 bound_to 10162
  156.6330  130.4907  149.6122 H   0  0  0  0  0  0  0  0  0  0  0  0  # atno 10718 bound_to 10713
  154.2821  135.2763  155.2692 H   0  0  0  0  0  0  0  0  0  0  0  0  # atno 10763 bound_to 10752
  154.5209  135.5756  153.6683 H   0  0  0  0  0  0  0  0  0  0  0  0  # atno 10764 bound_to 10752
  152.9927  135.6204  154.2980 H   0  0  0  0  0  0  0  0  0  0  0  0  # atno 10765 bound_to 10752
  140.5566  134.0232  155.7956 H   0  0  0  0  0  0  0  0  0  0  0  0  # atno 11005 bound_to 11000
  145.9862  140.8641  143.0089 LP  0  0  0  0  0  0  0  0  0  0  0  0  # atno 17320 bound_to 7965
  144.6767  140.2151  143.7373 LP  0  0  0  0  0  0  0  0  0  0  0  0  # atno 17321 bound_to 7965
  139.5231  144.7067  151.5332 LP  0  0  0  0  0  0  0  0  0  0  0  0  # atno 17342 bound_to 10162
  140.6414  143.8882  150.6695 LP  0  0  0  0  0  0  0  0  0  0  0  0  # atno 17343 bound_to 10162
  156.2220  130.6742  151.1377 LP  0  0  0  0  0  0  0  0  0  0  0  0  # atno 17370 bound_to 10713
  157.7194  131.0690  150.6197 LP  0  0  0  0  0  0  0  0  0  0  0  0  # atno 17371 bound_to 10713
  141.1140  133.9571  157.2857 LP  0  0  0  0  0  0  0  0  0  0  0  0  # atno 17394 bound_to 11000
  139.9428  135.0188  156.8762 LP  0  0  0  0  0  0  0  0  0  0  0  0  # atno 17395 bound_to 11000

$$$$
