AV-unprocessed.smi:1607|AV-procd|sdf|6463|dock4
  -GOLD-   22720 7113D 1   1.00000     0.00000
 Structure written by MMmdl.
 39 40  0  0  0  0  0  0  0  0  2 V2000
  144.7139  133.1504  150.0718 C   0  0  0  0  0  0  0  0  0  0  0  0
  145.8752  133.6059  150.9669 C   0  0  2  0  0  0  0  0  0  0  0  0
  146.4885  132.4234  151.7357 C   0  0  0  0  0  0  0  0  0  0  0  0
  147.6249  132.9115  152.6422 C   0  0  0  0  0  0  0  0  0  0  0  0
  147.1373  134.0258  153.5809 C   0  0  0  0  0  0  0  0  0  0  0  0
  146.5576  135.1575  152.8124 N   0  3  2  0  0  0  0  0  0  0  0  0
  146.2029  136.3032  153.6873 C   0  0  0  0  0  0  0  0  0  0  0  0
  147.2588  136.5582  154.7806 C   0  0  0  0  0  0  0  0  0  0  0  0
  148.2423  137.5468  154.3545 N   0  0  0  0  0  0  0  0  0  0  0  0
  148.4334  138.7409  154.9369 C   0  0  0  0  0  0  0  0  0  0  0  0
  147.7884  139.1305  155.9101 O   0  0  0  0  0  0  0  0  0  0  0  0
  149.5185  139.6319  154.3325 C   0  0  0  0  0  0  0  0  0  0  0  0
  150.8386  139.0906  154.5919 N   0  0  0  0  0  0  0  0  0  0  0  0
  151.3552  137.8838  154.3498 C   0  0  0  0  0  0  0  0  0  0  0  0
  152.6131  137.8009  154.7550 N   0  0  0  0  0  0  0  0  0  0  0  0
  152.8589  139.0591  155.2792 N   0  0  0  0  0  0  0  0  0  0  0  0
  151.8091  139.8285  155.1862 N   0  0  0  0  0  0  0  0  0  0  0  0
  145.4316  134.7102  151.9483 C   0  0  0  0  0  0  0  0  0  0  0  0
  143.9008  132.7263  150.6616 H   0  0  0  0  0  0  0  0  0  0  0  0
  145.0403  132.3907  149.3608 H   0  0  0  0  0  0  0  0  0  0  0  0
  144.3088  133.9841  149.4977 H   0  0  0  0  0  0  0  0  0  0  0  0
  146.6467  134.0224  150.3170 H   0  0  0  0  0  0  0  0  0  0  0  0
  145.7235  131.9329  152.3394 H   0  0  0  0  0  0  0  0  0  0  0  0
  146.8654  131.6728  151.0399 H   0  0  0  0  0  0  0  0  0  0  0  0
  148.0201  132.0792  153.2252 H   0  0  0  0  0  0  0  0  0  0  0  0
  148.4498  133.2810  152.0314 H   0  0  0  0  0  0  0  0  0  0  0  0
  146.3919  133.6350  154.2757 H   0  0  0  0  0  0  0  0  0  0  0  0
  147.9779  134.3773  154.1806 H   0  0  0  0  0  0  0  0  0  0  0  0
  146.0435  137.1924  153.0750 H   0  0  0  0  0  0  0  0  0  0  0  0
  145.2522  136.0989  154.1819 H   0  0  0  0  0  0  0  0  0  0  0  0
  146.7745  136.9311  155.6836 H   0  0  0  0  0  0  0  0  0  0  0  0
  147.7761  135.6408  155.0628 H   0  0  0  0  0  0  0  0  0  0  0  0
  148.8116  137.3121  153.5535 H   0  0  0  0  0  0  0  0  0  0  0  0
  149.3762  139.7083  153.2538 H   0  0  0  0  0  0  0  0  0  0  0  0
  149.4537  140.6431  154.7376 H   0  0  0  0  0  0  0  0  0  0  0  0
  150.8139  137.0740  153.8831 H   0  0  0  0  0  0  0  0  0  0  0  0
  145.0409  135.5524  151.3785 H   0  0  0  0  0  0  0  0  0  0  0  0
  144.6141  134.3509  152.5757 H   0  0  0  0  0  0  0  0  0  0  0  0
  147.2903  135.4828  152.1981 H   0  0  0  0  0  0  0  0  0  0  0  0
  1  2  1  0  0  0  0
  1 19  1  0  0  0  0
  1 20  1  0  0  0  0
  1 21  1  0  0  0  0
  2 18  1  0  0  0  0
  2  3  1  0  0  0  0
  2 22  1  0  0  0  0
  3  4  1  0  0  0  0
  3 23  1  0  0  0  0
  3 24  1  0  0  0  0
  4  5  1  0  0  0  0
  4 25  1  0  0  0  0
  4 26  1  0  0  0  0
  5  6  1  0  0  0  0
  5 27  1  0  0  0  0
  5 28  1  0  0  0  0
  6  7  1  0  0  0  0
  6 18  1  0  0  0  0
  6 39  1  0  0  0  0
  7  8  1  0  0  0  0
  7 29  1  0  0  0  0
  7 30  1  0  0  0  0
  8  9  1  0  0  0  0
  8 31  1  0  0  0  0
  8 32  1  0  0  0  0
  9 10  1  0  0  0  0
  9 33  1  0  0  0  0
 10 11  2  0  0  0  0
 10 12  1  0  0  0  0
 12 13  1  0  0  0  0
 12 34  1  0  0  0  0
 12 35  1  0  0  0  0
 13 17  1  0  0  0  0
 13 14  1  0  0  0  0
 14 15  2  0  0  0  0
 14 36  1  0  0  0  0
 15 16  1  0  0  0  0
 16 17  2  0  0  0  0
 18 37  1  0  0  0  0
 18 38  1  0  0  0  0
M  CHG  1   6   1
M  END
> <s_m_source_file>
AV-unprocessed.smi

> <i_m_source_file_index>
1607

> <i_lp_mmshare_version>
43012

> <i_f3d_flags>
0

> <s_epik_input>
W0NIM11bQ0BASF0xW0NIMl1bQ0gyXVtDSDJdTihbQ0gyXTEpW0NIMl1bQ0gyXVtOSF1DKD1PKVtDSDJdbjJbY0hdbm5uMg==

> <s_epik_cmdline>
J2VwaWtfcHl0aG9uJywgJy1waCcsICc3LjAnLCAnLXRuJywgJzgnLCAnLW1hJywgJzIwMCcsICctbWV0YWxfYmluZGluZycsICctaW1hZScsICc8aW5maWxlLm1hZT4nLCAnLW9tYWUnLCAnPG91dGZpbGUubWFlPic=

> <r_lp_tautomer_probability>
1

> <r_epik_Ionization_Penalty>
0.00268321

> <r_epik_Ionization_Penalty_Charging>
0.00267875

> <r_epik_Ionization_Penalty_Neutral>
4.46125e-06

> <r_epik_State_Penalty>
0.00186642

> <r_epik_Charging_Adjusted_Penalty>
0.00454517

> <i_epik_Tot_Q>
1

> <i_epik_Tot_abs_Q>
1

> <r_epik_Metal_State_Penalty>
-0

> <b_epik_Metal_Only>
0

> <s_lp_Force_Field>
OPLS_2005

> <r_lp_Energy>
18.3574

> <b_lp_Chiralities_Consistent>
1

> <s_lp_Variant>
AV-unprocessed.smi:1607-1

> <Gold.Version>
5.8.1

> <Gold.Id.Protein>
6NUR|6NUR_protein|mol2

> <Gold.PLP.Fitness>
44.8377

> <Gold.PLP.PLP>
-29.2295

> <Gold.PLP.part.hbond>
-5.0000

> <Gold.PLP.part.metal>
0.0000

> <Gold.PLP.part.buried>
-3.7780

> <Gold.PLP.part.nonpolar>
-20.8011

> <Gold.PLP.part.repulsive>
0.0907

> <Gold.PLP.ligand.clash>
0.0000

> <Gold.PLP.ligand.torsion>
0.4851

> <Gold.PLP.Chemscore.Hbond>
4.4202

> <Gold.PLP.Chemscore.CHOScore>
1.0910

> <Gold.PLP.Chemscore.Metal>
0.0000

> <Gold.Chemscore.Hbonds>
donor molecule, donor type, donor heavy atom, donor atom, acceptor molecule, acceptor atom, score
      L1  H     6    39       P1  7948  2.00
      L1  H     9    33       P1  7948  0.94
      P1  H  7989  7998       L1    17  0.10
      P1  H  7997  8010       L1    16  0.98
      P1  H 10752 10765       L1    15  0.28
      L1  C    14    36       P1  7948  0.13
      L1  C    14    36       P1  7949  0.61

> <Gold.PLP.Chemscore.Internal.Correction>
0.0450

> <Gold.Rescore>
     Score         DG    S(hbond)    S(metal)    S(lipo)     H(rot)  DE(clash)    DE(int)     intcor
     13.05     -13.66       2.91        0.00      45.85       2.69       0.11       0.50       ----

> <Gold.Chemscore.Fitness>
13.0528

> <Gold.Chemscore.DG>
-13.6607

> <Gold.Chemscore.ZeroCoef>
-5.4800

> <Gold.Chemscore.Hbond>
2.9074

> <Gold.Chemscore.Metal>
0.0000

> <Gold.Chemscore.Lipo>
45.8497

> <Gold.Chemscore.Internal_Hbond>
0.0000

> <Gold.Chemscore.DEClash>
0.1081

> <Gold.Chemscore.DEInternal>
0.4998

> <Gold.Chemscore.Rot>
2.6932

> <Gold.Chemscore.Internal.Correction>
   9.000000E+99

> <Gold.Chemscore.Hbonds>
donor molecule, donor type, donor heavy atom, donor atom, acceptor molecule, acceptor atom, score
      L1  H     6    39       P1  7948  0.98
      L1  H     9    33       P1  7948  0.87
      P1  H  7997  8010       L1    16  0.65
      P1  H 10752 10765       L1    15  0.06

> <Gold.Chemscore.Hbond.Weighted>
-9.7108

> <Gold.Chemscore.Metal.Weighted>
-0.0000

> <Gold.Chemscore.Lipo.Weighted>
-5.3644

> <Gold.Chemscore.Internal_Hbond.Weighted>
0.0000

> <Gold.Chemscore.DEClash.Weighted>
0.1081

> <Gold.Chemscore.DEInternal.Weighted>
0.4998

> <Gold.Chemscore.Rot.Weighted>
6.8945

> <Gold.Chemscore.Internal.Correction.Weighted>
   9.000000E+99

> <Gold.Protein.RotatedTorsions>
[ 6907 6896 6895 6894 ] final   95.28 input  -60.11 | X-H torsion
[ 7974 7965 7964 7962 ] final   45.49 input  175.53 | X-H torsion
[ 8008 7997 7996 7995 ] final  101.56 input   59.86 | X-H torsion
[ 10167 10162 10161 10158 ] final  168.37 input  -65.29 | X-H torsion
[ 10718 10713 10712 10709 ] final  -45.51 input   66.30 | X-H torsion
[ 10763 10752 10751 10750 ] final  157.84 input  -60.55 | X-H torsion
[ 11005 11000 10999 10996 ] final -109.15 input  -57.11 | X-H torsion

> <Gold.Protein.ActiveResidues>
 VAL166  LYS551  ARG553  GLY616  TRP617  ASP618  TYR619  PRO620  LYS621  CYS622 
 ASP623  PHE694  ASN695  SER759  ASP760  ASP761  ALA762  ILE779  LEU786  VAL792 
 PHE793  MET794  SER795  GLU796  ALA797  LYS798  CYS799  TRP800  GLU811  SER814 

> <Gold.Protein.RotatedAtoms>
  152.5444  134.1063  159.8339 H   0  0  0  0  0  0  0  0  0  0  0  0  # atno 6907 bound_to 6896
  151.1135  133.5148  159.2612 H   0  0  0  0  0  0  0  0  0  0  0  0  # atno 6908 bound_to 6896
  151.1858  135.0390  159.8866 H   0  0  0  0  0  0  0  0  0  0  0  0  # atno 6909 bound_to 6896
  146.0475  139.4958  142.9739 H   0  0  0  0  0  0  0  0  0  0  0  0  # atno 7974 bound_to 7965
  156.1311  140.3195  155.8350 H   0  0  0  0  0  0  0  0  0  0  0  0  # atno 8008 bound_to 7997
  155.4330  140.0520  157.3034 H   0  0  0  0  0  0  0  0  0  0  0  0  # atno 8009 bound_to 7997
  154.4900  140.2088  155.9583 H   0  0  0  0  0  0  0  0  0  0  0  0  # atno 8010 bound_to 7997
  139.4966  144.3821  151.9610 H   0  0  0  0  0  0  0  0  0  0  0  0  # atno 10167 bound_to 10162
  156.2276  130.4170  149.8915 H   0  0  0  0  0  0  0  0  0  0  0  0  # atno 10718 bound_to 10713
  154.2067  135.2788  155.2972 H   0  0  0  0  0  0  0  0  0  0  0  0  # atno 10763 bound_to 10752
  154.5811  135.5589  153.7190 H   0  0  0  0  0  0  0  0  0  0  0  0  # atno 10764 bound_to 10752
  153.0074  135.6345  154.2205 H   0  0  0  0  0  0  0  0  0  0  0  0  # atno 10765 bound_to 10752
  141.0863  133.9132  157.2177 H   0  0  0  0  0  0  0  0  0  0  0  0  # atno 11005 bound_to 11000
  145.6781  141.0198  143.1621 LP  0  0  0  0  0  0  0  0  0  0  0  0  # atno 17320 bound_to 7965
  144.7105  139.8389  143.7416 LP  0  0  0  0  0  0  0  0  0  0  0  0  # atno 17321 bound_to 7965
  140.3258  144.3374  150.5999 LP  0  0  0  0  0  0  0  0  0  0  0  0  # atno 17342 bound_to 10162
  140.5685  143.2183  151.7640 LP  0  0  0  0  0  0  0  0  0  0  0  0  # atno 17343 bound_to 10162
  156.6540  130.8755  151.3536 LP  0  0  0  0  0  0  0  0  0  0  0  0  # atno 17370 bound_to 10713
  157.7118  130.9449  150.1114 LP  0  0  0  0  0  0  0  0  0  0  0  0  # atno 17371 bound_to 10713
  139.9682  135.0136  156.9443 LP  0  0  0  0  0  0  0  0  0  0  0  0  # atno 17394 bound_to 11000
  140.5354  134.0772  155.7327 LP  0  0  0  0  0  0  0  0  0  0  0  0  # atno 17395 bound_to 11000

$$$$
