AV-unprocessed.smi:237|AV-procd|sdf|1818|dock10
  -GOLD-   2262020413D 1   1.00000     0.00000
 Structure written by MMmdl.
 53 56  0  0  0  0  0  0  0  0  1 V2000
  152.2224  144.7615  158.7080 C   0  0  0  0  0  0  0  0  0  0  0  0
  152.1434  143.2629  159.0065 C   0  0  0  0  0  0  0  0  0  0  0  0
  151.4583  142.6305  157.9373 O   0  0  0  0  0  0  0  0  0  0  0  0
  150.5300  141.6256  158.3287 C   0  0  0  0  0  0  0  0  0  0  0  0
  149.7593  140.9649  157.1533 C   0  0  1  0  0  0  0  0  0  0  0  0
  149.7546  141.9450  155.9577 C   0  0  0  0  0  0  0  0  0  0  0  0
  149.0735  141.3468  154.7199 C   0  0  0  0  0  0  0  0  0  0  0  0
  149.7383  140.0153  154.3559 C   0  0  0  0  0  0  0  0  0  0  0  0
  149.7056  139.0636  155.5582 C   0  0  0  0  0  0  0  0  0  0  0  0
  150.3281  139.6707  156.7368 N   0  0  0  0  0  0  0  0  0  0  0  0
  150.4636  138.7677  157.7353 C   0  0  0  0  0  0  0  0  0  0  0  0
  151.6642  138.6143  158.3553 N   0  0  0  0  0  0  0  0  0  0  0  0
  151.8034  137.7011  159.3207 C   0  0  0  0  0  0  0  0  0  0  0  0
  150.8927  136.8554  159.8080 N   0  0  0  0  0  0  0  0  0  0  0  0
  149.6869  137.0128  159.1890 C   0  0  0  0  0  0  0  0  0  0  0  0
  149.3903  137.9366  158.1492 C   0  0  0  0  0  0  0  0  0  0  0  0
  148.0679  137.8001  157.7499 N   0  0  0  0  0  0  0  0  0  0  0  0
  147.6066  136.8475  158.5136 C   0  0  0  0  0  0  0  0  0  0  0  0
  148.5055  136.3291  159.4204 N   0  0  0  0  0  0  0  0  0  0  0  0
  148.2641  135.2648  160.3849 C   0  0  0  0  0  0  0  0  0  0  0  0
  147.1641  135.5692  161.4312 C   0  0  0  0  0  0  0  0  0  0  0  0
  146.9626  134.3123  162.2888 C   0  0  0  0  0  0  0  0  0  0  0  0
  146.5507  133.2130  161.5021 O   0  0  0  0  0  0  0  0  0  0  0  0
  147.2484  136.9036  162.1932 C   0  0  0  0  0  0  0  0  0  0  0  0
  146.2492  137.5117  161.3479 O   0  0  0  0  0  0  0  0  0  0  0  0
  145.8709  136.1985  160.8853 C   0  0  0  0  0  0  0  0  0  0  0  0
  152.7509  145.2904  159.5012 H   0  0  0  0  0  0  0  0  0  0  0  0
  151.2261  145.1955  158.6214 H   0  0  0  0  0  0  0  0  0  0  0  0
  152.7508  144.9465  157.7725 H   0  0  0  0  0  0  0  0  0  0  0  0
  153.1502  142.8613  159.1167 H   0  0  0  0  0  0  0  0  0  0  0  0
  151.6145  143.0984  159.9462 H   0  0  0  0  0  0  0  0  0  0  0  0
  151.0636  140.8703  158.9077 H   0  0  0  0  0  0  0  0  0  0  0  0
  149.8163  142.0783  159.0179 H   0  0  0  0  0  0  0  0  0  0  0  0
  148.7206  140.8006  157.4391 H   0  0  0  0  0  0  0  0  0  0  0  0
  149.2511  142.8716  156.2356 H   0  0  0  0  0  0  0  0  0  0  0  0
  150.7804  142.2169  155.7035 H   0  0  0  0  0  0  0  0  0  0  0  0
  148.0130  141.1892  154.9200 H   0  0  0  0  0  0  0  0  0  0  0  0
  149.1359  142.0413  153.8818 H   0  0  0  0  0  0  0  0  0  0  0  0
  149.2312  139.5609  153.5044 H   0  0  0  0  0  0  0  0  0  0  0  0
  150.7712  140.1875  154.0505 H   0  0  0  0  0  0  0  0  0  0  0  0
  148.6705  138.8003  155.7822 H   0  0  0  0  0  0  0  0  0  0  0  0
  150.2225  138.1367  155.3044 H   0  0  0  0  0  0  0  0  0  0  0  0
  152.7864  137.6353  159.7627 H   0  0  0  0  0  0  0  0  0  0  0  0
  146.5886  136.4957  158.4339 H   0  0  0  0  0  0  0  0  0  0  0  0
  148.0103  134.3642  159.8245 H   0  0  0  0  0  0  0  0  0  0  0  0
  149.2150  135.0483  160.8726 H   0  0  0  0  0  0  0  0  0  0  0  0
  147.8879  134.0316  162.7933 H   0  0  0  0  0  0  0  0  0  0  0  0
  146.2235  134.4851  163.0716 H   0  0  0  0  0  0  0  0  0  0  0  0
  145.9045  132.7215  161.9856 H   0  0  0  0  0  0  0  0  0  0  0  0
  146.9118  136.8395  163.2293 H   0  0  0  0  0  0  0  0  0  0  0  0
  148.2129  137.4052  162.1391 H   0  0  0  0  0  0  0  0  0  0  0  0
  145.7578  136.1441  159.8035 H   0  0  0  0  0  0  0  0  0  0  0  0
  144.9631  135.8471  161.3787 H   0  0  0  0  0  0  0  0  0  0  0  0
  1  2  1  0  0  0  0
  1 27  1  0  0  0  0
  1 28  1  0  0  0  0
  1 29  1  0  0  0  0
  2  3  1  0  0  0  0
  2 30  1  0  0  0  0
  2 31  1  0  0  0  0
  3  4  1  0  0  0  0
  4  5  1  0  0  0  0
  4 32  1  0  0  0  0
  4 33  1  0  0  0  0
  5 10  1  0  0  0  0
  5  6  1  0  0  0  0
  5 34  1  0  0  0  0
  6  7  1  0  0  0  0
  6 35  1  0  0  0  0
  6 36  1  0  0  0  0
  7  8  1  0  0  0  0
  7 37  1  0  0  0  0
  7 38  1  0  0  0  0
  8  9  1  0  0  0  0
  8 39  1  0  0  0  0
  8 40  1  0  0  0  0
  9 10  1  0  0  0  0
  9 41  1  0  0  0  0
  9 42  1  0  0  0  0
 10 11  1  0  0  0  0
 11 16  1  0  0  0  0
 11 12  2  0  0  0  0
 12 13  1  0  0  0  0
 13 14  2  0  0  0  0
 13 43  1  0  0  0  0
 14 15  1  0  0  0  0
 15 19  1  0  0  0  0
 15 16  2  0  0  0  0
 16 17  1  0  0  0  0
 17 18  2  0  0  0  0
 18 19  1  0  0  0  0
 18 44  1  0  0  0  0
 19 20  1  0  0  0  0
 20 21  1  0  0  0  0
 20 45  1  0  0  0  0
 20 46  1  0  0  0  0
 21 26  1  0  0  0  0
 21 22  1  0  0  0  0
 21 24  1  0  0  0  0
 22 23  1  0  0  0  0
 22 47  1  0  0  0  0
 22 48  1  0  0  0  0
 23 49  1  0  0  0  0
 24 25  1  0  0  0  0
 24 50  1  0  0  0  0
 24 51  1  0  0  0  0
 25 26  1  0  0  0  0
 26 52  1  0  0  0  0
 26 53  1  0  0  0  0
M  END
> <s_m_source_file>
AV-unprocessed.smi

> <i_m_source_file_index>
237

> <i_lp_mmshare_version>
43012

> <i_f3d_flags>
0

> <s_epik_input>
W0NIM11bQ0gyXU9bQ0gyXVtDQEBIXTFbQ0gyXVtDSDJdW0NIMl1bQ0gyXU4xYyhuW2NIXW4yKWMoYzIzKW5bY0hdbjNbQ0gyXUM0KFtDSDJdW09IXSlbQ0gyXU9bQ0gyXTQ=

> <s_epik_cmdline>
J2VwaWtfcHl0aG9uJywgJy1waCcsICc3LjAnLCAnLXRuJywgJzgnLCAnLW1hJywgJzIwMCcsICctbWV0YWxfYmluZGluZycsICctaW1hZScsICc8aW5maWxlLm1hZT4nLCAnLW9tYWUnLCAnPG91dGZpbGUubWFlPic=

> <r_lp_tautomer_probability>
1

> <r_epik_Ionization_Penalty>
0.00358373

> <r_epik_Ionization_Penalty_Charging>
0

> <r_epik_Ionization_Penalty_Neutral>
0.00358373

> <r_epik_State_Penalty>
0.00240903

> <r_epik_Charging_Adjusted_Penalty>
0.00240903

> <i_epik_Tot_Q>
0

> <i_epik_Tot_abs_Q>
0

> <r_epik_Metal_State_Penalty>
-0

> <b_epik_Metal_Only>
0

> <s_lp_Force_Field>
OPLS_2005

> <r_lp_Energy>
39.3208

> <b_lp_Chiralities_Consistent>
1

> <s_lp_Variant>
AV-unprocessed.smi:237-2

> <Gold.Version>
5.8.1

> <Gold.Id.Protein>
6NUR|6NUR_protein|mol2

> <Gold.PLP.Fitness>
44.2007

> <Gold.PLP.PLP>
-40.5503

> <Gold.PLP.part.hbond>
-2.0000

> <Gold.PLP.part.metal>
0.0000

> <Gold.PLP.part.buried>
0.1968

> <Gold.PLP.part.nonpolar>
-37.6095

> <Gold.PLP.part.repulsive>
0.0467

> <Gold.PLP.ligand.clash>
0.0000

> <Gold.PLP.ligand.torsion>
1.4193

> <Gold.PLP.Chemscore.Hbond>
1.9760

> <Gold.PLP.Chemscore.CHOScore>
0.0000

> <Gold.PLP.Chemscore.Metal>
0.0000

> <Gold.Chemscore.Hbonds>
donor molecule, donor type, donor heavy atom, donor atom, acceptor molecule, acceptor atom, score
      P1  H  6896  6909       L1    14  1.00
      P1  H  6934  6947       L1    25  0.90

> <Gold.PLP.Chemscore.Internal.Correction>
0.5611

> <Gold.Rescore>
     Score         DG    S(hbond)    S(metal)    S(lipo)     H(rot)  DE(clash)    DE(int)     intcor
     11.32     -15.42       1.78        0.00     101.06       3.06       1.80       2.30       ----

> <Gold.Chemscore.Fitness>
11.3237

> <Gold.Chemscore.DG>
-15.4211

> <Gold.Chemscore.ZeroCoef>
-5.4800

> <Gold.Chemscore.Hbond>
1.7833

> <Gold.Chemscore.Metal>
0.0000

> <Gold.Chemscore.Lipo>
101.0565

> <Gold.Chemscore.Internal_Hbond>
0.0000

> <Gold.Chemscore.DEClash>
1.7992

> <Gold.Chemscore.DEInternal>
2.2982

> <Gold.Chemscore.Rot>
3.0620

> <Gold.Chemscore.Internal.Correction>
   9.000000E+99

> <Gold.Chemscore.Hbonds>
donor molecule, donor type, donor heavy atom, donor atom, acceptor molecule, acceptor atom, score
      P1  H  6896  6909       L1    14  0.72
      P1  H  6934  6947       L1    25  0.18

> <Gold.Chemscore.Hbond.Weighted>
-5.9562

> <Gold.Chemscore.Metal.Weighted>
-0.0000

> <Gold.Chemscore.Lipo.Weighted>
-11.8236

> <Gold.Chemscore.Internal_Hbond.Weighted>
0.0000

> <Gold.Chemscore.DEClash.Weighted>
1.7992

> <Gold.Chemscore.DEInternal.Weighted>
2.2982

> <Gold.Chemscore.Rot.Weighted>
7.8388

> <Gold.Chemscore.Internal.Correction.Weighted>
   9.000000E+99

> <Gold.Protein.RotatedTorsions>
[ 6907 6896 6895 6894 ] final  103.73 input  -60.11 | X-H torsion
[ 7974 7965 7964 7962 ] final -120.17 input  175.53 | X-H torsion
[ 8008 7997 7996 7995 ] final  161.88 input   59.86 | X-H torsion
[ 10167 10162 10161 10158 ] final   24.51 input  -65.29 | X-H torsion
[ 10718 10713 10712 10709 ] final -166.09 input   66.30 | X-H torsion
[ 10763 10752 10751 10750 ] final  -45.34 input  -60.55 | X-H torsion
[ 11005 11000 10999 10996 ] final   35.40 input  -57.11 | X-H torsion

> <Gold.Protein.ActiveResidues>
 VAL166  LYS551  ARG553  GLY616  TRP617  ASP618  TYR619  PRO620  LYS621  CYS622 
 ASP623  PHE694  ASN695  SER759  ASP760  ASP761  ALA762  ILE779  LEU786  VAL792 
 PHE793  MET794  SER795  GLU796  ALA797  LYS798  CYS799  TRP800  GLU811  SER814 

> <Gold.Protein.RotatedAtoms>
  152.5286  133.9782  159.7793 H   0  0  0  0  0  0  0  0  0  0  0  0  # atno 6907 bound_to 6896
  151.0041  133.6020  159.2698 H   0  0  0  0  0  0  0  0  0  0  0  0  # atno 6908 bound_to 6896
  151.3118  135.0802  159.9328 H   0  0  0  0  0  0  0  0  0  0  0  0  # atno 6909 bound_to 6896
  145.0544  140.8243  143.4190 H   0  0  0  0  0  0  0  0  0  0  0  0  # atno 7974 bound_to 7965
  156.2071  140.1765  156.7776 H   0  0  0  0  0  0  0  0  0  0  0  0  # atno 8008 bound_to 7997
  154.5670  140.0689  156.8937 H   0  0  0  0  0  0  0  0  0  0  0  0  # atno 8009 bound_to 7997
  155.2742  140.3344  155.4265 H   0  0  0  0  0  0  0  0  0  0  0  0  # atno 8010 bound_to 7997
  140.5182  144.0047  150.6404 H   0  0  0  0  0  0  0  0  0  0  0  0  # atno 10167 bound_to 10162
  156.6629  130.9053  151.3032 H   0  0  0  0  0  0  0  0  0  0  0  0  # atno 10718 bound_to 10713
  154.0269  135.6662  153.4777 H   0  0  0  0  0  0  0  0  0  0  0  0  # atno 10763 bound_to 10752
  153.0557  135.5058  154.7970 H   0  0  0  0  0  0  0  0  0  0  0  0  # atno 10764 bound_to 10752
  154.6903  135.3060  154.9454 H   0  0  0  0  0  0  0  0  0  0  0  0  # atno 10765 bound_to 10752
  140.2430  134.3392  155.7918 H   0  0  0  0  0  0  0  0  0  0  0  0  # atno 11005 bound_to 11000
  145.1487  139.2528  143.5452 LP  0  0  0  0  0  0  0  0  0  0  0  0  # atno 17320 bound_to 7965
  146.3520  140.1183  142.8601 LP  0  0  0  0  0  0  0  0  0  0  0  0  # atno 17321 bound_to 7965
  140.3389  143.3032  152.0609 LP  0  0  0  0  0  0  0  0  0  0  0  0  # atno 17342 bound_to 10162
  139.4915  144.6457  151.6784 LP  0  0  0  0  0  0  0  0  0  0  0  0  # atno 17343 bound_to 10162
  157.7103  130.9433  150.1068 LP  0  0  0  0  0  0  0  0  0  0  0  0  # atno 17370 bound_to 10713
  156.1997  130.3659  149.8804 LP  0  0  0  0  0  0  0  0  0  0  0  0  # atno 17371 bound_to 10713
  141.2209  133.7310  156.8916 LP  0  0  0  0  0  0  0  0  0  0  0  0  # atno 17394 bound_to 11000
  140.1634  134.9150  157.2743 LP  0  0  0  0  0  0  0  0  0  0  0  0  # atno 17395 bound_to 11000

$$$$
