AV-unprocessed.smi:625|AV-procd|sdf|3105|dock10
  -GOLD-   22720 0 23D 1   1.00000     0.00000
 Structure written by MMmdl.
 49 51  0  0  0  0  0  0  0  0  1 V2000
  143.1244  147.6060  155.3746 C   0  0  0  0  0  0  0  0  0  0  0  0
  143.8691  146.6304  156.1551 N   0  0  0  0  0  0  0  0  0  0  0  0
  144.1696  145.3869  155.7408 C   0  0  0  0  0  0  0  0  0  0  0  0
  143.8128  144.9692  154.6386 O   0  0  0  0  0  0  0  0  0  0  0  0
  144.9567  144.6085  156.7014 C   0  0  0  0  0  0  0  0  0  0  0  0
  145.0127  145.0324  158.0867 C   0  0  0  0  0  0  0  0  0  0  0  0
  145.6911  144.3115  159.0014 C   0  0  0  0  0  0  0  0  0  0  0  0
  146.3987  143.0784  158.6426 C   0  0  0  0  0  0  0  0  0  0  0  0
  146.9966  142.4028  159.4799 O   0  0  0  0  0  0  0  0  0  0  0  0
  146.3475  142.7292  157.3217 N   0  0  0  0  0  0  0  0  0  0  0  0
  146.9785  141.4967  156.8235 C   0  0  0  0  0  0  0  0  0  0  0  0
  148.4195  141.3831  157.3313 C   0  0  0  0  0  0  0  0  0  0  0  0
  148.7504  140.4439  158.0552 O   0  0  0  0  0  0  0  0  0  0  0  0
  149.2652  142.3376  156.9140 N   0  0  0  0  0  0  0  0  0  0  0  0
  150.7147  142.3408  157.0998 C   0  0  2  0  0  0  0  0  0  0  0  0
  151.2582  140.9539  156.7191 C   0  0  0  0  0  0  0  0  0  0  0  0
  151.0370  142.7377  158.5636 C   0  0  2  0  0  0  0  0  0  0  0  0
  150.5637  144.1634  158.9527 C   0  0  0  0  0  0  0  0  0  0  0  0
  151.8315  144.8159  159.5275 C   0  0  1  0  0  0  0  0  0  0  0  0
  152.1901  144.1544  160.8702 C   0  0  0  0  0  0  0  0  0  0  0  0
  152.7163  142.7735  160.4356 C   0  0  0  0  0  0  0  0  0  0  0  0
  152.5468  142.8095  158.9040 C   0  0  2  0  0  0  0  0  0  0  0  0
  152.9024  144.2613  158.5980 C   0  0  0  0  0  0  0  0  0  0  0  0
  145.6335  143.4874  156.3717 C   0  0  0  0  0  0  0  0  0  0  0  0
  143.0332  148.5364  155.9350 H   0  0  0  0  0  0  0  0  0  0  0  0
  142.1211  147.2408  155.1516 H   0  0  0  0  0  0  0  0  0  0  0  0
  143.6344  147.8227  154.4352 H   0  0  0  0  0  0  0  0  0  0  0  0
  144.1921  146.9202  157.0667 H   0  0  0  0  0  0  0  0  0  0  0  0
  144.5076  145.9337  158.4034 H   0  0  0  0  0  0  0  0  0  0  0  0
  145.7143  144.6492  160.0271 H   0  0  0  0  0  0  0  0  0  0  0  0
  146.3929  140.6360  157.1522 H   0  0  0  0  0  0  0  0  0  0  0  0
  146.9870  141.4403  155.7341 H   0  0  0  0  0  0  0  0  0  0  0  0
  148.8865  143.0778  156.3411 H   0  0  0  0  0  0  0  0  0  0  0  0
  151.1748  143.0726  156.4340 H   0  0  0  0  0  0  0  0  0  0  0  0
  152.3459  140.9181  156.7673 H   0  0  0  0  0  0  0  0  0  0  0  0
  150.9754  140.6912  155.6991 H   0  0  0  0  0  0  0  0  0  0  0  0
  150.8692  140.1790  157.3806 H   0  0  0  0  0  0  0  0  0  0  0  0
  150.5533  142.0103  159.2178 H   0  0  0  0  0  0  0  0  0  0  0  0
  150.2296  144.7317  158.0838 H   0  0  0  0  0  0  0  0  0  0  0  0
  149.7420  144.1465  159.6693 H   0  0  0  0  0  0  0  0  0  0  0  0
  151.7792  145.9041  159.5742 H   0  0  0  0  0  0  0  0  0  0  0  0
  152.9695  144.7167  161.3863 H   0  0  0  0  0  0  0  0  0  0  0  0
  151.3299  144.0826  161.5368 H   0  0  0  0  0  0  0  0  0  0  0  0
  153.7679  142.6646  160.7043 H   0  0  0  0  0  0  0  0  0  0  0  0
  152.1686  141.9524  160.9000 H   0  0  0  0  0  0  0  0  0  0  0  0
  153.1658  142.0724  158.3938 H   0  0  0  0  0  0  0  0  0  0  0  0
  152.7545  144.5368  157.5525 H   0  0  0  0  0  0  0  0  0  0  0  0
  153.9168  144.5311  158.8975 H   0  0  0  0  0  0  0  0  0  0  0  0
  145.6656  143.0691  155.3754 H   0  0  0  0  0  0  0  0  0  0  0  0
  1  2  1  0  0  0  0
  1 25  1  0  0  0  0
  1 26  1  0  0  0  0
  1 27  1  0  0  0  0
  2  3  1  0  0  0  0
  2 28  1  0  0  0  0
  3  4  2  0  0  0  0
  3  5  1  0  0  0  0
  5 24  2  0  0  0  0
  5  6  1  0  0  0  0
  6  7  2  0  0  0  0
  6 29  1  0  0  0  0
  7  8  1  0  0  0  0
  7 30  1  0  0  0  0
  8  9  2  0  0  0  0
  8 10  1  0  0  0  0
 10 11  1  0  0  0  0
 10 24  1  0  0  0  0
 11 12  1  0  0  0  0
 11 31  1  0  0  0  0
 11 32  1  0  0  0  0
 12 13  2  0  0  0  0
 12 14  1  0  0  0  0
 14 15  1  0  0  0  0
 14 33  1  0  0  0  0
 15 16  1  0  0  0  0
 15 17  1  0  0  0  0
 15 34  1  0  0  0  0
 16 35  1  0  0  0  0
 16 36  1  0  0  0  0
 16 37  1  0  0  0  0
 17 22  1  0  0  0  0
 17 18  1  0  0  0  0
 17 38  1  0  0  0  0
 18 19  1  0  0  0  0
 18 39  1  0  0  0  0
 18 40  1  0  0  0  0
 19 23  1  0  0  0  0
 19 20  1  0  0  0  0
 19 41  1  0  0  0  0
 20 21  1  0  0  0  0
 20 42  1  0  0  0  0
 20 43  1  0  0  0  0
 21 22  1  0  0  0  0
 21 44  1  0  0  0  0
 21 45  1  0  0  0  0
 22 23  1  0  0  0  0
 22 46  1  0  0  0  0
 23 47  1  0  0  0  0
 23 48  1  0  0  0  0
 24 49  1  0  0  0  0
M  END
> <s_m_source_file>
AV-unprocessed.smi

> <i_m_source_file_index>
625

> <i_lp_mmshare_version>
43012

> <i_f3d_flags>
0

> <s_epik_input>
W0NIM11bTkhdQyg9TyljMVtjSF1bY0hdYyg9TyluKFtjSF0xKVtDSDJdQyg9TylbTkhdW0NASF0oW0NIM10pW0NASF0oW0NIMl1bQ0BIXTIzKVtDQEhdKFtDSDJdMylbQ0gyXVtDSDJdMg==

> <s_epik_cmdline>
J2VwaWtfcHl0aG9uJywgJy1waCcsICc3LjAnLCAnLXRuJywgJzgnLCAnLW1hJywgJzIwMCcsICctbWV0YWxfYmluZGluZycsICctaW1hZScsICc8aW5maWxlLm1hZT4nLCAnLW9tYWUnLCAnPG91dGZpbGUubWFlPic=

> <r_lp_tautomer_probability>
1

> <r_epik_Ionization_Penalty>
3.7129e-07

> <r_epik_Ionization_Penalty_Charging>
5.04114e-08

> <r_epik_Ionization_Penalty_Neutral>
3.20879e-07

> <r_epik_State_Penalty>
-0

> <r_epik_Charging_Adjusted_Penalty>
5.04114e-08

> <i_epik_Tot_Q>
0

> <i_epik_Tot_abs_Q>
0

> <r_epik_Metal_State_Penalty>
-0

> <b_epik_Metal_Only>
0

> <s_lp_Force_Field>
OPLS_2005

> <r_lp_Energy>
64.2087

> <b_lp_Chiralities_Consistent>
1

> <s_lp_Variant>
AV-unprocessed.smi:625-5

> <Gold.Version>
5.8.1

> <Gold.Id.Protein>
6NUR|6NUR_protein|mol2

> <Gold.PLP.Fitness>
50.4590

> <Gold.PLP.PLP>
-45.9074

> <Gold.PLP.part.hbond>
-2.5649

> <Gold.PLP.part.metal>
0.0000

> <Gold.PLP.part.buried>
-5.9750

> <Gold.PLP.part.nonpolar>
-36.8576

> <Gold.PLP.part.repulsive>
0.1562

> <Gold.PLP.ligand.clash>
0.0000

> <Gold.PLP.ligand.torsion>
0.4716

> <Gold.PLP.Chemscore.Hbond>
1.8160

> <Gold.PLP.Chemscore.CHOScore>
0.0000

> <Gold.PLP.Chemscore.Metal>
0.0000

> <Gold.Chemscore.Hbonds>
donor molecule, donor type, donor heavy atom, donor atom, acceptor molecule, acceptor atom, score
      L1  H    14    33       P1  8028  1.00
      P1  H  6934  6946       L1     9  0.83

> <Gold.PLP.Chemscore.Internal.Correction>
0.0468

> <Gold.Rescore>
     Score         DG    S(hbond)    S(metal)    S(lipo)     H(rot)  DE(clash)    DE(int)     intcor
     17.73     -20.62       1.83        0.00     113.87       1.67       0.03       2.86       ----

> <Gold.Chemscore.Fitness>
17.7336

> <Gold.Chemscore.DG>
-20.6218

> <Gold.Chemscore.ZeroCoef>
-5.4800

> <Gold.Chemscore.Hbond>
1.8251

> <Gold.Chemscore.Metal>
0.0000

> <Gold.Chemscore.Lipo>
113.8741

> <Gold.Chemscore.Internal_Hbond>
0.0000

> <Gold.Chemscore.DEClash>
0.0313

> <Gold.Chemscore.DEInternal>
2.8569

> <Gold.Chemscore.Rot>
1.6709

> <Gold.Chemscore.Internal.Correction>
   9.000000E+99

> <Gold.Chemscore.Hbonds>
donor molecule, donor type, donor heavy atom, donor atom, acceptor molecule, acceptor atom, score
      L1  H    14    33       P1  8028  0.97
      P1  H  6933  6944       L1     9  0.03
      P1  H  6934  6946       L1     9  0.80

> <Gold.Chemscore.Hbond.Weighted>
-6.0959

> <Gold.Chemscore.Metal.Weighted>
-0.0000

> <Gold.Chemscore.Lipo.Weighted>
-13.3233

> <Gold.Chemscore.Internal_Hbond.Weighted>
0.0000

> <Gold.Chemscore.DEClash.Weighted>
0.0313

> <Gold.Chemscore.DEInternal.Weighted>
2.8569

> <Gold.Chemscore.Rot.Weighted>
4.2774

> <Gold.Chemscore.Internal.Correction.Weighted>
   9.000000E+99

> <Gold.Protein.RotatedTorsions>
[ 6907 6896 6895 6894 ] final  105.32 input  -60.11 | X-H torsion
[ 7974 7965 7964 7962 ] final -143.29 input  175.53 | X-H torsion
[ 8008 7997 7996 7995 ] final  -31.95 input   59.86 | X-H torsion
[ 10167 10162 10161 10158 ] final  -59.99 input  -65.29 | X-H torsion
[ 10718 10713 10712 10709 ] final   34.04 input   66.30 | X-H torsion
[ 10763 10752 10751 10750 ] final -159.66 input  -60.55 | X-H torsion
[ 11005 11000 10999 10996 ] final -145.12 input  -57.11 | X-H torsion

> <Gold.Protein.ActiveResidues>
 VAL166  LYS551  ARG553  GLY616  TRP617  ASP618  TYR619  PRO620  LYS621  CYS622 
 ASP623  PHE694  ASN695  SER759  ASP760  ASP761  ALA762  ILE779  LEU786  VAL792 
 PHE793  MET794  SER795  GLU796  ALA797  LYS798  CYS799  TRP800  GLU811  SER814 

> <Gold.Protein.RotatedAtoms>
  152.5234  133.9545  159.7687 H   0  0  0  0  0  0  0  0  0  0  0  0  # atno 6907 bound_to 6896
  150.9848  133.6200  159.2724 H   0  0  0  0  0  0  0  0  0  0  0  0  # atno 6908 bound_to 6896
  151.3365  135.0859  159.9409 H   0  0  0  0  0  0  0  0  0  0  0  0  # atno 6909 bound_to 6896
  144.8380  140.5853  143.5471 H   0  0  0  0  0  0  0  0  0  0  0  0  # atno 7974 bound_to 7965
  154.4196  140.1750  156.1649 H   0  0  0  0  0  0  0  0  0  0  0  0  # atno 8008 bound_to 7997
  155.9808  140.3377  155.6637 H   0  0  0  0  0  0  0  0  0  0  0  0  # atno 8009 bound_to 7997
  155.6503  140.0689  157.2580 H   0  0  0  0  0  0  0  0  0  0  0  0  # atno 8010 bound_to 7997
  140.6100  143.2384  151.5732 H   0  0  0  0  0  0  0  0  0  0  0  0  # atno 10167 bound_to 10162
  157.3054  130.7372  149.6692 H   0  0  0  0  0  0  0  0  0  0  0  0  # atno 10718 bound_to 10713
  154.7456  135.3079  154.8651 H   0  0  0  0  0  0  0  0  0  0  0  0  # atno 10763 bound_to 10752
  153.9453  135.6770  153.4748 H   0  0  0  0  0  0  0  0  0  0  0  0  # atno 10764 bound_to 10752
  153.1053  135.4892  154.8865 H   0  0  0  0  0  0  0  0  0  0  0  0  # atno 10765 bound_to 10752
  140.7954  134.2919  157.4998 H   0  0  0  0  0  0  0  0  0  0  0  0  # atno 11005 bound_to 11000
  145.4753  139.1500  143.3792 LP  0  0  0  0  0  0  0  0  0  0  0  0  # atno 17320 bound_to 7965
  146.2677  140.4887  142.8827 LP  0  0  0  0  0  0  0  0  0  0  0  0  # atno 17321 bound_to 7965
  139.5354  144.2797  152.1239 LP  0  0  0  0  0  0  0  0  0  0  0  0  # atno 17342 bound_to 10162
  140.1994  144.4673  150.6439 LP  0  0  0  0  0  0  0  0  0  0  0  0  # atno 17343 bound_to 10162
  155.9674  130.4267  150.4712 LP  0  0  0  0  0  0  0  0  0  0  0  0  # atno 17370 bound_to 10713
  157.2700  131.0585  151.2266 LP  0  0  0  0  0  0  0  0  0  0  0  0  # atno 17371 bound_to 10713
  139.8727  134.9399  156.3754 LP  0  0  0  0  0  0  0  0  0  0  0  0  # atno 17394 bound_to 11000
  140.9347  133.7555  156.0070 LP  0  0  0  0  0  0  0  0  0  0  0  0  # atno 17395 bound_to 11000

$$$$
