AV-unprocessed.smi:1795|AV-procd|sdf|7241|dock8
  -GOLD-   22720 8493D 1   1.00000     0.00000
 Structure written by MMmdl.
 47 48  0  0  0  0  0  0  0  0  1 V2000
  153.2311  142.8818  160.1597 C   0  0  0  0  0  0  0  0  0  0  0  0
  152.7988  141.4309  159.9228 C   0  0  1  0  0  0  0  0  0  0  0  0
  151.7994  141.3095  158.7586 C   0  0  0  0  0  0  0  0  0  0  0  0
  151.4338  139.9214  158.4602 N   0  0  0  0  0  0  0  0  0  0  0  0
  150.4601  139.8189  157.3474 C   0  0  2  0  0  0  0  0  0  0  0  0
  149.2865  140.8234  157.4808 C   0  0  0  0  0  0  0  0  0  0  0  0
  149.8768  138.3857  157.1674 C   0  0  0  0  0  0  0  0  0  0  0  0
  148.6285  138.1705  157.8941 N   0  0  0  0  0  0  0  0  0  0  0  0
  148.4683  137.3140  158.9140 C   0  0  0  0  0  0  0  0  0  0  0  0
  149.3879  136.6396  159.3793 O   0  0  0  0  0  0  0  0  0  0  0  0
  147.0538  137.2194  159.5018 C   0  0  0  0  0  0  0  0  0  0  0  0
  146.9745  136.3121  160.6585 N   0  0  0  0  0  0  0  0  0  0  0  0
  147.0071  134.9281  160.3948 C   0  0  0  0  0  0  0  0  0  0  0  0
  146.9383  134.0162  161.3774 C   0  0  0  0  0  0  0  0  0  0  0  0
  146.8279  134.4860  162.7381 C   0  0  0  0  0  0  0  0  0  0  0  0
  146.7932  135.8074  163.0016 C   0  0  0  0  0  0  0  0  0  0  0  0
  146.8671  136.8078  161.9304 C   0  0  0  0  0  0  0  0  0  0  0  0
  146.8341  138.0170  162.1616 O   0  0  0  0  0  0  0  0  0  0  0  0
  152.6714  139.1767  158.1993 C   0  0  0  0  0  0  0  0  0  0  0  0
  153.7175  139.2973  159.3257 C   0  0  2  0  0  0  0  0  0  0  0  0
  153.3583  138.4847  160.5815 C   0  0  0  0  0  0  0  0  0  0  0  0
  153.9642  140.6672  159.6318 O   0  0  0  0  0  0  0  0  0  0  0  0
  152.3749  143.5119  160.4016 H   0  0  0  0  0  0  0  0  0  0  0  0
  153.7152  143.2986  159.2760 H   0  0  0  0  0  0  0  0  0  0  0  0
  153.9364  142.9474  160.9883 H   0  0  0  0  0  0  0  0  0  0  0  0
  152.3382  141.0587  160.8381 H   0  0  0  0  0  0  0  0  0  0  0  0
  150.9197  141.8856  159.0385 H   0  0  0  0  0  0  0  0  0  0  0  0
  152.2159  141.7803  157.8665 H   0  0  0  0  0  0  0  0  0  0  0  0
  150.9854  140.0697  156.4245 H   0  0  0  0  0  0  0  0  0  0  0  0
  148.5477  140.7103  156.6882 H   0  0  0  0  0  0  0  0  0  0  0  0
  149.6165  141.8584  157.4079 H   0  0  0  0  0  0  0  0  0  0  0  0
  148.7680  140.6996  158.4320 H   0  0  0  0  0  0  0  0  0  0  0  0
  149.6707  138.1541  156.1235 H   0  0  0  0  0  0  0  0  0  0  0  0
  150.6002  137.6456  157.5106 H   0  0  0  0  0  0  0  0  0  0  0  0
  147.8228  138.6919  157.5798 H   0  0  0  0  0  0  0  0  0  0  0  0
  146.7333  138.2252  159.7759 H   0  0  0  0  0  0  0  0  0  0  0  0
  146.3534  136.8961  158.7291 H   0  0  0  0  0  0  0  0  0  0  0  0
  147.0835  134.6592  159.3513 H   0  0  0  0  0  0  0  0  0  0  0  0
  146.9610  132.9592  161.1560 H   0  0  0  0  0  0  0  0  0  0  0  0
  146.7709  133.7743  163.5486 H   0  0  0  0  0  0  0  0  0  0  0  0
  146.7086  136.1398  164.0258 H   0  0  0  0  0  0  0  0  0  0  0  0
  152.4687  138.1163  158.0663 H   0  0  0  0  0  0  0  0  0  0  0  0
  153.1142  139.5294  157.2665 H   0  0  0  0  0  0  0  0  0  0  0  0
  154.6590  138.8964  158.9495 H   0  0  0  0  0  0  0  0  0  0  0  0
  153.2933  137.4217  160.3493 H   0  0  0  0  0  0  0  0  0  0  0  0
  152.3993  138.7836  161.0038 H   0  0  0  0  0  0  0  0  0  0  0  0
  154.1175  138.6079  161.3541 H   0  0  0  0  0  0  0  0  0  0  0  0
  1  2  1  0  0  0  0
  1 23  1  0  0  0  0
  1 24  1  0  0  0  0
  1 25  1  0  0  0  0
  2 22  1  0  0  0  0
  2  3  1  0  0  0  0
  2 26  1  0  0  0  0
  3  4  1  0  0  0  0
  3 27  1  0  0  0  0
  3 28  1  0  0  0  0
  4  5  1  0  0  0  0
  4 19  1  0  0  0  0
  5  6  1  0  0  0  0
  5  7  1  0  0  0  0
  5 29  1  0  0  0  0
  6 30  1  0  0  0  0
  6 31  1  0  0  0  0
  6 32  1  0  0  0  0
  7  8  1  0  0  0  0
  7 33  1  0  0  0  0
  7 34  1  0  0  0  0
  8  9  1  0  0  0  0
  8 35  1  0  0  0  0
  9 10  2  0  0  0  0
  9 11  1  0  0  0  0
 11 12  1  0  0  0  0
 11 36  1  0  0  0  0
 11 37  1  0  0  0  0
 12 17  1  0  0  0  0
 12 13  1  0  0  0  0
 13 14  2  0  0  0  0
 13 38  1  0  0  0  0
 14 15  1  0  0  0  0
 14 39  1  0  0  0  0
 15 16  2  0  0  0  0
 15 40  1  0  0  0  0
 16 17  1  0  0  0  0
 16 41  1  0  0  0  0
 17 18  2  0  0  0  0
 19 20  1  0  0  0  0
 19 42  1  0  0  0  0
 19 43  1  0  0  0  0
 20 21  1  0  0  0  0
 20 22  1  0  0  0  0
 20 44  1  0  0  0  0
 21 45  1  0  0  0  0
 21 46  1  0  0  0  0
 21 47  1  0  0  0  0
M  END
> <s_m_source_file>
AV-unprocessed.smi

> <i_m_source_file_index>
1795

> <i_lp_mmshare_version>
43012

> <i_f3d_flags>
0

> <s_epik_input>
W0NIM11bQ0BASF0xW0NIMl1OKFtDSDJdW0NASF0oTzEpW0NIM10pW0NASF0oW0NIM10pW0NIMl1bTkhdQyg9TylbQ0gyXW4yW2NIXVtjSF1bY0hdW2NIXWMyPU8=

> <s_epik_cmdline>
J2VwaWtfcHl0aG9uJywgJy1waCcsICc3LjAnLCAnLXRuJywgJzgnLCAnLW1hJywgJzIwMCcsICctbWV0YWxfYmluZGluZycsICctaW1hZScsICc8aW5maWxlLm1hZT4nLCAnLW9tYWUnLCAnPG91dGZpbGUubWFlPic=

> <r_lp_tautomer_probability>
1

> <r_epik_Ionization_Penalty>
0.237383

> <r_epik_Ionization_Penalty_Charging>
3.58805e-07

> <r_epik_Ionization_Penalty_Neutral>
0.237382

> <r_epik_State_Penalty>
0.228245

> <r_epik_Charging_Adjusted_Penalty>
0.228245

> <i_epik_Tot_Q>
0

> <i_epik_Tot_abs_Q>
0

> <r_epik_Metal_State_Penalty>
0.228221

> <b_epik_Metal_Only>
0

> <s_lp_Force_Field>
OPLS_2005

> <r_lp_Energy>
40.4957

> <b_lp_Chiralities_Consistent>
1

> <s_lp_Variant>
AV-unprocessed.smi:1795-5

> <Gold.Version>
5.8.1

> <Gold.Id.Protein>
6NUR|6NUR_protein|mol2

> <Gold.PLP.Fitness>
45.0485

> <Gold.PLP.PLP>
-39.2650

> <Gold.PLP.part.hbond>
-3.0000

> <Gold.PLP.part.metal>
0.0000

> <Gold.PLP.part.buried>
-4.7054

> <Gold.PLP.part.nonpolar>
-30.6364

> <Gold.PLP.part.repulsive>
0.0841

> <Gold.PLP.ligand.clash>
0.0000

> <Gold.PLP.ligand.torsion>
0.6929

> <Gold.PLP.Chemscore.Hbond>
2.3600

> <Gold.PLP.Chemscore.CHOScore>
0.0000

> <Gold.PLP.Chemscore.Metal>
0.0000

> <Gold.Chemscore.Hbonds>
donor molecule, donor type, donor heavy atom, donor atom, acceptor molecule, acceptor atom, score
      P1  H  6896  6907       L1    10  0.24
      P1  H  6931  6943       L1    18  0.15
      P1  H  6934  6947       L1    18  0.50

> <Gold.PLP.Chemscore.Internal.Correction>
0.0893

> <Gold.Rescore>
     Score         DG    S(hbond)    S(metal)    S(lipo)     H(rot)  DE(clash)    DE(int)     intcor
     18.86     -19.71       2.65        0.00      85.93       1.83       0.01       0.85       ----

> <Gold.Chemscore.Fitness>
18.8552

> <Gold.Chemscore.DG>
-19.7079

> <Gold.Chemscore.ZeroCoef>
-5.4800

> <Gold.Chemscore.Hbond>
2.6485

> <Gold.Chemscore.Metal>
0.0000

> <Gold.Chemscore.Lipo>
85.9341

> <Gold.Chemscore.Internal_Hbond>
0.0000

> <Gold.Chemscore.DEClash>
0.0073

> <Gold.Chemscore.DEInternal>
0.8453

> <Gold.Chemscore.Rot>
1.8251

> <Gold.Chemscore.Internal.Correction>
   9.000000E+99

> <Gold.Chemscore.Hbonds>
donor molecule, donor type, donor heavy atom, donor atom, acceptor molecule, acceptor atom, score
      P1  H  6896  6907       L1    10  0.25
      P1  H  6931  6943       L1    18  0.01
      P1  H  6934  6947       L1    18  0.48

> <Gold.Chemscore.Hbond.Weighted>
-8.8460

> <Gold.Chemscore.Metal.Weighted>
-0.0000

> <Gold.Chemscore.Lipo.Weighted>
-10.0543

> <Gold.Chemscore.Internal_Hbond.Weighted>
0.0000

> <Gold.Chemscore.DEClash.Weighted>
0.0073

> <Gold.Chemscore.DEInternal.Weighted>
0.8453

> <Gold.Chemscore.Rot.Weighted>
4.6724

> <Gold.Chemscore.Internal.Correction.Weighted>
   9.000000E+99

> <Gold.Protein.RotatedTorsions>
[ 6907 6896 6895 6894 ] final  -57.38 input  -60.11 | X-H torsion
[ 7974 7965 7964 7962 ] final  -57.96 input  175.53 | X-H torsion
[ 8008 7997 7996 7995 ] final  126.08 input   59.86 | X-H torsion
[ 10167 10162 10161 10158 ] final  -56.24 input  -65.29 | X-H torsion
[ 10718 10713 10712 10709 ] final  158.81 input   66.30 | X-H torsion
[ 10763 10752 10751 10750 ] final  118.60 input  -60.55 | X-H torsion
[ 11005 11000 10999 10996 ] final  -25.75 input  -57.11 | X-H torsion

> <Gold.Protein.ActiveResidues>
 VAL166  LYS551  ARG553  GLY616  TRP617  ASP618  TYR619  PRO620  LYS621  CYS622 
 ASP623  PHE694  ASN695  SER759  ASP760  ASP761  ALA762  ILE779  LEU786  VAL792 
 PHE793  MET794  SER795  GLU796  ALA797  LYS798  CYS799  TRP800  GLU811  SER814 

> <Gold.Protein.RotatedAtoms>
  150.8091  134.7234  159.6670 H   0  0  0  0  0  0  0  0  0  0  0  0  # atno 6907 bound_to 6896
  152.4210  134.5951  159.9994 H   0  0  0  0  0  0  0  0  0  0  0  0  # atno 6908 bound_to 6896
  151.6166  133.3305  159.3115 H   0  0  0  0  0  0  0  0  0  0  0  0  # atno 6909 bound_to 6896
  145.8449  140.8392  143.0015 H   0  0  0  0  0  0  0  0  0  0  0  0  # atno 7974 bound_to 7965
  156.2853  140.2701  156.2053 H   0  0  0  0  0  0  0  0  0  0  0  0  # atno 8008 bound_to 7997
  155.0319  140.0386  157.2495 H   0  0  0  0  0  0  0  0  0  0  0  0  # atno 8009 bound_to 7997
  154.7347  140.2713  155.6430 H   0  0  0  0  0  0  0  0  0  0  0  0  # atno 8010 bound_to 7997
  140.6328  143.2468  151.5195 H   0  0  0  0  0  0  0  0  0  0  0  0  # atno 10167 bound_to 10162
  157.1728  131.0614  151.2173 H   0  0  0  0  0  0  0  0  0  0  0  0  # atno 10718 bound_to 10713
  153.5702  135.3504  155.2834 H   0  0  0  0  0  0  0  0  0  0  0  0  # atno 10763 bound_to 10752
  154.8683  135.4157  154.2734 H   0  0  0  0  0  0  0  0  0  0  0  0  # atno 10764 bound_to 10752
  153.3498  135.7054  153.6868 H   0  0  0  0  0  0  0  0  0  0  0  0  # atno 10765 bound_to 10752
  140.8967  133.7552  156.0490 H   0  0  0  0  0  0  0  0  0  0  0  0  # atno 11005 bound_to 11000
  144.6731  140.0867  143.7467 LP  0  0  0  0  0  0  0  0  0  0  0  0  # atno 17320 bound_to 7965
  145.9423  139.2677  143.1261 LP  0  0  0  0  0  0  0  0  0  0  0  0  # atno 17321 bound_to 7965
  139.5541  144.2320  152.1582 LP  0  0  0  0  0  0  0  0  0  0  0  0  # atno 17342 bound_to 10162
  140.1569  144.5063  150.6655 LP  0  0  0  0  0  0  0  0  0  0  0  0  # atno 17343 bound_to 10162
  157.4027  130.7342  149.6779 LP  0  0  0  0  0  0  0  0  0  0  0  0  # atno 17370 bound_to 10713
  155.9736  130.4116  150.3991 LP  0  0  0  0  0  0  0  0  0  0  0  0  # atno 17371 bound_to 10713
  140.8281  134.3211  157.5358 LP  0  0  0  0  0  0  0  0  0  0  0  0  # atno 17394 bound_to 11000
  139.8736  134.9347  156.3615 LP  0  0  0  0  0  0  0  0  0  0  0  0  # atno 17395 bound_to 11000

$$$$
