AV-unprocessed.smi:258|AV-procd|sdf|1966|dock6
  -GOLD-   2262021123D 1   1.00000     0.00000
 Structure written by MMmdl.
 57 60  0  0  0  0  0  0  0  0  1 V2000
  148.3055  144.0058  161.6318 O   0  0  0  0  0  0  0  0  0  0  0  0
  148.8129  144.9866  160.7521 C   0  0  0  0  0  0  0  0  0  0  0  0
  149.8949  144.3816  159.8494 C   0  0  0  0  0  0  0  0  0  0  0  0
  150.8823  143.7612  160.6607 O   0  0  0  0  0  0  0  0  0  0  0  0
  151.9699  143.2004  159.9377 C   0  0  1  0  0  0  0  0  0  0  0  0
  153.0797  142.7191  160.8939 C   0  0  0  0  0  0  0  0  0  0  0  0
  154.1753  141.9833  160.1079 C   0  0  0  0  0  0  0  0  0  0  0  0
  153.5818  140.8339  159.2777 C   0  0  0  0  0  0  0  0  0  0  0  0
  152.4979  141.3170  158.4202 N   0  0  0  0  0  0  0  0  0  0  0  0
  152.0886  140.5144  157.4046 C   0  0  0  0  0  0  0  0  0  0  0  0
  152.6693  139.2973  157.2239 N   0  0  0  0  0  0  0  0  0  0  0  0
  152.2649  138.4951  156.2347 C   0  0  0  0  0  0  0  0  0  0  0  0
  151.3134  138.7073  155.3236 N   0  0  0  0  0  0  0  0  0  0  0  0
  150.7337  139.9297  155.4927 C   0  0  0  0  0  0  0  0  0  0  0  0
  151.0580  140.8872  156.4952 C   0  0  0  0  0  0  0  0  0  0  0  0
  150.2658  142.0194  156.3397 N   0  0  0  0  0  0  0  0  0  0  0  0
  149.5078  141.7410  155.3144 C   0  0  0  0  0  0  0  0  0  0  0  0
  149.7239  140.5069  154.7444 N   0  0  0  0  0  0  0  0  0  0  0  0
  149.0279  139.9413  153.6021 C   0  0  0  0  0  0  0  0  0  0  0  0
  147.6218  139.3897  153.9472 C   0  0  2  0  0  0  0  0  0  0  0  0
  146.7797  139.0632  152.6900 C   0  0  0  0  0  0  0  0  0  0  0  0
  147.5703  138.4752  151.6771 O   0  0  0  0  0  0  0  0  0  0  0  0
  146.8714  140.3245  154.9293 C   0  0  2  0  0  0  0  0  0  0  0  0
  145.4920  139.8412  155.3414 C   0  0  0  0  0  0  0  0  0  0  0  0
  144.8545  141.1144  155.8875 C   0  0  0  0  0  0  0  0  0  0  0  0
  145.4229  142.1825  155.1375 O   0  0  0  0  0  0  0  0  0  0  0  0
  146.5197  141.7048  154.3648 C   0  0  0  0  0  0  0  0  0  0  0  0
  151.4214  142.0169  159.1214 C   0  0  0  0  0  0  0  0  0  0  0  0
  147.3923  144.1889  161.7910 H   0  0  0  0  0  0  0  0  0  0  0  0
  148.0068  145.4283  160.1657 H   0  0  0  0  0  0  0  0  0  0  0  0
  149.2431  145.7824  161.3605 H   0  0  0  0  0  0  0  0  0  0  0  0
  149.4403  143.6189  159.2156 H   0  0  0  0  0  0  0  0  0  0  0  0
  150.3180  145.1394  159.1891 H   0  0  0  0  0  0  0  0  0  0  0  0
  152.3747  143.9361  159.2399 H   0  0  0  0  0  0  0  0  0  0  0  0
  153.5203  143.5561  161.4345 H   0  0  0  0  0  0  0  0  0  0  0  0
  152.6556  142.0504  161.6441 H   0  0  0  0  0  0  0  0  0  0  0  0
  154.6813  142.6866  159.4453 H   0  0  0  0  0  0  0  0  0  0  0  0
  154.9337  141.5987  160.7900 H   0  0  0  0  0  0  0  0  0  0  0  0
  154.3687  140.3829  158.6713 H   0  0  0  0  0  0  0  0  0  0  0  0
  153.1974  140.0566  159.9395 H   0  0  0  0  0  0  0  0  0  0  0  0
  152.7767  137.5466  156.1645 H   0  0  0  0  0  0  0  0  0  0  0  0
  148.7706  142.4356  154.9381 H   0  0  0  0  0  0  0  0  0  0  0  0
  148.9590  140.7183  152.8405 H   0  0  0  0  0  0  0  0  0  0  0  0
  149.6489  139.1508  153.1791 H   0  0  0  0  0  0  0  0  0  0  0  0
  147.7755  138.4407  154.4632 H   0  0  0  0  0  0  0  0  0  0  0  0
  145.9614  138.3850  152.9323 H   0  0  0  0  0  0  0  0  0  0  0  0
  146.3110  139.9623  152.2908 H   0  0  0  0  0  0  0  0  0  0  0  0
  148.4251  138.8778  151.6916 H   0  0  0  0  0  0  0  0  0  0  0  0
  147.4684  140.4612  155.8325 H   0  0  0  0  0  0  0  0  0  0  0  0
  144.9357  139.4878  154.4719 H   0  0  0  0  0  0  0  0  0  0  0  0
  145.5176  139.0394  156.0797 H   0  0  0  0  0  0  0  0  0  0  0  0
  143.7673  141.1041  155.8081 H   0  0  0  0  0  0  0  0  0  0  0  0
  145.1167  141.2500  156.9374 H   0  0  0  0  0  0  0  0  0  0  0  0
  147.3584  142.4001  154.4070 H   0  0  0  0  0  0  0  0  0  0  0  0
  146.1970  141.6276  153.3256 H   0  0  0  0  0  0  0  0  0  0  0  0
  150.9219  141.3083  159.7839 H   0  0  0  0  0  0  0  0  0  0  0  0
  150.6628  142.3804  158.4294 H   0  0  0  0  0  0  0  0  0  0  0  0
  1  2  1  0  0  0  0
  1 29  1  0  0  0  0
  2  3  1  0  0  0  0
  2 30  1  0  0  0  0
  2 31  1  0  0  0  0
  3  4  1  0  0  0  0
  3 32  1  0  0  0  0
  3 33  1  0  0  0  0
  4  5  1  0  0  0  0
  5 28  1  0  0  0  0
  5  6  1  0  0  0  0
  5 34  1  0  0  0  0
  6  7  1  0  0  0  0
  6 35  1  0  0  0  0
  6 36  1  0  0  0  0
  7  8  1  0  0  0  0
  7 37  1  0  0  0  0
  7 38  1  0  0  0  0
  8  9  1  0  0  0  0
  8 39  1  0  0  0  0
  8 40  1  0  0  0  0
  9 10  1  0  0  0  0
  9 28  1  0  0  0  0
 10 15  1  0  0  0  0
 10 11  2  0  0  0  0
 11 12  1  0  0  0  0
 12 13  2  0  0  0  0
 12 41  1  0  0  0  0
 13 14  1  0  0  0  0
 14 18  1  0  0  0  0
 14 15  2  0  0  0  0
 15 16  1  0  0  0  0
 16 17  2  0  0  0  0
 17 18  1  0  0  0  0
 17 42  1  0  0  0  0
 18 19  1  0  0  0  0
 19 20  1  0  0  0  0
 19 43  1  0  0  0  0
 19 44  1  0  0  0  0
 20 21  1  0  0  0  0
 20 23  1  0  0  0  0
 20 45  1  0  0  0  0
 21 22  1  0  0  0  0
 21 46  1  0  0  0  0
 21 47  1  0  0  0  0
 22 48  1  0  0  0  0
 23 27  1  0  0  0  0
 23 24  1  0  0  0  0
 23 49  1  0  0  0  0
 24 25  1  0  0  0  0
 24 50  1  0  0  0  0
 24 51  1  0  0  0  0
 25 26  1  0  0  0  0
 25 52  1  0  0  0  0
 25 53  1  0  0  0  0
 26 27  1  0  0  0  0
 27 54  1  0  0  0  0
 27 55  1  0  0  0  0
 28 56  1  0  0  0  0
 28 57  1  0  0  0  0
M  END
> <s_m_source_file>
AV-unprocessed.smi

> <i_m_source_file_index>
258

> <i_lp_mmshare_version>
43012

> <i_f3d_flags>
0

> <s_epik_input>
W09IXVtDSDJdW0NIMl1PW0NAQEhdMVtDSDJdW0NIMl1bQ0gyXU4oW0NIMl0xKWMobltjSF1uMiljKGMyMyluW2NIXW4zW0NIMl1bQ0BIXShbQ0gyXVtPSF0pW0NAQEhdNFtDSDJdW0NIMl1PW0NIMl00

> <s_epik_cmdline>
J2VwaWtfcHl0aG9uJywgJy1waCcsICc3LjAnLCAnLXRuJywgJzgnLCAnLW1hJywgJzIwMCcsICctbWV0YWxfYmluZGluZycsICctaW1hZScsICc8aW5maWxlLm1hZT4nLCAnLW9tYWUnLCAnPG91dGZpbGUubWFlPic=

> <r_lp_tautomer_probability>
1

> <r_epik_Ionization_Penalty>
0.00349036

> <r_epik_Ionization_Penalty_Charging>
0

> <r_epik_Ionization_Penalty_Neutral>
0.00349036

> <r_epik_State_Penalty>
0.00229798

> <r_epik_Charging_Adjusted_Penalty>
0.00229798

> <i_epik_Tot_Q>
0

> <i_epik_Tot_abs_Q>
0

> <r_epik_Metal_State_Penalty>
-0

> <b_epik_Metal_Only>
0

> <s_lp_Force_Field>
OPLS_2005

> <r_lp_Energy>
45.891

> <b_lp_Chiralities_Consistent>
1

> <s_lp_Variant>
AV-unprocessed.smi:258-2

> <Gold.Version>
5.8.1

> <Gold.Id.Protein>
6NUR|6NUR_protein|mol2

> <Gold.PLP.Fitness>
56.7722

> <Gold.PLP.PLP>
-46.8385

> <Gold.PLP.part.hbond>
-5.7539

> <Gold.PLP.part.metal>
0.0000

> <Gold.PLP.part.buried>
0.7149

> <Gold.PLP.part.nonpolar>
-40.9572

> <Gold.PLP.part.repulsive>
0.5329

> <Gold.PLP.ligand.clash>
0.0000

> <Gold.PLP.ligand.torsion>
0.8413

> <Gold.PLP.Chemscore.Hbond>
2.9180

> <Gold.PLP.Chemscore.CHOScore>
0.7699

> <Gold.PLP.Chemscore.Metal>
0.0000

> <Gold.Chemscore.Hbonds>
donor molecule, donor type, donor heavy atom, donor atom, acceptor molecule, acceptor atom, score
      L1  H    22    48       P1  7957  1.00
      P1  H  6933  6944       L1     1  0.86
      P1  H  7954  7966       L1    22  0.10
      P1  H  7997  8010       L1    11  0.75
      L1  C    17    42       P1  8028  0.79

> <Gold.PLP.Chemscore.Internal.Correction>
0.5527

> <Gold.Rescore>
     Score         DG    S(hbond)    S(metal)    S(lipo)     H(rot)  DE(clash)    DE(int)     intcor
      8.10     -11.31       1.63        0.00      95.60       4.22       1.56       1.64       ----

> <Gold.Chemscore.Fitness>
8.1006

> <Gold.Chemscore.DG>
-11.3052

> <Gold.Chemscore.ZeroCoef>
-5.4800

> <Gold.Chemscore.Hbond>
1.6333

> <Gold.Chemscore.Metal>
0.0000

> <Gold.Chemscore.Lipo>
95.5971

> <Gold.Chemscore.Internal_Hbond>
0.0000

> <Gold.Chemscore.DEClash>
1.5626

> <Gold.Chemscore.DEInternal>
1.6420

> <Gold.Chemscore.Rot>
4.2246

> <Gold.Chemscore.Internal.Correction>
   9.000000E+99

> <Gold.Chemscore.Hbonds>
donor molecule, donor type, donor heavy atom, donor atom, acceptor molecule, acceptor atom, score
      L1  H    22    48       P1  7957  0.72
      P1  H  6933  6944       L1     1  0.63
      P1  H  7997  8010       L1    11  0.08

> <Gold.Chemscore.Hbond.Weighted>
-5.4551

> <Gold.Chemscore.Metal.Weighted>
-0.0000

> <Gold.Chemscore.Lipo.Weighted>
-11.1849

> <Gold.Chemscore.Internal_Hbond.Weighted>
0.0000

> <Gold.Chemscore.DEClash.Weighted>
1.5626

> <Gold.Chemscore.DEInternal.Weighted>
1.6420

> <Gold.Chemscore.Rot.Weighted>
10.8149

> <Gold.Chemscore.Internal.Correction.Weighted>
   9.000000E+99

> <Gold.Protein.RotatedTorsions>
[ 6907 6896 6895 6894 ] final -143.29 input  -60.11 | X-H torsion
[ 7974 7965 7964 7962 ] final   17.76 input  175.53 | X-H torsion
[ 8008 7997 7996 7995 ] final   41.03 input   59.86 | X-H torsion
[ 10167 10162 10161 10158 ] final -133.38 input  -65.29 | X-H torsion
[ 10718 10713 10712 10709 ] final  170.39 input   66.30 | X-H torsion
[ 10763 10752 10751 10750 ] final  101.92 input  -60.55 | X-H torsion
[ 11005 11000 10999 10996 ] final  -97.19 input  -57.11 | X-H torsion

> <Gold.Protein.ActiveResidues>
 VAL166  LYS551  ARG553  GLY616  TRP617  ASP618  TYR619  PRO620  LYS621  CYS622 
 ASP623  PHE694  ASN695  SER759  ASP760  ASP761  ALA762  ILE779  LEU786  VAL792 
 PHE793  MET794  SER795  GLU796  ALA797  LYS798  CYS799  TRP800  GLU811  SER814 

> <Gold.Protein.RotatedAtoms>
  151.0985  133.5261  159.2610 H   0  0  0  0  0  0  0  0  0  0  0  0  # atno 6907 bound_to 6896
  151.2101  135.0477  159.8917 H   0  0  0  0  0  0  0  0  0  0  0  0  # atno 6908 bound_to 6896
  152.5441  134.0802  159.8286 H   0  0  0  0  0  0  0  0  0  0  0  0  # atno 6909 bound_to 6896
  146.2207  139.8555  142.8614 H   0  0  0  0  0  0  0  0  0  0  0  0  # atno 7974 bound_to 7965
  155.2628  140.3360  155.4271 H   0  0  0  0  0  0  0  0  0  0  0  0  # atno 8008 bound_to 7997
  156.2167  140.1792  156.7615 H   0  0  0  0  0  0  0  0  0  0  0  0  # atno 8009 bound_to 7997
  154.5764  140.0661  156.9024 H   0  0  0  0  0  0  0  0  0  0  0  0  # atno 8010 bound_to 7997
  139.8989  143.6632  152.2599 H   0  0  0  0  0  0  0  0  0  0  0  0  # atno 10167 bound_to 10162
  157.0088  131.0198  151.2809 H   0  0  0  0  0  0  0  0  0  0  0  0  # atno 10718 bound_to 10713
  153.3328  135.4028  155.1509 H   0  0  0  0  0  0  0  0  0  0  0  0  # atno 10763 bound_to 10752
  154.8627  135.3615  154.5448 H   0  0  0  0  0  0  0  0  0  0  0  0  # atno 10764 bound_to 10752
  153.5887  135.7074  153.5491 H   0  0  0  0  0  0  0  0  0  0  0  0  # atno 10765 bound_to 10752
  141.1387  133.8153  157.0673 H   0  0  0  0  0  0  0  0  0  0  0  0  # atno 11005 bound_to 11000
  145.2758  141.0123  143.3746 LP  0  0  0  0  0  0  0  0  0  0  0  0  # atno 17320 bound_to 7965
  144.9188  139.4437  143.6551 LP  0  0  0  0  0  0  0  0  0  0  0  0  # atno 17321 bound_to 7965
  139.7043  144.7630  151.1219 LP  0  0  0  0  0  0  0  0  0  0  0  0  # atno 17342 bound_to 10162
  140.7711  143.5415  150.9307 LP  0  0  0  0  0  0  0  0  0  0  0  0  # atno 17343 bound_to 10162
  157.5336  130.8074  149.7945 LP  0  0  0  0  0  0  0  0  0  0  0  0  # atno 17370 bound_to 10713
  156.0144  130.3820  150.2159 LP  0  0  0  0  0  0  0  0  0  0  0  0  # atno 17371 bound_to 10713
  140.0533  134.9794  157.1176 LP  0  0  0  0  0  0  0  0  0  0  0  0  # atno 17394 bound_to 11000
  140.3957  134.2137  155.7164 LP  0  0  0  0  0  0  0  0  0  0  0  0  # atno 17395 bound_to 11000

$$$$
