AV-unprocessed.smi:881|AV-procd|sdf|4036|dock10
  -GOLD-   22720 1533D 1   1.00000     0.00000
 Structure written by MMmdl.
 31 32  0  0  0  0  0  0  0  0  2 V2000
  152.3457  139.6227  158.7205 O   0  0  0  0  0  0  0  0  0  0  0  0
  152.3090  140.2370  157.6518 C   0  0  0  0  0  0  0  0  0  0  0  0
  152.6425  139.7479  156.4353 N   0  5  0  0  0  0  0  0  0  0  0  0
  151.7033  139.1855  155.6569 C   0  0  0  0  0  0  0  0  0  0  0  0
  150.9297  139.9069  154.8298 N   0  0  0  0  0  0  0  0  0  0  0  0
  150.0273  139.1332  154.1126 N   0  0  0  0  0  0  0  0  0  0  0  0
  150.1503  137.8404  154.4122 C   0  0  0  0  0  0  0  0  0  0  0  0
  151.3812  137.4501  155.5947 S   0  0  0  0  0  0  0  0  0  0  0  0
  151.9082  141.5168  157.6262 N   0  0  0  0  0  0  0  0  0  0  0  0
  151.4913  142.3199  158.7749 C   0  0  0  0  0  0  0  0  0  0  0  0
  151.1255  143.7407  158.2969 C   0  0  0  0  0  0  0  0  0  0  0  0
  150.7096  144.7211  159.4072 C   0  0  0  0  0  0  0  0  0  0  0  0
  151.9018  145.2150  160.2421 C   0  0  0  0  0  0  0  0  0  0  0  0
  152.2950  144.3163  161.4276 C   0  0  0  0  0  0  0  0  0  0  0  0
  152.1616  142.7983  161.2134 C   0  0  0  0  0  0  0  0  0  0  0  0
  152.6102  142.2794  159.8367 C   0  0  0  0  0  0  0  0  0  0  0  0
  149.5145  137.1117  153.9319 H   0  0  0  0  0  0  0  0  0  0  0  0
  151.8936  141.9741  156.7266 H   0  0  0  0  0  0  0  0  0  0  0  0
  150.6029  141.8586  159.2101 H   0  0  0  0  0  0  0  0  0  0  0  0
  151.9539  144.1653  157.7277 H   0  0  0  0  0  0  0  0  0  0  0  0
  150.2977  143.6640  157.5908 H   0  0  0  0  0  0  0  0  0  0  0  0
  150.2566  145.5883  158.9259 H   0  0  0  0  0  0  0  0  0  0  0  0
  149.9319  144.2937  160.0413 H   0  0  0  0  0  0  0  0  0  0  0  0
  152.7647  145.3567  159.5904 H   0  0  0  0  0  0  0  0  0  0  0  0
  151.6747  146.2068  160.6341 H   0  0  0  0  0  0  0  0  0  0  0  0
  153.3235  144.5503  161.7047 H   0  0  0  0  0  0  0  0  0  0  0  0
  151.6910  144.5874  162.2944 H   0  0  0  0  0  0  0  0  0  0  0  0
  152.7500  142.3012  161.9856 H   0  0  0  0  0  0  0  0  0  0  0  0
  151.1318  142.4908  161.3991 H   0  0  0  0  0  0  0  0  0  0  0  0
  152.9150  141.2396  159.9652 H   0  0  0  0  0  0  0  0  0  0  0  0
  153.4998  142.8089  159.4927 H   0  0  0  0  0  0  0  0  0  0  0  0
  1  2  2  0  0  0  0
  2  3  1  0  0  0  0
  2  9  1  0  0  0  0
  3  4  1  0  0  0  0
  4  8  1  0  0  0  0
  4  5  2  0  0  0  0
  5  6  1  0  0  0  0
  6  7  2  0  0  0  0
  7  8  1  0  0  0  0
  7 17  1  0  0  0  0
  9 10  1  0  0  0  0
  9 18  1  0  0  0  0
 10 16  1  0  0  0  0
 10 11  1  0  0  0  0
 10 19  1  0  0  0  0
 11 12  1  0  0  0  0
 11 20  1  0  0  0  0
 11 21  1  0  0  0  0
 12 13  1  0  0  0  0
 12 22  1  0  0  0  0
 12 23  1  0  0  0  0
 13 14  1  0  0  0  0
 13 24  1  0  0  0  0
 13 25  1  0  0  0  0
 14 15  1  0  0  0  0
 14 26  1  0  0  0  0
 14 27  1  0  0  0  0
 15 16  1  0  0  0  0
 15 28  1  0  0  0  0
 15 29  1  0  0  0  0
 16 30  1  0  0  0  0
 16 31  1  0  0  0  0
M  CHG  1   3  -1
M  END
> <s_m_source_file>
AV-unprocessed.smi

> <i_m_source_file_index>
881

> <i_lp_mmshare_version>
43012

> <i_f3d_flags>
0

> <s_epik_input>
czFbY0hdbm5jMVtOSF1DKD1PKVtOSF1bQ0hdMltDSDJdW0NIMl1bQ0gyXVtDSDJdW0NIMl1bQ0gyXTI=

> <s_epik_cmdline>
J2VwaWtfcHl0aG9uJywgJy1waCcsICc3LjAnLCAnLXRuJywgJzgnLCAnLW1hJywgJzIwMCcsICctbWV0YWxfYmluZGluZycsICctaW1hZScsICc8aW5maWxlLm1hZT4nLCAnLW9tYWUnLCAnPG91dGZpbGUubWFlPic=

> <r_lp_tautomer_probability>
1

> <r_epik_Ionization_Penalty>
4.55263

> <r_epik_Ionization_Penalty_Charging>
4.50588

> <r_epik_Ionization_Penalty_Neutral>
0.0467569

> <r_epik_State_Penalty>
4.50558

> <r_epik_Charging_Adjusted_Penalty>
9.01146

> <i_epik_Tot_Q>
-1

> <i_epik_Tot_abs_Q>
1

> <r_epik_Metal_State_Penalty>
0.822218

> <b_epik_Metal_Only>
1

> <s_lp_Force_Field>
OPLS_2005

> <r_lp_Energy>
12.3928

> <b_lp_Chiralities_Consistent>
1

> <s_lp_Variant>
AV-unprocessed.smi:881-2

> <Gold.Version>
5.8.1

> <Gold.Id.Protein>
6NUR|6NUR_protein|mol2

> <Gold.PLP.Fitness>
40.4027

> <Gold.PLP.PLP>
-31.4107

> <Gold.PLP.part.hbond>
-2.0000

> <Gold.PLP.part.metal>
0.0000

> <Gold.PLP.part.buried>
-3.4501

> <Gold.PLP.part.nonpolar>
-26.6062

> <Gold.PLP.part.repulsive>
0.3684

> <Gold.PLP.ligand.clash>
0.0000

> <Gold.PLP.ligand.torsion>
1.5109

> <Gold.PLP.Chemscore.Hbond>
3.0000

> <Gold.PLP.Chemscore.CHOScore>
1.0000

> <Gold.PLP.Chemscore.Metal>
0.0000

> <Gold.Chemscore.Hbonds>
donor molecule, donor type, donor heavy atom, donor atom, acceptor molecule, acceptor atom, score
      P1  H  7989  7998       L1     5  1.00
      P1  H  7997  8010       L1     3  2.00
      L1  C     7    17       P1  7948  1.00

> <Gold.PLP.Chemscore.Internal.Correction>
0.0138

> <Gold.Rescore>
     Score         DG    S(hbond)    S(metal)    S(lipo)     H(rot)  DE(clash)    DE(int)     intcor
     14.30     -17.29       1.33        0.00      84.94       1.00       0.11       2.88       ----

> <Gold.Chemscore.Fitness>
14.2990

> <Gold.Chemscore.DG>
-17.2886

> <Gold.Chemscore.ZeroCoef>
-5.4800

> <Gold.Chemscore.Hbond>
1.3264

> <Gold.Chemscore.Metal>
0.0000

> <Gold.Chemscore.Lipo>
84.9425

> <Gold.Chemscore.Internal_Hbond>
0.0000

> <Gold.Chemscore.DEClash>
0.1121

> <Gold.Chemscore.DEInternal>
2.8775

> <Gold.Chemscore.Rot>
1.0000

> <Gold.Chemscore.Internal.Correction>
   9.000000E+99

> <Gold.Chemscore.Hbonds>
donor molecule, donor type, donor heavy atom, donor atom, acceptor molecule, acceptor atom, score
      P1  H  7989  7998       L1     5  0.25
      P1  H  7997  8010       L1     3  0.30

> <Gold.Chemscore.Hbond.Weighted>
-4.4303

> <Gold.Chemscore.Metal.Weighted>
-0.0000

> <Gold.Chemscore.Lipo.Weighted>
-9.9383

> <Gold.Chemscore.Internal_Hbond.Weighted>
0.0000

> <Gold.Chemscore.DEClash.Weighted>
0.1121

> <Gold.Chemscore.DEInternal.Weighted>
2.8775

> <Gold.Chemscore.Rot.Weighted>
2.5600

> <Gold.Chemscore.Internal.Correction.Weighted>
   9.000000E+99

> <Gold.Protein.RotatedTorsions>
[ 6907 6896 6895 6894 ] final  -77.50 input  -60.11 | X-H torsion
[ 7974 7965 7964 7962 ] final  166.61 input  175.53 | X-H torsion
[ 8008 7997 7996 7995 ] final   74.48 input   59.86 | X-H torsion
[ 10167 10162 10161 10158 ] final  106.12 input  -65.29 | X-H torsion
[ 10718 10713 10712 10709 ] final   40.16 input   66.30 | X-H torsion
[ 10763 10752 10751 10750 ] final  168.42 input  -60.55 | X-H torsion
[ 11005 11000 10999 10996 ] final  100.16 input  -57.11 | X-H torsion

> <Gold.Protein.ActiveResidues>
 VAL166  LYS551  ARG553  GLY616  TRP617  ASP618  TYR619  PRO620  LYS621  CYS622 
 ASP623  PHE694  ASN695  SER759  ASP760  ASP761  ALA762  ILE779  LEU786  VAL792 
 PHE793  MET794  SER795  GLU796  ALA797  LYS798  CYS799  TRP800  GLU811  SER814 

> <Gold.Protein.RotatedAtoms>
  150.6997  134.4413  159.5293 H   0  0  0  0  0  0  0  0  0  0  0  0  # atno 6907 bound_to 6896
  152.2122  134.8488  160.0505 H   0  0  0  0  0  0  0  0  0  0  0  0  # atno 6908 bound_to 6896
  151.9369  133.3592  159.3988 H   0  0  0  0  0  0  0  0  0  0  0  0  # atno 6909 bound_to 6896
  144.7456  139.8641  143.6383 H   0  0  0  0  0  0  0  0  0  0  0  0  # atno 7974 bound_to 7965
  155.7990  140.3477  155.5392 H   0  0  0  0  0  0  0  0  0  0  0  0  # atno 8008 bound_to 7997
  155.8557  140.0963  157.1666 H   0  0  0  0  0  0  0  0  0  0  0  0  # atno 8009 bound_to 7997
  154.4009  140.1368  156.3886 H   0  0  0  0  0  0  0  0  0  0  0  0  # atno 8010 bound_to 7997
  139.7036  144.7090  151.1145 H   0  0  0  0  0  0  0  0  0  0  0  0  # atno 10167 bound_to 10162
  157.3790  130.7743  149.7178 H   0  0  0  0  0  0  0  0  0  0  0  0  # atno 10718 bound_to 10713
  154.3684  135.2753  155.2280 H   0  0  0  0  0  0  0  0  0  0  0  0  # atno 10763 bound_to 10752
  154.4439  135.5947  153.6150 H   0  0  0  0  0  0  0  0  0  0  0  0  # atno 10764 bound_to 10752
  152.9839  135.6025  154.3912 H   0  0  0  0  0  0  0  0  0  0  0  0  # atno 10765 bound_to 10752
  139.8771  134.9128  156.4714 H   0  0  0  0  0  0  0  0  0  0  0  0  # atno 11005 bound_to 11000
  146.1327  139.4366  143.0158 LP  0  0  0  0  0  0  0  0  0  0  0  0  # atno 17320 bound_to 7965
  145.7138  141.0097  143.1439 LP  0  0  0  0  0  0  0  0  0  0  0  0  # atno 17321 bound_to 7965
  140.7716  143.5390  150.9334 LP  0  0  0  0  0  0  0  0  0  0  0  0  # atno 17342 bound_to 10162
  139.9073  143.6763  152.3121 LP  0  0  0  0  0  0  0  0  0  0  0  0  # atno 17343 bound_to 10162
  155.9771  130.4066  150.3731 LP  0  0  0  0  0  0  0  0  0  0  0  0  # atno 17370 bound_to 10713
  157.1833  131.0397  151.2738 LP  0  0  0  0  0  0  0  0  0  0  0  0  # atno 17371 bound_to 10713
  140.8793  133.7930  155.9449 LP  0  0  0  0  0  0  0  0  0  0  0  0  # atno 17394 bound_to 11000
  140.8871  134.2541  157.5114 LP  0  0  0  0  0  0  0  0  0  0  0  0  # atno 17395 bound_to 11000

$$$$
