AV-unprocessed.smi:300|AV-procd|sdf|2269|dock1
  -GOLD-   2262022163D 1   1.00000     0.00000
 Structure written by MMmdl.
 45 46  0  0  0  0  0  0  0  0  1 V2000
  150.8968  140.3944  157.7608 C   0  0  0  0  0  0  0  0  0  0  0  0
  151.5561  141.4996  158.4250 N   0  0  0  0  0  0  0  0  0  0  0  0
  152.8722  141.3192  158.9150 C   0  0  0  0  0  0  0  0  0  0  0  0
  153.4853  140.2580  158.7969 O   0  0  0  0  0  0  0  0  0  0  0  0
  153.4347  142.4900  159.5772 C   0  0  0  0  0  0  0  0  0  0  0  0
  152.7201  143.6302  159.6974 C   0  0  0  0  0  0  0  0  0  0  0  0
  151.4312  143.7766  159.2180 N   0  0  0  0  0  0  0  0  0  0  0  0
  150.7239  145.0497  159.4071 C   0  0  0  0  0  0  0  0  0  0  0  0
  149.4904  144.9272  160.3122 C   0  0  0  0  0  0  0  0  0  0  0  0
  149.5641  144.3688  161.4079 O   0  0  0  0  0  0  0  0  0  0  0  0
  148.3610  145.4789  159.8440 N   0  0  0  0  0  0  0  0  0  0  0  0
  147.0816  145.4862  160.5422 C   0  0  0  0  0  0  0  0  0  0  0  0
  146.5074  144.0640  160.6827 C   0  0  0  0  0  0  0  0  0  0  0  0
  145.0390  144.0705  160.6082 N   0  0  0  0  0  0  0  0  0  0  0  0
  144.4650  144.6248  159.3722 C   0  0  0  0  0  0  0  0  0  0  0  0
  143.6499  145.9091  159.6188 C   0  0  0  0  0  0  0  0  0  0  0  0
  142.2180  145.6556  160.1129 C   0  0  0  0  0  0  0  0  0  0  0  0
  142.1325  144.9625  161.4805 C   0  0  0  0  0  0  0  0  0  0  0  0
  142.7630  143.5602  161.4910 C   0  0  0  0  0  0  0  0  0  0  0  0
  144.2897  143.5993  161.6336 C   0  0  0  0  0  0  0  0  0  0  0  0
  144.7859  143.1802  162.6804 O   0  0  0  0  0  0  0  0  0  0  0  0
  150.8098  142.6906  158.5650 C   0  0  0  0  0  0  0  0  0  0  0  0
  149.6555  142.7882  158.1407 O   0  0  0  0  0  0  0  0  0  0  0  0
  151.6073  139.6064  157.5124 H   0  0  0  0  0  0  0  0  0  0  0  0
  150.4572  140.7726  156.8360 H   0  0  0  0  0  0  0  0  0  0  0  0
  150.1314  140.0239  158.4445 H   0  0  0  0  0  0  0  0  0  0  0  0
  154.4361  142.4423  159.9790 H   0  0  0  0  0  0  0  0  0  0  0  0
  153.1809  144.4680  160.2002 H   0  0  0  0  0  0  0  0  0  0  0  0
  151.3965  145.7859  159.8491 H   0  0  0  0  0  0  0  0  0  0  0  0
  150.4322  145.4621  158.4394 H   0  0  0  0  0  0  0  0  0  0  0  0
  148.3889  145.9232  158.9374 H   0  0  0  0  0  0  0  0  0  0  0  0
  147.2394  145.9302  161.5254 H   0  0  0  0  0  0  0  0  0  0  0  0
  146.3755  146.1346  160.0205 H   0  0  0  0  0  0  0  0  0  0  0  0
  146.9291  143.4118  159.9173 H   0  0  0  0  0  0  0  0  0  0  0  0
  146.8337  143.6252  161.6276 H   0  0  0  0  0  0  0  0  0  0  0  0
  145.2582  144.8703  158.6656 H   0  0  0  0  0  0  0  0  0  0  0  0
  143.8594  143.8710  158.8673 H   0  0  0  0  0  0  0  0  0  0  0  0
  144.1798  146.5669  160.3091 H   0  0  0  0  0  0  0  0  0  0  0  0
  143.5842  146.4578  158.6787 H   0  0  0  0  0  0  0  0  0  0  0  0
  141.6945  146.6103  160.1724 H   0  0  0  0  0  0  0  0  0  0  0  0
  141.6777  145.0656  159.3715 H   0  0  0  0  0  0  0  0  0  0  0  0
  142.5901  145.5915  162.2456 H   0  0  0  0  0  0  0  0  0  0  0  0
  141.0818  144.8749  161.7585 H   0  0  0  0  0  0  0  0  0  0  0  0
  142.3628  143.0045  162.3402 H   0  0  0  0  0  0  0  0  0  0  0  0
  142.4774  142.9911  160.6058 H   0  0  0  0  0  0  0  0  0  0  0  0
  1  2  1  0  0  0  0
  1 24  1  0  0  0  0
  1 25  1  0  0  0  0
  1 26  1  0  0  0  0
  2 22  1  0  0  0  0
  2  3  1  0  0  0  0
  3  4  2  0  0  0  0
  3  5  1  0  0  0  0
  5  6  2  0  0  0  0
  5 27  1  0  0  0  0
  6  7  1  0  0  0  0
  6 28  1  0  0  0  0
  7  8  1  0  0  0  0
  7 22  1  0  0  0  0
  8  9  1  0  0  0  0
  8 29  1  0  0  0  0
  8 30  1  0  0  0  0
  9 10  2  0  0  0  0
  9 11  1  0  0  0  0
 11 12  1  0  0  0  0
 11 31  1  0  0  0  0
 12 13  1  0  0  0  0
 12 32  1  0  0  0  0
 12 33  1  0  0  0  0
 13 14  1  0  0  0  0
 13 34  1  0  0  0  0
 13 35  1  0  0  0  0
 14 20  1  0  0  0  0
 14 15  1  0  0  0  0
 15 16  1  0  0  0  0
 15 36  1  0  0  0  0
 15 37  1  0  0  0  0
 16 17  1  0  0  0  0
 16 38  1  0  0  0  0
 16 39  1  0  0  0  0
 17 18  1  0  0  0  0
 17 40  1  0  0  0  0
 17 41  1  0  0  0  0
 18 19  1  0  0  0  0
 18 42  1  0  0  0  0
 18 43  1  0  0  0  0
 19 20  1  0  0  0  0
 19 44  1  0  0  0  0
 19 45  1  0  0  0  0
 20 21  2  0  0  0  0
 22 23  2  0  0  0  0
M  END
> <s_m_source_file>
AV-unprocessed.smi

> <i_m_source_file_index>
300

> <i_lp_mmshare_version>
43012

> <i_f3d_flags>
0

> <s_epik_input>
W0NIM11uMWMoPU8pW2NIXVtjSF1uKGMxPU8pW0NIMl1DKD1PKVtOSF1bQ0gyXVtDSDJdTjJbQ0gyXVtDSDJdW0NIMl1bQ0gyXVtDSDJdQzI9Tw==

> <s_epik_cmdline>
J2VwaWtfcHl0aG9uJywgJy1waCcsICc3LjAnLCAnLXRuJywgJzgnLCAnLW1hJywgJzIwMCcsICctbWV0YWxfYmluZGluZycsICctaW1hZScsICc8aW5maWxlLm1hZT4nLCAnLW9tYWUnLCAnPG91dGZpbGUubWFlPic=

> <r_lp_tautomer_probability>
1

> <r_epik_Ionization_Penalty>
6.11943e-08

> <r_epik_Ionization_Penalty_Charging>
1.13819e-08

> <r_epik_Ionization_Penalty_Neutral>
4.98124e-08

> <r_epik_State_Penalty>
-0

> <r_epik_Charging_Adjusted_Penalty>
1.13819e-08

> <i_epik_Tot_Q>
0

> <i_epik_Tot_abs_Q>
0

> <r_epik_Metal_State_Penalty>
-0

> <b_epik_Metal_Only>
0

> <s_lp_Force_Field>
OPLS_2005

> <r_lp_Energy>
25.2871

> <b_lp_Chiralities_Consistent>
1

> <s_lp_Variant>
AV-unprocessed.smi:300-1

> <Gold.Version>
5.8.1

> <Gold.Id.Protein>
6NUR|6NUR_protein|mol2

> <Gold.PLP.Fitness>
48.2344

> <Gold.PLP.PLP>
-42.8483

> <Gold.PLP.part.hbond>
-3.7741

> <Gold.PLP.part.metal>
0.0000

> <Gold.PLP.part.buried>
-8.0230

> <Gold.PLP.part.nonpolar>
-31.3226

> <Gold.PLP.part.repulsive>
1.2904

> <Gold.PLP.ligand.clash>
0.0000

> <Gold.PLP.ligand.torsion>
0.3697

> <Gold.PLP.Chemscore.Hbond>
2.0265

> <Gold.PLP.Chemscore.CHOScore>
0.0000

> <Gold.PLP.Chemscore.Metal>
0.0000

> <Gold.Chemscore.Hbonds>
donor molecule, donor type, donor heavy atom, donor atom, acceptor molecule, acceptor atom, score
      L1  H    11    31       P1  8029  1.00
      P1  H  6933  6944       L1    10  0.16
      P1  H  7997  8010       L1     4  0.77

> <Gold.PLP.Chemscore.Internal.Correction>
0.0460

> <Gold.Rescore>
     Score         DG    S(hbond)    S(metal)    S(lipo)     H(rot)  DE(clash)    DE(int)     intcor
     13.44     -14.74       1.91        0.00      72.25       2.18       0.10       1.19       ----

> <Gold.Chemscore.Fitness>
13.4426

> <Gold.Chemscore.DG>
-14.7390

> <Gold.Chemscore.ZeroCoef>
-5.4800

> <Gold.Chemscore.Hbond>
1.9137

> <Gold.Chemscore.Metal>
0.0000

> <Gold.Chemscore.Lipo>
72.2489

> <Gold.Chemscore.Internal_Hbond>
0.0000

> <Gold.Chemscore.DEClash>
0.1017

> <Gold.Chemscore.DEInternal>
1.1947

> <Gold.Chemscore.Rot>
2.1820

> <Gold.Chemscore.Internal.Correction>
   9.000000E+99

> <Gold.Chemscore.Hbonds>
donor molecule, donor type, donor heavy atom, donor atom, acceptor molecule, acceptor atom, score
      L1  H    11    31       P1  8029  0.94
      P1  H  6933  6944       L1    10  0.14
      P1  H  7997  8010       L1     4  0.72

> <Gold.Chemscore.Hbond.Weighted>
-6.3919

> <Gold.Chemscore.Metal.Weighted>
-0.0000

> <Gold.Chemscore.Lipo.Weighted>
-8.4531

> <Gold.Chemscore.Internal_Hbond.Weighted>
0.0000

> <Gold.Chemscore.DEClash.Weighted>
0.1017

> <Gold.Chemscore.DEInternal.Weighted>
1.1947

> <Gold.Chemscore.Rot.Weighted>
5.5860

> <Gold.Chemscore.Internal.Correction.Weighted>
   9.000000E+99

> <Gold.Protein.RotatedTorsions>
[ 6907 6896 6895 6894 ] final  -11.60 input  -60.11 | X-H torsion
[ 7974 7965 7964 7962 ] final   53.06 input  175.53 | X-H torsion
[ 8008 7997 7996 7995 ] final   16.90 input   59.86 | X-H torsion
[ 10167 10162 10161 10158 ] final -143.15 input  -65.29 | X-H torsion
[ 10718 10713 10712 10709 ] final   14.40 input   66.30 | X-H torsion
[ 10763 10752 10751 10750 ] final  -69.39 input  -60.55 | X-H torsion
[ 11005 11000 10999 10996 ] final  171.21 input  -57.11 | X-H torsion

> <Gold.Protein.ActiveResidues>
 VAL166  LYS551  ARG553  GLY616  TRP617  ASP618  TYR619  PRO620  LYS621  CYS622 
 ASP623  PHE694  ASN695  SER759  ASP760  ASP761  ALA762  ILE779  LEU786  VAL792 
 PHE793  MET794  SER795  GLU796  ALA797  LYS798  CYS799  TRP800  GLU811  SER814 

> <Gold.Protein.RotatedAtoms>
  151.3837  135.0944  159.9503 H   0  0  0  0  0  0  0  0  0  0  0  0  # atno 6907 bound_to 6896
  152.5100  133.9047  159.7469 H   0  0  0  0  0  0  0  0  0  0  0  0  # atno 6908 bound_to 6896
  150.9486  133.6519  159.2805 H   0  0  0  0  0  0  0  0  0  0  0  0  # atno 6909 bound_to 6896
  145.9750  139.4186  143.0167 H   0  0  0  0  0  0  0  0  0  0  0  0  # atno 7974 bound_to 7965
  154.8837  140.2976  155.5410 H   0  0  0  0  0  0  0  0  0  0  0  0  # atno 8008 bound_to 7997
  156.3022  140.2437  156.3777 H   0  0  0  0  0  0  0  0  0  0  0  0  # atno 8009 bound_to 7997
  154.8691  140.0402  157.1702 H   0  0  0  0  0  0  0  0  0  0  0  0  # atno 8010 bound_to 7997
  139.8021  143.7819  152.2659 H   0  0  0  0  0  0  0  0  0  0  0  0  # atno 10167 bound_to 10162
  157.0385  130.6222  149.5747 H   0  0  0  0  0  0  0  0  0  0  0  0  # atno 10718 bound_to 10713
  154.4027  135.6027  153.5907 H   0  0  0  0  0  0  0  0  0  0  0  0  # atno 10763 bound_to 10752
  152.9788  135.5910  154.4164 H   0  0  0  0  0  0  0  0  0  0  0  0  # atno 10764 bound_to 10752
  154.3965  135.2842  155.2101 H   0  0  0  0  0  0  0  0  0  0  0  0  # atno 10765 bound_to 10752
  140.3166  134.7472  157.4032 H   0  0  0  0  0  0  0  0  0  0  0  0  # atno 11005 bound_to 11000
  145.7851  140.9839  143.1078 LP  0  0  0  0  0  0  0  0  0  0  0  0  # atno 17320 bound_to 7965
  144.6846  139.9613  143.7480 LP  0  0  0  0  0  0  0  0  0  0  0  0  # atno 17321 bound_to 7965
  139.7942  144.7399  150.9913 LP  0  0  0  0  0  0  0  0  0  0  0  0  # atno 17342 bound_to 10162
  140.7820  143.4411  151.0551 LP  0  0  0  0  0  0  0  0  0  0  0  0  # atno 17343 bound_to 10162
  156.0046  130.5130  150.7783 LP  0  0  0  0  0  0  0  0  0  0  0  0  # atno 17370 bound_to 10713
  157.5122  131.0926  151.0183 LP  0  0  0  0  0  0  0  0  0  0  0  0  # atno 17371 bound_to 10713
  140.0978  134.5513  155.8382 LP  0  0  0  0  0  0  0  0  0  0  0  0  # atno 17394 bound_to 11000
  141.2096  133.6686  156.6451 LP  0  0  0  0  0  0  0  0  0  0  0  0  # atno 17395 bound_to 11000

$$$$
