AV-unprocessed.smi:2380|AV-procd|sdf|9455|dock1
  -GOLD-   2272013 83D 1   1.00000     0.00000
 Structure written by MMmdl.
 42 43  0  0  0  0  0  0  0  0  2 V2000
  152.0461  145.8931  160.3578 C   0  0  0  0  0  0  0  0  0  0  0  0
  152.0488  144.5348  159.6884 C   0  0  0  0  0  0  0  0  0  0  0  0
  152.8889  143.5040  160.1509 C   0  0  0  0  0  0  0  0  0  0  0  0
  152.8469  142.2631  159.4852 C   0  0  0  0  0  0  0  0  0  0  0  0
  153.7243  141.1111  159.9281 C   0  0  0  0  0  0  0  0  0  0  0  0
  152.0430  142.0213  158.4278 N   0  0  0  0  0  0  0  0  0  0  0  0
  151.2309  143.0074  157.9727 C   0  0  0  0  0  0  0  0  0  0  0  0
  150.3504  142.8556  156.8686 N   0  0  0  0  0  0  0  0  0  0  0  0
  150.1592  141.7670  156.1029 C   0  0  0  0  0  0  0  0  0  0  0  0
  150.7317  140.6858  156.2429 O   0  0  0  0  0  0  0  0  0  0  0  0
  149.2519  142.0003  155.1431 N   0  0  0  0  0  0  0  0  0  0  0  0
  148.8152  141.0245  154.1486 C   0  0  2  0  0  0  0  0  0  0  0  0
  147.5105  141.4779  153.4657 C   0  0  0  0  0  0  0  0  0  0  0  0
  146.9941  140.4082  152.4889 C   0  0  0  0  0  0  0  0  0  0  0  0
  146.8084  139.1045  153.1732 N   0  3  1  0  0  0  0  0  0  0  0  0
  146.2025  138.0862  152.2888 C   0  0  0  0  0  0  0  0  0  0  0  0
  148.0616  138.6266  153.8089 C   0  0  0  0  0  0  0  0  0  0  0  0
  148.5980  139.6570  154.8170 C   0  0  0  0  0  0  0  0  0  0  0  0
  151.2108  144.2812  158.5839 C   0  0  0  0  0  0  0  0  0  0  0  0
  152.5184  145.8495  161.3397 H   0  0  0  0  0  0  0  0  0  0  0  0
  151.0251  146.2529  160.4886 H   0  0  0  0  0  0  0  0  0  0  0  0
  152.5896  146.6138  159.7467 H   0  0  0  0  0  0  0  0  0  0  0  0
  153.5478  143.6602  160.9927 H   0  0  0  0  0  0  0  0  0  0  0  0
  154.2176  141.3316  160.8750 H   0  0  0  0  0  0  0  0  0  0  0  0
  154.4924  140.9131  159.1800 H   0  0  0  0  0  0  0  0  0  0  0  0
  153.1299  140.2063  160.0583 H   0  0  0  0  0  0  0  0  0  0  0  0
  149.8056  143.6721  156.6346 H   0  0  0  0  0  0  0  0  0  0  0  0
  148.8300  142.9165  155.1008 H   0  0  0  0  0  0  0  0  0  0  0  0
  149.5950  140.9154  153.3921 H   0  0  0  0  0  0  0  0  0  0  0  0
  146.7476  141.6799  154.2191 H   0  0  0  0  0  0  0  0  0  0  0  0
  147.6696  142.4141  152.9290 H   0  0  0  0  0  0  0  0  0  0  0  0
  146.0454  140.7350  152.0609 H   0  0  0  0  0  0  0  0  0  0  0  0
  147.6927  140.2896  151.6589 H   0  0  0  0  0  0  0  0  0  0  0  0
  146.8584  137.8579  151.4476 H   0  0  0  0  0  0  0  0  0  0  0  0
  145.2486  138.4374  151.8938 H   0  0  0  0  0  0  0  0  0  0  0  0
  146.0144  137.1625  152.8372 H   0  0  0  0  0  0  0  0  0  0  0  0
  147.8748  137.6813  154.3201 H   0  0  0  0  0  0  0  0  0  0  0  0
  148.8101  138.4293  153.0395 H   0  0  0  0  0  0  0  0  0  0  0  0
  149.5333  139.2976  155.2479 H   0  0  0  0  0  0  0  0  0  0  0  0
  147.8932  139.7547  155.6443 H   0  0  0  0  0  0  0  0  0  0  0  0
  150.5602  145.0592  158.2112 H   0  0  0  0  0  0  0  0  0  0  0  0
  146.1484  139.2634  153.9211 H   0  0  0  0  0  0  0  0  0  0  0  0
  1  2  1  0  0  0  0
  1 20  1  0  0  0  0
  1 21  1  0  0  0  0
  1 22  1  0  0  0  0
  2 19  1  0  0  0  0
  2  3  2  0  0  0  0
  3  4  1  0  0  0  0
  3 23  1  0  0  0  0
  4  5  1  0  0  0  0
  4  6  2  0  0  0  0
  5 24  1  0  0  0  0
  5 25  1  0  0  0  0
  5 26  1  0  0  0  0
  6  7  1  0  0  0  0
  7  8  1  0  0  0  0
  7 19  2  0  0  0  0
  8  9  1  0  0  0  0
  8 27  1  0  0  0  0
  9 10  2  0  0  0  0
  9 11  1  0  0  0  0
 11 12  1  0  0  0  0
 11 28  1  0  0  0  0
 12 18  1  0  0  0  0
 12 13  1  0  0  0  0
 12 29  1  0  0  0  0
 13 14  1  0  0  0  0
 13 30  1  0  0  0  0
 13 31  1  0  0  0  0
 14 15  1  0  0  0  0
 14 32  1  0  0  0  0
 14 33  1  0  0  0  0
 15 16  1  0  0  0  0
 15 17  1  0  0  0  0
 15 42  1  0  0  0  0
 16 34  1  0  0  0  0
 16 35  1  0  0  0  0
 16 36  1  0  0  0  0
 17 18  1  0  0  0  0
 17 37  1  0  0  0  0
 17 38  1  0  0  0  0
 18 39  1  0  0  0  0
 18 40  1  0  0  0  0
 19 41  1  0  0  0  0
M  CHG  1  15   1
M  END
> <s_m_source_file>
AV-unprocessed.smi

> <i_m_source_file_index>
2380

> <i_lp_mmshare_version>
43012

> <i_f3d_flags>
0

> <s_epik_input>
W0NIM11jMVtjSF1jKFtDSDNdKW5jKFtjSF0xKVtOSF1DKD1PKVtOSF1bQ0hdMltDSDJdW0NIMl1OKFtDSDNdKVtDSDJdW0NIMl0y

> <s_epik_cmdline>
J2VwaWtfcHl0aG9uJywgJy1waCcsICc3LjAnLCAnLXRuJywgJzgnLCAnLW1hJywgJzIwMCcsICctbWV0YWxfYmluZGluZycsICctaW1hZScsICc8aW5maWxlLm1hZT4nLCAnLW9tYWUnLCAnPG91dGZpbGUubWFlPic=

> <r_epik_Ionization_Penalty>
0.00385557

> <r_epik_Ionization_Penalty_Charging>
0.00366825

> <r_epik_Ionization_Penalty_Neutral>
0.000187322

> <r_epik_State_Penalty>
0.00261101

> <r_epik_Charging_Adjusted_Penalty>
0.00627926

> <i_epik_Tot_Q>
1

> <i_epik_Tot_abs_Q>
1

> <r_epik_Metal_State_Penalty>
-0

> <b_epik_Metal_Only>
0

> <s_lp_Force_Field>
OPLS_2005

> <r_lp_Energy>
16.3452

> <b_lp_Chiralities_Consistent>
1

> <s_lp_Variant>
AV-unprocessed.smi:2380-1

> <Gold.Version>
5.8.1

> <Gold.Id.Protein>
6NUR|6NUR_protein|mol2

> <Gold.PLP.Fitness>
46.7132

> <Gold.PLP.PLP>
-41.2214

> <Gold.PLP.part.hbond>
-2.0000

> <Gold.PLP.part.metal>
0.0000

> <Gold.PLP.part.buried>
-3.6943

> <Gold.PLP.part.nonpolar>
-36.5410

> <Gold.PLP.part.repulsive>
0.2672

> <Gold.PLP.ligand.clash>
0.0000

> <Gold.PLP.ligand.torsion>
0.2186

> <Gold.PLP.Chemscore.Hbond>
1.9760

> <Gold.PLP.Chemscore.CHOScore>
0.0000

> <Gold.PLP.Chemscore.Metal>
0.0000

> <Gold.Chemscore.Hbonds>
donor molecule, donor type, donor heavy atom, donor atom, acceptor molecule, acceptor atom, score
      L1  H     8    27       P1  8028  1.00
      L1  H    11    28       P1  8028  0.98

> <Gold.PLP.Chemscore.Internal.Correction>
0.0010

> <Gold.Rescore>
     Score         DG    S(hbond)    S(metal)    S(lipo)     H(rot)  DE(clash)    DE(int)     intcor
     18.45     -21.70       1.89        0.00     106.65       1.00       0.31       2.94       ----

> <Gold.Chemscore.Fitness>
18.4477

> <Gold.Chemscore.DG>
-21.6996

> <Gold.Chemscore.ZeroCoef>
-5.4800

> <Gold.Chemscore.Hbond>
1.8866

> <Gold.Chemscore.Metal>
0.0000

> <Gold.Chemscore.Lipo>
106.6516

> <Gold.Chemscore.Internal_Hbond>
0.0000

> <Gold.Chemscore.DEClash>
0.3128

> <Gold.Chemscore.DEInternal>
2.9390

> <Gold.Chemscore.Rot>
1.0000

> <Gold.Chemscore.Internal.Correction>
   9.000000E+99

> <Gold.Chemscore.Hbonds>
donor molecule, donor type, donor heavy atom, donor atom, acceptor molecule, acceptor atom, score
      L1  H     8    27       P1  8028  0.99
      L1  H    11    28       P1  8028  0.93

> <Gold.Chemscore.Hbond.Weighted>
-6.3013

> <Gold.Chemscore.Metal.Weighted>
-0.0000

> <Gold.Chemscore.Lipo.Weighted>
-12.4782

> <Gold.Chemscore.Internal_Hbond.Weighted>
0.0000

> <Gold.Chemscore.DEClash.Weighted>
0.3128

> <Gold.Chemscore.DEInternal.Weighted>
2.9390

> <Gold.Chemscore.Rot.Weighted>
2.5600

> <Gold.Chemscore.Internal.Correction.Weighted>
   9.000000E+99

> <Gold.Protein.RotatedTorsions>
[ 6907 6896 6895 6894 ] final   55.59 input  -60.11 | X-H torsion
[ 7974 7965 7964 7962 ] final -157.53 input  175.53 | X-H torsion
[ 8008 7997 7996 7995 ] final -129.99 input   59.86 | X-H torsion
[ 10167 10162 10161 10158 ] final -157.98 input  -65.29 | X-H torsion
[ 10718 10713 10712 10709 ] final -133.45 input   66.30 | X-H torsion
[ 10763 10752 10751 10750 ] final  -95.69 input  -60.55 | X-H torsion
[ 11005 11000 10999 10996 ] final -166.43 input  -57.11 | X-H torsion

> <Gold.Protein.ActiveResidues>
 VAL166  LYS551  ARG553  GLY616  TRP617  ASP618  TYR619  PRO620  LYS621  CYS622 
 ASP623  PHE694  ASN695  SER759  ASP760  ASP761  ALA762  ILE779  LEU786  VAL792 
 PHE793  MET794  SER795  GLU796  ALA797  LYS798  CYS799  TRP800  GLU811  SER814 

> <Gold.Protein.RotatedAtoms>
  152.3554  134.6948  160.0223 H   0  0  0  0  0  0  0  0  0  0  0  0  # atno 6907 bound_to 6896
  151.7288  133.3311  159.3343 H   0  0  0  0  0  0  0  0  0  0  0  0  # atno 6908 bound_to 6896
  150.7568  134.6316  159.6234 H   0  0  0  0  0  0  0  0  0  0  0  0  # atno 6909 bound_to 6896
  144.7544  140.3956  143.6023 H   0  0  0  0  0  0  0  0  0  0  0  0  # atno 7974 bound_to 7965
  155.2884  140.0447  157.3021 H   0  0  0  0  0  0  0  0  0  0  0  0  # atno 8008 bound_to 7997
  154.5555  140.2330  155.8384 H   0  0  0  0  0  0  0  0  0  0  0  0  # atno 8009 bound_to 7997
  156.2004  140.3027  155.9521 H   0  0  0  0  0  0  0  0  0  0  0  0  # atno 8010 bound_to 7997
  139.6728  143.9716  152.2293 H   0  0  0  0  0  0  0  0  0  0  0  0  # atno 10167 bound_to 10162
  156.2451  130.7119  151.0996 H   0  0  0  0  0  0  0  0  0  0  0  0  # atno 10718 bound_to 10713
  154.7171  135.5111  153.8755 H   0  0  0  0  0  0  0  0  0  0  0  0  # atno 10763 bound_to 10752
  153.0830  135.6637  154.0015 H   0  0  0  0  0  0  0  0  0  0  0  0  # atno 10764 bound_to 10752
  153.9845  135.3026  155.3397 H   0  0  0  0  0  0  0  0  0  0  0  0  # atno 10765 bound_to 10752
  140.5646  134.5299  157.5150 H   0  0  0  0  0  0  0  0  0  0  0  0  # atno 11005 bound_to 11000
  145.6830  139.1622  143.2690 LP  0  0  0  0  0  0  0  0  0  0  0  0  # atno 17320 bound_to 7965
  146.1536  140.6890  142.9310 LP  0  0  0  0  0  0  0  0  0  0  0  0  # atno 17321 bound_to 7965
  139.9485  144.6636  150.8196 LP  0  0  0  0  0  0  0  0  0  0  0  0  # atno 17342 bound_to 10162
  140.7624  143.3198  151.2649 LP  0  0  0  0  0  0  0  0  0  0  0  0  # atno 17343 bound_to 10162
  157.7191  131.0692  150.6207 LP  0  0  0  0  0  0  0  0  0  0  0  0  # atno 17370 bound_to 10713
  156.6283  130.4425  149.5796 LP  0  0  0  0  0  0  0  0  0  0  0  0  # atno 17371 bound_to 10713
  139.9391  134.7820  156.0725 LP  0  0  0  0  0  0  0  0  0  0  0  0  # atno 17394 bound_to 11000
  141.1094  133.6648  156.2941 LP  0  0  0  0  0  0  0  0  0  0  0  0  # atno 17395 bound_to 11000

$$$$
