AV-unprocessed.smi:1684|AV-procd|sdf|6754|dock9
  -GOLD-   22720 7513D 1   1.00000     0.00000
 Structure written by MMmdl.
 42 43  0  0  0  0  0  0  0  0  1 V2000
  145.0413  135.7104  151.1926 C   0  0  0  0  0  0  0  0  0  0  0  0
  143.8119  135.5627  152.0744 C   0  0  0  0  0  0  0  0  0  0  0  0
  143.0273  134.3942  151.9742 C   0  0  0  0  0  0  0  0  0  0  0  0
  141.8900  134.2596  152.7888 C   0  0  0  0  0  0  0  0  0  0  0  0
  141.5832  135.3070  153.6741 C   0  0  0  0  0  0  0  0  0  0  0  0
  142.3276  136.4267  153.7768 N   0  0  0  0  0  0  0  0  0  0  0  0
  143.4292  136.5723  152.9982 C   0  0  0  0  0  0  0  0  0  0  0  0
  144.2649  137.7230  153.0570 N   0  0  0  0  0  0  0  0  0  0  0  0
  145.5789  137.7906  153.3342 C   0  0  0  0  0  0  0  0  0  0  0  0
  146.2980  136.8306  153.6129 O   0  0  0  0  0  0  0  0  0  0  0  0
  146.0171  139.0574  153.2789 N   0  0  0  0  0  0  0  0  0  0  0  0
  147.3772  139.5067  153.5726 C   0  0  1  0  0  0  0  0  0  0  0  0
  147.5706  140.9292  153.0301 C   0  0  0  0  0  0  0  0  0  0  0  0
  147.6377  139.4432  155.0923 C   0  0  0  0  0  0  0  0  0  0  0  0
  149.0432  139.5060  155.4976 N   0  0  0  0  0  0  0  0  0  0  0  0
  149.9112  138.6766  154.6642 C   0  0  0  0  0  0  0  0  0  0  0  0
  151.3840  138.7733  155.0987 C   0  0  0  0  0  0  0  0  0  0  0  0
  151.8029  140.1340  155.0744 O   0  0  0  0  0  0  0  0  0  0  0  0
  151.0083  140.9678  155.9114 C   0  0  0  0  0  0  0  0  0  0  0  0
  149.5351  140.8790  155.4771 C   0  0  0  0  0  0  0  0  0  0  0  0
  145.1760  134.8401  150.5499 H   0  0  0  0  0  0  0  0  0  0  0  0
  145.9383  135.8186  151.8030 H   0  0  0  0  0  0  0  0  0  0  0  0
  144.9482  136.5884  150.5529 H   0  0  0  0  0  0  0  0  0  0  0  0
  143.2914  133.6082  151.2818 H   0  0  0  0  0  0  0  0  0  0  0  0
  141.2692  133.3774  152.7361 H   0  0  0  0  0  0  0  0  0  0  0  0
  140.7181  135.2447  154.3176 H   0  0  0  0  0  0  0  0  0  0  0  0
  143.8044  138.6001  152.8652 H   0  0  0  0  0  0  0  0  0  0  0  0
  145.3490  139.7765  153.0442 H   0  0  0  0  0  0  0  0  0  0  0  0
  148.1065  138.8753  153.0643 H   0  0  0  0  0  0  0  0  0  0  0  0
  148.5854  141.2830  153.2136 H   0  0  0  0  0  0  0  0  0  0  0  0
  146.8829  141.6328  153.5003 H   0  0  0  0  0  0  0  0  0  0  0  0
  147.4000  140.9649  151.9535 H   0  0  0  0  0  0  0  0  0  0  0  0
  147.0808  140.2403  155.5875 H   0  0  0  0  0  0  0  0  0  0  0  0
  147.2100  138.5105  155.4630 H   0  0  0  0  0  0  0  0  0  0  0  0
  149.6039  137.6329  154.7160 H   0  0  0  0  0  0  0  0  0  0  0  0
  149.8218  138.9789  153.6197 H   0  0  0  0  0  0  0  0  0  0  0  0
  151.5178  138.3614  156.1001 H   0  0  0  0  0  0  0  0  0  0  0  0
  152.0166  138.1930  154.4263 H   0  0  0  0  0  0  0  0  0  0  0  0
  151.1232  140.6650  156.9534 H   0  0  0  0  0  0  0  0  0  0  0  0
  151.3648  141.9950  155.8341 H   0  0  0  0  0  0  0  0  0  0  0  0
  149.4293  141.2954  154.4741 H   0  0  0  0  0  0  0  0  0  0  0  0
  148.9283  141.4997  156.1375 H   0  0  0  0  0  0  0  0  0  0  0  0
  1  2  1  0  0  0  0
  1 21  1  0  0  0  0
  1 22  1  0  0  0  0
  1 23  1  0  0  0  0
  2  7  1  0  0  0  0
  2  3  2  0  0  0  0
  3  4  1  0  0  0  0
  3 24  1  0  0  0  0
  4  5  2  0  0  0  0
  4 25  1  0  0  0  0
  5  6  1  0  0  0  0
  5 26  1  0  0  0  0
  6  7  2  0  0  0  0
  7  8  1  0  0  0  0
  8  9  1  0  0  0  0
  8 27  1  0  0  0  0
  9 10  2  0  0  0  0
  9 11  1  0  0  0  0
 11 12  1  0  0  0  0
 11 28  1  0  0  0  0
 12 13  1  0  0  0  0
 12 14  1  0  0  0  0
 12 29  1  0  0  0  0
 13 30  1  0  0  0  0
 13 31  1  0  0  0  0
 13 32  1  0  0  0  0
 14 15  1  0  0  0  0
 14 33  1  0  0  0  0
 14 34  1  0  0  0  0
 15 20  1  0  0  0  0
 15 16  1  0  0  0  0
 16 17  1  0  0  0  0
 16 35  1  0  0  0  0
 16 36  1  0  0  0  0
 17 18  1  0  0  0  0
 17 37  1  0  0  0  0
 17 38  1  0  0  0  0
 18 19  1  0  0  0  0
 19 20  1  0  0  0  0
 19 39  1  0  0  0  0
 19 40  1  0  0  0  0
 20 41  1  0  0  0  0
 20 42  1  0  0  0  0
M  END
> <s_m_source_file>
AV-unprocessed.smi

> <i_m_source_file_index>
1684

> <i_lp_mmshare_version>
43012

> <i_f3d_flags>
0

> <s_epik_input>
W0NIM11jMVtjSF1bY0hdW2NIXW5jMVtOSF1DKD1PKVtOSF1bQ0BIXShbQ0gzXSlbQ0gyXU4yW0NIMl1bQ0gyXU9bQ0gyXVtDSDJdMg==

> <s_epik_cmdline>
J2VwaWtfcHl0aG9uJywgJy1waCcsICc3LjAnLCAnLXRuJywgJzgnLCAnLW1hJywgJzIwMCcsICctbWV0YWxfYmluZGluZycsICctaW1hZScsICc8aW5maWxlLm1hZT4nLCAnLW9tYWUnLCAnPG91dGZpbGUubWFlPic=

> <r_epik_Ionization_Penalty>
0.26605

> <r_epik_Ionization_Penalty_Charging>
0

> <r_epik_Ionization_Penalty_Neutral>
0.26605

> <r_epik_State_Penalty>
0.257924

> <r_epik_Charging_Adjusted_Penalty>
0.257924

> <i_epik_Tot_Q>
0

> <i_epik_Tot_abs_Q>
0

> <r_epik_Metal_State_Penalty>
0.257922

> <b_epik_Metal_Only>
0

> <s_lp_Force_Field>
OPLS_2005

> <r_lp_Energy>
28.5554

> <b_lp_Chiralities_Consistent>
1

> <s_lp_Variant>
AV-unprocessed.smi:1684-2

> <Gold.Version>
5.8.1

> <Gold.Id.Protein>
6NUR|6NUR_protein|mol2

> <Gold.PLP.Fitness>
40.7608

> <Gold.PLP.PLP>
-31.0933

> <Gold.PLP.part.hbond>
-3.0000

> <Gold.PLP.part.metal>
0.0000

> <Gold.PLP.part.buried>
-2.5852

> <Gold.PLP.part.nonpolar>
-26.5439

> <Gold.PLP.part.repulsive>
0.2494

> <Gold.PLP.ligand.clash>
0.0000

> <Gold.PLP.ligand.torsion>
0.9875

> <Gold.PLP.Chemscore.Hbond>
2.8800

> <Gold.PLP.Chemscore.CHOScore>
0.9848

> <Gold.PLP.Chemscore.Metal>
0.0000

> <Gold.Chemscore.Hbonds>
donor molecule, donor type, donor heavy atom, donor atom, acceptor molecule, acceptor atom, score
      L1  H     8    27       P1 10175  1.00
      L1  H    11    28       P1 10175  1.00
      P1  H  7989  7998       L1    18  0.90
      L1  C     5    26       P1 11000  0.80

> <Gold.PLP.Chemscore.Internal.Correction>
0.0483

> <Gold.Rescore>
     Score         DG    S(hbond)    S(metal)    S(lipo)     H(rot)  DE(clash)    DE(int)     intcor
     16.73     -18.12       2.39        0.00      71.74       1.46       0.31       1.08       ----

> <Gold.Chemscore.Fitness>
16.7272

> <Gold.Chemscore.DG>
-18.1232

> <Gold.Chemscore.ZeroCoef>
-5.4800

> <Gold.Chemscore.Hbond>
2.3901

> <Gold.Chemscore.Metal>
0.0000

> <Gold.Chemscore.Lipo>
71.7361

> <Gold.Chemscore.Internal_Hbond>
0.0000

> <Gold.Chemscore.DEClash>
0.3130

> <Gold.Chemscore.DEInternal>
1.0830

> <Gold.Chemscore.Rot>
1.4581

> <Gold.Chemscore.Internal.Correction>
   9.000000E+99

> <Gold.Chemscore.Hbonds>
donor molecule, donor type, donor heavy atom, donor atom, acceptor molecule, acceptor atom, score
      L1  H     8    27       P1 10175  0.99
      L1  H    11    28       P1 10175  0.98
      P1  H  7989  7998       L1    18  0.35

> <Gold.Chemscore.Hbond.Weighted>
-7.9828

> <Gold.Chemscore.Metal.Weighted>
-0.0000

> <Gold.Chemscore.Lipo.Weighted>
-8.3931

> <Gold.Chemscore.Internal_Hbond.Weighted>
0.0000

> <Gold.Chemscore.DEClash.Weighted>
0.3130

> <Gold.Chemscore.DEInternal.Weighted>
1.0830

> <Gold.Chemscore.Rot.Weighted>
3.7327

> <Gold.Chemscore.Internal.Correction.Weighted>
   9.000000E+99

> <Gold.Protein.RotatedTorsions>
[ 6907 6896 6895 6894 ] final   30.99 input  -60.11 | X-H torsion
[ 7974 7965 7964 7962 ] final  121.45 input  175.53 | X-H torsion
[ 8008 7997 7996 7995 ] final  -89.65 input   59.86 | X-H torsion
[ 10167 10162 10161 10158 ] final -112.96 input  -65.29 | X-H torsion
[ 10718 10713 10712 10709 ] final -158.20 input   66.30 | X-H torsion
[ 10763 10752 10751 10750 ] final -172.67 input  -60.55 | X-H torsion
[ 11005 11000 10999 10996 ] final -161.09 input  -57.11 | X-H torsion

> <Gold.Protein.ActiveResidues>
 VAL166  LYS551  ARG553  GLY616  TRP617  ASP618  TYR619  PRO620  LYS621  CYS622 
 ASP623  PHE694  ASN695  SER759  ASP760  ASP761  ALA762  ILE779  LEU786  VAL792 
 PHE793  MET794  SER795  GLU796  ALA797  LYS798  CYS799  TRP800  GLU811  SER814 

> <Gold.Protein.RotatedAtoms>
  152.0538  134.9637  160.0574 H   0  0  0  0  0  0  0  0  0  0  0  0  # atno 6907 bound_to 6896
  152.1027  133.4253  159.4603 H   0  0  0  0  0  0  0  0  0  0  0  0  # atno 6908 bound_to 6896
  150.6840  134.2660  159.4612 H   0  0  0  0  0  0  0  0  0  0  0  0  # atno 6909 bound_to 6896
  145.1191  139.3401  143.4723 H   0  0  0  0  0  0  0  0  0  0  0  0  # atno 7974 bound_to 7965
  154.6891  140.0539  157.0345 H   0  0  0  0  0  0  0  0  0  0  0  0  # atno 8008 bound_to 7997
  155.0842  140.3212  155.4573 H   0  0  0  0  0  0  0  0  0  0  0  0  # atno 8009 bound_to 7997
  156.2722  140.2059  156.5970 H   0  0  0  0  0  0  0  0  0  0  0  0  # atno 8010 bound_to 7997
  140.1171  143.4476  152.1715 H   0  0  0  0  0  0  0  0  0  0  0  0  # atno 10167 bound_to 10162
  156.5509  130.8605  151.2779 H   0  0  0  0  0  0  0  0  0  0  0  0  # atno 10718 bound_to 10713
  154.6166  135.2870  155.0373 H   0  0  0  0  0  0  0  0  0  0  0  0  # atno 10763 bound_to 10752
  154.1583  135.6492  153.4983 H   0  0  0  0  0  0  0  0  0  0  0  0  # atno 10764 bound_to 10752
  153.0218  135.5372  154.6940 H   0  0  0  0  0  0  0  0  0  0  0  0  # atno 10765 bound_to 10752
  140.6242  134.4718  157.5225 H   0  0  0  0  0  0  0  0  0  0  0  0  # atno 11005 bound_to 11000
  146.3522  140.1143  142.8602 LP  0  0  0  0  0  0  0  0  0  0  0  0  # atno 17320 bound_to 7965
  145.0760  140.9188  143.4853 LP  0  0  0  0  0  0  0  0  0  0  0  0  # atno 17321 bound_to 7965
  139.5588  144.7392  151.4214 LP  0  0  0  0  0  0  0  0  0  0  0  0  # atno 17342 bound_to 10162
  140.6893  143.7899  150.7232 LP  0  0  0  0  0  0  0  0  0  0  0  0  # atno 17343 bound_to 10162
  157.7388  130.9819  150.2272 LP  0  0  0  0  0  0  0  0  0  0  0  0  # atno 17370 bound_to 10713
  156.2886  130.3742  149.7864 LP  0  0  0  0  0  0  0  0  0  0  0  0  # atno 17371 bound_to 10713
  139.9141  134.8283  156.1426 LP  0  0  0  0  0  0  0  0  0  0  0  0  # atno 17394 bound_to 11000
  141.0721  133.6792  156.2161 LP  0  0  0  0  0  0  0  0  0  0  0  0  # atno 17395 bound_to 11000

$$$$
