AV-unprocessed.smi:781|AV-procd|sdf|3708|dock7
  -GOLD-   22720 1133D 1   1.00000     0.00000
 Structure written by MMmdl.
 38 40  0  0  0  0  0  0  0  0  1 V2000
  150.6868  140.9965  155.6340 C   0  0  0  0  0  0  0  0  0  0  0  0
  149.6944  139.9096  155.3991 C   0  0  0  0  0  0  0  0  0  0  0  0
  149.5906  138.9358  154.4459 C   0  0  0  0  0  0  0  0  0  0  0  0
  148.4078  138.2453  154.8214 C   0  0  0  0  0  0  0  0  0  0  0  0
  147.9425  137.1369  154.0692 N   0  0  0  0  0  0  0  0  0  0  0  0
  146.7948  136.4577  154.2351 C   0  0  0  0  0  0  0  0  0  0  0  0
  145.9386  136.7062  155.0841 O   0  0  0  0  0  0  0  0  0  0  0  0
  146.6868  135.4617  153.3450 N   0  0  0  0  0  0  0  0  0  0  0  0
  145.5497  134.5459  153.2468 C   0  0  1  0  0  0  0  0  0  0  0  0
  144.2196  135.2538  152.8784 C   0  0  1  0  0  0  0  0  0  0  0  0
  144.3953  136.1740  151.6516 C   0  0  0  0  0  0  0  0  0  0  0  0
  144.5916  135.1675  150.5039 C   0  0  0  0  0  0  0  0  0  0  0  0
  144.4669  133.8031  151.2142 C   0  0  2  0  0  0  0  0  0  0  0  0
  143.4104  134.1140  152.2681 C   0  0  0  0  0  0  0  0  0  0  0  0
  145.6922  133.4954  152.1095 C   0  0  1  0  0  0  0  0  0  0  0  0
  147.0574  133.4135  151.3895 C   0  0  0  0  0  0  0  0  0  0  0  0
  146.9591  132.5939  150.2443 O   0  0  0  0  0  0  0  0  0  0  0  0
  147.8409  138.7512  155.9060 N   0  0  0  0  0  0  0  0  0  0  0  0
  148.6633  139.8196  156.2825 O   0  0  0  0  0  0  0  0  0  0  0  0
  151.2135  141.2477  154.7134 H   0  0  0  0  0  0  0  0  0  0  0  0
  151.4257  140.6905  156.3744 H   0  0  0  0  0  0  0  0  0  0  0  0
  150.1962  141.8994  155.9981 H   0  0  0  0  0  0  0  0  0  0  0  0
  150.2553  138.7506  153.6153 H   0  0  0  0  0  0  0  0  0  0  0  0
  148.5490  136.8283  153.3242 H   0  0  0  0  0  0  0  0  0  0  0  0
  147.4361  135.3293  152.6823 H   0  0  0  0  0  0  0  0  0  0  0  0
  145.4364  134.0195  154.1967 H   0  0  0  0  0  0  0  0  0  0  0  0
  143.7421  135.7488  153.7247 H   0  0  0  0  0  0  0  0  0  0  0  0
  143.4920  136.7628  151.4863 H   0  0  0  0  0  0  0  0  0  0  0  0
  145.2236  136.8763  151.7429 H   0  0  0  0  0  0  0  0  0  0  0  0
  143.8001  135.2850  149.7627 H   0  0  0  0  0  0  0  0  0  0  0  0
  145.5397  135.2999  149.9851 H   0  0  0  0  0  0  0  0  0  0  0  0
  144.2051  132.9856  150.5416 H   0  0  0  0  0  0  0  0  0  0  0  0
  143.2308  133.2907  152.9619 H   0  0  0  0  0  0  0  0  0  0  0  0
  142.4567  134.4357  151.8453 H   0  0  0  0  0  0  0  0  0  0  0  0
  145.5227  132.5153  152.5597 H   0  0  0  0  0  0  0  0  0  0  0  0
  147.4309  134.3944  151.0974 H   0  0  0  0  0  0  0  0  0  0  0  0
  147.8037  132.9772  152.0540 H   0  0  0  0  0  0  0  0  0  0  0  0
  147.6729  131.9747  150.2549 H   0  0  0  0  0  0  0  0  0  0  0  0
  1  2  1  0  0  0  0
  1 20  1  0  0  0  0
  1 21  1  0  0  0  0
  1 22  1  0  0  0  0
  2 19  1  0  0  0  0
  2  3  2  0  0  0  0
  3  4  1  0  0  0  0
  3 23  1  0  0  0  0
  4  5  1  0  0  0  0
  4 18  2  0  0  0  0
  5  6  1  0  0  0  0
  5 24  1  0  0  0  0
  6  7  2  0  0  0  0
  6  8  1  0  0  0  0
  8  9  1  0  0  0  0
  8 25  1  0  0  0  0
  9 15  1  0  0  0  0
  9 10  1  0  0  0  0
  9 26  1  0  0  0  0
 10 14  1  0  0  0  0
 10 11  1  0  0  0  0
 10 27  1  0  0  0  0
 11 12  1  0  0  0  0
 11 28  1  0  0  0  0
 11 29  1  0  0  0  0
 12 13  1  0  0  0  0
 12 30  1  0  0  0  0
 12 31  1  0  0  0  0
 13 14  1  0  0  0  0
 13 15  1  0  0  0  0
 13 32  1  0  0  0  0
 14 33  1  0  0  0  0
 14 34  1  0  0  0  0
 15 16  1  0  0  0  0
 15 35  1  0  0  0  0
 16 17  1  0  0  0  0
 16 36  1  0  0  0  0
 16 37  1  0  0  0  0
 17 38  1  0  0  0  0
 18 19  1  0  0  0  0
M  END
> <s_m_source_file>
AV-unprocessed.smi

> <i_m_source_file_index>
781

> <i_lp_mmshare_version>
43012

> <i_f3d_flags>
0

> <s_epik_input>
W0NIM11jMVtjSF1jKG5vMSlbTkhdQyg9TylbTkhdW0NASF0oW0NAQEhdMjMpW0NASF0oW0NIMl1bT0hdKVtDQEBIXShbQ0gyXTMpW0NIMl1bQ0gyXTI=

> <s_epik_cmdline>
J2VwaWtfcHl0aG9uJywgJy1waCcsICc3LjAnLCAnLXRuJywgJzgnLCAnLW1hJywgJzIwMCcsICctbWV0YWxfYmluZGluZycsICctaW1hZScsICc8aW5maWxlLm1hZT4nLCAnLW9tYWUnLCAnPG91dGZpbGUubWFlPic=

> <r_lp_tautomer_probability>
1

> <r_epik_Ionization_Penalty>
2.32222e-05

> <r_epik_Ionization_Penalty_Charging>
0

> <r_epik_Ionization_Penalty_Neutral>
2.32222e-05

> <r_epik_State_Penalty>
-0

> <r_epik_Charging_Adjusted_Penalty>
0

> <i_epik_Tot_Q>
0

> <i_epik_Tot_abs_Q>
0

> <r_epik_Metal_State_Penalty>
-0

> <b_epik_Metal_Only>
0

> <s_lp_Force_Field>
OPLS_2005

> <r_lp_Energy>
48.8521

> <b_lp_Chiralities_Consistent>
1

> <s_lp_Variant>
AV-unprocessed.smi:781-2

> <Gold.Version>
5.8.1

> <Gold.Id.Protein>
6NUR|6NUR_protein|mol2

> <Gold.PLP.Fitness>
33.9714

> <Gold.PLP.PLP>
-25.4703

> <Gold.PLP.part.hbond>
-3.0000

> <Gold.PLP.part.metal>
0.0000

> <Gold.PLP.part.buried>
-2.0044

> <Gold.PLP.part.nonpolar>
-19.4844

> <Gold.PLP.part.repulsive>
0.0305

> <Gold.PLP.ligand.clash>
0.0000

> <Gold.PLP.ligand.torsion>
0.0745

> <Gold.PLP.Chemscore.Hbond>
2.8800

> <Gold.PLP.Chemscore.CHOScore>
0.0000

> <Gold.PLP.Chemscore.Metal>
0.0000

> <Gold.Chemscore.Hbonds>
donor molecule, donor type, donor heavy atom, donor atom, acceptor molecule, acceptor atom, score
      L1  H     5    24       P1  7948  1.00
      L1  H     8    25       P1  7948  0.88
      L1  H    17    38       P1 10747  1.00

> <Gold.PLP.Chemscore.Internal.Correction>
0.0101

> <Gold.Rescore>
     Score         DG    S(hbond)    S(metal)    S(lipo)     H(rot)  DE(clash)    DE(int)     intcor
     15.66     -17.03       2.89        0.00      56.90       1.86       0.05       1.31       ----

> <Gold.Chemscore.Fitness>
15.6617

> <Gold.Chemscore.DG>
-17.0272

> <Gold.Chemscore.ZeroCoef>
-5.4800

> <Gold.Chemscore.Hbond>
2.8888

> <Gold.Chemscore.Metal>
0.0000

> <Gold.Chemscore.Lipo>
56.8978

> <Gold.Chemscore.Internal_Hbond>
0.0000

> <Gold.Chemscore.DEClash>
0.0509

> <Gold.Chemscore.DEInternal>
1.3146

> <Gold.Chemscore.Rot>
1.8587

> <Gold.Chemscore.Internal.Correction>
   9.000000E+99

> <Gold.Chemscore.Hbonds>
donor molecule, donor type, donor heavy atom, donor atom, acceptor molecule, acceptor atom, score
      L1  H     5    24       P1  7948  0.99
      L1  H     8    25       P1  7948  0.86
      L1  H    17    38       P1 10747  1.00

> <Gold.Chemscore.Hbond.Weighted>
-9.6484

> <Gold.Chemscore.Metal.Weighted>
-0.0000

> <Gold.Chemscore.Lipo.Weighted>
-6.6570

> <Gold.Chemscore.Internal_Hbond.Weighted>
0.0000

> <Gold.Chemscore.DEClash.Weighted>
0.0509

> <Gold.Chemscore.DEInternal.Weighted>
1.3146

> <Gold.Chemscore.Rot.Weighted>
4.7583

> <Gold.Chemscore.Internal.Correction.Weighted>
   9.000000E+99

> <Gold.Protein.RotatedTorsions>
[ 6907 6896 6895 6894 ] final   95.65 input  -60.11 | X-H torsion
[ 7974 7965 7964 7962 ] final  -56.05 input  175.53 | X-H torsion
[ 8008 7997 7996 7995 ] final  -38.40 input   59.86 | X-H torsion
[ 10167 10162 10161 10158 ] final  -31.58 input  -65.29 | X-H torsion
[ 10718 10713 10712 10709 ] final -131.88 input   66.30 | X-H torsion
[ 10763 10752 10751 10750 ] final  154.56 input  -60.55 | X-H torsion
[ 11005 11000 10999 10996 ] final  131.22 input  -57.11 | X-H torsion

> <Gold.Protein.ActiveResidues>
 VAL166  LYS551  ARG553  GLY616  TRP617  ASP618  TYR619  PRO620  LYS621  CYS622 
 ASP623  PHE694  ASN695  SER759  ASP760  ASP761  ALA762  ILE779  LEU786  VAL792 
 PHE793  MET794  SER795  GLU796  ALA797  LYS798  CYS799  TRP800  GLU811  SER814 

> <Gold.Protein.RotatedAtoms>
  152.5442  134.1007  159.8316 H   0  0  0  0  0  0  0  0  0  0  0  0  # atno 6907 bound_to 6896
  151.1085  133.5183  159.2614 H   0  0  0  0  0  0  0  0  0  0  0  0  # atno 6908 bound_to 6896
  151.1910  135.0412  159.8887 H   0  0  0  0  0  0  0  0  0  0  0  0  # atno 6909 bound_to 6896
  145.8671  140.8243  142.9907 H   0  0  0  0  0  0  0  0  0  0  0  0  # atno 7974 bound_to 7965
  154.4037  140.1579  156.2693 H   0  0  0  0  0  0  0  0  0  0  0  0  # atno 8008 bound_to 7997
  155.8967  140.3435  155.5974 H   0  0  0  0  0  0  0  0  0  0  0  0  # atno 8009 bound_to 7997
  155.7496  140.0803  157.2198 H   0  0  0  0  0  0  0  0  0  0  0  0  # atno 8010 bound_to 7997
  140.7234  143.3760  151.1689 H   0  0  0  0  0  0  0  0  0  0  0  0  # atno 10167 bound_to 10162
  156.2289  130.7025  151.0837 H   0  0  0  0  0  0  0  0  0  0  0  0  # atno 10718 bound_to 10713
  154.1544  135.2813  155.3126 H   0  0  0  0  0  0  0  0  0  0  0  0  # atno 10763 bound_to 10752
  154.6194  135.5472  153.7562 H   0  0  0  0  0  0  0  0  0  0  0  0  # atno 10764 bound_to 10752
  153.0211  135.6435  154.1687 H   0  0  0  0  0  0  0  0  0  0  0  0  # atno 10765 bound_to 10752
  139.9717  134.9575  156.9406 H   0  0  0  0  0  0  0  0  0  0  0  0  # atno 11005 bound_to 11000
  144.6726  140.1183  143.7451 LP  0  0  0  0  0  0  0  0  0  0  0  0  # atno 17320 bound_to 7965
  145.9180  139.2528  143.1398 LP  0  0  0  0  0  0  0  0  0  0  0  0  # atno 17321 bound_to 7965
  139.7340  143.9028  152.3029 LP  0  0  0  0  0  0  0  0  0  0  0  0  # atno 17342 bound_to 10162
  139.8827  144.7009  150.8860 LP  0  0  0  0  0  0  0  0  0  0  0  0  # atno 17343 bound_to 10162
  157.7123  131.0727  150.6454 LP  0  0  0  0  0  0  0  0  0  0  0  0  # atno 17370 bound_to 10713
  156.6521  130.4488  149.5716 LP  0  0  0  0  0  0  0  0  0  0  0  0  # atno 17371 bound_to 10713
  140.5279  134.0843  155.7308 LP  0  0  0  0  0  0  0  0  0  0  0  0  # atno 17394 bound_to 11000
  141.1396  133.9161  157.2355 LP  0  0  0  0  0  0  0  0  0  0  0  0  # atno 17395 bound_to 11000

$$$$
