AV-unprocessed.smi:363|AV-procd|sdf|2424|dock8
  -GOLD-   2262022363D 1   1.00000     0.00000
 Structure written by MMmdl.
 39 40  0  0  0  0  0  0  0  0  1 V2000
  146.6518  137.0424  154.0793 C   0  0  0  0  0  0  0  0  0  0  0  0
  147.8615  137.7962  154.6179 C   0  0  0  0  0  0  0  0  0  0  0  0
  147.9307  139.2195  154.3825 C   0  0  0  0  0  0  0  0  0  0  0  0
  148.9874  139.9405  154.7895 C   0  0  0  0  0  0  0  0  0  0  0  0
  149.0523  141.4415  154.5271 C   0  0  0  0  0  0  0  0  0  0  0  0
  150.0621  139.3174  155.4822 N   0  0  0  0  0  0  0  0  0  0  0  0
  151.2216  140.1312  155.9161 C   0  0  0  0  0  0  0  0  0  0  0  0
  151.4083  140.1308  157.4528 C   0  0  1  0  0  0  0  0  0  0  0  0
  152.6430  139.5210  157.7713 O   0  0  0  0  0  0  0  0  0  0  0  0
  151.3495  141.5464  158.0078 C   0  0  0  0  0  0  0  0  0  0  0  0
  151.7853  141.8179  159.3236 C   0  0  0  0  0  0  0  0  0  0  0  0
  151.7396  143.1310  159.8307 C   0  0  0  0  0  0  0  0  0  0  0  0
  151.2599  144.1813  159.0245 C   0  0  0  0  0  0  0  0  0  0  0  0
  151.2048  145.7901  159.6456 Cl  0  0  0  0  0  0  0  0  0  0  0  0
  150.8261  143.9169  157.7109 C   0  0  0  0  0  0  0  0  0  0  0  0
  150.8705  142.6034  157.2039 C   0  0  0  0  0  0  0  0  0  0  0  0
  150.0602  137.9777  155.7770 C   0  0  0  0  0  0  0  0  0  0  0  0
  150.9809  137.4841  156.4361 O   0  0  0  0  0  0  0  0  0  0  0  0
  148.8931  137.2008  155.2750 C   0  0  0  0  0  0  0  0  0  0  0  0
  148.8962  135.7504  155.5508 C   0  0  0  0  0  0  0  0  0  0  0  0
  149.0198  134.9649  154.4720 N   0  0  0  0  0  0  0  0  0  0  0  0
  148.7198  135.2457  156.6587 O   0  0  0  0  0  0  0  0  0  0  0  0
  146.0457  137.6798  153.4350 H   0  0  0  0  0  0  0  0  0  0  0  0
  146.0176  136.7012  154.8978 H   0  0  0  0  0  0  0  0  0  0  0  0
  146.9582  136.1788  153.4882 H   0  0  0  0  0  0  0  0  0  0  0  0
  147.1208  139.7103  153.8621 H   0  0  0  0  0  0  0  0  0  0  0  0
  148.0841  141.8161  154.1935 H   0  0  0  0  0  0  0  0  0  0  0  0
  149.7739  141.6613  153.7399 H   0  0  0  0  0  0  0  0  0  0  0  0
  149.3158  142.0088  155.4176 H   0  0  0  0  0  0  0  0  0  0  0  0
  152.1495  139.8394  155.4200 H   0  0  0  0  0  0  0  0  0  0  0  0
  151.0865  141.1530  155.5644 H   0  0  0  0  0  0  0  0  0  0  0  0
  150.6250  139.5387  157.9274 H   0  0  0  0  0  0  0  0  0  0  0  0
  152.7505  139.5336  158.7101 H   0  0  0  0  0  0  0  0  0  0  0  0
  152.1584  141.0185  159.9469 H   0  0  0  0  0  0  0  0  0  0  0  0
  152.0749  143.3307  160.8379 H   0  0  0  0  0  0  0  0  0  0  0  0
  150.4598  144.7210  157.0896 H   0  0  0  0  0  0  0  0  0  0  0  0
  150.5371  142.4128  156.1942 H   0  0  0  0  0  0  0  0  0  0  0  0
  149.0132  133.9604  154.5755 H   0  0  0  0  0  0  0  0  0  0  0  0
  149.1020  135.3813  153.5559 H   0  0  0  0  0  0  0  0  0  0  0  0
  1  2  1  0  0  0  0
  1 23  1  0  0  0  0
  1 24  1  0  0  0  0
  1 25  1  0  0  0  0
  2 19  2  0  0  0  0
  2  3  1  0  0  0  0
  3  4  2  0  0  0  0
  3 26  1  0  0  0  0
  4  5  1  0  0  0  0
  4  6  1  0  0  0  0
  5 27  1  0  0  0  0
  5 28  1  0  0  0  0
  5 29  1  0  0  0  0
  6  7  1  0  0  0  0
  6 17  1  0  0  0  0
  7  8  1  0  0  0  0
  7 30  1  0  0  0  0
  7 31  1  0  0  0  0
  8  9  1  0  0  0  0
  8 10  1  0  0  0  0
  8 32  1  0  0  0  0
  9 33  1  0  0  0  0
 10 16  1  0  0  0  0
 10 11  2  0  0  0  0
 11 12  1  0  0  0  0
 11 34  1  0  0  0  0
 12 13  2  0  0  0  0
 12 35  1  0  0  0  0
 13 14  1  0  0  0  0
 13 15  1  0  0  0  0
 15 16  2  0  0  0  0
 15 36  1  0  0  0  0
 16 37  1  0  0  0  0
 17 18  2  0  0  0  0
 17 19  1  0  0  0  0
 19 20  1  0  0  0  0
 20 21  1  0  0  0  0
 20 22  2  0  0  0  0
 21 38  1  0  0  0  0
 21 39  1  0  0  0  0
M  END
> <s_m_source_file>
AV-unprocessed.smi

> <i_m_source_file_index>
363

> <i_lp_mmshare_version>
43012

> <i_f3d_flags>
0

> <s_epik_input>
W0NIM11jMVtjSF1jKFtDSDNdKW4oYyg9TyljMUMoPU8pW05IMl0pW0NIMl1bQ0BIXShbT0hdKWMyW2NIXVtjSF1jKENsKVtjSF1bY0hdMg==

> <s_epik_cmdline>
J2VwaWtfcHl0aG9uJywgJy1waCcsICc3LjAnLCAnLXRuJywgJzgnLCAnLW1hJywgJzIwMCcsICctbWV0YWxfYmluZGluZycsICctaW1hZScsICc8aW5maWxlLm1hZT4nLCAnLW9tYWUnLCAnPG91dGZpbGUubWFlPic=

> <r_lp_tautomer_probability>
1

> <r_epik_Ionization_Penalty>
3.91973e-07

> <r_epik_Ionization_Penalty_Charging>
1.35363e-07

> <r_epik_Ionization_Penalty_Neutral>
2.5661e-07

> <r_epik_State_Penalty>
-0

> <r_epik_Charging_Adjusted_Penalty>
1.35363e-07

> <i_epik_Tot_Q>
0

> <i_epik_Tot_abs_Q>
0

> <r_epik_Metal_State_Penalty>
-0

> <b_epik_Metal_Only>
0

> <s_lp_Force_Field>
OPLS_2005

> <r_lp_Energy>
39.726

> <b_lp_Chiralities_Consistent>
1

> <s_lp_Variant>
AV-unprocessed.smi:363-2

> <Gold.Version>
5.8.1

> <Gold.Id.Protein>
6NUR|6NUR_protein|mol2

> <Gold.PLP.Fitness>
40.6327

> <Gold.PLP.PLP>
-39.1807

> <Gold.PLP.part.hbond>
-2.0000

> <Gold.PLP.part.metal>
0.0000

> <Gold.PLP.part.buried>
-4.7464

> <Gold.PLP.part.nonpolar>
-33.5391

> <Gold.PLP.part.repulsive>
0.0236

> <Gold.PLP.ligand.clash>
0.0000

> <Gold.PLP.ligand.torsion>
2.4182

> <Gold.PLP.Chemscore.Hbond>
2.0000

> <Gold.PLP.Chemscore.CHOScore>
0.0000

> <Gold.PLP.Chemscore.Metal>
0.0000

> <Gold.Chemscore.Hbonds>
donor molecule, donor type, donor heavy atom, donor atom, acceptor molecule, acceptor atom, score
      L1  H    21    39       P1  7948  1.00
      P1  H  7997  8008       L1     9  0.78

> <Gold.PLP.Chemscore.Internal.Correction>
0.2885

> <Gold.Rescore>
     Score         DG    S(hbond)    S(metal)    S(lipo)     H(rot)  DE(clash)    DE(int)     intcor
     15.71     -18.98       1.90        0.00     103.80       1.95       0.01       3.26       ----

> <Gold.Chemscore.Fitness>
15.7059

> <Gold.Chemscore.DG>
-18.9760

> <Gold.Chemscore.ZeroCoef>
-5.4800

> <Gold.Chemscore.Hbond>
1.8989

> <Gold.Chemscore.Metal>
0.0000

> <Gold.Chemscore.Lipo>
103.7999

> <Gold.Chemscore.Internal_Hbond>
0.0000

> <Gold.Chemscore.DEClash>
0.0147

> <Gold.Chemscore.DEInternal>
3.2553

> <Gold.Chemscore.Rot>
1.9495

> <Gold.Chemscore.Internal.Correction>
   9.000000E+99

> <Gold.Chemscore.Hbonds>
donor molecule, donor type, donor heavy atom, donor atom, acceptor molecule, acceptor atom, score
      L1  H    21    39       P1  7948  0.55
      P1  H  7997  8008       L1     9  0.63

> <Gold.Chemscore.Hbond.Weighted>
-6.3422

> <Gold.Chemscore.Metal.Weighted>
-0.0000

> <Gold.Chemscore.Lipo.Weighted>
-12.1446

> <Gold.Chemscore.Internal_Hbond.Weighted>
0.0000

> <Gold.Chemscore.DEClash.Weighted>
0.0147

> <Gold.Chemscore.DEInternal.Weighted>
3.2553

> <Gold.Chemscore.Rot.Weighted>
4.9908

> <Gold.Chemscore.Internal.Correction.Weighted>
   9.000000E+99

> <Gold.Protein.RotatedTorsions>
[ 6907 6896 6895 6894 ] final   78.99 input  -60.11 | X-H torsion
[ 7974 7965 7964 7962 ] final  -47.19 input  175.53 | X-H torsion
[ 8008 7997 7996 7995 ] final  -66.95 input   59.86 | X-H torsion
[ 10167 10162 10161 10158 ] final  -28.27 input  -65.29 | X-H torsion
[ 10718 10713 10712 10709 ] final -158.32 input   66.30 | X-H torsion
[ 10763 10752 10751 10750 ] final  -58.02 input  -60.55 | X-H torsion
[ 11005 11000 10999 10996 ] final   14.33 input  -57.11 | X-H torsion

> <Gold.Protein.ActiveResidues>
 VAL166  LYS551  ARG553  GLY616  TRP617  ASP618  TYR619  PRO620  LYS621  CYS622 
 ASP623  PHE694  ASN695  SER759  ASP760  ASP761  ALA762  ILE779  LEU786  VAL792 
 PHE793  MET794  SER795  GLU796  ALA797  LYS798  CYS799  TRP800  GLU811  SER814 

> <Gold.Protein.RotatedAtoms>
  152.5181  134.3579  159.9273 H   0  0  0  0  0  0  0  0  0  0  0  0  # atno 6907 bound_to 6896
  151.3531  133.3911  159.2690 H   0  0  0  0  0  0  0  0  0  0  0  0  # atno 6908 bound_to 6896
  150.9711  134.9103  159.7847 H   0  0  0  0  0  0  0  0  0  0  0  0  # atno 6909 bound_to 6896
  145.9641  140.7449  142.9443 H   0  0  0  0  0  0  0  0  0  0  0  0  # atno 7974 bound_to 7965
  154.4768  140.0902  156.7280 H   0  0  0  0  0  0  0  0  0  0  0  0  # atno 8008 bound_to 7997
  155.4576  140.3460  155.4290 H   0  0  0  0  0  0  0  0  0  0  0  0  # atno 8009 bound_to 7997
  156.1128  140.1452  156.9302 H   0  0  0  0  0  0  0  0  0  0  0  0  # atno 8010 bound_to 7997
  140.7271  143.4024  151.1242 H   0  0  0  0  0  0  0  0  0  0  0  0  # atno 10167 bound_to 10162
  156.5525  130.8611  151.2784 H   0  0  0  0  0  0  0  0  0  0  0  0  # atno 10718 bound_to 10713
  154.2316  135.6359  153.5177 H   0  0  0  0  0  0  0  0  0  0  0  0  # atno 10763 bound_to 10752
  152.9948  135.5521  154.6006 H   0  0  0  0  0  0  0  0  0  0  0  0  # atno 10764 bound_to 10752
  154.5491  135.2900  155.1000 H   0  0  0  0  0  0  0  0  0  0  0  0  # atno 10765 bound_to 10752
  140.4707  134.1034  155.7732 H   0  0  0  0  0  0  0  0  0  0  0  0  # atno 11005 bound_to 11000
  144.6821  140.2640  143.7315 LP  0  0  0  0  0  0  0  0  0  0  0  0  # atno 17320 bound_to 7965
  145.7998  139.1960  143.2054 LP  0  0  0  0  0  0  0  0  0  0  0  0  # atno 17321 bound_to 7965
  139.7646  143.8585  152.3108 LP  0  0  0  0  0  0  0  0  0  0  0  0  # atno 17342 bound_to 10162
  139.8482  144.7177  150.9246 LP  0  0  0  0  0  0  0  0  0  0  0  0  # atno 17343 bound_to 10162
  157.7385  130.9814  150.2254 LP  0  0  0  0  0  0  0  0  0  0  0  0  # atno 17370 bound_to 10713
  156.2872  130.3741  149.7877 LP  0  0  0  0  0  0  0  0  0  0  0  0  # atno 17371 bound_to 10713
  141.1578  133.8849  157.1930 LP  0  0  0  0  0  0  0  0  0  0  0  0  # atno 17394 bound_to 11000
  139.9887  135.0072  156.9924 LP  0  0  0  0  0  0  0  0  0  0  0  0  # atno 17395 bound_to 11000

$$$$
