AV-unprocessed.smi:2218|AV-procd|sdf|8976|dock6
  -GOLD-   2272012193D 1   1.00000     0.00000
 Structure written by MMmdl.
 32 32  0  0  0  0  0  0  0  0  2 V2000
  143.7669  135.1127  152.5073 C   0  0  0  0  0  0  0  0  0  0  0  0
  144.8080  134.1069  152.1540 C   0  0  0  0  0  0  0  0  0  0  0  0
  145.9007  133.8857  152.8893 N   0  0  0  0  0  0  0  0  0  0  0  0
  146.7263  132.8967  152.3436 C   0  0  0  0  0  0  0  0  0  0  0  0
  148.0031  132.5155  153.0399 C   0  0  0  0  0  0  0  0  0  0  0  0
  148.2698  133.3750  154.2831 C   0  0  0  0  0  0  0  0  0  0  0  0
  148.2589  132.8877  155.4149 O   0  0  0  0  0  0  0  0  0  0  0  0
  148.5002  134.6761  154.0498 N   0  0  0  0  0  0  0  0  0  0  0  0
  148.7331  135.6853  155.0763 C   0  0  0  0  0  0  0  0  0  0  0  0
  150.1084  135.5023  155.7379 C   0  0  0  0  0  0  0  0  0  0  0  0
  150.7659  136.8379  156.1119 C   0  0  0  0  0  0  0  0  0  0  0  0
  151.0630  137.7080  154.8744 C   0  0  0  0  0  0  0  0  0  0  0  0
  151.6296  139.0899  155.2263 C   0  0  0  0  0  0  0  0  0  0  0  0
  150.9364  140.0737  154.8873 O   0  0  0  0  0  0  0  0  0  0  0  0
  152.7268  139.1560  155.8246 O   0  5  0  0  0  0  0  0  0  0  0  0
  146.2315  132.3623  151.1791 C   0  0  0  0  0  0  0  0  0  0  0  0
  144.7186  133.0929  150.7191 S   0  0  0  0  0  0  0  0  0  0  0  0
  143.8723  135.4255  153.5467 H   0  0  0  0  0  0  0  0  0  0  0  0
  142.7734  134.6854  152.3711 H   0  0  0  0  0  0  0  0  0  0  0  0
  143.8635  135.9887  151.8658 H   0  0  0  0  0  0  0  0  0  0  0  0
  147.9780  131.4662  153.3363 H   0  0  0  0  0  0  0  0  0  0  0  0
  148.8480  132.6225  152.3586 H   0  0  0  0  0  0  0  0  0  0  0  0
  148.4943  134.9949  153.0918 H   0  0  0  0  0  0  0  0  0  0  0  0
  148.6403  136.6864  154.6515 H   0  0  0  0  0  0  0  0  0  0  0  0
  147.9461  135.5920  155.8250 H   0  0  0  0  0  0  0  0  0  0  0  0
  149.9999  134.8898  156.6340 H   0  0  0  0  0  0  0  0  0  0  0  0
  150.7695  134.9530  155.0665 H   0  0  0  0  0  0  0  0  0  0  0  0
  150.1106  137.3793  156.7958 H   0  0  0  0  0  0  0  0  0  0  0  0
  151.6911  136.6407  156.6558 H   0  0  0  0  0  0  0  0  0  0  0  0
  151.7776  137.1984  154.2270 H   0  0  0  0  0  0  0  0  0  0  0  0
  150.1527  137.8478  154.2905 H   0  0  0  0  0  0  0  0  0  0  0  0
  146.6685  131.5906  150.5631 H   0  0  0  0  0  0  0  0  0  0  0  0
  1  2  1  0  0  0  0
  1 18  1  0  0  0  0
  1 19  1  0  0  0  0
  1 20  1  0  0  0  0
  2 17  1  0  0  0  0
  2  3  2  0  0  0  0
  3  4  1  0  0  0  0
  4  5  1  0  0  0  0
  4 16  2  0  0  0  0
  5  6  1  0  0  0  0
  5 21  1  0  0  0  0
  5 22  1  0  0  0  0
  6  7  2  0  0  0  0
  6  8  1  0  0  0  0
  8  9  1  0  0  0  0
  8 23  1  0  0  0  0
  9 10  1  0  0  0  0
  9 24  1  0  0  0  0
  9 25  1  0  0  0  0
 10 11  1  0  0  0  0
 10 26  1  0  0  0  0
 10 27  1  0  0  0  0
 11 12  1  0  0  0  0
 11 28  1  0  0  0  0
 11 29  1  0  0  0  0
 12 13  1  0  0  0  0
 12 30  1  0  0  0  0
 12 31  1  0  0  0  0
 13 14  2  0  0  0  0
 13 15  1  0  0  0  0
 16 17  1  0  0  0  0
 16 32  1  0  0  0  0
M  CHG  1  15  -1
M  END
> <s_m_source_file>
AV-unprocessed.smi

> <i_m_source_file_index>
2218

> <i_lp_mmshare_version>
43012

> <i_f3d_flags>
0

> <s_epik_input>
W0NIM11jMW5jKFtjSF1zMSlbQ0gyXUMoPU8pW05IXVtDSDJdW0NIMl1bQ0gyXVtDSDJdQyg9TylbT0hd

> <s_epik_cmdline>
J2VwaWtfcHl0aG9uJywgJy1waCcsICc3LjAnLCAnLXRuJywgJzgnLCAnLW1hJywgJzIwMCcsICctbWV0YWxfYmluZGluZycsICctaW1hZScsICc8aW5maWxlLm1hZT4nLCAnLW9tYWUnLCAnPG91dGZpbGUubWFlPic=

> <r_epik_Ionization_Penalty>
0.0039764

> <r_epik_Ionization_Penalty_Charging>
0.00392012

> <r_epik_Ionization_Penalty_Neutral>
5.62812e-05

> <r_epik_State_Penalty>
0.00280293

> <r_epik_Charging_Adjusted_Penalty>
0.00672305

> <i_epik_Tot_Q>
-1

> <i_epik_Tot_abs_Q>
1

> <r_epik_Metal_State_Penalty>
-0

> <b_epik_Metal_Only>
0

> <s_lp_Force_Field>
OPLS_2005

> <r_lp_Energy>
1.59535

> <b_lp_Chiralities_Consistent>
1

> <s_lp_Variant>
AV-unprocessed.smi:2218-1

> <Gold.Version>
5.8.1

> <Gold.Id.Protein>
6NUR|6NUR_protein|mol2

> <Gold.PLP.Fitness>
43.4253

> <Gold.PLP.PLP>
-29.1997

> <Gold.PLP.part.hbond>
-3.0000

> <Gold.PLP.part.metal>
0.0000

> <Gold.PLP.part.buried>
-4.6780

> <Gold.PLP.part.nonpolar>
-22.0498

> <Gold.PLP.part.repulsive>
0.1595

> <Gold.PLP.ligand.clash>
0.0000

> <Gold.PLP.ligand.torsion>
0.3513

> <Gold.PLP.Chemscore.Hbond>
3.9920

> <Gold.PLP.Chemscore.CHOScore>
0.9708

> <Gold.PLP.Chemscore.Metal>
0.0000

> <Gold.Chemscore.Hbonds>
donor molecule, donor type, donor heavy atom, donor atom, acceptor molecule, acceptor atom, score
      L1  H     8    23       P1  7948  1.00
      P1  H  7989  7998       L1    14  1.00
      P1  H  7997  8009       L1    15  2.00
      L1  C    16    32       P1 10747  1.00

> <Gold.PLP.Chemscore.Internal.Correction>
0.0399

> <Gold.Rescore>
     Score         DG    S(hbond)    S(metal)    S(lipo)     H(rot)  DE(clash)    DE(int)     intcor
     13.18     -13.52       2.80        0.00      50.74       2.83       0.02       0.32       ----

> <Gold.Chemscore.Fitness>
13.1843

> <Gold.Chemscore.DG>
-13.5231

> <Gold.Chemscore.ZeroCoef>
-5.4800

> <Gold.Chemscore.Hbond>
2.8007

> <Gold.Chemscore.Metal>
0.0000

> <Gold.Chemscore.Lipo>
50.7438

> <Gold.Chemscore.Internal_Hbond>
0.0000

> <Gold.Chemscore.DEClash>
0.0158

> <Gold.Chemscore.DEInternal>
0.3230

> <Gold.Chemscore.Rot>
2.8313

> <Gold.Chemscore.Internal.Correction>
   9.000000E+99

> <Gold.Chemscore.Hbonds>
donor molecule, donor type, donor heavy atom, donor atom, acceptor molecule, acceptor atom, score
      L1  H     8    23       P1  7948  0.66
      P1  H  7989  7998       L1    14  0.78
      P1  H  7997  8009       L1    15  0.99

> <Gold.Chemscore.Hbond.Weighted>
-9.3543

> <Gold.Chemscore.Metal.Weighted>
-0.0000

> <Gold.Chemscore.Lipo.Weighted>
-5.9370

> <Gold.Chemscore.Internal_Hbond.Weighted>
0.0000

> <Gold.Chemscore.DEClash.Weighted>
0.0158

> <Gold.Chemscore.DEInternal.Weighted>
0.3230

> <Gold.Chemscore.Rot.Weighted>
7.2482

> <Gold.Chemscore.Internal.Correction.Weighted>
   9.000000E+99

> <Gold.Protein.RotatedTorsions>
[ 6907 6896 6895 6894 ] final  -51.64 input  -60.11 | X-H torsion
[ 7974 7965 7964 7962 ] final   93.24 input  175.53 | X-H torsion
[ 8008 7997 7996 7995 ] final -150.13 input   59.86 | X-H torsion
[ 10167 10162 10161 10158 ] final  -44.73 input  -65.29 | X-H torsion
[ 10718 10713 10712 10709 ] final   79.78 input   66.30 | X-H torsion
[ 10763 10752 10751 10750 ] final -101.37 input  -60.55 | X-H torsion
[ 11005 11000 10999 10996 ] final -140.67 input  -57.11 | X-H torsion

> <Gold.Protein.ActiveResidues>
 VAL166  LYS551  ARG553  GLY616  TRP617  ASP618  TYR619  PRO620  LYS621  CYS622 
 ASP623  PHE694  ASN695  SER759  ASP760  ASP761  ALA762  ILE779  LEU786  VAL792 
 PHE793  MET794  SER795  GLU796  ALA797  LYS798  CYS799  TRP800  GLU811  SER814 

> <Gold.Protein.RotatedAtoms>
  150.8592  134.7939  159.7069 H   0  0  0  0  0  0  0  0  0  0  0  0  # atno 6907 bound_to 6896
  152.4634  134.5128  159.9769 H   0  0  0  0  0  0  0  0  0  0  0  0  # atno 6908 bound_to 6896
  151.5235  133.3424  159.2941 H   0  0  0  0  0  0  0  0  0  0  0  0  # atno 6909 bound_to 6896
  145.4816  139.2278  143.2879 H   0  0  0  0  0  0  0  0  0  0  0  0  # atno 7974 bound_to 7965
  155.6186  140.0679  157.2685 H   0  0  0  0  0  0  0  0  0  0  0  0  # atno 8008 bound_to 7997
  154.4235  140.1788  156.1396 H   0  0  0  0  0  0  0  0  0  0  0  0  # atno 8009 bound_to 7997
  156.0027  140.3334  155.6865 H   0  0  0  0  0  0  0  0  0  0  0  0  # atno 8010 bound_to 7997
  140.6885  143.2915  151.3538 H   0  0  0  0  0  0  0  0  0  0  0  0  # atno 10167 bound_to 10162
  157.6787  130.9930  150.1983 H   0  0  0  0  0  0  0  0  0  0  0  0  # atno 10718 bound_to 10713
  154.7652  135.4900  153.9541 H   0  0  0  0  0  0  0  0  0  0  0  0  # atno 10763 bound_to 10752
  153.1299  135.6750  153.9203 H   0  0  0  0  0  0  0  0  0  0  0  0  # atno 10764 bound_to 10752
  153.8909  135.3121  155.3426 H   0  0  0  0  0  0  0  0  0  0  0  0  # atno 10765 bound_to 10752
  140.8400  134.2413  157.4815 H   0  0  0  0  0  0  0  0  0  0  0  0  # atno 11005 bound_to 11000
  146.2337  140.5603  142.8964 LP  0  0  0  0  0  0  0  0  0  0  0  0  # atno 17320 bound_to 7965
  144.7885  140.5985  143.6557 LP  0  0  0  0  0  0  0  0  0  0  0  0  # atno 17321 bound_to 7965
  139.6266  144.0803  152.2439 LP  0  0  0  0  0  0  0  0  0  0  0  0  # atno 17342 bound_to 10162
  140.0264  144.6114  150.7524 LP  0  0  0  0  0  0  0  0  0  0  0  0  # atno 17343 bound_to 10162
  156.2679  130.3718  149.8062 LP  0  0  0  0  0  0  0  0  0  0  0  0  # atno 17370 bound_to 10713
  156.5787  130.8456  151.3377 LP  0  0  0  0  0  0  0  0  0  0  0  0  # atno 17371 bound_to 10713
  139.8703  134.9630  156.4449 LP  0  0  0  0  0  0  0  0  0  0  0  0  # atno 17394 bound_to 11000
  140.8905  133.7851  155.9567 LP  0  0  0  0  0  0  0  0  0  0  0  0  # atno 17395 bound_to 11000

$$$$
