AV-unprocessed.smi:1780|AV-procd|sdf|7184|dock9
  -GOLD-   22720 8423D 1   1.00000     0.00000
 Structure written by MMmdl.
 43 44  0  0  0  0  0  0  0  0  1 V2000
  150.0936  141.8193  157.6613 C   0  0  0  0  0  0  0  0  0  0  0  0
  150.8228  141.8828  156.3133 C   0  0  0  0  0  0  0  0  0  0  0  0
  150.5304  140.7278  155.4866 N   0  0  0  0  0  0  0  0  0  0  0  0
  149.3143  140.3426  154.9582 C   0  0  0  0  0  0  0  0  0  0  0  0
  149.5625  139.1953  154.2589 C   0  0  0  0  0  0  0  0  0  0  0  0
  148.6692  138.3837  153.5155 N   0  0  0  0  0  0  0  0  0  0  0  0
  147.3405  138.5351  153.3923 C   0  0  0  0  0  0  0  0  0  0  0  0
  146.6735  139.4137  153.9392 O   0  0  0  0  0  0  0  0  0  0  0  0
  146.8175  137.5999  152.5872 N   0  0  0  0  0  0  0  0  0  0  0  0
  145.4052  137.4913  152.2320 C   0  0  0  0  0  0  0  0  0  0  0  0
  144.6511  136.3640  152.9971 C   0  0  1  0  0  0  0  0  0  0  0  0
  143.1656  136.7747  153.1644 C   0  0  0  0  0  0  0  0  0  0  0  0
  144.8100  135.0302  152.3724 N   0  0  0  0  0  0  0  0  0  0  0  0
  144.2148  134.9551  151.0329 C   0  0  0  0  0  0  0  0  0  0  0  0
  144.4037  133.5788  150.3715 C   0  0  0  0  0  0  0  0  0  0  0  0
  145.7872  133.2615  150.3093 O   0  0  0  0  0  0  0  0  0  0  0  0
  146.3890  133.2471  151.5962 C   0  0  0  0  0  0  0  0  0  0  0  0
  146.2155  134.6221  152.2643 C   0  0  0  0  0  0  0  0  0  0  0  0
  150.9512  138.9439  154.4073 C   0  0  0  0  0  0  0  0  0  0  0  0
  151.5292  139.8729  155.1535 N   0  0  0  0  0  0  0  0  0  0  0  0
  150.3441  142.6824  158.2781 H   0  0  0  0  0  0  0  0  0  0  0  0
  150.3692  140.9218  158.2161 H   0  0  0  0  0  0  0  0  0  0  0  0
  149.0114  141.8113  157.5260 H   0  0  0  0  0  0  0  0  0  0  0  0
  150.5391  142.7847  155.7690 H   0  0  0  0  0  0  0  0  0  0  0  0
  151.9004  141.9341  156.4722 H   0  0  0  0  0  0  0  0  0  0  0  0
  148.4105  140.9098  155.1249 H   0  0  0  0  0  0  0  0  0  0  0  0
  149.0872  137.6100  153.0200 H   0  0  0  0  0  0  0  0  0  0  0  0
  147.4408  136.9167  152.1826 H   0  0  0  0  0  0  0  0  0  0  0  0
  144.9330  138.4537  152.4318 H   0  0  0  0  0  0  0  0  0  0  0  0
  145.3665  137.3473  151.1530 H   0  0  0  0  0  0  0  0  0  0  0  0
  145.0789  136.3137  153.9996 H   0  0  0  0  0  0  0  0  0  0  0  0
  143.0538  137.7735  153.5844 H   0  0  0  0  0  0  0  0  0  0  0  0
  142.6310  136.1210  153.8520 H   0  0  0  0  0  0  0  0  0  0  0  0
  142.6420  136.7605  152.2081 H   0  0  0  0  0  0  0  0  0  0  0  0
  143.1431  135.1382  151.0752 H   0  0  0  0  0  0  0  0  0  0  0  0
  144.6446  135.7273  150.3928 H   0  0  0  0  0  0  0  0  0  0  0  0
  143.8694  132.8065  150.9272 H   0  0  0  0  0  0  0  0  0  0  0  0
  143.9951  133.5855  149.3610 H   0  0  0  0  0  0  0  0  0  0  0  0
  145.9429  132.4610  152.2074 H   0  0  0  0  0  0  0  0  0  0  0  0
  147.4474  133.0085  151.4911 H   0  0  0  0  0  0  0  0  0  0  0  0
  146.7759  135.3706  151.7021 H   0  0  0  0  0  0  0  0  0  0  0  0
  146.6741  134.5565  153.2491 H   0  0  0  0  0  0  0  0  0  0  0  0
  151.5468  138.1361  154.0082 H   0  0  0  0  0  0  0  0  0  0  0  0
  1  2  1  0  0  0  0
  1 21  1  0  0  0  0
  1 22  1  0  0  0  0
  1 23  1  0  0  0  0
  2  3  1  0  0  0  0
  2 24  1  0  0  0  0
  2 25  1  0  0  0  0
  3 20  1  0  0  0  0
  3  4  1  0  0  0  0
  4  5  2  0  0  0  0
  4 26  1  0  0  0  0
  5  6  1  0  0  0  0
  5 19  1  0  0  0  0
  6  7  1  0  0  0  0
  6 27  1  0  0  0  0
  7  8  2  0  0  0  0
  7  9  1  0  0  0  0
  9 10  1  0  0  0  0
  9 28  1  0  0  0  0
 10 11  1  0  0  0  0
 10 29  1  0  0  0  0
 10 30  1  0  0  0  0
 11 12  1  0  0  0  0
 11 13  1  0  0  0  0
 11 31  1  0  0  0  0
 12 32  1  0  0  0  0
 12 33  1  0  0  0  0
 12 34  1  0  0  0  0
 13 18  1  0  0  0  0
 13 14  1  0  0  0  0
 14 15  1  0  0  0  0
 14 35  1  0  0  0  0
 14 36  1  0  0  0  0
 15 16  1  0  0  0  0
 15 37  1  0  0  0  0
 15 38  1  0  0  0  0
 16 17  1  0  0  0  0
 17 18  1  0  0  0  0
 17 39  1  0  0  0  0
 17 40  1  0  0  0  0
 18 41  1  0  0  0  0
 18 42  1  0  0  0  0
 19 20  2  0  0  0  0
 19 43  1  0  0  0  0
M  END
> <s_m_source_file>
AV-unprocessed.smi

> <i_m_source_file_index>
1780

> <i_lp_mmshare_version>
43012

> <i_f3d_flags>
0

> <s_epik_input>
W0NIM11bQ0gyXW4xW2NIXWMoW2NIXW4xKVtOSF1DKD1PKVtOSF1bQ0gyXVtDQEhdKFtDSDNdKU4yW0NIMl1bQ0gyXU9bQ0gyXVtDSDJdMg==

> <s_epik_cmdline>
J2VwaWtfcHl0aG9uJywgJy1waCcsICc3LjAnLCAnLXRuJywgJzgnLCAnLW1hJywgJzIwMCcsICctbWV0YWxfYmluZGluZycsICctaW1hZScsICc8aW5maWxlLm1hZT4nLCAnLW9tYWUnLCAnPG91dGZpbGUubWFlPic=

> <r_lp_tautomer_probability>
1

> <r_epik_Ionization_Penalty>
0.242902

> <r_epik_Ionization_Penalty_Charging>
0

> <r_epik_Ionization_Penalty_Neutral>
0.242902

> <r_epik_State_Penalty>
0.233765

> <r_epik_Charging_Adjusted_Penalty>
0.233765

> <i_epik_Tot_Q>
0

> <i_epik_Tot_abs_Q>
0

> <r_epik_Metal_State_Penalty>
0.233759

> <b_epik_Metal_Only>
0

> <s_lp_Force_Field>
OPLS_2005

> <r_lp_Energy>
31.4714

> <b_lp_Chiralities_Consistent>
1

> <s_lp_Variant>
AV-unprocessed.smi:1780-2

> <Gold.Version>
5.8.1

> <Gold.Id.Protein>
6NUR|6NUR_protein|mol2

> <Gold.PLP.Fitness>
38.8483

> <Gold.PLP.PLP>
-33.4401

> <Gold.PLP.part.hbond>
-4.0000

> <Gold.PLP.part.metal>
0.0000

> <Gold.PLP.part.buried>
-1.1667

> <Gold.PLP.part.nonpolar>
-28.5309

> <Gold.PLP.part.repulsive>
0.9459

> <Gold.PLP.ligand.clash>
0.0000

> <Gold.PLP.ligand.torsion>
0.4528

> <Gold.PLP.Chemscore.Hbond>
2.0900

> <Gold.PLP.Chemscore.CHOScore>
0.0000

> <Gold.PLP.Chemscore.Metal>
0.0000

> <Gold.Chemscore.Hbonds>
donor molecule, donor type, donor heavy atom, donor atom, acceptor molecule, acceptor atom, score
      L1  H     6    27       P1  7948  1.00
      L1  H     9    28       P1  7948  1.00
      P1  H  7989  7998       L1    20  0.08

> <Gold.PLP.Chemscore.Internal.Correction>
0.0438

> <Gold.Rescore>
     Score         DG    S(hbond)    S(metal)    S(lipo)     H(rot)  DE(clash)    DE(int)     intcor
     14.31     -16.10       1.92        0.00      71.33       1.61       0.10       1.69       ----

> <Gold.Chemscore.Fitness>
14.3105

> <Gold.Chemscore.DG>
-16.0977

> <Gold.Chemscore.ZeroCoef>
-5.4800

> <Gold.Chemscore.Hbond>
1.9157

> <Gold.Chemscore.Metal>
0.0000

> <Gold.Chemscore.Lipo>
71.3278

> <Gold.Chemscore.Internal_Hbond>
0.0000

> <Gold.Chemscore.DEClash>
0.0968

> <Gold.Chemscore.DEInternal>
1.6905

> <Gold.Chemscore.Rot>
1.6117

> <Gold.Chemscore.Internal.Correction>
   9.000000E+99

> <Gold.Chemscore.Hbonds>
donor molecule, donor type, donor heavy atom, donor atom, acceptor molecule, acceptor atom, score
      L1  H     6    27       P1  7948  0.96
      L1  H     9    28       P1  7948  0.98

> <Gold.Chemscore.Hbond.Weighted>
-6.3984

> <Gold.Chemscore.Metal.Weighted>
-0.0000

> <Gold.Chemscore.Lipo.Weighted>
-8.3454

> <Gold.Chemscore.Internal_Hbond.Weighted>
0.0000

> <Gold.Chemscore.DEClash.Weighted>
0.0968

> <Gold.Chemscore.DEInternal.Weighted>
1.6905

> <Gold.Chemscore.Rot.Weighted>
4.1260

> <Gold.Chemscore.Internal.Correction.Weighted>
   9.000000E+99

> <Gold.Protein.RotatedTorsions>
[ 6907 6896 6895 6894 ] final    9.00 input  -60.11 | X-H torsion
[ 7974 7965 7964 7962 ] final  -31.05 input  175.53 | X-H torsion
[ 8008 7997 7996 7995 ] final  -79.01 input   59.86 | X-H torsion
[ 10167 10162 10161 10158 ] final  108.43 input  -65.29 | X-H torsion
[ 10718 10713 10712 10709 ] final   59.88 input   66.30 | X-H torsion
[ 10763 10752 10751 10750 ] final   -8.91 input  -60.55 | X-H torsion
[ 11005 11000 10999 10996 ] final  -73.70 input  -57.11 | X-H torsion

> <Gold.Protein.ActiveResidues>
 VAL166  LYS551  ARG553  GLY616  TRP617  ASP618  TYR619  PRO620  LYS621  CYS622 
 ASP623  PHE694  ASN695  SER759  ASP760  ASP761  ALA762  ILE779  LEU786  VAL792 
 PHE793  MET794  SER795  GLU796  ALA797  LYS798  CYS799  TRP800  GLU811  SER814 

> <Gold.Protein.RotatedAtoms>
  151.7151  135.0905  160.0274 H   0  0  0  0  0  0  0  0  0  0  0  0  # atno 6907 bound_to 6896
  152.3637  133.6325  159.6043 H   0  0  0  0  0  0  0  0  0  0  0  0  # atno 6908 bound_to 6896
  150.7623  133.9298  159.3465 H   0  0  0  0  0  0  0  0  0  0  0  0  # atno 6909 bound_to 6896
  146.1097  140.5618  142.8784 H   0  0  0  0  0  0  0  0  0  0  0  0  # atno 7974 bound_to 7965
  154.5744  140.0685  156.9012 H   0  0  0  0  0  0  0  0  0  0  0  0  # atno 8008 bound_to 7997
  155.2575  140.3356  155.4258 H   0  0  0  0  0  0  0  0  0  0  0  0  # atno 8009 bound_to 7997
  156.2143  140.1772  156.7610 H   0  0  0  0  0  0  0  0  0  0  0  0  # atno 8010 bound_to 7997
  139.6847  144.7115  151.1454 H   0  0  0  0  0  0  0  0  0  0  0  0  # atno 10167 bound_to 10162
  157.5710  130.8907  149.9266 H   0  0  0  0  0  0  0  0  0  0  0  0  # atno 10718 bound_to 10713
  153.4472  135.7014  153.6131 H   0  0  0  0  0  0  0  0  0  0  0  0  # atno 10763 bound_to 10752
  153.4481  135.3764  155.2268 H   0  0  0  0  0  0  0  0  0  0  0  0  # atno 10764 bound_to 10752
  154.8728  135.3990  154.3879 H   0  0  0  0  0  0  0  0  0  0  0  0  # atno 10765 bound_to 10752
  141.1626  133.6887  156.7251 H   0  0  0  0  0  0  0  0  0  0  0  0  # atno 11005 bound_to 11000
  144.7500  140.5168  143.6808 LP  0  0  0  0  0  0  0  0  0  0  0  0  # atno 17320 bound_to 7965
  145.5689  139.1482  143.3299 LP  0  0  0  0  0  0  0  0  0  0  0  0  # atno 17321 bound_to 7965
  140.7664  143.5647  150.9060 LP  0  0  0  0  0  0  0  0  0  0  0  0  # atno 17342 bound_to 10162
  139.9321  143.6480  152.3074 LP  0  0  0  0  0  0  0  0  0  0  0  0  # atno 17343 bound_to 10162
  156.0755  130.3679  150.0686 LP  0  0  0  0  0  0  0  0  0  0  0  0  # atno 17370 bound_to 10713
  156.8839  130.9566  151.3596 LP  0  0  0  0  0  0  0  0  0  0  0  0  # atno 17371 bound_to 10713
  140.2787  134.8334  157.3913 LP  0  0  0  0  0  0  0  0  0  0  0  0  # atno 17394 bound_to 11000
  140.1454  134.4918  155.8000 LP  0  0  0  0  0  0  0  0  0  0  0  0  # atno 17395 bound_to 11000

$$$$
