AV-unprocessed.smi:287|AV-procd|sdf|2179|dock4
  -GOLD-   2262021543D 1   1.00000     0.00000
 Structure written by MMmdl.
 55 58  0  0  0  0  0  0  0  0  1 V2000
  152.1466  142.1537  158.4689 C   0  0  0  0  0  0  0  0  0  0  0  0
  151.5587  141.4440  157.2979 C   0  0  0  0  0  0  0  0  0  0  0  0
  150.3262  141.4476  156.7131 C   0  0  0  0  0  0  0  0  0  0  0  0
  150.3743  140.5428  155.6108 C   0  0  0  0  0  0  0  0  0  0  0  0
  149.2303  140.2272  154.6569 C   0  0  1  0  0  0  0  0  0  0  0  0
  147.9113  140.7645  155.2357 C   0  0  0  0  0  0  0  0  0  0  0  0
  149.3763  140.8581  153.3993 O   0  0  0  0  0  0  0  0  0  0  0  0
  149.1047  138.7157  154.3594 C   0  0  0  0  0  0  0  0  0  0  0  0
  147.7510  138.3226  153.9813 N   0  0  0  0  0  0  0  0  0  0  0  0
  147.3872  137.0237  154.0137 C   0  0  0  0  0  0  0  0  0  0  0  0
  147.8423  136.1922  154.9876 N   0  0  0  0  0  0  0  0  0  0  0  0
  147.4737  134.9071  154.9943 C   0  0  0  0  0  0  0  0  0  0  0  0
  146.6761  134.2624  154.1392 N   0  0  0  0  0  0  0  0  0  0  0  0
  146.2165  135.0971  153.1625 C   0  0  0  0  0  0  0  0  0  0  0  0
  146.5211  136.4794  153.0310 C   0  0  0  0  0  0  0  0  0  0  0  0
  145.8713  136.9999  151.9194 N   0  0  0  0  0  0  0  0  0  0  0  0
  145.2240  135.9788  151.4242 C   0  0  0  0  0  0  0  0  0  0  0  0
  145.3875  134.7906  152.1063 N   0  0  0  0  0  0  0  0  0  0  0  0
  144.8159  133.4354  151.8170 C   0  0  1  0  0  0  0  0  0  0  0  0
  143.9581  133.5445  150.7203 O   0  0  0  0  0  0  0  0  0  0  0  0
  144.6032  133.0512  149.5512 C   0  0  2  0  0  0  0  0  0  0  0  0
  143.5527  132.6710  148.4970 C   0  0  0  0  0  0  0  0  0  0  0  0
  143.0455  133.8361  147.8826 O   0  0  0  0  0  0  0  0  0  0  0  0
  145.3727  131.8580  150.1167 C   0  0  1  0  0  0  0  0  0  0  0  0
  146.3882  131.3947  149.2460 O   0  0  0  0  0  0  0  0  0  0  0  0
  145.9050  132.4006  151.4413 C   0  0  1  0  0  0  0  0  0  0  0  0
  147.2075  132.9533  151.3124 O   0  0  0  0  0  0  0  0  0  0  0  0
  151.6628  140.0649  155.6061 C   0  0  0  0  0  0  0  0  0  0  0  0
  152.4116  139.1116  154.7339 C   0  0  0  0  0  0  0  0  0  0  0  0
  152.3855  140.6019  156.6286 O   0  0  0  0  0  0  0  0  0  0  0  0
  144.2508  133.1758  152.7131 H   0  0  0  0  0  0  0  0  0  0  0  0
  145.3042  133.7927  149.1631 H   0  0  0  0  0  0  0  0  0  0  0  0
  144.6790  131.0402  150.3186 H   0  0  0  0  0  0  0  0  0  0  0  0
  145.9389  131.6183  152.2002 H   0  0  0  0  0  0  0  0  0  0  0  0
  151.3803  142.7041  159.0153 H   0  0  0  0  0  0  0  0  0  0  0  0
  152.9085  142.8640  158.1475 H   0  0  0  0  0  0  0  0  0  0  0  0
  152.6099  141.4472  159.1575 H   0  0  0  0  0  0  0  0  0  0  0  0
  149.4796  142.0323  157.0418 H   0  0  0  0  0  0  0  0  0  0  0  0
  147.6891  140.3080  156.2010 H   0  0  0  0  0  0  0  0  0  0  0  0
  147.0691  140.5573  154.5744 H   0  0  0  0  0  0  0  0  0  0  0  0
  147.9553  141.8440  155.3866 H   0  0  0  0  0  0  0  0  0  0  0  0
  149.2286  140.2150  152.7231 H   0  0  0  0  0  0  0  0  0  0  0  0
  149.7606  138.4688  153.5233 H   0  0  0  0  0  0  0  0  0  0  0  0
  149.4459  138.1232  155.2099 H   0  0  0  0  0  0  0  0  0  0  0  0
  147.1306  139.0701  153.7039 H   0  0  0  0  0  0  0  0  0  0  0  0
  147.8775  134.3096  155.7981 H   0  0  0  0  0  0  0  0  0  0  0  0
  144.6106  136.0717  150.5400 H   0  0  0  0  0  0  0  0  0  0  0  0
  144.0073  132.0613  147.7158 H   0  0  0  0  0  0  0  0  0  0  0  0
  142.7425  132.0869  148.9345 H   0  0  0  0  0  0  0  0  0  0  0  0
  142.2835  134.1219  148.3629 H   0  0  0  0  0  0  0  0  0  0  0  0
  147.2223  131.4918  149.6798 H   0  0  0  0  0  0  0  0  0  0  0  0
  147.7651  132.3104  150.9010 H   0  0  0  0  0  0  0  0  0  0  0  0
  152.2854  139.3683  153.6820 H   0  0  0  0  0  0  0  0  0  0  0  0
  152.0529  138.0926  154.8800 H   0  0  0  0  0  0  0  0  0  0  0  0
  153.4791  139.1278  154.9557 H   0  0  0  0  0  0  0  0  0  0  0  0
  1  2  1  0  0  0  0
  1 35  1  0  0  0  0
  1 36  1  0  0  0  0
  1 37  1  0  0  0  0
  2 30  1  0  0  0  0
  2  3  2  0  0  0  0
  3  4  1  0  0  0  0
  3 38  1  0  0  0  0
  4  5  1  0  0  0  0
  4 28  2  0  0  0  0
  5  6  1  0  0  0  0
  5  7  1  0  0  0  0
  5  8  1  0  0  0  0
  6 39  1  0  0  0  0
  6 40  1  0  0  0  0
  6 41  1  0  0  0  0
  7 42  1  0  0  0  0
  8  9  1  0  0  0  0
  8 43  1  0  0  0  0
  8 44  1  0  0  0  0
  9 10  1  0  0  0  0
  9 45  1  0  0  0  0
 10 15  1  0  0  0  0
 10 11  2  0  0  0  0
 11 12  1  0  0  0  0
 12 13  2  0  0  0  0
 12 46  1  0  0  0  0
 13 14  1  0  0  0  0
 14 18  1  0  0  0  0
 14 15  2  0  0  0  0
 15 16  1  0  0  0  0
 16 17  2  0  0  0  0
 17 18  1  0  0  0  0
 17 47  1  0  0  0  0
 18 19  1  0  0  0  0
 19 31  1  0  0  0  0
 19 26  1  0  0  0  0
 19 20  1  0  0  0  0
 20 21  1  0  0  0  0
 21 32  1  0  0  0  0
 21 22  1  0  0  0  0
 21 24  1  0  0  0  0
 22 23  1  0  0  0  0
 22 48  1  0  0  0  0
 22 49  1  0  0  0  0
 23 50  1  0  0  0  0
 24 33  1  0  0  0  0
 24 25  1  0  0  0  0
 24 26  1  0  0  0  0
 25 51  1  0  0  0  0
 26 34  1  0  0  0  0
 26 27  1  0  0  0  0
 27 52  1  0  0  0  0
 28 29  1  0  0  0  0
 28 30  1  0  0  0  0
 29 53  1  0  0  0  0
 29 54  1  0  0  0  0
 29 55  1  0  0  0  0
M  END
> <s_m_source_file>
AV-unprocessed.smi

> <i_m_source_file_index>
287

> <i_lp_mmshare_version>
43012

> <i_f3d_flags>
0

> <s_epik_input>
W0NIM11jMVtjSF1jKGMobzEpW0NIM10pW0NAQF0oW0NIM10pKFtPSF0pW0NIMl1bTkhdYyhuW2NIXW4yKWMoYzIzKW5bY0hdbjNbQ0BASF00T1tDQEhdKFtDSDJdW09IXSlbQ0BASF0oW09IXSlbQ0BIXTRbT0hd

> <s_epik_cmdline>
J2VwaWtfcHl0aG9uJywgJy1waCcsICc3LjAnLCAnLXRuJywgJzgnLCAnLW1hJywgJzIwMCcsICctbWV0YWxfYmluZGluZycsICctaW1hZScsICc8aW5maWxlLm1hZT4nLCAnLW9tYWUnLCAnPG91dGZpbGUubWFlPic=

> <r_lp_tautomer_probability>
1

> <r_epik_Ionization_Penalty>
0.000992612

> <r_epik_Ionization_Penalty_Charging>
0

> <r_epik_Ionization_Penalty_Neutral>
0.000992612

> <r_epik_State_Penalty>
-0

> <r_epik_Charging_Adjusted_Penalty>
0

> <i_epik_Tot_Q>
0

> <i_epik_Tot_abs_Q>
0

> <r_epik_Metal_State_Penalty>
-0

> <b_epik_Metal_Only>
0

> <s_epik_Chemistry_Notes>
This compound contains an acetal/aminal-like group ( X-CH(R)-Y where X, Y are N, S, or O) that may be acid/base labile, releasing an aldehyde.

> <s_lp_Force_Field>
OPLS_2005

> <r_lp_Energy>
45.8532

> <b_lp_Chiralities_Consistent>
1

> <s_lp_Variant>
AV-unprocessed.smi:287-3

> <Gold.Version>
5.8.1

> <Gold.Id.Protein>
6NUR|6NUR_protein|mol2

> <Gold.PLP.Fitness>
61.8286

> <Gold.PLP.PLP>
-45.1730

> <Gold.PLP.part.hbond>
-10.0146

> <Gold.PLP.part.metal>
0.0000

> <Gold.PLP.part.buried>
1.6191

> <Gold.PLP.part.nonpolar>
-38.5473

> <Gold.PLP.part.repulsive>
0.8483

> <Gold.PLP.ligand.clash>
0.0025

> <Gold.PLP.ligand.torsion>
1.4827

> <Gold.PLP.Chemscore.Hbond>
5.9367

> <Gold.PLP.Chemscore.CHOScore>
0.5488

> <Gold.PLP.Chemscore.Metal>
0.0000

> <Gold.Chemscore.Hbonds>
donor molecule, donor type, donor heavy atom, donor atom, acceptor molecule, acceptor atom, score
      L1  H     7    42       P1  7957  0.74
      L1  H    23    50       P1 10186  1.00
      L1  H    25    51       P1 10747  1.00
      L1  H    27    52       P1 10747  1.00
      P1  H  7989  7998       L1     7  0.12
      P1  H  7997  8008       L1    30  0.86
      P1  H  8011  8017       L1     7  1.00
      L1  C    17    47       P1 10171  0.42

> <Gold.PLP.Chemscore.Internal.Correction>
0.1670

> <Gold.Rescore>
     Score         DG    S(hbond)    S(metal)    S(lipo)     H(rot)  DE(clash)    DE(int)     intcor
     14.69     -21.42       5.00        0.00     108.80       5.27       4.25       2.48       ----

> <Gold.Chemscore.Fitness>
14.6941

> <Gold.Chemscore.DG>
-21.4209

> <Gold.Chemscore.ZeroCoef>
-5.4800

> <Gold.Chemscore.Hbond>
4.9987

> <Gold.Chemscore.Metal>
0.0000

> <Gold.Chemscore.Lipo>
108.7962

> <Gold.Chemscore.Internal_Hbond>
0.0000

> <Gold.Chemscore.DEClash>
4.2513

> <Gold.Chemscore.DEInternal>
2.4755

> <Gold.Chemscore.Rot>
5.2672

> <Gold.Chemscore.Internal.Correction>
   9.000000E+99

> <Gold.Chemscore.Hbonds>
donor molecule, donor type, donor heavy atom, donor atom, acceptor molecule, acceptor atom, score
      L1  H     7    42       P1  7957  0.73
      L1  H    23    50       P1 10186  1.00
      L1  H    25    51       P1 10747  0.96
      L1  H    27    52       P1 10747  0.97
      P1  H  7997  8008       L1    30  0.66
      P1  H  8011  8017       L1     7  0.25

> <Gold.Chemscore.Hbond.Weighted>
-16.6957

> <Gold.Chemscore.Metal.Weighted>
-0.0000

> <Gold.Chemscore.Lipo.Weighted>
-12.7292

> <Gold.Chemscore.Internal_Hbond.Weighted>
0.0000

> <Gold.Chemscore.DEClash.Weighted>
4.2513

> <Gold.Chemscore.DEInternal.Weighted>
2.4755

> <Gold.Chemscore.Rot.Weighted>
13.4839

> <Gold.Chemscore.Internal.Correction.Weighted>
   9.000000E+99

> <Gold.Protein.RotatedTorsions>
[ 6907 6896 6895 6894 ] final  -20.09 input  -60.11 | X-H torsion
[ 7974 7965 7964 7962 ] final   17.40 input  175.53 | X-H torsion
[ 8008 7997 7996 7995 ] final  -52.33 input   59.86 | X-H torsion
[ 10167 10162 10161 10158 ] final  176.25 input  -65.29 | X-H torsion
[ 10718 10713 10712 10709 ] final   -2.44 input   66.30 | X-H torsion
[ 10763 10752 10751 10750 ] final   -8.17 input  -60.55 | X-H torsion
[ 11005 11000 10999 10996 ] final    9.88 input  -57.11 | X-H torsion

> <Gold.Protein.ActiveResidues>
 VAL166  LYS551  ARG553  GLY616  TRP617  ASP618  TYR619  PRO620  LYS621  CYS622 
 ASP623  PHE694  ASN695  SER759  ASP760  ASP761  ALA762  ILE779  LEU786  VAL792 
 PHE793  MET794  SER795  GLU796  ALA797  LYS798  CYS799  TRP800  GLU811  SER814 

> <Gold.Protein.RotatedAtoms>
  151.2534  135.0629  159.9070 H   0  0  0  0  0  0  0  0  0  0  0  0  # atno 6907 bound_to 6896
  152.5377  134.0308  159.8034 H   0  0  0  0  0  0  0  0  0  0  0  0  # atno 6908 bound_to 6896
  151.0520  133.5567  159.2672 H   0  0  0  0  0  0  0  0  0  0  0  0  # atno 6909 bound_to 6896
  146.2219  139.8608  142.8605 H   0  0  0  0  0  0  0  0  0  0  0  0  # atno 7974 bound_to 7965
  154.4104  140.1226  156.4974 H   0  0  0  0  0  0  0  0  0  0  0  0  # atno 8008 bound_to 7997
  155.6929  140.3495  155.4881 H   0  0  0  0  0  0  0  0  0  0  0  0  # atno 8009 bound_to 7997
  155.9453  140.1094  157.1012 H   0  0  0  0  0  0  0  0  0  0  0  0  # atno 8010 bound_to 7997
  139.5207  144.2937  152.0441 H   0  0  0  0  0  0  0  0  0  0  0  0  # atno 10167 bound_to 10162
  156.7908  130.5361  149.5736 H   0  0  0  0  0  0  0  0  0  0  0  0  # atno 10718 bound_to 10713
  153.4367  135.7013  153.6195 H   0  0  0  0  0  0  0  0  0  0  0  0  # atno 10763 bound_to 10752
  153.4587  135.3741  155.2326 H   0  0  0  0  0  0  0  0  0  0  0  0  # atno 10764 bound_to 10752
  154.8727  135.4014  154.3759 H   0  0  0  0  0  0  0  0  0  0  0  0  # atno 10765 bound_to 10752
  140.5208  134.0561  155.7844 H   0  0  0  0  0  0  0  0  0  0  0  0  # atno 11005 bound_to 11000
  145.2707  141.0107  143.3774 LP  0  0  0  0  0  0  0  0  0  0  0  0  # atno 17320 bound_to 7965
  144.9226  139.4393  143.6534 LP  0  0  0  0  0  0  0  0  0  0  0  0  # atno 17321 bound_to 7965
  140.2387  144.4292  150.6269 LP  0  0  0  0  0  0  0  0  0  0  0  0  # atno 17342 bound_to 10162
  140.6305  143.2187  151.6504 LP  0  0  0  0  0  0  0  0  0  0  0  0  # atno 17343 bound_to 10162
  156.1160  130.6075  151.0121 LP  0  0  0  0  0  0  0  0  0  0  0  0  # atno 17370 bound_to 10713
  157.6601  131.0882  150.7857 LP  0  0  0  0  0  0  0  0  0  0  0  0  # atno 17371 bound_to 10713
  141.1335  133.9261  157.2484 LP  0  0  0  0  0  0  0  0  0  0  0  0  # atno 17394 bound_to 11000
  139.9607  135.0155  156.9252 LP  0  0  0  0  0  0  0  0  0  0  0  0  # atno 17395 bound_to 11000

$$$$
