AV-unprocessed.smi:2678|AV-procd|sdf|10367|dock4
  -GOLD-   2272014393D 1   1.00000     0.00000
 Structure written by MMmdl.
 46 47  0  0  0  0  0  0  0  0  1 V2000
  151.6655  139.2513  158.7594 C   0  0  0  0  0  0  0  0  0  0  0  0
  151.5755  140.4178  157.7626 C   0  0  0  0  0  0  0  0  0  0  0  0
  151.6473  141.7758  158.4731 C   0  0  0  0  0  0  0  0  0  0  0  0
  150.3372  140.3391  156.9932 N   0  0  0  0  0  0  0  0  0  0  0  0
  150.2539  140.2031  155.6602 C   0  0  0  0  0  0  0  0  0  0  0  0
  151.2390  140.1256  154.9252 O   0  0  0  0  0  0  0  0  0  0  0  0
  148.8396  140.1423  155.0679 C   0  0  1  0  0  0  0  0  0  0  0  0
  148.5640  141.3585  154.1588 C   0  0  0  0  0  0  0  0  0  0  0  0
  147.1537  141.2923  153.5510 C   0  0  0  0  0  0  0  0  0  0  0  0
  146.9349  139.9754  152.7896 C   0  0  0  0  0  0  0  0  0  0  0  0
  147.2039  138.7555  153.6899 C   0  0  1  0  0  0  0  0  0  0  0  0
  147.0241  137.5265  152.9138 N   0  0  0  0  0  0  0  0  0  0  0  0
  145.9139  136.7786  152.7742 C   0  0  0  0  0  0  0  0  0  0  0  0
  144.8705  137.0784  153.3503 O   0  0  0  0  0  0  0  0  0  0  0  0
  146.0714  135.6968  151.9860 N   0  0  0  0  0  0  0  0  0  0  0  0
  145.1050  134.7341  151.5890 C   0  0  0  0  0  0  0  0  0  0  0  0
  143.9472  134.4098  152.3368 C   0  0  0  0  0  0  0  0  0  0  0  0
  143.0534  133.4506  151.8231 C   0  0  0  0  0  0  0  0  0  0  0  0
  143.3448  132.8565  150.5798 C   0  0  0  0  0  0  0  0  0  0  0  0
  144.4373  133.1657  149.8502 N   0  0  0  0  0  0  0  0  0  0  0  0
  145.2892  134.0871  150.3486 C   0  0  0  0  0  0  0  0  0  0  0  0
  148.6262  138.8297  154.2852 C   0  0  0  0  0  0  0  0  0  0  0  0
  152.5890  139.3014  159.3370 H   0  0  0  0  0  0  0  0  0  0  0  0
  151.6530  138.2889  158.2468 H   0  0  0  0  0  0  0  0  0  0  0  0
  150.8323  139.2648  159.4631 H   0  0  0  0  0  0  0  0  0  0  0  0
  152.4234  140.3569  157.0778 H   0  0  0  0  0  0  0  0  0  0  0  0
  152.5795  141.8775  159.0294 H   0  0  0  0  0  0  0  0  0  0  0  0
  150.8244  141.9010  159.1777 H   0  0  0  0  0  0  0  0  0  0  0  0
  151.6010  142.5970  157.7570 H   0  0  0  0  0  0  0  0  0  0  0  0
  149.4750  140.3935  157.5159 H   0  0  0  0  0  0  0  0  0  0  0  0
  148.1231  140.1654  155.8911 H   0  0  0  0  0  0  0  0  0  0  0  0
  148.6728  142.2840  154.7260 H   0  0  0  0  0  0  0  0  0  0  0  0
  149.2989  141.4025  153.3533 H   0  0  0  0  0  0  0  0  0  0  0  0
  146.4095  141.3846  154.3430 H   0  0  0  0  0  0  0  0  0  0  0  0
  146.9983  142.1382  152.8809 H   0  0  0  0  0  0  0  0  0  0  0  0
  145.9149  139.9402  152.4052 H   0  0  0  0  0  0  0  0  0  0  0  0
  147.5940  139.9475  151.9205 H   0  0  0  0  0  0  0  0  0  0  0  0
  146.4739  138.7784  154.5010 H   0  0  0  0  0  0  0  0  0  0  0  0
  147.8456  137.1964  152.4278 H   0  0  0  0  0  0  0  0  0  0  0  0
  147.0102  135.5271  151.6558 H   0  0  0  0  0  0  0  0  0  0  0  0
  143.7189  134.8834  153.2789 H   0  0  0  0  0  0  0  0  0  0  0  0
  142.1615  133.1800  152.3689 H   0  0  0  0  0  0  0  0  0  0  0  0
  142.6796  132.1182  150.1570 H   0  0  0  0  0  0  0  0  0  0  0  0
  146.1501  134.3126  149.7359 H   0  0  0  0  0  0  0  0  0  0  0  0
  149.3601  138.7507  153.4810 H   0  0  0  0  0  0  0  0  0  0  0  0
  148.8026  137.9786  154.9442 H   0  0  0  0  0  0  0  0  0  0  0  0
  1  2  1  0  0  0  0
  1 23  1  0  0  0  0
  1 24  1  0  0  0  0
  1 25  1  0  0  0  0
  2  3  1  0  0  0  0
  2  4  1  0  0  0  0
  2 26  1  0  0  0  0
  3 27  1  0  0  0  0
  3 28  1  0  0  0  0
  3 29  1  0  0  0  0
  4  5  1  0  0  0  0
  4 30  1  0  0  0  0
  5  6  2  0  0  0  0
  5  7  1  0  0  0  0
  7 22  1  0  0  0  0
  7  8  1  0  0  0  0
  7 31  1  0  0  0  0
  8  9  1  0  0  0  0
  8 32  1  0  0  0  0
  8 33  1  0  0  0  0
  9 10  1  0  0  0  0
  9 34  1  0  0  0  0
  9 35  1  0  0  0  0
 10 11  1  0  0  0  0
 10 36  1  0  0  0  0
 10 37  1  0  0  0  0
 11 12  1  0  0  0  0
 11 22  1  0  0  0  0
 11 38  1  0  0  0  0
 12 13  1  0  0  0  0
 12 39  1  0  0  0  0
 13 14  2  0  0  0  0
 13 15  1  0  0  0  0
 15 16  1  0  0  0  0
 15 40  1  0  0  0  0
 16 21  1  0  0  0  0
 16 17  2  0  0  0  0
 17 18  1  0  0  0  0
 17 41  1  0  0  0  0
 18 19  2  0  0  0  0
 18 42  1  0  0  0  0
 19 20  1  0  0  0  0
 19 43  1  0  0  0  0
 20 21  2  0  0  0  0
 21 44  1  0  0  0  0
 22 45  1  0  0  0  0
 22 46  1  0  0  0  0
M  END
> <s_m_source_file>
AV-unprocessed.smi

> <i_m_source_file_index>
2678

> <i_lp_mmshare_version>
43012

> <i_f3d_flags>
0

> <s_epik_input>
W0NIM11bQ0hdKFtDSDNdKVtOSF1DKD1PKVtDQEBIXTFbQ0gyXVtDSDJdW0NIMl1bQ0BIXShbQ0gyXTEpW05IXUMoPU8pW05IXWMyW2NIXVtjSF1bY0hdbltjSF0y

> <s_epik_cmdline>
J2VwaWtfcHl0aG9uJywgJy1waCcsICc3LjAnLCAnLXRuJywgJzgnLCAnLW1hJywgJzIwMCcsICctbWV0YWxfYmluZGluZycsICctaW1hZScsICc8aW5maWxlLm1hZT4nLCAnLW9tYWUnLCAnPG91dGZpbGUubWFlPic=

> <r_epik_Ionization_Penalty>
0.00482944

> <r_epik_Ionization_Penalty_Charging>
0

> <r_epik_Ionization_Penalty_Neutral>
0.00482944

> <r_epik_State_Penalty>
0.00347168

> <r_epik_Charging_Adjusted_Penalty>
0.00347168

> <i_epik_Tot_Q>
0

> <i_epik_Tot_abs_Q>
0

> <r_epik_Metal_State_Penalty>
-0

> <b_epik_Metal_Only>
0

> <s_lp_Force_Field>
OPLS_2005

> <r_lp_Energy>
23.8457

> <b_lp_Chiralities_Consistent>
1

> <s_lp_Variant>
AV-unprocessed.smi:2678-2

> <Gold.Version>
5.8.1

> <Gold.Id.Protein>
6NUR|6NUR_protein|mol2

> <Gold.PLP.Fitness>
45.9836

> <Gold.PLP.PLP>
-33.5222

> <Gold.PLP.part.hbond>
-3.0000

> <Gold.PLP.part.metal>
0.0000

> <Gold.PLP.part.buried>
-1.4579

> <Gold.PLP.part.nonpolar>
-29.8215

> <Gold.PLP.part.repulsive>
0.4770

> <Gold.PLP.ligand.clash>
0.0000

> <Gold.PLP.ligand.torsion>
0.5548

> <Gold.PLP.Chemscore.Hbond>
2.8640

> <Gold.PLP.Chemscore.CHOScore>
1.6529

> <Gold.PLP.Chemscore.Metal>
0.0000

> <Gold.Chemscore.Hbonds>
donor molecule, donor type, donor heavy atom, donor atom, acceptor molecule, acceptor atom, score
      L1  H    12    39       P1  7948  1.00
      L1  H    15    40       P1  7948  0.84
      P1  H  7989  7998       L1     6  1.00
      L1  C    19    43       P1 10186  0.01
      L1  C    19    43       P1 10952  0.75
      L1  C    21    44       P1  7921  0.92

> <Gold.PLP.Chemscore.Internal.Correction>
0.0202

> <Gold.Rescore>
     Score         DG    S(hbond)    S(metal)    S(lipo)     H(rot)  DE(clash)    DE(int)     intcor
     19.48     -21.14       2.86        0.00      84.30       1.46       0.09       1.57       ----

> <Gold.Chemscore.Fitness>
19.4793

> <Gold.Chemscore.DG>
-21.1429

> <Gold.Chemscore.ZeroCoef>
-5.4800

> <Gold.Chemscore.Hbond>
2.8557

> <Gold.Chemscore.Metal>
0.0000

> <Gold.Chemscore.Lipo>
84.3001

> <Gold.Chemscore.Internal_Hbond>
0.0000

> <Gold.Chemscore.DEClash>
0.0936

> <Gold.Chemscore.DEInternal>
1.5700

> <Gold.Chemscore.Rot>
1.4603

> <Gold.Chemscore.Internal.Correction>
   9.000000E+99

> <Gold.Chemscore.Hbonds>
donor molecule, donor type, donor heavy atom, donor atom, acceptor molecule, acceptor atom, score
      L1  H    12    39       P1  7948  0.97
      L1  H    15    40       P1  7948  0.78
      P1  H  7989  7998       L1     6  0.99

> <Gold.Chemscore.Hbond.Weighted>
-9.5381

> <Gold.Chemscore.Metal.Weighted>
-0.0000

> <Gold.Chemscore.Lipo.Weighted>
-9.8631

> <Gold.Chemscore.Internal_Hbond.Weighted>
0.0000

> <Gold.Chemscore.DEClash.Weighted>
0.0936

> <Gold.Chemscore.DEInternal.Weighted>
1.5700

> <Gold.Chemscore.Rot.Weighted>
3.7383

> <Gold.Chemscore.Internal.Correction.Weighted>
   9.000000E+99

> <Gold.Protein.RotatedTorsions>
[ 6907 6896 6895 6894 ] final -154.49 input  -60.11 | X-H torsion
[ 7974 7965 7964 7962 ] final -124.91 input  175.53 | X-H torsion
[ 8008 7997 7996 7995 ] final  -59.85 input   59.86 | X-H torsion
[ 10167 10162 10161 10158 ] final  -24.39 input  -65.29 | X-H torsion
[ 10718 10713 10712 10709 ] final  117.13 input   66.30 | X-H torsion
[ 10763 10752 10751 10750 ] final -145.41 input  -60.55 | X-H torsion
[ 11005 11000 10999 10996 ] final  133.11 input  -57.11 | X-H torsion

> <Gold.Protein.ActiveResidues>
 VAL166  LYS551  ARG553  GLY616  TRP617  ASP618  TYR619  PRO620  LYS621  CYS622 
 ASP623  PHE694  ASN695  SER759  ASP760  ASP761  ALA762  ILE779  LEU786  VAL792 
 PHE793  MET794  SER795  GLU796  ALA797  LYS798  CYS799  TRP800  GLU811  SER814 

> <Gold.Protein.RotatedAtoms>
  151.2582  133.4315  159.2614 H   0  0  0  0  0  0  0  0  0  0  0  0  # atno 6907 bound_to 6896
  151.0555  134.9702  159.8243 H   0  0  0  0  0  0  0  0  0  0  0  0  # atno 6908 bound_to 6896
  152.5390  134.2535  159.8960 H   0  0  0  0  0  0  0  0  0  0  0  0  # atno 6909 bound_to 6896
  145.0031  140.7838  143.4484 H   0  0  0  0  0  0  0  0  0  0  0  0  # atno 7974 bound_to 7965
  154.4371  140.1052  156.6181 H   0  0  0  0  0  0  0  0  0  0  0  0  # atno 8008 bound_to 7997
  155.5737  140.3489  155.4503 H   0  0  0  0  0  0  0  0  0  0  0  0  # atno 8009 bound_to 7997
  156.0370  140.1273  157.0186 H   0  0  0  0  0  0  0  0  0  0  0  0  # atno 8010 bound_to 7997
  140.7288  143.4358  151.0732 H   0  0  0  0  0  0  0  0  0  0  0  0  # atno 10167 bound_to 10162
  157.6116  131.1033  150.7571 H   0  0  0  0  0  0  0  0  0  0  0  0  # atno 10718 bound_to 10713
  154.8385  135.3414  154.6499 H   0  0  0  0  0  0  0  0  0  0  0  0  # atno 10763 bound_to 10752
  153.7112  135.6964  153.5041 H   0  0  0  0  0  0  0  0  0  0  0  0  # atno 10764 bound_to 10752
  153.2450  135.4372  155.0692 H   0  0  0  0  0  0  0  0  0  0  0  0  # atno 10765 bound_to 10752
  139.9831  134.9541  156.9678 H   0  0  0  0  0  0  0  0  0  0  0  0  # atno 11005 bound_to 11000
  145.2126  139.2197  143.5135 LP  0  0  0  0  0  0  0  0  0  0  0  0  # atno 17320 bound_to 7965
  146.3456  140.1967  142.8589 LP  0  0  0  0  0  0  0  0  0  0  0  0  # atno 17321 bound_to 7965
  139.8019  143.8071  152.3164 LP  0  0  0  0  0  0  0  0  0  0  0  0  # atno 17342 bound_to 10162
  139.8091  144.7343  150.9721 LP  0  0  0  0  0  0  0  0  0  0  0  0  # atno 17343 bound_to 10162
  156.7947  130.4901  149.5379 LP  0  0  0  0  0  0  0  0  0  0  0  0  # atno 17370 bound_to 10713
  156.1222  130.6118  151.0210 LP  0  0  0  0  0  0  0  0  0  0  0  0  # atno 17371 bound_to 10713
  140.5055  134.1054  155.7259 LP  0  0  0  0  0  0  0  0  0  0  0  0  # atno 17394 bound_to 11000
  141.1501  133.8985  157.2120 LP  0  0  0  0  0  0  0  0  0  0  0  0  # atno 17395 bound_to 11000

$$$$
