AV-unprocessed.smi:224|AV-procd|sdf|1722|dock1
  -GOLD-   2262020203D 1   1.00000     0.00000
 Structure written by MMmdl.
 56 59  0  0  0  0  0  0  0  0  2 V2000
  144.2958  135.4501  150.5562 C   0  0  0  0  0  0  0  0  0  0  0  0
  145.6778  135.5496  151.2193 C   0  0  1  0  0  0  0  0  0  0  0  0
  146.1814  136.8473  150.9815 O   0  0  0  0  0  0  0  0  0  0  0  0
  145.6331  135.3195  152.7455 C   0  0  0  0  0  0  0  0  0  0  0  0
  146.9841  135.1806  153.3637 N   0  3  1  0  0  0  0  0  0  0  0  0
  147.0568  135.8791  154.6795 C   0  0  0  0  0  0  0  0  0  0  0  0
  148.4546  135.7915  155.3075 C   0  0  0  0  0  0  0  0  0  0  0  0
  148.8706  134.4013  155.4244 N   0  0  0  0  0  0  0  0  0  0  0  0
  148.5080  133.7483  156.5617 C   0  0  0  0  0  0  0  0  0  0  0  0
  148.2076  132.4227  156.5124 N   0  0  0  0  0  0  0  0  0  0  0  0
  147.8363  131.7692  157.6169 C   0  0  0  0  0  0  0  0  0  0  0  0
  147.7049  132.2384  158.8579 N   0  0  0  0  0  0  0  0  0  0  0  0
  148.0210  133.5630  158.9225 C   0  0  0  0  0  0  0  0  0  0  0  0
  148.4261  134.3866  157.8333 C   0  0  0  0  0  0  0  0  0  0  0  0
  148.6681  135.6781  158.2870 N   0  0  0  0  0  0  0  0  0  0  0  0
  148.4090  135.6241  159.5648 C   0  0  0  0  0  0  0  0  0  0  0  0
  148.0229  134.3889  160.0335 N   0  0  0  0  0  0  0  0  0  0  0  0
  147.6800  134.0422  161.4050 C   0  0  0  0  0  0  0  0  0  0  0  0
  146.8127  135.1076  162.1175 C   0  0  2  0  0  0  0  0  0  0  0  0
  146.0391  134.4782  163.1245 O   0  0  0  0  0  0  0  0  0  0  0  0
  145.8661  135.8313  161.1683 C   0  0  0  0  0  0  0  0  0  0  0  0
  145.6973  137.1904  161.8337 C   0  0  0  0  0  0  0  0  0  0  0  0
  147.0012  137.4744  162.3112 O   0  0  0  0  0  0  0  0  0  0  0  0
  147.6052  136.2646  162.7611 C   0  0  0  0  0  0  0  0  0  0  0  0
  148.8526  133.6900  154.1498 C   0  0  0  0  0  0  0  0  0  0  0  0
  147.4749  133.7660  153.4463 C   0  0  2  0  0  0  0  0  0  0  0  0
  147.6040  133.0883  152.0668 C   0  0  0  0  0  0  0  0  0  0  0  0
  143.8731  134.4516  150.6694 H   0  0  0  0  0  0  0  0  0  0  0  0
  144.3580  135.6572  149.4873 H   0  0  0  0  0  0  0  0  0  0  0  0
  143.5923  136.1605  150.9921 H   0  0  0  0  0  0  0  0  0  0  0  0
  146.3641  134.8560  150.7356 H   0  0  0  0  0  0  0  0  0  0  0  0
  147.0470  136.9127  151.3560 H   0  0  0  0  0  0  0  0  0  0  0  0
  145.0976  136.1324  153.2395 H   0  0  0  0  0  0  0  0  0  0  0  0
  145.0339  134.4274  152.9096 H   0  0  0  0  0  0  0  0  0  0  0  0
  146.8027  136.9319  154.5719 H   0  0  0  0  0  0  0  0  0  0  0  0
  146.3214  135.4457  155.3596 H   0  0  0  0  0  0  0  0  0  0  0  0
  149.1771  136.3173  154.6821 H   0  0  0  0  0  0  0  0  0  0  0  0
  148.4548  136.3037  156.2684 H   0  0  0  0  0  0  0  0  0  0  0  0
  147.6128  130.7204  157.4880 H   0  0  0  0  0  0  0  0  0  0  0  0
  148.4968  136.4904  160.2042 H   0  0  0  0  0  0  0  0  0  0  0  0
  147.1611  133.0827  161.3917 H   0  0  0  0  0  0  0  0  0  0  0  0
  148.6052  133.8793  161.9593 H   0  0  0  0  0  0  0  0  0  0  0  0
  145.6235  133.7159  162.7513 H   0  0  0  0  0  0  0  0  0  0  0  0
  146.3386  135.9693  160.1947 H   0  0  0  0  0  0  0  0  0  0  0  0
  144.9210  135.3107  161.0077 H   0  0  0  0  0  0  0  0  0  0  0  0
  145.3448  137.9586  161.1454 H   0  0  0  0  0  0  0  0  0  0  0  0
  145.0032  137.1328  162.6736 H   0  0  0  0  0  0  0  0  0  0  0  0
  147.5956  136.2184  163.8512 H   0  0  0  0  0  0  0  0  0  0  0  0
  148.6474  136.2773  162.4438 H   0  0  0  0  0  0  0  0  0  0  0  0
  149.6121  134.1428  153.5111 H   0  0  0  0  0  0  0  0  0  0  0  0
  149.1624  132.6528  154.2864 H   0  0  0  0  0  0  0  0  0  0  0  0
  146.7523  133.2011  154.0365 H   0  0  0  0  0  0  0  0  0  0  0  0
  148.1115  132.1272  152.1560 H   0  0  0  0  0  0  0  0  0  0  0  0
  148.1835  133.7004  151.3750 H   0  0  0  0  0  0  0  0  0  0  0  0
  146.6399  132.8740  151.6083 H   0  0  0  0  0  0  0  0  0  0  0  0
  147.6288  135.6574  152.7496 H   0  0  0  0  0  0  0  0  0  0  0  0
  1  2  1  0  0  0  0
  1 28  1  0  0  0  0
  1 29  1  0  0  0  0
  1 30  1  0  0  0  0
  2  3  1  0  0  0  0
  2  4  1  0  0  0  0
  2 31  1  0  0  0  0
  3 32  1  0  0  0  0
  4  5  1  0  0  0  0
  4 33  1  0  0  0  0
  4 34  1  0  0  0  0
  5 26  1  0  0  0  0
  5  6  1  0  0  0  0
  5 56  1  0  0  0  0
  6  7  1  0  0  0  0
  6 35  1  0  0  0  0
  6 36  1  0  0  0  0
  7  8  1  0  0  0  0
  7 37  1  0  0  0  0
  7 38  1  0  0  0  0
  8  9  1  0  0  0  0
  8 25  1  0  0  0  0
  9 14  1  0  0  0  0
  9 10  2  0  0  0  0
 10 11  1  0  0  0  0
 11 12  2  0  0  0  0
 11 39  1  0  0  0  0
 12 13  1  0  0  0  0
 13 17  1  0  0  0  0
 13 14  2  0  0  0  0
 14 15  1  0  0  0  0
 15 16  2  0  0  0  0
 16 17  1  0  0  0  0
 16 40  1  0  0  0  0
 17 18  1  0  0  0  0
 18 19  1  0  0  0  0
 18 41  1  0  0  0  0
 18 42  1  0  0  0  0
 19 24  1  0  0  0  0
 19 20  1  0  0  0  0
 19 21  1  0  0  0  0
 20 43  1  0  0  0  0
 21 22  1  0  0  0  0
 21 44  1  0  0  0  0
 21 45  1  0  0  0  0
 22 23  1  0  0  0  0
 22 46  1  0  0  0  0
 22 47  1  0  0  0  0
 23 24  1  0  0  0  0
 24 48  1  0  0  0  0
 24 49  1  0  0  0  0
 25 26  1  0  0  0  0
 25 50  1  0  0  0  0
 25 51  1  0  0  0  0
 26 27  1  0  0  0  0
 26 52  1  0  0  0  0
 27 53  1  0  0  0  0
 27 54  1  0  0  0  0
 27 55  1  0  0  0  0
M  CHG  1   5   1
M  END
> <s_m_source_file>
AV-unprocessed.smi

> <i_m_source_file_index>
224

> <i_lp_mmshare_version>
43012

> <i_f3d_flags>
0

> <s_epik_input>
W0NIM11bQ0BIXShbT0hdKVtDSDJdTjFbQ0gyXVtDSDJdTihbQ0gyXVtDQEhdMVtDSDNdKWMobltjSF1uMiljKGMyMyluW2NIXW4zW0NIMl1bQ0BAXTQoW09IXSlbQ0gyXVtDSDJdT1tDSDJdNA==

> <s_epik_cmdline>
J2VwaWtfcHl0aG9uJywgJy1waCcsICc3LjAnLCAnLXRuJywgJzgnLCAnLW1hJywgJzIwMCcsICctbWV0YWxfYmluZGluZycsICctaW1hZScsICc8aW5maWxlLm1hZT4nLCAnLW9tYWUnLCAnPG91dGZpbGUubWFlPic=

> <r_lp_tautomer_probability>
1

> <r_epik_Ionization_Penalty>
0.00516958

> <r_epik_Ionization_Penalty_Charging>
0.00509693

> <r_epik_Ionization_Penalty_Neutral>
7.26542e-05

> <r_epik_State_Penalty>
-0

> <r_epik_Charging_Adjusted_Penalty>
0.00509693

> <i_epik_Tot_Q>
1

> <i_epik_Tot_abs_Q>
1

> <r_epik_Metal_State_Penalty>
-0

> <b_epik_Metal_Only>
0

> <s_lp_Force_Field>
OPLS_2005

> <r_lp_Energy>
50.435

> <b_lp_Chiralities_Consistent>
1

> <s_lp_Variant>
AV-unprocessed.smi:224-16

> <Gold.Version>
5.8.1

> <Gold.Id.Protein>
6NUR|6NUR_protein|mol2

> <Gold.PLP.Fitness>
47.2583

> <Gold.PLP.PLP>
-39.3750

> <Gold.PLP.part.hbond>
-5.6107

> <Gold.PLP.part.metal>
0.0000

> <Gold.PLP.part.buried>
-5.1180

> <Gold.PLP.part.nonpolar>
-28.2093

> <Gold.PLP.part.repulsive>
0.0600

> <Gold.PLP.ligand.clash>
0.0000

> <Gold.PLP.ligand.torsion>
1.6028

> <Gold.PLP.Chemscore.Hbond>
3.4937

> <Gold.PLP.Chemscore.CHOScore>
0.0000

> <Gold.PLP.Chemscore.Metal>
0.0000

> <Gold.Chemscore.Hbonds>
donor molecule, donor type, donor heavy atom, donor atom, acceptor molecule, acceptor atom, score
      L1  H     3    32       P1  7948  0.96
      L1  H     5    56       P1  7948  2.00
      P1  H  6931  6943       L1    23  0.17
      P1  H  6934  6947       L1    23  0.31

> <Gold.PLP.Chemscore.Internal.Correction>
0.6077

> <Gold.Rescore>
     Score         DG    S(hbond)    S(metal)    S(lipo)     H(rot)  DE(clash)    DE(int)     intcor
     10.66     -13.77       2.61        0.00      69.83       3.36       0.54       2.57       ----

> <Gold.Chemscore.Fitness>
10.6644

> <Gold.Chemscore.DG>
-13.7742

> <Gold.Chemscore.ZeroCoef>
-5.4800

> <Gold.Chemscore.Hbond>
2.6132

> <Gold.Chemscore.Metal>
0.0000

> <Gold.Chemscore.Lipo>
69.8346

> <Gold.Chemscore.Internal_Hbond>
0.0000

> <Gold.Chemscore.DEClash>
0.5372

> <Gold.Chemscore.DEInternal>
2.5726

> <Gold.Chemscore.Rot>
3.3611

> <Gold.Chemscore.Internal.Correction>
   9.000000E+99

> <Gold.Chemscore.Hbonds>
donor molecule, donor type, donor heavy atom, donor atom, acceptor molecule, acceptor atom, score
      L1  H     3    32       P1  7948  0.88
      L1  H     5    56       P1  7948  1.00
      P1  H  6931  6943       L1    23  0.01
      P1  H  6934  6947       L1    23  0.02

> <Gold.Chemscore.Hbond.Weighted>
-8.7281

> <Gold.Chemscore.Metal.Weighted>
-0.0000

> <Gold.Chemscore.Lipo.Weighted>
-8.1706

> <Gold.Chemscore.Internal_Hbond.Weighted>
0.0000

> <Gold.Chemscore.DEClash.Weighted>
0.5372

> <Gold.Chemscore.DEInternal.Weighted>
2.5726

> <Gold.Chemscore.Rot.Weighted>
8.6045

> <Gold.Chemscore.Internal.Correction.Weighted>
   9.000000E+99

> <Gold.Protein.RotatedTorsions>
[ 6907 6896 6895 6894 ] final   66.97 input  -60.11 | X-H torsion
[ 7974 7965 7964 7962 ] final  -81.59 input  175.53 | X-H torsion
[ 8008 7997 7996 7995 ] final   36.27 input   59.86 | X-H torsion
[ 10167 10162 10161 10158 ] final  -79.78 input  -65.29 | X-H torsion
[ 10718 10713 10712 10709 ] final  -72.73 input   66.30 | X-H torsion
[ 10763 10752 10751 10750 ] final  -54.63 input  -60.55 | X-H torsion
[ 11005 11000 10999 10996 ] final  155.31 input  -57.11 | X-H torsion

> <Gold.Protein.ActiveResidues>
 VAL166  LYS551  ARG553  GLY616  TRP617  ASP618  TYR619  PRO620  LYS621  CYS622 
 ASP623  PHE694  ASN695  SER759  ASP760  ASP761  ALA762  ILE779  LEU786  VAL792 
 PHE793  MET794  SER795  GLU796  ALA797  LYS798  CYS799  TRP800  GLU811  SER814 

> <Gold.Protein.RotatedAtoms>
  152.4519  134.5375  159.9828 H   0  0  0  0  0  0  0  0  0  0  0  0  # atno 6907 bound_to 6896
  151.5445  133.3421  159.2949 H   0  0  0  0  0  0  0  0  0  0  0  0  # atno 6908 bound_to 6896
  150.8451  134.7788  159.7027 H   0  0  0  0  0  0  0  0  0  0  0  0  # atno 6909 bound_to 6896
  145.5446  140.9505  143.1532 H   0  0  0  0  0  0  0  0  0  0  0  0  # atno 7974 bound_to 7965
  155.1847  140.3303  155.4369 H   0  0  0  0  0  0  0  0  0  0  0  0  # atno 8008 bound_to 7997
  156.2464  140.1921  156.6893 H   0  0  0  0  0  0  0  0  0  0  0  0  # atno 8009 bound_to 7997
  154.6247  140.0590  156.9645 H   0  0  0  0  0  0  0  0  0  0  0  0  # atno 8010 bound_to 7997
  140.4562  143.2467  151.8416 H   0  0  0  0  0  0  0  0  0  0  0  0  # atno 10167 bound_to 10162
  156.0308  130.4378  150.2637 H   0  0  0  0  0  0  0  0  0  0  0  0  # atno 10718 bound_to 10713
  154.1779  135.6448  153.5026 H   0  0  0  0  0  0  0  0  0  0  0  0  # atno 10763 bound_to 10752
  153.0067  135.5399  154.6545 H   0  0  0  0  0  0  0  0  0  0  0  0  # atno 10764 bound_to 10752
  154.5901  135.2933  155.0616 H   0  0  0  0  0  0  0  0  0  0  0  0  # atno 10765 bound_to 10752
  140.1570  134.8636  157.2526 H   0  0  0  0  0  0  0  0  0  0  0  0  # atno 11005 bound_to 11000
  144.7559  139.7075  143.7254 LP  0  0  0  0  0  0  0  0  0  0  0  0  # atno 17320 bound_to 7965
  146.1958  139.5223  142.9775 LP  0  0  0  0  0  0  0  0  0  0  0  0  # atno 17321 bound_to 7965
  139.4801  144.5062  151.8995 LP  0  0  0  0  0  0  0  0  0  0  0  0  # atno 17342 bound_to 10162
  140.4148  144.2321  150.5888 LP  0  0  0  0  0  0  0  0  0  0  0  0  # atno 17343 bound_to 10162
  157.0739  131.0124  151.3180 LP  0  0  0  0  0  0  0  0  0  0  0  0  # atno 17370 bound_to 10713
  157.4979  130.7861  149.7574 LP  0  0  0  0  0  0  0  0  0  0  0  0  # atno 17371 bound_to 10713
  140.2536  134.3654  155.7433 LP  0  0  0  0  0  0  0  0  0  0  0  0  # atno 17394 bound_to 11000
  141.2205  133.7330  156.8973 LP  0  0  0  0  0  0  0  0  0  0  0  0  # atno 17395 bound_to 11000

$$$$
