AV-unprocessed.smi:2564|AV-procd|sdf|10067|dock4
  -GOLD-   2272014103D 1   1.00000     0.00000
 Structure written by MMmdl.
 28 29  0  0  0  0  0  0  0  0  1 V2000
  152.0706  144.4972  159.0196 C   0  0  0  0  0  0  0  0  0  0  0  0
  151.9810  143.6457  160.1357 C   0  0  0  0  0  0  0  0  0  0  0  0
  151.3539  142.4489  160.0898 N   0  0  0  0  0  0  0  0  0  0  0  0
  150.7891  142.0322  158.9508 N   0  0  0  0  0  0  0  0  0  0  0  0
  150.8409  142.7998  157.8325 C   0  0  0  0  0  0  0  0  0  0  0  0
  150.2423  142.3374  156.6517 N   0  0  0  0  0  0  0  0  0  0  0  0
  150.4588  140.9764  156.1739 C   0  0  0  0  0  0  0  0  0  0  0  0
  149.6550  140.6640  154.9002 C   0  0  1  0  0  0  0  0  0  0  0  0
  149.9414  139.2379  154.3888 C   0  0  0  0  0  0  0  0  0  0  0  0
  149.1078  138.9325  153.2269 N   0  0  0  0  0  0  0  0  0  0  0  0
  147.6905  139.1285  153.5238 C   0  0  0  0  0  0  0  0  0  0  0  0
  147.4512  140.5477  154.0672 C   0  0  0  0  0  0  0  0  0  0  0  0
  148.2673  140.7581  155.2142 O   0  0  0  0  0  0  0  0  0  0  0  0
  151.4771  144.0572  157.8238 C   0  0  0  0  0  0  0  0  0  0  0  0
  152.5755  145.4498  159.0795 H   0  0  0  0  0  0  0  0  0  0  0  0
  152.4191  143.9281  161.0816 H   0  0  0  0  0  0  0  0  0  0  0  0
  149.8548  143.0097  156.0057 H   0  0  0  0  0  0  0  0  0  0  0  0
  151.5234  140.8166  155.9996 H   0  0  0  0  0  0  0  0  0  0  0  0
  150.1755  140.2845  156.9674 H   0  0  0  0  0  0  0  0  0  0  0  0
  149.9077  141.3846  154.1200 H   0  0  0  0  0  0  0  0  0  0  0  0
  150.9947  139.1394  154.1256 H   0  0  0  0  0  0  0  0  0  0  0  0
  149.7484  138.5154  155.1829 H   0  0  0  0  0  0  0  0  0  0  0  0
  149.2652  137.9722  152.9384 H   0  0  0  0  0  0  0  0  0  0  0  0
  147.0931  138.9637  152.6270 H   0  0  0  0  0  0  0  0  0  0  0  0
  147.3608  138.3948  154.2603 H   0  0  0  0  0  0  0  0  0  0  0  0
  147.6638  141.3010  153.3065 H   0  0  0  0  0  0  0  0  0  0  0  0
  146.4057  140.6683  154.3512 H   0  0  0  0  0  0  0  0  0  0  0  0
  151.5124  144.6646  156.9314 H   0  0  0  0  0  0  0  0  0  0  0  0
  1 14  1  0  0  0  0
  1  2  2  0  0  0  0
  1 15  1  0  0  0  0
  2  3  1  0  0  0  0
  2 16  1  0  0  0  0
  3  4  2  0  0  0  0
  4  5  1  0  0  0  0
  5  6  1  0  0  0  0
  5 14  2  0  0  0  0
  6  7  1  0  0  0  0
  6 17  1  0  0  0  0
  7  8  1  0  0  0  0
  7 18  1  0  0  0  0
  7 19  1  0  0  0  0
  8 13  1  0  0  0  0
  8  9  1  0  0  0  0
  8 20  1  0  0  0  0
  9 10  1  0  0  0  0
  9 21  1  0  0  0  0
  9 22  1  0  0  0  0
 10 11  1  0  0  0  0
 10 23  1  0  0  0  0
 11 12  1  0  0  0  0
 11 24  1  0  0  0  0
 11 25  1  0  0  0  0
 12 13  1  0  0  0  0
 12 26  1  0  0  0  0
 12 27  1  0  0  0  0
 14 28  1  0  0  0  0
M  END
> <s_m_source_file>
AV-unprocessed.smi

> <i_m_source_file_index>
2564

> <i_lp_mmshare_version>
43012

> <i_f3d_flags>
0

> <s_epik_input>
W2NIXTFbY0hdW2NIXW5uYzFbTkhdW0NIMl1bQ0BASF0yW0NIMl1bTkhdW0NIMl1bQ0gyXU8y

> <s_epik_cmdline>
J2VwaWtfcHl0aG9uJywgJy1waCcsICc3LjAnLCAnLXRuJywgJzgnLCAnLW1hJywgJzIwMCcsICctbWV0YWxfYmluZGluZycsICctaW1hZScsICc8aW5maWxlLm1hZT4nLCAnLW9tYWUnLCAnPG91dGZpbGUubWFlPic=

> <r_lp_tautomer_probability>
0.999978

> <r_epik_Ionization_Penalty>
2.48194

> <r_epik_Ionization_Penalty_Charging>
0

> <r_epik_Ionization_Penalty_Neutral>
2.48194

> <r_epik_State_Penalty>
2.63388

> <r_epik_Charging_Adjusted_Penalty>
2.63388

> <i_epik_Tot_Q>
0

> <i_epik_Tot_abs_Q>
0

> <r_epik_Metal_State_Penalty>
2.61931

> <b_epik_Metal_Only>
0

> <s_lp_Force_Field>
OPLS_2005

> <r_lp_Energy>
19.9467

> <b_lp_Chiralities_Consistent>
1

> <s_lp_Variant>
AV-unprocessed.smi:2564-6

> <Gold.Version>
5.8.1

> <Gold.Id.Protein>
6NUR|6NUR_protein|mol2

> <Gold.PLP.Fitness>
37.3420

> <Gold.PLP.PLP>
-32.2209

> <Gold.PLP.part.hbond>
-2.9253

> <Gold.PLP.part.metal>
0.0000

> <Gold.PLP.part.buried>
-3.2139

> <Gold.PLP.part.nonpolar>
-26.3102

> <Gold.PLP.part.repulsive>
0.1801

> <Gold.PLP.ligand.clash>
0.0000

> <Gold.PLP.ligand.torsion>
0.4057

> <Gold.PLP.Chemscore.Hbond>
1.9760

> <Gold.PLP.Chemscore.CHOScore>
0.0000

> <Gold.PLP.Chemscore.Metal>
0.0000

> <Gold.Chemscore.Hbonds>
donor molecule, donor type, donor heavy atom, donor atom, acceptor molecule, acceptor atom, score
      L1  H     6    17       P1  8028  1.00
      L1  H    10    23       P1  7948  0.99

> <Gold.PLP.Chemscore.Internal.Correction>
0.0045

> <Gold.Rescore>
     Score         DG    S(hbond)    S(metal)    S(lipo)     H(rot)  DE(clash)    DE(int)     intcor
     16.98     -17.59       1.92        0.00      77.15       1.30       0.13       0.48       ----

> <Gold.Chemscore.Fitness>
16.9813

> <Gold.Chemscore.DG>
-17.5900

> <Gold.Chemscore.ZeroCoef>
-5.4800

> <Gold.Chemscore.Hbond>
1.9201

> <Gold.Chemscore.Metal>
0.0000

> <Gold.Chemscore.Lipo>
77.1482

> <Gold.Chemscore.Internal_Hbond>
0.0000

> <Gold.Chemscore.DEClash>
0.1304

> <Gold.Chemscore.DEInternal>
0.4783

> <Gold.Chemscore.Rot>
1.3006

> <Gold.Chemscore.Internal.Correction>
   9.000000E+99

> <Gold.Chemscore.Hbonds>
donor molecule, donor type, donor heavy atom, donor atom, acceptor molecule, acceptor atom, score
      L1  H     6    17       P1  8028  0.91
      L1  H    10    23       P1  7948  0.88

> <Gold.Chemscore.Hbond.Weighted>
-6.4132

> <Gold.Chemscore.Metal.Weighted>
-0.0000

> <Gold.Chemscore.Lipo.Weighted>
-9.0263

> <Gold.Chemscore.Internal_Hbond.Weighted>
0.0000

> <Gold.Chemscore.DEClash.Weighted>
0.1304

> <Gold.Chemscore.DEInternal.Weighted>
0.4783

> <Gold.Chemscore.Rot.Weighted>
3.3296

> <Gold.Chemscore.Internal.Correction.Weighted>
   9.000000E+99

> <Gold.Protein.RotatedTorsions>
[ 6907 6896 6895 6894 ] final   47.85 input  -60.11 | X-H torsion
[ 7974 7965 7964 7962 ] final  -14.61 input  175.53 | X-H torsion
[ 8008 7997 7996 7995 ] final -125.87 input   59.86 | X-H torsion
[ 10167 10162 10161 10158 ] final   70.23 input  -65.29 | X-H torsion
[ 10718 10713 10712 10709 ] final -126.88 input   66.30 | X-H torsion
[ 10763 10752 10751 10750 ] final  132.88 input  -60.55 | X-H torsion
[ 11005 11000 10999 10996 ] final -127.41 input  -57.11 | X-H torsion

> <Gold.Protein.ActiveResidues>
 VAL166  LYS551  ARG553  GLY616  TRP617  ASP618  TYR619  PRO620  LYS621  CYS622 
 ASP623  PHE694  ASN695  SER759  ASP760  ASP761  ALA762  ILE779  LEU786  VAL792 
 PHE793  MET794  SER795  GLU796  ALA797  LYS798  CYS799  TRP800  GLU811  SER814 

> <Gold.Protein.RotatedAtoms>
  152.2727  134.7915  160.0410 H   0  0  0  0  0  0  0  0  0  0  0  0  # atno 6907 bound_to 6896
  151.8521  133.3436  159.3685 H   0  0  0  0  0  0  0  0  0  0  0  0  # atno 6908 bound_to 6896
  150.7158  134.5216  159.5701 H   0  0  0  0  0  0  0  0  0  0  0  0  # atno 6909 bound_to 6896
  146.2067  140.3374  142.8405 H   0  0  0  0  0  0  0  0  0  0  0  0  # atno 7974 bound_to 7965
  155.2205  140.0422  157.2947 H   0  0  0  0  0  0  0  0  0  0  0  0  # atno 8008 bound_to 7997
  154.5953  140.2437  155.7836 H   0  0  0  0  0  0  0  0  0  0  0  0  # atno 8009 bound_to 7997
  156.2286  140.2946  156.0139 H   0  0  0  0  0  0  0  0  0  0  0  0  # atno 8010 bound_to 7997
  140.0591  144.5247  150.7307 H   0  0  0  0  0  0  0  0  0  0  0  0  # atno 10167 bound_to 10162
  156.1806  130.6729  151.0299 H   0  0  0  0  0  0  0  0  0  0  0  0  # atno 10718 bound_to 10713
  153.7980  135.3146  155.3386 H   0  0  0  0  0  0  0  0  0  0  0  0  # atno 10763 bound_to 10752
  154.8100  135.4673  154.0495 H   0  0  0  0  0  0  0  0  0  0  0  0  # atno 10764 bound_to 10752
  153.1833  135.6897  153.8535 H   0  0  0  0  0  0  0  0  0  0  0  0  # atno 10765 bound_to 10752
  140.9601  134.0947  157.3976 H   0  0  0  0  0  0  0  0  0  0  0  0  # atno 11005 bound_to 11000
  144.8809  140.7399  143.5987 LP  0  0  0  0  0  0  0  0  0  0  0  0  # atno 17320 bound_to 7965
  145.3294  139.1764  143.4545 LP  0  0  0  0  0  0  0  0  0  0  0  0  # atno 17321 bound_to 7965
  140.7180  143.2562  151.4371 LP  0  0  0  0  0  0  0  0  0  0  0  0  # atno 17342 bound_to 10162
  139.5905  144.1510  152.2082 LP  0  0  0  0  0  0  0  0  0  0  0  0  # atno 17343 bound_to 10162
  157.6865  131.0823  150.7227 LP  0  0  0  0  0  0  0  0  0  0  0  0  # atno 17370 bound_to 10713
  156.7284  130.4702  149.5505 LP  0  0  0  0  0  0  0  0  0  0  0  0  # atno 17371 bound_to 10713
  139.8875  135.0090  156.6566 LP  0  0  0  0  0  0  0  0  0  0  0  0  # atno 17394 bound_to 11000
  140.7479  133.8922  155.8325 LP  0  0  0  0  0  0  0  0  0  0  0  0  # atno 17395 bound_to 11000

$$$$
