AV-unprocessed.smi:2224|AV-procd|sdf|8995|dock1
  -GOLD-   2272012203D 1   1.00000     0.00000
 Structure written by MMmdl.
 44 46  0  0  0  0  0  0  0  0  1 V2000
  147.3562  132.8992  161.9336 C   0  0  0  0  0  0  0  0  0  0  0  0
  147.3850  134.3749  161.5960 C   0  0  0  0  0  0  0  0  0  0  0  0
  146.7108  135.3150  162.3988 C   0  0  0  0  0  0  0  0  0  0  0  0
  146.7729  136.6724  162.0273 C   0  0  0  0  0  0  0  0  0  0  0  0
  146.0737  137.7368  162.8465 C   0  0  0  0  0  0  0  0  0  0  0  0
  147.4462  137.1094  160.9415 N   0  0  0  0  0  0  0  0  0  0  0  0
  148.0991  136.2130  160.1613 C   0  0  0  0  0  0  0  0  0  0  0  0
  148.8401  136.5690  159.0036 N   0  0  0  0  0  0  0  0  0  0  0  0
  148.8437  137.7429  158.3479 C   0  0  0  0  0  0  0  0  0  0  0  0
  148.1480  138.7195  158.6280 O   0  0  0  0  0  0  0  0  0  0  0  0
  149.7105  137.7237  157.3260 N   0  0  0  0  0  0  0  0  0  0  0  0
  149.9315  138.8349  156.4055 C   0  0  2  0  0  0  0  0  0  0  0  0
  148.8235  138.9435  155.3459 C   0  0  1  0  0  0  0  0  0  0  0  0
  147.9169  140.1444  155.3274 C   0  0  0  0  0  0  0  0  0  0  0  0
  148.5795  141.0562  154.2910 C   0  0  0  0  0  0  0  0  0  0  0  0
  149.9354  140.6189  154.2427 O   0  0  0  0  0  0  0  0  0  0  0  0
  149.9314  139.1962  154.3352 C   0  0  1  0  0  0  0  0  0  0  0  0
  150.9684  138.5604  155.2852 C   0  0  0  0  0  0  0  0  0  0  0  0
  152.3038  139.2970  155.4054 C   0  0  0  0  0  0  0  0  0  0  0  0
  151.2989  137.0952  154.9655 C   0  0  0  0  0  0  0  0  0  0  0  0
  148.0900  134.8330  160.4649 C   0  0  0  0  0  0  0  0  0  0  0  0
  146.7259  132.7026  162.8015 H   0  0  0  0  0  0  0  0  0  0  0  0
  148.3626  132.5425  162.1536 H   0  0  0  0  0  0  0  0  0  0  0  0
  146.9645  132.3270  161.0923 H   0  0  0  0  0  0  0  0  0  0  0  0
  146.1613  135.0047  163.2756 H   0  0  0  0  0  0  0  0  0  0  0  0
  145.4802  137.2936  163.6466 H   0  0  0  0  0  0  0  0  0  0  0  0
  145.4073  138.3259  162.2159 H   0  0  0  0  0  0  0  0  0  0  0  0
  146.8049  138.4089  163.2962 H   0  0  0  0  0  0  0  0  0  0  0  0
  149.4403  135.8471  158.6341 H   0  0  0  0  0  0  0  0  0  0  0  0
  150.2445  136.8826  157.1648 H   0  0  0  0  0  0  0  0  0  0  0  0
  150.1083  139.7896  156.9061 H   0  0  0  0  0  0  0  0  0  0  0  0
  148.3233  137.9914  155.1594 H   0  0  0  0  0  0  0  0  0  0  0  0
  146.8939  139.8942  155.0459 H   0  0  0  0  0  0  0  0  0  0  0  0
  147.8878  140.6255  156.3055 H   0  0  0  0  0  0  0  0  0  0  0  0
  148.1256  140.9133  153.3091 H   0  0  0  0  0  0  0  0  0  0  0  0
  148.5074  142.1126  154.5503 H   0  0  0  0  0  0  0  0  0  0  0  0
  149.7834  138.6959  153.3770 H   0  0  0  0  0  0  0  0  0  0  0  0
  152.8654  139.2628  154.4714 H   0  0  0  0  0  0  0  0  0  0  0  0
  152.9313  138.8641  156.1851 H   0  0  0  0  0  0  0  0  0  0  0  0
  152.1623  140.3482  155.6581 H   0  0  0  0  0  0  0  0  0  0  0  0
  151.8381  137.0068  154.0218 H   0  0  0  0  0  0  0  0  0  0  0  0
  150.3988  136.4864  154.8766 H   0  0  0  0  0  0  0  0  0  0  0  0
  151.9209  136.6437  155.7391 H   0  0  0  0  0  0  0  0  0  0  0  0
  148.6154  134.1288  159.8359 H   0  0  0  0  0  0  0  0  0  0  0  0
  1  2  1  0  0  0  0
  1 22  1  0  0  0  0
  1 23  1  0  0  0  0
  1 24  1  0  0  0  0
  2 21  1  0  0  0  0
  2  3  2  0  0  0  0
  3  4  1  0  0  0  0
  3 25  1  0  0  0  0
  4  5  1  0  0  0  0
  4  6  2  0  0  0  0
  5 26  1  0  0  0  0
  5 27  1  0  0  0  0
  5 28  1  0  0  0  0
  6  7  1  0  0  0  0
  7  8  1  0  0  0  0
  7 21  2  0  0  0  0
  8  9  1  0  0  0  0
  8 29  1  0  0  0  0
  9 10  2  0  0  0  0
  9 11  1  0  0  0  0
 11 12  1  0  0  0  0
 11 30  1  0  0  0  0
 12 18  1  0  0  0  0
 12 13  1  0  0  0  0
 12 31  1  0  0  0  0
 13 17  1  0  0  0  0
 13 14  1  0  0  0  0
 13 32  1  0  0  0  0
 14 15  1  0  0  0  0
 14 33  1  0  0  0  0
 14 34  1  0  0  0  0
 15 16  1  0  0  0  0
 15 35  1  0  0  0  0
 15 36  1  0  0  0  0
 16 17  1  0  0  0  0
 17 18  1  0  0  0  0
 17 37  1  0  0  0  0
 18 19  1  0  0  0  0
 18 20  1  0  0  0  0
 19 38  1  0  0  0  0
 19 39  1  0  0  0  0
 19 40  1  0  0  0  0
 20 41  1  0  0  0  0
 20 42  1  0  0  0  0
 20 43  1  0  0  0  0
 21 44  1  0  0  0  0
M  END
> <s_m_source_file>
AV-unprocessed.smi

> <i_m_source_file_index>
2224

> <i_lp_mmshare_version>
43012

> <i_f3d_flags>
0

> <s_epik_input>
W0NIM11jMVtjSF1jKFtDSDNdKW5jKFtjSF0xKVtOSF1DKD1PKVtOSF1bQ0BIXTJDKFtDSDNdKShbQ0gzXSlbQ0BIXShbQ0BASF0yMylPW0NIMl1bQ0gyXTM=

> <s_epik_cmdline>
J2VwaWtfcHl0aG9uJywgJy1waCcsICc3LjAnLCAnLXRuJywgJzgnLCAnLW1hJywgJzIwMCcsICctbWV0YWxfYmluZGluZycsICctaW1hZScsICc8aW5maWxlLm1hZT4nLCAnLW9tYWUnLCAnPG91dGZpbGUubWFlPic=

> <r_lp_tautomer_probability>
1

> <r_epik_Ionization_Penalty>
0.000276544

> <r_epik_Ionization_Penalty_Charging>
0

> <r_epik_Ionization_Penalty_Neutral>
0.000276544

> <r_epik_State_Penalty>
-0

> <r_epik_Charging_Adjusted_Penalty>
0

> <i_epik_Tot_Q>
0

> <i_epik_Tot_abs_Q>
0

> <r_epik_Metal_State_Penalty>
-0

> <b_epik_Metal_Only>
0

> <s_lp_Force_Field>
OPLS_2005

> <r_lp_Energy>
38.5894

> <b_lp_Chiralities_Consistent>
1

> <s_lp_Variant>
AV-unprocessed.smi:2224-5

> <Gold.Version>
5.8.1

> <Gold.Id.Protein>
6NUR|6NUR_protein|mol2

> <Gold.PLP.Fitness>
43.8664

> <Gold.PLP.PLP>
-36.6197

> <Gold.PLP.part.hbond>
-4.0000

> <Gold.PLP.part.metal>
0.0000

> <Gold.PLP.part.buried>
-4.0445

> <Gold.PLP.part.nonpolar>
-30.1709

> <Gold.PLP.part.repulsive>
0.2983

> <Gold.PLP.ligand.clash>
0.0000

> <Gold.PLP.ligand.torsion>
0.1601

> <Gold.PLP.Chemscore.Hbond>
2.4640

> <Gold.PLP.Chemscore.CHOScore>
0.0000

> <Gold.PLP.Chemscore.Metal>
0.0000

> <Gold.Chemscore.Hbonds>
donor molecule, donor type, donor heavy atom, donor atom, acceptor molecule, acceptor atom, score
      P1  H  6931  6943       L1     6  0.55
      P1  H  6934  6947       L1     6  1.00
      P1  H  7989  7998       L1    16  0.74

> <Gold.PLP.Chemscore.Internal.Correction>
0.1749

> <Gold.Rescore>
     Score         DG    S(hbond)    S(metal)    S(lipo)     H(rot)  DE(clash)    DE(int)     intcor
     17.39     -19.03       1.71        0.00      88.94       1.00       0.22       1.42       ----

> <Gold.Chemscore.Fitness>
17.3932

> <Gold.Chemscore.DG>
-19.0311

> <Gold.Chemscore.ZeroCoef>
-5.4800

> <Gold.Chemscore.Hbond>
1.7082

> <Gold.Chemscore.Metal>
0.0000

> <Gold.Chemscore.Lipo>
88.9379

> <Gold.Chemscore.Internal_Hbond>
0.0000

> <Gold.Chemscore.DEClash>
0.2202

> <Gold.Chemscore.DEInternal>
1.4177

> <Gold.Chemscore.Rot>
1.0000

> <Gold.Chemscore.Internal.Correction>
   9.000000E+99

> <Gold.Chemscore.Hbonds>
donor molecule, donor type, donor heavy atom, donor atom, acceptor molecule, acceptor atom, score
      P1  H  6931  6943       L1     6  0.07
      P1  H  6934  6947       L1     6  0.48
      P1  H  7989  7998       L1    16  0.19

> <Gold.Chemscore.Hbond.Weighted>
-5.7054

> <Gold.Chemscore.Metal.Weighted>
-0.0000

> <Gold.Chemscore.Lipo.Weighted>
-10.4057

> <Gold.Chemscore.Internal_Hbond.Weighted>
0.0000

> <Gold.Chemscore.DEClash.Weighted>
0.2202

> <Gold.Chemscore.DEInternal.Weighted>
1.4177

> <Gold.Chemscore.Rot.Weighted>
2.5600

> <Gold.Chemscore.Internal.Correction.Weighted>
   9.000000E+99

> <Gold.Protein.RotatedTorsions>
[ 6907 6896 6895 6894 ] final -123.96 input  -60.11 | X-H torsion
[ 7974 7965 7964 7962 ] final -156.59 input  175.53 | X-H torsion
[ 8008 7997 7996 7995 ] final  166.95 input   59.86 | X-H torsion
[ 10167 10162 10161 10158 ] final  179.62 input  -65.29 | X-H torsion
[ 10718 10713 10712 10709 ] final   43.32 input   66.30 | X-H torsion
[ 10763 10752 10751 10750 ] final   76.83 input  -60.55 | X-H torsion
[ 11005 11000 10999 10996 ] final  -63.10 input  -57.11 | X-H torsion

> <Gold.Protein.ActiveResidues>
 VAL166  LYS551  ARG553  GLY616  TRP617  ASP618  TYR619  PRO620  LYS621  CYS622 
 ASP623  PHE694  ASN695  SER759  ASP760  ASP761  ALA762  ILE779  LEU786  VAL792 
 PHE793  MET794  SER795  GLU796  ALA797  LYS798  CYS799  TRP800  GLU811  SER814 

> <Gold.Protein.RotatedAtoms>
  150.8721  133.7490  159.2957 H   0  0  0  0  0  0  0  0  0  0  0  0  # atno 6907 bound_to 6896
  151.5099  135.1063  159.9861 H   0  0  0  0  0  0  0  0  0  0  0  0  # atno 6908 bound_to 6896
  152.4702  133.7968  159.6987 H   0  0  0  0  0  0  0  0  0  0  0  0  # atno 6909 bound_to 6896
  144.7586  140.4087  143.5993 H   0  0  0  0  0  0  0  0  0  0  0  0  # atno 7974 bound_to 7965
  156.1675  140.1630  156.8506 H   0  0  0  0  0  0  0  0  0  0  0  0  # atno 8008 bound_to 7997
  154.5222  140.0775  156.8228 H   0  0  0  0  0  0  0  0  0  0  0  0  # atno 8009 bound_to 7997
  155.3581  140.3393  155.4242 H   0  0  0  0  0  0  0  0  0  0  0  0  # atno 8010 bound_to 7997
  139.5344  144.2539  152.0762 H   0  0  0  0  0  0  0  0  0  0  0  0  # atno 10167 bound_to 10162
  157.4146  130.7934  149.7461 H   0  0  0  0  0  0  0  0  0  0  0  0  # atno 10718 bound_to 10713
  153.0754  135.4937  154.8393 H   0  0  0  0  0  0  0  0  0  0  0  0  # atno 10763 bound_to 10752
  154.7080  135.3014  154.9243 H   0  0  0  0  0  0  0  0  0  0  0  0  # atno 10764 bound_to 10752
  153.9946  135.6774  153.4809 H   0  0  0  0  0  0  0  0  0  0  0  0  # atno 10765 bound_to 10752
  141.1382  133.6648  156.5628 H   0  0  0  0  0  0  0  0  0  0  0  0  # atno 11005 bound_to 11000
  145.6695  139.1596  143.2762 LP  0  0  0  0  0  0  0  0  0  0  0  0  # atno 17320 bound_to 7965
  146.1624  140.6768  142.9271 LP  0  0  0  0  0  0  0  0  0  0  0  0  # atno 17321 bound_to 7965
  140.2007  144.4660  150.6433 LP  0  0  0  0  0  0  0  0  0  0  0  0  # atno 17342 bound_to 10162
  140.6543  143.2233  151.6006 LP  0  0  0  0  0  0  0  0  0  0  0  0  # atno 17343 bound_to 10162
  155.9861  130.3977  150.3228 LP  0  0  0  0  0  0  0  0  0  0  0  0  # atno 17370 bound_to 10713
  157.1370  131.0286  151.2944 LP  0  0  0  0  0  0  0  0  0  0  0  0  # atno 17371 bound_to 10713
  140.3975  134.7386  157.4759 LP  0  0  0  0  0  0  0  0  0  0  0  0  # atno 17394 bound_to 11000
  140.0521  134.6116  155.8849 LP  0  0  0  0  0  0  0  0  0  0  0  0  # atno 17395 bound_to 11000

$$$$
