AV-unprocessed.smi:2062|AV-procd|sdf|8398|dock4
  -GOLD-   2272011 83D 1   1.00000     0.00000
 Structure written by MMmdl.
 43 44  0  0  0  0  0  0  0  0  2 V2000
  147.1330  128.0590  151.5325 C   0  0  0  0  0  0  0  0  0  0  0  0
  146.9107  129.5410  151.8781 C   0  0  0  0  0  0  0  0  0  0  0  0
  146.4977  129.6918  153.3499 C   0  0  0  0  0  0  0  0  0  0  0  0
  145.8655  130.2013  150.9520 C   0  0  0  0  0  0  0  0  0  0  0  0
  146.2090  131.6014  150.5791 N   0  3  1  0  0  0  0  0  0  0  0  0
  145.4692  132.0953  149.3925 C   0  0  0  0  0  0  0  0  0  0  0  0
  144.0290  132.4918  149.7617 C   0  0  0  0  0  0  0  0  0  0  0  0
  144.0603  133.4654  150.7967 O   0  0  0  0  0  0  0  0  0  0  0  0
  144.6596  132.9799  151.9944 C   0  0  2  0  0  0  0  0  0  0  0  0
  144.5819  134.0800  153.0679 C   0  0  0  0  0  0  0  0  0  0  0  0
  143.2139  134.2927  153.5292 N   0  0  0  0  0  0  0  0  0  0  0  0
  142.5449  135.4523  153.4566 C   0  0  0  0  0  0  0  0  0  0  0  0
  143.0225  136.4825  152.9808 O   0  0  0  0  0  0  0  0  0  0  0  0
  141.3058  135.3308  153.9637 N   0  0  0  0  0  0  0  0  0  0  0  0
  140.2979  136.3251  154.0670 C   0  0  0  0  0  0  0  0  0  0  0  0
  139.2267  136.2350  154.8640 N   0  0  0  0  0  0  0  0  0  0  0  0
  138.4023  137.3585  154.7629 C   0  0  0  0  0  0  0  0  0  0  0  0
  138.8646  138.3007  153.8782 C   0  0  0  0  0  0  0  0  0  0  0  0
  140.3630  137.8124  153.1331 S   0  0  0  0  0  0  0  0  0  0  0  0
  146.1222  132.5876  151.6875 C   0  0  0  0  0  0  0  0  0  0  0  0
  146.2108  127.4849  151.6288 H   0  0  0  0  0  0  0  0  0  0  0  0
  147.8730  127.6095  152.1956 H   0  0  0  0  0  0  0  0  0  0  0  0
  147.4976  127.9362  150.5126 H   0  0  0  0  0  0  0  0  0  0  0  0
  147.8643  130.0560  151.7696 H   0  0  0  0  0  0  0  0  0  0  0  0
  145.5502  129.1908  153.5509 H   0  0  0  0  0  0  0  0  0  0  0  0
  146.3829  130.7416  153.6211 H   0  0  0  0  0  0  0  0  0  0  0  0
  147.2476  129.2628  154.0153 H   0  0  0  0  0  0  0  0  0  0  0  0
  145.7902  129.5985  150.0458 H   0  0  0  0  0  0  0  0  0  0  0  0
  144.8784  130.1691  151.4128 H   0  0  0  0  0  0  0  0  0  0  0  0
  145.9923  132.9690  149.0011 H   0  0  0  0  0  0  0  0  0  0  0  0
  145.4767  131.3528  148.5940 H   0  0  0  0  0  0  0  0  0  0  0  0
  143.5245  132.9189  148.8949 H   0  0  0  0  0  0  0  0  0  0  0  0
  143.4437  131.6254  150.0731 H   0  0  0  0  0  0  0  0  0  0  0  0
  144.1071  132.1095  152.3509 H   0  0  0  0  0  0  0  0  0  0  0  0
  145.1712  133.7858  153.9366 H   0  0  0  0  0  0  0  0  0  0  0  0
  145.0192  135.0105  152.7015 H   0  0  0  0  0  0  0  0  0  0  0  0
  142.7442  133.4988  153.9393 H   0  0  0  0  0  0  0  0  0  0  0  0
  141.0538  134.4214  154.3220 H   0  0  0  0  0  0  0  0  0  0  0  0
  137.5029  137.4055  155.3591 H   0  0  0  0  0  0  0  0  0  0  0  0
  138.4166  139.2488  153.6210 H   0  0  0  0  0  0  0  0  0  0  0  0
  146.6172  132.2170  152.5837 H   0  0  0  0  0  0  0  0  0  0  0  0
  146.6767  133.4777  151.3868 H   0  0  0  0  0  0  0  0  0  0  0  0
  147.1795  131.5649  150.3008 H   0  0  0  0  0  0  0  0  0  0  0  0
  1  2  1  0  0  0  0
  1 21  1  0  0  0  0
  1 22  1  0  0  0  0
  1 23  1  0  0  0  0
  2  3  1  0  0  0  0
  2  4  1  0  0  0  0
  2 24  1  0  0  0  0
  3 25  1  0  0  0  0
  3 26  1  0  0  0  0
  3 27  1  0  0  0  0
  4  5  1  0  0  0  0
  4 28  1  0  0  0  0
  4 29  1  0  0  0  0
  5 20  1  0  0  0  0
  5  6  1  0  0  0  0
  5 43  1  0  0  0  0
  6  7  1  0  0  0  0
  6 30  1  0  0  0  0
  6 31  1  0  0  0  0
  7  8  1  0  0  0  0
  7 32  1  0  0  0  0
  7 33  1  0  0  0  0
  8  9  1  0  0  0  0
  9 10  1  0  0  0  0
  9 20  1  0  0  0  0
  9 34  1  0  0  0  0
 10 11  1  0  0  0  0
 10 35  1  0  0  0  0
 10 36  1  0  0  0  0
 11 12  1  0  0  0  0
 11 37  1  0  0  0  0
 12 13  2  0  0  0  0
 12 14  1  0  0  0  0
 14 15  1  0  0  0  0
 14 38  1  0  0  0  0
 15 19  1  0  0  0  0
 15 16  2  0  0  0  0
 16 17  1  0  0  0  0
 17 18  2  0  0  0  0
 17 39  1  0  0  0  0
 18 19  1  0  0  0  0
 18 40  1  0  0  0  0
 20 41  1  0  0  0  0
 20 42  1  0  0  0  0
M  CHG  1   5   1
M  END
> <s_m_source_file>
AV-unprocessed.smi

> <i_m_source_file_index>
2062

> <i_lp_mmshare_version>
43012

> <i_f3d_flags>
0

> <s_epik_input>
W0NIM11bQ0hdKFtDSDNdKVtDSDJdTjFbQ0gyXVtDSDJdT1tDQEhdKFtDSDJdMSlbQ0gyXVtOSF1DKD1PKVtOSF1jMm5bY0hdW2NIXXMy

> <s_epik_cmdline>
J2VwaWtfcHl0aG9uJywgJy1waCcsICc3LjAnLCAnLXRuJywgJzgnLCAnLW1hJywgJzIwMCcsICctbWV0YWxfYmluZGluZycsICctaW1hZScsICc8aW5maWxlLm1hZT4nLCAnLW9tYWUnLCAnPG91dGZpbGUubWFlPic=

> <r_lp_tautomer_probability>
0.999

> <r_epik_Ionization_Penalty>
0.0985527

> <r_epik_Ionization_Penalty_Charging>
0.098413

> <r_epik_Ionization_Penalty_Neutral>
0.000139681

> <r_epik_State_Penalty>
0.0884988

> <r_epik_Charging_Adjusted_Penalty>
0.186912

> <i_epik_Tot_Q>
1

> <i_epik_Tot_abs_Q>
1

> <r_epik_Metal_State_Penalty>
0.141792

> <b_epik_Metal_Only>
0

> <s_lp_Force_Field>
OPLS_2005

> <r_lp_Energy>
18.2091

> <b_lp_Chiralities_Consistent>
1

> <s_lp_Variant>
AV-unprocessed.smi:2062-3

> <Gold.Version>
5.8.1

> <Gold.Id.Protein>
6NUR|6NUR_protein|mol2

> <Gold.PLP.Fitness>
44.7836

> <Gold.PLP.PLP>
-37.1063

> <Gold.PLP.part.hbond>
-3.7185

> <Gold.PLP.part.metal>
0.0000

> <Gold.PLP.part.buried>
-5.9831

> <Gold.PLP.part.nonpolar>
-27.4961

> <Gold.PLP.part.repulsive>
0.5730

> <Gold.PLP.ligand.clash>
0.0000

> <Gold.PLP.ligand.torsion>
0.7151

> <Gold.PLP.Chemscore.Hbond>
3.0000

> <Gold.PLP.Chemscore.CHOScore>
0.0000

> <Gold.PLP.Chemscore.Metal>
0.0000

> <Gold.Chemscore.Hbonds>
donor molecule, donor type, donor heavy atom, donor atom, acceptor molecule, acceptor atom, score
      L1  H     5    43       P1 10747  1.00
      L1  H    11    37       P1 10957  1.00
      P1  H 11000 11005       L1    16  1.00

> <Gold.PLP.Chemscore.Internal.Correction>
0.1076

> <Gold.Rescore>
     Score         DG    S(hbond)    S(metal)    S(lipo)     H(rot)  DE(clash)    DE(int)     intcor
     17.92     -19.75       2.32        0.00      94.38       1.76       0.30       1.52       ----

> <Gold.Chemscore.Fitness>
17.9236

> <Gold.Chemscore.DG>
-19.7493

> <Gold.Chemscore.ZeroCoef>
-5.4800

> <Gold.Chemscore.Hbond>
2.3151

> <Gold.Chemscore.Metal>
0.0000

> <Gold.Chemscore.Lipo>
94.3782

> <Gold.Chemscore.Internal_Hbond>
0.0000

> <Gold.Chemscore.DEClash>
0.3050

> <Gold.Chemscore.DEInternal>
1.5207

> <Gold.Chemscore.Rot>
1.7599

> <Gold.Chemscore.Internal.Correction>
   9.000000E+99

> <Gold.Chemscore.Hbonds>
donor molecule, donor type, donor heavy atom, donor atom, acceptor molecule, acceptor atom, score
      L1  H     5    43       P1 10747  0.98
      L1  H    11    37       P1 10957  0.98
      P1  H 11000 11005       L1    16  0.24

> <Gold.Chemscore.Hbond.Weighted>
-7.7325

> <Gold.Chemscore.Metal.Weighted>
-0.0000

> <Gold.Chemscore.Lipo.Weighted>
-11.0423

> <Gold.Chemscore.Internal_Hbond.Weighted>
0.0000

> <Gold.Chemscore.DEClash.Weighted>
0.3050

> <Gold.Chemscore.DEInternal.Weighted>
1.5207

> <Gold.Chemscore.Rot.Weighted>
4.5054

> <Gold.Chemscore.Internal.Correction.Weighted>
   9.000000E+99

> <Gold.Protein.RotatedTorsions>
[ 6907 6896 6895 6894 ] final -115.19 input  -60.11 | X-H torsion
[ 7974 7965 7964 7962 ] final -130.47 input  175.53 | X-H torsion
[ 8008 7997 7996 7995 ] final  -88.17 input   59.86 | X-H torsion
[ 10167 10162 10161 10158 ] final  -68.33 input  -65.29 | X-H torsion
[ 10718 10713 10712 10709 ] final -130.69 input   66.30 | X-H torsion
[ 10763 10752 10751 10750 ] final   71.25 input  -60.55 | X-H torsion
[ 11005 11000 10999 10996 ] final   82.02 input  -57.11 | X-H torsion

> <Gold.Protein.ActiveResidues>
 VAL166  LYS551  ARG553  GLY616  TRP617  ASP618  TYR619  PRO620  LYS621  CYS622 
 ASP623  PHE694  ASN695  SER759  ASP760  ASP761  ALA762  ILE779  LEU786  VAL792 
 PHE793  MET794  SER795  GLU796  ALA797  LYS798  CYS799  TRP800  GLU811  SER814 

> <Gold.Protein.RotatedAtoms>
  150.7959  133.8693  159.3253 H   0  0  0  0  0  0  0  0  0  0  0  0  # atno 6907 bound_to 6896
  151.6518  135.0999  160.0171 H   0  0  0  0  0  0  0  0  0  0  0  0  # atno 6908 bound_to 6896
  152.4041  133.6822  159.6376 H   0  0  0  0  0  0  0  0  0  0  0  0  # atno 6909 bound_to 6896
  144.9472  140.7305  143.4810 H   0  0  0  0  0  0  0  0  0  0  0  0  # atno 7974 bound_to 7965
  154.6717  140.0557  157.0172 H   0  0  0  0  0  0  0  0  0  0  0  0  # atno 8008 bound_to 7997
  155.1079  140.3235  155.4510 H   0  0  0  0  0  0  0  0  0  0  0  0  # atno 8009 bound_to 7997
  156.2660  140.2019  156.6204 H   0  0  0  0  0  0  0  0  0  0  0  0  # atno 8010 bound_to 7997
  140.5516  143.2312  151.6901 H   0  0  0  0  0  0  0  0  0  0  0  0  # atno 10167 bound_to 10162
  156.2169  130.6954  151.0713 H   0  0  0  0  0  0  0  0  0  0  0  0  # atno 10718 bound_to 10713
  153.0388  135.5144  154.7564 H   0  0  0  0  0  0  0  0  0  0  0  0  # atno 10763 bound_to 10752
  154.6519  135.2926  154.9979 H   0  0  0  0  0  0  0  0  0  0  0  0  # atno 10764 bound_to 10752
  154.0860  135.6657  153.4897 H   0  0  0  0  0  0  0  0  0  0  0  0  # atno 10765 bound_to 10752
  139.9078  134.8040  156.2118 H   0  0  0  0  0  0  0  0  0  0  0  0  # atno 11005 bound_to 11000
  145.2899  139.1887  143.4745 LP  0  0  0  0  0  0  0  0  0  0  0  0  # atno 17320 bound_to 7965
  146.3308  140.2875  142.8613 LP  0  0  0  0  0  0  0  0  0  0  0  0  # atno 17321 bound_to 7965
  139.5029  144.3809  152.0377 LP  0  0  0  0  0  0  0  0  0  0  0  0  # atno 17342 bound_to 10162
  140.2927  144.3736  150.6084 LP  0  0  0  0  0  0  0  0  0  0  0  0  # atno 17343 bound_to 10162
  157.7068  131.0753  150.6640 LP  0  0  0  0  0  0  0  0  0  0  0  0  # atno 17370 bound_to 10713
  156.6702  130.4537  149.5659 LP  0  0  0  0  0  0  0  0  0  0  0  0  # atno 17371 bound_to 10713
  141.0460  133.6913  156.1685 LP  0  0  0  0  0  0  0  0  0  0  0  0  # atno 17394 bound_to 11000
  140.6883  134.4694  157.5589 LP  0  0  0  0  0  0  0  0  0  0  0  0  # atno 17395 bound_to 11000

$$$$
