AV-unprocessed.smi:109|AV-procd|sdf|1046|dock2
  -GOLD-   2262018 83D 1   1.00000     0.00000
 Structure written by MMmdl.
 58 61  0  0  0  0  0  0  0  0  1 V2000
  151.1199  140.1864  154.9006 O   0  0  0  0  0  0  0  0  0  0  0  0
  149.9983  141.0353  155.0108 C   0  0  0  0  0  0  0  0  0  0  0  0
  150.2172  142.0481  156.1461 C   0  0  0  0  0  0  0  0  0  0  0  0
  150.2339  141.3883  157.5428 C   0  0  1  0  0  0  0  0  0  0  0  0
  151.0401  140.1686  157.5022 N   0  0  0  0  0  0  0  0  0  0  0  0
  150.6481  139.0360  158.1261 C   0  0  0  0  0  0  0  0  0  0  0  0
  151.5318  138.2581  158.8040 N   0  0  0  0  0  0  0  0  0  0  0  0
  151.1107  137.1509  159.4218 C   0  0  0  0  0  0  0  0  0  0  0  0
  149.8746  136.6526  159.4882 N   0  0  0  0  0  0  0  0  0  0  0  0
  148.9822  137.4285  158.8063 C   0  0  0  0  0  0  0  0  0  0  0  0
  149.2902  138.6266  158.1037 C   0  0  0  0  0  0  0  0  0  0  0  0
  148.1368  139.1497  157.5345 N   0  0  0  0  0  0  0  0  0  0  0  0
  147.2016  138.3091  157.8872 C   0  0  0  0  0  0  0  0  0  0  0  0
  147.6205  137.2483  158.6589 N   0  0  0  0  0  0  0  0  0  0  0  0
  146.7761  136.1484  159.2236 C   0  0  1  0  0  0  0  0  0  0  0  0
  147.4400  135.5550  160.2944 O   0  0  0  0  0  0  0  0  0  0  0  0
  146.5176  135.1834  161.3183 C   0  0  1  0  0  0  0  0  0  0  0  0
  146.9612  135.8723  162.6198 C   0  0  0  0  0  0  0  0  0  0  0  0
  147.1649  137.2525  162.4012 O   0  0  0  0  0  0  0  0  0  0  0  0
  145.1250  135.6285  160.8332 C   0  0  2  0  0  0  0  0  0  0  0  0
  144.4395  134.5136  160.2957 O   0  0  0  0  0  0  0  0  0  0  0  0
  145.4183  136.6410  159.7390 C   0  0  1  0  0  0  0  0  0  0  0  0
  145.4513  137.9585  160.2583 O   0  0  0  0  0  0  0  0  0  0  0  0
  150.7133  142.3257  158.6850 C   0  0  0  0  0  0  0  0  0  0  0  0
  150.0894  143.7359  158.6040 C   0  0  0  0  0  0  0  0  0  0  0  0
  150.5019  144.6015  159.8058 C   0  0  0  0  0  0  0  0  0  0  0  0
  152.0312  144.6928  159.9251 C   0  0  0  0  0  0  0  0  0  0  0  0
  152.6649  143.2953  160.0037 C   0  0  0  0  0  0  0  0  0  0  0  0
  152.2511  142.4267  158.8045 C   0  0  0  0  0  0  0  0  0  0  0  0
  146.6784  135.4204  158.4170 H   0  0  0  0  0  0  0  0  0  0  0  0
  146.5672  134.1013  161.4517 H   0  0  0  0  0  0  0  0  0  0  0  0
  144.5089  136.0444  161.6317 H   0  0  0  0  0  0  0  0  0  0  0  0
  144.6867  136.6166  158.9302 H   0  0  0  0  0  0  0  0  0  0  0  0
  150.8384  139.3649  154.5275 H   0  0  0  0  0  0  0  0  0  0  0  0
  149.8485  141.5491  154.0608 H   0  0  0  0  0  0  0  0  0  0  0  0
  149.1137  140.4250  155.1949 H   0  0  0  0  0  0  0  0  0  0  0  0
  151.1483  142.5902  155.9761 H   0  0  0  0  0  0  0  0  0  0  0  0
  149.4199  142.7884  156.0933 H   0  0  0  0  0  0  0  0  0  0  0  0
  149.2024  141.1102  157.7608 H   0  0  0  0  0  0  0  0  0  0  0  0
  151.9208  140.2449  157.0138 H   0  0  0  0  0  0  0  0  0  0  0  0
  151.8716  136.5853  159.9390 H   0  0  0  0  0  0  0  0  0  0  0  0
  146.1694  138.4454  157.5989 H   0  0  0  0  0  0  0  0  0  0  0  0
  146.1919  135.7602  163.3844 H   0  0  0  0  0  0  0  0  0  0  0  0
  147.8734  135.4237  163.0137 H   0  0  0  0  0  0  0  0  0  0  0  0
  146.8799  137.7229  163.1697 H   0  0  0  0  0  0  0  0  0  0  0  0
  143.5168  134.6179  160.4718 H   0  0  0  0  0  0  0  0  0  0  0  0
  144.6279  138.1297  160.6894 H   0  0  0  0  0  0  0  0  0  0  0  0
  150.3518  141.8951  159.6201 H   0  0  0  0  0  0  0  0  0  0  0  0
  150.3968  144.2396  157.6879 H   0  0  0  0  0  0  0  0  0  0  0  0
  149.0021  143.6613  158.5655 H   0  0  0  0  0  0  0  0  0  0  0  0
  150.0767  145.6007  159.7072 H   0  0  0  0  0  0  0  0  0  0  0  0
  150.0878  144.1785  160.7219 H   0  0  0  0  0  0  0  0  0  0  0  0
  152.4330  145.2286  159.0641 H   0  0  0  0  0  0  0  0  0  0  0  0
  152.3020  145.2751  160.8061 H   0  0  0  0  0  0  0  0  0  0  0  0
  153.7512  143.3815  160.0426 H   0  0  0  0  0  0  0  0  0  0  0  0
  152.3602  142.8072  160.9304 H   0  0  0  0  0  0  0  0  0  0  0  0
  152.6891  141.4340  158.9119 H   0  0  0  0  0  0  0  0  0  0  0  0
  152.6727  142.8548  157.8949 H   0  0  0  0  0  0  0  0  0  0  0  0
  1  2  1  0  0  0  0
  1 34  1  0  0  0  0
  2  3  1  0  0  0  0
  2 35  1  0  0  0  0
  2 36  1  0  0  0  0
  3  4  1  0  0  0  0
  3 37  1  0  0  0  0
  3 38  1  0  0  0  0
  4  5  1  0  0  0  0
  4 24  1  0  0  0  0
  4 39  1  0  0  0  0
  5  6  1  0  0  0  0
  5 40  1  0  0  0  0
  6 11  1  0  0  0  0
  6  7  2  0  0  0  0
  7  8  1  0  0  0  0
  8  9  2  0  0  0  0
  8 41  1  0  0  0  0
  9 10  1  0  0  0  0
 10 14  1  0  0  0  0
 10 11  2  0  0  0  0
 11 12  1  0  0  0  0
 12 13  2  0  0  0  0
 13 14  1  0  0  0  0
 13 42  1  0  0  0  0
 14 15  1  0  0  0  0
 15 30  1  0  0  0  0
 15 22  1  0  0  0  0
 15 16  1  0  0  0  0
 16 17  1  0  0  0  0
 17 31  1  0  0  0  0
 17 18  1  0  0  0  0
 17 20  1  0  0  0  0
 18 19  1  0  0  0  0
 18 43  1  0  0  0  0
 18 44  1  0  0  0  0
 19 45  1  0  0  0  0
 20 32  1  0  0  0  0
 20 21  1  0  0  0  0
 20 22  1  0  0  0  0
 21 46  1  0  0  0  0
 22 33  1  0  0  0  0
 22 23  1  0  0  0  0
 23 47  1  0  0  0  0
 24 29  1  0  0  0  0
 24 25  1  0  0  0  0
 24 48  1  0  0  0  0
 25 26  1  0  0  0  0
 25 49  1  0  0  0  0
 25 50  1  0  0  0  0
 26 27  1  0  0  0  0
 26 51  1  0  0  0  0
 26 52  1  0  0  0  0
 27 28  1  0  0  0  0
 27 53  1  0  0  0  0
 27 54  1  0  0  0  0
 28 29  1  0  0  0  0
 28 55  1  0  0  0  0
 28 56  1  0  0  0  0
 29 57  1  0  0  0  0
 29 58  1  0  0  0  0
M  END
> <s_m_source_file>
AV-unprocessed.smi

> <i_m_source_file_index>
109

> <i_lp_mmshare_version>
43012

> <i_f3d_flags>
0

> <s_epik_input>
W0NIMl0xW0NIMl1bQ0gyXVtDSDJdW0NIMl1bQ0hdMVtDQEhdKFtDSDJdW0NIMl1bT0hdKVtOSF1jKG5bY0hdbjIpYyhjMjMpbltjSF1uM1tDQEBIXTRPW0NASF0oW0NIMl1bT0hdKVtDQEBIXShbT0hdKVtDQEhdNFtPSF0=

> <s_epik_cmdline>
J2VwaWtfcHl0aG9uJywgJy1waCcsICc3LjAnLCAnLXRuJywgJzgnLCAnLW1hJywgJzIwMCcsICctbWV0YWxfYmluZGluZycsICctaW1hZScsICc8aW5maWxlLm1hZT4nLCAnLW9tYWUnLCAnPG91dGZpbGUubWFlPic=

> <r_lp_tautomer_probability>
1

> <r_epik_Ionization_Penalty>
0.000793976

> <r_epik_Ionization_Penalty_Charging>
0

> <r_epik_Ionization_Penalty_Neutral>
0.000793976

> <r_epik_State_Penalty>
-0

> <r_epik_Charging_Adjusted_Penalty>
0

> <i_epik_Tot_Q>
0

> <i_epik_Tot_abs_Q>
0

> <r_epik_Metal_State_Penalty>
-0

> <b_epik_Metal_Only>
0

> <s_epik_Chemistry_Notes>
This compound contains an acetal/aminal-like group ( X-CH(R)-Y where X, Y are N, S, or O) that may be acid/base labile, releasing an aldehyde.

> <s_lp_Force_Field>
OPLS_2005

> <r_lp_Energy>
52.4563

> <b_lp_Chiralities_Consistent>
1

> <s_lp_Variant>
AV-unprocessed.smi:109-16

> <Gold.Version>
5.8.1

> <Gold.Id.Protein>
6NUR|6NUR_protein|mol2

> <Gold.PLP.Fitness>
50.7236

> <Gold.PLP.PLP>
-43.5988

> <Gold.PLP.part.hbond>
-4.2816

> <Gold.PLP.part.metal>
0.0000

> <Gold.PLP.part.buried>
-5.4096

> <Gold.PLP.part.nonpolar>
-34.3438

> <Gold.PLP.part.repulsive>
0.0416

> <Gold.PLP.ligand.clash>
1.0614

> <Gold.PLP.ligand.torsion>
1.6024

> <Gold.PLP.Chemscore.Hbond>
3.7440

> <Gold.PLP.Chemscore.CHOScore>
0.0000

> <Gold.PLP.Chemscore.Metal>
0.0000

> <Gold.Chemscore.Hbonds>
donor molecule, donor type, donor heavy atom, donor atom, acceptor molecule, acceptor atom, score
      P1  H  6896  6907       L1     9  0.23
      P1  H  6931  6943       L1    19  0.51
      P1  H  6934  6947       L1    23  0.68
      P1  H  7989  7998       L1     1  0.60

> <Gold.PLP.Chemscore.Internal.Correction>
0.1591

> <Gold.Rescore>
     Score         DG    S(hbond)    S(metal)    S(lipo)     H(rot)  DE(clash)    DE(int)     intcor
      7.05     -12.95       2.58        0.00     109.80       5.47       1.59       4.32       ----

> <Gold.Chemscore.Fitness>
7.0459

> <Gold.Chemscore.DG>
-12.9529

> <Gold.Chemscore.ZeroCoef>
-5.4800

> <Gold.Chemscore.Hbond>
2.5808

> <Gold.Chemscore.Metal>
0.0000

> <Gold.Chemscore.Lipo>
109.7992

> <Gold.Chemscore.Internal_Hbond>
0.0000

> <Gold.Chemscore.DEClash>
1.5903

> <Gold.Chemscore.DEInternal>
4.3167

> <Gold.Chemscore.Rot>
5.4662

> <Gold.Chemscore.Internal.Correction>
   9.000000E+99

> <Gold.Chemscore.Hbonds>
donor molecule, donor type, donor heavy atom, donor atom, acceptor molecule, acceptor atom, score
      P1  H  6931  6943       L1    19  0.15
      P1  H  6934  6947       L1    23  0.63
      P1  H  7989  7998       L1     1  0.01

> <Gold.Chemscore.Hbond.Weighted>
-8.6199

> <Gold.Chemscore.Metal.Weighted>
-0.0000

> <Gold.Chemscore.Lipo.Weighted>
-12.8465

> <Gold.Chemscore.Internal_Hbond.Weighted>
0.0000

> <Gold.Chemscore.DEClash.Weighted>
1.5903

> <Gold.Chemscore.DEInternal.Weighted>
4.3167

> <Gold.Chemscore.Rot.Weighted>
13.9935

> <Gold.Chemscore.Internal.Correction.Weighted>
   9.000000E+99

> <Gold.Protein.RotatedTorsions>
[ 6907 6896 6895 6894 ] final  -54.42 input  -60.11 | X-H torsion
[ 7974 7965 7964 7962 ] final   -4.96 input  175.53 | X-H torsion
[ 8008 7997 7996 7995 ] final   -5.12 input   59.86 | X-H torsion
[ 10167 10162 10161 10158 ] final  130.67 input  -65.29 | X-H torsion
[ 10718 10713 10712 10709 ] final  134.99 input   66.30 | X-H torsion
[ 10763 10752 10751 10750 ] final -157.61 input  -60.55 | X-H torsion
[ 11005 11000 10999 10996 ] final  138.09 input  -57.11 | X-H torsion

> <Gold.Protein.ActiveResidues>
 VAL166  LYS551  ARG553  GLY616  TRP617  ASP618  TYR619  PRO620  LYS621  CYS622 
 ASP623  PHE694  ASN695  SER759  ASP760  ASP761  ALA762  ILE779  LEU786  VAL792 
 PHE793  MET794  SER795  GLU796  ALA797  LYS798  CYS799  TRP800  GLU811  SER814 

> <Gold.Protein.RotatedAtoms>
  150.8339  134.7604  159.6876 H   0  0  0  0  0  0  0  0  0  0  0  0  # atno 6907 bound_to 6896
  152.4439  134.5531  159.9882 H   0  0  0  0  0  0  0  0  0  0  0  0  # atno 6908 bound_to 6896
  151.5685  133.3355  159.3021 H   0  0  0  0  0  0  0  0  0  0  0  0  # atno 6909 bound_to 6896
  146.2362  140.1950  142.8333 H   0  0  0  0  0  0  0  0  0  0  0  0  # atno 7974 bound_to 7965
  154.6072  140.2466  155.7716 H   0  0  0  0  0  0  0  0  0  0  0  0  # atno 8008 bound_to 7997
  156.2348  140.2954  156.0234 H   0  0  0  0  0  0  0  0  0  0  0  0  # atno 8009 bound_to 7997
  155.2113  140.0397  157.2924 H   0  0  0  0  0  0  0  0  0  0  0  0  # atno 8010 bound_to 7997
  139.5419  144.6738  151.4596 H   0  0  0  0  0  0  0  0  0  0  0  0  # atno 10167 bound_to 10162
  157.4617  131.1074  150.9912 H   0  0  0  0  0  0  0  0  0  0  0  0  # atno 10718 bound_to 10713
  154.7622  135.3121  154.8355 H   0  0  0  0  0  0  0  0  0  0  0  0  # atno 10763 bound_to 10752
  153.9113  135.6805  153.4755 H   0  0  0  0  0  0  0  0  0  0  0  0  # atno 10764 bound_to 10752
  153.1224  135.4816  154.9150 H   0  0  0  0  0  0  0  0  0  0  0  0  # atno 10765 bound_to 10752
  140.0159  134.9418  157.0375 H   0  0  0  0  0  0  0  0  0  0  0  0  # atno 11005 bound_to 11000
  144.9827  140.8475  143.5387 LP  0  0  0  0  0  0  0  0  0  0  0  0  # atno 17320 bound_to 7965
  145.1945  139.2283  143.5225 LP  0  0  0  0  0  0  0  0  0  0  0  0  # atno 17321 bound_to 7965
  140.6653  143.8412  150.6934 LP  0  0  0  0  0  0  0  0  0  0  0  0  # atno 17342 bound_to 10162
  140.1819  143.4108  152.1926 LP  0  0  0  0  0  0  0  0  0  0  0  0  # atno 17343 bound_to 10162
  157.0707  130.5863  149.5402 LP  0  0  0  0  0  0  0  0  0  0  0  0  # atno 17370 bound_to 10713
  156.0031  130.5114  150.7736 LP  0  0  0  0  0  0  0  0  0  0  0  0  # atno 17371 bound_to 10713
  140.4472  134.1620  155.7178 LP  0  0  0  0  0  0  0  0  0  0  0  0  # atno 17394 bound_to 11000
  141.1742  133.8547  157.1474 LP  0  0  0  0  0  0  0  0  0  0  0  0  # atno 17395 bound_to 11000

$$$$
