AV-unprocessed.smi:2528|AV-procd|sdf|9958|dock7
  -GOLD-   2272013593D 1   1.00000     0.00000
 Structure written by MMmdl.
 43 45  0  0  0  0  0  0  0  0  1 V2000
  150.0725  135.6730  156.4629 O   0  0  0  0  0  0  0  0  0  0  0  0
  149.8710  135.7780  155.2526 C   0  0  0  0  0  0  0  0  0  0  0  0
  149.6688  136.9519  154.6373 N   0  0  0  0  0  0  0  0  0  0  0  0
  149.6724  138.2532  155.2967 C   0  0  0  0  0  0  0  0  0  0  0  0
  150.9593  139.0473  154.9842 C   0  0  2  0  0  0  0  0  0  0  0  0
  151.8711  139.2298  156.2127 C   0  0  0  0  0  0  0  0  0  0  0  0
  151.3416  140.1911  157.1726 N   0  0  0  0  0  0  0  0  0  0  0  0
  152.2493  140.3539  158.3073 C   0  0  0  0  0  0  0  0  0  0  0  0
  151.7086  141.3375  159.3567 C   0  0  0  0  0  0  0  0  0  0  0  0
  151.4217  142.6994  158.7093 C   0  0  0  0  0  0  0  0  0  0  0  0
  150.5078  142.5180  157.4881 C   0  0  0  0  0  0  0  0  0  0  0  0
  151.0888  141.4742  156.5109 C   0  0  2  0  0  0  0  0  0  0  0  0
  150.1539  141.2952  155.2983 C   0  0  0  0  0  0  0  0  0  0  0  0
  150.6807  140.3218  154.4005 O   0  0  0  0  0  0  0  0  0  0  0  0
  149.8272  134.7568  154.3789 N   0  0  0  0  0  0  0  0  0  0  0  0
  149.9833  133.3693  154.6414 C   0  0  0  0  0  0  0  0  0  0  0  0
  149.4631  132.5092  153.6476 C   0  0  0  0  0  0  0  0  0  0  0  0
  149.5672  131.1145  153.8143 C   0  0  0  0  0  0  0  0  0  0  0  0
  150.1886  130.6146  154.9725 C   0  0  0  0  0  0  0  0  0  0  0  0
  150.6794  131.5389  155.9128 C   0  0  0  0  0  0  0  0  0  0  0  0
  150.5809  132.8758  155.7550 N   0  0  0  0  0  0  0  0  0  0  0  0
  149.5144  136.9488  153.6400 H   0  0  0  0  0  0  0  0  0  0  0  0
  148.7863  138.8012  154.9783 H   0  0  0  0  0  0  0  0  0  0  0  0
  149.5679  138.1199  156.3749 H   0  0  0  0  0  0  0  0  0  0  0  0
  151.5237  138.4832  154.2408 H   0  0  0  0  0  0  0  0  0  0  0  0
  152.0283  138.2659  156.6982 H   0  0  0  0  0  0  0  0  0  0  0  0
  152.8524  139.5636  155.8716 H   0  0  0  0  0  0  0  0  0  0  0  0
  152.4195  139.3866  158.7814 H   0  0  0  0  0  0  0  0  0  0  0  0
  153.2226  140.7001  157.9560 H   0  0  0  0  0  0  0  0  0  0  0  0
  150.7940  140.9380  159.7967 H   0  0  0  0  0  0  0  0  0  0  0  0
  152.4247  141.4509  160.1710 H   0  0  0  0  0  0  0  0  0  0  0  0
  150.9618  143.3747  159.4313 H   0  0  0  0  0  0  0  0  0  0  0  0
  152.3595  143.1622  158.3994 H   0  0  0  0  0  0  0  0  0  0  0  0
  149.5180  142.2016  157.8204 H   0  0  0  0  0  0  0  0  0  0  0  0
  150.3742  143.4752  156.9833 H   0  0  0  0  0  0  0  0  0  0  0  0
  152.0384  141.8619  156.1377 H   0  0  0  0  0  0  0  0  0  0  0  0
  149.1513  141.0086  155.6165 H   0  0  0  0  0  0  0  0  0  0  0  0
  150.0502  142.2374  154.7596 H   0  0  0  0  0  0  0  0  0  0  0  0
  149.6617  135.0004  153.4137 H   0  0  0  0  0  0  0  0  0  0  0  0
  148.9885  132.9104  152.7637 H   0  0  0  0  0  0  0  0  0  0  0  0
  149.1765  130.4407  153.0661 H   0  0  0  0  0  0  0  0  0  0  0  0
  150.2865  129.5516  155.1366 H   0  0  0  0  0  0  0  0  0  0  0  0
  151.1633  131.1969  156.8157 H   0  0  0  0  0  0  0  0  0  0  0  0
  1  2  2  0  0  0  0
  2  3  1  0  0  0  0
  2 15  1  0  0  0  0
  3  4  1  0  0  0  0
  3 22  1  0  0  0  0
  4  5  1  0  0  0  0
  4 23  1  0  0  0  0
  4 24  1  0  0  0  0
  5 14  1  0  0  0  0
  5  6  1  0  0  0  0
  5 25  1  0  0  0  0
  6  7  1  0  0  0  0
  6 26  1  0  0  0  0
  6 27  1  0  0  0  0
  7 12  1  0  0  0  0
  7  8  1  0  0  0  0
  8  9  1  0  0  0  0
  8 28  1  0  0  0  0
  8 29  1  0  0  0  0
  9 10  1  0  0  0  0
  9 30  1  0  0  0  0
  9 31  1  0  0  0  0
 10 11  1  0  0  0  0
 10 32  1  0  0  0  0
 10 33  1  0  0  0  0
 11 12  1  0  0  0  0
 11 34  1  0  0  0  0
 11 35  1  0  0  0  0
 12 13  1  0  0  0  0
 12 36  1  0  0  0  0
 13 14  1  0  0  0  0
 13 37  1  0  0  0  0
 13 38  1  0  0  0  0
 15 16  1  0  0  0  0
 15 39  1  0  0  0  0
 16 21  1  0  0  0  0
 16 17  2  0  0  0  0
 17 18  1  0  0  0  0
 17 40  1  0  0  0  0
 18 19  2  0  0  0  0
 18 41  1  0  0  0  0
 19 20  1  0  0  0  0
 19 42  1  0  0  0  0
 20 21  2  0  0  0  0
 20 43  1  0  0  0  0
M  END
> <s_m_source_file>
AV-unprocessed.smi

> <i_m_source_file_index>
2528

> <i_lp_mmshare_version>
43012

> <i_f3d_flags>
0

> <s_epik_input>
bjFbY0hdW2NIXVtjSF1bY0hdYzFbTkhdQyg9TylbTkhdW0NIMl1bQ0BIXShbQ0gyXTIpT1tDSDJdW0NAQEhdKE4yMylbQ0gyXVtDSDJdW0NIMl1bQ0gyXTM=

> <s_epik_cmdline>
J2VwaWtfcHl0aG9uJywgJy1waCcsICc3LjAnLCAnLXRuJywgJzgnLCAnLW1hJywgJzIwMCcsICctbWV0YWxfYmluZGluZycsICctaW1hZScsICc8aW5maWxlLm1hZT4nLCAnLW9tYWUnLCAnPG91dGZpbGUubWFlPic=

> <r_epik_Ionization_Penalty>
1.14192

> <r_epik_Ionization_Penalty_Charging>
0

> <r_epik_Ionization_Penalty_Neutral>
1.14192

> <r_epik_State_Penalty>
1.20248

> <r_epik_Charging_Adjusted_Penalty>
1.20248

> <i_epik_Tot_Q>
0

> <i_epik_Tot_abs_Q>
0

> <r_epik_Metal_State_Penalty>
1.20248

> <b_epik_Metal_Only>
0

> <s_lp_Force_Field>
OPLS_2005

> <r_lp_Energy>
38.2617

> <b_lp_Chiralities_Consistent>
1

> <s_lp_Variant>
AV-unprocessed.smi:2528-11

> <Gold.Version>
5.8.1

> <Gold.Id.Protein>
6NUR|6NUR_protein|mol2

> <Gold.PLP.Fitness>
43.7440

> <Gold.PLP.PLP>
-36.6463

> <Gold.PLP.part.hbond>
-3.0000

> <Gold.PLP.part.metal>
0.0000

> <Gold.PLP.part.buried>
-4.6589

> <Gold.PLP.part.nonpolar>
-29.2669

> <Gold.PLP.part.repulsive>
0.1677

> <Gold.PLP.ligand.clash>
0.0000

> <Gold.PLP.ligand.torsion>
0.9064

> <Gold.PLP.Chemscore.Hbond>
2.9680

> <Gold.PLP.Chemscore.CHOScore>
0.0000

> <Gold.PLP.Chemscore.Metal>
0.0000

> <Gold.Chemscore.Hbonds>
donor molecule, donor type, donor heavy atom, donor atom, acceptor molecule, acceptor atom, score
      L1  H     3    22       P1  7948  1.00
      L1  H    15    39       P1  7948  0.33
      P1  H  7989  7998       L1    14  0.71

> <Gold.PLP.Chemscore.Internal.Correction>
0.0064

> <Gold.Rescore>
     Score         DG    S(hbond)    S(metal)    S(lipo)     H(rot)  DE(clash)    DE(int)     intcor
     17.39     -19.43       2.49        0.00      76.04       1.27       0.02       2.01       ----

> <Gold.Chemscore.Fitness>
17.3950

> <Gold.Chemscore.DG>
-19.4321

> <Gold.Chemscore.ZeroCoef>
-5.4800

> <Gold.Chemscore.Hbond>
2.4867

> <Gold.Chemscore.Metal>
0.0000

> <Gold.Chemscore.Lipo>
76.0393

> <Gold.Chemscore.Internal_Hbond>
0.0000

> <Gold.Chemscore.DEClash>
0.0238

> <Gold.Chemscore.DEInternal>
2.0133

> <Gold.Chemscore.Rot>
1.2696

> <Gold.Chemscore.Internal.Correction>
   9.000000E+99

> <Gold.Chemscore.Hbonds>
donor molecule, donor type, donor heavy atom, donor atom, acceptor molecule, acceptor atom, score
      L1  H     3    22       P1  7948  0.86
      L1  H    15    39       P1  7948  0.01
      P1  H  7989  7998       L1    14  0.56

> <Gold.Chemscore.Hbond.Weighted>
-8.3057

> <Gold.Chemscore.Metal.Weighted>
-0.0000

> <Gold.Chemscore.Lipo.Weighted>
-8.8966

> <Gold.Chemscore.Internal_Hbond.Weighted>
0.0000

> <Gold.Chemscore.DEClash.Weighted>
0.0238

> <Gold.Chemscore.DEInternal.Weighted>
2.0133

> <Gold.Chemscore.Rot.Weighted>
3.2502

> <Gold.Chemscore.Internal.Correction.Weighted>
   9.000000E+99

> <Gold.Protein.RotatedTorsions>
[ 6907 6896 6895 6894 ] final  -45.13 input  -60.11 | X-H torsion
[ 7974 7965 7964 7962 ] final  -28.93 input  175.53 | X-H torsion
[ 8008 7997 7996 7995 ] final   35.18 input   59.86 | X-H torsion
[ 10167 10162 10161 10158 ] final   28.61 input  -65.29 | X-H torsion
[ 10718 10713 10712 10709 ] final -128.30 input   66.30 | X-H torsion
[ 10763 10752 10751 10750 ] final   77.89 input  -60.55 | X-H torsion
[ 11005 11000 10999 10996 ] final  117.54 input  -57.11 | X-H torsion

> <Gold.Protein.ActiveResidues>
 VAL166  LYS551  ARG553  GLY616  TRP617  ASP618  TYR619  PRO620  LYS621  CYS622 
 ASP623  PHE694  ASN695  SER759  ASP760  ASP761  ALA762  ILE779  LEU786  VAL792 
 PHE793  MET794  SER795  GLU796  ALA797  LYS798  CYS799  TRP800  GLU811  SER814 

> <Gold.Protein.RotatedAtoms>
  150.9253  134.8670  159.7515 H   0  0  0  0  0  0  0  0  0  0  0  0  # atno 6907 bound_to 6896
  152.5012  134.4158  159.9474 H   0  0  0  0  0  0  0  0  0  0  0  0  # atno 6908 bound_to 6896
  151.4189  133.3664  159.2788 H   0  0  0  0  0  0  0  0  0  0  0  0  # atno 6909 bound_to 6896
  146.1253  140.5346  142.8717 H   0  0  0  0  0  0  0  0  0  0  0  0  # atno 7974 bound_to 7965
  155.1668  140.3288  155.4400 H   0  0  0  0  0  0  0  0  0  0  0  0  # atno 8008 bound_to 7997
  156.2524  140.1950  156.6724 H   0  0  0  0  0  0  0  0  0  0  0  0  # atno 8009 bound_to 7997
  154.6365  140.0575  156.9781 H   0  0  0  0  0  0  0  0  0  0  0  0  # atno 8010 bound_to 7997
  140.4837  144.0575  150.6274 H   0  0  0  0  0  0  0  0  0  0  0  0  # atno 10167 bound_to 10162
  156.1938  130.6812  151.0456 H   0  0  0  0  0  0  0  0  0  0  0  0  # atno 10718 bound_to 10713
  153.0833  135.4897  154.8546 H   0  0  0  0  0  0  0  0  0  0  0  0  # atno 10763 bound_to 10752
  154.7178  135.3033  154.9097 H   0  0  0  0  0  0  0  0  0  0  0  0  # atno 10764 bound_to 10752
  153.9771  135.6794  153.4802 H   0  0  0  0  0  0  0  0  0  0  0  0  # atno 10765 bound_to 10752
  139.9078  134.9611  156.7367 H   0  0  0  0  0  0  0  0  0  0  0  0  # atno 11005 bound_to 11000
  144.7636  140.5480  143.6718 LP  0  0  0  0  0  0  0  0  0  0  0  0  # atno 17320 bound_to 7965
  145.5379  139.1475  143.3463 LP  0  0  0  0  0  0  0  0  0  0  0  0  # atno 17321 bound_to 7965
  140.3825  143.2795  152.0154 LP  0  0  0  0  0  0  0  0  0  0  0  0  # atno 17342 bound_to 10162
  139.4838  144.6143  151.7375 LP  0  0  0  0  0  0  0  0  0  0  0  0  # atno 17343 bound_to 10162
  157.6945  131.0799  150.7010 LP  0  0  0  0  0  0  0  0  0  0  0  0  # atno 17370 bound_to 10713
  156.7066  130.4639  149.5558 LP  0  0  0  0  0  0  0  0  0  0  0  0  # atno 17371 bound_to 10713
  140.6882  133.9413  155.7950 LP  0  0  0  0  0  0  0  0  0  0  0  0  # atno 17394 bound_to 11000
  141.0461  134.0552  157.3843 LP  0  0  0  0  0  0  0  0  0  0  0  0  # atno 17395 bound_to 11000

$$$$
