AV-unprocessed.smi:646|AV-procd|sdf|3165|dock2
  -GOLD-   22720 0 83D 1   1.00000     0.00000
 Structure written by MMmdl.
 44 45  0  0  0  0  0  0  0  0  1 V2000
  147.5476  138.8202  157.6419 C   0  0  0  0  0  0  0  0  0  0  0  0
  147.4025  139.1995  156.2784 O   0  0  0  0  0  0  0  0  0  0  0  0
  147.4814  140.5982  155.9702 C   0  0  1  0  0  0  0  0  0  0  0  0
  146.3720  141.3661  156.7010 C   0  0  0  0  0  0  0  0  0  0  0  0
  148.9379  141.0859  156.0880 C   0  0  0  0  0  0  0  0  0  0  0  0
  149.1575  140.6906  154.6263 C   0  0  1  0  0  0  0  0  0  0  0  0
  149.7105  139.3413  154.5230 N   0  0  0  0  0  0  0  0  0  0  0  0
  151.0098  139.0272  154.6310 C   0  0  0  0  0  0  0  0  0  0  0  0
  151.8932  139.8562  154.8468 O   0  0  0  0  0  0  0  0  0  0  0  0
  151.3708  137.5517  154.4509 C   0  0  0  0  0  0  0  0  0  0  0  0
  151.0209  136.7726  155.6937 C   0  0  0  0  0  0  0  0  0  0  0  0
  151.3131  137.1096  157.0461 C   0  0  0  0  0  0  0  0  0  0  0  0
  152.0365  138.3176  157.5677 C   0  0  0  0  0  0  0  0  0  0  0  0
  150.8559  136.2016  157.8918 N   0  0  0  0  0  0  0  0  0  0  0  0
  150.2379  135.2239  157.1062 O   0  0  0  0  0  0  0  0  0  0  0  0
  150.3470  135.5867  155.8030 C   0  0  0  0  0  0  0  0  0  0  0  0
  149.7343  134.6664  154.8022 C   0  0  0  0  0  0  0  0  0  0  0  0
  147.6210  140.7606  154.4206 C   0  0  0  0  0  0  0  0  0  0  0  0
  146.9528  139.6896  153.5422 C   0  0  0  0  0  0  0  0  0  0  0  0
  147.1521  142.1049  153.8439 C   0  0  0  0  0  0  0  0  0  0  0  0
  147.6117  137.7343  157.7033 H   0  0  0  0  0  0  0  0  0  0  0  0
  146.6877  139.1233  158.2386 H   0  0  0  0  0  0  0  0  0  0  0  0
  148.4504  139.2294  158.0943 H   0  0  0  0  0  0  0  0  0  0  0  0
  146.3377  142.4133  156.4028 H   0  0  0  0  0  0  0  0  0  0  0  0
  146.5198  141.3669  157.7804 H   0  0  0  0  0  0  0  0  0  0  0  0
  145.3912  140.9360  156.4969 H   0  0  0  0  0  0  0  0  0  0  0  0
  149.0055  142.1645  156.2384 H   0  0  0  0  0  0  0  0  0  0  0  0
  149.5685  140.5589  156.8040 H   0  0  0  0  0  0  0  0  0  0  0  0
  149.7137  141.4458  154.0681 H   0  0  0  0  0  0  0  0  0  0  0  0
  149.0558  138.5951  154.3386 H   0  0  0  0  0  0  0  0  0  0  0  0
  150.8436  137.1686  153.5766 H   0  0  0  0  0  0  0  0  0  0  0  0
  152.4338  137.4695  154.2214 H   0  0  0  0  0  0  0  0  0  0  0  0
  153.0280  138.3996  157.1221 H   0  0  0  0  0  0  0  0  0  0  0  0
  152.1619  138.2802  158.6505 H   0  0  0  0  0  0  0  0  0  0  0  0
  151.4899  139.2299  157.3283 H   0  0  0  0  0  0  0  0  0  0  0  0
  149.6667  135.1393  153.8224 H   0  0  0  0  0  0  0  0  0  0  0  0
  148.7271  134.3803  155.1054 H   0  0  0  0  0  0  0  0  0  0  0  0
  150.3284  133.7585  154.6990 H   0  0  0  0  0  0  0  0  0  0  0  0
  147.2551  139.7864  152.4989 H   0  0  0  0  0  0  0  0  0  0  0  0
  145.8657  139.7676  153.5776 H   0  0  0  0  0  0  0  0  0  0  0  0
  147.2053  138.6746  153.8484 H   0  0  0  0  0  0  0  0  0  0  0  0
  147.4476  142.2151  152.8000 H   0  0  0  0  0  0  0  0  0  0  0  0
  147.5792  142.9513  154.3824 H   0  0  0  0  0  0  0  0  0  0  0  0
  146.0673  142.2075  153.8875 H   0  0  0  0  0  0  0  0  0  0  0  0
  1  2  1  0  0  0  0
  1 21  1  0  0  0  0
  1 22  1  0  0  0  0
  1 23  1  0  0  0  0
  2  3  1  0  0  0  0
  3 18  1  0  0  0  0
  3  4  1  0  0  0  0
  3  5  1  0  0  0  0
  4 24  1  0  0  0  0
  4 25  1  0  0  0  0
  4 26  1  0  0  0  0
  5  6  1  0  0  0  0
  5 27  1  0  0  0  0
  5 28  1  0  0  0  0
  6  7  1  0  0  0  0
  6 18  1  0  0  0  0
  6 29  1  0  0  0  0
  7  8  1  0  0  0  0
  7 30  1  0  0  0  0
  8  9  2  0  0  0  0
  8 10  1  0  0  0  0
 10 11  1  0  0  0  0
 10 31  1  0  0  0  0
 10 32  1  0  0  0  0
 11 16  2  0  0  0  0
 11 12  1  0  0  0  0
 12 13  1  0  0  0  0
 12 14  2  0  0  0  0
 13 33  1  0  0  0  0
 13 34  1  0  0  0  0
 13 35  1  0  0  0  0
 14 15  1  0  0  0  0
 15 16  1  0  0  0  0
 16 17  1  0  0  0  0
 17 36  1  0  0  0  0
 17 37  1  0  0  0  0
 17 38  1  0  0  0  0
 18 19  1  0  0  0  0
 18 20  1  0  0  0  0
 19 39  1  0  0  0  0
 19 40  1  0  0  0  0
 19 41  1  0  0  0  0
 20 42  1  0  0  0  0
 20 43  1  0  0  0  0
 20 44  1  0  0  0  0
M  END
> <s_m_source_file>
AV-unprocessed.smi

> <i_m_source_file_index>
646

> <i_lp_mmshare_version>
43012

> <i_f3d_flags>
0

> <s_epik_input>
W0NIM11PW0NAQF0xKFtDSDNdKVtDSDJdW0NASF0oQzEoW0NIM10pW0NIM10pW05IXUMoPU8pW0NIMl1jMmMoW0NIM10pbm9jMltDSDNd

> <s_epik_cmdline>
J2VwaWtfcHl0aG9uJywgJy1waCcsICc3LjAnLCAnLXRuJywgJzgnLCAnLW1hJywgJzIwMCcsICctbWV0YWxfYmluZGluZycsICctaW1hZScsICc8aW5maWxlLm1hZT4nLCAnLW9tYWUnLCAnPG91dGZpbGUubWFlPic=

> <r_lp_tautomer_probability>
1

> <r_epik_Ionization_Penalty>
2.13169e-08

> <r_epik_Ionization_Penalty_Charging>
0

> <r_epik_Ionization_Penalty_Neutral>
2.13169e-08

> <r_epik_State_Penalty>
-0

> <r_epik_Charging_Adjusted_Penalty>
0

> <i_epik_Tot_Q>
0

> <i_epik_Tot_abs_Q>
0

> <r_epik_Metal_State_Penalty>
-0

> <b_epik_Metal_Only>
0

> <s_lp_Force_Field>
OPLS_2005

> <r_lp_Energy>
17.7516

> <b_lp_Chiralities_Consistent>
1

> <s_lp_Variant>
AV-unprocessed.smi:646-1

> <Gold.Version>
5.8.1

> <Gold.Id.Protein>
6NUR|6NUR_protein|mol2

> <Gold.PLP.Fitness>
30.3964

> <Gold.PLP.PLP>
-28.0950

> <Gold.PLP.part.hbond>
-2.0000

> <Gold.PLP.part.metal>
0.0000

> <Gold.PLP.part.buried>
-6.2372

> <Gold.PLP.part.nonpolar>
-20.7646

> <Gold.PLP.part.repulsive>
0.1361

> <Gold.PLP.ligand.clash>
0.0000

> <Gold.PLP.ligand.torsion>
0.6058

> <Gold.PLP.Chemscore.Hbond>
1.0349

> <Gold.PLP.Chemscore.CHOScore>
0.0000

> <Gold.PLP.Chemscore.Metal>
0.0000

> <Gold.Chemscore.Hbonds>
donor molecule, donor type, donor heavy atom, donor atom, acceptor molecule, acceptor atom, score
      P1  H  6896  6908       L1    14  0.03
      P1  H  7989  7998       L1     9  0.94

> <Gold.PLP.Chemscore.Internal.Correction>
0.4083

> <Gold.Rescore>
     Score         DG    S(hbond)    S(metal)    S(lipo)     H(rot)  DE(clash)    DE(int)     intcor
     13.75     -14.54       1.70        0.00      61.51       1.49       0.20       0.59       ----

> <Gold.Chemscore.Fitness>
13.7485

> <Gold.Chemscore.DG>
-14.5398

> <Gold.Chemscore.ZeroCoef>
-5.4800

> <Gold.Chemscore.Hbond>
1.7019

> <Gold.Chemscore.Metal>
0.0000

> <Gold.Chemscore.Lipo>
61.5146

> <Gold.Chemscore.Internal_Hbond>
0.0000

> <Gold.Chemscore.DEClash>
0.2025

> <Gold.Chemscore.DEInternal>
0.5888

> <Gold.Chemscore.Rot>
1.4928

> <Gold.Chemscore.Internal.Correction>
   9.000000E+99

> <Gold.Chemscore.Hbonds>
donor molecule, donor type, donor heavy atom, donor atom, acceptor molecule, acceptor atom, score
      P1  H  7989  7998       L1     9  0.23

> <Gold.Chemscore.Hbond.Weighted>
-5.6843

> <Gold.Chemscore.Metal.Weighted>
-0.0000

> <Gold.Chemscore.Lipo.Weighted>
-7.1972

> <Gold.Chemscore.Internal_Hbond.Weighted>
0.0000

> <Gold.Chemscore.DEClash.Weighted>
0.2025

> <Gold.Chemscore.DEInternal.Weighted>
0.5888

> <Gold.Chemscore.Rot.Weighted>
3.8217

> <Gold.Chemscore.Internal.Correction.Weighted>
   9.000000E+99

> <Gold.Protein.RotatedTorsions>
[ 6907 6896 6895 6894 ] final  170.17 input  -60.11 | X-H torsion
[ 7974 7965 7964 7962 ] final  -54.62 input  175.53 | X-H torsion
[ 8008 7997 7996 7995 ] final   16.05 input   59.86 | X-H torsion
[ 10167 10162 10161 10158 ] final  -98.98 input  -65.29 | X-H torsion
[ 10718 10713 10712 10709 ] final  -13.14 input   66.30 | X-H torsion
[ 10763 10752 10751 10750 ] final   50.57 input  -60.55 | X-H torsion
[ 11005 11000 10999 10996 ] final  -49.73 input  -57.11 | X-H torsion

> <Gold.Protein.ActiveResidues>
 VAL166  LYS551  ARG553  GLY616  TRP617  ASP618  TYR619  PRO620  LYS621  CYS622 
 ASP623  PHE694  ASN695  SER759  ASP760  ASP761  ALA762  ILE779  LEU786  VAL792 
 PHE793  MET794  SER795  GLU796  ALA797  LYS798  CYS799  TRP800  GLU811  SER814 

> <Gold.Protein.RotatedAtoms>
  151.8204  133.3394  159.3582 H   0  0  0  0  0  0  0  0  0  0  0  0  # atno 6907 bound_to 6896
  150.7296  134.5579  159.5837 H   0  0  0  0  0  0  0  0  0  0  0  0  # atno 6908 bound_to 6896
  152.3010  134.7612  160.0409 H   0  0  0  0  0  0  0  0  0  0  0  0  # atno 6909 bound_to 6896
  145.8835  140.8126  142.9828 H   0  0  0  0  0  0  0  0  0  0  0  0  # atno 7974 bound_to 7965
  154.8714  140.2959  155.5479 H   0  0  0  0  0  0  0  0  0  0  0  0  # atno 8008 bound_to 7997
  156.3021  140.2459  156.3637 H   0  0  0  0  0  0  0  0  0  0  0  0  # atno 8009 bound_to 7997
  154.8813  140.0398  157.1773 H   0  0  0  0  0  0  0  0  0  0  0  0  # atno 8010 bound_to 7997
  140.2673  143.3367  152.0569 H   0  0  0  0  0  0  0  0  0  0  0  0  # atno 10167 bound_to 10162
  156.6345  130.4910  149.6117 H   0  0  0  0  0  0  0  0  0  0  0  0  # atno 10718 bound_to 10713
  152.9784  135.5874  154.4273 H   0  0  0  0  0  0  0  0  0  0  0  0  # atno 10763 bound_to 10752
  154.3891  135.2767  155.2168 H   0  0  0  0  0  0  0  0  0  0  0  0  # atno 10764 bound_to 10752
  154.4048  135.6095  153.5972 H   0  0  0  0  0  0  0  0  0  0  0  0  # atno 10765 bound_to 10752
  141.0776  133.6661  156.3629 H   0  0  0  0  0  0  0  0  0  0  0  0  # atno 11005 bound_to 11000
  144.6728  140.1420  143.7436 LP  0  0  0  0  0  0  0  0  0  0  0  0  # atno 17320 bound_to 7965
  145.8995  139.2422  143.1502 LP  0  0  0  0  0  0  0  0  0  0  0  0  # atno 17321 bound_to 7965
  139.4999  144.6680  151.6311 LP  0  0  0  0  0  0  0  0  0  0  0  0  # atno 17342 bound_to 10162
  140.5918  143.9766  150.6329 LP  0  0  0  0  0  0  0  0  0  0  0  0  # atno 17343 bound_to 10162
  156.2208  130.6736  151.1366 LP  0  0  0  0  0  0  0  0  0  0  0  0  # atno 17370 bound_to 10713
  157.7190  131.0693  150.6213 LP  0  0  0  0  0  0  0  0  0  0  0  0  # atno 17371 bound_to 10713
  140.5539  134.6000  157.5415 LP  0  0  0  0  0  0  0  0  0  0  0  0  # atno 17394 bound_to 11000
  139.9589  134.7487  156.0281 LP  0  0  0  0  0  0  0  0  0  0  0  0  # atno 17395 bound_to 11000

$$$$
