AV-unprocessed.smi:434|AV-procd|sdf|2552|dock10
  -GOLD-   2262022523D 1   1.00000     0.00000
 Structure written by MMmdl.
 39 41  0  0  0  0  0  0  0  0  1 V2000
  151.1561  139.0671  155.9678 C   0  0  0  0  0  0  0  0  0  0  0  0
  151.3258  140.2434  156.8762 C   0  0  0  0  0  0  0  0  0  0  0  0
  152.4896  140.5292  157.4601 N   0  0  0  0  0  0  0  0  0  0  0  0
  152.1901  141.6604  158.1947 C   0  0  0  0  0  0  0  0  0  0  0  0
  153.0051  142.4520  159.0356 C   0  0  0  0  0  0  0  0  0  0  0  0
  152.4701  143.5800  159.6919 C   0  0  0  0  0  0  0  0  0  0  0  0
  151.1160  143.9319  159.5175 C   0  0  0  0  0  0  0  0  0  0  0  0
  150.2866  143.1573  158.6839 C   0  0  0  0  0  0  0  0  0  0  0  0
  150.8253  142.0326  158.0305 C   0  0  0  0  0  0  0  0  0  0  0  0
  150.2997  141.0832  157.1588 N   0  0  0  0  0  0  0  0  0  0  0  0
  148.9299  141.0206  156.6656 C   0  0  0  0  0  0  0  0  0  0  0  0
  148.8352  141.2373  155.1417 C   0  0  2  0  0  0  0  0  0  0  0  0
  149.6538  142.3319  154.7782 O   0  0  0  0  0  0  0  0  0  0  0  0
  147.3965  141.5358  154.6917 C   0  0  0  0  0  0  0  0  0  0  0  0
  146.7721  142.3596  155.6621 O   0  0  0  0  0  0  0  0  0  0  0  0
  145.3670  142.4323  155.4972 C   0  0  0  0  0  0  0  0  0  0  0  0
  145.1171  143.4449  154.4318 C   0  0  0  0  0  0  0  0  0  0  0  0
  145.6280  143.6383  153.1779 C   0  0  0  0  0  0  0  0  0  0  0  0
  144.9774  144.7891  152.6528 C   0  0  0  0  0  0  0  0  0  0  0  0
  144.1178  145.2123  153.6262 C   0  0  0  0  0  0  0  0  0  0  0  0
  144.1906  144.4031  154.7184 O   0  0  0  0  0  0  0  0  0  0  0  0
  152.1084  138.5558  155.8225 H   0  0  0  0  0  0  0  0  0  0  0  0
  150.7889  139.3873  154.9932 H   0  0  0  0  0  0  0  0  0  0  0  0
  150.4486  138.3580  156.3978 H   0  0  0  0  0  0  0  0  0  0  0  0
  154.0438  142.1915  159.1752 H   0  0  0  0  0  0  0  0  0  0  0  0
  153.1019  144.1785  160.3319 H   0  0  0  0  0  0  0  0  0  0  0  0
  150.7142  144.7979  160.0232 H   0  0  0  0  0  0  0  0  0  0  0  0
  149.2499  143.4266  158.5459 H   0  0  0  0  0  0  0  0  0  0  0  0
  148.5048  140.0543  156.9380 H   0  0  0  0  0  0  0  0  0  0  0  0
  148.3357  141.7690  157.1917 H   0  0  0  0  0  0  0  0  0  0  0  0
  149.1968  140.3447  154.6304 H   0  0  0  0  0  0  0  0  0  0  0  0
  149.1419  143.1236  154.8444 H   0  0  0  0  0  0  0  0  0  0  0  0
  147.4108  142.0787  153.7452 H   0  0  0  0  0  0  0  0  0  0  0  0
  146.8351  140.6143  154.5265 H   0  0  0  0  0  0  0  0  0  0  0  0
  144.9608  141.4632  155.2034 H   0  0  0  0  0  0  0  0  0  0  0  0
  144.8852  142.7328  156.4286 H   0  0  0  0  0  0  0  0  0  0  0  0
  146.3764  143.0255  152.6976 H   0  0  0  0  0  0  0  0  0  0  0  0
  145.1199  145.2485  151.6860 H   0  0  0  0  0  0  0  0  0  0  0  0
  143.4160  146.0297  153.7036 H   0  0  0  0  0  0  0  0  0  0  0  0
  1  2  1  0  0  0  0
  1 22  1  0  0  0  0
  1 23  1  0  0  0  0
  1 24  1  0  0  0  0
  2 10  1  0  0  0  0
  2  3  2  0  0  0  0
  3  4  1  0  0  0  0
  4  9  2  0  0  0  0
  4  5  1  0  0  0  0
  5  6  2  0  0  0  0
  5 25  1  0  0  0  0
  6  7  1  0  0  0  0
  6 26  1  0  0  0  0
  7  8  2  0  0  0  0
  7 27  1  0  0  0  0
  8  9  1  0  0  0  0
  8 28  1  0  0  0  0
  9 10  1  0  0  0  0
 10 11  1  0  0  0  0
 11 12  1  0  0  0  0
 11 29  1  0  0  0  0
 11 30  1  0  0  0  0
 12 13  1  0  0  0  0
 12 14  1  0  0  0  0
 12 31  1  0  0  0  0
 13 32  1  0  0  0  0
 14 15  1  0  0  0  0
 14 33  1  0  0  0  0
 14 34  1  0  0  0  0
 15 16  1  0  0  0  0
 16 17  1  0  0  0  0
 16 35  1  0  0  0  0
 16 36  1  0  0  0  0
 17 21  1  0  0  0  0
 17 18  2  0  0  0  0
 18 19  1  0  0  0  0
 18 37  1  0  0  0  0
 19 20  2  0  0  0  0
 19 38  1  0  0  0  0
 20 21  1  0  0  0  0
 20 39  1  0  0  0  0
M  END
> <s_m_source_file>
AV-unprocessed.smi

> <i_m_source_file_index>
434

> <i_lp_mmshare_version>
43012

> <i_f3d_flags>
0

> <s_epik_input>
W2NIXTFbY0hdW2NIXVtjSF1jKGMxMiluKGMobjIpW0NIM10pW0NIMl1bQ0BIXShbT0hdKVtDSDJdT1tDSDJdYzNbY0hdW2NIXVtjSF1vMw==

> <s_epik_cmdline>
J2VwaWtfcHl0aG9uJywgJy1waCcsICc3LjAnLCAnLXRuJywgJzgnLCAnLW1hJywgJzIwMCcsICctbWV0YWxfYmluZGluZycsICctaW1hZScsICc8aW5maWxlLm1hZT4nLCAnLW9tYWUnLCAnPG91dGZpbGUubWFlPic=

> <r_epik_Ionization_Penalty>
0.126634

> <r_epik_Ionization_Penalty_Charging>
0

> <r_epik_Ionization_Penalty_Neutral>
0.126634

> <r_epik_State_Penalty>
0.116082

> <r_epik_Charging_Adjusted_Penalty>
0.116082

> <i_epik_Tot_Q>
0

> <i_epik_Tot_abs_Q>
0

> <r_epik_Metal_State_Penalty>
0.00012822

> <b_epik_Metal_Only>
0

> <s_lp_Force_Field>
OPLS_2005

> <r_lp_Energy>
9.40114

> <b_lp_Chiralities_Consistent>
1

> <s_lp_Variant>
AV-unprocessed.smi:434-1

> <Gold.Version>
5.8.1

> <Gold.Id.Protein>
6NUR|6NUR_protein|mol2

> <Gold.PLP.Fitness>
45.5722

> <Gold.PLP.PLP>
-41.1075

> <Gold.PLP.part.hbond>
-3.4434

> <Gold.PLP.part.metal>
0.0000

> <Gold.PLP.part.buried>
-3.0641

> <Gold.PLP.part.nonpolar>
-33.8844

> <Gold.PLP.part.repulsive>
0.4835

> <Gold.PLP.ligand.clash>
0.0000

> <Gold.PLP.ligand.torsion>
0.6154

> <Gold.PLP.Chemscore.Hbond>
1.8892

> <Gold.PLP.Chemscore.CHOScore>
0.0000

> <Gold.PLP.Chemscore.Metal>
0.0000

> <Gold.Chemscore.Hbonds>
donor molecule, donor type, donor heavy atom, donor atom, acceptor molecule, acceptor atom, score
      L1  H    13    32       P1  8028  0.98
      P1  H  7997  8009       L1     3  0.73

> <Gold.PLP.Chemscore.Internal.Correction>
0.0279

> <Gold.Rescore>
     Score         DG    S(hbond)    S(metal)    S(lipo)     H(rot)  DE(clash)    DE(int)     intcor
     17.53     -18.31       1.78        0.00     110.46       2.36       0.19       0.59       ----

> <Gold.Chemscore.Fitness>
17.5344

> <Gold.Chemscore.DG>
-18.3077

> <Gold.Chemscore.ZeroCoef>
-5.4800

> <Gold.Chemscore.Hbond>
1.7792

> <Gold.Chemscore.Metal>
0.0000

> <Gold.Chemscore.Lipo>
110.4648

> <Gold.Chemscore.Internal_Hbond>
0.0000

> <Gold.Chemscore.DEClash>
0.1881

> <Gold.Chemscore.DEInternal>
0.5852

> <Gold.Chemscore.Rot>
2.3591

> <Gold.Chemscore.Internal.Correction>
   9.000000E+99

> <Gold.Chemscore.Hbonds>
donor molecule, donor type, donor heavy atom, donor atom, acceptor molecule, acceptor atom, score
      L1  H    13    32       P1  8028  0.93
      P1  H  7997  8009       L1     3  0.71

> <Gold.Chemscore.Hbond.Weighted>
-5.9426

> <Gold.Chemscore.Metal.Weighted>
-0.0000

> <Gold.Chemscore.Lipo.Weighted>
-12.9244

> <Gold.Chemscore.Internal_Hbond.Weighted>
0.0000

> <Gold.Chemscore.DEClash.Weighted>
0.1881

> <Gold.Chemscore.DEInternal.Weighted>
0.5852

> <Gold.Chemscore.Rot.Weighted>
6.0393

> <Gold.Chemscore.Internal.Correction.Weighted>
   9.000000E+99

> <Gold.Protein.RotatedTorsions>
[ 6907 6896 6895 6894 ] final -149.49 input  -60.11 | X-H torsion
[ 7974 7965 7964 7962 ] final  119.10 input  175.53 | X-H torsion
[ 8008 7997 7996 7995 ] final  174.67 input   59.86 | X-H torsion
[ 10167 10162 10161 10158 ] final  -95.51 input  -65.29 | X-H torsion
[ 10718 10713 10712 10709 ] final  178.68 input   66.30 | X-H torsion
[ 10763 10752 10751 10750 ] final -171.95 input  -60.55 | X-H torsion
[ 11005 11000 10999 10996 ] final   45.54 input  -57.11 | X-H torsion

> <Gold.Protein.ActiveResidues>
 VAL166  LYS551  ARG553  GLY616  TRP617  ASP618  TYR619  PRO620  LYS621  CYS622 
 ASP623  PHE694  ASN695  SER759  ASP760  ASP761  ALA762  ILE779  LEU786  VAL792 
 PHE793  MET794  SER795  GLU796  ALA797  LYS798  CYS799  TRP800  GLU811  SER814 

> <Gold.Protein.RotatedAtoms>
  151.1848  133.4702  159.2594 H   0  0  0  0  0  0  0  0  0  0  0  0  # atno 6907 bound_to 6896
  151.1222  135.0085  159.8554 H   0  0  0  0  0  0  0  0  0  0  0  0  # atno 6908 bound_to 6896
  152.5456  134.1759  159.8668 H   0  0  0  0  0  0  0  0  0  0  0  0  # atno 6909 bound_to 6896
  145.1472  139.3232  143.4585 H   0  0  0  0  0  0  0  0  0  0  0  0  # atno 7974 bound_to 7965
  156.0950  140.1428  156.9543 H   0  0  0  0  0  0  0  0  0  0  0  0  # atno 8008 bound_to 7997
  154.4666  140.0924  156.7081 H   0  0  0  0  0  0  0  0  0  0  0  0  # atno 8009 bound_to 7997
  155.4856  140.3446  155.4349 H   0  0  0  0  0  0  0  0  0  0  0  0  # atno 8010 bound_to 7997
  140.3034  143.3149  152.0225 H   0  0  0  0  0  0  0  0  0  0  0  0  # atno 10167 bound_to 10162
  156.8870  130.9835  151.3054 H   0  0  0  0  0  0  0  0  0  0  0  0  # atno 10718 bound_to 10713
  154.6247  135.2879  155.0285 H   0  0  0  0  0  0  0  0  0  0  0  0  # atno 10763 bound_to 10752
  154.1467  135.6510  153.4958 H   0  0  0  0  0  0  0  0  0  0  0  0  # atno 10764 bound_to 10752
  153.0252  135.5346  154.7051 H   0  0  0  0  0  0  0  0  0  0  0  0  # atno 10765 bound_to 10752
  140.1450  134.4534  155.8422 H   0  0  0  0  0  0  0  0  0  0  0  0  # atno 11005 bound_to 11000
  146.3498  140.1532  142.8592 LP  0  0  0  0  0  0  0  0  0  0  0  0  # atno 17320 bound_to 7965
  145.0469  140.8988  143.5019 LP  0  0  0  0  0  0  0  0  0  0  0  0  # atno 17321 bound_to 7965
  139.4910  144.6439  151.6819 LP  0  0  0  0  0  0  0  0  0  0  0  0  # atno 17342 bound_to 10162
  140.5631  144.0235  150.6179 LP  0  0  0  0  0  0  0  0  0  0  0  0  # atno 17343 bound_to 10162
  157.6106  130.8580  149.8946 LP  0  0  0  0  0  0  0  0  0  0  0  0  # atno 17370 bound_to 10713
  156.0648  130.3694  150.0903 LP  0  0  0  0  0  0  0  0  0  0  0  0  # atno 17371 bound_to 10713
  141.2191  133.6849  156.7317 LP  0  0  0  0  0  0  0  0  0  0  0  0  # atno 17394 bound_to 11000
  140.2675  134.8418  157.3816 LP  0  0  0  0  0  0  0  0  0  0  0  0  # atno 17395 bound_to 11000

$$$$
