AV-unprocessed.smi:3352|AV-procd|sdf|12952|dock8
  -GOLD-   2272019393D 1   1.00000     0.00000
 Structure written by MMmdl.
 38 39  0  0  0  0  0  0  0  0  1 V2000
  155.3467  139.4958  160.6422 C   0  0  0  0  0  0  0  0  0  0  0  0
  154.8575  140.7420  159.8900 C   0  0  0  0  0  0  0  0  0  0  0  0
  154.7480  141.9722  160.8018 C   0  0  0  0  0  0  0  0  0  0  0  0
  153.5814  140.4840  159.1507 C   0  0  0  0  0  0  0  0  0  0  0  0
  153.3681  139.3889  158.4154 N   0  0  0  0  0  0  0  0  0  0  0  0
  152.1030  139.3740  157.8182 C   0  0  0  0  0  0  0  0  0  0  0  0
  151.6917  138.2139  156.9594 C   0  0  0  0  0  0  0  0  0  0  0  0
  150.7964  138.6950  155.8169 C   0  0  0  0  0  0  0  0  0  0  0  0
  151.2534  139.4396  154.9496 O   0  0  0  0  0  0  0  0  0  0  0  0
  149.5262  138.2612  155.8286 N   0  0  0  0  0  0  0  0  0  0  0  0
  148.5132  138.5938  154.8339 C   0  0  0  0  0  0  0  0  0  0  0  0
  148.3491  140.1149  154.6798 C   0  0  1  0  0  0  0  0  0  0  0  0
  147.1593  140.5153  153.8087 C   0  0  0  0  0  0  0  0  0  0  0  0
  146.8611  141.9067  154.3178 C   0  0  0  0  0  0  0  0  0  0  0  0
  147.1059  141.7457  155.8146 C   0  0  0  0  0  0  0  0  0  0  0  0
  148.1050  140.7372  155.9401 O   0  0  0  0  0  0  0  0  0  0  0  0
  151.3568  140.4901  158.1060 C   0  0  0  0  0  0  0  0  0  0  0  0
  152.2143  141.5961  159.1425 S   0  0  0  0  0  0  0  0  0  0  0  0
  155.4804  138.6544  159.9614 H   0  0  0  0  0  0  0  0  0  0  0  0
  154.6389  139.1917  161.4140 H   0  0  0  0  0  0  0  0  0  0  0  0
  156.3050  139.6824  161.1277 H   0  0  0  0  0  0  0  0  0  0  0  0
  155.6171  140.9733  159.1415 H   0  0  0  0  0  0  0  0  0  0  0  0
  154.4697  142.8589  160.2311 H   0  0  0  0  0  0  0  0  0  0  0  0
  155.6982  142.1817  161.2936 H   0  0  0  0  0  0  0  0  0  0  0  0
  153.9972  141.8264  161.5790 H   0  0  0  0  0  0  0  0  0  0  0  0
  152.5684  137.7166  156.5423 H   0  0  0  0  0  0  0  0  0  0  0  0
  151.1627  137.4608  157.5455 H   0  0  0  0  0  0  0  0  0  0  0  0
  149.2415  137.6544  156.5840 H   0  0  0  0  0  0  0  0  0  0  0  0
  148.8349  138.1649  153.8846 H   0  0  0  0  0  0  0  0  0  0  0  0
  147.5587  138.1237  155.0765 H   0  0  0  0  0  0  0  0  0  0  0  0
  149.2569  140.5524  154.2607 H   0  0  0  0  0  0  0  0  0  0  0  0
  147.3844  140.4882  152.7421 H   0  0  0  0  0  0  0  0  0  0  0  0
  146.3062  139.8610  153.9953 H   0  0  0  0  0  0  0  0  0  0  0  0
  147.5691  142.6204  153.8941 H   0  0  0  0  0  0  0  0  0  0  0  0
  145.8511  142.2442  154.0841 H   0  0  0  0  0  0  0  0  0  0  0  0
  147.4173  142.6770  156.2879 H   0  0  0  0  0  0  0  0  0  0  0  0
  146.2006  141.3978  156.3136 H   0  0  0  0  0  0  0  0  0  0  0  0
  150.3566  140.7256  157.7735 H   0  0  0  0  0  0  0  0  0  0  0  0
  1  2  1  0  0  0  0
  1 19  1  0  0  0  0
  1 20  1  0  0  0  0
  1 21  1  0  0  0  0
  2  3  1  0  0  0  0
  2  4  1  0  0  0  0
  2 22  1  0  0  0  0
  3 23  1  0  0  0  0
  3 24  1  0  0  0  0
  3 25  1  0  0  0  0
  4 18  1  0  0  0  0
  4  5  2  0  0  0  0
  5  6  1  0  0  0  0
  6  7  1  0  0  0  0
  6 17  2  0  0  0  0
  7  8  1  0  0  0  0
  7 26  1  0  0  0  0
  7 27  1  0  0  0  0
  8  9  2  0  0  0  0
  8 10  1  0  0  0  0
 10 11  1  0  0  0  0
 10 28  1  0  0  0  0
 11 12  1  0  0  0  0
 11 29  1  0  0  0  0
 11 30  1  0  0  0  0
 12 16  1  0  0  0  0
 12 13  1  0  0  0  0
 12 31  1  0  0  0  0
 13 14  1  0  0  0  0
 13 32  1  0  0  0  0
 13 33  1  0  0  0  0
 14 15  1  0  0  0  0
 14 34  1  0  0  0  0
 14 35  1  0  0  0  0
 15 16  1  0  0  0  0
 15 36  1  0  0  0  0
 15 37  1  0  0  0  0
 17 18  1  0  0  0  0
 17 38  1  0  0  0  0
M  END
> <s_m_source_file>
AV-unprocessed.smi

> <i_m_source_file_index>
3352

> <i_lp_mmshare_version>
43012

> <i_f3d_flags>
0

> <s_epik_input>
W0NIM11bQ0hdKFtDSDNdKWMxbmMoW2NIXXMxKVtDSDJdQyg9TylbTkhdW0NIMl1bQ0BASF0yW0NIMl1bQ0gyXVtDSDJdTzI=

> <s_epik_cmdline>
J2VwaWtfcHl0aG9uJywgJy1waCcsICc3LjAnLCAnLXRuJywgJzgnLCAnLW1hJywgJzIwMCcsICctbWV0YWxfYmluZGluZycsICctaW1hZScsICc8aW5maWxlLm1hZT4nLCAnLW9tYWUnLCAnPG91dGZpbGUubWFlPic=

> <r_lp_tautomer_probability>
1

> <r_epik_Ionization_Penalty>
4.66014e-05

> <r_epik_Ionization_Penalty_Charging>
0

> <r_epik_Ionization_Penalty_Neutral>
4.66014e-05

> <r_epik_State_Penalty>
-0

> <r_epik_Charging_Adjusted_Penalty>
0

> <i_epik_Tot_Q>
0

> <i_epik_Tot_abs_Q>
0

> <r_epik_Metal_State_Penalty>
-0

> <b_epik_Metal_Only>
0

> <s_lp_Force_Field>
OPLS_2005

> <r_lp_Energy>
9.02769

> <b_lp_Chiralities_Consistent>
1

> <s_lp_Variant>
AV-unprocessed.smi:3352-2

> <Gold.Version>
5.8.1

> <Gold.Id.Protein>
6NUR|6NUR_protein|mol2

> <Gold.PLP.Fitness>
35.6745

> <Gold.PLP.PLP>
-31.0225

> <Gold.PLP.part.hbond>
-1.7443

> <Gold.PLP.part.metal>
0.0000

> <Gold.PLP.part.buried>
-2.1886

> <Gold.PLP.part.nonpolar>
-27.2730

> <Gold.PLP.part.repulsive>
0.1617

> <Gold.PLP.ligand.clash>
0.0000

> <Gold.PLP.ligand.torsion>
0.6960

> <Gold.PLP.Chemscore.Hbond>
1.9920

> <Gold.PLP.Chemscore.CHOScore>
0.0000

> <Gold.PLP.Chemscore.Metal>
0.0000

> <Gold.Chemscore.Hbonds>
donor molecule, donor type, donor heavy atom, donor atom, acceptor molecule, acceptor atom, score
      P1  H  7989  7998       L1     9  0.91
      P1  H  7997  8008       L1     5  0.50

> <Gold.PLP.Chemscore.Internal.Correction>
0.0680

> <Gold.Rescore>
     Score         DG    S(hbond)    S(metal)    S(lipo)     H(rot)  DE(clash)    DE(int)     intcor
     14.59     -15.47       1.26        0.00      83.31       1.55       0.06       0.82       ----

> <Gold.Chemscore.Fitness>
14.5896

> <Gold.Chemscore.DG>
-15.4705

> <Gold.Chemscore.ZeroCoef>
-5.4800

> <Gold.Chemscore.Hbond>
1.2623

> <Gold.Chemscore.Metal>
0.0000

> <Gold.Chemscore.Lipo>
83.3084

> <Gold.Chemscore.Internal_Hbond>
0.0000

> <Gold.Chemscore.DEClash>
0.0584

> <Gold.Chemscore.DEInternal>
0.8224

> <Gold.Chemscore.Rot>
1.5518

> <Gold.Chemscore.Internal.Correction>
   9.000000E+99

> <Gold.Chemscore.Hbonds>
donor molecule, donor type, donor heavy atom, donor atom, acceptor molecule, acceptor atom, score
      P1  H  7989  7998       L1     9  0.87
      P1  H  7997  8008       L1     5  0.02

> <Gold.Chemscore.Hbond.Weighted>
-4.2160

> <Gold.Chemscore.Metal.Weighted>
-0.0000

> <Gold.Chemscore.Lipo.Weighted>
-9.7471

> <Gold.Chemscore.Internal_Hbond.Weighted>
0.0000

> <Gold.Chemscore.DEClash.Weighted>
0.0584

> <Gold.Chemscore.DEInternal.Weighted>
0.8224

> <Gold.Chemscore.Rot.Weighted>
3.9727

> <Gold.Chemscore.Internal.Correction.Weighted>
   9.000000E+99

> <Gold.Protein.RotatedTorsions>
[ 6907 6896 6895 6894 ] final   50.71 input  -60.11 | X-H torsion
[ 7974 7965 7964 7962 ] final  160.74 input  175.53 | X-H torsion
[ 8008 7997 7996 7995 ] final  -91.78 input   59.86 | X-H torsion
[ 10167 10162 10161 10158 ] final  -56.81 input  -65.29 | X-H torsion
[ 10718 10713 10712 10709 ] final  -87.94 input   66.30 | X-H torsion
[ 10763 10752 10751 10750 ] final   95.18 input  -60.55 | X-H torsion
[ 11005 11000 10999 10996 ] final  134.63 input  -57.11 | X-H torsion

> <Gold.Protein.ActiveResidues>
 VAL166  LYS551  ARG553  GLY616  TRP617  ASP618  TYR619  PRO620  LYS621  CYS622 
 ASP623  PHE694  ASN695  SER759  ASP760  ASP761  ALA762  ILE779  LEU786  VAL792 
 PHE793  MET794  SER795  GLU796  ALA797  LYS798  CYS799  TRP800  GLU811  SER814 

> <Gold.Protein.RotatedAtoms>
  152.3048  134.7568  160.0349 H   0  0  0  0  0  0  0  0  0  0  0  0  # atno 6907 bound_to 6896
  151.8069  133.3371  159.3552 H   0  0  0  0  0  0  0  0  0  0  0  0  # atno 6908 bound_to 6896
  150.7291  134.5630  159.5896 H   0  0  0  0  0  0  0  0  0  0  0  0  # atno 6909 bound_to 6896
  144.7721  139.7800  143.6293 H   0  0  0  0  0  0  0  0  0  0  0  0  # atno 7974 bound_to 7965
  154.7150  140.0516  157.0586 H   0  0  0  0  0  0  0  0  0  0  0  0  # atno 8008 bound_to 7997
  155.0504  140.3178  155.4675 H   0  0  0  0  0  0  0  0  0  0  0  0  # atno 8009 bound_to 7997
  156.2800  140.2117  156.5630 H   0  0  0  0  0  0  0  0  0  0  0  0  # atno 8010 bound_to 7997
  140.6295  143.2453  151.5278 H   0  0  0  0  0  0  0  0  0  0  0  0  # atno 10167 bound_to 10162
  155.9984  130.4818  150.4943 H   0  0  0  0  0  0  0  0  0  0  0  0  # atno 10718 bound_to 10713
  153.2502  135.4263  155.0790 H   0  0  0  0  0  0  0  0  0  0  0  0  # atno 10763 bound_to 10752
  154.8378  135.3424  154.6523 H   0  0  0  0  0  0  0  0  0  0  0  0  # atno 10764 bound_to 10752
  153.6945  135.7032  153.5137 H   0  0  0  0  0  0  0  0  0  0  0  0  # atno 10765 bound_to 10752
  139.9927  134.9509  156.9894 H   0  0  0  0  0  0  0  0  0  0  0  0  # atno 11005 bound_to 11000
  146.1875  139.5098  142.9827 LP  0  0  0  0  0  0  0  0  0  0  0  0  # atno 17320 bound_to 7965
  145.6293  141.0307  143.1872 LP  0  0  0  0  0  0  0  0  0  0  0  0  # atno 17321 bound_to 7965
  139.5511  144.2394  152.1531 LP  0  0  0  0  0  0  0  0  0  0  0  0  # atno 17342 bound_to 10162
  140.1634  144.5004  150.6620 LP  0  0  0  0  0  0  0  0  0  0  0  0  # atno 17343 bound_to 10162
  157.2934  131.0631  151.2118 LP  0  0  0  0  0  0  0  0  0  0  0  0  # atno 17370 bound_to 10713
  157.3122  130.6895  149.6222 LP  0  0  0  0  0  0  0  0  0  0  0  0  # atno 17371 bound_to 10713
  140.4877  134.1225  155.7227 LP  0  0  0  0  0  0  0  0  0  0  0  0  # atno 17394 bound_to 11000
  141.1579  133.8848  157.1927 LP  0  0  0  0  0  0  0  0  0  0  0  0  # atno 17395 bound_to 11000

$$$$
