AV-unprocessed.smi:2854|AV-procd|sdf|10976|dock1
  -GOLD-   2272015433D 1   1.00000     0.00000
 Structure written by MMmdl.
 26 27  0  0  0  0  0  0  0  0  1 V2000
  142.0416  133.9447  154.5265 N   0  0  0  0  0  0  0  0  0  0  0  0
  142.3693  135.1198  153.8465 C   0  0  0  0  0  0  0  0  0  0  0  0
  141.6575  136.3081  154.1149 C   0  0  0  0  0  0  0  0  0  0  0  0
  141.9112  137.4835  153.5019 N   0  0  0  0  0  0  0  0  0  0  0  0
  142.9004  137.5143  152.5848 C   0  0  0  0  0  0  0  0  0  0  0  0
  143.6731  136.3880  152.2407 C   0  0  0  0  0  0  0  0  0  0  0  0
  143.4065  135.1577  152.8834 C   0  0  0  0  0  0  0  0  0  0  0  0
  144.1438  134.0016  152.5792 N   0  0  0  0  0  0  0  0  0  0  0  0
  143.7531  133.3769  151.3220 C   0  0  0  0  0  0  0  0  0  0  0  0
  144.5140  132.0530  151.1352 C   0  0  0  0  0  0  0  0  0  0  0  0
  145.9166  132.2931  151.2117 O   0  0  0  0  0  0  0  0  0  0  0  0
  146.2988  132.8338  152.4738 C   0  0  0  0  0  0  0  0  0  0  0  0
  145.5855  134.1789  152.6954 C   0  0  0  0  0  0  0  0  0  0  0  0
  142.5323  133.0787  154.3565 H   0  0  0  0  0  0  0  0  0  0  0  0
  141.3031  133.9279  155.2155 H   0  0  0  0  0  0  0  0  0  0  0  0
  140.8595  136.3180  154.8433 H   0  0  0  0  0  0  0  0  0  0  0  0
  143.0825  138.4666  152.1089 H   0  0  0  0  0  0  0  0  0  0  0  0
  144.4521  136.4730  151.4974 H   0  0  0  0  0  0  0  0  0  0  0  0
  142.6776  133.1950  151.3183 H   0  0  0  0  0  0  0  0  0  0  0  0
  143.9711  134.0484  150.4905 H   0  0  0  0  0  0  0  0  0  0  0  0
  144.2176  131.3238  151.8911 H   0  0  0  0  0  0  0  0  0  0  0  0
  144.2794  131.6179  150.1637 H   0  0  0  0  0  0  0  0  0  0  0  0
  146.0572  132.1291  153.2711 H   0  0  0  0  0  0  0  0  0  0  0  0
  147.3796  132.9737  152.4889 H   0  0  0  0  0  0  0  0  0  0  0  0
  145.9316  134.9052  151.9589 H   0  0  0  0  0  0  0  0  0  0  0  0
  145.8307  134.5751  153.6816 H   0  0  0  0  0  0  0  0  0  0  0  0
  1  2  1  0  0  0  0
  1 14  1  0  0  0  0
  1 15  1  0  0  0  0
  2  7  1  0  0  0  0
  2  3  2  0  0  0  0
  3  4  1  0  0  0  0
  3 16  1  0  0  0  0
  4  5  2  0  0  0  0
  5  6  1  0  0  0  0
  5 17  1  0  0  0  0
  6  7  2  0  0  0  0
  6 18  1  0  0  0  0
  7  8  1  0  0  0  0
  8 13  1  0  0  0  0
  8  9  1  0  0  0  0
  9 10  1  0  0  0  0
  9 19  1  0  0  0  0
  9 20  1  0  0  0  0
 10 11  1  0  0  0  0
 10 21  1  0  0  0  0
 10 22  1  0  0  0  0
 11 12  1  0  0  0  0
 12 13  1  0  0  0  0
 12 23  1  0  0  0  0
 12 24  1  0  0  0  0
 13 25  1  0  0  0  0
 13 26  1  0  0  0  0
M  END
> <s_m_source_file>
AV-unprocessed.smi

> <i_m_source_file_index>
2854

> <i_lp_mmshare_version>
43012

> <i_f3d_flags>
0

> <s_epik_input>
W05IMl1jMVtjSF1uW2NIXVtjSF1jMU4yW0NIMl1bQ0gyXU9bQ0gyXVtDSDJdMg==

> <s_epik_cmdline>
J2VwaWtfcHl0aG9uJywgJy1waCcsICc3LjAnLCAnLXRuJywgJzgnLCAnLW1hJywgJzIwMCcsICctbWV0YWxfYmluZGluZycsICctaW1hZScsICc8aW5maWxlLm1hZT4nLCAnLW9tYWUnLCAnPG91dGZpbGUubWFlPic=

> <r_lp_tautomer_probability>
1

> <r_epik_Ionization_Penalty>
1.93711

> <r_epik_Ionization_Penalty_Charging>
0

> <r_epik_Ionization_Penalty_Neutral>
1.93711

> <r_epik_State_Penalty>
2.06104

> <r_epik_Charging_Adjusted_Penalty>
2.06104

> <i_epik_Tot_Q>
0

> <i_epik_Tot_abs_Q>
0

> <r_epik_Metal_State_Penalty>
0.0183267

> <b_epik_Metal_Only>
0

> <s_lp_Force_Field>
OPLS_2005

> <r_lp_Energy>
22.5874

> <b_lp_Chiralities_Consistent>
1

> <s_lp_Variant>
AV-unprocessed.smi:2854-2

> <Gold.Version>
5.8.1

> <Gold.Id.Protein>
6NUR|6NUR_protein|mol2

> <Gold.PLP.Fitness>
28.4484

> <Gold.PLP.PLP>
-18.5653

> <Gold.PLP.part.hbond>
-1.1235

> <Gold.PLP.part.metal>
0.0000

> <Gold.PLP.part.buried>
-2.2827

> <Gold.PLP.part.nonpolar>
-15.1596

> <Gold.PLP.part.repulsive>
0.4827

> <Gold.PLP.ligand.clash>
0.0000

> <Gold.PLP.ligand.torsion>
0.2670

> <Gold.PLP.Chemscore.Hbond>
1.5512

> <Gold.PLP.Chemscore.CHOScore>
1.8830

> <Gold.PLP.Chemscore.Metal>
0.0000

> <Gold.Chemscore.Hbonds>
donor molecule, donor type, donor heavy atom, donor atom, acceptor molecule, acceptor atom, score
      L1  H     1    14       P1 10957  0.52
      L1  H     1    15       P1 11000  1.00
      L1  C     3    16       P1 11000  0.09
      L1  C     5    17       P1 10171  0.83
      L1  C     5    17       P1 10175  1.00

> <Gold.PLP.Chemscore.Internal.Correction>
0.1146

> <Gold.Rescore>
     Score         DG    S(hbond)    S(metal)    S(lipo)     H(rot)  DE(clash)    DE(int)     intcor
     13.93     -14.60       1.93        0.00      44.68       1.00       0.53       0.14       ----

> <Gold.Chemscore.Fitness>
13.9310

> <Gold.Chemscore.DG>
-14.5968

> <Gold.Chemscore.ZeroCoef>
-5.4800

> <Gold.Chemscore.Hbond>
1.9311

> <Gold.Chemscore.Metal>
0.0000

> <Gold.Chemscore.Lipo>
44.6757

> <Gold.Chemscore.Internal_Hbond>
0.0000

> <Gold.Chemscore.DEClash>
0.5299

> <Gold.Chemscore.DEInternal>
0.1360

> <Gold.Chemscore.Rot>
1.0000

> <Gold.Chemscore.Internal.Correction>
   9.000000E+99

> <Gold.Chemscore.Hbonds>
donor molecule, donor type, donor heavy atom, donor atom, acceptor molecule, acceptor atom, score
      L1  H     1    14       P1 10957  0.53
      L1  H     1    15       P1 11000  0.97

> <Gold.Chemscore.Hbond.Weighted>
-6.4498

> <Gold.Chemscore.Metal.Weighted>
-0.0000

> <Gold.Chemscore.Lipo.Weighted>
-5.2271

> <Gold.Chemscore.Internal_Hbond.Weighted>
0.0000

> <Gold.Chemscore.DEClash.Weighted>
0.5299

> <Gold.Chemscore.DEInternal.Weighted>
0.1360

> <Gold.Chemscore.Rot.Weighted>
2.5600

> <Gold.Chemscore.Internal.Correction.Weighted>
   9.000000E+99

> <Gold.Protein.RotatedTorsions>
[ 6907 6896 6895 6894 ] final -151.98 input  -60.11 | X-H torsion
[ 7974 7965 7964 7962 ] final  152.79 input  175.53 | X-H torsion
[ 8008 7997 7996 7995 ] final   96.29 input   59.86 | X-H torsion
[ 10167 10162 10161 10158 ] final  155.64 input  -65.29 | X-H torsion
[ 10718 10713 10712 10709 ] final  -69.58 input   66.30 | X-H torsion
[ 10763 10752 10751 10750 ] final -120.87 input  -60.55 | X-H torsion
[ 11005 11000 10999 10996 ] final -175.58 input  -57.11 | X-H torsion

> <Gold.Protein.ActiveResidues>
 VAL166  LYS551  ARG553  GLY616  TRP617  ASP618  TYR619  PRO620  LYS621  CYS622 
 ASP623  PHE694  ASN695  SER759  ASP760  ASP761  ALA762  ILE779  LEU786  VAL792 
 PHE793  MET794  SER795  GLU796  ALA797  LYS798  CYS799  TRP800  GLU811  SER814 

> <Gold.Protein.RotatedAtoms>
  151.2210  133.4502  159.2600 H   0  0  0  0  0  0  0  0  0  0  0  0  # atno 6907 bound_to 6896
  151.0885  134.9902  159.8401 H   0  0  0  0  0  0  0  0  0  0  0  0  # atno 6908 bound_to 6896
  152.5432  134.2145  159.8816 H   0  0  0  0  0  0  0  0  0  0  0  0  # atno 6909 bound_to 6896
  144.8198  139.6715  143.6105 H   0  0  0  0  0  0  0  0  0  0  0  0  # atno 7974 bound_to 7965
  156.0781  140.3274  155.7659 H   0  0  0  0  0  0  0  0  0  0  0  0  # atno 8008 bound_to 7997
  155.5197  140.0584  157.2926 H   0  0  0  0  0  0  0  0  0  0  0  0  # atno 8009 bound_to 7997
  154.4567  140.1946  156.0378 H   0  0  0  0  0  0  0  0  0  0  0  0  # atno 8010 bound_to 7997
  139.4821  144.5080  151.8068 H   0  0  0  0  0  0  0  0  0  0  0  0  # atno 10167 bound_to 10162
  156.0449  130.4315  150.2168 H   0  0  0  0  0  0  0  0  0  0  0  0  # atno 10718 bound_to 10713
  154.8655  135.4188  154.2529 H   0  0  0  0  0  0  0  0  0  0  0  0  # atno 10763 bound_to 10752
  153.3472  135.6997  153.6824 H   0  0  0  0  0  0  0  0  0  0  0  0  # atno 10764 bound_to 10752
  153.5779  135.3578  155.2836 H   0  0  0  0  0  0  0  0  0  0  0  0  # atno 10765 bound_to 10752
  140.4617  134.6248  157.4845 H   0  0  0  0  0  0  0  0  0  0  0  0  # atno 11005 bound_to 11000
  146.2503  139.6185  142.9431 LP  0  0  0  0  0  0  0  0  0  0  0  0  # atno 17320 bound_to 7965
  145.5131  141.0435  143.2477 LP  0  0  0  0  0  0  0  0  0  0  0  0  # atno 17321 bound_to 7965
  140.4580  144.1762  150.5903 LP  0  0  0  0  0  0  0  0  0  0  0  0  # atno 17342 bound_to 10162
  140.4515  143.2485  151.9342 LP  0  0  0  0  0  0  0  0  0  0  0  0  # atno 17343 bound_to 10162
  157.0259  130.9993  151.3326 LP  0  0  0  0  0  0  0  0  0  0  0  0  # atno 17370 bound_to 10713
  157.5311  130.8059  149.7918 LP  0  0  0  0  0  0  0  0  0  0  0  0  # atno 17371 bound_to 10713
  139.9941  134.6939  155.9640 LP  0  0  0  0  0  0  0  0  0  0  0  0  # atno 17394 bound_to 11000
  141.1618  133.6538  156.4344 LP  0  0  0  0  0  0  0  0  0  0  0  0  # atno 17395 bound_to 11000

$$$$
