AV-unprocessed.smi:56|AV-procd|sdf|578|dock2
  -GOLD-   2262016483D 1   1.00000     0.00000
 Structure written by MMmdl.
 23 24  0  0  0  0  0  0  0  0  2 V2000
  144.6257  134.5019  150.1209 O   0  0  0  0  0  0  0  0  0  0  0  0
  144.7488  133.1065  150.3462 C   0  0  2  0  0  0  0  0  0  0  0  0
  145.8586  132.8197  151.3352 C   0  0  0  0  0  0  0  0  0  0  0  0
  145.7973  132.1233  152.5817 C   0  0  0  0  0  0  0  0  0  0  0  0
  147.0773  132.1627  153.0558 C   0  0  0  0  0  0  0  0  0  0  0  0
  147.8183  132.8473  152.1238 N   0  0  0  0  0  0  0  0  0  0  0  0
  147.0857  133.2543  151.0713 N   0  0  0  0  0  0  0  0  0  0  0  0
  144.9304  132.3991  148.9990 C   0  0  0  0  0  0  0  0  0  0  0  0
  143.5120  132.2957  148.4182 C   0  0  0  0  0  0  0  0  0  0  0  0
  142.5774  132.4793  149.5480 N   0  3  0  0  0  0  0  0  0  0  0  0
  143.3744  132.5797  150.7843 C   0  0  0  0  0  0  0  0  0  0  0  0
  148.8072  133.0433  152.1915 H   0  0  0  0  0  0  0  0  0  0  0  0
  144.9045  134.6980  149.2404 H   0  0  0  0  0  0  0  0  0  0  0  0
  144.9453  131.6649  153.0614 H   0  0  0  0  0  0  0  0  0  0  0  0
  147.5140  131.7693  153.9621 H   0  0  0  0  0  0  0  0  0  0  0  0
  145.6365  132.9006  148.3357 H   0  0  0  0  0  0  0  0  0  0  0  0
  145.3086  131.3894  149.1685 H   0  0  0  0  0  0  0  0  0  0  0  0
  143.3332  133.0824  147.6848 H   0  0  0  0  0  0  0  0  0  0  0  0
  143.3479  131.3354  147.9286 H   0  0  0  0  0  0  0  0  0  0  0  0
  142.0793  133.3471  149.4113 H   0  0  0  0  0  0  0  0  0  0  0  0
  143.4612  131.5670  151.1801 H   0  0  0  0  0  0  0  0  0  0  0  0
  142.8910  133.1947  151.5446 H   0  0  0  0  0  0  0  0  0  0  0  0
  141.9190  131.7152  149.6072 H   0  0  0  0  0  0  0  0  0  0  0  0
  1  2  1  0  0  0  0
  1 13  1  0  0  0  0
  2 11  1  0  0  0  0
  2  8  1  0  0  0  0
  2  3  1  0  0  0  0
  3  7  2  0  0  0  0
  3  4  1  0  0  0  0
  4  5  2  0  0  0  0
  4 14  1  0  0  0  0
  5  6  1  0  0  0  0
  5 15  1  0  0  0  0
  6  7  1  0  0  0  0
  6 12  1  0  0  0  0
  8  9  1  0  0  0  0
  8 16  1  0  0  0  0
  8 17  1  0  0  0  0
  9 10  1  0  0  0  0
  9 18  1  0  0  0  0
  9 19  1  0  0  0  0
 10 11  1  0  0  0  0
 10 20  1  0  0  0  0
 10 23  1  0  0  0  0
 11 21  1  0  0  0  0
 11 22  1  0  0  0  0
M  CHG  1  10   1
M  END
> <s_m_source_file>
AV-unprocessed.smi

> <i_m_source_file_index>
56

> <i_lp_mmshare_version>
43012

> <i_f3d_flags>
0

> <s_epik_input>
W0NIMl0xW05IXVtDSDJdW0NIMl1bQ0BAXTEoW09IXSljMltjSF1bY0hdbltuSF0y

> <s_epik_cmdline>
J2VwaWtfcHl0aG9uJywgJy1waCcsICc3LjAnLCAnLXRuJywgJzgnLCAnLW1hJywgJzIwMCcsICctbWV0YWxfYmluZGluZycsICctaW1hZScsICc8aW5maWxlLm1hZT4nLCAnLW9tYWUnLCAnPG91dGZpbGUubWFlPic=

> <r_lp_tautomer_probability>
0.5

> <r_epik_Ionization_Penalty>
0.000592189

> <r_epik_Ionization_Penalty_Charging>
0.00059155

> <r_epik_Ionization_Penalty_Neutral>
6.39784e-07

> <r_epik_State_Penalty>
0.41068

> <r_epik_Charging_Adjusted_Penalty>
0.411271

> <i_epik_Tot_Q>
1

> <i_epik_Tot_abs_Q>
1

> <r_epik_Metal_State_Penalty>
0.410682

> <b_epik_Metal_Only>
0

> <s_lp_Force_Field>
OPLS_2005

> <r_lp_Energy>
24.7565

> <b_lp_Chiralities_Consistent>
1

> <s_lp_Variant>
AV-unprocessed.smi:56-2

> <Gold.Version>
5.8.1

> <Gold.Id.Protein>
6NUR|6NUR_protein|mol2

> <Gold.PLP.Fitness>
33.7831

> <Gold.PLP.PLP>
-21.8413

> <Gold.PLP.part.hbond>
-3.9305

> <Gold.PLP.part.metal>
0.0000

> <Gold.PLP.part.buried>
-1.5465

> <Gold.PLP.part.nonpolar>
-16.4919

> <Gold.PLP.part.repulsive>
0.3878

> <Gold.PLP.ligand.clash>
0.0000

> <Gold.PLP.ligand.torsion>
0.0400

> <Gold.PLP.Chemscore.Hbond>
4.0000

> <Gold.PLP.Chemscore.CHOScore>
0.0000

> <Gold.PLP.Chemscore.Metal>
0.0000

> <Gold.Chemscore.Hbonds>
donor molecule, donor type, donor heavy atom, donor atom, acceptor molecule, acceptor atom, score
      L1  H     1    13       P1  7921  1.00
      L1  H    10    20       P1 10186  1.95
      L1  H    10    23       P1 10952  1.00

> <Gold.PLP.Chemscore.Internal.Correction>
0.0218

> <Gold.Rescore>
     Score         DG    S(hbond)    S(metal)    S(lipo)     H(rot)  DE(clash)    DE(int)     intcor
     17.84     -19.18       2.97        0.00      65.21       1.50       1.32       0.02       ----

> <Gold.Chemscore.Fitness>
17.8384

> <Gold.Chemscore.DG>
-19.1793

> <Gold.Chemscore.ZeroCoef>
-5.4800

> <Gold.Chemscore.Hbond>
2.9659

> <Gold.Chemscore.Metal>
0.0000

> <Gold.Chemscore.Lipo>
65.2096

> <Gold.Chemscore.Internal_Hbond>
0.0000

> <Gold.Chemscore.DEClash>
1.3165

> <Gold.Chemscore.DEInternal>
0.0244

> <Gold.Chemscore.Rot>
1.4985

> <Gold.Chemscore.Internal.Correction>
   9.000000E+99

> <Gold.Chemscore.Hbonds>
donor molecule, donor type, donor heavy atom, donor atom, acceptor molecule, acceptor atom, score
      L1  H     1    13       P1  7921  0.93
      L1  H    10    20       P1 10186  0.91
      L1  H    10    23       P1 10952  1.00

> <Gold.Chemscore.Hbond.Weighted>
-9.9060

> <Gold.Chemscore.Metal.Weighted>
-0.0000

> <Gold.Chemscore.Lipo.Weighted>
-7.6295

> <Gold.Chemscore.Internal_Hbond.Weighted>
0.0000

> <Gold.Chemscore.DEClash.Weighted>
1.3165

> <Gold.Chemscore.DEInternal.Weighted>
0.0244

> <Gold.Chemscore.Rot.Weighted>
3.8362

> <Gold.Chemscore.Internal.Correction.Weighted>
   9.000000E+99

> <Gold.Protein.RotatedTorsions>
[ 6907 6896 6895 6894 ] final   78.69 input  -60.11 | X-H torsion
[ 7974 7965 7964 7962 ] final -171.52 input  175.53 | X-H torsion
[ 8008 7997 7996 7995 ] final  164.95 input   59.86 | X-H torsion
[ 10167 10162 10161 10158 ] final -167.89 input  -65.29 | X-H torsion
[ 10718 10713 10712 10709 ] final  -17.38 input   66.30 | X-H torsion
[ 10763 10752 10751 10750 ] final  -19.51 input  -60.55 | X-H torsion
[ 11005 11000 10999 10996 ] final  -74.24 input  -57.11 | X-H torsion

> <Gold.Protein.ActiveResidues>
 VAL166  LYS551  ARG553  GLY616  TRP617  ASP618  TYR619  PRO620  LYS621  CYS622 
 ASP623  PHE694  ASN695  SER759  ASP760  ASP761  ALA762  ILE779  LEU786  VAL792 
 PHE793  MET794  SER795  GLU796  ALA797  LYS798  CYS799  TRP800  GLU811  SER814 

> <Gold.Protein.RotatedAtoms>
  152.5169  134.3625  159.9289 H   0  0  0  0  0  0  0  0  0  0  0  0  # atno 6907 bound_to 6896
  151.3578  133.3894  159.2694 H   0  0  0  0  0  0  0  0  0  0  0  0  # atno 6908 bound_to 6896
  150.9676  134.9073  159.7826 H   0  0  0  0  0  0  0  0  0  0  0  0  # atno 6909 bound_to 6896
  144.7156  140.1910  143.6348 H   0  0  0  0  0  0  0  0  0  0  0  0  # atno 7974 bound_to 7965
  156.1839  140.1683  156.8222 H   0  0  0  0  0  0  0  0  0  0  0  0  # atno 8008 bound_to 7997
  154.5392  140.0740  156.8512 H   0  0  0  0  0  0  0  0  0  0  0  0  # atno 8009 bound_to 7997
  155.3250  140.3375  155.4243 H   0  0  0  0  0  0  0  0  0  0  0  0  # atno 8010 bound_to 7997
  139.6020  144.0991  152.1753 H   0  0  0  0  0  0  0  0  0  0  0  0  # atno 10167 bound_to 10162
  156.5743  130.4757  149.6349 H   0  0  0  0  0  0  0  0  0  0  0  0  # atno 10718 bound_to 10713
  153.6059  135.6998  153.5366 H   0  0  0  0  0  0  0  0  0  0  0  0  # atno 10763 bound_to 10752
  153.3057  135.4115  155.1292 H   0  0  0  0  0  0  0  0  0  0  0  0  # atno 10764 bound_to 10752
  154.8573  135.3660  154.5596 H   0  0  0  0  0  0  0  0  0  0  0  0  # atno 10765 bound_to 10752
  141.1633  133.6905  156.7334 H   0  0  0  0  0  0  0  0  0  0  0  0  # atno 11005 bound_to 11000
  145.8768  139.2301  143.1628 LP  0  0  0  0  0  0  0  0  0  0  0  0  # atno 17320 bound_to 7965
  146.0033  140.8501  143.0008 LP  0  0  0  0  0  0  0  0  0  0  0  0  # atno 17321 bound_to 7965
  140.0589  144.5872  150.7278 LP  0  0  0  0  0  0  0  0  0  0  0  0  # atno 17342 bound_to 10162
  140.7257  143.2633  151.4129 LP  0  0  0  0  0  0  0  0  0  0  0  0  # atno 17343 bound_to 10162
  156.2687  130.7004  151.1795 LP  0  0  0  0  0  0  0  0  0  0  0  0  # atno 17370 bound_to 10713
  157.7341  131.0585  150.5542 LP  0  0  0  0  0  0  0  0  0  0  0  0  # atno 17371 bound_to 10713
  140.2728  134.8378  157.3863 LP  0  0  0  0  0  0  0  0  0  0  0  0  # atno 17394 bound_to 11000
  140.1505  134.4855  155.7964 LP  0  0  0  0  0  0  0  0  0  0  0  0  # atno 17395 bound_to 11000

$$$$
