AV-unprocessed.smi:479|AV-procd|sdf|2672|dock1
  -GOLD-   2262023 93D 1   1.00000     0.00000
 Structure written by MMmdl.
 45 47  0  0  0  0  0  0  0  0  1 V2000
  157.0469  140.5978  158.2963 C   0  0  0  0  0  0  0  0  0  0  0  0
  155.7610  140.0072  158.1829 O   0  0  0  0  0  0  0  0  0  0  0  0
  155.2096  139.4082  159.2970 C   0  0  0  0  0  0  0  0  0  0  0  0
  155.8959  139.2586  160.5289 C   0  0  0  0  0  0  0  0  0  0  0  0
  155.2784  138.6305  161.6350 C   0  0  0  0  0  0  0  0  0  0  0  0
  155.9810  138.4635  162.9400 C   0  0  0  0  0  0  0  0  0  0  0  0
  155.2255  137.7765  164.0767 C   0  0  0  0  0  0  0  0  0  0  0  0
  157.1328  138.8460  163.1443 O   0  0  0  0  0  0  0  0  0  0  0  0
  153.9617  138.1442  161.4923 C   0  0  0  0  0  0  0  0  0  0  0  0
  153.2724  138.2899  160.2757 C   0  0  0  0  0  0  0  0  0  0  0  0
  153.8870  138.9282  159.1714 C   0  0  0  0  0  0  0  0  0  0  0  0
  153.2652  139.1209  157.9550 O   0  0  0  0  0  0  0  0  0  0  0  0
  151.9160  138.6975  157.8044 C   0  0  0  0  0  0  0  0  0  0  0  0
  150.9619  139.8388  158.2044 C   0  0  2  0  0  0  0  0  0  0  0  0
  149.6385  139.3504  158.2706 O   0  0  0  0  0  0  0  0  0  0  0  0
  151.0247  141.0909  157.3046 C   0  0  0  0  0  0  0  0  0  0  0  0
  150.9967  142.3268  158.0673 N   0  0  0  0  0  0  0  0  0  0  0  0
  150.1482  143.3595  157.9013 C   0  0  0  0  0  0  0  0  0  0  0  0
  150.2808  144.3967  158.7231 N   0  0  0  0  0  0  0  0  0  0  0  0
  151.3470  143.9949  159.5094 C   0  0  0  0  0  0  0  0  0  0  0  0
  151.9889  144.6475  160.5863 C   0  0  0  0  0  0  0  0  0  0  0  0
  153.0733  144.0353  161.2489 C   0  0  0  0  0  0  0  0  0  0  0  0
  153.5354  142.7668  160.8426 C   0  0  0  0  0  0  0  0  0  0  0  0
  152.9135  142.0998  159.7702 C   0  0  0  0  0  0  0  0  0  0  0  0
  151.8258  142.7083  159.1175 C   0  0  0  0  0  0  0  0  0  0  0  0
  157.3180  141.0506  157.3428 H   0  0  0  0  0  0  0  0  0  0  0  0
  157.8080  139.8538  158.5357 H   0  0  0  0  0  0  0  0  0  0  0  0
  157.0587  141.3864  159.0501 H   0  0  0  0  0  0  0  0  0  0  0  0
  156.9051  139.6254  160.6274 H   0  0  0  0  0  0  0  0  0  0  0  0
  154.3435  138.3545  164.3531 H   0  0  0  0  0  0  0  0  0  0  0  0
  155.8622  137.6843  164.9571 H   0  0  0  0  0  0  0  0  0  0  0  0
  154.9120  136.7762  163.7780 H   0  0  0  0  0  0  0  0  0  0  0  0
  153.4628  137.6546  162.3163 H   0  0  0  0  0  0  0  0  0  0  0  0
  152.2678  137.9003  160.2169 H   0  0  0  0  0  0  0  0  0  0  0  0
  151.7235  138.3730  156.7804 H   0  0  0  0  0  0  0  0  0  0  0  0
  151.7261  137.8461  158.4599 H   0  0  0  0  0  0  0  0  0  0  0  0
  151.2194  140.1377  159.2212 H   0  0  0  0  0  0  0  0  0  0  0  0
  149.0897  140.0194  158.6505 H   0  0  0  0  0  0  0  0  0  0  0  0
  151.9318  141.0762  156.6993 H   0  0  0  0  0  0  0  0  0  0  0  0
  150.1868  141.0986  156.6066 H   0  0  0  0  0  0  0  0  0  0  0  0
  149.3824  143.3434  157.1396 H   0  0  0  0  0  0  0  0  0  0  0  0
  151.6453  145.6205  160.9044 H   0  0  0  0  0  0  0  0  0  0  0  0
  153.5542  144.5431  162.0720 H   0  0  0  0  0  0  0  0  0  0  0  0
  154.3667  142.3045  161.3547 H   0  0  0  0  0  0  0  0  0  0  0  0
  153.2647  141.1286  159.4564 H   0  0  0  0  0  0  0  0  0  0  0  0
  1  2  1  0  0  0  0
  1 26  1  0  0  0  0
  1 27  1  0  0  0  0
  1 28  1  0  0  0  0
  2  3  1  0  0  0  0
  3 11  1  0  0  0  0
  3  4  2  0  0  0  0
  4  5  1  0  0  0  0
  4 29  1  0  0  0  0
  5  6  1  0  0  0  0
  5  9  2  0  0  0  0
  6  7  1  0  0  0  0
  6  8  2  0  0  0  0
  7 30  1  0  0  0  0
  7 31  1  0  0  0  0
  7 32  1  0  0  0  0
  9 10  1  0  0  0  0
  9 33  1  0  0  0  0
 10 11  2  0  0  0  0
 10 34  1  0  0  0  0
 11 12  1  0  0  0  0
 12 13  1  0  0  0  0
 13 14  1  0  0  0  0
 13 35  1  0  0  0  0
 13 36  1  0  0  0  0
 14 15  1  0  0  0  0
 14 16  1  0  0  0  0
 14 37  1  0  0  0  0
 15 38  1  0  0  0  0
 16 17  1  0  0  0  0
 16 39  1  0  0  0  0
 16 40  1  0  0  0  0
 17 25  1  0  0  0  0
 17 18  1  0  0  0  0
 18 19  2  0  0  0  0
 18 41  1  0  0  0  0
 19 20  1  0  0  0  0
 20 25  2  0  0  0  0
 20 21  1  0  0  0  0
 21 22  2  0  0  0  0
 21 42  1  0  0  0  0
 22 23  1  0  0  0  0
 22 43  1  0  0  0  0
 23 24  2  0  0  0  0
 23 44  1  0  0  0  0
 24 25  1  0  0  0  0
 24 45  1  0  0  0  0
M  END
> <s_m_source_file>
AV-unprocessed.smi

> <i_m_source_file_index>
479

> <i_lp_mmshare_version>
43012

> <i_f3d_flags>
0

> <s_epik_input>
W0NIM11PYzFbY0hdYyhDKD1PKVtDSDNdKVtjSF1bY0hdYzFPW0NIMl1bQ0BIXShbT0hdKVtDSDJdbihbY0hdbjIpYyhjMjMpW2NIXVtjSF1bY0hdW2NIXTM=

> <s_epik_cmdline>
J2VwaWtfcHl0aG9uJywgJy1waCcsICc3LjAnLCAnLXRuJywgJzgnLCAnLW1hJywgJzIwMCcsICctbWV0YWxfYmluZGluZycsICctaW1hZScsICc8aW5maWxlLm1hZT4nLCAnLW9tYWUnLCAnPG91dGZpbGUubWFlPic=

> <r_lp_tautomer_probability>
0.99995

> <r_epik_Ionization_Penalty>
0.061028

> <r_epik_Ionization_Penalty_Charging>
0

> <r_epik_Ionization_Penalty_Neutral>
0.061028

> <r_epik_State_Penalty>
0.052945

> <r_epik_Charging_Adjusted_Penalty>
0.052945

> <i_epik_Tot_Q>
0

> <i_epik_Tot_abs_Q>
0

> <r_epik_Metal_State_Penalty>
5.53801e-05

> <b_epik_Metal_Only>
0

> <s_lp_Force_Field>
OPLS_2005

> <r_lp_Energy>
25.674

> <b_lp_Chiralities_Consistent>
1

> <s_lp_Variant>
AV-unprocessed.smi:479-1

> <Gold.Version>
5.8.1

> <Gold.Id.Protein>
6NUR|6NUR_protein|mol2

> <Gold.PLP.Fitness>
55.5299

> <Gold.PLP.PLP>
-49.5426

> <Gold.PLP.part.hbond>
-2.0000

> <Gold.PLP.part.metal>
0.0000

> <Gold.PLP.part.buried>
-6.7950

> <Gold.PLP.part.nonpolar>
-40.0369

> <Gold.PLP.part.repulsive>
0.1612

> <Gold.PLP.ligand.clash>
0.0000

> <Gold.PLP.ligand.torsion>
0.8454

> <Gold.PLP.Chemscore.Hbond>
1.4400

> <Gold.PLP.Chemscore.CHOScore>
1.0000

> <Gold.PLP.Chemscore.Metal>
0.0000

> <Gold.Chemscore.Hbonds>
donor molecule, donor type, donor heavy atom, donor atom, acceptor molecule, acceptor atom, score
      P1  H  7997  8009       L1    12  0.96
      L1  C    18    41       P1  8028  1.00

> <Gold.PLP.Chemscore.Internal.Correction>
0.3582

> <Gold.Rescore>
     Score         DG    S(hbond)    S(metal)    S(lipo)     H(rot)  DE(clash)    DE(int)     intcor
     14.99     -16.35       0.95        0.00     123.82       2.66       0.00       1.36       ----

> <Gold.Chemscore.Fitness>
14.9906

> <Gold.Chemscore.DG>
-16.3469

> <Gold.Chemscore.ZeroCoef>
-5.4800

> <Gold.Chemscore.Hbond>
0.9513

> <Gold.Chemscore.Metal>
0.0000

> <Gold.Chemscore.Lipo>
123.8248

> <Gold.Chemscore.Internal_Hbond>
0.0000

> <Gold.Chemscore.DEClash>
0.0009

> <Gold.Chemscore.DEInternal>
1.3554

> <Gold.Chemscore.Rot>
2.6555

> <Gold.Chemscore.Internal.Correction>
   9.000000E+99

> <Gold.Chemscore.Hbonds>
donor molecule, donor type, donor heavy atom, donor atom, acceptor molecule, acceptor atom, score
      P1  H  7997  8009       L1    12  0.78

> <Gold.Chemscore.Hbond.Weighted>
-3.1774

> <Gold.Chemscore.Metal.Weighted>
-0.0000

> <Gold.Chemscore.Lipo.Weighted>
-14.4875

> <Gold.Chemscore.Internal_Hbond.Weighted>
0.0000

> <Gold.Chemscore.DEClash.Weighted>
0.0009

> <Gold.Chemscore.DEInternal.Weighted>
1.3554

> <Gold.Chemscore.Rot.Weighted>
6.7980

> <Gold.Chemscore.Internal.Correction.Weighted>
   9.000000E+99

> <Gold.Protein.RotatedTorsions>
[ 6907 6896 6895 6894 ] final  145.21 input  -60.11 | X-H torsion
[ 7974 7965 7964 7962 ] final   76.11 input  175.53 | X-H torsion
[ 8008 7997 7996 7995 ] final -179.83 input   59.86 | X-H torsion
[ 10167 10162 10161 10158 ] final -111.25 input  -65.29 | X-H torsion
[ 10718 10713 10712 10709 ] final -117.52 input   66.30 | X-H torsion
[ 10763 10752 10751 10750 ] final -173.06 input  -60.55 | X-H torsion
[ 11005 11000 10999 10996 ] final  160.99 input  -57.11 | X-H torsion

> <Gold.Protein.ActiveResidues>
 VAL166  LYS551  ARG553  GLY616  TRP617  ASP618  TYR619  PRO620  LYS621  CYS622 
 ASP623  PHE694  ASN695  SER759  ASP760  ASP761  ALA762  ILE779  LEU786  VAL792 
 PHE793  MET794  SER795  GLU796  ALA797  LYS798  CYS799  TRP800  GLU811  SER814 

> <Gold.Protein.RotatedAtoms>
  152.1838  133.4725  159.4971 H   0  0  0  0  0  0  0  0  0  0  0  0  # atno 6907 bound_to 6896
  150.6939  134.1800  159.4254 H   0  0  0  0  0  0  0  0  0  0  0  0  # atno 6908 bound_to 6896
  151.9712  135.0075  160.0603 H   0  0  0  0  0  0  0  0  0  0  0  0  # atno 6909 bound_to 6896
  145.7071  139.2602  143.1672 H   0  0  0  0  0  0  0  0  0  0  0  0  # atno 7974 bound_to 7965
  156.0350  140.1290  157.0217 H   0  0  0  0  0  0  0  0  0  0  0  0  # atno 8008 bound_to 7997
  154.4366  140.1042  156.6225 H   0  0  0  0  0  0  0  0  0  0  0  0  # atno 8009 bound_to 7997
  155.5751  140.3467  155.4527 H   0  0  0  0  0  0  0  0  0  0  0  0  # atno 8010 bound_to 7997
  140.1356  143.4323  152.1597 H   0  0  0  0  0  0  0  0  0  0  0  0  # atno 10167 bound_to 10162
  156.1039  130.6195  150.9174 H   0  0  0  0  0  0  0  0  0  0  0  0  # atno 10718 bound_to 10713
  154.6122  135.2866  155.0420 H   0  0  0  0  0  0  0  0  0  0  0  0  # atno 10763 bound_to 10752
  154.1645  135.6482  153.4998 H   0  0  0  0  0  0  0  0  0  0  0  0  # atno 10764 bound_to 10752
  153.0200  135.5386  154.6880 H   0  0  0  0  0  0  0  0  0  0  0  0  # atno 10765 bound_to 10752
  140.2113  134.8265  157.3124 H   0  0  0  0  0  0  0  0  0  0  0  0  # atno 11005 bound_to 11000
  146.0746  140.7831  142.9671 LP  0  0  0  0  0  0  0  0  0  0  0  0  # atno 17320 bound_to 7965
  144.6952  140.3395  143.7202 LP  0  0  0  0  0  0  0  0  0  0  0  0  # atno 17321 bound_to 7965
  139.5497  144.7328  151.4472 LP  0  0  0  0  0  0  0  0  0  0  0  0  # atno 17342 bound_to 10162
  140.6791  143.8123  150.7097 LP  0  0  0  0  0  0  0  0  0  0  0  0  # atno 17343 bound_to 10162
  157.6214  131.0929  150.8615 LP  0  0  0  0  0  0  0  0  0  0  0  0  # atno 17370 bound_to 10713
  156.8738  130.5155  149.5295 LP  0  0  0  0  0  0  0  0  0  0  0  0  # atno 17371 bound_to 10713
  140.1947  134.4328  155.7696 LP  0  0  0  0  0  0  0  0  0  0  0  0  # atno 17394 bound_to 11000
  141.2226  133.7044  156.8086 LP  0  0  0  0  0  0  0  0  0  0  0  0  # atno 17395 bound_to 11000

$$$$
