AV-unprocessed.smi:276|AV-procd|sdf|2072|dock4
  -GOLD-   2262021333D 1   1.00000     0.00000
 Structure written by MMmdl.
 57 61  0  0  0  0  0  0  0  0  1 V2000
  152.6305  143.2326  161.4622 C   0  0  0  0  0  0  0  0  0  0  0  0
  152.6357  142.7364  160.1350 O   0  0  0  0  0  0  0  0  0  0  0  0
  152.2813  141.3646  160.0643 C   0  0  2  0  0  0  0  0  0  0  0  0
  153.4747  140.4110  159.9390 C   0  0  0  0  0  0  0  0  0  0  0  0
  152.6125  139.5857  158.9748 C   0  0  2  0  0  0  0  0  0  0  0  0
  153.3861  138.9937  157.8807 N   0  0  0  0  0  0  0  0  0  0  0  0
  154.2992  137.9193  158.2504 C   0  0  0  0  0  0  0  0  0  0  0  0
  152.6942  138.6580  156.7681 C   0  0  0  0  0  0  0  0  0  0  0  0
  152.8101  139.4878  155.7012 N   0  0  0  0  0  0  0  0  0  0  0  0
  152.1480  139.2240  154.5711 C   0  0  0  0  0  0  0  0  0  0  0  0
  151.3373  138.1997  154.2986 N   0  0  0  0  0  0  0  0  0  0  0  0
  151.2356  137.3517  155.3616 C   0  0  0  0  0  0  0  0  0  0  0  0
  151.8803  137.4973  156.6226 C   0  0  0  0  0  0  0  0  0  0  0  0
  151.5535  136.4243  157.4442 N   0  0  0  0  0  0  0  0  0  0  0  0
  150.7483  135.6977  156.7188 C   0  0  0  0  0  0  0  0  0  0  0  0
  150.5036  136.1815  155.4543 N   0  0  0  0  0  0  0  0  0  0  0  0
  149.6559  135.5741  154.4437 C   0  0  0  0  0  0  0  0  0  0  0  0
  149.3004  134.1131  154.7790 C   0  0  2  0  0  0  0  0  0  0  0  0
  150.4690  133.3178  154.8447 O   0  0  0  0  0  0  0  0  0  0  0  0
  148.2804  133.5056  153.7946 C   0  0  2  0  0  0  0  0  0  0  0  0
  148.6239  133.6043  152.3058 C   0  0  0  0  0  0  0  0  0  0  0  0
  147.2540  133.4689  151.6801 C   0  0  0  0  0  0  0  0  0  0  0  0
  146.3850  134.2542  152.6600 C   0  0  0  0  0  0  0  0  0  0  0  0
  146.9835  134.0790  153.9417 O   0  0  0  0  0  0  0  0  0  0  0  0
  151.8494  140.9008  158.6593 C   0  0  0  0  0  0  0  0  0  0  0  0
  150.3667  140.9017  158.2640 C   0  0  0  0  0  0  0  0  0  0  0  0
  150.7633  141.3810  156.8638 C   0  0  0  0  0  0  0  0  0  0  0  0
  152.1390  141.7683  157.4170 C   0  0  0  0  0  0  0  0  0  0  0  0
  152.9048  144.2875  161.4596 H   0  0  0  0  0  0  0  0  0  0  0  0
  153.3480  142.7013  162.0886 H   0  0  0  0  0  0  0  0  0  0  0  0
  151.6407  143.1428  161.9112 H   0  0  0  0  0  0  0  0  0  0  0  0
  151.5683  141.0569  160.8326 H   0  0  0  0  0  0  0  0  0  0  0  0
  154.3397  140.8764  159.4622 H   0  0  0  0  0  0  0  0  0  0  0  0
  153.7473  139.8979  160.8614 H   0  0  0  0  0  0  0  0  0  0  0  0
  151.9972  138.8737  159.5261 H   0  0  0  0  0  0  0  0  0  0  0  0
  153.7511  137.0750  158.6700 H   0  0  0  0  0  0  0  0  0  0  0  0
  155.0162  138.2636  158.9954 H   0  0  0  0  0  0  0  0  0  0  0  0
  154.8673  137.5656  157.3887 H   0  0  0  0  0  0  0  0  0  0  0  0
  152.2864  139.9367  153.7713 H   0  0  0  0  0  0  0  0  0  0  0  0
  150.3113  134.7806  157.0866 H   0  0  0  0  0  0  0  0  0  0  0  0
  148.7481  136.1726  154.3587 H   0  0  0  0  0  0  0  0  0  0  0  0
  150.1603  135.6369  153.4788 H   0  0  0  0  0  0  0  0  0  0  0  0
  148.8545  134.0875  155.7742 H   0  0  0  0  0  0  0  0  0  0  0  0
  150.4133  132.7652  155.6092 H   0  0  0  0  0  0  0  0  0  0  0  0
  148.1638  132.4480  154.0371 H   0  0  0  0  0  0  0  0  0  0  0  0
  149.0448  134.5776  152.0517 H   0  0  0  0  0  0  0  0  0  0  0  0
  149.3231  132.8345  151.9782 H   0  0  0  0  0  0  0  0  0  0  0  0
  147.2059  133.8559  150.6618 H   0  0  0  0  0  0  0  0  0  0  0  0
  146.9511  132.4211  151.6636 H   0  0  0  0  0  0  0  0  0  0  0  0
  146.4022  135.3168  152.4142 H   0  0  0  0  0  0  0  0  0  0  0  0
  145.3465  133.9226  152.6561 H   0  0  0  0  0  0  0  0  0  0  0  0
  149.8854  139.9244  158.2866 H   0  0  0  0  0  0  0  0  0  0  0  0
  149.7874  141.6462  158.8118 H   0  0  0  0  0  0  0  0  0  0  0  0
  150.8066  140.5723  156.1343 H   0  0  0  0  0  0  0  0  0  0  0  0
  150.1747  142.2204  156.4929 H   0  0  0  0  0  0  0  0  0  0  0  0
  152.1998  142.8341  157.6387 H   0  0  0  0  0  0  0  0  0  0  0  0
  152.9809  141.4499  156.8030 H   0  0  0  0  0  0  0  0  0  0  0  0
  1  2  1  0  0  0  0
  1 29  1  0  0  0  0
  1 30  1  0  0  0  0
  1 31  1  0  0  0  0
  2  3  1  0  0  0  0
  3 25  1  0  0  0  0
  3  4  1  0  0  0  0
  3 32  1  0  0  0  0
  4  5  1  0  0  0  0
  4 33  1  0  0  0  0
  4 34  1  0  0  0  0
  5  6  1  0  0  0  0
  5 25  1  0  0  0  0
  5 35  1  0  0  0  0
  6  7  1  0  0  0  0
  6  8  1  0  0  0  0
  7 36  1  0  0  0  0
  7 37  1  0  0  0  0
  7 38  1  0  0  0  0
  8 13  1  0  0  0  0
  8  9  2  0  0  0  0
  9 10  1  0  0  0  0
 10 11  2  0  0  0  0
 10 39  1  0  0  0  0
 11 12  1  0  0  0  0
 12 16  1  0  0  0  0
 12 13  2  0  0  0  0
 13 14  1  0  0  0  0
 14 15  2  0  0  0  0
 15 16  1  0  0  0  0
 15 40  1  0  0  0  0
 16 17  1  0  0  0  0
 17 18  1  0  0  0  0
 17 41  1  0  0  0  0
 17 42  1  0  0  0  0
 18 19  1  0  0  0  0
 18 20  1  0  0  0  0
 18 43  1  0  0  0  0
 19 44  1  0  0  0  0
 20 24  1  0  0  0  0
 20 21  1  0  0  0  0
 20 45  1  0  0  0  0
 21 22  1  0  0  0  0
 21 46  1  0  0  0  0
 21 47  1  0  0  0  0
 22 23  1  0  0  0  0
 22 48  1  0  0  0  0
 22 49  1  0  0  0  0
 23 24  1  0  0  0  0
 23 50  1  0  0  0  0
 23 51  1  0  0  0  0
 25 28  1  0  0  0  0
 25 26  1  0  0  0  0
 26 27  1  0  0  0  0
 26 52  1  0  0  0  0
 26 53  1  0  0  0  0
 27 28  1  0  0  0  0
 27 54  1  0  0  0  0
 27 55  1  0  0  0  0
 28 56  1  0  0  0  0
 28 57  1  0  0  0  0
M  END
> <s_m_source_file>
AV-unprocessed.smi

> <i_m_source_file_index>
276

> <i_lp_mmshare_version>
43012

> <i_f3d_flags>
0

> <s_epik_input>
W0NIMl0xW0NIMl1bQ0gyXUMxMltDQEhdKE9bQ0gzXSlbQ0gyXVtDQEhdMk4oW0NIM10pYyhuW2NIXW4zKWMoYzM0KW5bY0hdbjRbQ0gyXVtDQEhdKFtPSF0pW0NAQEhdNVtDSDJdW0NIMl1bQ0gyXU81

> <s_epik_cmdline>
J2VwaWtfcHl0aG9uJywgJy1waCcsICc3LjAnLCAnLXRuJywgJzgnLCAnLW1hJywgJzIwMCcsICctbWV0YWxfYmluZGluZycsICctaW1hZScsICc8aW5maWxlLm1hZT4nLCAnLW9tYWUnLCAnPG91dGZpbGUubWFlPic=

> <r_lp_tautomer_probability>
1

> <r_epik_Ionization_Penalty>
0.00204117

> <r_epik_Ionization_Penalty_Charging>
0

> <r_epik_Ionization_Penalty_Neutral>
0.00204117

> <r_epik_State_Penalty>
0.00127401

> <r_epik_Charging_Adjusted_Penalty>
0.00127401

> <i_epik_Tot_Q>
0

> <i_epik_Tot_abs_Q>
0

> <r_epik_Metal_State_Penalty>
-0

> <b_epik_Metal_Only>
0

> <s_lp_Force_Field>
OPLS_2005

> <r_lp_Energy>
58.4332

> <b_lp_Chiralities_Consistent>
1

> <s_lp_Variant>
AV-unprocessed.smi:276-3

> <Gold.Version>
5.8.1

> <Gold.Id.Protein>
6NUR|6NUR_protein|mol2

> <Gold.PLP.Fitness>
40.4859

> <Gold.PLP.PLP>
-39.9220

> <Gold.PLP.part.hbond>
-2.8206

> <Gold.PLP.part.metal>
0.0000

> <Gold.PLP.part.buried>
-4.8809

> <Gold.PLP.part.nonpolar>
-31.5461

> <Gold.PLP.part.repulsive>
0.2279

> <Gold.PLP.ligand.clash>
0.0000

> <Gold.PLP.ligand.torsion>
1.0718

> <Gold.PLP.Chemscore.Hbond>
0.6375

> <Gold.PLP.Chemscore.CHOScore>
0.0000

> <Gold.PLP.Chemscore.Metal>
0.0000

> <Gold.Chemscore.Hbonds>
donor molecule, donor type, donor heavy atom, donor atom, acceptor molecule, acceptor atom, score
      P1  H  7997  8009       L1     6  0.50

> <Gold.PLP.Chemscore.Internal.Correction>
0.7949

> <Gold.Rescore>
     Score         DG    S(hbond)    S(metal)    S(lipo)     H(rot)  DE(clash)    DE(int)     intcor
      8.55      -9.71       0.00        0.00      95.61       2.72       0.29       0.88       ----

> <Gold.Chemscore.Fitness>
8.5477

> <Gold.Chemscore.DG>
-9.7137

> <Gold.Chemscore.ZeroCoef>
-5.4800

> <Gold.Chemscore.Hbond>
0.0009

> <Gold.Chemscore.Metal>
0.0000

> <Gold.Chemscore.Lipo>
95.6129

> <Gold.Chemscore.Internal_Hbond>
0.0000

> <Gold.Chemscore.DEClash>
0.2856

> <Gold.Chemscore.DEInternal>
0.8803

> <Gold.Chemscore.Rot>
2.7172

> <Gold.Chemscore.Internal.Correction>
   9.000000E+99

> <Gold.Chemscore.Hbonds>
donor molecule, donor type, donor heavy atom, donor atom, acceptor molecule, acceptor atom, score
      P1  H  7997  8009       L1     6  0.01

> <Gold.Chemscore.Hbond.Weighted>
-0.0030

> <Gold.Chemscore.Metal.Weighted>
-0.0000

> <Gold.Chemscore.Lipo.Weighted>
-11.1867

> <Gold.Chemscore.Internal_Hbond.Weighted>
0.0000

> <Gold.Chemscore.DEClash.Weighted>
0.2856

> <Gold.Chemscore.DEInternal.Weighted>
0.8803

> <Gold.Chemscore.Rot.Weighted>
6.9560

> <Gold.Chemscore.Internal.Correction.Weighted>
   9.000000E+99

> <Gold.Protein.RotatedTorsions>
[ 6907 6896 6895 6894 ] final  167.78 input  -60.11 | X-H torsion
[ 7974 7965 7964 7962 ] final -105.54 input  175.53 | X-H torsion
[ 8008 7997 7996 7995 ] final  165.61 input   59.86 | X-H torsion
[ 10167 10162 10161 10158 ] final   94.73 input  -65.29 | X-H torsion
[ 10718 10713 10712 10709 ] final -142.34 input   66.30 | X-H torsion
[ 10763 10752 10751 10750 ] final  -79.92 input  -60.55 | X-H torsion
[ 11005 11000 10999 10996 ] final -105.18 input  -57.11 | X-H torsion

> <Gold.Protein.ActiveResidues>
 VAL166  LYS551  ARG553  GLY616  TRP617  ASP618  TYR619  PRO620  LYS621  CYS622 
 ASP623  PHE694  ASN695  SER759  ASP760  ASP761  ALA762  ILE779  LEU786  VAL792 
 PHE793  MET794  SER795  GLU796  ALA797  LYS798  CYS799  TRP800  GLU811  SER814 

> <Gold.Protein.RotatedAtoms>
  151.8580  133.3452  159.3694 H   0  0  0  0  0  0  0  0  0  0  0  0  # atno 6907 bound_to 6896
  150.7187  134.5234  159.5674 H   0  0  0  0  0  0  0  0  0  0  0  0  # atno 6908 bound_to 6896
  152.2741  134.7901  160.0460 H   0  0  0  0  0  0  0  0  0  0  0  0  # atno 6909 bound_to 6896
  145.2292  140.9164  143.3215 H   0  0  0  0  0  0  0  0  0  0  0  0  # atno 7974 bound_to 7965
  156.1786  140.1665  156.8316 H   0  0  0  0  0  0  0  0  0  0  0  0  # atno 8008 bound_to 7997
  154.5335  140.0752  156.8420 H   0  0  0  0  0  0  0  0  0  0  0  0  # atno 8009 bound_to 7997
  155.3358  140.3382  155.4241 H   0  0  0  0  0  0  0  0  0  0  0  0  # atno 8010 bound_to 7997
  139.8056  144.6795  150.9707 H   0  0  0  0  0  0  0  0  0  0  0  0  # atno 10167 bound_to 10162
  156.3448  130.7656  151.1799 H   0  0  0  0  0  0  0  0  0  0  0  0  # atno 10718 bound_to 10713
  154.5447  135.5679  153.6870 H   0  0  0  0  0  0  0  0  0  0  0  0  # atno 10763 bound_to 10752
  152.9973  135.6236  154.2455 H   0  0  0  0  0  0  0  0  0  0  0  0  # atno 10764 bound_to 10752
  154.2387  135.2863  155.2842 H   0  0  0  0  0  0  0  0  0  0  0  0  # atno 10765 bound_to 10752
  141.1066  133.8786  157.1702 H   0  0  0  0  0  0  0  0  0  0  0  0  # atno 11005 bound_to 11000
  144.9693  139.3897  143.6317 LP  0  0  0  0  0  0  0  0  0  0  0  0  # atno 17320 bound_to 7965
  146.3357  139.8783  142.8828 LP  0  0  0  0  0  0  0  0  0  0  0  0  # atno 17321 bound_to 7965
  140.7819  143.4237  151.0802 LP  0  0  0  0  0  0  0  0  0  0  0  0  # atno 17342 bound_to 10162
  139.7906  143.8224  152.3151 LP  0  0  0  0  0  0  0  0  0  0  0  0  # atno 17343 bound_to 10162
  157.7452  131.0444  150.4792 LP  0  0  0  0  0  0  0  0  0  0  0  0  # atno 17370 bound_to 10713
  156.4978  130.4110  149.6370 LP  0  0  0  0  0  0  0  0  0  0  0  0  # atno 17371 bound_to 10713
  139.9939  135.0054  157.0037 LP  0  0  0  0  0  0  0  0  0  0  0  0  # atno 17394 bound_to 11000
  140.4887  134.1215  155.7229 LP  0  0  0  0  0  0  0  0  0  0  0  0  # atno 17395 bound_to 11000

$$$$
