AV-unprocessed.smi:2198|AV-procd|sdf|8914|dock1
  -GOLD-   2272012133D 1   1.00000     0.00000
 Structure written by MMmdl.
 43 44  0  0  0  0  0  0  0  0  1 V2000
  146.1609  138.7930  152.1528 C   0  0  0  0  0  0  0  0  0  0  0  0
  146.8012  139.2749  153.4376 C   0  0  0  0  0  0  0  0  0  0  0  0
  146.3879  140.2985  154.1095 N   0  0  0  0  0  0  0  0  0  0  0  0
  147.0654  140.6527  155.2848 C   0  0  0  0  0  0  0  0  0  0  0  0
  146.5193  141.8689  156.0135 C   0  0  0  0  0  0  0  0  0  0  0  0
  148.1429  139.9426  155.7317 C   0  0  0  0  0  0  0  0  0  0  0  0
  148.9045  140.3035  157.0055 C   0  0  0  0  0  0  0  0  0  0  0  0
  150.0943  141.2444  156.8109 C   0  0  0  0  0  0  0  0  0  0  0  0
  150.7218  141.2309  155.7523 O   0  0  0  0  0  0  0  0  0  0  0  0
  150.3947  142.0511  157.8403 N   0  0  0  0  0  0  0  0  0  0  0  0
  151.4853  143.0234  157.8702 C   0  0  1  0  0  0  0  0  0  0  0  0
  150.9587  144.4468  158.1494 C   0  0  0  0  0  0  0  0  0  0  0  0
  150.4604  144.6069  159.5957 C   0  0  0  0  0  0  0  0  0  0  0  0
  151.5463  144.2089  160.6073 C   0  0  0  0  0  0  0  0  0  0  0  0
  152.0458  142.7718  160.3653 C   0  0  2  0  0  0  0  0  0  0  0  0
  153.1326  142.3792  161.3761 C   0  0  0  0  0  0  0  0  0  0  0  0
  152.5429  142.6090  158.9131 C   0  0  0  0  0  0  0  0  0  0  0  0
  148.6036  138.7728  154.9584 C   0  0  0  0  0  0  0  0  0  0  0  0
  149.5559  138.0601  155.2714 O   0  0  0  0  0  0  0  0  0  0  0  0
  147.8936  138.5080  153.8388 N   0  0  0  0  0  0  0  0  0  0  0  0
  148.1710  137.7175  153.2752 H   0  0  0  0  0  0  0  0  0  0  0  0
  145.1190  138.5254  152.3299 H   0  0  0  0  0  0  0  0  0  0  0  0
  146.6746  137.9192  151.7491 H   0  0  0  0  0  0  0  0  0  0  0  0
  146.1890  139.5818  151.4009 H   0  0  0  0  0  0  0  0  0  0  0  0
  147.2871  142.6355  156.1163 H   0  0  0  0  0  0  0  0  0  0  0  0
  146.1647  141.5938  157.0068 H   0  0  0  0  0  0  0  0  0  0  0  0
  145.6816  142.3107  155.4726 H   0  0  0  0  0  0  0  0  0  0  0  0
  148.2343  140.7557  157.7373 H   0  0  0  0  0  0  0  0  0  0  0  0
  149.2445  139.3836  157.4824 H   0  0  0  0  0  0  0  0  0  0  0  0
  149.8234  141.9877  158.6702 H   0  0  0  0  0  0  0  0  0  0  0  0
  151.9700  143.0199  156.8922 H   0  0  0  0  0  0  0  0  0  0  0  0
  151.7611  145.1634  157.9705 H   0  0  0  0  0  0  0  0  0  0  0  0
  150.1633  144.7045  157.4491 H   0  0  0  0  0  0  0  0  0  0  0  0
  150.1541  145.6389  159.7690 H   0  0  0  0  0  0  0  0  0  0  0  0
  149.5721  143.9933  159.7507 H   0  0  0  0  0  0  0  0  0  0  0  0
  152.3814  144.9072  160.5360 H   0  0  0  0  0  0  0  0  0  0  0  0
  151.1525  144.3023  161.6202 H   0  0  0  0  0  0  0  0  0  0  0  0
  151.2042  142.0939  160.5153 H   0  0  0  0  0  0  0  0  0  0  0  0
  154.0091  143.0218  161.2865 H   0  0  0  0  0  0  0  0  0  0  0  0
  153.4575  141.3498  161.2232 H   0  0  0  0  0  0  0  0  0  0  0  0
  152.7643  142.4600  162.3992 H   0  0  0  0  0  0  0  0  0  0  0  0
  152.8542  141.5786  158.7358 H   0  0  0  0  0  0  0  0  0  0  0  0
  153.4347  143.2208  158.7706 H   0  0  0  0  0  0  0  0  0  0  0  0
  1  2  1  0  0  0  0
  1 22  1  0  0  0  0
  1 23  1  0  0  0  0
  1 24  1  0  0  0  0
  2 20  1  0  0  0  0
  2  3  2  0  0  0  0
  3  4  1  0  0  0  0
  4  5  1  0  0  0  0
  4  6  2  0  0  0  0
  5 25  1  0  0  0  0
  5 26  1  0  0  0  0
  5 27  1  0  0  0  0
  6  7  1  0  0  0  0
  6 18  1  0  0  0  0
  7  8  1  0  0  0  0
  7 28  1  0  0  0  0
  7 29  1  0  0  0  0
  8  9  2  0  0  0  0
  8 10  1  0  0  0  0
 10 11  1  0  0  0  0
 10 30  1  0  0  0  0
 11 17  1  0  0  0  0
 11 12  1  0  0  0  0
 11 31  1  0  0  0  0
 12 13  1  0  0  0  0
 12 32  1  0  0  0  0
 12 33  1  0  0  0  0
 13 14  1  0  0  0  0
 13 34  1  0  0  0  0
 13 35  1  0  0  0  0
 14 15  1  0  0  0  0
 14 36  1  0  0  0  0
 14 37  1  0  0  0  0
 15 16  1  0  0  0  0
 15 17  1  0  0  0  0
 15 38  1  0  0  0  0
 16 39  1  0  0  0  0
 16 40  1  0  0  0  0
 16 41  1  0  0  0  0
 17 42  1  0  0  0  0
 17 43  1  0  0  0  0
 18 19  2  0  0  0  0
 18 20  1  0  0  0  0
 20 21  1  0  0  0  0
M  END
> <s_m_source_file>
AV-unprocessed.smi

> <i_m_source_file_index>
2198

> <i_lp_mmshare_version>
43012

> <i_f3d_flags>
0

> <s_epik_input>
W0NIM11jMW5jKFtDSDNdKWMoYyg9TylbbkhdMSlbQ0gyXUMoPU8pW05IXVtDQEBIXTJbQ0gyXVtDSDJdW0NIMl1bQ0BASF0oW0NIM10pW0NIMl0y

> <s_epik_cmdline>
J2VwaWtfcHl0aG9uJywgJy1waCcsICc3LjAnLCAnLXRuJywgJzgnLCAnLW1hJywgJzIwMCcsICctbWV0YWxfYmluZGluZycsICctaW1hZScsICc8aW5maWxlLm1hZT4nLCAnLW9tYWUnLCAnPG91dGZpbGUubWFlPic=

> <r_lp_tautomer_probability>
0.839158

> <r_epik_Ionization_Penalty>
0.000372587

> <r_epik_Ionization_Penalty_Charging>
0.000337977

> <r_epik_Ionization_Penalty_Neutral>
3.46101e-05

> <r_epik_State_Penalty>
0.09125

> <r_epik_Charging_Adjusted_Penalty>
0.091588

> <i_epik_Tot_Q>
0

> <i_epik_Tot_abs_Q>
0

> <r_epik_Metal_State_Penalty>
0.25197

> <b_epik_Metal_Only>
0

> <s_lp_Force_Field>
OPLS_2005

> <r_lp_Energy>
10.5346

> <b_lp_Chiralities_Consistent>
1

> <s_lp_Variant>
AV-unprocessed.smi:2198-4

> <Gold.Version>
5.8.1

> <Gold.Id.Protein>
6NUR|6NUR_protein|mol2

> <Gold.PLP.Fitness>
39.4161

> <Gold.PLP.PLP>
-37.1715

> <Gold.PLP.part.hbond>
-3.0000

> <Gold.PLP.part.metal>
0.0000

> <Gold.PLP.part.buried>
-0.8762

> <Gold.PLP.part.nonpolar>
-32.9476

> <Gold.PLP.part.repulsive>
0.4368

> <Gold.PLP.ligand.clash>
0.0000

> <Gold.PLP.ligand.torsion>
0.7683

> <Gold.PLP.Chemscore.Hbond>
1.2564

> <Gold.PLP.Chemscore.CHOScore>
0.0000

> <Gold.PLP.Chemscore.Metal>
0.0000

> <Gold.Chemscore.Hbonds>
donor molecule, donor type, donor heavy atom, donor atom, acceptor molecule, acceptor atom, score
      L1  H    20    21       P1  7948  0.62

> <Gold.PLP.Chemscore.Internal.Correction>
0.0121

> <Gold.Rescore>
     Score         DG    S(hbond)    S(metal)    S(lipo)     H(rot)  DE(clash)    DE(int)     intcor
     16.36     -18.92       1.50        0.00     104.40       1.48       1.98       0.59       ----

> <Gold.Chemscore.Fitness>
16.3563

> <Gold.Chemscore.DG>
-18.9234

> <Gold.Chemscore.ZeroCoef>
-5.4800

> <Gold.Chemscore.Hbond>
1.5025

> <Gold.Chemscore.Metal>
0.0000

> <Gold.Chemscore.Lipo>
104.3952

> <Gold.Chemscore.Internal_Hbond>
0.0000

> <Gold.Chemscore.DEClash>
1.9799

> <Gold.Chemscore.DEInternal>
0.5871

> <Gold.Chemscore.Rot>
1.4801

> <Gold.Chemscore.Internal.Correction>
   9.000000E+99

> <Gold.Chemscore.Hbonds>
donor molecule, donor type, donor heavy atom, donor atom, acceptor molecule, acceptor atom, score
      L1  H    20    21       P1  7948  0.60
      P1  H  7989  7998       L1     9  0.03

> <Gold.Chemscore.Hbond.Weighted>
-5.0183

> <Gold.Chemscore.Metal.Weighted>
-0.0000

> <Gold.Chemscore.Lipo.Weighted>
-12.2142

> <Gold.Chemscore.Internal_Hbond.Weighted>
0.0000

> <Gold.Chemscore.DEClash.Weighted>
1.9799

> <Gold.Chemscore.DEInternal.Weighted>
0.5871

> <Gold.Chemscore.Rot.Weighted>
3.7891

> <Gold.Chemscore.Internal.Correction.Weighted>
   9.000000E+99

> <Gold.Protein.RotatedTorsions>
[ 6907 6896 6895 6894 ] final -105.72 input  -60.11 | X-H torsion
[ 7974 7965 7964 7962 ] final  167.91 input  175.53 | X-H torsion
[ 8008 7997 7996 7995 ] final  173.77 input   59.86 | X-H torsion
[ 10167 10162 10161 10158 ] final  -35.90 input  -65.29 | X-H torsion
[ 10718 10713 10712 10709 ] final  -38.76 input   66.30 | X-H torsion
[ 10763 10752 10751 10750 ] final   21.01 input  -60.55 | X-H torsion
[ 11005 11000 10999 10996 ] final  175.27 input  -57.11 | X-H torsion

> <Gold.Protein.ActiveResidues>
 VAL166  LYS551  ARG553  GLY616  TRP617  ASP618  TYR619  PRO620  LYS621  CYS622 
 ASP623  PHE694  ASN695  SER759  ASP760  ASP761  ALA762  ILE779  LEU786  VAL792 
 PHE793  MET794  SER795  GLU796  ALA797  LYS798  CYS799  TRP800  GLU811  SER814 

> <Gold.Protein.RotatedAtoms>
  150.7351  134.0085  159.3661 H   0  0  0  0  0  0  0  0  0  0  0  0  # atno 6907 bound_to 6896
  151.8043  135.0697  160.0414 H   0  0  0  0  0  0  0  0  0  0  0  0  # atno 6908 bound_to 6896
  152.3118  133.5725  159.5722 H   0  0  0  0  0  0  0  0  0  0  0  0  # atno 6909 bound_to 6896
  144.7407  139.8830  143.6397 H   0  0  0  0  0  0  0  0  0  0  0  0  # atno 7974 bound_to 7965
  156.1042  140.1451  156.9427 H   0  0  0  0  0  0  0  0  0  0  0  0  # atno 8008 bound_to 7997
  154.4722  140.0906  156.7219 H   0  0  0  0  0  0  0  0  0  0  0  0  # atno 8009 bound_to 7997
  155.4708  140.3441  155.4328 H   0  0  0  0  0  0  0  0  0  0  0  0  # atno 8010 bound_to 7997
  140.7155  143.3445  151.2286 H   0  0  0  0  0  0  0  0  0  0  0  0  # atno 10167 bound_to 10162
  156.3000  130.4239  149.8152 H   0  0  0  0  0  0  0  0  0  0  0  0  # atno 10718 bound_to 10713
  153.1030  135.6677  153.9637 H   0  0  0  0  0  0  0  0  0  0  0  0  # atno 10763 bound_to 10752
  153.9202  135.3015  155.3449 H   0  0  0  0  0  0  0  0  0  0  0  0  # atno 10764 bound_to 10752
  154.7451  135.5061  153.9266 H   0  0  0  0  0  0  0  0  0  0  0  0  # atno 10765 bound_to 10752
  140.3603  134.7118  157.4327 H   0  0  0  0  0  0  0  0  0  0  0  0  # atno 11005 bound_to 11000
  146.1197  139.4213  143.0236 LP  0  0  0  0  0  0  0  0  0  0  0  0  # atno 17320 bound_to 7965
  145.7322  141.0038  143.1345 LP  0  0  0  0  0  0  0  0  0  0  0  0  # atno 17321 bound_to 7965
  139.6961  143.9611  152.2883 LP  0  0  0  0  0  0  0  0  0  0  0  0  # atno 17342 bound_to 10162
  139.9288  144.6754  150.8384 LP  0  0  0  0  0  0  0  0  0  0  0  0  # atno 17343 bound_to 10162
  156.5534  130.8351  151.3306 LP  0  0  0  0  0  0  0  0  0  0  0  0  # atno 17370 bound_to 10713
  157.7365  130.9780  150.2143 LP  0  0  0  0  0  0  0  0  0  0  0  0  # atno 17371 bound_to 10713
  140.0632  134.5967  155.8725 LP  0  0  0  0  0  0  0  0  0  0  0  0  # atno 17394 bound_to 11000
  141.1986  133.6602  156.5800 LP  0  0  0  0  0  0  0  0  0  0  0  0  # atno 17395 bound_to 11000

$$$$
