AV-unprocessed.smi:1071|AV-procd|sdf|4678|dock5
  -GOLD-   22720 3193D 1   1.00000     0.00000
 Structure written by MMmdl.
 47 48  0  0  0  0  0  0  0  0  2 V2000
  148.9139  126.3231  150.6402 C   0  0  0  0  0  0  0  0  0  0  0  0
  147.9363  126.9254  151.4700 O   0  0  0  0  0  0  0  0  0  0  0  0
  147.2263  127.9595  150.8091 C   0  0  0  0  0  0  0  0  0  0  0  0
  146.0842  128.4417  151.7087 C   0  0  0  0  0  0  0  0  0  0  0  0
  146.6333  129.1935  152.7869 O   0  0  0  0  0  0  0  0  0  0  0  0
  146.3804  130.5488  152.8415 C   0  0  0  0  0  0  0  0  0  0  0  0
  145.8497  131.1812  151.6999 C   0  0  0  0  0  0  0  0  0  0  0  0
  145.5875  132.5632  151.7499 C   0  0  0  0  0  0  0  0  0  0  0  0
  145.8524  133.2703  152.9397 C   0  0  0  0  0  0  0  0  0  0  0  0
  145.5991  134.6682  152.9590 N   0  0  0  0  0  0  0  0  0  0  0  0
  145.4704  135.4819  154.0261 C   0  0  0  0  0  0  0  0  0  0  0  0
  145.4107  135.0613  155.1817 O   0  0  0  0  0  0  0  0  0  0  0  0
  145.2846  136.7914  153.7086 N   0  0  0  0  0  0  0  0  0  0  0  0
  145.3505  137.3369  152.3363 C   0  0  0  0  0  0  0  0  0  0  0  0
  146.4255  138.4292  152.2219 C   0  0  0  0  0  0  0  0  0  0  0  0
  146.2129  139.4928  153.2281 N   0  3  2  0  0  0  0  0  0  0  0  0
  147.1756  140.6064  153.0893 C   0  0  0  0  0  0  0  0  0  0  0  0
  146.1652  138.9537  154.6062 C   0  0  0  0  0  0  0  0  0  0  0  0
  145.1247  137.8235  154.7559 C   0  0  1  0  0  0  0  0  0  0  0  0
  143.6735  138.3324  154.8112 C   0  0  0  0  0  0  0  0  0  0  0  0
  146.3984  132.5479  154.0286 C   0  0  0  0  0  0  0  0  0  0  0  0
  146.6539  131.2232  153.9858 N   0  0  0  0  0  0  0  0  0  0  0  0
  149.4266  125.5340  151.1900 H   0  0  0  0  0  0  0  0  0  0  0  0
  149.6609  127.0506  150.3207 H   0  0  0  0  0  0  0  0  0  0  0  0
  148.4593  125.8758  149.7550 H   0  0  0  0  0  0  0  0  0  0  0  0
  147.8877  128.7892  150.5541 H   0  0  0  0  0  0  0  0  0  0  0  0
  146.8142  127.5707  149.8767 H   0  0  0  0  0  0  0  0  0  0  0  0
  145.4169  129.0785  151.1258 H   0  0  0  0  0  0  0  0  0  0  0  0
  145.5050  127.5908  152.0714 H   0  0  0  0  0  0  0  0  0  0  0  0
  145.6486  130.6165  150.8015 H   0  0  0  0  0  0  0  0  0  0  0  0
  145.1834  133.0693  150.8853 H   0  0  0  0  0  0  0  0  0  0  0  0
  145.4740  135.0988  152.0546 H   0  0  0  0  0  0  0  0  0  0  0  0
  145.5643  136.5871  151.5745 H   0  0  0  0  0  0  0  0  0  0  0  0
  144.3746  137.7464  152.0749 H   0  0  0  0  0  0  0  0  0  0  0  0
  147.4169  137.9928  152.3562 H   0  0  0  0  0  0  0  0  0  0  0  0
  146.4017  138.8630  151.2215 H   0  0  0  0  0  0  0  0  0  0  0  0
  148.1962  140.2677  153.2731 H   0  0  0  0  0  0  0  0  0  0  0  0
  146.9462  141.4036  153.7973 H   0  0  0  0  0  0  0  0  0  0  0  0
  147.1313  141.0309  152.0858 H   0  0  0  0  0  0  0  0  0  0  0  0
  147.1537  138.5698  154.8648 H   0  0  0  0  0  0  0  0  0  0  0  0
  145.9499  139.7574  155.3116 H   0  0  0  0  0  0  0  0  0  0  0  0
  145.3092  137.3991  155.7435 H   0  0  0  0  0  0  0  0  0  0  0  0
  143.5346  139.0229  155.6436 H   0  0  0  0  0  0  0  0  0  0  0  0
  142.9736  137.5077  154.9505 H   0  0  0  0  0  0  0  0  0  0  0  0
  143.3905  138.8592  153.8999 H   0  0  0  0  0  0  0  0  0  0  0  0
  146.6640  133.0305  154.9563 H   0  0  0  0  0  0  0  0  0  0  0  0
  145.2982  139.8796  153.0439 H   0  0  0  0  0  0  0  0  0  0  0  0
  1  2  1  0  0  0  0
  1 23  1  0  0  0  0
  1 24  1  0  0  0  0
  1 25  1  0  0  0  0
  2  3  1  0  0  0  0
  3  4  1  0  0  0  0
  3 26  1  0  0  0  0
  3 27  1  0  0  0  0
  4  5  1  0  0  0  0
  4 28  1  0  0  0  0
  4 29  1  0  0  0  0
  5  6  1  0  0  0  0
  6 22  1  0  0  0  0
  6  7  2  0  0  0  0
  7  8  1  0  0  0  0
  7 30  1  0  0  0  0
  8  9  2  0  0  0  0
  8 31  1  0  0  0  0
  9 10  1  0  0  0  0
  9 21  1  0  0  0  0
 10 11  1  0  0  0  0
 10 32  1  0  0  0  0
 11 12  2  0  0  0  0
 11 13  1  0  0  0  0
 13 19  1  0  0  0  0
 13 14  1  0  0  0  0
 14 15  1  0  0  0  0
 14 33  1  0  0  0  0
 14 34  1  0  0  0  0
 15 16  1  0  0  0  0
 15 35  1  0  0  0  0
 15 36  1  0  0  0  0
 16 17  1  0  0  0  0
 16 18  1  0  0  0  0
 16 47  1  0  0  0  0
 17 37  1  0  0  0  0
 17 38  1  0  0  0  0
 17 39  1  0  0  0  0
 18 19  1  0  0  0  0
 18 40  1  0  0  0  0
 18 41  1  0  0  0  0
 19 20  1  0  0  0  0
 19 42  1  0  0  0  0
 20 43  1  0  0  0  0
 20 44  1  0  0  0  0
 20 45  1  0  0  0  0
 21 22  2  0  0  0  0
 21 46  1  0  0  0  0
M  CHG  1  16   1
M  END
> <s_m_source_file>
AV-unprocessed.smi

> <i_m_source_file_index>
1071

> <i_lp_mmshare_version>
43012

> <i_f3d_flags>
0

> <s_epik_input>
W0NIM11PW0NIMl1bQ0gyXU9jMVtjSF1bY0hdYyhbY0hdbjEpW05IXUMoPU8pTjJbQ0gyXVtDSDJdTihbQ0gzXSlbQ0gyXVtDQEhdMltDSDNd

> <s_epik_cmdline>
J2VwaWtfcHl0aG9uJywgJy1waCcsICc3LjAnLCAnLXRuJywgJzgnLCAnLW1hJywgJzIwMCcsICctbWV0YWxfYmluZGluZycsICctaW1hZScsICc8aW5maWxlLm1hZT4nLCAnLW9tYWUnLCAnPG91dGZpbGUubWFlPic=

> <r_lp_tautomer_probability>
1

> <r_epik_Ionization_Penalty>
0.25455

> <r_epik_Ionization_Penalty_Charging>
0.254506

> <r_epik_Ionization_Penalty_Neutral>
4.43365e-05

> <r_epik_State_Penalty>
0.245983

> <r_epik_Charging_Adjusted_Penalty>
0.500488

> <i_epik_Tot_Q>
1

> <i_epik_Tot_abs_Q>
1

> <r_epik_Metal_State_Penalty>
0.245987

> <b_epik_Metal_Only>
0

> <s_lp_Force_Field>
OPLS_2005

> <r_lp_Energy>
56.9033

> <b_lp_Chiralities_Consistent>
1

> <s_lp_Variant>
AV-unprocessed.smi:1071-2

> <Gold.Version>
5.8.1

> <Gold.Id.Protein>
6NUR|6NUR_protein|mol2

> <Gold.PLP.Fitness>
34.1397

> <Gold.PLP.PLP>
-29.3602

> <Gold.PLP.part.hbond>
-1.0000

> <Gold.PLP.part.metal>
0.0000

> <Gold.PLP.part.buried>
-4.2048

> <Gold.PLP.part.nonpolar>
-24.9076

> <Gold.PLP.part.repulsive>
0.4064

> <Gold.PLP.ligand.clash>
0.0165

> <Gold.PLP.ligand.torsion>
0.6507

> <Gold.PLP.Chemscore.Hbond>
2.0000

> <Gold.PLP.Chemscore.CHOScore>
0.0000

> <Gold.PLP.Chemscore.Metal>
0.0000

> <Gold.Chemscore.Hbonds>
donor molecule, donor type, donor heavy atom, donor atom, acceptor molecule, acceptor atom, score
      L1  H    16    47       P1 10175  2.00

> <Gold.PLP.Chemscore.Internal.Correction>
0.0972

> <Gold.Rescore>
     Score         DG    S(hbond)    S(metal)    S(lipo)     H(rot)  DE(clash)    DE(int)     intcor
     12.11     -13.95       1.00        0.00      78.99       1.60       0.02       1.82       ----

> <Gold.Chemscore.Fitness>
12.1140

> <Gold.Chemscore.DG>
-13.9538

> <Gold.Chemscore.ZeroCoef>
-5.4800

> <Gold.Chemscore.Hbond>
1.0000

> <Gold.Chemscore.Metal>
0.0000

> <Gold.Chemscore.Lipo>
78.9859

> <Gold.Chemscore.Internal_Hbond>
0.0000

> <Gold.Chemscore.DEClash>
0.0193

> <Gold.Chemscore.DEInternal>
1.8206

> <Gold.Chemscore.Rot>
1.6045

> <Gold.Chemscore.Internal.Correction>
   9.000000E+99

> <Gold.Chemscore.Hbonds>
donor molecule, donor type, donor heavy atom, donor atom, acceptor molecule, acceptor atom, score
      L1  H    16    47       P1 10175  1.00

> <Gold.Chemscore.Hbond.Weighted>
-3.3400

> <Gold.Chemscore.Metal.Weighted>
-0.0000

> <Gold.Chemscore.Lipo.Weighted>
-9.2413

> <Gold.Chemscore.Internal_Hbond.Weighted>
0.0000

> <Gold.Chemscore.DEClash.Weighted>
0.0193

> <Gold.Chemscore.DEInternal.Weighted>
1.8206

> <Gold.Chemscore.Rot.Weighted>
4.1075

> <Gold.Chemscore.Internal.Correction.Weighted>
   9.000000E+99

> <Gold.Protein.RotatedTorsions>
[ 6907 6896 6895 6894 ] final -175.22 input  -60.11 | X-H torsion
[ 7974 7965 7964 7962 ] final -170.68 input  175.53 | X-H torsion
[ 8008 7997 7996 7995 ] final   44.79 input   59.86 | X-H torsion
[ 10167 10162 10161 10158 ] final    5.09 input  -65.29 | X-H torsion
[ 10718 10713 10712 10709 ] final   26.27 input   66.30 | X-H torsion
[ 10763 10752 10751 10750 ] final -112.30 input  -60.55 | X-H torsion
[ 11005 11000 10999 10996 ] final   53.60 input  -57.11 | X-H torsion

> <Gold.Protein.ActiveResidues>
 VAL166  LYS551  ARG553  GLY616  TRP617  ASP618  TYR619  PRO620  LYS621  CYS622 
 ASP623  PHE694  ASN695  SER759  ASP760  ASP761  ALA762  ILE779  LEU786  VAL792 
 PHE793  MET794  SER795  GLU796  ALA797  LYS798  CYS799  TRP800  GLU811  SER814 

> <Gold.Protein.RotatedAtoms>
  151.5851  133.3373  159.3016 H   0  0  0  0  0  0  0  0  0  0  0  0  # atno 6907 bound_to 6896
  150.8291  134.7540  159.6850 H   0  0  0  0  0  0  0  0  0  0  0  0  # atno 6908 bound_to 6896
  152.4377  134.5659  159.9959 H   0  0  0  0  0  0  0  0  0  0  0  0  # atno 6909 bound_to 6896
  144.7167  140.2036  143.6335 H   0  0  0  0  0  0  0  0  0  0  0  0  # atno 7974 bound_to 7965
  155.3251  140.3399  155.4240 H   0  0  0  0  0  0  0  0  0  0  0  0  # atno 8008 bound_to 7997
  156.1890  140.1690  156.8167 H   0  0  0  0  0  0  0  0  0  0  0  0  # atno 8009 bound_to 7997
  154.5419  140.0723  156.8508 H   0  0  0  0  0  0  0  0  0  0  0  0  # atno 8010 bound_to 7997
  140.6501  143.7567  150.7561 H   0  0  0  0  0  0  0  0  0  0  0  0  # atno 10167 bound_to 10162
  157.2045  130.6905  149.6202 H   0  0  0  0  0  0  0  0  0  0  0  0  # atno 10718 bound_to 10713
  154.8343  135.4496  154.1172 H   0  0  0  0  0  0  0  0  0  0  0  0  # atno 10763 bound_to 10752
  153.2418  135.6917  153.7781 H   0  0  0  0  0  0  0  0  0  0  0  0  # atno 10764 bound_to 10752
  153.7125  135.3354  155.3225 H   0  0  0  0  0  0  0  0  0  0  0  0  # atno 10765 bound_to 10752
  140.0754  134.5411  155.9002 H   0  0  0  0  0  0  0  0  0  0  0  0  # atno 11005 bound_to 11000
  145.8657  139.2245  143.1691 LP  0  0  0  0  0  0  0  0  0  0  0  0  # atno 17320 bound_to 7965
  146.0132  140.8416  142.9960 LP  0  0  0  0  0  0  0  0  0  0  0  0  # atno 17321 bound_to 7965
  140.1216  143.4607  152.2310 LP  0  0  0  0  0  0  0  0  0  0  0  0  # atno 17342 bound_to 10162
  139.5715  144.7465  151.3879 LP  0  0  0  0  0  0  0  0  0  0  0  0  # atno 17343 bound_to 10162
  155.9697  130.4571  150.5951 LP  0  0  0  0  0  0  0  0  0  0  0  0  # atno 17370 bound_to 10713
  157.3734  131.0769  151.1539 LP  0  0  0  0  0  0  0  0  0  0  0  0  # atno 17371 bound_to 10713
  141.2027  133.6627  156.6024 LP  0  0  0  0  0  0  0  0  0  0  0  0  # atno 17394 bound_to 11000
  140.3565  134.7724  157.4504 LP  0  0  0  0  0  0  0  0  0  0  0  0  # atno 17395 bound_to 11000

$$$$
