AV-unprocessed.smi:243|AV-procd|sdf|1851|dock1
  -GOLD-   2262020473D 1   1.00000     0.00000
 Structure written by MMmdl.
 58 61  0  0  0  0  0  0  0  0  2 V2000
  144.1396  132.0991  150.6072 C   0  0  0  0  0  0  0  0  0  0  0  0
  145.5702  132.0185  150.0547 C   0  0  0  0  0  0  0  0  0  0  0  0
  146.5707  131.7017  151.1051 N   0  3  1  0  0  0  0  0  0  0  0  0
  146.8111  132.8474  152.0140 C   0  0  0  0  0  0  0  0  0  0  0  0
  147.9824  132.5395  152.9511 C   0  0  0  0  0  0  0  0  0  0  0  0
  147.7133  131.2777  153.8004 C   0  0  2  0  0  0  0  0  0  0  0  0
  148.7878  131.0065  154.7723 N   0  0  0  0  0  0  0  0  0  0  0  0
  149.9143  130.1694  154.3744 C   0  0  0  0  0  0  0  0  0  0  0  0
  149.0264  131.8734  155.7901 C   0  0  0  0  0  0  0  0  0  0  0  0
  150.1723  132.5997  155.7534 N   0  0  0  0  0  0  0  0  0  0  0  0
  150.4512  133.4765  156.7214 C   0  0  0  0  0  0  0  0  0  0  0  0
  149.7306  133.7827  157.8007 N   0  0  0  0  0  0  0  0  0  0  0  0
  148.5686  133.0704  157.8377 C   0  0  0  0  0  0  0  0  0  0  0  0
  148.1345  132.1127  156.8765 C   0  0  0  0  0  0  0  0  0  0  0  0
  146.8913  131.6126  157.2457 N   0  0  0  0  0  0  0  0  0  0  0  0
  146.6113  132.2303  158.3598 C   0  0  0  0  0  0  0  0  0  0  0  0
  147.5721  133.1127  158.7970 N   0  0  0  0  0  0  0  0  0  0  0  0
  147.5248  133.9246  160.0026 C   0  0  0  0  0  0  0  0  0  0  0  0
  147.1949  133.1220  161.2873 C   0  0  1  0  0  0  0  0  0  0  0  0
  148.0814  132.0259  161.4119 O   0  0  0  0  0  0  0  0  0  0  0  0
  147.2757  133.9840  162.5363 C   0  0  0  0  0  0  0  0  0  0  0  0
  145.8906  134.6260  162.5999 C   0  0  0  0  0  0  0  0  0  0  0  0
  145.0095  133.7367  161.9190 O   0  0  0  0  0  0  0  0  0  0  0  0
  145.7410  132.6429  161.3760 C   0  0  0  0  0  0  0  0  0  0  0  0
  147.3688  130.0822  152.8658 C   0  0  1  0  0  0  0  0  0  0  0  0
  146.9220  128.8173  153.6197 C   0  0  0  0  0  0  0  0  0  0  0  0
  146.2478  130.4726  151.8741 C   0  0  0  0  0  0  0  0  0  0  0  0
  143.4230  132.2253  149.7953 H   0  0  0  0  0  0  0  0  0  0  0  0
  144.0070  132.9417  151.2851 H   0  0  0  0  0  0  0  0  0  0  0  0
  143.8719  131.1882  151.1435 H   0  0  0  0  0  0  0  0  0  0  0  0
  145.5867  131.2345  149.2964 H   0  0  0  0  0  0  0  0  0  0  0  0
  145.8404  132.9452  149.5463 H   0  0  0  0  0  0  0  0  0  0  0  0
  147.0473  133.7397  151.4326 H   0  0  0  0  0  0  0  0  0  0  0  0
  145.9081  133.0681  152.5858 H   0  0  0  0  0  0  0  0  0  0  0  0
  148.8696  132.4120  152.3320 H   0  0  0  0  0  0  0  0  0  0  0  0
  148.1696  133.3950  153.6012 H   0  0  0  0  0  0  0  0  0  0  0  0
  146.8209  131.4880  154.3917 H   0  0  0  0  0  0  0  0  0  0  0  0
  150.4979  129.8661  155.2448 H   0  0  0  0  0  0  0  0  0  0  0  0
  150.5807  130.6796  153.6815 H   0  0  0  0  0  0  0  0  0  0  0  0
  149.5552  129.2617  153.8888 H   0  0  0  0  0  0  0  0  0  0  0  0
  151.3847  134.0097  156.6162 H   0  0  0  0  0  0  0  0  0  0  0  0
  145.6934  132.0525  158.9015 H   0  0  0  0  0  0  0  0  0  0  0  0
  148.4869  134.4269  160.1113 H   0  0  0  0  0  0  0  0  0  0  0  0
  146.7881  134.7135  159.8469 H   0  0  0  0  0  0  0  0  0  0  0  0
  147.9235  131.6047  162.2430 H   0  0  0  0  0  0  0  0  0  0  0  0
  147.4179  133.3607  163.4209 H   0  0  0  0  0  0  0  0  0  0  0  0
  148.0856  134.7139  162.5126 H   0  0  0  0  0  0  0  0  0  0  0  0
  145.5645  134.7959  163.6262 H   0  0  0  0  0  0  0  0  0  0  0  0
  145.8856  135.5856  162.0817 H   0  0  0  0  0  0  0  0  0  0  0  0
  145.3221  132.3037  160.4298 H   0  0  0  0  0  0  0  0  0  0  0  0
  145.6565  131.8143  162.0813 H   0  0  0  0  0  0  0  0  0  0  0  0
  148.2566  129.8306  152.2831 H   0  0  0  0  0  0  0  0  0  0  0  0
  146.0967  129.0308  154.2997 H   0  0  0  0  0  0  0  0  0  0  0  0
  147.7299  128.3800  154.1989 H   0  0  0  0  0  0  0  0  0  0  0  0
  146.5874  128.0448  152.9266 H   0  0  0  0  0  0  0  0  0  0  0  0
  145.3089  130.6232  152.4097 H   0  0  0  0  0  0  0  0  0  0  0  0
  146.0837  129.6432  151.1871 H   0  0  0  0  0  0  0  0  0  0  0  0
  147.4441  131.5325  150.6267 H   0  0  0  0  0  0  0  0  0  0  0  0
  1  2  1  0  0  0  0
  1 28  1  0  0  0  0
  1 29  1  0  0  0  0
  1 30  1  0  0  0  0
  2  3  1  0  0  0  0
  2 31  1  0  0  0  0
  2 32  1  0  0  0  0
  3 27  1  0  0  0  0
  3  4  1  0  0  0  0
  3 58  1  0  0  0  0
  4  5  1  0  0  0  0
  4 33  1  0  0  0  0
  4 34  1  0  0  0  0
  5  6  1  0  0  0  0
  5 35  1  0  0  0  0
  5 36  1  0  0  0  0
  6  7  1  0  0  0  0
  6 25  1  0  0  0  0
  6 37  1  0  0  0  0
  7  8  1  0  0  0  0
  7  9  1  0  0  0  0
  8 38  1  0  0  0  0
  8 39  1  0  0  0  0
  8 40  1  0  0  0  0
  9 14  1  0  0  0  0
  9 10  2  0  0  0  0
 10 11  1  0  0  0  0
 11 12  2  0  0  0  0
 11 41  1  0  0  0  0
 12 13  1  0  0  0  0
 13 17  1  0  0  0  0
 13 14  2  0  0  0  0
 14 15  1  0  0  0  0
 15 16  2  0  0  0  0
 16 17  1  0  0  0  0
 16 42  1  0  0  0  0
 17 18  1  0  0  0  0
 18 19  1  0  0  0  0
 18 43  1  0  0  0  0
 18 44  1  0  0  0  0
 19 24  1  0  0  0  0
 19 20  1  0  0  0  0
 19 21  1  0  0  0  0
 20 45  1  0  0  0  0
 21 22  1  0  0  0  0
 21 46  1  0  0  0  0
 21 47  1  0  0  0  0
 22 23  1  0  0  0  0
 22 48  1  0  0  0  0
 22 49  1  0  0  0  0
 23 24  1  0  0  0  0
 24 50  1  0  0  0  0
 24 51  1  0  0  0  0
 25 26  1  0  0  0  0
 25 27  1  0  0  0  0
 25 52  1  0  0  0  0
 26 53  1  0  0  0  0
 26 54  1  0  0  0  0
 26 55  1  0  0  0  0
 27 56  1  0  0  0  0
 27 57  1  0  0  0  0
M  CHG  1   3   1
M  END
> <s_m_source_file>
AV-unprocessed.smi

> <i_m_source_file_index>
243

> <i_lp_mmshare_version>
43012

> <i_f3d_flags>
0

> <s_epik_input>
W0NIM11bQ0gyXU4xW0NIMl1bQ0gyXVtDQEhdKFtDQEBIXShbQ0gzXSlbQ0gyXTEpTihbQ0gzXSljKG5bY0hdbjIpYyhjMjMpbltjSF1uM1tDSDJdW0NAQF00KFtPSF0pW0NIMl1bQ0gyXU9bQ0gyXTQ=

> <s_epik_cmdline>
J2VwaWtfcHl0aG9uJywgJy1waCcsICc3LjAnLCAnLXRuJywgJzgnLCAnLW1hJywgJzIwMCcsICctbWV0YWxfYmluZGluZycsICctaW1hZScsICc8aW5maWxlLm1hZT4nLCAnLW9tYWUnLCAnPG91dGZpbGUubWFlPic=

> <r_lp_tautomer_probability>
1

> <r_epik_Ionization_Penalty>
0.00253099

> <r_epik_Ionization_Penalty_Charging>
0.00137877

> <r_epik_Ionization_Penalty_Neutral>
0.00115221

> <r_epik_State_Penalty>
-0

> <r_epik_Charging_Adjusted_Penalty>
0.00137877

> <i_epik_Tot_Q>
1

> <i_epik_Tot_abs_Q>
1

> <r_epik_Metal_State_Penalty>
-0

> <b_epik_Metal_Only>
0

> <s_lp_Force_Field>
OPLS_2005

> <r_lp_Energy>
48.9209

> <b_lp_Chiralities_Consistent>
1

> <s_lp_Variant>
AV-unprocessed.smi:243-4

> <Gold.Version>
5.8.1

> <Gold.Id.Protein>
6NUR|6NUR_protein|mol2

> <Gold.PLP.Fitness>
44.7718

> <Gold.PLP.PLP>
-41.1719

> <Gold.PLP.part.hbond>
-2.0000

> <Gold.PLP.part.metal>
0.0000

> <Gold.PLP.part.buried>
-4.7471

> <Gold.PLP.part.nonpolar>
-34.2310

> <Gold.PLP.part.repulsive>
0.0758

> <Gold.PLP.ligand.clash>
0.0000

> <Gold.PLP.ligand.torsion>
1.6314

> <Gold.PLP.Chemscore.Hbond>
2.0000

> <Gold.PLP.Chemscore.CHOScore>
0.0000

> <Gold.PLP.Chemscore.Metal>
0.0000

> <Gold.Chemscore.Hbonds>
donor molecule, donor type, donor heavy atom, donor atom, acceptor molecule, acceptor atom, score
      L1  H     3    58       P1 10747  1.00
      P1  H  6896  6908       L1    12  1.00

> <Gold.PLP.Chemscore.Internal.Correction>
0.8627

> <Gold.Rescore>
     Score         DG    S(hbond)    S(metal)    S(lipo)     H(rot)  DE(clash)    DE(int)     intcor
     16.35     -17.88       1.94        0.00      99.51       2.24       0.00       1.53       ----

> <Gold.Chemscore.Fitness>
16.3460

> <Gold.Chemscore.DG>
-17.8751

> <Gold.Chemscore.ZeroCoef>
-5.4800

> <Gold.Chemscore.Hbond>
1.9407

> <Gold.Chemscore.Metal>
0.0000

> <Gold.Chemscore.Lipo>
99.5075

> <Gold.Chemscore.Internal_Hbond>
0.0000

> <Gold.Chemscore.DEClash>
0.0029

> <Gold.Chemscore.DEInternal>
1.5262

> <Gold.Chemscore.Rot>
2.2379

> <Gold.Chemscore.Internal.Correction>
   9.000000E+99

> <Gold.Chemscore.Hbonds>
donor molecule, donor type, donor heavy atom, donor atom, acceptor molecule, acceptor atom, score
      L1  H     3    58       P1 10747  1.00
      P1  H  6896  6908       L1    12  0.79

> <Gold.Chemscore.Hbond.Weighted>
-6.4818

> <Gold.Chemscore.Metal.Weighted>
-0.0000

> <Gold.Chemscore.Lipo.Weighted>
-11.6424

> <Gold.Chemscore.Internal_Hbond.Weighted>
0.0000

> <Gold.Chemscore.DEClash.Weighted>
0.0029

> <Gold.Chemscore.DEInternal.Weighted>
1.5262

> <Gold.Chemscore.Rot.Weighted>
5.7291

> <Gold.Chemscore.Internal.Correction.Weighted>
   9.000000E+99

> <Gold.Protein.RotatedTorsions>
[ 6907 6896 6895 6894 ] final  127.18 input  -60.11 | X-H torsion
[ 7974 7965 7964 7962 ] final  -60.28 input  175.53 | X-H torsion
[ 8008 7997 7996 7995 ] final -100.06 input   59.86 | X-H torsion
[ 10167 10162 10161 10158 ] final -108.38 input  -65.29 | X-H torsion
[ 10718 10713 10712 10709 ] final  171.41 input   66.30 | X-H torsion
[ 10763 10752 10751 10750 ] final -171.63 input  -60.55 | X-H torsion
[ 11005 11000 10999 10996 ] final   20.57 input  -57.11 | X-H torsion

> <Gold.Protein.ActiveResidues>
 VAL166  LYS551  ARG553  GLY616  TRP617  ASP618  TYR619  PRO620  LYS621  CYS622 
 ASP623  PHE694  ASN695  SER759  ASP760  ASP761  ALA762  ILE779  LEU786  VAL792 
 PHE793  MET794  SER795  GLU796  ALA797  LYS798  CYS799  TRP800  GLU811  SER814 

> <Gold.Protein.RotatedAtoms>
  152.3836  133.6579  159.6180 H   0  0  0  0  0  0  0  0  0  0  0  0  # atno 6907 bound_to 6896
  150.7760  133.9073  159.3368 H   0  0  0  0  0  0  0  0  0  0  0  0  # atno 6908 bound_to 6896
  151.6874  135.0953  160.0278 H   0  0  0  0  0  0  0  0  0  0  0  0  # atno 6909 bound_to 6896
  145.8174  140.8561  143.0150 H   0  0  0  0  0  0  0  0  0  0  0  0  # atno 7974 bound_to 7965
  154.8234  140.0443  157.1427 H   0  0  0  0  0  0  0  0  0  0  0  0  # atno 8008 bound_to 7997
  154.9233  140.3030  155.5185 H   0  0  0  0  0  0  0  0  0  0  0  0  # atno 8009 bound_to 7997
  156.2982  140.2336  156.4286 H   0  0  0  0  0  0  0  0  0  0  0  0  # atno 8010 bound_to 7997
  140.1668  143.4075  152.1384 H   0  0  0  0  0  0  0  0  0  0  0  0  # atno 10167 bound_to 10162
  156.9940  131.0156  151.2849 H   0  0  0  0  0  0  0  0  0  0  0  0  # atno 10718 bound_to 10713
  154.6283  135.2883  155.0246 H   0  0  0  0  0  0  0  0  0  0  0  0  # atno 10763 bound_to 10752
  154.1416  135.6517  153.4947 H   0  0  0  0  0  0  0  0  0  0  0  0  # atno 10764 bound_to 10752
  153.0268  135.5334  154.7100 H   0  0  0  0  0  0  0  0  0  0  0  0  # atno 10765 bound_to 10752
  140.4012  134.1717  155.7664 H   0  0  0  0  0  0  0  0  0  0  0  0  # atno 11005 bound_to 11000
  144.6751  140.0483  143.7479 LP  0  0  0  0  0  0  0  0  0  0  0  0  # atno 17320 bound_to 7965
  145.9712  139.2871  143.1098 LP  0  0  0  0  0  0  0  0  0  0  0  0  # atno 17321 bound_to 7965
  139.5356  144.7206  151.4905 LP  0  0  0  0  0  0  0  0  0  0  0  0  # atno 17342 bound_to 10162
  140.6608  143.8503  150.6885 LP  0  0  0  0  0  0  0  0  0  0  0  0  # atno 17343 bound_to 10162
  157.5438  130.8137  149.8061 LP  0  0  0  0  0  0  0  0  0  0  0  0  # atno 17370 bound_to 10713
  156.0196  130.3800  150.2002 LP  0  0  0  0  0  0  0  0  0  0  0  0  # atno 17371 bound_to 10713
  141.1856  133.8320  157.1098 LP  0  0  0  0  0  0  0  0  0  0  0  0  # atno 17394 bound_to 11000
  140.0335  134.9889  157.0826 LP  0  0  0  0  0  0  0  0  0  0  0  0  # atno 17395 bound_to 11000

$$$$
