AV-unprocessed.smi:148|AV-procd|sdf|1218|dock3
  -GOLD-   2262018403D 1   1.00000     0.00000
 Structure written by MMmdl.
 63 67  0  0  0  0  0  0  0  0  1 V2000
  146.9679  135.6770  153.8524 O   0  0  0  0  0  0  0  0  0  0  0  0
  145.5937  135.3518  153.8504 C   0  0  0  0  0  0  0  0  0  0  0  0
  145.3702  133.8650  153.4834 C   0  0  2  0  0  0  0  0  0  0  0  0
  146.2431  132.9150  154.3460 C   0  0  0  0  0  0  0  0  0  0  0  0
  146.2495  133.2831  155.7509 N   0  0  0  0  0  0  0  0  0  0  0  0
  145.1654  133.3033  156.5984 C   0  0  0  0  0  0  0  0  0  0  0  0
  145.4228  133.6809  157.8209 N   0  0  0  0  0  0  0  0  0  0  0  0
  146.7884  133.9396  157.8149 C   0  0  0  0  0  0  0  0  0  0  0  0
  147.7210  134.3933  158.7904 C   0  0  0  0  0  0  0  0  0  0  0  0
  147.4116  134.7064  160.0692 N   0  0  0  0  0  0  0  0  0  0  0  0
  147.6572  136.1287  160.3060 C   0  0  0  0  0  0  0  0  0  0  0  0
  147.0869  136.5779  161.6569 C   0  0  0  0  0  0  0  0  0  0  0  0
  147.6491  135.7078  162.7850 C   0  0  0  0  0  0  0  0  0  0  0  0
  147.3579  134.2281  162.5003 C   0  0  0  0  0  0  0  0  0  0  0  0
  147.9016  133.7889  161.1150 C   0  0  1  0  0  0  0  0  0  0  0  0
  147.6214  132.2879  160.7873 C   0  0  2  0  0  0  0  0  0  0  0  0
  146.1610  131.8186  160.9370 C   0  0  0  0  0  0  0  0  0  0  0  0
  146.2201  130.3263  161.3033 C   0  0  0  0  0  0  0  0  0  0  0  0
  147.7032  129.9430  161.3086 C   0  0  0  0  0  0  0  0  0  0  0  0
  148.4335  131.2564  161.5843 C   0  0  1  0  0  0  0  0  0  0  0  0
  149.7806  131.1968  161.1629 O   0  0  0  0  0  0  0  0  0  0  0  0
  149.0193  134.5185  158.4206 N   0  0  0  0  0  0  0  0  0  0  0  0
  149.3860  134.2391  157.1663 C   0  0  0  0  0  0  0  0  0  0  0  0
  148.6296  133.8243  156.1474 N   0  0  0  0  0  0  0  0  0  0  0  0
  147.3258  133.6836  156.5227 C   0  0  0  0  0  0  0  0  0  0  0  0
  145.5123  133.6133  151.9554 C   0  0  1  0  0  0  0  0  0  0  0  0
  145.6482  132.1458  151.5403 C   0  0  0  0  0  0  0  0  0  0  0  0
  144.6999  132.0118  150.3527 C   0  0  0  0  0  0  0  0  0  0  0  0
  143.6817  132.9519  150.6481 O   0  0  0  0  0  0  0  0  0  0  0  0
  144.3335  134.1245  151.1104 C   0  0  0  0  0  0  0  0  0  0  0  0
  147.2274  135.8892  152.9686 H   0  0  0  0  0  0  0  0  0  0  0  0
  145.1649  135.5835  154.8254 H   0  0  0  0  0  0  0  0  0  0  0  0
  145.1131  136.0128  153.1297 H   0  0  0  0  0  0  0  0  0  0  0  0
  144.3326  133.6367  153.7335 H   0  0  0  0  0  0  0  0  0  0  0  0
  145.8872  131.8873  154.2815 H   0  0  0  0  0  0  0  0  0  0  0  0
  147.2738  132.9008  153.9942 H   0  0  0  0  0  0  0  0  0  0  0  0
  144.1701  133.0338  156.2764 H   0  0  0  0  0  0  0  0  0  0  0  0
  148.7312  136.3185  160.2779 H   0  0  0  0  0  0  0  0  0  0  0  0
  147.2091  136.7234  159.5082 H   0  0  0  0  0  0  0  0  0  0  0  0
  147.3280  137.6263  161.8347 H   0  0  0  0  0  0  0  0  0  0  0  0
  145.9987  136.5046  161.6408 H   0  0  0  0  0  0  0  0  0  0  0  0
  148.7252  135.8633  162.8713 H   0  0  0  0  0  0  0  0  0  0  0  0
  147.2120  136.0009  163.7399 H   0  0  0  0  0  0  0  0  0  0  0  0
  147.8031  133.6362  163.2981 H   0  0  0  0  0  0  0  0  0  0  0  0
  146.2820  134.0680  162.5591 H   0  0  0  0  0  0  0  0  0  0  0  0
  148.9840  133.9095  161.1589 H   0  0  0  0  0  0  0  0  0  0  0  0
  147.8874  132.1099  159.7444 H   0  0  0  0  0  0  0  0  0  0  0  0
  145.6328  132.3631  161.7183 H   0  0  0  0  0  0  0  0  0  0  0  0
  145.6068  131.9777  160.0116 H   0  0  0  0  0  0  0  0  0  0  0  0
  145.7948  130.1773  162.2964 H   0  0  0  0  0  0  0  0  0  0  0  0
  145.6491  129.7098  160.6083 H   0  0  0  0  0  0  0  0  0  0  0  0
  147.9351  129.1705  162.0425 H   0  0  0  0  0  0  0  0  0  0  0  0
  147.9799  129.5595  160.3249 H   0  0  0  0  0  0  0  0  0  0  0  0
  148.3962  131.4549  162.6544 H   0  0  0  0  0  0  0  0  0  0  0  0
  150.2122  130.5016  161.6357 H   0  0  0  0  0  0  0  0  0  0  0  0
  150.4355  134.3685  156.9471 H   0  0  0  0  0  0  0  0  0  0  0  0
  146.3963  134.1485  151.6062 H   0  0  0  0  0  0  0  0  0  0  0  0
  146.6728  131.8801  151.2783 H   0  0  0  0  0  0  0  0  0  0  0  0
  145.3329  131.4694  152.3326 H   0  0  0  0  0  0  0  0  0  0  0  0
  145.1969  132.2897  149.4216 H   0  0  0  0  0  0  0  0  0  0  0  0
  144.3001  131.0034  150.2431 H   0  0  0  0  0  0  0  0  0  0  0  0
  143.6502  134.7770  151.6536 H   0  0  0  0  0  0  0  0  0  0  0  0
  144.6999  134.6843  150.2484 H   0  0  0  0  0  0  0  0  0  0  0  0
  1  2  1  0  0  0  0
  1 31  1  0  0  0  0
  2  3  1  0  0  0  0
  2 32  1  0  0  0  0
  2 33  1  0  0  0  0
  3  4  1  0  0  0  0
  3 26  1  0  0  0  0
  3 34  1  0  0  0  0
  4  5  1  0  0  0  0
  4 35  1  0  0  0  0
  4 36  1  0  0  0  0
  5 25  1  0  0  0  0
  5  6  1  0  0  0  0
  6  7  2  0  0  0  0
  6 37  1  0  0  0  0
  7  8  1  0  0  0  0
  8 25  2  0  0  0  0
  8  9  1  0  0  0  0
  9 10  1  0  0  0  0
  9 22  2  0  0  0  0
 10 15  1  0  0  0  0
 10 11  1  0  0  0  0
 11 12  1  0  0  0  0
 11 38  1  0  0  0  0
 11 39  1  0  0  0  0
 12 13  1  0  0  0  0
 12 40  1  0  0  0  0
 12 41  1  0  0  0  0
 13 14  1  0  0  0  0
 13 42  1  0  0  0  0
 13 43  1  0  0  0  0
 14 15  1  0  0  0  0
 14 44  1  0  0  0  0
 14 45  1  0  0  0  0
 15 16  1  0  0  0  0
 15 46  1  0  0  0  0
 16 20  1  0  0  0  0
 16 17  1  0  0  0  0
 16 47  1  0  0  0  0
 17 18  1  0  0  0  0
 17 48  1  0  0  0  0
 17 49  1  0  0  0  0
 18 19  1  0  0  0  0
 18 50  1  0  0  0  0
 18 51  1  0  0  0  0
 19 20  1  0  0  0  0
 19 52  1  0  0  0  0
 19 53  1  0  0  0  0
 20 21  1  0  0  0  0
 20 54  1  0  0  0  0
 21 55  1  0  0  0  0
 22 23  1  0  0  0  0
 23 24  2  0  0  0  0
 23 56  1  0  0  0  0
 24 25  1  0  0  0  0
 26 30  1  0  0  0  0
 26 27  1  0  0  0  0
 26 57  1  0  0  0  0
 27 28  1  0  0  0  0
 27 58  1  0  0  0  0
 27 59  1  0  0  0  0
 28 29  1  0  0  0  0
 28 60  1  0  0  0  0
 28 61  1  0  0  0  0
 29 30  1  0  0  0  0
 30 62  1  0  0  0  0
 30 63  1  0  0  0  0
M  END
> <s_m_source_file>
AV-unprocessed.smi

> <i_m_source_file_index>
148

> <i_lp_mmshare_version>
43012

> <i_f3d_flags>
0

> <s_epik_input>
W0NIMl0xT1tDSDJdW0NIMl1bQ0BIXTFbQ0BIXShbQ0gyXVtPSF0pW0NIMl1uKFtjSF1uMiljKGMyMyluW2NIXW5jM040W0NIMl1bQ0gyXVtDSDJdW0NIMl1bQ0BIXTRbQ0BASF01W0NIMl1bQ0gyXVtDSDJdW0NASF01W09IXQ==

> <s_epik_cmdline>
J2VwaWtfcHl0aG9uJywgJy1waCcsICc3LjAnLCAnLXRuJywgJzgnLCAnLW1hJywgJzIwMCcsICctbWV0YWxfYmluZGluZycsICctaW1hZScsICc8aW5maWxlLm1hZT4nLCAnLW9tYWUnLCAnPG91dGZpbGUubWFlPic=

> <r_lp_tautomer_probability>
1

> <r_epik_Ionization_Penalty>
0.00556303

> <r_epik_Ionization_Penalty_Charging>
0

> <r_epik_Ionization_Penalty_Neutral>
0.00556303

> <r_epik_State_Penalty>
0.00401767

> <r_epik_Charging_Adjusted_Penalty>
0.00401767

> <i_epik_Tot_Q>
0

> <i_epik_Tot_abs_Q>
0

> <r_epik_Metal_State_Penalty>
-0

> <b_epik_Metal_Only>
0

> <s_lp_Force_Field>
OPLS_2005

> <r_lp_Energy>
68.3578

> <b_lp_Chiralities_Consistent>
1

> <s_lp_Variant>
AV-unprocessed.smi:148-17

> <Gold.Version>
5.8.1

> <Gold.Id.Protein>
6NUR|6NUR_protein|mol2

> <Gold.PLP.Fitness>
46.6361

> <Gold.PLP.PLP>
-38.7793

> <Gold.PLP.part.hbond>
-2.0000

> <Gold.PLP.part.metal>
0.0000

> <Gold.PLP.part.buried>
-6.8571

> <Gold.PLP.part.nonpolar>
-30.2954

> <Gold.PLP.part.repulsive>
0.2256

> <Gold.PLP.ligand.clash>
0.0000

> <Gold.PLP.ligand.torsion>
0.7859

> <Gold.PLP.Chemscore.Hbond>
2.0000

> <Gold.PLP.Chemscore.CHOScore>
0.9939

> <Gold.PLP.Chemscore.Metal>
0.0000

> <Gold.Chemscore.Hbonds>
donor molecule, donor type, donor heavy atom, donor atom, acceptor molecule, acceptor atom, score
      L1  H     1    31       P1  7948  0.72
      P1  H  6896  6908       L1    22  1.00
      L1  C     6    37       P1 10957  1.00

> <Gold.PLP.Chemscore.Internal.Correction>
0.4470

> <Gold.Rescore>
     Score         DG    S(hbond)    S(metal)    S(lipo)     H(rot)  DE(clash)    DE(int)     intcor
     12.55     -13.60       1.78        0.00      91.40       3.32       0.02       1.04       ----

> <Gold.Chemscore.Fitness>
12.5459

> <Gold.Chemscore.DG>
-13.6041

> <Gold.Chemscore.ZeroCoef>
-5.4800

> <Gold.Chemscore.Hbond>
1.7755

> <Gold.Chemscore.Metal>
0.0000

> <Gold.Chemscore.Lipo>
91.4017

> <Gold.Chemscore.Internal_Hbond>
0.0000

> <Gold.Chemscore.DEClash>
0.0183

> <Gold.Chemscore.DEInternal>
1.0399

> <Gold.Chemscore.Rot>
3.3203

> <Gold.Chemscore.Internal.Correction>
   9.000000E+99

> <Gold.Chemscore.Hbonds>
donor molecule, donor type, donor heavy atom, donor atom, acceptor molecule, acceptor atom, score
      L1  H     1    31       P1  7948  0.69
      P1  H  6896  6908       L1    22  0.35

> <Gold.Chemscore.Hbond.Weighted>
-5.9301

> <Gold.Chemscore.Metal.Weighted>
-0.0000

> <Gold.Chemscore.Lipo.Weighted>
-10.6940

> <Gold.Chemscore.Internal_Hbond.Weighted>
0.0000

> <Gold.Chemscore.DEClash.Weighted>
0.0183

> <Gold.Chemscore.DEInternal.Weighted>
1.0399

> <Gold.Chemscore.Rot.Weighted>
8.5000

> <Gold.Chemscore.Internal.Correction.Weighted>
   9.000000E+99

> <Gold.Protein.RotatedTorsions>
[ 6907 6896 6895 6894 ] final  146.48 input  -60.11 | X-H torsion
[ 7974 7965 7964 7962 ] final  135.36 input  175.53 | X-H torsion
[ 8008 7997 7996 7995 ] final  -23.19 input   59.86 | X-H torsion
[ 10167 10162 10161 10158 ] final   92.18 input  -65.29 | X-H torsion
[ 10718 10713 10712 10709 ] final -154.51 input   66.30 | X-H torsion
[ 10763 10752 10751 10750 ] final -147.38 input  -60.55 | X-H torsion
[ 11005 11000 10999 10996 ] final   21.93 input  -57.11 | X-H torsion

> <Gold.Protein.ActiveResidues>
 VAL166  LYS551  ARG553  GLY616  TRP617  ASP618  TYR619  PRO620  LYS621  CYS622 
 ASP623  PHE694  ASN695  SER759  ASP760  ASP761  ALA762  ILE779  LEU786  VAL792 
 PHE793  MET794  SER795  GLU796  ALA797  LYS798  CYS799  TRP800  GLU811  SER814 

> <Gold.Protein.RotatedAtoms>
  152.1673  133.4620  159.4890 H   0  0  0  0  0  0  0  0  0  0  0  0  # atno 6907 bound_to 6896
  150.6915  134.1997  159.4326 H   0  0  0  0  0  0  0  0  0  0  0  0  # atno 6908 bound_to 6896
  151.9902  134.9982  160.0612 H   0  0  0  0  0  0  0  0  0  0  0  0  # atno 6909 bound_to 6896
  144.9671  139.4646  143.5451 H   0  0  0  0  0  0  0  0  0  0  0  0  # atno 7974 bound_to 7965
  154.4600  140.1987  156.0272 H   0  0  0  0  0  0  0  0  0  0  0  0  # atno 8008 bound_to 7997
  156.0821  140.3270  155.7679 H   0  0  0  0  0  0  0  0  0  0  0  0  # atno 8009 bound_to 7997
  155.5095  140.0560  157.2916 H   0  0  0  0  0  0  0  0  0  0  0  0  # atno 8010 bound_to 7997
  139.8302  144.6690  150.9409 H   0  0  0  0  0  0  0  0  0  0  0  0  # atno 10167 bound_to 10162
  156.5002  130.8388  151.2606 H   0  0  0  0  0  0  0  0  0  0  0  0  # atno 10718 bound_to 10713
  154.8288  135.3361  154.6810 H   0  0  0  0  0  0  0  0  0  0  0  0  # atno 10763 bound_to 10752
  153.7432  135.6944  153.4967 H   0  0  0  0  0  0  0  0  0  0  0  0  # atno 10764 bound_to 10752
  153.2229  135.4443  155.0460 H   0  0  0  0  0  0  0  0  0  0  0  0  # atno 10765 bound_to 10752
  140.3862  134.1868  155.7663 H   0  0  0  0  0  0  0  0  0  0  0  0  # atno 11005 bound_to 11000
  146.3371  139.8859  142.8817 LP  0  0  0  0  0  0  0  0  0  0  0  0  # atno 17320 bound_to 7965
  145.2614  141.0078  143.3824 LP  0  0  0  0  0  0  0  0  0  0  0  0  # atno 17321 bound_to 7965
  140.7807  143.4008  151.1152 LP  0  0  0  0  0  0  0  0  0  0  0  0  # atno 17342 bound_to 10162
  139.7662  143.8562  152.3111 LP  0  0  0  0  0  0  0  0  0  0  0  0  # atno 17343 bound_to 10162
  157.7463  130.9984  150.2851 LP  0  0  0  0  0  0  0  0  0  0  0  0  # atno 17370 bound_to 10713
  156.3340  130.3805  149.7466 LP  0  0  0  0  0  0  0  0  0  0  0  0  # atno 17371 bound_to 10713
  141.1906  133.8212  157.0910 LP  0  0  0  0  0  0  0  0  0  0  0  0  # atno 17394 bound_to 11000
  140.0441  134.9839  157.1016 LP  0  0  0  0  0  0  0  0  0  0  0  0  # atno 17395 bound_to 11000

$$$$
