AV-unprocessed.smi:748|AV-procd|sdf|3583|dock6
  -GOLD-   22720 0573D 1   1.00000     0.00000
 Structure written by MMmdl.
 50 51  0  0  0  0  0  0  0  0  1 V2000
  146.7381  133.8361  153.1879 C   0  0  0  0  0  0  0  0  0  0  0  0
  145.7252  134.7338  152.4600 C   0  0  0  0  0  0  0  0  0  0  0  0
  145.2095  134.0784  151.1720 C   0  0  0  0  0  0  0  0  0  0  0  0
  146.3281  136.0248  152.1407 N   0  0  0  0  0  0  0  0  0  0  0  0
  145.7667  137.2238  152.3623 C   0  0  0  0  0  0  0  0  0  0  0  0
  144.6505  137.3651  152.8634 O   0  0  0  0  0  0  0  0  0  0  0  0
  146.6004  138.4412  151.9513 C   0  0  0  0  0  0  0  0  0  0  0  0
  146.6630  139.5312  153.0395 C   0  0  0  0  0  0  0  0  0  0  0  0
  147.9986  139.6319  153.6157 N   0  0  0  0  0  0  0  0  0  0  0  0
  148.2743  139.6139  154.9299 C   0  0  0  0  0  0  0  0  0  0  0  0
  147.4145  139.4908  155.8030 O   0  0  0  0  0  0  0  0  0  0  0  0
  149.7314  139.6817  155.2876 C   0  0  0  0  0  0  0  0  0  0  0  0
  150.7050  138.9640  154.5581 C   0  0  0  0  0  0  0  0  0  0  0  0
  152.0531  139.0842  154.9416 C   0  0  0  0  0  0  0  0  0  0  0  0
  152.4658  139.8585  155.9659 N   0  0  0  0  0  0  0  0  0  0  0  0
  151.5451  140.5683  156.6632 C   0  0  0  0  0  0  0  0  0  0  0  0
  151.9911  141.3843  157.7251 N   0  0  0  0  0  0  0  0  0  0  0  0
  151.9687  140.7647  159.0472 C   0  0  0  0  0  0  0  0  0  0  0  0
  152.7525  141.6240  160.0534 C   0  0  0  0  0  0  0  0  0  0  0  0
  152.2438  142.9542  160.0519 O   0  0  0  0  0  0  0  0  0  0  0  0
  152.3810  143.5797  158.7790 C   0  0  2  0  0  0  0  0  0  0  0  0
  151.8978  145.0288  158.8981 C   0  0  0  0  0  0  0  0  0  0  0  0
  151.5726  142.7844  157.7364 C   0  0  0  0  0  0  0  0  0  0  0  0
  150.1665  140.5020  156.3515 C   0  0  0  0  0  0  0  0  0  0  0  0
  146.2956  132.8720  153.4396 H   0  0  0  0  0  0  0  0  0  0  0  0
  147.0762  134.2936  154.1182 H   0  0  0  0  0  0  0  0  0  0  0  0
  147.6174  133.6477  152.5710 H   0  0  0  0  0  0  0  0  0  0  0  0
  144.8677  134.8923  153.1163 H   0  0  0  0  0  0  0  0  0  0  0  0
  144.7296  133.1227  151.3844 H   0  0  0  0  0  0  0  0  0  0  0  0
  146.0202  133.8936  150.4665 H   0  0  0  0  0  0  0  0  0  0  0  0
  144.4732  134.7120  150.6762 H   0  0  0  0  0  0  0  0  0  0  0  0
  147.2476  136.0042  151.7237 H   0  0  0  0  0  0  0  0  0  0  0  0
  147.6094  138.1032  151.7106 H   0  0  0  0  0  0  0  0  0  0  0  0
  146.1810  138.8545  151.0333 H   0  0  0  0  0  0  0  0  0  0  0  0
  146.4093  140.5029  152.6144 H   0  0  0  0  0  0  0  0  0  0  0  0
  145.9319  139.3362  153.8266 H   0  0  0  0  0  0  0  0  0  0  0  0
  148.7716  139.7139  152.9713 H   0  0  0  0  0  0  0  0  0  0  0  0
  150.4384  138.3344  153.7216 H   0  0  0  0  0  0  0  0  0  0  0  0
  152.8228  138.5458  154.4086 H   0  0  0  0  0  0  0  0  0  0  0  0
  150.9318  140.6654  159.3708 H   0  0  0  0  0  0  0  0  0  0  0  0
  152.3923  139.7615  159.0316 H   0  0  0  0  0  0  0  0  0  0  0  0
  152.6552  141.2084  161.0563 H   0  0  0  0  0  0  0  0  0  0  0  0
  153.8169  141.6296  159.8136 H   0  0  0  0  0  0  0  0  0  0  0  0
  153.4356  143.5884  158.4971 H   0  0  0  0  0  0  0  0  0  0  0  0
  151.9979  145.5542  157.9480 H   0  0  0  0  0  0  0  0  0  0  0  0
  152.4798  145.5736  159.6418 H   0  0  0  0  0  0  0  0  0  0  0  0
  150.8502  145.0726  159.1971 H   0  0  0  0  0  0  0  0  0  0  0  0
  151.7181  143.2273  156.7501 H   0  0  0  0  0  0  0  0  0  0  0  0
  150.5072  142.8387  157.9651 H   0  0  0  0  0  0  0  0  0  0  0  0
  149.4443  141.0593  156.9303 H   0  0  0  0  0  0  0  0  0  0  0  0
  1  2  1  0  0  0  0
  1 25  1  0  0  0  0
  1 26  1  0  0  0  0
  1 27  1  0  0  0  0
  2  3  1  0  0  0  0
  2  4  1  0  0  0  0
  2 28  1  0  0  0  0
  3 29  1  0  0  0  0
  3 30  1  0  0  0  0
  3 31  1  0  0  0  0
  4  5  1  0  0  0  0
  4 32  1  0  0  0  0
  5  6  2  0  0  0  0
  5  7  1  0  0  0  0
  7  8  1  0  0  0  0
  7 33  1  0  0  0  0
  7 34  1  0  0  0  0
  8  9  1  0  0  0  0
  8 35  1  0  0  0  0
  8 36  1  0  0  0  0
  9 10  1  0  0  0  0
  9 37  1  0  0  0  0
 10 11  2  0  0  0  0
 10 12  1  0  0  0  0
 12 24  1  0  0  0  0
 12 13  2  0  0  0  0
 13 14  1  0  0  0  0
 13 38  1  0  0  0  0
 14 15  2  0  0  0  0
 14 39  1  0  0  0  0
 15 16  1  0  0  0  0
 16 17  1  0  0  0  0
 16 24  2  0  0  0  0
 17 23  1  0  0  0  0
 17 18  1  0  0  0  0
 18 19  1  0  0  0  0
 18 40  1  0  0  0  0
 18 41  1  0  0  0  0
 19 20  1  0  0  0  0
 19 42  1  0  0  0  0
 19 43  1  0  0  0  0
 20 21  1  0  0  0  0
 21 22  1  0  0  0  0
 21 23  1  0  0  0  0
 21 44  1  0  0  0  0
 22 45  1  0  0  0  0
 22 46  1  0  0  0  0
 22 47  1  0  0  0  0
 23 48  1  0  0  0  0
 23 49  1  0  0  0  0
 24 50  1  0  0  0  0
M  END
> <s_m_source_file>
AV-unprocessed.smi

> <i_m_source_file_index>
748

> <i_lp_mmshare_version>
43012

> <i_f3d_flags>
0

> <s_epik_input>
W0NIM11bQ0hdKFtDSDNdKVtOSF1DKD1PKVtDSDJdW0NIMl1bTkhdQyg9TyljMVtjSF1bY0hdbmMoW2NIXTEpTjJbQ0gyXVtDSDJdT1tDQEBIXShbQ0gzXSlbQ0gyXTI=

> <s_epik_cmdline>
J2VwaWtfcHl0aG9uJywgJy1waCcsICc3LjAnLCAnLXRuJywgJzgnLCAnLW1hJywgJzIwMCcsICctbWV0YWxfYmluZGluZycsICctaW1hZScsICc8aW5maWxlLm1hZT4nLCAnLW9tYWUnLCAnPG91dGZpbGUubWFlPic=

> <r_lp_tautomer_probability>
1

> <r_epik_Ionization_Penalty>
1.38678e-05

> <r_epik_Ionization_Penalty_Charging>
0

> <r_epik_Ionization_Penalty_Neutral>
1.38678e-05

> <r_epik_State_Penalty>
-0

> <r_epik_Charging_Adjusted_Penalty>
0

> <i_epik_Tot_Q>
0

> <i_epik_Tot_abs_Q>
0

> <r_epik_Metal_State_Penalty>
-0

> <b_epik_Metal_Only>
0

> <s_lp_Force_Field>
OPLS_2005

> <r_lp_Energy>
15.3694

> <b_lp_Chiralities_Consistent>
1

> <s_lp_Variant>
AV-unprocessed.smi:748-2

> <Gold.Version>
5.8.1

> <Gold.Id.Protein>
6NUR|6NUR_protein|mol2

> <Gold.PLP.Fitness>
51.6267

> <Gold.PLP.PLP>
-46.1057

> <Gold.PLP.part.hbond>
-2.8370

> <Gold.PLP.part.metal>
0.0000

> <Gold.PLP.part.buried>
-2.6247

> <Gold.PLP.part.nonpolar>
-40.3328

> <Gold.PLP.part.repulsive>
0.5943

> <Gold.PLP.ligand.clash>
0.0000

> <Gold.PLP.ligand.torsion>
1.8222

> <Gold.PLP.Chemscore.Hbond>
2.9360

> <Gold.PLP.Chemscore.CHOScore>
0.0000

> <Gold.PLP.Chemscore.Metal>
0.0000

> <Gold.Chemscore.Hbonds>
donor molecule, donor type, donor heavy atom, donor atom, acceptor molecule, acceptor atom, score
      L1  H     4    32       P1  7948  1.00
      L1  H     9    37       P1  7957  1.00
      P1  H  7997  8009       L1    15  1.00

> <Gold.PLP.Chemscore.Internal.Correction>
0.3575

> <Gold.Rescore>
     Score         DG    S(hbond)    S(metal)    S(lipo)     H(rot)  DE(clash)    DE(int)     intcor
     21.26     -23.00       2.91        0.00     107.67       1.87       0.04       1.70       ----

> <Gold.Chemscore.Fitness>
21.2603

> <Gold.Chemscore.DG>
-22.9952

> <Gold.Chemscore.ZeroCoef>
-5.4800

> <Gold.Chemscore.Hbond>
2.9052

> <Gold.Chemscore.Metal>
0.0000

> <Gold.Chemscore.Lipo>
107.6681

> <Gold.Chemscore.Internal_Hbond>
0.0000

> <Gold.Chemscore.DEClash>
0.0377

> <Gold.Chemscore.DEInternal>
1.6972

> <Gold.Chemscore.Rot>
1.8692

> <Gold.Chemscore.Internal.Correction>
   9.000000E+99

> <Gold.Chemscore.Hbonds>
donor molecule, donor type, donor heavy atom, donor atom, acceptor molecule, acceptor atom, score
      L1  H     4    32       P1  7948  0.96
      L1  H     9    37       P1  7957  0.92
      P1  H  7997  8009       L1    15  0.88

> <Gold.Chemscore.Hbond.Weighted>
-9.7032

> <Gold.Chemscore.Metal.Weighted>
-0.0000

> <Gold.Chemscore.Lipo.Weighted>
-12.5972

> <Gold.Chemscore.Internal_Hbond.Weighted>
0.0000

> <Gold.Chemscore.DEClash.Weighted>
0.0377

> <Gold.Chemscore.DEInternal.Weighted>
1.6972

> <Gold.Chemscore.Rot.Weighted>
4.7852

> <Gold.Chemscore.Internal.Correction.Weighted>
   9.000000E+99

> <Gold.Protein.RotatedTorsions>
[ 6907 6896 6895 6894 ] final    9.21 input  -60.11 | X-H torsion
[ 7974 7965 7964 7962 ] final  179.73 input  175.53 | X-H torsion
[ 8008 7997 7996 7995 ] final -142.68 input   59.86 | X-H torsion
[ 10167 10162 10161 10158 ] final -160.33 input  -65.29 | X-H torsion
[ 10718 10713 10712 10709 ] final   44.23 input   66.30 | X-H torsion
[ 10763 10752 10751 10750 ] final  110.87 input  -60.55 | X-H torsion
[ 11005 11000 10999 10996 ] final  -72.06 input  -57.11 | X-H torsion

> <Gold.Protein.ActiveResidues>
 VAL166  LYS551  ARG553  GLY616  TRP617  ASP618  TYR619  PRO620  LYS621  CYS622 
 ASP623  PHE694  ASN695  SER759  ASP760  ASP761  ALA762  ILE779  LEU786  VAL792 
 PHE793  MET794  SER795  GLU796  ALA797  LYS798  CYS799  TRP800  GLU811  SER814 

> <Gold.Protein.RotatedAtoms>
  151.7186  135.0899  160.0279 H   0  0  0  0  0  0  0  0  0  0  0  0  # atno 6907 bound_to 6896
  152.3616  133.6300  159.6028 H   0  0  0  0  0  0  0  0  0  0  0  0  # atno 6908 bound_to 6896
  150.7609  133.9330  159.3474 H   0  0  0  0  0  0  0  0  0  0  0  0  # atno 6909 bound_to 6896
  144.7143  140.0591  143.6433 H   0  0  0  0  0  0  0  0  0  0  0  0  # atno 7974 bound_to 7965
  155.4982  140.0573  157.2943 H   0  0  0  0  0  0  0  0  0  0  0  0  # atno 8008 bound_to 7997
  154.4597  140.1990  156.0230 H   0  0  0  0  0  0  0  0  0  0  0  0  # atno 8009 bound_to 7997
  156.0866  140.3239  155.7766 H   0  0  0  0  0  0  0  0  0  0  0  0  # atno 8010 bound_to 7997
  139.6547  144.0020  152.2186 H   0  0  0  0  0  0  0  0  0  0  0  0  # atno 10167 bound_to 10162
  157.4245  130.7989  149.7546 H   0  0  0  0  0  0  0  0  0  0  0  0  # atno 10718 bound_to 10713
  153.4551  135.3735  155.2306 H   0  0  0  0  0  0  0  0  0  0  0  0  # atno 10763 bound_to 10752
  154.8757  135.3895  154.3991 H   0  0  0  0  0  0  0  0  0  0  0  0  # atno 10764 bound_to 10752
  153.4557  135.7086  153.6145 H   0  0  0  0  0  0  0  0  0  0  0  0  # atno 10765 bound_to 10752
  141.1602  133.6836  156.7001 H   0  0  0  0  0  0  0  0  0  0  0  0  # atno 11005 bound_to 11000
  145.9879  139.2992  143.1002 LP  0  0  0  0  0  0  0  0  0  0  0  0  # atno 17320 bound_to 7965
  145.8937  140.9288  143.0539 LP  0  0  0  0  0  0  0  0  0  0  0  0  # atno 17321 bound_to 7965
  139.9743  144.6472  150.7959 LP  0  0  0  0  0  0  0  0  0  0  0  0  # atno 17342 bound_to 10162
  140.7554  143.3045  151.2997 LP  0  0  0  0  0  0  0  0  0  0  0  0  # atno 17343 bound_to 10162
  155.9892  130.3954  150.3085 LP  0  0  0  0  0  0  0  0  0  0  0  0  # atno 17370 bound_to 10713
  157.1236  131.0253  151.2999 LP  0  0  0  0  0  0  0  0  0  0  0  0  # atno 17371 bound_to 10713
  140.2965  134.8198  157.4061 LP  0  0  0  0  0  0  0  0  0  0  0  0  # atno 17394 bound_to 11000
  140.1300  134.5107  155.8113 LP  0  0  0  0  0  0  0  0  0  0  0  0  # atno 17395 bound_to 11000

$$$$
