AV-unprocessed.smi:556|AV-procd|sdf|2912|dock10
  -GOLD-   2262023403D 1   1.00000     0.00000
 Structure written by MMmdl.
 38 39  0  0  0  0  0  0  0  0  1 V2000
  149.7001  137.2389  155.4366 C   0  0  0  0  0  0  0  0  0  0  0  0
  149.9263  138.3917  154.4438 C   0  0  2  0  0  0  0  0  0  0  0  0
  151.3128  139.0562  154.5822 C   0  0  0  0  0  0  0  0  0  0  0  0
  151.3781  139.8798  155.7365 O   0  0  0  0  0  0  0  0  0  0  0  0
  150.4251  140.9297  155.6850 C   0  0  0  0  0  0  0  0  0  0  0  0
  149.0143  140.3260  155.6757 C   0  0  0  0  0  0  0  0  0  0  0  0
  148.8459  139.4000  154.5432 N   0  0  0  0  0  0  0  0  0  0  0  0
  147.7772  139.4990  153.7091 C   0  0  0  0  0  0  0  0  0  0  0  0
  146.9303  140.3897  153.7940 O   0  0  0  0  0  0  0  0  0  0  0  0
  147.6765  138.5142  152.8011 N   0  0  0  0  0  0  0  0  0  0  0  0
  146.6065  138.3946  151.8209 C   0  0  0  0  0  0  0  0  0  0  0  0
  145.4328  137.5945  152.4004 C   0  0  0  0  0  0  0  0  0  0  0  0
  145.4041  136.1904  151.8649 C   0  0  0  0  0  0  0  0  0  0  0  0
  146.2431  135.0992  152.2305 C   0  0  0  0  0  0  0  0  0  0  0  0
  145.9608  133.9883  151.5698 N   0  0  0  0  0  0  0  0  0  0  0  0
  144.9351  134.3293  150.7630 N   0  0  0  0  0  0  0  0  0  0  0  0
  144.3607  133.3356  149.8819 C   0  0  0  0  0  0  0  0  0  0  0  0
  144.5785  135.6517  150.9185 C   0  0  0  0  0  0  0  0  0  0  0  0
  150.4576  136.4645  155.3135 H   0  0  0  0  0  0  0  0  0  0  0  0
  148.7264  136.7728  155.2837 H   0  0  0  0  0  0  0  0  0  0  0  0
  149.7479  137.5817  156.4705 H   0  0  0  0  0  0  0  0  0  0  0  0
  149.9447  137.9391  153.4520 H   0  0  0  0  0  0  0  0  0  0  0  0
  152.0939  138.2980  154.6424 H   0  0  0  0  0  0  0  0  0  0  0  0
  151.5341  139.6569  153.6984 H   0  0  0  0  0  0  0  0  0  0  0  0
  150.5547  141.5661  156.5606 H   0  0  0  0  0  0  0  0  0  0  0  0
  150.5911  141.5568  154.8073 H   0  0  0  0  0  0  0  0  0  0  0  0
  148.8393  139.7812  156.6039 H   0  0  0  0  0  0  0  0  0  0  0  0
  148.2899  141.1414  155.6714 H   0  0  0  0  0  0  0  0  0  0  0  0
  148.3902  137.8003  152.7918 H   0  0  0  0  0  0  0  0  0  0  0  0
  146.2710  139.3898  151.5243 H   0  0  0  0  0  0  0  0  0  0  0  0
  146.9933  137.9024  150.9271 H   0  0  0  0  0  0  0  0  0  0  0  0
  145.5065  137.5832  153.4887 H   0  0  0  0  0  0  0  0  0  0  0  0
  144.4987  138.1098  152.1723 H   0  0  0  0  0  0  0  0  0  0  0  0
  147.0458  135.0832  152.9530 H   0  0  0  0  0  0  0  0  0  0  0  0
  143.5009  133.7529  149.3570 H   0  0  0  0  0  0  0  0  0  0  0  0
  144.0357  132.4708  150.4615 H   0  0  0  0  0  0  0  0  0  0  0  0
  145.1040  133.0181  149.1500 H   0  0  0  0  0  0  0  0  0  0  0  0
  143.7753  136.0961  150.3491 H   0  0  0  0  0  0  0  0  0  0  0  0
  1  2  1  0  0  0  0
  1 19  1  0  0  0  0
  1 20  1  0  0  0  0
  1 21  1  0  0  0  0
  2  7  1  0  0  0  0
  2  3  1  0  0  0  0
  2 22  1  0  0  0  0
  3  4  1  0  0  0  0
  3 23  1  0  0  0  0
  3 24  1  0  0  0  0
  4  5  1  0  0  0  0
  5  6  1  0  0  0  0
  5 25  1  0  0  0  0
  5 26  1  0  0  0  0
  6  7  1  0  0  0  0
  6 27  1  0  0  0  0
  6 28  1  0  0  0  0
  7  8  1  0  0  0  0
  8  9  2  0  0  0  0
  8 10  1  0  0  0  0
 10 11  1  0  0  0  0
 10 29  1  0  0  0  0
 11 12  1  0  0  0  0
 11 30  1  0  0  0  0
 11 31  1  0  0  0  0
 12 13  1  0  0  0  0
 12 32  1  0  0  0  0
 12 33  1  0  0  0  0
 13 18  2  0  0  0  0
 13 14  1  0  0  0  0
 14 15  2  0  0  0  0
 14 34  1  0  0  0  0
 15 16  1  0  0  0  0
 16 17  1  0  0  0  0
 16 18  1  0  0  0  0
 17 35  1  0  0  0  0
 17 36  1  0  0  0  0
 17 37  1  0  0  0  0
 18 38  1  0  0  0  0
M  END
> <s_m_source_file>
AV-unprocessed.smi

> <i_m_source_file_index>
556

> <i_lp_mmshare_version>
43012

> <i_f3d_flags>
0

> <s_epik_input>
W0NIM11bQ0BASF0xW0NIMl1PW0NIMl1bQ0gyXU4xQyg9TylbTkhdW0NIMl1bQ0gyXWMyW2NIXW5uKFtDSDNdKVtjSF0y

> <s_epik_cmdline>
J2VwaWtfcHl0aG9uJywgJy1waCcsICc3LjAnLCAnLXRuJywgJzgnLCAnLW1hJywgJzIwMCcsICctbWV0YWxfYmluZGluZycsICctaW1hZScsICc8aW5maWxlLm1hZT4nLCAnLW9tYWUnLCAnPG91dGZpbGUubWFlPic=

> <r_lp_tautomer_probability>
1

> <r_epik_Ionization_Penalty>
0.000536334

> <r_epik_Ionization_Penalty_Charging>
0

> <r_epik_Ionization_Penalty_Neutral>
0.000536334

> <r_epik_State_Penalty>
-0

> <r_epik_Charging_Adjusted_Penalty>
0

> <i_epik_Tot_Q>
0

> <i_epik_Tot_abs_Q>
0

> <r_epik_Metal_State_Penalty>
-0

> <b_epik_Metal_Only>
0

> <s_lp_Force_Field>
OPLS_2005

> <r_lp_Energy>
29.3296

> <b_lp_Chiralities_Consistent>
1

> <s_lp_Variant>
AV-unprocessed.smi:556-1

> <Gold.Version>
5.8.1

> <Gold.Id.Protein>
6NUR|6NUR_protein|mol2

> <Gold.PLP.Fitness>
35.1776

> <Gold.PLP.PLP>
-30.1254

> <Gold.PLP.part.hbond>
-2.0000

> <Gold.PLP.part.metal>
0.0000

> <Gold.PLP.part.buried>
1.1694

> <Gold.PLP.part.nonpolar>
-29.1002

> <Gold.PLP.part.repulsive>
0.3518

> <Gold.PLP.ligand.clash>
0.0000

> <Gold.PLP.ligand.torsion>
0.7117

> <Gold.PLP.Chemscore.Hbond>
0.8480

> <Gold.PLP.Chemscore.CHOScore>
1.3075

> <Gold.PLP.Chemscore.Metal>
0.0000

> <Gold.Chemscore.Hbonds>
donor molecule, donor type, donor heavy atom, donor atom, acceptor molecule, acceptor atom, score
      L1  H    10    29       P1  7948  0.85
      L1  C    14    34       P1  7948  0.51
      L1  C    18    38       P1 10171  0.80

> <Gold.PLP.Chemscore.Internal.Correction>
0.0091

> <Gold.Rescore>
     Score         DG    S(hbond)    S(metal)    S(lipo)     H(rot)  DE(clash)    DE(int)     intcor
     12.22     -13.07       0.93        0.00      68.82       1.40       0.16       0.69       ----

> <Gold.Chemscore.Fitness>
12.2175

> <Gold.Chemscore.DG>
-13.0668

> <Gold.Chemscore.ZeroCoef>
-5.4800

> <Gold.Chemscore.Hbond>
0.9337

> <Gold.Chemscore.Metal>
0.0000

> <Gold.Chemscore.Lipo>
68.8239

> <Gold.Chemscore.Internal_Hbond>
0.0000

> <Gold.Chemscore.DEClash>
0.1634

> <Gold.Chemscore.DEInternal>
0.6859

> <Gold.Chemscore.Rot>
1.4001

> <Gold.Chemscore.Internal.Correction>
   9.000000E+99

> <Gold.Chemscore.Hbonds>
donor molecule, donor type, donor heavy atom, donor atom, acceptor molecule, acceptor atom, score
      L1  H    10    29       P1  7948  0.85

> <Gold.Chemscore.Hbond.Weighted>
-3.1186

> <Gold.Chemscore.Metal.Weighted>
-0.0000

> <Gold.Chemscore.Lipo.Weighted>
-8.0524

> <Gold.Chemscore.Internal_Hbond.Weighted>
0.0000

> <Gold.Chemscore.DEClash.Weighted>
0.1634

> <Gold.Chemscore.DEInternal.Weighted>
0.6859

> <Gold.Chemscore.Rot.Weighted>
3.5842

> <Gold.Chemscore.Internal.Correction.Weighted>
   9.000000E+99

> <Gold.Protein.RotatedTorsions>
[ 6907 6896 6895 6894 ] final -103.23 input  -60.11 | X-H torsion
[ 7974 7965 7964 7962 ] final -108.75 input  175.53 | X-H torsion
[ 8008 7997 7996 7995 ] final  -36.78 input   59.86 | X-H torsion
[ 10167 10162 10161 10158 ] final   99.94 input  -65.29 | X-H torsion
[ 10718 10713 10712 10709 ] final   69.33 input   66.30 | X-H torsion
[ 10763 10752 10751 10750 ] final   79.16 input  -60.55 | X-H torsion
[ 11005 11000 10999 10996 ] final   91.80 input  -57.11 | X-H torsion

> <Gold.Protein.ActiveResidues>
 VAL166  LYS551  ARG553  GLY616  TRP617  ASP618  TYR619  PRO620  LYS621  CYS622 
 ASP623  PHE694  ASN695  SER759  ASP760  ASP761  ALA762  ILE779  LEU786  VAL792 
 PHE793  MET794  SER795  GLU796  ALA797  LYS798  CYS799  TRP800  GLU811  SER814 

> <Gold.Protein.RotatedAtoms>
  150.7231  134.0460  159.3781 H   0  0  0  0  0  0  0  0  0  0  0  0  # atno 6907 bound_to 6896
  151.8436  135.0580  160.0460 H   0  0  0  0  0  0  0  0  0  0  0  0  # atno 6908 bound_to 6896
  152.2844  133.5465  159.5554 H   0  0  0  0  0  0  0  0  0  0  0  0  # atno 6909 bound_to 6896
  145.1890  140.9006  143.3435 H   0  0  0  0  0  0  0  0  0  0  0  0  # atno 7974 bound_to 7965
  154.4066  140.1622  156.2429 H   0  0  0  0  0  0  0  0  0  0  0  0  # atno 8008 bound_to 7997
  155.9185  140.3422  155.6132 H   0  0  0  0  0  0  0  0  0  0  0  0  # atno 8009 bound_to 7997
  155.7250  140.0773  157.2305 H   0  0  0  0  0  0  0  0  0  0  0  0  # atno 8010 bound_to 7997
  139.7571  144.6966  151.0346 H   0  0  0  0  0  0  0  0  0  0  0  0  # atno 10167 bound_to 10162
  157.6339  130.9420  150.0498 H   0  0  0  0  0  0  0  0  0  0  0  0  # atno 10718 bound_to 10713
  153.0931  135.4850  154.8727 H   0  0  0  0  0  0  0  0  0  0  0  0  # atno 10763 bound_to 10752
  154.7292  135.3056  154.8921 H   0  0  0  0  0  0  0  0  0  0  0  0  # atno 10764 bound_to 10752
  153.9562  135.6817  153.4798 H   0  0  0  0  0  0  0  0  0  0  0  0  # atno 10765 bound_to 10752
  139.8833  134.8695  156.3480 H   0  0  0  0  0  0  0  0  0  0  0  0  # atno 11005 bound_to 11000
  145.0060  139.3554  143.6144 LP  0  0  0  0  0  0  0  0  0  0  0  0  # atno 17320 bound_to 7965
  146.3439  139.9303  142.8754 LP  0  0  0  0  0  0  0  0  0  0  0  0  # atno 17321 bound_to 7965
  140.7804  143.4740  151.0108 LP  0  0  0  0  0  0  0  0  0  0  0  0  # atno 17342 bound_to 10162
  139.8426  143.7543  152.3180 LP  0  0  0  0  0  0  0  0  0  0  0  0  # atno 17343 bound_to 10162
  156.1564  130.3643  149.9363 LP  0  0  0  0  0  0  0  0  0  0  0  0  # atno 17370 bound_to 10713
  156.7371  130.9065  151.3630 LP  0  0  0  0  0  0  0  0  0  0  0  0  # atno 17371 bound_to 10713
  140.9613  133.7386  156.0406 LP  0  0  0  0  0  0  0  0  0  0  0  0  # atno 17394 bound_to 11000
  140.7985  134.3535  157.5446 LP  0  0  0  0  0  0  0  0  0  0  0  0  # atno 17395 bound_to 11000

$$$$
