AV-unprocessed.smi:2473|AV-procd|sdf|9750|dock3
  -GOLD-   2272013393D 1   1.00000     0.00000
 Structure written by MMmdl.
 47 48  0  0  0  0  0  0  0  0  1 V2000
  146.7449  138.6377  151.9010 C   0  0  0  0  0  0  0  0  0  0  0  0
  147.0566  139.4434  153.1703 C   0  0  1  0  0  0  0  0  0  0  0  0
  147.7060  140.7968  152.8192 C   0  0  0  0  0  0  0  0  0  0  0  0
  148.0054  141.6775  154.0528 C   0  0  2  0  0  0  0  0  0  0  0  0
  149.3022  141.2997  154.7922 C   0  0  0  0  0  0  0  0  0  0  0  0
  149.9914  140.3482  154.4251 O   0  0  0  0  0  0  0  0  0  0  0  0
  149.6558  142.1058  155.8062 N   0  0  0  0  0  0  0  0  0  0  0  0
  150.8832  141.9988  156.5907 C   0  0  0  0  0  0  0  0  0  0  0  0
  150.6089  141.7582  158.0885 C   0  0  0  0  0  0  0  0  0  0  0  0
  151.7661  142.0943  158.9828 C   0  0  0  0  0  0  0  0  0  0  0  0
  152.3512  141.2083  159.7831 N   0  0  0  0  0  0  0  0  0  0  0  0
  153.3813  141.9101  160.3989 C   0  0  0  0  0  0  0  0  0  0  0  0
  153.3802  143.2082  159.9498 C   0  0  0  0  0  0  0  0  0  0  0  0
  152.3359  143.3151  159.0409 N   0  0  0  0  0  0  0  0  0  0  0  0
  151.9633  144.5152  158.3167 C   0  0  0  0  0  0  0  0  0  0  0  0
  146.7698  141.7933  154.9801 C   0  0  0  0  0  0  0  0  0  0  0  0
  146.0293  140.4693  155.3153 C   0  0  0  0  0  0  0  0  0  0  0  0
  146.7886  139.6252  156.3625 C   0  0  0  0  0  0  0  0  0  0  0  0
  144.6609  140.8255  155.9314 C   0  0  0  0  0  0  0  0  0  0  0  0
  145.7872  139.6602  154.0176 C   0  0  0  0  0  0  0  0  0  0  0  0
  146.0317  139.1607  151.2629 H   0  0  0  0  0  0  0  0  0  0  0  0
  146.3195  137.6647  152.1476 H   0  0  0  0  0  0  0  0  0  0  0  0
  147.6485  138.4629  151.3164 H   0  0  0  0  0  0  0  0  0  0  0  0
  147.7632  138.8500  153.7488 H   0  0  0  0  0  0  0  0  0  0  0  0
  148.6204  140.6320  152.2466 H   0  0  0  0  0  0  0  0  0  0  0  0
  147.0398  141.3478  152.1539 H   0  0  0  0  0  0  0  0  0  0  0  0
  148.1969  142.6790  153.6635 H   0  0  0  0  0  0  0  0  0  0  0  0
  149.0375  142.8703  156.0356 H   0  0  0  0  0  0  0  0  0  0  0  0
  151.4597  141.1643  156.1918 H   0  0  0  0  0  0  0  0  0  0  0  0
  151.5045  142.8862  156.4588 H   0  0  0  0  0  0  0  0  0  0  0  0
  149.7263  142.3167  158.3999 H   0  0  0  0  0  0  0  0  0  0  0  0
  150.3614  140.7071  158.2407 H   0  0  0  0  0  0  0  0  0  0  0  0
  154.0371  141.4309  161.1106 H   0  0  0  0  0  0  0  0  0  0  0  0
  154.0209  144.0423  160.1949 H   0  0  0  0  0  0  0  0  0  0  0  0
  152.6798  145.3123  158.5171 H   0  0  0  0  0  0  0  0  0  0  0  0
  150.9731  144.8433  158.6331 H   0  0  0  0  0  0  0  0  0  0  0  0
  151.9521  144.3182  157.2453 H   0  0  0  0  0  0  0  0  0  0  0  0
  147.0385  142.3093  155.9031 H   0  0  0  0  0  0  0  0  0  0  0  0
  146.0662  142.4614  154.4813 H   0  0  0  0  0  0  0  0  0  0  0  0
  146.2032  138.7563  156.6649 H   0  0  0  0  0  0  0  0  0  0  0  0
  146.9966  140.2048  157.2623 H   0  0  0  0  0  0  0  0  0  0  0  0
  147.7377  139.2445  155.9953 H   0  0  0  0  0  0  0  0  0  0  0  0
  144.0896  139.9300  156.1787 H   0  0  0  0  0  0  0  0  0  0  0  0
  144.0528  141.4180  155.2469 H   0  0  0  0  0  0  0  0  0  0  0  0
  144.7768  141.4040  156.8485 H   0  0  0  0  0  0  0  0  0  0  0  0
  145.0499  140.1800  153.4037 H   0  0  0  0  0  0  0  0  0  0  0  0
  145.3410  138.6957  154.2638 H   0  0  0  0  0  0  0  0  0  0  0  0
  1  2  1  0  0  0  0
  1 21  1  0  0  0  0
  1 22  1  0  0  0  0
  1 23  1  0  0  0  0
  2 20  1  0  0  0  0
  2  3  1  0  0  0  0
  2 24  1  0  0  0  0
  3  4  1  0  0  0  0
  3 25  1  0  0  0  0
  3 26  1  0  0  0  0
  4  5  1  0  0  0  0
  4 16  1  0  0  0  0
  4 27  1  0  0  0  0
  5  6  2  0  0  0  0
  5  7  1  0  0  0  0
  7  8  1  0  0  0  0
  7 28  1  0  0  0  0
  8  9  1  0  0  0  0
  8 29  1  0  0  0  0
  8 30  1  0  0  0  0
  9 10  1  0  0  0  0
  9 31  1  0  0  0  0
  9 32  1  0  0  0  0
 10 14  1  0  0  0  0
 10 11  2  0  0  0  0
 11 12  1  0  0  0  0
 12 13  2  0  0  0  0
 12 33  1  0  0  0  0
 13 14  1  0  0  0  0
 13 34  1  0  0  0  0
 14 15  1  0  0  0  0
 15 35  1  0  0  0  0
 15 36  1  0  0  0  0
 15 37  1  0  0  0  0
 16 17  1  0  0  0  0
 16 38  1  0  0  0  0
 16 39  1  0  0  0  0
 17 18  1  0  0  0  0
 17 19  1  0  0  0  0
 17 20  1  0  0  0  0
 18 40  1  0  0  0  0
 18 41  1  0  0  0  0
 18 42  1  0  0  0  0
 19 43  1  0  0  0  0
 19 44  1  0  0  0  0
 19 45  1  0  0  0  0
 20 46  1  0  0  0  0
 20 47  1  0  0  0  0
M  END
> <s_m_source_file>
AV-unprocessed.smi

> <i_m_source_file_index>
2473

> <i_lp_mmshare_version>
43012

> <i_f3d_flags>
0

> <s_epik_input>
W0NIM11bQ0BASF0oW0NIMl0xKVtDSDJdW0NASF0oW0NIMl1DMShbQ0gzXSlbQ0gzXSlDKD1PKVtOSF1bQ0gyXVtDSDJdYzJuW2NIXVtjSF1uMltDSDNd

> <s_epik_cmdline>
J2VwaWtfcHl0aG9uJywgJy1waCcsICc3LjAnLCAnLXRuJywgJzgnLCAnLW1hJywgJzIwMCcsICctbWV0YWxfYmluZGluZycsICctaW1hZScsICc8aW5maWxlLm1hZT4nLCAnLW9tYWUnLCAnPG91dGZpbGUubWFlPic=

> <r_lp_tautomer_probability>
1

> <r_epik_Ionization_Penalty>
1.22858

> <r_epik_Ionization_Penalty_Charging>
1.22858

> <r_epik_Ionization_Penalty_Neutral>
2.12671e-08

> <r_epik_State_Penalty>
1.2965

> <r_epik_Charging_Adjusted_Penalty>
2.52508

> <i_epik_Tot_Q>
0

> <i_epik_Tot_abs_Q>
0

> <r_epik_Metal_State_Penalty>
0.411461

> <b_epik_Metal_Only>
0

> <s_lp_Force_Field>
OPLS_2005

> <r_lp_Energy>
14.2462

> <b_lp_Chiralities_Consistent>
1

> <s_lp_Variant>
AV-unprocessed.smi:2473-8

> <Gold.Version>
5.8.1

> <Gold.Id.Protein>
6NUR|6NUR_protein|mol2

> <Gold.PLP.Fitness>
44.0514

> <Gold.PLP.PLP>
-39.0832

> <Gold.PLP.part.hbond>
-2.0000

> <Gold.PLP.part.metal>
0.0000

> <Gold.PLP.part.buried>
1.6903

> <Gold.PLP.part.nonpolar>
-38.8954

> <Gold.PLP.part.repulsive>
0.2443

> <Gold.PLP.ligand.clash>
0.0000

> <Gold.PLP.ligand.torsion>
0.1408

> <Gold.PLP.Chemscore.Hbond>
1.7120

> <Gold.PLP.Chemscore.CHOScore>
0.0000

> <Gold.PLP.Chemscore.Metal>
0.0000

> <Gold.Chemscore.Hbonds>
donor molecule, donor type, donor heavy atom, donor atom, acceptor molecule, acceptor atom, score
      L1  H     7    28       P1  8028  0.77
      P1  H  7989  7998       L1     6  0.91

> <Gold.PLP.Chemscore.Internal.Correction>
0.1138

> <Gold.Rescore>
     Score         DG    S(hbond)    S(metal)    S(lipo)     H(rot)  DE(clash)    DE(int)     intcor
     15.93     -17.75       1.56        0.00      93.25       1.51       1.69       0.13       ----

> <Gold.Chemscore.Fitness>
15.9262

> <Gold.Chemscore.DG>
-17.7463

> <Gold.Chemscore.ZeroCoef>
-5.4800

> <Gold.Chemscore.Hbond>
1.5642

> <Gold.Chemscore.Metal>
0.0000

> <Gold.Chemscore.Lipo>
93.2452

> <Gold.Chemscore.Internal_Hbond>
0.0000

> <Gold.Chemscore.DEClash>
1.6910

> <Gold.Chemscore.DEInternal>
0.1291

> <Gold.Chemscore.Rot>
1.5109

> <Gold.Chemscore.Internal.Correction>
   9.000000E+99

> <Gold.Chemscore.Hbonds>
donor molecule, donor type, donor heavy atom, donor atom, acceptor molecule, acceptor atom, score
      L1  H     7    28       P1  8028  0.76
      P1  H  7989  7998       L1     6  0.76

> <Gold.Chemscore.Hbond.Weighted>
-5.2246

> <Gold.Chemscore.Metal.Weighted>
-0.0000

> <Gold.Chemscore.Lipo.Weighted>
-10.9097

> <Gold.Chemscore.Internal_Hbond.Weighted>
0.0000

> <Gold.Chemscore.DEClash.Weighted>
1.6910

> <Gold.Chemscore.DEInternal.Weighted>
0.1291

> <Gold.Chemscore.Rot.Weighted>
3.8680

> <Gold.Chemscore.Internal.Correction.Weighted>
   9.000000E+99

> <Gold.Protein.RotatedTorsions>
[ 6907 6896 6895 6894 ] final   72.77 input  -60.11 | X-H torsion
[ 7974 7965 7964 7962 ] final  115.42 input  175.53 | X-H torsion
[ 8008 7997 7996 7995 ] final   87.55 input   59.86 | X-H torsion
[ 10167 10162 10161 10158 ] final -107.27 input  -65.29 | X-H torsion
[ 10718 10713 10712 10709 ] final -156.93 input   66.30 | X-H torsion
[ 10763 10752 10751 10750 ] final   93.81 input  -60.55 | X-H torsion
[ 11005 11000 10999 10996 ] final   89.08 input  -57.11 | X-H torsion

> <Gold.Protein.ActiveResidues>
 VAL166  LYS551  ARG553  GLY616  TRP617  ASP618  TYR619  PRO620  LYS621  CYS622 
 ASP623  PHE694  ASN695  SER759  ASP760  ASP761  ALA762  ILE779  LEU786  VAL792 
 PHE793  MET794  SER795  GLU796  ALA797  LYS798  CYS799  TRP800  GLU811  SER814 

> <Gold.Protein.RotatedAtoms>
  152.4887  134.4521  159.9577 H   0  0  0  0  0  0  0  0  0  0  0  0  # atno 6907 bound_to 6896
  151.4512  133.3611  159.2803 H   0  0  0  0  0  0  0  0  0  0  0  0  # atno 6908 bound_to 6896
  150.9020  134.8457  159.7427 H   0  0  0  0  0  0  0  0  0  0  0  0  # atno 6909 bound_to 6896
  145.1922  139.2994  143.4362 H   0  0  0  0  0  0  0  0  0  0  0  0  # atno 7974 bound_to 7965
  155.9767  140.3381  155.6625 H   0  0  0  0  0  0  0  0  0  0  0  0  # atno 8008 bound_to 7997
  155.6602  140.0715  157.2575 H   0  0  0  0  0  0  0  0  0  0  0  0  # atno 8009 bound_to 7997
  154.4181  140.1710  156.1756 H   0  0  0  0  0  0  0  0  0  0  0  0  # atno 8010 bound_to 7997
  140.1788  143.3983  152.1298 H   0  0  0  0  0  0  0  0  0  0  0  0  # atno 10167 bound_to 10162
  156.5333  130.8530  151.2723 H   0  0  0  0  0  0  0  0  0  0  0  0  # atno 10718 bound_to 10713
  153.2345  135.4312  155.0631 H   0  0  0  0  0  0  0  0  0  0  0  0  # atno 10763 bound_to 10752
  154.8312  135.3387  154.6739 H   0  0  0  0  0  0  0  0  0  0  0  0  # atno 10764 bound_to 10752
  153.7165  135.7019  153.5080 H   0  0  0  0  0  0  0  0  0  0  0  0  # atno 10765 bound_to 10752
  139.8883  134.8529  156.3091 H   0  0  0  0  0  0  0  0  0  0  0  0  # atno 11005 bound_to 11000
  146.3434  140.2139  142.8590 LP  0  0  0  0  0  0  0  0  0  0  0  0  # atno 17320 bound_to 7965
  145.0030  140.8648  143.5270 LP  0  0  0  0  0  0  0  0  0  0  0  0  # atno 17321 bound_to 7965
  139.5305  144.7153  151.5072 LP  0  0  0  0  0  0  0  0  0  0  0  0  # atno 17342 bound_to 10162
  140.6533  143.8651  150.6809 LP  0  0  0  0  0  0  0  0  0  0  0  0  # atno 17343 bound_to 10162
  157.7418  130.9877  150.2471 LP  0  0  0  0  0  0  0  0  0  0  0  0  # atno 17370 bound_to 10713
  156.3040  130.3762  149.7724 LP  0  0  0  0  0  0  0  0  0  0  0  0  # atno 17371 bound_to 10713
  140.9862  133.7237  156.0745 LP  0  0  0  0  0  0  0  0  0  0  0  0  # atno 17394 bound_to 11000
  140.7685  134.3859  157.5512 LP  0  0  0  0  0  0  0  0  0  0  0  0  # atno 17395 bound_to 11000

$$$$
