AV-unprocessed.smi:1748|AV-procd|sdf|7041|dock8
  -GOLD-   22720 8263D 1   1.00000     0.00000
 Structure written by MMmdl.
 39 40  0  0  0  0  0  0  0  0  3 V2000
  146.0207  147.4406  159.9436 C   0  0  0  0  0  0  0  0  0  0  0  0
  145.6685  146.4104  158.9433 N   0  3  2  0  0  0  0  0  0  0  0  0
  144.7093  146.9103  157.9265 C   0  0  0  0  0  0  0  0  0  0  0  0
  144.4618  145.8581  156.8311 C   0  0  0  0  0  0  0  0  0  0  0  0
  144.0151  144.5147  157.4343 C   0  0  0  0  0  0  0  0  0  0  0  0
  145.0043  144.0388  158.5140 C   0  0  1  0  0  0  0  0  0  0  0  0
  146.2731  143.6610  157.8917 N   0  0  0  0  0  0  0  0  0  0  0  0
  147.2567  142.9720  158.4868 C   0  0  0  0  0  0  0  0  0  0  0  0
  147.1847  142.5584  159.6438 O   0  0  0  0  0  0  0  0  0  0  0  0
  148.3128  142.8425  157.6650 N   0  0  0  0  0  0  0  0  0  0  0  0
  149.5478  142.2190  157.9053 C   0  0  0  0  0  0  0  0  0  0  0  0
  150.5097  142.7039  158.7379 C   0  0  0  0  0  0  0  0  0  0  0  0
  151.7725  142.0099  158.9573 C   0  0  0  0  0  0  0  0  0  0  0  0
  152.8303  142.4807  159.9400 C   0  0  0  0  0  0  0  0  0  0  0  0
  153.8710  141.6475  159.9641 F   0  0  0  0  0  0  0  0  0  0  0  0
  153.2712  143.6878  159.5881 F   0  0  0  0  0  0  0  0  0  0  0  0
  152.3306  142.5645  161.1728 F   0  0  0  0  0  0  0  0  0  0  0  0
  151.8464  140.8219  158.2557 C   0  0  0  0  0  0  0  0  0  0  0  0
  150.9462  140.2773  157.4074 N   0  5  0  0  0  0  0  0  0  0  0  0
  149.7708  140.9369  157.2067 C   0  0  0  0  0  0  0  0  0  0  0  0
  148.8997  140.4914  156.4585 O   0  0  0  0  0  0  0  0  0  0  0  0
  145.1971  145.1500  159.5703 C   0  0  0  0  0  0  0  0  0  0  0  0
  145.1493  147.7287  160.5328 H   0  0  0  0  0  0  0  0  0  0  0  0
  146.4144  148.3324  159.4552 H   0  0  0  0  0  0  0  0  0  0  0  0
  146.7874  147.0689  160.6243 H   0  0  0  0  0  0  0  0  0  0  0  0
  143.7683  147.1744  158.4118 H   0  0  0  0  0  0  0  0  0  0  0  0
  145.0989  147.8223  157.4723 H   0  0  0  0  0  0  0  0  0  0  0  0
  143.7072  146.2199  156.1322 H   0  0  0  0  0  0  0  0  0  0  0  0
  145.3732  145.7173  156.2488 H   0  0  0  0  0  0  0  0  0  0  0  0
  143.0255  144.6314  157.8782 H   0  0  0  0  0  0  0  0  0  0  0  0
  143.9118  143.7630  156.6507 H   0  0  0  0  0  0  0  0  0  0  0  0
  144.5866  143.1547  158.9987 H   0  0  0  0  0  0  0  0  0  0  0  0
  146.4163  143.9539  156.9360 H   0  0  0  0  0  0  0  0  0  0  0  0
  148.2492  143.3035  156.7690 H   0  0  0  0  0  0  0  0  0  0  0  0
  150.3558  143.6217  159.2816 H   0  0  0  0  0  0  0  0  0  0  0  0
  152.7644  140.2138  158.4027 H   0  0  0  0  0  0  0  0  0  0  0  0
  145.9110  144.8294  160.3302 H   0  0  0  0  0  0  0  0  0  0  0  0
  144.2569  145.3354  160.0922 H   0  0  0  0  0  0  0  0  0  0  0  0
  146.5223  146.1846  158.4529 H   0  0  0  0  0  0  0  0  0  0  0  0
  1  2  1  0  0  0  0
  1 23  1  0  0  0  0
  1 24  1  0  0  0  0
  1 25  1  0  0  0  0
  2 22  1  0  0  0  0
  2  3  1  0  0  0  0
  2 39  1  0  0  0  0
  3  4  1  0  0  0  0
  3 26  1  0  0  0  0
  3 27  1  0  0  0  0
  4  5  1  0  0  0  0
  4 28  1  0  0  0  0
  4 29  1  0  0  0  0
  5  6  1  0  0  0  0
  5 30  1  0  0  0  0
  5 31  1  0  0  0  0
  6  7  1  0  0  0  0
  6 22  1  0  0  0  0
  6 32  1  0  0  0  0
  7  8  1  0  0  0  0
  7 33  1  0  0  0  0
  8  9  2  0  0  0  0
  8 10  1  0  0  0  0
 10 11  1  0  0  0  0
 10 34  1  0  0  0  0
 11 20  1  0  0  0  0
 11 12  2  0  0  0  0
 12 13  1  0  0  0  0
 12 35  1  0  0  0  0
 13 14  1  0  0  0  0
 13 18  2  0  0  0  0
 14 15  1  0  0  0  0
 14 16  1  0  0  0  0
 14 17  1  0  0  0  0
 18 19  1  0  0  0  0
 18 36  1  0  0  0  0
 19 20  1  0  0  0  0
 20 21  2  0  0  0  0
 22 37  1  0  0  0  0
 22 38  1  0  0  0  0
M  CHG  1   2   1
M  CHG  1  19  -1
M  END
> <s_m_source_file>
AV-unprocessed.smi

> <i_m_source_file_index>
1748

> <i_lp_mmshare_version>
43012

> <i_f3d_flags>
0

> <s_epik_input>
W0NIM11OMVtDSDJdW0NIMl1bQ0gyXVtDQEhdKFtDSDJdMSlbTkhdQyg9TylbTkhdYzJbY0hdYyhDKEYpKEYpRilbY0hdW25IXWMyPU8=

> <s_epik_cmdline>
J2VwaWtfcHl0aG9uJywgJy1waCcsICc3LjAnLCAnLXRuJywgJzgnLCAnLW1hJywgJzIwMCcsICctbWV0YWxfYmluZGluZycsICctaW1hZScsICc8aW5maWxlLm1hZT4nLCAnLW9tYWUnLCAnPG91dGZpbGUubWFlPic=

> <r_lp_tautomer_probability>
1

> <r_epik_Ionization_Penalty>
3.00907

> <r_epik_Ionization_Penalty_Charging>
0.148702

> <r_epik_Ionization_Penalty_Neutral>
2.86036

> <r_epik_State_Penalty>
2.85557

> <r_epik_Charging_Adjusted_Penalty>
3.00428

> <i_epik_Tot_Q>
0

> <i_epik_Tot_abs_Q>
2

> <r_epik_Metal_State_Penalty>
0.443779

> <b_epik_Metal_Only>
1

> <s_lp_Force_Field>
OPLS_2005

> <r_lp_Energy>
32.6678

> <b_lp_Chiralities_Consistent>
1

> <s_lp_Variant>
AV-unprocessed.smi:1748-6

> <Gold.Version>
5.8.1

> <Gold.Id.Protein>
6NUR|6NUR_protein|mol2

> <Gold.PLP.Fitness>
46.7437

> <Gold.PLP.PLP>
-36.0502

> <Gold.PLP.part.hbond>
-5.4560

> <Gold.PLP.part.metal>
0.0000

> <Gold.PLP.part.buried>
-5.0543

> <Gold.PLP.part.nonpolar>
-25.2652

> <Gold.PLP.part.repulsive>
0.2296

> <Gold.PLP.ligand.clash>
0.0000

> <Gold.PLP.ligand.torsion>
0.8421

> <Gold.PLP.Chemscore.Hbond>
4.1085

> <Gold.PLP.Chemscore.CHOScore>
0.0000

> <Gold.PLP.Chemscore.Metal>
0.0000

> <Gold.Chemscore.Hbonds>
donor molecule, donor type, donor heavy atom, donor atom, acceptor molecule, acceptor atom, score
      L1  H     2    39       P1  8029  2.00
      L1  H    10    34       P1  8028  0.88
      P1  H  6933  6944       L1     9  0.33
      P1  H  6934  6946       L1     9  0.75

> <Gold.PLP.Chemscore.Internal.Correction>
0.0523

> <Gold.Rescore>
     Score         DG    S(hbond)    S(metal)    S(lipo)     H(rot)  DE(clash)    DE(int)     intcor
     14.69     -16.51       2.04        0.00      57.91       1.00       0.01       1.81       ----

> <Gold.Chemscore.Fitness>
14.6945

> <Gold.Chemscore.DG>
-16.5077

> <Gold.Chemscore.ZeroCoef>
-5.4800

> <Gold.Chemscore.Hbond>
2.0396

> <Gold.Chemscore.Metal>
0.0000

> <Gold.Chemscore.Lipo>
57.9088

> <Gold.Chemscore.Internal_Hbond>
0.0000

> <Gold.Chemscore.DEClash>
0.0065

> <Gold.Chemscore.DEInternal>
1.8068

> <Gold.Chemscore.Rot>
1.0000

> <Gold.Chemscore.Internal.Correction>
   9.000000E+99

> <Gold.Chemscore.Hbonds>
donor molecule, donor type, donor heavy atom, donor atom, acceptor molecule, acceptor atom, score
      L1  H     2    39       P1  8029  1.00
      L1  H    10    34       P1  8028  0.20
      P1  H  6933  6944       L1     9  0.33
      P1  H  6934  6946       L1     9  0.72

> <Gold.Chemscore.Hbond.Weighted>
-6.8124

> <Gold.Chemscore.Metal.Weighted>
-0.0000

> <Gold.Chemscore.Lipo.Weighted>
-6.7753

> <Gold.Chemscore.Internal_Hbond.Weighted>
0.0000

> <Gold.Chemscore.DEClash.Weighted>
0.0065

> <Gold.Chemscore.DEInternal.Weighted>
1.8068

> <Gold.Chemscore.Rot.Weighted>
2.5600

> <Gold.Chemscore.Internal.Correction.Weighted>
   9.000000E+99

> <Gold.Protein.RotatedTorsions>
[ 6907 6896 6895 6894 ] final   46.07 input  -60.11 | X-H torsion
[ 7974 7965 7964 7962 ] final -112.01 input  175.53 | X-H torsion
[ 8008 7997 7996 7995 ] final   59.88 input   59.86 | X-H torsion
[ 10167 10162 10161 10158 ] final -101.19 input  -65.29 | X-H torsion
[ 10718 10713 10712 10709 ] final -152.90 input   66.30 | X-H torsion
[ 10763 10752 10751 10750 ] final -166.17 input  -60.55 | X-H torsion
[ 11005 11000 10999 10996 ] final -149.88 input  -57.11 | X-H torsion

> <Gold.Protein.ActiveResidues>
 VAL166  LYS551  ARG553  GLY616  TRP617  ASP618  TYR619  PRO620  LYS621  CYS622 
 ASP623  PHE694  ASN695  SER759  ASP760  ASP761  ALA762  ILE779  LEU786  VAL792 
 PHE793  MET794  SER795  GLU796  ALA797  LYS798  CYS799  TRP800  GLU811  SER814 

> <Gold.Protein.RotatedAtoms>
  152.2521  134.8122  160.0444 H   0  0  0  0  0  0  0  0  0  0  0  0  # atno 6907 bound_to 6896
  151.8798  133.3488  159.3771 H   0  0  0  0  0  0  0  0  0  0  0  0  # atno 6908 bound_to 6896
  150.7087  134.4956  159.5581 H   0  0  0  0  0  0  0  0  0  0  0  0  # atno 6909 bound_to 6896
  145.1492  140.8820  143.3656 H   0  0  0  0  0  0  0  0  0  0  0  0  # atno 7974 bound_to 7965
  155.5734  140.3490  155.4521 H   0  0  0  0  0  0  0  0  0  0  0  0  # atno 8008 bound_to 7997
  156.0427  140.1299  157.0163 H   0  0  0  0  0  0  0  0  0  0  0  0  # atno 8009 bound_to 7997
  154.4399  140.1020  156.6246 H   0  0  0  0  0  0  0  0  0  0  0  0  # atno 8010 bound_to 7997
  140.2440  143.3519  152.0776 H   0  0  0  0  0  0  0  0  0  0  0  0  # atno 10167 bound_to 10162
  156.4786  130.8292  151.2520 H   0  0  0  0  0  0  0  0  0  0  0  0  # atno 10718 bound_to 10713
  154.6860  135.2962  154.9547 H   0  0  0  0  0  0  0  0  0  0  0  0  # atno 10763 bound_to 10752
  154.0526  135.6642  153.4806 H   0  0  0  0  0  0  0  0  0  0  0  0  # atno 10764 bound_to 10752
  153.0579  135.5133  154.7927 H   0  0  0  0  0  0  0  0  0  0  0  0  # atno 10765 bound_to 10752
  140.7461  134.3459  157.5136 H   0  0  0  0  0  0  0  0  0  0  0  0  # atno 11005 bound_to 11000
  145.0449  139.3229  143.5958 LP  0  0  0  0  0  0  0  0  0  0  0  0  # atno 17320 bound_to 7965
  146.3496  139.9836  142.8693 LP  0  0  0  0  0  0  0  0  0  0  0  0  # atno 17321 bound_to 7965
  139.5068  144.6820  151.5984 LP  0  0  0  0  0  0  0  0  0  0  0  0  # atno 17342 bound_to 10162
  140.6092  143.9468  150.6441 LP  0  0  0  0  0  0  0  0  0  0  0  0  # atno 17343 bound_to 10162
  157.7485  131.0052  150.3106 LP  0  0  0  0  0  0  0  0  0  0  0  0  # atno 17370 bound_to 10713
  156.3545  130.3836  149.7302 LP  0  0  0  0  0  0  0  0  0  0  0  0  # atno 17371 bound_to 10713
  139.8796  134.9112  156.3032 LP  0  0  0  0  0  0  0  0  0  0  0  0  # atno 17394 bound_to 11000
  140.9793  133.7278  156.0648 LP  0  0  0  0  0  0  0  0  0  0  0  0  # atno 17395 bound_to 11000

$$$$
