AV-unprocessed.smi:1998|AV-procd|sdf|8091|dock7
  -GOLD-   2272010313D 1   1.00000     0.00000
 Structure written by MMmdl.
 48 49  0  0  0  0  0  0  0  0  2 V2000
  154.4129  140.8346  160.9096 C   0  0  0  0  0  0  0  0  0  0  0  0
  153.5163  141.9447  160.4459 C   0  0  0  0  0  0  0  0  0  0  0  0
  152.9563  143.0042  161.2130 C   0  0  0  0  0  0  0  0  0  0  0  0
  152.2267  143.7254  160.3104 C   0  0  0  0  0  0  0  0  0  0  0  0
  151.4037  144.9570  160.4994 C   0  0  0  0  0  0  0  0  0  0  0  0
  152.3695  143.0972  159.0859 N   0  0  0  0  0  0  0  0  0  0  0  0
  151.7957  143.4578  157.7970 C   0  0  0  0  0  0  0  0  0  0  0  0
  151.2224  142.2527  157.0412 C   0  0  0  0  0  0  0  0  0  0  0  0
  151.6422  141.1130  157.2464 O   0  0  0  0  0  0  0  0  0  0  0  0
  150.2591  142.5301  156.1485 N   0  0  0  0  0  0  0  0  0  0  0  0
  149.5813  141.5570  155.2912 C   0  0  0  0  0  0  0  0  0  0  0  0
  148.2634  140.9854  155.8999 C   0  0  0  0  0  0  0  0  0  0  0  0
  148.0253  139.5863  155.2716 C   0  0  0  0  0  0  0  0  0  0  0  0
  148.4018  140.7967  157.4308 C   0  0  0  0  0  0  0  0  0  0  0  0
  147.1335  141.9315  155.5687 N   0  3  0  0  0  0  0  0  0  0  0  0
  146.7233  141.9965  154.1360 C   0  0  0  0  0  0  0  0  0  0  0  0
  145.6674  143.0945  153.9145 C   0  0  0  0  0  0  0  0  0  0  0  0
  144.5484  142.8769  154.7604 O   0  0  0  0  0  0  0  0  0  0  0  0
  144.9151  142.9216  156.1309 C   0  0  0  0  0  0  0  0  0  0  0  0
  145.9175  141.7942  156.4224 C   0  0  0  0  0  0  0  0  0  0  0  0
  153.1626  142.0068  159.1727 N   0  0  0  0  0  0  0  0  0  0  0  0
  154.6401  140.9297  161.9715 H   0  0  0  0  0  0  0  0  0  0  0  0
  155.3584  140.8399  160.3667 H   0  0  0  0  0  0  0  0  0  0  0  0
  153.9450  139.8619  160.7564 H   0  0  0  0  0  0  0  0  0  0  0  0
  153.0723  143.2040  162.2681 H   0  0  0  0  0  0  0  0  0  0  0  0
  151.3869  145.2568  161.5473 H   0  0  0  0  0  0  0  0  0  0  0  0
  150.3743  144.7904  160.1819 H   0  0  0  0  0  0  0  0  0  0  0  0
  151.8086  145.7867  159.9198 H   0  0  0  0  0  0  0  0  0  0  0  0
  151.0139  144.2007  157.9593 H   0  0  0  0  0  0  0  0  0  0  0  0
  152.5620  143.9325  157.1823 H   0  0  0  0  0  0  0  0  0  0  0  0
  149.9809  143.4953  156.0453 H   0  0  0  0  0  0  0  0  0  0  0  0
  149.4137  142.0085  154.3145 H   0  0  0  0  0  0  0  0  0  0  0  0
  150.2827  140.7406  155.1153 H   0  0  0  0  0  0  0  0  0  0  0  0
  148.8764  138.9210  155.4171 H   0  0  0  0  0  0  0  0  0  0  0  0
  147.8499  139.6543  154.1974 H   0  0  0  0  0  0  0  0  0  0  0  0
  147.1774  139.0709  155.7230 H   0  0  0  0  0  0  0  0  0  0  0  0
  149.1194  140.0123  157.6732 H   0  0  0  0  0  0  0  0  0  0  0  0
  147.4559  140.5097  157.8898 H   0  0  0  0  0  0  0  0  0  0  0  0
  148.7518  141.7032  157.9252 H   0  0  0  0  0  0  0  0  0  0  0  0
  147.5638  142.2366  153.4871 H   0  0  0  0  0  0  0  0  0  0  0  0
  146.3298  141.0307  153.8171 H   0  0  0  0  0  0  0  0  0  0  0  0
  146.0901  144.0831  154.1016 H   0  0  0  0  0  0  0  0  0  0  0  0
  145.3308  143.0861  152.8777 H   0  0  0  0  0  0  0  0  0  0  0  0
  145.3346  143.8970  156.3829 H   0  0  0  0  0  0  0  0  0  0  0  0
  144.0191  142.7937  156.7383 H   0  0  0  0  0  0  0  0  0  0  0  0
  145.4299  140.8374  156.2319 H   0  0  0  0  0  0  0  0  0  0  0  0
  146.1624  141.8194  157.4817 H   0  0  0  0  0  0  0  0  0  0  0  0
  147.5037  142.8498  155.7688 H   0  0  0  0  0  0  0  0  0  0  0  0
  1  2  1  0  0  0  0
  1 22  1  0  0  0  0
  1 23  1  0  0  0  0
  1 24  1  0  0  0  0
  2 21  2  0  0  0  0
  2  3  1  0  0  0  0
  3  4  2  0  0  0  0
  3 25  1  0  0  0  0
  4  5  1  0  0  0  0
  4  6  1  0  0  0  0
  5 26  1  0  0  0  0
  5 27  1  0  0  0  0
  5 28  1  0  0  0  0
  6  7  1  0  0  0  0
  6 21  1  0  0  0  0
  7  8  1  0  0  0  0
  7 29  1  0  0  0  0
  7 30  1  0  0  0  0
  8  9  2  0  0  0  0
  8 10  1  0  0  0  0
 10 11  1  0  0  0  0
 10 31  1  0  0  0  0
 11 12  1  0  0  0  0
 11 32  1  0  0  0  0
 11 33  1  0  0  0  0
 12 13  1  0  0  0  0
 12 14  1  0  0  0  0
 12 15  1  0  0  0  0
 13 34  1  0  0  0  0
 13 35  1  0  0  0  0
 13 36  1  0  0  0  0
 14 37  1  0  0  0  0
 14 38  1  0  0  0  0
 14 39  1  0  0  0  0
 15 20  1  0  0  0  0
 15 16  1  0  0  0  0
 15 48  1  0  0  0  0
 16 17  1  0  0  0  0
 16 40  1  0  0  0  0
 16 41  1  0  0  0  0
 17 18  1  0  0  0  0
 17 42  1  0  0  0  0
 17 43  1  0  0  0  0
 18 19  1  0  0  0  0
 19 20  1  0  0  0  0
 19 44  1  0  0  0  0
 19 45  1  0  0  0  0
 20 46  1  0  0  0  0
 20 47  1  0  0  0  0
M  CHG  1  15   1
M  END
> <s_m_source_file>
AV-unprocessed.smi

> <i_m_source_file_index>
1998

> <i_lp_mmshare_version>
43012

> <i_f3d_flags>
0

> <s_epik_input>
W0NIM11jMVtjSF1jKFtDSDNdKW4objEpW0NIMl1DKD1PKVtOSF1bQ0gyXUMoW0NIM10pKFtDSDNdKU4yW0NIMl1bQ0gyXU9bQ0gyXVtDSDJdMg==

> <s_epik_cmdline>
J2VwaWtfcHl0aG9uJywgJy1waCcsICc3LjAnLCAnLXRuJywgJzgnLCAnLW1hJywgJzIwMCcsICctbWV0YWxfYmluZGluZycsICctaW1hZScsICc8aW5maWxlLm1hZT4nLCAnLW9tYWUnLCAnPG91dGZpbGUubWFlPic=

> <r_lp_tautomer_probability>
1

> <r_epik_Ionization_Penalty>
0.748602

> <r_epik_Ionization_Penalty_Charging>
0.748396

> <r_epik_Ionization_Penalty_Neutral>
0.000205295

> <r_epik_State_Penalty>
0.775162

> <r_epik_Charging_Adjusted_Penalty>
1.52356

> <i_epik_Tot_Q>
1

> <i_epik_Tot_abs_Q>
1

> <r_epik_Metal_State_Penalty>
0.775274

> <b_epik_Metal_Only>
0

> <s_lp_Force_Field>
OPLS_2005

> <r_lp_Energy>
25.5475

> <b_lp_Chiralities_Consistent>
1

> <s_lp_Variant>
AV-unprocessed.smi:1998-2

> <Gold.Version>
5.8.1

> <Gold.Id.Protein>
6NUR|6NUR_protein|mol2

> <Gold.PLP.Fitness>
51.2140

> <Gold.PLP.PLP>
-45.5023

> <Gold.PLP.part.hbond>
-2.0000

> <Gold.PLP.part.metal>
0.0000

> <Gold.PLP.part.buried>
-8.1697

> <Gold.PLP.part.nonpolar>
-36.5497

> <Gold.PLP.part.repulsive>
0.3841

> <Gold.PLP.ligand.clash>
0.0000

> <Gold.PLP.ligand.torsion>
1.5180

> <Gold.PLP.Chemscore.Hbond>
2.8800

> <Gold.PLP.Chemscore.CHOScore>
0.0000

> <Gold.PLP.Chemscore.Metal>
0.0000

> <Gold.Chemscore.Hbonds>
donor molecule, donor type, donor heavy atom, donor atom, acceptor molecule, acceptor atom, score
      L1  H    10    31       P1  8028  1.00
      L1  H    15    48       P1  8028  0.65

> <Gold.PLP.Chemscore.Internal.Correction>
0.1077

> <Gold.Rescore>
     Score         DG    S(hbond)    S(metal)    S(lipo)     H(rot)  DE(clash)    DE(int)     intcor
     14.77     -17.99       1.53        0.00     101.24       1.74       0.20       3.01       ----

> <Gold.Chemscore.Fitness>
14.7748

> <Gold.Chemscore.DG>
-17.9888

> <Gold.Chemscore.ZeroCoef>
-5.4800

> <Gold.Chemscore.Hbond>
1.5311

> <Gold.Chemscore.Metal>
0.0000

> <Gold.Chemscore.Lipo>
101.2392

> <Gold.Chemscore.Internal_Hbond>
0.0000

> <Gold.Chemscore.DEClash>
0.1996

> <Gold.Chemscore.DEInternal>
3.0144

> <Gold.Chemscore.Rot>
1.7383

> <Gold.Chemscore.Internal.Correction>
   9.000000E+99

> <Gold.Chemscore.Hbonds>
donor molecule, donor type, donor heavy atom, donor atom, acceptor molecule, acceptor atom, score
      L1  H    10    31       P1  8028  0.98
      L1  H    15    48       P1  8028  0.10

> <Gold.Chemscore.Hbond.Weighted>
-5.1139

> <Gold.Chemscore.Metal.Weighted>
-0.0000

> <Gold.Chemscore.Lipo.Weighted>
-11.8450

> <Gold.Chemscore.Internal_Hbond.Weighted>
0.0000

> <Gold.Chemscore.DEClash.Weighted>
0.1996

> <Gold.Chemscore.DEInternal.Weighted>
3.0144

> <Gold.Chemscore.Rot.Weighted>
4.4501

> <Gold.Chemscore.Internal.Correction.Weighted>
   9.000000E+99

> <Gold.Protein.RotatedTorsions>
[ 6907 6896 6895 6894 ] final -143.31 input  -60.11 | X-H torsion
[ 7974 7965 7964 7962 ] final -117.85 input  175.53 | X-H torsion
[ 8008 7997 7996 7995 ] final   83.25 input   59.86 | X-H torsion
[ 10167 10162 10161 10158 ] final  131.19 input  -65.29 | X-H torsion
[ 10718 10713 10712 10709 ] final   39.26 input   66.30 | X-H torsion
[ 10763 10752 10751 10750 ] final  -45.89 input  -60.55 | X-H torsion
[ 11005 11000 10999 10996 ] final  144.69 input  -57.11 | X-H torsion

> <Gold.Protein.ActiveResidues>
 VAL166  LYS551  ARG553  GLY616  TRP617  ASP618  TYR619  PRO620  LYS621  CYS622 
 ASP623  PHE694  ASN695  SER759  ASP760  ASP761  ALA762  ILE779  LEU786  VAL792 
 PHE793  MET794  SER795  GLU796  ALA797  LYS798  CYS799  TRP800  GLU811  SER814 

> <Gold.Protein.RotatedAtoms>
  151.0988  133.5259  159.2610 H   0  0  0  0  0  0  0  0  0  0  0  0  # atno 6907 bound_to 6896
  151.2098  135.0476  159.8916 H   0  0  0  0  0  0  0  0  0  0  0  0  # atno 6908 bound_to 6896
  152.5441  134.0805  159.8287 H   0  0  0  0  0  0  0  0  0  0  0  0  # atno 6909 bound_to 6896
  145.0805  140.8422  143.4042 H   0  0  0  0  0  0  0  0  0  0  0  0  # atno 7974 bound_to 7965
  155.9215  140.3421  155.6176 H   0  0  0  0  0  0  0  0  0  0  0  0  # atno 8008 bound_to 7997
  155.7268  140.0790  157.2325 H   0  0  0  0  0  0  0  0  0  0  0  0  # atno 8009 bound_to 7997
  154.4070  140.1595  156.2451 H   0  0  0  0  0  0  0  0  0  0  0  0  # atno 8010 bound_to 7997
  139.5395  144.6717  151.4671 H   0  0  0  0  0  0  0  0  0  0  0  0  # atno 10167 bound_to 10162
  157.3685  130.7688  149.7101 H   0  0  0  0  0  0  0  0  0  0  0  0  # atno 10718 bound_to 10713
  154.0360  135.6650  153.4785 H   0  0  0  0  0  0  0  0  0  0  0  0  # atno 10763 bound_to 10752
  153.0521  135.5078  154.7888 H   0  0  0  0  0  0  0  0  0  0  0  0  # atno 10764 bound_to 10752
  154.6848  135.3051  154.9528 H   0  0  0  0  0  0  0  0  0  0  0  0  # atno 10765 bound_to 10752
  140.0652  134.9182  157.1252 H   0  0  0  0  0  0  0  0  0  0  0  0  # atno 11005 bound_to 11000
  145.1184  139.2710  143.5601 LP  0  0  0  0  0  0  0  0  0  0  0  0  # atno 17320 bound_to 7965
  146.3531  140.0800  142.8618 LP  0  0  0  0  0  0  0  0  0  0  0  0  # atno 17321 bound_to 7965
  140.6619  143.8481  150.6897 LP  0  0  0  0  0  0  0  0  0  0  0  0  # atno 17342 bound_to 10162
  140.1878  143.4061  152.1886 LP  0  0  0  0  0  0  0  0  0  0  0  0  # atno 17343 bound_to 10162
  155.9751  130.4094  150.3875 LP  0  0  0  0  0  0  0  0  0  0  0  0  # atno 17370 bound_to 10713
  157.1963  131.0427  151.2674 LP  0  0  0  0  0  0  0  0  0  0  0  0  # atno 17371 bound_to 10713
  140.3709  134.2391  155.7178 LP  0  0  0  0  0  0  0  0  0  0  0  0  # atno 17394 bound_to 11000
  141.1990  133.8022  157.0558 LP  0  0  0  0  0  0  0  0  0  0  0  0  # atno 17395 bound_to 11000

$$$$
