AV-unprocessed.smi:3308|AV-procd|sdf|12713|dock1
  -GOLD-   2272019 53D 1   1.00000     0.00000
 Structure written by MMmdl.
 40 41  0  0  0  0  0  0  0  0  1 V2000
  150.9408  140.2347  156.9208 C   0  0  0  0  0  0  0  0  0  0  0  0
  149.9712  141.3300  157.4165 C   0  0  1  0  0  0  0  0  0  0  0  0
  150.2873  142.5788  156.7297 N   0  0  0  0  0  0  0  0  0  0  0  0
  151.5395  143.1791  157.2071 C   0  0  0  0  0  0  0  0  0  0  0  0
  151.3841  143.7375  158.6250 C   0  0  0  0  0  0  0  0  0  0  0  0
  150.5664  144.6370  158.8190 O   0  0  0  0  0  0  0  0  0  0  0  0
  152.1483  143.2295  159.6155 N   0  0  0  0  0  0  0  0  0  0  0  0
  152.1203  143.6411  161.0192 C   0  0  0  0  0  0  0  0  0  0  0  0
  152.9761  142.6195  161.7685 C   0  0  0  0  0  0  0  0  0  0  0  0
  153.9311  142.0853  160.7102 C   0  0  0  0  0  0  0  0  0  0  0  0
  153.1317  142.1679  159.4099 C   0  0  0  0  0  0  0  0  0  0  0  0
  148.4801  140.9891  157.1510 C   0  0  2  0  0  0  0  0  0  0  0  0
  148.1600  139.5003  157.3825 C   0  0  0  0  0  0  0  0  0  0  0  0
  148.0684  141.3706  155.8054 N   0  0  0  0  0  0  0  0  0  0  0  0
  148.6058  140.9784  154.5952 C   0  0  0  0  0  0  0  0  0  0  0  0
  147.8862  141.5917  153.6103 C   0  0  0  0  0  0  0  0  0  0  0  0
  146.9116  142.3441  154.3231 C   0  0  0  0  0  0  0  0  0  0  0  0
  147.0214  142.2080  155.6345 N   0  0  0  0  0  0  0  0  0  0  0  0
  150.7858  139.2921  157.4454 H   0  0  0  0  0  0  0  0  0  0  0  0
  151.9842  140.5065  157.0766 H   0  0  0  0  0  0  0  0  0  0  0  0
  150.8065  140.0445  155.8553 H   0  0  0  0  0  0  0  0  0  0  0  0
  150.1021  141.4594  158.4926 H   0  0  0  0  0  0  0  0  0  0  0  0
  149.5176  143.2215  156.8520 H   0  0  0  0  0  0  0  0  0  0  0  0
  152.3227  142.4192  157.2105 H   0  0  0  0  0  0  0  0  0  0  0  0
  151.8800  143.9670  156.5361 H   0  0  0  0  0  0  0  0  0  0  0  0
  152.5545  144.6380  161.1075 H   0  0  0  0  0  0  0  0  0  0  0  0
  151.1080  143.6729  161.4240 H   0  0  0  0  0  0  0  0  0  0  0  0
  153.4930  143.0491  162.6269 H   0  0  0  0  0  0  0  0  0  0  0  0
  152.3433  141.8082  162.1315 H   0  0  0  0  0  0  0  0  0  0  0  0
  154.8039  142.7365  160.6450 H   0  0  0  0  0  0  0  0  0  0  0  0
  154.2826  141.0761  160.9271 H   0  0  0  0  0  0  0  0  0  0  0  0
  152.6059  141.2304  159.2234 H   0  0  0  0  0  0  0  0  0  0  0  0
  153.7817  142.3681  158.5568 H   0  0  0  0  0  0  0  0  0  0  0  0
  147.8728  141.5684  157.8501 H   0  0  0  0  0  0  0  0  0  0  0  0
  148.3524  139.2034  158.4135 H   0  0  0  0  0  0  0  0  0  0  0  0
  148.7588  138.8579  156.7361 H   0  0  0  0  0  0  0  0  0  0  0  0
  147.1095  139.2910  157.1773 H   0  0  0  0  0  0  0  0  0  0  0  0
  149.4490  140.3055  154.5374 H   0  0  0  0  0  0  0  0  0  0  0  0
  148.0329  141.5138  152.5432 H   0  0  0  0  0  0  0  0  0  0  0  0
  146.1326  142.9804  153.9295 H   0  0  0  0  0  0  0  0  0  0  0  0
  1  2  1  0  0  0  0
  1 19  1  0  0  0  0
  1 20  1  0  0  0  0
  1 21  1  0  0  0  0
  2  3  1  0  0  0  0
  2 12  1  0  0  0  0
  2 22  1  0  0  0  0
  3  4  1  0  0  0  0
  3 23  1  0  0  0  0
  4  5  1  0  0  0  0
  4 24  1  0  0  0  0
  4 25  1  0  0  0  0
  5  6  2  0  0  0  0
  5  7  1  0  0  0  0
  7 11  1  0  0  0  0
  7  8  1  0  0  0  0
  8  9  1  0  0  0  0
  8 26  1  0  0  0  0
  8 27  1  0  0  0  0
  9 10  1  0  0  0  0
  9 28  1  0  0  0  0
  9 29  1  0  0  0  0
 10 11  1  0  0  0  0
 10 30  1  0  0  0  0
 10 31  1  0  0  0  0
 11 32  1  0  0  0  0
 11 33  1  0  0  0  0
 12 13  1  0  0  0  0
 12 14  1  0  0  0  0
 12 34  1  0  0  0  0
 13 35  1  0  0  0  0
 13 36  1  0  0  0  0
 13 37  1  0  0  0  0
 14 18  1  0  0  0  0
 14 15  1  0  0  0  0
 15 16  2  0  0  0  0
 15 38  1  0  0  0  0
 16 17  1  0  0  0  0
 16 39  1  0  0  0  0
 17 18  2  0  0  0  0
 17 40  1  0  0  0  0
M  END
> <s_m_source_file>
AV-unprocessed.smi

> <i_m_source_file_index>
3308

> <i_lp_mmshare_version>
43012

> <i_f3d_flags>
0

> <s_epik_input>
bjFbY0hdW2NIXVtjSF1uMVtDQEBIXShbQ0gzXSlbQ0BIXShbQ0gzXSlbTkhdW0NIMl1DKD1PKU4yW0NIMl1bQ0gyXVtDSDJdW0NIMl0y

> <s_epik_cmdline>
J2VwaWtfcHl0aG9uJywgJy1waCcsICc3LjAnLCAnLXRuJywgJzgnLCAnLW1hJywgJzIwMCcsICctbWV0YWxfYmluZGluZycsICctaW1hZScsICc8aW5maWxlLm1hZT4nLCAnLW9tYWUnLCAnPG91dGZpbGUubWFlPic=

> <r_lp_tautomer_probability>
1

> <r_epik_Ionization_Penalty>
0.918676

> <r_epik_Ionization_Penalty_Charging>
0

> <r_epik_Ionization_Penalty_Neutral>
0.918676

> <r_epik_State_Penalty>
0.958258

> <r_epik_Charging_Adjusted_Penalty>
0.958258

> <i_epik_Tot_Q>
0

> <i_epik_Tot_abs_Q>
0

> <r_epik_Metal_State_Penalty>
0.956879

> <b_epik_Metal_Only>
0

> <s_lp_Force_Field>
OPLS_2005

> <r_lp_Energy>
35.768

> <b_lp_Chiralities_Consistent>
1

> <s_lp_Variant>
AV-unprocessed.smi:3308-6

> <Gold.Version>
5.8.1

> <Gold.Id.Protein>
6NUR|6NUR_protein|mol2

> <Gold.PLP.Fitness>
40.2392

> <Gold.PLP.PLP>
-38.8012

> <Gold.PLP.part.hbond>
-1.0000

> <Gold.PLP.part.metal>
0.0000

> <Gold.PLP.part.buried>
-5.2617

> <Gold.PLP.part.nonpolar>
-32.2404

> <Gold.PLP.part.repulsive>
1.2391

> <Gold.PLP.ligand.clash>
0.0000

> <Gold.PLP.ligand.torsion>
0.6816

> <Gold.PLP.Chemscore.Hbond>
0.8960

> <Gold.PLP.Chemscore.CHOScore>
0.0000

> <Gold.PLP.Chemscore.Metal>
0.0000

> <Gold.Chemscore.Hbonds>
donor molecule, donor type, donor heavy atom, donor atom, acceptor molecule, acceptor atom, score
      L1  H     3    23       P1  8028  0.61

> <Gold.PLP.Chemscore.Internal.Correction>
0.1132

> <Gold.Rescore>
     Score         DG    S(hbond)    S(metal)    S(lipo)     H(rot)  DE(clash)    DE(int)     intcor
     13.11     -14.11       0.78        0.00      89.03       1.72       0.30       0.70       ----

> <Gold.Chemscore.Fitness>
13.1084

> <Gold.Chemscore.DG>
-14.1134

> <Gold.Chemscore.ZeroCoef>
-5.4800

> <Gold.Chemscore.Hbond>
0.7844

> <Gold.Chemscore.Metal>
0.0000

> <Gold.Chemscore.Lipo>
89.0318

> <Gold.Chemscore.Internal_Hbond>
0.0000

> <Gold.Chemscore.DEClash>
0.3002

> <Gold.Chemscore.DEInternal>
0.7049

> <Gold.Chemscore.Rot>
1.7200

> <Gold.Chemscore.Internal.Correction>
   9.000000E+99

> <Gold.Chemscore.Hbonds>
donor molecule, donor type, donor heavy atom, donor atom, acceptor molecule, acceptor atom, score
      L1  H     3    23       P1  8028  0.57

> <Gold.Chemscore.Hbond.Weighted>
-2.6198

> <Gold.Chemscore.Metal.Weighted>
-0.0000

> <Gold.Chemscore.Lipo.Weighted>
-10.4167

> <Gold.Chemscore.Internal_Hbond.Weighted>
0.0000

> <Gold.Chemscore.DEClash.Weighted>
0.3002

> <Gold.Chemscore.DEInternal.Weighted>
0.7049

> <Gold.Chemscore.Rot.Weighted>
4.4031

> <Gold.Chemscore.Internal.Correction.Weighted>
   9.000000E+99

> <Gold.Protein.RotatedTorsions>
[ 6907 6896 6895 6894 ] final  -75.76 input  -60.11 | X-H torsion
[ 7974 7965 7964 7962 ] final    0.68 input  175.53 | X-H torsion
[ 8008 7997 7996 7995 ] final  -86.56 input   59.86 | X-H torsion
[ 10167 10162 10161 10158 ] final  172.18 input  -65.29 | X-H torsion
[ 10718 10713 10712 10709 ] final -161.38 input   66.30 | X-H torsion
[ 10763 10752 10751 10750 ] final  116.85 input  -60.55 | X-H torsion
[ 11005 11000 10999 10996 ] final   25.74 input  -57.11 | X-H torsion

> <Gold.Protein.ActiveResidues>
 VAL166  LYS551  ARG553  GLY616  TRP617  ASP618  TYR619  PRO620  LYS621  CYS622 
 ASP623  PHE694  ASN695  SER759  ASP760  ASP761  ALA762  ILE779  LEU786  VAL792 
 PHE793  MET794  SER795  GLU796  ALA797  LYS798  CYS799  TRP800  GLU811  SER814 

> <Gold.Protein.RotatedAtoms>
  150.7048  134.4673  159.5408 H   0  0  0  0  0  0  0  0  0  0  0  0  # atno 6907 bound_to 6896
  152.2336  134.8295  160.0479 H   0  0  0  0  0  0  0  0  0  0  0  0  # atno 6908 bound_to 6896
  151.9102  133.3524  159.3897 H   0  0  0  0  0  0  0  0  0  0  0  0  # atno 6909 bound_to 6896
  146.2436  140.1102  142.8344 H   0  0  0  0  0  0  0  0  0  0  0  0  # atno 7974 bound_to 7965
  154.6532  140.0577  156.9979 H   0  0  0  0  0  0  0  0  0  0  0  0  # atno 8008 bound_to 7997
  155.1339  140.3259  155.4449 H   0  0  0  0  0  0  0  0  0  0  0  0  # atno 8009 bound_to 7997
  156.2585  140.1976  156.6457 H   0  0  0  0  0  0  0  0  0  0  0  0  # atno 8010 bound_to 7997
  139.5069  144.3402  152.0025 H   0  0  0  0  0  0  0  0  0  0  0  0  # atno 10167 bound_to 10162
  156.5955  130.8788  151.2901 H   0  0  0  0  0  0  0  0  0  0  0  0  # atno 10718 bound_to 10713
  153.5434  135.3554  155.2728 H   0  0  0  0  0  0  0  0  0  0  0  0  # atno 10763 bound_to 10752
  154.8715  135.4096  154.3018 H   0  0  0  0  0  0  0  0  0  0  0  0  # atno 10764 bound_to 10752
  153.3730  135.7065  153.6692 H   0  0  0  0  0  0  0  0  0  0  0  0  # atno 10765 bound_to 10752
  140.3445  134.2296  155.7686 H   0  0  0  0  0  0  0  0  0  0  0  0  # atno 11005 bound_to 11000
  145.0494  140.9006  143.5005 LP  0  0  0  0  0  0  0  0  0  0  0  0  # atno 17320 bound_to 7965
  145.1197  139.2702  143.5595 LP  0  0  0  0  0  0  0  0  0  0  0  0  # atno 17321 bound_to 7965
  140.2840  144.3828  150.6109 LP  0  0  0  0  0  0  0  0  0  0  0  0  # atno 17342 bound_to 10162
  140.5997  143.2167  151.7097 LP  0  0  0  0  0  0  0  0  0  0  0  0  # atno 17343 bound_to 10162
  157.7293  130.9669  150.1780 LP  0  0  0  0  0  0  0  0  0  0  0  0  # atno 17370 bound_to 10713
  156.2513  130.3701  149.8229 LP  0  0  0  0  0  0  0  0  0  0  0  0  # atno 17371 bound_to 10713
  141.2029  133.7925  157.0366 LP  0  0  0  0  0  0  0  0  0  0  0  0  # atno 17394 bound_to 11000
  140.0753  134.9679  157.1536 LP  0  0  0  0  0  0  0  0  0  0  0  0  # atno 17395 bound_to 11000

$$$$
