AV-unprocessed.smi:3314|AV-procd|sdf|12734|dock3
  -GOLD-   2272019 83D 1   1.00000     0.00000
 Structure written by MMmdl.
 38 39  0  0  0  0  0  0  0  0  2 V2000
  151.9220  143.5064  160.2880 C   0  0  0  0  0  0  0  0  0  0  0  0
  152.2140  142.1265  159.7369 C   0  0  0  0  0  0  0  0  0  0  0  0
  153.1377  141.2751  160.3729 C   0  0  0  0  0  0  0  0  0  0  0  0
  153.3674  140.0044  159.8102 C   0  0  0  0  0  0  0  0  0  0  0  0
  154.3453  139.0382  160.4452 C   0  0  0  0  0  0  0  0  0  0  0  0
  152.7426  139.5685  158.6953 N   0  0  0  0  0  0  0  0  0  0  0  0
  151.8518  140.3802  158.0741 C   0  0  0  0  0  0  0  0  0  0  0  0
  151.1443  140.0180  156.8977 N   0  0  0  0  0  0  0  0  0  0  0  0
  151.5052  139.1410  155.9406 C   0  0  0  0  0  0  0  0  0  0  0  0
  152.5659  138.5150  155.9380 O   0  0  0  0  0  0  0  0  0  0  0  0
  150.5122  138.9605  154.7816 C   0  0  1  0  0  0  0  0  0  0  0  0
  149.1891  138.2968  155.2312 C   0  0  0  0  0  0  0  0  0  0  0  0
  148.2363  138.2107  154.1007 N   0  3  1  0  0  0  0  0  0  0  0  0
  146.9672  137.5508  154.4748 C   0  0  0  0  0  0  0  0  0  0  0  0
  148.0279  139.5385  153.4814 C   0  0  0  0  0  0  0  0  0  0  0  0
  149.3768  140.1531  153.0766 C   0  0  0  0  0  0  0  0  0  0  0  0
  150.2207  140.2390  154.2179 O   0  0  0  0  0  0  0  0  0  0  0  0
  151.5648  141.6709  158.5718 C   0  0  0  0  0  0  0  0  0  0  0  0
  152.3599  143.6378  161.2780 H   0  0  0  0  0  0  0  0  0  0  0  0
  150.8460  143.6630  160.3694 H   0  0  0  0  0  0  0  0  0  0  0  0
  152.3324  144.2705  159.6276 H   0  0  0  0  0  0  0  0  0  0  0  0
  153.6563  141.5868  161.2678 H   0  0  0  0  0  0  0  0  0  0  0  0
  155.0096  139.5523  161.1404 H   0  0  0  0  0  0  0  0  0  0  0  0
  154.9603  138.5565  159.6843 H   0  0  0  0  0  0  0  0  0  0  0  0
  153.8075  138.2644  160.9932 H   0  0  0  0  0  0  0  0  0  0  0  0
  150.2504  140.4702  156.7730 H   0  0  0  0  0  0  0  0  0  0  0  0
  151.0000  138.3395  154.0283 H   0  0  0  0  0  0  0  0  0  0  0  0
  149.3794  137.2915  155.6100 H   0  0  0  0  0  0  0  0  0  0  0  0
  148.7356  138.8665  156.0448 H   0  0  0  0  0  0  0  0  0  0  0  0
  146.4359  138.1250  155.2350 H   0  0  0  0  0  0  0  0  0  0  0  0
  147.1551  136.5520  154.8697 H   0  0  0  0  0  0  0  0  0  0  0  0
  146.3164  137.4486  153.6058 H   0  0  0  0  0  0  0  0  0  0  0  0
  147.3860  139.4400  152.6051 H   0  0  0  0  0  0  0  0  0  0  0  0
  147.5139  140.1956  154.1848 H   0  0  0  0  0  0  0  0  0  0  0  0
  149.8582  139.5621  152.2957 H   0  0  0  0  0  0  0  0  0  0  0  0
  149.2272  141.1543  152.6722 H   0  0  0  0  0  0  0  0  0  0  0  0
  150.8531  142.3087  158.0673 H   0  0  0  0  0  0  0  0  0  0  0  0
  148.6703  137.6276  153.3994 H   0  0  0  0  0  0  0  0  0  0  0  0
  1  2  1  0  0  0  0
  1 19  1  0  0  0  0
  1 20  1  0  0  0  0
  1 21  1  0  0  0  0
  2 18  1  0  0  0  0
  2  3  2  0  0  0  0
  3  4  1  0  0  0  0
  3 22  1  0  0  0  0
  4  5  1  0  0  0  0
  4  6  2  0  0  0  0
  5 23  1  0  0  0  0
  5 24  1  0  0  0  0
  5 25  1  0  0  0  0
  6  7  1  0  0  0  0
  7  8  1  0  0  0  0
  7 18  2  0  0  0  0
  8  9  1  0  0  0  0
  8 26  1  0  0  0  0
  9 10  2  0  0  0  0
  9 11  1  0  0  0  0
 11 17  1  0  0  0  0
 11 12  1  0  0  0  0
 11 27  1  0  0  0  0
 12 13  1  0  0  0  0
 12 28  1  0  0  0  0
 12 29  1  0  0  0  0
 13 14  1  0  0  0  0
 13 15  1  0  0  0  0
 13 38  1  0  0  0  0
 14 30  1  0  0  0  0
 14 31  1  0  0  0  0
 14 32  1  0  0  0  0
 15 16  1  0  0  0  0
 15 33  1  0  0  0  0
 15 34  1  0  0  0  0
 16 17  1  0  0  0  0
 16 35  1  0  0  0  0
 16 36  1  0  0  0  0
 18 37  1  0  0  0  0
M  CHG  1  13   1
M  END
> <s_m_source_file>
AV-unprocessed.smi

> <i_m_source_file_index>
3314

> <i_lp_mmshare_version>
43012

> <i_f3d_flags>
0

> <s_epik_input>
W0NIM11jMVtjSF1jKFtDSDNdKW5jKFtjSF0xKVtOSF1DKD1PKVtDQEBIXTJbQ0gyXU4oW0NIM10pW0NIMl1bQ0gyXU8y

> <s_epik_cmdline>
J2VwaWtfcHl0aG9uJywgJy1waCcsICc3LjAnLCAnLXRuJywgJzgnLCAnLW1hJywgJzIwMCcsICctbWV0YWxfYmluZGluZycsICctaW1hZScsICc8aW5maWxlLm1hZT4nLCAnLW9tYWUnLCAnPG91dGZpbGUubWFlPic=

> <r_epik_Ionization_Penalty>
0.32442

> <r_epik_Ionization_Penalty_Charging>
0.314023

> <r_epik_Ionization_Penalty_Neutral>
0.0103972

> <r_epik_State_Penalty>
0.29453

> <r_epik_Charging_Adjusted_Penalty>
0.608553

> <i_epik_Tot_Q>
1

> <i_epik_Tot_abs_Q>
1

> <r_epik_Metal_State_Penalty>
0.286909

> <b_epik_Metal_Only>
0

> <s_lp_Force_Field>
OPLS_2005

> <r_lp_Energy>
16.6998

> <b_lp_Chiralities_Consistent>
1

> <s_lp_Variant>
AV-unprocessed.smi:3314-4

> <Gold.Version>
5.8.1

> <Gold.Id.Protein>
6NUR|6NUR_protein|mol2

> <Gold.PLP.Fitness>
40.7457

> <Gold.PLP.PLP>
-29.0724

> <Gold.PLP.part.hbond>
-4.0000

> <Gold.PLP.part.metal>
0.0000

> <Gold.PLP.part.buried>
1.6226

> <Gold.PLP.part.nonpolar>
-26.8161

> <Gold.PLP.part.repulsive>
0.1904

> <Gold.PLP.ligand.clash>
0.0000

> <Gold.PLP.ligand.torsion>
0.2186

> <Gold.PLP.Chemscore.Hbond>
4.0360

> <Gold.PLP.Chemscore.CHOScore>
0.0000

> <Gold.PLP.Chemscore.Metal>
0.0000

> <Gold.Chemscore.Hbonds>
donor molecule, donor type, donor heavy atom, donor atom, acceptor molecule, acceptor atom, score
      L1  H    13    38       P1  7948  1.76
      P1  H  7989  7998       L1    17  0.93

> <Gold.PLP.Chemscore.Internal.Correction>
0.0025

> <Gold.Rescore>
     Score         DG    S(hbond)    S(metal)    S(lipo)     H(rot)  DE(clash)    DE(int)     intcor
     15.28     -18.28       1.88        0.00      77.71       1.00       1.70       1.30       ----

> <Gold.Chemscore.Fitness>
15.2824

> <Gold.Chemscore.DG>
-18.2832

> <Gold.Chemscore.ZeroCoef>
-5.4800

> <Gold.Chemscore.Hbond>
1.8778

> <Gold.Chemscore.Metal>
0.0000

> <Gold.Chemscore.Lipo>
77.7051

> <Gold.Chemscore.Internal_Hbond>
0.0000

> <Gold.Chemscore.DEClash>
1.7035

> <Gold.Chemscore.DEInternal>
1.2973

> <Gold.Chemscore.Rot>
1.0000

> <Gold.Chemscore.Internal.Correction>
   9.000000E+99

> <Gold.Chemscore.Hbonds>
donor molecule, donor type, donor heavy atom, donor atom, acceptor molecule, acceptor atom, score
      L1  H    13    38       P1  7948  0.85
      P1  H  7989  7998       L1    17  0.15
      P1  H  7997  8010       L1    10  0.01

> <Gold.Chemscore.Hbond.Weighted>
-6.2717

> <Gold.Chemscore.Metal.Weighted>
-0.0000

> <Gold.Chemscore.Lipo.Weighted>
-9.0915

> <Gold.Chemscore.Internal_Hbond.Weighted>
0.0000

> <Gold.Chemscore.DEClash.Weighted>
1.7035

> <Gold.Chemscore.DEInternal.Weighted>
1.2973

> <Gold.Chemscore.Rot.Weighted>
2.5600

> <Gold.Chemscore.Internal.Correction.Weighted>
   9.000000E+99

> <Gold.Protein.RotatedTorsions>
[ 6907 6896 6895 6894 ] final -137.22 input  -60.11 | X-H torsion
[ 7974 7965 7964 7962 ] final  -55.53 input  175.53 | X-H torsion
[ 8008 7997 7996 7995 ] final  100.76 input   59.86 | X-H torsion
[ 10167 10162 10161 10158 ] final -112.42 input  -65.29 | X-H torsion
[ 10718 10713 10712 10709 ] final   41.58 input   66.30 | X-H torsion
[ 10763 10752 10751 10750 ] final   16.35 input  -60.55 | X-H torsion
[ 11005 11000 10999 10996 ] final   24.86 input  -57.11 | X-H torsion

> <Gold.Protein.ActiveResidues>
 VAL166  LYS551  ARG553  GLY616  TRP617  ASP618  TYR619  PRO620  LYS621  CYS622 
 ASP623  PHE694  ASN695  SER759  ASP760  ASP761  ALA762  ILE779  LEU786  VAL792 
 PHE793  MET794  SER795  GLU796  ALA797  LYS798  CYS799  TRP800  GLU811  SER814 

> <Gold.Protein.RotatedAtoms>
  151.0197  133.5888  159.2672 H   0  0  0  0  0  0  0  0  0  0  0  0  # atno 6907 bound_to 6896
  151.3009  135.0767  159.9248 H   0  0  0  0  0  0  0  0  0  0  0  0  # atno 6908 bound_to 6896
  152.5320  133.9879  159.7891 H   0  0  0  0  0  0  0  0  0  0  0  0  # atno 6909 bound_to 6896
  145.8731  140.8201  142.9878 H   0  0  0  0  0  0  0  0  0  0  0  0  # atno 7974 bound_to 7965
  156.1235  140.3208  155.8243 H   0  0  0  0  0  0  0  0  0  0  0  0  # atno 8008 bound_to 7997
  155.4462  140.0529  157.3023 H   0  0  0  0  0  0  0  0  0  0  0  0  # atno 8009 bound_to 7997
  154.4845  140.2067  155.9701 H   0  0  0  0  0  0  0  0  0  0  0  0  # atno 8010 bound_to 7997
  140.1229  143.4427  152.1679 H   0  0  0  0  0  0  0  0  0  0  0  0  # atno 10167 bound_to 10162
  157.3952  130.7828  149.7302 H   0  0  0  0  0  0  0  0  0  0  0  0  # atno 10718 bound_to 10713
  153.1439  135.6765  153.8984 H   0  0  0  0  0  0  0  0  0  0  0  0  # atno 10763 bound_to 10752
  153.8432  135.3102  155.3429 H   0  0  0  0  0  0  0  0  0  0  0  0  # atno 10764 bound_to 10752
  154.7809  135.4888  153.9928 H   0  0  0  0  0  0  0  0  0  0  0  0  # atno 10765 bound_to 10752
  140.3541  134.2197  155.7677 H   0  0  0  0  0  0  0  0  0  0  0  0  # atno 11005 bound_to 11000
  144.6726  140.1269  143.7446 LP  0  0  0  0  0  0  0  0  0  0  0  0  # atno 17320 bound_to 7965
  145.9113  139.2489  143.1436 LP  0  0  0  0  0  0  0  0  0  0  0  0  # atno 17321 bound_to 7965
  139.5559  144.7372  151.4296 LP  0  0  0  0  0  0  0  0  0  0  0  0  # atno 17342 bound_to 10162
  140.6861  143.7970  150.7189 LP  0  0  0  0  0  0  0  0  0  0  0  0  # atno 17343 bound_to 10162
  155.9808  130.4025  150.3506 LP  0  0  0  0  0  0  0  0  0  0  0  0  # atno 17370 bound_to 10713
  157.1627  131.0349  151.2833 LP  0  0  0  0  0  0  0  0  0  0  0  0  # atno 17371 bound_to 10713
  141.2003  133.7989  157.0493 LP  0  0  0  0  0  0  0  0  0  0  0  0  # atno 17394 bound_to 11000
  140.0679  134.9718  157.1418 LP  0  0  0  0  0  0  0  0  0  0  0  0  # atno 17395 bound_to 11000

$$$$
