AV-unprocessed.smi:576|AV-procd|sdf|2978|dock1
  -GOLD-   2262023483D 1   1.00000     0.00000
 Structure written by MMmdl.
 35 36  0  0  0  0  0  0  0  0  1 V2000
  148.7971  140.4500  153.9702 C   0  0  0  0  0  0  0  0  0  0  0  0
  148.7602  141.5383  155.0554 C   0  0  2  0  0  0  0  0  0  0  0  0
  149.3614  141.0320  156.2852 N   0  0  0  0  0  0  0  0  0  0  0  0
  150.6366  140.6381  156.4266 C   0  0  0  0  0  0  0  0  0  0  0  0
  151.4599  140.6729  155.5111 O   0  0  0  0  0  0  0  0  0  0  0  0
  151.0381  140.1484  157.8252 C   0  0  0  0  0  0  0  0  0  0  0  0
  151.8406  141.1299  158.5742 N   0  0  0  0  0  0  0  0  0  0  0  0
  151.2849  142.4122  158.7526 C   0  0  0  0  0  0  0  0  0  0  0  0
  151.9126  143.3961  159.4250 C   0  0  0  0  0  0  0  0  0  0  0  0
  151.3142  144.7888  159.5483 C   0  0  0  0  0  0  0  0  0  0  0  0
  151.1287  145.3105  158.3365 F   0  0  0  0  0  0  0  0  0  0  0  0
  150.1353  144.7518  160.1698 F   0  0  0  0  0  0  0  0  0  0  0  0
  152.1220  145.6018  160.2303 F   0  0  0  0  0  0  0  0  0  0  0  0
  153.2297  143.0838  159.9444 C   0  0  0  0  0  0  0  0  0  0  0  0
  153.7810  141.8666  159.7715 C   0  0  0  0  0  0  0  0  0  0  0  0
  153.0784  140.8018  159.0519 C   0  0  0  0  0  0  0  0  0  0  0  0
  153.5717  139.6856  158.8878 O   0  0  0  0  0  0  0  0  0  0  0  0
  147.3443  142.0403  155.2672 C   0  0  0  0  0  0  0  0  0  0  0  0
  146.1675  141.3480  154.6222 C   0  0  0  0  0  0  0  0  0  0  0  0
  146.5841  142.7256  154.1574 C   0  0  0  0  0  0  0  0  0  0  0  0
  148.3820  140.8189  153.0320 H   0  0  0  0  0  0  0  0  0  0  0  0
  148.2195  139.5740  154.2674 H   0  0  0  0  0  0  0  0  0  0  0  0
  149.8176  140.1229  153.7683 H   0  0  0  0  0  0  0  0  0  0  0  0
  149.3536  142.3849  154.7040 H   0  0  0  0  0  0  0  0  0  0  0  0
  148.7580  140.9734  157.0928 H   0  0  0  0  0  0  0  0  0  0  0  0
  150.1271  139.9011  158.3717 H   0  0  0  0  0  0  0  0  0  0  0  0
  151.5831  139.2062  157.7400 H   0  0  0  0  0  0  0  0  0  0  0  0
  150.3151  142.5487  158.2961 H   0  0  0  0  0  0  0  0  0  0  0  0
  153.7837  143.8375  160.4843 H   0  0  0  0  0  0  0  0  0  0  0  0
  154.7639  141.6688  160.1737 H   0  0  0  0  0  0  0  0  0  0  0  0
  147.1666  142.4258  156.2697 H   0  0  0  0  0  0  0  0  0  0  0  0
  146.3716  140.5116  153.9567 H   0  0  0  0  0  0  0  0  0  0  0  0
  145.2520  141.2681  155.2047 H   0  0  0  0  0  0  0  0  0  0  0  0
  145.9460  143.5637  154.4298 H   0  0  0  0  0  0  0  0  0  0  0  0
  147.0668  142.8036  153.1852 H   0  0  0  0  0  0  0  0  0  0  0  0
  1  2  1  0  0  0  0
  1 21  1  0  0  0  0
  1 22  1  0  0  0  0
  1 23  1  0  0  0  0
  2  3  1  0  0  0  0
  2 18  1  0  0  0  0
  2 24  1  0  0  0  0
  3  4  1  0  0  0  0
  3 25  1  0  0  0  0
  4  5  2  0  0  0  0
  4  6  1  0  0  0  0
  6  7  1  0  0  0  0
  6 26  1  0  0  0  0
  6 27  1  0  0  0  0
  7 16  1  0  0  0  0
  7  8  1  0  0  0  0
  8  9  2  0  0  0  0
  8 28  1  0  0  0  0
  9 10  1  0  0  0  0
  9 14  1  0  0  0  0
 10 11  1  0  0  0  0
 10 12  1  0  0  0  0
 10 13  1  0  0  0  0
 14 15  2  0  0  0  0
 14 29  1  0  0  0  0
 15 16  1  0  0  0  0
 15 30  1  0  0  0  0
 16 17  2  0  0  0  0
 18 20  1  0  0  0  0
 18 19  1  0  0  0  0
 18 31  1  0  0  0  0
 19 20  1  0  0  0  0
 19 32  1  0  0  0  0
 19 33  1  0  0  0  0
 20 34  1  0  0  0  0
 20 35  1  0  0  0  0
M  END
> <s_m_source_file>
AV-unprocessed.smi

> <i_m_source_file_index>
576

> <i_lp_mmshare_version>
43012

> <i_f3d_flags>
0

> <s_epik_input>
W0NIMl0xW0NIMl1bQ0hdMVtDQEhdKFtDSDNdKVtOSF1DKD1PKVtDSDJdbjJbY0hdYyhDKEYpKEYpRilbY0hdW2NIXWMyPU8=

> <s_epik_cmdline>
J2VwaWtfcHl0aG9uJywgJy1waCcsICc3LjAnLCAnLXRuJywgJzgnLCAnLW1hJywgJzIwMCcsICctbWV0YWxfYmluZGluZycsICctaW1hZScsICc8aW5maWxlLm1hZT4nLCAnLW9tYWUnLCAnPG91dGZpbGUubWFlPic=

> <r_lp_tautomer_probability>
1

> <r_epik_Ionization_Penalty>
3.84201e-08

> <r_epik_Ionization_Penalty_Charging>
1.91184e-08

> <r_epik_Ionization_Penalty_Neutral>
1.93017e-08

> <r_epik_State_Penalty>
-0

> <r_epik_Charging_Adjusted_Penalty>
1.91184e-08

> <i_epik_Tot_Q>
0

> <i_epik_Tot_abs_Q>
0

> <r_epik_Metal_State_Penalty>
-0

> <b_epik_Metal_Only>
0

> <s_lp_Force_Field>
OPLS_2005

> <r_lp_Energy>
24.7521

> <b_lp_Chiralities_Consistent>
1

> <s_lp_Variant>
AV-unprocessed.smi:576-1

> <Gold.Version>
5.8.1

> <Gold.Id.Protein>
6NUR|6NUR_protein|mol2

> <Gold.PLP.Fitness>
48.2217

> <Gold.PLP.PLP>
-43.8990

> <Gold.PLP.part.hbond>
-2.0000

> <Gold.PLP.part.metal>
0.0000

> <Gold.PLP.part.buried>
-2.5463

> <Gold.PLP.part.nonpolar>
-38.7368

> <Gold.PLP.part.repulsive>
0.0466

> <Gold.PLP.ligand.clash>
0.0000

> <Gold.PLP.ligand.torsion>
0.9789

> <Gold.PLP.Chemscore.Hbond>
1.7137

> <Gold.PLP.Chemscore.CHOScore>
0.0000

> <Gold.PLP.Chemscore.Metal>
0.0000

> <Gold.Chemscore.Hbonds>
donor molecule, donor type, donor heavy atom, donor atom, acceptor molecule, acceptor atom, score
      P1  H  7989  7998       L1     5  0.75
      P1  H  7997  8008       L1    17  0.78

> <Gold.PLP.Chemscore.Internal.Correction>
1.1393

> <Gold.Rescore>
     Score         DG    S(hbond)    S(metal)    S(lipo)     H(rot)  DE(clash)    DE(int)     intcor
     14.94     -15.96       1.55        0.00      83.94       1.77       0.07       0.94       ----

> <Gold.Chemscore.Fitness>
14.9434

> <Gold.Chemscore.DG>
-15.9595

> <Gold.Chemscore.ZeroCoef>
-5.4800

> <Gold.Chemscore.Hbond>
1.5501

> <Gold.Chemscore.Metal>
0.0000

> <Gold.Chemscore.Lipo>
83.9423

> <Gold.Chemscore.Internal_Hbond>
0.0000

> <Gold.Chemscore.DEClash>
0.0714

> <Gold.Chemscore.DEInternal>
0.9448

> <Gold.Chemscore.Rot>
1.7653

> <Gold.Chemscore.Internal.Correction>
   9.000000E+99

> <Gold.Chemscore.Hbonds>
donor molecule, donor type, donor heavy atom, donor atom, acceptor molecule, acceptor atom, score
      P1  H  7989  7998       L1     5  0.72
      P1  H  7997  8008       L1    17  0.27

> <Gold.Chemscore.Hbond.Weighted>
-5.1774

> <Gold.Chemscore.Metal.Weighted>
-0.0000

> <Gold.Chemscore.Lipo.Weighted>
-9.8212

> <Gold.Chemscore.Internal_Hbond.Weighted>
0.0000

> <Gold.Chemscore.DEClash.Weighted>
0.0714

> <Gold.Chemscore.DEInternal.Weighted>
0.9448

> <Gold.Chemscore.Rot.Weighted>
4.5191

> <Gold.Chemscore.Internal.Correction.Weighted>
   9.000000E+99

> <Gold.Protein.RotatedTorsions>
[ 6907 6896 6895 6894 ] final   68.80 input  -60.11 | X-H torsion
[ 7974 7965 7964 7962 ] final   45.29 input  175.53 | X-H torsion
[ 8008 7997 7996 7995 ] final -105.40 input   59.86 | X-H torsion
[ 10167 10162 10161 10158 ] final  -73.70 input  -65.29 | X-H torsion
[ 10718 10713 10712 10709 ] final -139.98 input   66.30 | X-H torsion
[ 10763 10752 10751 10750 ] final -177.87 input  -60.55 | X-H torsion
[ 11005 11000 10999 10996 ] final  157.39 input  -57.11 | X-H torsion

> <Gold.Protein.ActiveResidues>
 VAL166  LYS551  ARG553  GLY616  TRP617  ASP618  TYR619  PRO620  LYS621  CYS622 
 ASP623  PHE694  ASN695  SER759  ASP760  ASP761  ALA762  ILE779  LEU786  VAL792 
 PHE793  MET794  SER795  GLU796  ALA797  LYS798  CYS799  TRP800  GLU811  SER814 

> <Gold.Protein.RotatedAtoms>
  152.4644  134.5109  159.9753 H   0  0  0  0  0  0  0  0  0  0  0  0  # atno 6907 bound_to 6896
  151.5150  133.3471  159.2899 H   0  0  0  0  0  0  0  0  0  0  0  0  # atno 6908 bound_to 6896
  150.8622  134.8006  159.7153 H   0  0  0  0  0  0  0  0  0  0  0  0  # atno 6909 bound_to 6896
  146.0493  139.4981  142.9728 H   0  0  0  0  0  0  0  0  0  0  0  0  # atno 7974 bound_to 7965
  154.8993  140.0413  157.1884 H   0  0  0  0  0  0  0  0  0  0  0  0  # atno 8008 bound_to 7997
  154.8460  140.2922  155.5608 H   0  0  0  0  0  0  0  0  0  0  0  0  # atno 8009 bound_to 7997
  156.2994  140.2474  156.3410 H   0  0  0  0  0  0  0  0  0  0  0  0  # atno 8010 bound_to 7997
  140.5089  143.2348  151.7627 H   0  0  0  0  0  0  0  0  0  0  0  0  # atno 10167 bound_to 10162
  156.3170  130.7513  151.1602 H   0  0  0  0  0  0  0  0  0  0  0  0  # atno 10718 bound_to 10713
  154.5548  135.2815  155.0975 H   0  0  0  0  0  0  0  0  0  0  0  0  # atno 10763 bound_to 10752
  154.2406  135.6357  153.5210 H   0  0  0  0  0  0  0  0  0  0  0  0  # atno 10764 bound_to 10752
  153.0012  135.5559  154.6125 H   0  0  0  0  0  0  0  0  0  0  0  0  # atno 10765 bound_to 10752
  140.1765  134.8506  157.2752 H   0  0  0  0  0  0  0  0  0  0  0  0  # atno 11005 bound_to 11000
  145.6752  141.0206  143.1636 LP  0  0  0  0  0  0  0  0  0  0  0  0  # atno 17320 bound_to 7965
  144.7114  139.8356  143.7413 LP  0  0  0  0  0  0  0  0  0  0  0  0  # atno 17321 bound_to 7965
  139.4891  144.4419  151.9755 LP  0  0  0  0  0  0  0  0  0  0  0  0  # atno 17342 bound_to 10162
  140.3510  144.3088  150.5949 LP  0  0  0  0  0  0  0  0  0  0  0  0  # atno 17343 bound_to 10162
  157.7404  131.0518  150.5171 LP  0  0  0  0  0  0  0  0  0  0  0  0  # atno 17370 bound_to 10713
  156.5318  130.4186  149.6198 LP  0  0  0  0  0  0  0  0  0  0  0  0  # atno 17371 bound_to 10713
  140.2317  134.3902  155.7519 LP  0  0  0  0  0  0  0  0  0  0  0  0  # atno 17394 bound_to 11000
  141.2220  133.7218  156.8650 LP  0  0  0  0  0  0  0  0  0  0  0  0  # atno 17395 bound_to 11000

$$$$
