AV-unprocessed.smi:618|AV-procd|sdf|3075|dock6
  -GOLD-   22720 0 03D 1   1.00000     0.00000
 Structure written by MMmdl.
 41 43  0  0  0  0  0  0  0  0  2 V2000
  151.1102  140.8817  156.3102 O   0  0  0  0  0  0  0  0  0  0  0  0
  150.3891  141.8750  156.2222 C   0  0  0  0  0  0  0  0  0  0  0  0
  149.4712  142.0338  155.2583 N   0  0  0  0  0  0  0  0  0  0  0  0
  149.1958  141.0628  154.2044 C   0  0  0  0  0  0  0  0  0  0  0  0
  147.7769  140.4629  154.3294 C   0  0  1  0  0  0  0  0  0  0  0  0
  147.2612  140.4307  155.7889 C   0  0  0  0  0  0  0  0  0  0  0  0
  146.8622  141.7919  156.1921 N   0  3  2  0  0  0  0  0  0  0  0  0
  146.3407  141.9866  157.5563 C   0  0  0  0  0  0  0  0  0  0  0  0
  145.4718  143.2573  157.4712 C   0  0  0  0  0  0  0  0  0  0  0  0
  145.4271  143.6330  155.9795 C   0  0  0  0  0  0  0  0  0  0  0  0
  145.8532  142.3430  155.2856 C   0  0  1  0  0  0  0  0  0  0  0  0
  146.4487  142.4456  153.8770 C   0  0  0  0  0  0  0  0  0  0  0  0
  146.8419  141.1322  153.4681 O   0  0  0  0  0  0  0  0  0  0  0  0
  150.4252  142.9377  157.0440 N   0  0  0  0  0  0  0  0  0  0  0  0
  151.2404  143.1360  158.1912 C   0  0  0  0  0  0  0  0  0  0  0  0
  151.4066  144.4531  158.6667 C   0  0  0  0  0  0  0  0  0  0  0  0
  152.1945  144.6749  159.8120 C   0  0  0  0  0  0  0  0  0  0  0  0
  152.7809  143.5630  160.4470 C   0  0  0  0  0  0  0  0  0  0  0  0
  152.6194  142.2946  160.0157 N   0  0  0  0  0  0  0  0  0  0  0  0
  151.8639  142.0893  158.9151 C   0  0  0  0  0  0  0  0  0  0  0  0
  148.9242  142.8824  155.2547 H   0  0  0  0  0  0  0  0  0  0  0  0
  149.3142  141.5430  153.2315 H   0  0  0  0  0  0  0  0  0  0  0  0
  149.9579  140.2853  154.2456 H   0  0  0  0  0  0  0  0  0  0  0  0
  147.8251  139.4293  153.9855 H   0  0  0  0  0  0  0  0  0  0  0  0
  146.4015  139.7634  155.8665 H   0  0  0  0  0  0  0  0  0  0  0  0
  148.0259  140.0473  156.4651 H   0  0  0  0  0  0  0  0  0  0  0  0
  145.7282  141.1323  157.8484 H   0  0  0  0  0  0  0  0  0  0  0  0
  147.1551  142.0827  158.2750 H   0  0  0  0  0  0  0  0  0  0  0  0
  144.4696  143.0523  157.8493 H   0  0  0  0  0  0  0  0  0  0  0  0
  145.8871  144.0714  158.0665 H   0  0  0  0  0  0  0  0  0  0  0  0
  144.4440  143.9794  155.6588 H   0  0  0  0  0  0  0  0  0  0  0  0
  146.1474  144.4269  155.7761 H   0  0  0  0  0  0  0  0  0  0  0  0
  144.9964  141.6659  155.2625 H   0  0  0  0  0  0  0  0  0  0  0  0
  145.7051  142.8270  153.1771 H   0  0  0  0  0  0  0  0  0  0  0  0
  147.2943  143.1331  153.8483 H   0  0  0  0  0  0  0  0  0  0  0  0
  149.8362  143.7177  156.7916 H   0  0  0  0  0  0  0  0  0  0  0  0
  150.9415  145.2858  158.1592 H   0  0  0  0  0  0  0  0  0  0  0  0
  152.3454  145.6733  160.1952 H   0  0  0  0  0  0  0  0  0  0  0  0
  153.3915  143.6951  161.3280 H   0  0  0  0  0  0  0  0  0  0  0  0
  151.7497  141.0537  158.6352 H   0  0  0  0  0  0  0  0  0  0  0  0
  147.6762  142.3841  156.1096 H   0  0  0  0  0  0  0  0  0  0  0  0
  1  2  2  0  0  0  0
  2  3  1  0  0  0  0
  2 14  1  0  0  0  0
  3  4  1  0  0  0  0
  3 21  1  0  0  0  0
  4  5  1  0  0  0  0
  4 22  1  0  0  0  0
  4 23  1  0  0  0  0
  5 13  1  0  0  0  0
  5  6  1  0  0  0  0
  5 24  1  0  0  0  0
  6  7  1  0  0  0  0
  6 25  1  0  0  0  0
  6 26  1  0  0  0  0
  7 11  1  0  0  0  0
  7  8  1  0  0  0  0
  7 41  1  0  0  0  0
  8  9  1  0  0  0  0
  8 27  1  0  0  0  0
  8 28  1  0  0  0  0
  9 10  1  0  0  0  0
  9 29  1  0  0  0  0
  9 30  1  0  0  0  0
 10 11  1  0  0  0  0
 10 31  1  0  0  0  0
 10 32  1  0  0  0  0
 11 12  1  0  0  0  0
 11 33  1  0  0  0  0
 12 13  1  0  0  0  0
 12 34  1  0  0  0  0
 12 35  1  0  0  0  0
 14 15  1  0  0  0  0
 14 36  1  0  0  0  0
 15 20  1  0  0  0  0
 15 16  2  0  0  0  0
 16 17  1  0  0  0  0
 16 37  1  0  0  0  0
 17 18  2  0  0  0  0
 17 38  1  0  0  0  0
 18 19  1  0  0  0  0
 18 39  1  0  0  0  0
 19 20  2  0  0  0  0
 20 40  1  0  0  0  0
M  CHG  1   7   1
M  END
> <s_m_source_file>
AV-unprocessed.smi

> <i_m_source_file_index>
618

> <i_lp_mmshare_version>
43012

> <i_f3d_flags>
0

> <s_epik_input>
W2NIXTFuW2NIXVtjSF1bY0hdYzFbTkhdQyg9TylbTkhdW0NIMl1bQ0BIXShbQ0gyXTIpT1tDSDJdW0NAQEhdKE4yMylbQ0gyXVtDSDJdW0NIMl0z

> <s_epik_cmdline>
J2VwaWtfcHl0aG9uJywgJy1waCcsICc3LjAnLCAnLXRuJywgJzgnLCAnLW1hJywgJzIwMCcsICctbWV0YWxfYmluZGluZycsICctaW1hZScsICc8aW5maWxlLm1hZT4nLCAnLW9tYWUnLCAnPG91dGZpbGUubWFlPic=

> <r_epik_Ionization_Penalty>
0.111044

> <r_epik_Ionization_Penalty_Charging>
0.10673

> <r_epik_Ionization_Penalty_Neutral>
0.00431361

> <r_epik_State_Penalty>
0.0978747

> <r_epik_Charging_Adjusted_Penalty>
0.204605

> <i_epik_Tot_Q>
1

> <i_epik_Tot_abs_Q>
1

> <r_epik_Metal_State_Penalty>
0.0947591

> <b_epik_Metal_Only>
0

> <s_lp_Force_Field>
OPLS_2005

> <r_lp_Energy>
41.905

> <b_lp_Chiralities_Consistent>
1

> <s_lp_Variant>
AV-unprocessed.smi:618-2

> <Gold.Version>
5.8.1

> <Gold.Id.Protein>
6NUR|6NUR_protein|mol2

> <Gold.PLP.Fitness>
40.9876

> <Gold.PLP.PLP>
-36.2168

> <Gold.PLP.part.hbond>
-2.0000

> <Gold.PLP.part.metal>
0.0000

> <Gold.PLP.part.buried>
-6.6377

> <Gold.PLP.part.nonpolar>
-27.7121

> <Gold.PLP.part.repulsive>
0.4189

> <Gold.PLP.ligand.clash>
0.0000

> <Gold.PLP.ligand.torsion>
0.5595

> <Gold.PLP.Chemscore.Hbond>
1.9600

> <Gold.PLP.Chemscore.CHOScore>
0.0000

> <Gold.PLP.Chemscore.Metal>
0.0000

> <Gold.Chemscore.Hbonds>
donor molecule, donor type, donor heavy atom, donor atom, acceptor molecule, acceptor atom, score
      L1  H     3    21       P1  8028  0.94
      L1  H    14    36       P1  8028  1.00

> <Gold.PLP.Chemscore.Internal.Correction>
0.0100

> <Gold.Rescore>
     Score         DG    S(hbond)    S(metal)    S(lipo)     H(rot)  DE(clash)    DE(int)     intcor
     16.00     -19.13       1.91        0.00      89.74       1.27       0.06       3.07       ----

> <Gold.Chemscore.Fitness>
16.0024

> <Gold.Chemscore.DG>
-19.1273

> <Gold.Chemscore.ZeroCoef>
-5.4800

> <Gold.Chemscore.Hbond>
1.9124

> <Gold.Chemscore.Metal>
0.0000

> <Gold.Chemscore.Lipo>
89.7415

> <Gold.Chemscore.Internal_Hbond>
0.0000

> <Gold.Chemscore.DEClash>
0.0591

> <Gold.Chemscore.DEInternal>
3.0658

> <Gold.Chemscore.Rot>
1.2656

> <Gold.Chemscore.Internal.Correction>
   9.000000E+99

> <Gold.Chemscore.Hbonds>
donor molecule, donor type, donor heavy atom, donor atom, acceptor molecule, acceptor atom, score
      L1  H     3    21       P1  8028  0.91
      L1  H    14    36       P1  8028  0.98

> <Gold.Chemscore.Hbond.Weighted>
-6.3874

> <Gold.Chemscore.Metal.Weighted>
-0.0000

> <Gold.Chemscore.Lipo.Weighted>
-10.4998

> <Gold.Chemscore.Internal_Hbond.Weighted>
0.0000

> <Gold.Chemscore.DEClash.Weighted>
0.0591

> <Gold.Chemscore.DEInternal.Weighted>
3.0658

> <Gold.Chemscore.Rot.Weighted>
3.2399

> <Gold.Chemscore.Internal.Correction.Weighted>
   9.000000E+99

> <Gold.Protein.RotatedTorsions>
[ 6907 6896 6895 6894 ] final  111.95 input  -60.11 | X-H torsion
[ 7974 7965 7964 7962 ] final  123.80 input  175.53 | X-H torsion
[ 8008 7997 7996 7995 ] final -120.46 input   59.86 | X-H torsion
[ 10167 10162 10161 10158 ] final   68.20 input  -65.29 | X-H torsion
[ 10718 10713 10712 10709 ] final -169.01 input   66.30 | X-H torsion
[ 10763 10752 10751 10750 ] final -166.19 input  -60.55 | X-H torsion
[ 11005 11000 10999 10996 ] final  144.23 input  -57.11 | X-H torsion

> <Gold.Protein.ActiveResidues>
 VAL166  LYS551  ARG553  GLY616  TRP617  ASP618  TYR619  PRO620  LYS621  CYS622 
 ASP623  PHE694  ASN695  SER759  ASP760  ASP761  ALA762  ILE779  LEU786  VAL792 
 PHE793  MET794  SER795  GLU796  ALA797  LYS798  CYS799  TRP800  GLU811  SER814 

> <Gold.Protein.RotatedAtoms>
  152.4942  133.8585  159.7237 H   0  0  0  0  0  0  0  0  0  0  0  0  # atno 6907 bound_to 6896
  150.9103  133.6997  159.2863 H   0  0  0  0  0  0  0  0  0  0  0  0  # atno 6908 bound_to 6896
  151.4409  135.1024  159.9722 H   0  0  0  0  0  0  0  0  0  0  0  0  # atno 6909 bound_to 6896
  145.0918  139.3581  143.4857 H   0  0  0  0  0  0  0  0  0  0  0  0  # atno 7974 bound_to 7965
  155.1322  140.0400  157.2777 H   0  0  0  0  0  0  0  0  0  0  0  0  # atno 8008 bound_to 7997
  154.6534  140.2574  155.7162 H   0  0  0  0  0  0  0  0  0  0  0  0  # atno 8009 bound_to 7997
  156.2587  140.2831  156.0977 H   0  0  0  0  0  0  0  0  0  0  0  0  # atno 8010 bound_to 7997
  140.0812  144.5069  150.7161 H   0  0  0  0  0  0  0  0  0  0  0  0  # atno 10167 bound_to 10162
  156.7053  130.9212  151.3084 H   0  0  0  0  0  0  0  0  0  0  0  0  # atno 10718 bound_to 10713
  154.6858  135.2962  154.9549 H   0  0  0  0  0  0  0  0  0  0  0  0  # atno 10763 bound_to 10752
  154.0529  135.6642  153.4806 H   0  0  0  0  0  0  0  0  0  0  0  0  # atno 10764 bound_to 10752
  153.0578  135.5134  154.7924 H   0  0  0  0  0  0  0  0  0  0  0  0  # atno 10765 bound_to 10752
  140.0616  134.9201  157.1194 H   0  0  0  0  0  0  0  0  0  0  0  0  # atno 11005 bound_to 11000
  146.3531  140.0755  142.8620 LP  0  0  0  0  0  0  0  0  0  0  0  0  # atno 17320 bound_to 7965
  145.1057  140.9374  143.4686 LP  0  0  0  0  0  0  0  0  0  0  0  0  # atno 17321 bound_to 7965
  140.7077  143.2480  151.4678 LP  0  0  0  0  0  0  0  0  0  0  0  0  # atno 17342 bound_to 10162
  139.5778  144.1778  152.1927 LP  0  0  0  0  0  0  0  0  0  0  0  0  # atno 17343 bound_to 10162
  157.6957  130.9279  150.0638 LP  0  0  0  0  0  0  0  0  0  0  0  0  # atno 17370 bound_to 10713
  156.1699  130.3646  149.9179 LP  0  0  0  0  0  0  0  0  0  0  0  0  # atno 17371 bound_to 10713
  140.3761  134.2337  155.7174 LP  0  0  0  0  0  0  0  0  0  0  0  0  # atno 17394 bound_to 11000
  141.1975  133.8057  157.0623 LP  0  0  0  0  0  0  0  0  0  0  0  0  # atno 17395 bound_to 11000

$$$$
