AV-unprocessed.smi:3347|AV-procd|sdf|12912|dock2
  -GOLD-   2272019323D 1   1.00000     0.00000
 Structure written by MMmdl.
 40 42  0  0  0  0  0  0  0  0  2 V2000
  150.8484  134.7651  155.8813 O   0  0  0  0  0  0  0  0  0  0  0  0
  150.2424  135.1408  154.8785 C   0  0  0  0  0  0  0  0  0  0  0  0
  149.5164  134.3197  154.1064 N   0  0  0  0  0  0  0  0  0  0  0  0
  149.3081  132.8969  154.3574 C   0  0  0  0  0  0  0  0  0  0  0  0
  148.4670  132.2203  153.2572 C   0  0  1  0  0  0  0  0  0  0  0  0
  147.8963  130.8637  153.6596 C   0  0  0  0  0  0  0  0  0  0  0  0
  146.7756  130.6622  152.6431 C   0  0  0  0  0  0  0  0  0  0  0  0
  146.2080  132.0076  152.4074 N   0  3  2  0  0  0  0  0  0  0  0  0
  145.6876  132.2044  151.0377 C   0  0  0  0  0  0  0  0  0  0  0  0
  144.5454  133.1892  150.9619 C   0  0  0  0  0  0  0  0  0  0  0  0
  144.2753  131.7042  150.8508 C   0  0  0  0  0  0  0  0  0  0  0  0
  147.2228  133.0068  152.8187 C   0  0  0  0  0  0  0  0  0  0  0  0
  150.2276  136.3968  154.3993 N   0  0  0  0  0  0  0  0  0  0  0  0
  150.8474  137.5614  154.9295 C   0  0  0  0  0  0  0  0  0  0  0  0
  151.5941  137.5967  156.1328 C   0  0  0  0  0  0  0  0  0  0  0  0
  152.1419  138.8225  156.5574 C   0  0  0  0  0  0  0  0  0  0  0  0
  151.9188  139.9685  155.7700 C   0  0  0  0  0  0  0  0  0  0  0  0
  151.2000  139.9525  154.6279 N   0  0  0  0  0  0  0  0  0  0  0  0
  150.6774  138.7739  154.2275 C   0  0  0  0  0  0  0  0  0  0  0  0
  149.0521  134.7130  153.3005 H   0  0  0  0  0  0  0  0  0  0  0  0
  150.2733  132.3968  154.4552 H   0  0  0  0  0  0  0  0  0  0  0  0
  148.8116  132.7964  155.3228 H   0  0  0  0  0  0  0  0  0  0  0  0
  149.0916  132.0613  152.3762 H   0  0  0  0  0  0  0  0  0  0  0  0
  148.6391  130.0658  153.6330 H   0  0  0  0  0  0  0  0  0  0  0  0
  147.4818  130.9075  154.6681 H   0  0  0  0  0  0  0  0  0  0  0  0
  147.1953  130.2686  151.7156 H   0  0  0  0  0  0  0  0  0  0  0  0
  146.0145  129.9625  152.9895 H   0  0  0  0  0  0  0  0  0  0  0  0
  146.4122  132.1352  150.2280 H   0  0  0  0  0  0  0  0  0  0  0  0
  144.2346  133.6897  151.8773 H   0  0  0  0  0  0  0  0  0  0  0  0
  144.4527  133.7817  150.0540 H   0  0  0  0  0  0  0  0  0  0  0  0
  144.0052  131.3189  149.8696 H   0  0  0  0  0  0  0  0  0  0  0  0
  143.7849  131.2181  151.6923 H   0  0  0  0  0  0  0  0  0  0  0  0
  146.8097  133.5769  153.6515 H   0  0  0  0  0  0  0  0  0  0  0  0
  147.4610  133.7154  152.0235 H   0  0  0  0  0  0  0  0  0  0  0  0
  149.7409  136.5313  153.5251 H   0  0  0  0  0  0  0  0  0  0  0  0
  151.7471  136.7212  156.7440 H   0  0  0  0  0  0  0  0  0  0  0  0
  152.7165  138.8833  157.4697 H   0  0  0  0  0  0  0  0  0  0  0  0
  152.3238  140.9241  156.0682 H   0  0  0  0  0  0  0  0  0  0  0  0
  150.1057  138.8005  153.3110 H   0  0  0  0  0  0  0  0  0  0  0  0
  145.4308  132.1135  153.0440 H   0  0  0  0  0  0  0  0  0  0  0  0
  1  2  2  0  0  0  0
  2  3  1  0  0  0  0
  2 13  1  0  0  0  0
  3  4  1  0  0  0  0
  3 20  1  0  0  0  0
  4  5  1  0  0  0  0
  4 21  1  0  0  0  0
  4 22  1  0  0  0  0
  5 12  1  0  0  0  0
  5  6  1  0  0  0  0
  5 23  1  0  0  0  0
  6  7  1  0  0  0  0
  6 24  1  0  0  0  0
  6 25  1  0  0  0  0
  7  8  1  0  0  0  0
  7 26  1  0  0  0  0
  7 27  1  0  0  0  0
  8  9  1  0  0  0  0
  8 12  1  0  0  0  0
  8 40  1  0  0  0  0
  9 11  1  0  0  0  0
  9 10  1  0  0  0  0
  9 28  1  0  0  0  0
 10 11  1  0  0  0  0
 10 29  1  0  0  0  0
 10 30  1  0  0  0  0
 11 31  1  0  0  0  0
 11 32  1  0  0  0  0
 12 33  1  0  0  0  0
 12 34  1  0  0  0  0
 13 14  1  0  0  0  0
 13 35  1  0  0  0  0
 14 19  1  0  0  0  0
 14 15  2  0  0  0  0
 15 16  1  0  0  0  0
 15 36  1  0  0  0  0
 16 17  2  0  0  0  0
 16 37  1  0  0  0  0
 17 18  1  0  0  0  0
 17 38  1  0  0  0  0
 18 19  2  0  0  0  0
 19 39  1  0  0  0  0
M  CHG  1   8   1
M  END
> <s_m_source_file>
AV-unprocessed.smi

> <i_m_source_file_index>
3347

> <i_lp_mmshare_version>
43012

> <i_f3d_flags>
0

> <s_epik_input>
W2NIXTFuW2NIXVtjSF1bY0hdYzFbTkhdQyg9TylbTkhdW0NIMl1bQ0BASF0yW0NIMl1bQ0gyXU4oW0NIMl0yKVtDSF0zW0NIMl1bQ0gyXTM=

> <s_epik_cmdline>
J2VwaWtfcHl0aG9uJywgJy1waCcsICc3LjAnLCAnLXRuJywgJzgnLCAnLW1hJywgJzIwMCcsICctbWV0YWxfYmluZGluZycsICctaW1hZScsICc8aW5maWxlLm1hZT4nLCAnLW9tYWUnLCAnPG91dGZpbGUubWFlPic=

> <r_epik_Ionization_Penalty>
0.00442629

> <r_epik_Ionization_Penalty_Charging>
0.000203384

> <r_epik_Ionization_Penalty_Neutral>
0.00422291

> <r_epik_State_Penalty>
0.00301008

> <r_epik_Charging_Adjusted_Penalty>
0.00321347

> <i_epik_Tot_Q>
1

> <i_epik_Tot_abs_Q>
1

> <r_epik_Metal_State_Penalty>
-0

> <b_epik_Metal_Only>
0

> <s_lp_Force_Field>
OPLS_2005

> <r_lp_Energy>
41.3797

> <b_lp_Chiralities_Consistent>
1

> <s_lp_Variant>
AV-unprocessed.smi:3347-2

> <Gold.Version>
5.8.1

> <Gold.Id.Protein>
6NUR|6NUR_protein|mol2

> <Gold.PLP.Fitness>
47.4183

> <Gold.PLP.PLP>
-36.4827

> <Gold.PLP.part.hbond>
-3.8389

> <Gold.PLP.part.metal>
0.0000

> <Gold.PLP.part.buried>
-4.7483

> <Gold.PLP.part.nonpolar>
-28.2656

> <Gold.PLP.part.repulsive>
0.2102

> <Gold.PLP.ligand.clash>
0.0000

> <Gold.PLP.ligand.torsion>
0.7507

> <Gold.PLP.Chemscore.Hbond>
2.7256

> <Gold.PLP.Chemscore.CHOScore>
1.0000

> <Gold.PLP.Chemscore.Metal>
0.0000

> <Gold.Chemscore.Hbonds>
donor molecule, donor type, donor heavy atom, donor atom, acceptor molecule, acceptor atom, score
      L1  H     3    20       P1  7948  0.69
      L1  H    13    35       P1  7948  1.00
      P1  H  7989  7998       L1    18  0.96
      L1  C    19    39       P1  7957  1.00

> <Gold.PLP.Chemscore.Internal.Correction>
1.2603

> <Gold.Rescore>
     Score         DG    S(hbond)    S(metal)    S(lipo)     H(rot)  DE(clash)    DE(int)     intcor
     16.54     -18.49       1.99        0.00      85.57       1.42       0.02       1.93       ----

> <Gold.Chemscore.Fitness>
16.5410

> <Gold.Chemscore.DG>
-18.4884

> <Gold.Chemscore.ZeroCoef>
-5.4800

> <Gold.Chemscore.Hbond>
1.9869

> <Gold.Chemscore.Metal>
0.0000

> <Gold.Chemscore.Lipo>
85.5747

> <Gold.Chemscore.Internal_Hbond>
0.0000

> <Gold.Chemscore.DEClash>
0.0202

> <Gold.Chemscore.DEInternal>
1.9272

> <Gold.Chemscore.Rot>
1.4219

> <Gold.Chemscore.Internal.Correction>
   9.000000E+99

> <Gold.Chemscore.Hbonds>
donor molecule, donor type, donor heavy atom, donor atom, acceptor molecule, acceptor atom, score
      L1  H     3    20       P1  7948  0.08
      L1  H    13    35       P1  7948  0.40
      P1  H  7989  7998       L1    18  0.79

> <Gold.Chemscore.Hbond.Weighted>
-6.6363

> <Gold.Chemscore.Metal.Weighted>
-0.0000

> <Gold.Chemscore.Lipo.Weighted>
-10.0122

> <Gold.Chemscore.Internal_Hbond.Weighted>
0.0000

> <Gold.Chemscore.DEClash.Weighted>
0.0202

> <Gold.Chemscore.DEInternal.Weighted>
1.9272

> <Gold.Chemscore.Rot.Weighted>
3.6401

> <Gold.Chemscore.Internal.Correction.Weighted>
   9.000000E+99

> <Gold.Protein.RotatedTorsions>
[ 6907 6896 6895 6894 ] final   -3.62 input  -60.11 | X-H torsion
[ 7974 7965 7964 7962 ] final  -97.80 input  175.53 | X-H torsion
[ 8008 7997 7996 7995 ] final -132.12 input   59.86 | X-H torsion
[ 10167 10162 10161 10158 ] final  -63.47 input  -65.29 | X-H torsion
[ 10718 10713 10712 10709 ] final   82.82 input   66.30 | X-H torsion
[ 10763 10752 10751 10750 ] final   87.65 input  -60.55 | X-H torsion
[ 11005 11000 10999 10996 ] final   19.51 input  -57.11 | X-H torsion

> <Gold.Protein.ActiveResidues>
 VAL166  LYS551  ARG553  GLY616  TRP617  ASP618  TYR619  PRO620  LYS621  CYS622 
 ASP623  PHE694  ASN695  SER759  ASP760  ASP761  ALA762  ILE779  LEU786  VAL792 
 PHE793  MET794  SER795  GLU796  ALA797  LYS798  CYS799  TRP800  GLU811  SER814 

> <Gold.Protein.RotatedAtoms>
  151.5109  135.1065  159.9853 H   0  0  0  0  0  0  0  0  0  0  0  0  # atno 6907 bound_to 6896
  152.4662  133.7924  159.6920 H   0  0  0  0  0  0  0  0  0  0  0  0  # atno 6908 bound_to 6896
  150.8647  133.7528  159.3006 H   0  0  0  0  0  0  0  0  0  0  0  0  # atno 6909 bound_to 6896
  145.3289  140.9437  143.2673 H   0  0  0  0  0  0  0  0  0  0  0  0  # atno 7974 bound_to 7965
  155.3236  140.0463  157.3040 H   0  0  0  0  0  0  0  0  0  0  0  0  # atno 8008 bound_to 7997
  154.5367  140.2274  155.8677 H   0  0  0  0  0  0  0  0  0  0  0  0  # atno 8009 bound_to 7997
  156.1841  140.3067  155.9211 H   0  0  0  0  0  0  0  0  0  0  0  0  # atno 8010 bound_to 7997
  140.5868  143.2335  151.6225 H   0  0  0  0  0  0  0  0  0  0  0  0  # atno 10167 bound_to 10162
  157.6866  131.0064  150.2432 H   0  0  0  0  0  0  0  0  0  0  0  0  # atno 10718 bound_to 10713
  153.1690  135.4535  154.9876 H   0  0  0  0  0  0  0  0  0  0  0  0  # atno 10763 bound_to 10752
  154.7952  135.3235  154.7686 H   0  0  0  0  0  0  0  0  0  0  0  0  # atno 10764 bound_to 10752
  153.8164  135.6950  153.4888 H   0  0  0  0  0  0  0  0  0  0  0  0  # atno 10765 bound_to 10752
  140.4128  134.1600  155.7668 H   0  0  0  0  0  0  0  0  0  0  0  0  # atno 11005 bound_to 11000
  144.8879  139.4814  143.6691 LP  0  0  0  0  0  0  0  0  0  0  0  0  # atno 17320 bound_to 7965
  146.3053  139.7560  142.9061 LP  0  0  0  0  0  0  0  0  0  0  0  0  # atno 17321 bound_to 7965
  139.5203  144.3228  152.0895 LP  0  0  0  0  0  0  0  0  0  0  0  0  # atno 17342 bound_to 10162
  140.2386  144.4293  150.6269 LP  0  0  0  0  0  0  0  0  0  0  0  0  # atno 17343 bound_to 10162
  156.3042  130.3763  149.7721 LP  0  0  0  0  0  0  0  0  0  0  0  0  # atno 17370 bound_to 10713
  156.5342  130.8271  151.3247 LP  0  0  0  0  0  0  0  0  0  0  0  0  # atno 17371 bound_to 10713
  141.1814  133.8405  157.1243 LP  0  0  0  0  0  0  0  0  0  0  0  0  # atno 17394 bound_to 11000
  140.0255  134.9926  157.0677 LP  0  0  0  0  0  0  0  0  0  0  0  0  # atno 17395 bound_to 11000

$$$$
