AV-unprocessed.smi:362|AV-procd|sdf|2421|dock7
  -GOLD-   2262022363D 1   1.00000     0.00000
 Structure written by MMmdl.
 36 38  0  0  0  0  0  0  0  0  1 V2000
  145.5423  138.0297  154.6334 O   0  0  0  0  0  0  0  0  0  0  0  0
  146.2935  137.6022  153.7560 C   0  0  0  0  0  0  0  0  0  0  0  0
  145.8049  136.5497  152.7508 C   0  0  0  0  0  0  0  0  0  0  0  0
  144.4179  136.1254  152.9918 N   0  0  0  0  0  0  0  0  0  0  0  0
  143.3620  136.9699  152.6791 C   0  0  0  0  0  0  0  0  0  0  0  0
  142.0631  136.6467  152.8841 C   0  0  0  0  0  0  0  0  0  0  0  0
  141.7054  135.3557  153.4619 C   0  0  0  0  0  0  0  0  0  0  0  0
  140.5596  134.9711  153.6844 O   0  0  0  0  0  0  0  0  0  0  0  0
  142.7953  134.5356  153.7650 N   0  0  0  0  0  0  0  0  0  0  0  0
  144.1361  134.8629  153.5575 C   0  0  0  0  0  0  0  0  0  0  0  0
  145.0219  134.0659  153.8647 O   0  0  0  0  0  0  0  0  0  0  0  0
  147.5576  138.0238  153.5977 N   0  0  0  0  0  0  0  0  0  0  0  0
  148.2370  139.0147  154.4256 C   0  0  0  0  0  0  0  0  0  0  0  0
  148.3781  140.3575  153.7275 C   0  0  0  0  0  0  0  0  0  0  0  0
  148.4940  141.6430  154.5125 C   0  0  0  0  0  0  0  0  0  0  0  0
  147.2468  141.3584  153.7077 C   0  0  0  0  0  0  0  0  0  0  0  0
  149.5935  138.5142  154.8877 C   0  0  0  0  0  0  0  0  0  0  0  0
  150.7761  139.4482  154.9829 C   0  0  0  0  0  0  0  0  0  0  0  0
  150.7503  138.3652  153.9278 C   0  0  0  0  0  0  0  0  0  0  0  0
  142.5967  133.6323  154.1700 H   0  0  0  0  0  0  0  0  0  0  0  0
  145.9045  136.9686  151.7486 H   0  0  0  0  0  0  0  0  0  0  0  0
  146.4689  135.6829  152.7677 H   0  0  0  0  0  0  0  0  0  0  0  0
  143.5798  137.9390  152.2530 H   0  0  0  0  0  0  0  0  0  0  0  0
  141.2845  137.3479  152.6205 H   0  0  0  0  0  0  0  0  0  0  0  0
  148.0959  137.6201  152.8449 H   0  0  0  0  0  0  0  0  0  0  0  0
  147.6386  139.1746  155.3250 H   0  0  0  0  0  0  0  0  0  0  0  0
  148.9792  140.3101  152.8211 H   0  0  0  0  0  0  0  0  0  0  0  0
  148.4078  141.5917  155.5959 H   0  0  0  0  0  0  0  0  0  0  0  0
  149.1762  142.4016  154.1345 H   0  0  0  0  0  0  0  0  0  0  0  0
  147.0963  141.9264  152.7921 H   0  0  0  0  0  0  0  0  0  0  0  0
  146.3411  141.1157  154.2600 H   0  0  0  0  0  0  0  0  0  0  0  0
  149.5312  137.7557  155.6661 H   0  0  0  0  0  0  0  0  0  0  0  0
  150.6389  140.4757  154.6511 H   0  0  0  0  0  0  0  0  0  0  0  0
  151.4533  139.3163  155.8243 H   0  0  0  0  0  0  0  0  0  0  0  0
  151.4101  137.5113  154.0664 H   0  0  0  0  0  0  0  0  0  0  0  0
  150.6037  138.6786  152.8962 H   0  0  0  0  0  0  0  0  0  0  0  0
  1  2  2  0  0  0  0
  2  3  1  0  0  0  0
  2 12  1  0  0  0  0
  3  4  1  0  0  0  0
  3 21  1  0  0  0  0
  3 22  1  0  0  0  0
  4 10  1  0  0  0  0
  4  5  1  0  0  0  0
  5  6  2  0  0  0  0
  5 23  1  0  0  0  0
  6  7  1  0  0  0  0
  6 24  1  0  0  0  0
  7  8  2  0  0  0  0
  7  9  1  0  0  0  0
  9 20  1  0  0  0  0
  9 10  1  0  0  0  0
 10 11  2  0  0  0  0
 12 13  1  0  0  0  0
 12 25  1  0  0  0  0
 13 14  1  0  0  0  0
 13 17  1  0  0  0  0
 13 26  1  0  0  0  0
 14 16  1  0  0  0  0
 14 15  1  0  0  0  0
 14 27  1  0  0  0  0
 15 16  1  0  0  0  0
 15 28  1  0  0  0  0
 15 29  1  0  0  0  0
 16 30  1  0  0  0  0
 16 31  1  0  0  0  0
 17 19  1  0  0  0  0
 17 18  1  0  0  0  0
 17 32  1  0  0  0  0
 18 19  1  0  0  0  0
 18 33  1  0  0  0  0
 18 34  1  0  0  0  0
 19 35  1  0  0  0  0
 19 36  1  0  0  0  0
M  END
> <s_m_source_file>
AV-unprocessed.smi

> <i_m_source_file_index>
362

> <i_lp_mmshare_version>
43012

> <i_f3d_flags>
0

> <s_epik_input>
W0NIMl0xW0NIMl1bQ0hdMVtDSF0oW0NIXTJbQ0gyXVtDSDJdMilbTkhdQyg9TylbQ0gyXW4zW2NIXVtjSF1jKD1PKVtuSF1jMz1P

> <s_epik_cmdline>
J2VwaWtfcHl0aG9uJywgJy1waCcsICc3LjAnLCAnLXRuJywgJzgnLCAnLW1hJywgJzIwMCcsICctbWV0YWxfYmluZGluZycsICctaW1hZScsICc8aW5maWxlLm1hZT4nLCAnLW9tYWUnLCAnPG91dGZpbGUubWFlPic=

> <r_lp_tautomer_probability>
0.999537

> <r_epik_Ionization_Penalty>
0.00315598

> <r_epik_Ionization_Penalty_Charging>
0.00315596

> <r_epik_Ionization_Penalty_Neutral>
2.04126e-08

> <r_epik_State_Penalty>
0.00222351

> <r_epik_Charging_Adjusted_Penalty>
0.00537947

> <i_epik_Tot_Q>
0

> <i_epik_Tot_abs_Q>
0

> <r_epik_Metal_State_Penalty>
0.363464

> <b_epik_Metal_Only>
0

> <s_lp_Force_Field>
OPLS_2005

> <r_lp_Energy>
23.1626

> <b_lp_Chiralities_Consistent>
1

> <s_lp_Variant>
AV-unprocessed.smi:362-1

> <Gold.Version>
5.8.1

> <Gold.Id.Protein>
6NUR|6NUR_protein|mol2

> <Gold.PLP.Fitness>
43.1231

> <Gold.PLP.PLP>
-29.1390

> <Gold.PLP.part.hbond>
-4.0000

> <Gold.PLP.part.metal>
0.0000

> <Gold.PLP.part.buried>
-2.1297

> <Gold.PLP.part.nonpolar>
-22.1084

> <Gold.PLP.part.repulsive>
0.3949

> <Gold.PLP.ligand.clash>
0.0000

> <Gold.PLP.ligand.torsion>
1.4348

> <Gold.PLP.Chemscore.Hbond>
2.9750

> <Gold.PLP.Chemscore.CHOScore>
1.9375

> <Gold.PLP.Chemscore.Metal>
0.0000

> <Gold.Chemscore.Hbonds>
donor molecule, donor type, donor heavy atom, donor atom, acceptor molecule, acceptor atom, score
      L1  H     9    20       P1 10957  1.00
      L1  H    12    25       P1  7948  1.00
      P1  H 11000 11005       L1     8  0.70
      L1  C     5    23       P1 10171  0.99
      L1  C     5    23       P1 10175  1.00

> <Gold.PLP.Chemscore.Internal.Correction>
2.1160

> <Gold.Rescore>
     Score         DG    S(hbond)    S(metal)    S(lipo)     H(rot)  DE(clash)    DE(int)     intcor
     14.51     -16.83       2.91        0.00      60.88       2.15       0.82       1.50       ----

> <Gold.Chemscore.Fitness>
14.5059

> <Gold.Chemscore.DG>
-16.8320

> <Gold.Chemscore.ZeroCoef>
-5.4800

> <Gold.Chemscore.Hbond>
2.9139

> <Gold.Chemscore.Metal>
0.0000

> <Gold.Chemscore.Lipo>
60.8849

> <Gold.Chemscore.Internal_Hbond>
0.0000

> <Gold.Chemscore.DEClash>
0.8224

> <Gold.Chemscore.DEInternal>
1.5036

> <Gold.Chemscore.Rot>
2.1500

> <Gold.Chemscore.Internal.Correction>
   9.000000E+99

> <Gold.Chemscore.Hbonds>
donor molecule, donor type, donor heavy atom, donor atom, acceptor molecule, acceptor atom, score
      L1  H     9    20       P1 10957  0.99
      L1  H    12    25       P1  7948  0.99
      P1  H 11000 11005       L1     8  0.59

> <Gold.Chemscore.Hbond.Weighted>
-9.7324

> <Gold.Chemscore.Metal.Weighted>
-0.0000

> <Gold.Chemscore.Lipo.Weighted>
-7.1235

> <Gold.Chemscore.Internal_Hbond.Weighted>
0.0000

> <Gold.Chemscore.DEClash.Weighted>
0.8224

> <Gold.Chemscore.DEInternal.Weighted>
1.5036

> <Gold.Chemscore.Rot.Weighted>
5.5040

> <Gold.Chemscore.Internal.Correction.Weighted>
   9.000000E+99

> <Gold.Protein.RotatedTorsions>
[ 6907 6896 6895 6894 ] final   35.46 input  -60.11 | X-H torsion
[ 7974 7965 7964 7962 ] final  109.39 input  175.53 | X-H torsion
[ 8008 7997 7996 7995 ] final -154.26 input   59.86 | X-H torsion
[ 10167 10162 10161 10158 ] final -106.04 input  -65.29 | X-H torsion
[ 10718 10713 10712 10709 ] final  -82.64 input   66.30 | X-H torsion
[ 10763 10752 10751 10750 ] final   74.54 input  -60.55 | X-H torsion
[ 11005 11000 10999 10996 ] final   35.29 input  -57.11 | X-H torsion

> <Gold.Protein.ActiveResidues>
 VAL166  LYS551  ARG553  GLY616  TRP617  ASP618  TYR619  PRO620  LYS621  CYS622 
 ASP623  PHE694  ASN695  SER759  ASP760  ASP761  ALA762  ILE779  LEU786  VAL792 
 PHE793  MET794  SER795  GLU796  ALA797  LYS798  CYS799  TRP800  GLU811  SER814 

> <Gold.Protein.RotatedAtoms>
  152.1164  134.9237  160.0564 H   0  0  0  0  0  0  0  0  0  0  0  0  # atno 6907 bound_to 6896
  152.0395  133.3966  159.4339 H   0  0  0  0  0  0  0  0  0  0  0  0  # atno 6908 bound_to 6896
  150.6846  134.3352  159.4888 H   0  0  0  0  0  0  0  0  0  0  0  0  # atno 6909 bound_to 6896
  145.2684  139.2676  143.3979 H   0  0  0  0  0  0  0  0  0  0  0  0  # atno 7974 bound_to 7965
  155.6835  140.0747  157.2475 H   0  0  0  0  0  0  0  0  0  0  0  0  # atno 8008 bound_to 7997
  154.4101  140.1677  156.2061 H   0  0  0  0  0  0  0  0  0  0  0  0  # atno 8009 bound_to 7997
  155.9514  140.3377  155.6414 H   0  0  0  0  0  0  0  0  0  0  0  0  # atno 8010 bound_to 7997
  140.1921  143.3884  152.1198 H   0  0  0  0  0  0  0  0  0  0  0  0  # atno 10167 bound_to 10162
  156.0030  130.4640  150.4136 H   0  0  0  0  0  0  0  0  0  0  0  0  # atno 10718 bound_to 10713
  153.0594  135.5022  154.8058 H   0  0  0  0  0  0  0  0  0  0  0  0  # atno 10763 bound_to 10752
  154.6859  135.2976  154.9551 H   0  0  0  0  0  0  0  0  0  0  0  0  # atno 10764 bound_to 10752
  154.0322  135.6728  153.4834 H   0  0  0  0  0  0  0  0  0  0  0  0  # atno 10765 bound_to 10752
  140.2442  134.3379  155.7914 H   0  0  0  0  0  0  0  0  0  0  0  0  # atno 11005 bound_to 11000
  146.3254  140.3121  142.8627 LP  0  0  0  0  0  0  0  0  0  0  0  0  # atno 17320 bound_to 7965
  144.9356  140.8023  143.5662 LP  0  0  0  0  0  0  0  0  0  0  0  0  # atno 17321 bound_to 7965
  139.5252  144.7092  151.5258 LP  0  0  0  0  0  0  0  0  0  0  0  0  # atno 17342 bound_to 10162
  140.6449  143.8815  150.6727 LP  0  0  0  0  0  0  0  0  0  0  0  0  # atno 17343 bound_to 10162
  157.2197  131.0479  151.2553 LP  0  0  0  0  0  0  0  0  0  0  0  0  # atno 17370 bound_to 10713
  157.3812  130.7232  149.6631 LP  0  0  0  0  0  0  0  0  0  0  0  0  # atno 17371 bound_to 10713
  141.2208  133.7316  156.8933 LP  0  0  0  0  0  0  0  0  0  0  0  0  # atno 17394 bound_to 11000
  140.1623  134.9157  157.2730 LP  0  0  0  0  0  0  0  0  0  0  0  0  # atno 17395 bound_to 11000

$$$$
