AV-unprocessed.smi:2772|AV-procd|sdf|10666|dock6
  -GOLD-   2272015113D 1   1.00000     0.00000
 Structure written by MMmdl.
 55 57  0  0  0  0  0  0  0  0  3 V2000
  152.5798  142.2973  160.0543 C   0  0  0  0  0  0  0  0  0  0  0  0
  151.8445  141.8881  158.7951 C   0  0  0  0  0  0  0  0  0  0  0  0
  151.3764  140.5691  158.6236 C   0  0  0  0  0  0  0  0  0  0  0  0
  150.6948  140.2492  157.4337 C   0  0  0  0  0  0  0  0  0  0  0  0
  150.5135  141.2482  156.4553 C   0  0  0  0  0  0  0  0  0  0  0  0
  149.7990  140.9107  155.2741 N   0  0  0  0  0  0  0  0  0  0  0  0
  148.7018  140.1425  155.1603 C   0  0  0  0  0  0  0  0  0  0  0  0
  148.0723  139.6641  156.1034 O   0  0  0  0  0  0  0  0  0  0  0  0
  148.3540  139.9770  153.8753 N   0  0  0  0  0  0  0  0  0  0  0  0
  147.2073  139.2057  153.3998 C   0  0  2  0  0  0  0  0  0  0  0  0
  147.1425  137.8513  154.1108 C   0  0  0  0  0  0  0  0  0  0  0  0
  145.9727  137.0045  153.5823 C   0  0  0  0  0  0  0  0  0  0  0  0
  146.0395  136.7922  152.1045 N   0  3  1  0  0  0  0  0  0  0  0  0
  144.9350  135.9148  151.5798 C   0  0  2  0  0  0  0  0  0  0  0  0
  144.3225  134.9692  152.6441 C   0  0  0  0  0  0  0  0  0  0  0  0
  145.3188  133.8819  153.0876 C   0  0  0  0  0  0  0  0  0  0  0  0
  145.7766  133.0761  151.9279 N   0  3  2  0  0  0  0  0  0  0  0  0
  146.6710  131.9680  152.3264 C   0  0  0  0  0  0  0  0  0  0  0  0
  146.3585  133.9164  150.8514 C   0  0  0  0  0  0  0  0  0  0  0  0
  145.3644  135.0034  150.4025 C   0  0  0  0  0  0  0  0  0  0  0  0
  146.1418  138.1001  151.3885 C   0  0  0  0  0  0  0  0  0  0  0  0
  147.3136  138.9593  151.8922 C   0  0  0  0  0  0  0  0  0  0  0  0
  151.0156  142.5437  156.7333 C   0  0  0  0  0  0  0  0  0  0  0  0
  151.6678  142.8586  157.8731 N   0  0  0  0  0  0  0  0  0  0  0  0
  152.6604  141.4652  160.7542 H   0  0  0  0  0  0  0  0  0  0  0  0
  152.0523  143.1109  160.5532 H   0  0  0  0  0  0  0  0  0  0  0  0
  153.5869  142.6374  159.8118 H   0  0  0  0  0  0  0  0  0  0  0  0
  151.5311  139.8189  159.3851 H   0  0  0  0  0  0  0  0  0  0  0  0
  150.3204  139.2482  157.2766 H   0  0  0  0  0  0  0  0  0  0  0  0
  150.1458  141.3282  154.4230 H   0  0  0  0  0  0  0  0  0  0  0  0
  148.9317  140.4152  153.1724 H   0  0  0  0  0  0  0  0  0  0  0  0
  146.2775  139.7416  153.5999 H   0  0  0  0  0  0  0  0  0  0  0  0
  148.0785  137.3081  153.9706 H   0  0  0  0  0  0  0  0  0  0  0  0
  147.0297  138.0004  155.1855 H   0  0  0  0  0  0  0  0  0  0  0  0
  146.0162  136.0582  154.1162 H   0  0  0  0  0  0  0  0  0  0  0  0
  145.0226  137.4756  153.8398 H   0  0  0  0  0  0  0  0  0  0  0  0
  144.1457  136.5789  151.2239 H   0  0  0  0  0  0  0  0  0  0  0  0
  143.9212  135.5030  153.5032 H   0  0  0  0  0  0  0  0  0  0  0  0
  143.4513  134.4759  152.2102 H   0  0  0  0  0  0  0  0  0  0  0  0
  146.1776  134.3332  153.5871 H   0  0  0  0  0  0  0  0  0  0  0  0
  144.8395  133.2253  153.8148 H   0  0  0  0  0  0  0  0  0  0  0  0
  147.5978  132.3476  152.7586 H   0  0  0  0  0  0  0  0  0  0  0  0
  146.9231  131.3485  151.4651 H   0  0  0  0  0  0  0  0  0  0  0  0
  146.1859  131.3277  153.0639 H   0  0  0  0  0  0  0  0  0  0  0  0
  147.2882  134.3706  151.1978 H   0  0  0  0  0  0  0  0  0  0  0  0
  146.6138  133.2839  150.0001 H   0  0  0  0  0  0  0  0  0  0  0  0
  144.4770  134.5095  150.0037 H   0  0  0  0  0  0  0  0  0  0  0  0
  145.7573  135.5625  149.5559 H   0  0  0  0  0  0  0  0  0  0  0  0
  146.3067  137.9521  150.3239 H   0  0  0  0  0  0  0  0  0  0  0  0
  145.2038  138.6476  151.4946 H   0  0  0  0  0  0  0  0  0  0  0  0
  147.3255  139.9110  151.3590 H   0  0  0  0  0  0  0  0  0  0  0  0
  148.2567  138.4624  151.6586 H   0  0  0  0  0  0  0  0  0  0  0  0
  150.8791  143.3669  156.0495 H   0  0  0  0  0  0  0  0  0  0  0  0
  146.9066  136.3052  151.9288 H   0  0  0  0  0  0  0  0  0  0  0  0
  144.9506  132.6442  151.5374 H   0  0  0  0  0  0  0  0  0  0  0  0
  1  2  1  0  0  0  0
  1 25  1  0  0  0  0
  1 26  1  0  0  0  0
  1 27  1  0  0  0  0
  2 24  1  0  0  0  0
  2  3  2  0  0  0  0
  3  4  1  0  0  0  0
  3 28  1  0  0  0  0
  4  5  2  0  0  0  0
  4 29  1  0  0  0  0
  5  6  1  0  0  0  0
  5 23  1  0  0  0  0
  6  7  1  0  0  0  0
  6 30  1  0  0  0  0
  7  8  2  0  0  0  0
  7  9  1  0  0  0  0
  9 10  1  0  0  0  0
  9 31  1  0  0  0  0
 10 22  1  0  0  0  0
 10 11  1  0  0  0  0
 10 32  1  0  0  0  0
 11 12  1  0  0  0  0
 11 33  1  0  0  0  0
 11 34  1  0  0  0  0
 12 13  1  0  0  0  0
 12 35  1  0  0  0  0
 12 36  1  0  0  0  0
 13 14  1  0  0  0  0
 13 21  1  0  0  0  0
 13 54  1  0  0  0  0
 14 20  1  0  0  0  0
 14 15  1  0  0  0  0
 14 37  1  0  0  0  0
 15 16  1  0  0  0  0
 15 38  1  0  0  0  0
 15 39  1  0  0  0  0
 16 17  1  0  0  0  0
 16 40  1  0  0  0  0
 16 41  1  0  0  0  0
 17 18  1  0  0  0  0
 17 19  1  0  0  0  0
 17 55  1  0  0  0  0
 18 42  1  0  0  0  0
 18 43  1  0  0  0  0
 18 44  1  0  0  0  0
 19 20  1  0  0  0  0
 19 45  1  0  0  0  0
 19 46  1  0  0  0  0
 20 47  1  0  0  0  0
 20 48  1  0  0  0  0
 21 22  1  0  0  0  0
 21 49  1  0  0  0  0
 21 50  1  0  0  0  0
 22 51  1  0  0  0  0
 22 52  1  0  0  0  0
 23 24  2  0  0  0  0
 23 53  1  0  0  0  0
M  CHG  1  13   1
M  CHG  1  17   1
M  END
> <s_m_source_file>
AV-unprocessed.smi

> <i_m_source_file_index>
2772

> <i_lp_mmshare_version>
43012

> <i_f3d_flags>
0

> <s_epik_input>
W0NIM11jMVtjSF1bY0hdYyhbY0hdbjEpW05IXUMoPU8pW05IXVtDSF0yW0NIMl1bQ0gyXU4oW0NIMl1bQ0gyXTIpW0NIXTNbQ0gyXVtDSDJdTihbQ0gzXSlbQ0gyXVtDSDJdMw==

> <s_epik_cmdline>
J2VwaWtfcHl0aG9uJywgJy1waCcsICc3LjAnLCAnLXRuJywgJzgnLCAnLW1hJywgJzIwMCcsICctbWV0YWxfYmluZGluZycsICctaW1hZScsICc8aW5maWxlLm1hZT4nLCAnLW9tYWUnLCAnPG91dGZpbGUubWFlPic=

> <r_epik_Ionization_Penalty>
0.196786

> <r_epik_Ionization_Penalty_Charging>
0.180787

> <r_epik_Ionization_Penalty_Neutral>
0.0159988

> <r_epik_State_Penalty>
0.163322

> <r_epik_Charging_Adjusted_Penalty>
0.344109

> <i_epik_Tot_Q>
2

> <i_epik_Tot_abs_Q>
2

> <r_epik_Metal_State_Penalty>
0.163596

> <b_epik_Metal_Only>
0

> <s_lp_Force_Field>
OPLS_2005

> <r_lp_Energy>
49.2909

> <b_lp_Chiralities_Consistent>
1

> <s_lp_Variant>
AV-unprocessed.smi:2772-3

> <Gold.Version>
5.8.1

> <Gold.Id.Protein>
6NUR|6NUR_protein|mol2

> <Gold.PLP.Fitness>
40.2369

> <Gold.PLP.PLP>
-32.0153

> <Gold.PLP.part.hbond>
-2.0000

> <Gold.PLP.part.metal>
0.0000

> <Gold.PLP.part.buried>
5.1075

> <Gold.PLP.part.nonpolar>
-35.0382

> <Gold.PLP.part.repulsive>
0.3475

> <Gold.PLP.ligand.clash>
0.0000

> <Gold.PLP.ligand.torsion>
1.3248

> <Gold.PLP.Chemscore.Hbond>
2.6880

> <Gold.PLP.Chemscore.CHOScore>
0.9262

> <Gold.PLP.Chemscore.Metal>
0.0000

> <Gold.Chemscore.Hbonds>
donor molecule, donor type, donor heavy atom, donor atom, acceptor molecule, acceptor atom, score
      L1  H     9    31       P1  7957  0.54
      L1  H    13    54       P1  7948  2.00
      L1  C    23    53       P1  8028  0.99

> <Gold.PLP.Chemscore.Internal.Correction>
0.0285

> <Gold.Rescore>
     Score         DG    S(hbond)    S(metal)    S(lipo)     H(rot)  DE(clash)    DE(int)     intcor
     13.37     -20.16       1.53        0.00     108.35       1.21       3.16       3.63       ----

> <Gold.Chemscore.Fitness>
13.3716

> <Gold.Chemscore.DG>
-20.1628

> <Gold.Chemscore.ZeroCoef>
-5.4800

> <Gold.Chemscore.Hbond>
1.5272

> <Gold.Chemscore.Metal>
0.0000

> <Gold.Chemscore.Lipo>
108.3533

> <Gold.Chemscore.Internal_Hbond>
0.0000

> <Gold.Chemscore.DEClash>
3.1632

> <Gold.Chemscore.DEInternal>
3.6280

> <Gold.Chemscore.Rot>
1.2092

> <Gold.Chemscore.Internal.Correction>
   9.000000E+99

> <Gold.Chemscore.Hbonds>
donor molecule, donor type, donor heavy atom, donor atom, acceptor molecule, acceptor atom, score
      L1  H     9    31       P1  7957  0.53
      L1  H    13    54       P1  7948  0.90

> <Gold.Chemscore.Hbond.Weighted>
-5.1010

> <Gold.Chemscore.Metal.Weighted>
-0.0000

> <Gold.Chemscore.Lipo.Weighted>
-12.6773

> <Gold.Chemscore.Internal_Hbond.Weighted>
0.0000

> <Gold.Chemscore.DEClash.Weighted>
3.1632

> <Gold.Chemscore.DEInternal.Weighted>
3.6280

> <Gold.Chemscore.Rot.Weighted>
3.0955

> <Gold.Chemscore.Internal.Correction.Weighted>
   9.000000E+99

> <Gold.Protein.RotatedTorsions>
[ 6907 6896 6895 6894 ] final  138.78 input  -60.11 | X-H torsion
[ 7974 7965 7964 7962 ] final  -18.84 input  175.53 | X-H torsion
[ 8008 7997 7996 7995 ] final   -2.26 input   59.86 | X-H torsion
[ 10167 10162 10161 10158 ] final  146.32 input  -65.29 | X-H torsion
[ 10718 10713 10712 10709 ] final  111.09 input   66.30 | X-H torsion
[ 10763 10752 10751 10750 ] final -129.10 input  -60.55 | X-H torsion
[ 11005 11000 10999 10996 ] final   63.91 input  -57.11 | X-H torsion

> <Gold.Protein.ActiveResidues>
 VAL166  LYS551  ARG553  GLY616  TRP617  ASP618  TYR619  PRO620  LYS621  CYS622 
 ASP623  PHE694  ASN695  SER759  ASP760  ASP761  ALA762  ILE779  LEU786  VAL792 
 PHE793  MET794  SER795  GLU796  ALA797  LYS798  CYS799  TRP800  GLU811  SER814 

> <Gold.Protein.RotatedAtoms>
  152.2625  133.5310  159.5390 H   0  0  0  0  0  0  0  0  0  0  0  0  # atno 6907 bound_to 6896
  150.7130  134.0809  159.3906 H   0  0  0  0  0  0  0  0  0  0  0  0  # atno 6908 bound_to 6896
  151.8726  135.0483  160.0531 H   0  0  0  0  0  0  0  0  0  0  0  0  # atno 6909 bound_to 6896
  146.1872  140.3977  142.8472 H   0  0  0  0  0  0  0  0  0  0  0  0  # atno 7974 bound_to 7965
  154.6377  140.2539  155.7359 H   0  0  0  0  0  0  0  0  0  0  0  0  # atno 8008 bound_to 7997
  156.2512  140.2894  156.0677 H   0  0  0  0  0  0  0  0  0  0  0  0  # atno 8009 bound_to 7997
  155.1646  140.0385  157.2840 H   0  0  0  0  0  0  0  0  0  0  0  0  # atno 8010 bound_to 7997
  139.4909  144.5838  151.6819 H   0  0  0  0  0  0  0  0  0  0  0  0  # atno 10167 bound_to 10162
  157.6462  131.0944  150.6697 H   0  0  0  0  0  0  0  0  0  0  0  0  # atno 10718 bound_to 10713
  154.8757  135.3906  154.3865 H   0  0  0  0  0  0  0  0  0  0  0  0  # atno 10763 bound_to 10752
  153.4606  135.7029  153.6058 H   0  0  0  0  0  0  0  0  0  0  0  0  # atno 10764 bound_to 10752
  153.4558  135.3823  155.2278 H   0  0  0  0  0  0  0  0  0  0  0  0  # atno 10765 bound_to 10752
  139.9993  134.6467  155.9957 H   0  0  0  0  0  0  0  0  0  0  0  0  # atno 11005 bound_to 11000
  144.8419  140.6870  143.6224 LP  0  0  0  0  0  0  0  0  0  0  0  0  # atno 17320 bound_to 7965
  145.3903  139.1618  143.4233 LP  0  0  0  0  0  0  0  0  0  0  0  0  # atno 17321 bound_to 7965
  140.5450  144.0518  150.6103 LP  0  0  0  0  0  0  0  0  0  0  0  0  # atno 17342 bound_to 10162
  140.3553  143.2939  152.0443 LP  0  0  0  0  0  0  0  0  0  0  0  0  # atno 17343 bound_to 10162
  156.7014  130.4624  149.5572 LP  0  0  0  0  0  0  0  0  0  0  0  0  # atno 17370 bound_to 10713
  156.1793  130.6488  151.0932 LP  0  0  0  0  0  0  0  0  0  0  0  0  # atno 17371 bound_to 10713
  141.1629  133.6538  156.4381 LP  0  0  0  0  0  0  0  0  0  0  0  0  # atno 17394 bound_to 11000
  140.4757  134.6711  157.5149 LP  0  0  0  0  0  0  0  0  0  0  0  0  # atno 17395 bound_to 11000

$$$$
