AV-unprocessed.smi:1754|AV-procd|sdf|7067|dock5
  -GOLD-   22720 8283D 1   1.00000     0.00000
 Structure written by MMmdl.
 44 45  0  0  0  0  0  0  0  0  1 V2000
  150.5134  141.9535  156.7344 C   0  0  0  0  0  0  0  0  0  0  0  0
  150.8195  141.9986  158.2384 C   0  0  0  0  0  0  0  0  0  0  0  0
  151.9662  142.8528  158.5525 N   0  0  0  0  0  0  0  0  0  0  0  0
  152.1501  144.0513  157.7324 C   0  0  0  0  0  0  0  0  0  0  0  0
  151.4335  145.2857  158.3024 C   0  0  0  0  0  0  0  0  0  0  0  0
  152.4093  142.8426  159.8972 C   0  0  0  0  0  0  0  0  0  0  0  0
  152.9493  141.6833  160.5088 C   0  0  0  0  0  0  0  0  0  0  0  0
  153.3723  141.7419  161.8506 C   0  0  0  0  0  0  0  0  0  0  0  0
  153.2547  142.9626  162.5536 C   0  0  0  0  0  0  0  0  0  0  0  0
  153.6199  143.1503  163.9131 N   0  0  0  0  0  0  0  0  0  0  0  0
  154.5760  142.5282  164.6301 C   0  0  0  0  0  0  0  0  0  0  0  0
  155.3812  141.7202  164.1732 O   0  0  0  0  0  0  0  0  0  0  0  0
  154.6145  142.8917  165.9253 N   0  0  0  0  0  0  0  0  0  0  0  0
  155.5214  142.4136  166.9708 C   0  0  1  0  0  0  0  0  0  0  0  0
  155.3493  143.1877  168.2954 C   0  0  0  0  0  0  0  0  0  0  0  0
  156.0399  142.4059  169.4197 C   0  0  0  0  0  0  0  0  0  0  0  0
  155.9586  140.6386  168.9391 S   0  0  0  0  0  0  0  0  0  0  0  0
  157.3286  140.1171  168.8197 O   0  0  0  0  0  0  0  0  0  0  0  0
  154.9533  139.9473  169.7599 O   0  0  0  0  0  0  0  0  0  0  0  0
  155.2722  140.9292  167.2660 C   0  0  0  0  0  0  0  0  0  0  0  0
  152.6986  144.0585  161.8665 C   0  0  0  0  0  0  0  0  0  0  0  0
  152.2928  144.0061  160.5816 N   0  0  0  0  0  0  0  0  0  0  0  0
  149.6679  141.2955  156.5338 H   0  0  0  0  0  0  0  0  0  0  0  0
  151.3656  141.5805  156.1657 H   0  0  0  0  0  0  0  0  0  0  0  0
  150.2604  142.9425  156.3512 H   0  0  0  0  0  0  0  0  0  0  0  0
  149.9337  142.3126  158.7905 H   0  0  0  0  0  0  0  0  0  0  0  0
  151.0330  140.9892  158.5912 H   0  0  0  0  0  0  0  0  0  0  0  0
  153.2156  144.2741  157.6676 H   0  0  0  0  0  0  0  0  0  0  0  0
  151.8299  143.8574  156.7088 H   0  0  0  0  0  0  0  0  0  0  0  0
  151.6365  146.1632  157.6884 H   0  0  0  0  0  0  0  0  0  0  0  0
  151.7781  145.5045  159.3135 H   0  0  0  0  0  0  0  0  0  0  0  0
  150.3522  145.1581  158.3407 H   0  0  0  0  0  0  0  0  0  0  0  0
  153.0508  140.7498  159.9777 H   0  0  0  0  0  0  0  0  0  0  0  0
  153.7635  140.8482  162.3109 H   0  0  0  0  0  0  0  0  0  0  0  0
  153.0990  143.8635  164.4018 H   0  0  0  0  0  0  0  0  0  0  0  0
  153.9600  143.6076  166.2066 H   0  0  0  0  0  0  0  0  0  0  0  0
  156.5567  142.5111  166.6386 H   0  0  0  0  0  0  0  0  0  0  0  0
  155.7330  144.2061  168.2298 H   0  0  0  0  0  0  0  0  0  0  0  0
  154.2861  143.2655  168.5275 H   0  0  0  0  0  0  0  0  0  0  0  0
  157.0909  142.6852  169.4972 H   0  0  0  0  0  0  0  0  0  0  0  0
  155.5674  142.5551  170.3907 H   0  0  0  0  0  0  0  0  0  0  0  0
  154.2053  140.7062  167.3032 H   0  0  0  0  0  0  0  0  0  0  0  0
  155.7433  140.2618  166.5442 H   0  0  0  0  0  0  0  0  0  0  0  0
  152.5759  145.0109  162.3612 H   0  0  0  0  0  0  0  0  0  0  0  0
  1  2  1  0  0  0  0
  1 23  1  0  0  0  0
  1 24  1  0  0  0  0
  1 25  1  0  0  0  0
  2  3  1  0  0  0  0
  2 26  1  0  0  0  0
  2 27  1  0  0  0  0
  3  4  1  0  0  0  0
  3  6  1  0  0  0  0
  4  5  1  0  0  0  0
  4 28  1  0  0  0  0
  4 29  1  0  0  0  0
  5 30  1  0  0  0  0
  5 31  1  0  0  0  0
  5 32  1  0  0  0  0
  6 22  1  0  0  0  0
  6  7  2  0  0  0  0
  7  8  1  0  0  0  0
  7 33  1  0  0  0  0
  8  9  2  0  0  0  0
  8 34  1  0  0  0  0
  9 10  1  0  0  0  0
  9 21  1  0  0  0  0
 10 11  1  0  0  0  0
 10 35  1  0  0  0  0
 11 12  2  0  0  0  0
 11 13  1  0  0  0  0
 13 14  1  0  0  0  0
 13 36  1  0  0  0  0
 14 20  1  0  0  0  0
 14 15  1  0  0  0  0
 14 37  1  0  0  0  0
 15 16  1  0  0  0  0
 15 38  1  0  0  0  0
 15 39  1  0  0  0  0
 16 17  1  0  0  0  0
 16 40  1  0  0  0  0
 16 41  1  0  0  0  0
 17 18  2  0  0  0  0
 17 19  2  0  0  0  0
 17 20  1  0  0  0  0
 20 42  1  0  0  0  0
 20 43  1  0  0  0  0
 21 22  2  0  0  0  0
 21 44  1  0  0  0  0
M  END
> <s_m_source_file>
AV-unprocessed.smi

> <i_m_source_file_index>
1754

> <i_lp_mmshare_version>
43012

> <i_f3d_flags>
0

> <s_epik_input>
W0NIM11bQ0gyXU4oW0NIMl1bQ0gzXSljMVtjSF1bY0hdYyhbY0hdbjEpW05IXUMoPU8pW05IXVtDQEBIXShbQ0gyXTIpW0NIMl1bQ0gyXVMyKD1PKT1P

> <s_epik_cmdline>
J2VwaWtfcHl0aG9uJywgJy1waCcsICc3LjAnLCAnLXRuJywgJzgnLCAnLW1hJywgJzIwMCcsICctbWV0YWxfYmluZGluZycsICctaW1hZScsICc8aW5maWxlLm1hZT4nLCAnLW9tYWUnLCAnPG91dGZpbGUubWFlPic=

> <r_lp_tautomer_probability>
1

> <r_epik_Ionization_Penalty>
0.615754

> <r_epik_Ionization_Penalty_Charging>
0

> <r_epik_Ionization_Penalty_Neutral>
0.615754

> <r_epik_State_Penalty>
2.08676

> <r_epik_Charging_Adjusted_Penalty>
2.08676

> <i_epik_Tot_Q>
0

> <i_epik_Tot_abs_Q>
0

> <r_epik_Metal_State_Penalty>
1.53042

> <b_epik_Metal_Only>
0

> <s_lp_Force_Field>
OPLS_2005

> <r_lp_Energy>
21.6605

> <b_lp_Chiralities_Consistent>
1

> <s_lp_Variant>
AV-unprocessed.smi:1754-4

> <Gold.Version>
5.8.1

> <Gold.Id.Protein>
6NUR|6NUR_protein|mol2

> <Gold.PLP.Fitness>
47.5555

> <Gold.PLP.PLP>
-49.5826

> <Gold.PLP.part.hbond>
-1.7041

> <Gold.PLP.part.metal>
0.0000

> <Gold.PLP.part.buried>
-8.6773

> <Gold.PLP.part.nonpolar>
-38.9934

> <Gold.PLP.part.repulsive>
1.1626

> <Gold.PLP.ligand.clash>
0.0000

> <Gold.PLP.ligand.torsion>
1.4652

> <Gold.PLP.Chemscore.Hbond>
0.0000

> <Gold.PLP.Chemscore.CHOScore>
0.0000

> <Gold.PLP.Chemscore.Metal>
0.0000

> <Gold.PLP.Chemscore.Internal.Correction>
0.9033

> <Gold.Rescore>
     Score         DG    S(hbond)    S(metal)    S(lipo)     H(rot)  DE(clash)    DE(int)     intcor
      8.63     -14.01       0.00        0.00     103.26       1.39       1.57       3.82       ----

> <Gold.Chemscore.Fitness>
8.6260

> <Gold.Chemscore.DG>
-14.0085

> <Gold.Chemscore.ZeroCoef>
-5.4800

> <Gold.Chemscore.Hbond>
0.0000

> <Gold.Chemscore.Metal>
0.0000

> <Gold.Chemscore.Lipo>
103.2552

> <Gold.Chemscore.Internal_Hbond>
0.0000

> <Gold.Chemscore.DEClash>
1.5667

> <Gold.Chemscore.DEInternal>
3.8158

> <Gold.Chemscore.Rot>
1.3876

> <Gold.Chemscore.Internal.Correction>
   9.000000E+99

> <Gold.Chemscore.Hbond.Weighted>
-0.0000

> <Gold.Chemscore.Metal.Weighted>
-0.0000

> <Gold.Chemscore.Lipo.Weighted>
-12.0809

> <Gold.Chemscore.Internal_Hbond.Weighted>
0.0000

> <Gold.Chemscore.DEClash.Weighted>
1.5667

> <Gold.Chemscore.DEInternal.Weighted>
3.8158

> <Gold.Chemscore.Rot.Weighted>
3.5524

> <Gold.Chemscore.Internal.Correction.Weighted>
   9.000000E+99

> <Gold.Protein.RotatedTorsions>
[ 6907 6896 6895 6894 ] final    7.47 input  -60.11 | X-H torsion
[ 7974 7965 7964 7962 ] final  -86.85 input  175.53 | X-H torsion
[ 8008 7997 7996 7995 ] final -109.56 input   59.86 | X-H torsion
[ 10167 10162 10161 10158 ] final -133.68 input  -65.29 | X-H torsion
[ 10718 10713 10712 10709 ] final   83.73 input   66.30 | X-H torsion
[ 10763 10752 10751 10750 ] final  -47.70 input  -60.55 | X-H torsion
[ 11005 11000 10999 10996 ] final -178.96 input  -57.11 | X-H torsion

> <Gold.Protein.ActiveResidues>
 VAL166  LYS551  ARG553  GLY616  TRP617  ASP618  TYR619  PRO620  LYS621  CYS622 
 ASP623  PHE694  ASN695  SER759  ASP760  ASP761  ALA762  ILE779  LEU786  VAL792 
 PHE793  MET794  SER795  GLU796  ALA797  LYS798  CYS799  TRP800  GLU811  SER814 

> <Gold.Protein.RotatedAtoms>
  151.6904  135.0947  160.0232 H   0  0  0  0  0  0  0  0  0  0  0  0  # atno 6907 bound_to 6896
  152.3782  133.6505  159.6148 H   0  0  0  0  0  0  0  0  0  0  0  0  # atno 6908 bound_to 6896
  150.7725  133.9075  159.3401 H   0  0  0  0  0  0  0  0  0  0  0  0  # atno 6909 bound_to 6896
  145.4744  140.9559  143.1899 H   0  0  0  0  0  0  0  0  0  0  0  0  # atno 7974 bound_to 7965
  154.9612  140.0399  157.2191 H   0  0  0  0  0  0  0  0  0  0  0  0  # atno 8008 bound_to 7997
  154.7887  140.2831  155.5986 H   0  0  0  0  0  0  0  0  0  0  0  0  # atno 8009 bound_to 7997
  156.2946  140.2577  156.2730 H   0  0  0  0  0  0  0  0  0  0  0  0  # atno 8010 bound_to 7997
  139.8958  143.6667  152.2604 H   0  0  0  0  0  0  0  0  0  0  0  0  # atno 10167 bound_to 10162
  157.6885  131.0103  150.2567 H   0  0  0  0  0  0  0  0  0  0  0  0  # atno 10718 bound_to 10713
  154.0658  135.6611  153.4817 H   0  0  0  0  0  0  0  0  0  0  0  0  # atno 10763 bound_to 10752
  153.0409  135.5145  154.7615 H   0  0  0  0  0  0  0  0  0  0  0  0  # atno 10764 bound_to 10752
  154.6666  135.3023  154.9765 H   0  0  0  0  0  0  0  0  0  0  0  0  # atno 10765 bound_to 10752
  140.4239  134.6580  157.4678 H   0  0  0  0  0  0  0  0  0  0  0  0  # atno 11005 bound_to 11000
  144.7926  139.6298  143.7107 LP  0  0  0  0  0  0  0  0  0  0  0  0  # atno 17320 bound_to 7965
  146.2378  139.5940  142.9512 LP  0  0  0  0  0  0  0  0  0  0  0  0  # atno 17321 bound_to 7965
  139.7069  144.7626  151.1178 LP  0  0  0  0  0  0  0  0  0  0  0  0  # atno 17342 bound_to 10162
  140.7717  143.5383  150.9343 LP  0  0  0  0  0  0  0  0  0  0  0  0  # atno 17343 bound_to 10162
  156.3154  130.3778  149.7623 LP  0  0  0  0  0  0  0  0  0  0  0  0  # atno 17370 bound_to 10713
  156.5211  130.8215  151.3204 LP  0  0  0  0  0  0  0  0  0  0  0  0  # atno 17371 bound_to 10713
  140.0181  134.6589  155.9280 LP  0  0  0  0  0  0  0  0  0  0  0  0  # atno 17394 bound_to 11000
  141.1773  133.6542  156.4878 LP  0  0  0  0  0  0  0  0  0  0  0  0  # atno 17395 bound_to 11000

$$$$
