AV-unprocessed.smi:719|AV-procd|sdf|3494|dock9
  -GOLD-   22720 0493D 1   1.00000     0.00000
 Structure written by MMmdl.
 41 43  0  0  0  0  0  0  0  0  1 V2000
  153.8207  131.9116  162.1439 C   0  0  0  0  0  0  0  0  0  0  0  0
  154.5978  132.9420  161.3173 C   0  0  0  0  0  0  0  0  0  0  0  0
  154.2612  134.3524  161.7035 C   0  0  0  0  0  0  0  0  0  0  0  0
  154.0186  135.2976  160.7020 N   0  0  0  0  0  0  0  0  0  0  0  0
  153.7407  136.5076  161.1913 C   0  0  0  0  0  0  0  0  0  0  0  0
  153.4160  137.6871  160.3377 C   0  0  0  0  0  0  0  0  0  0  0  0
  154.2607  138.9199  160.6986 C   0  0  0  0  0  0  0  0  0  0  0  0
  153.4901  140.1541  160.5985 N   0  0  0  0  0  0  0  0  0  0  0  0
  153.0127  140.6766  159.4585 C   0  0  0  0  0  0  0  0  0  0  0  0
  153.1730  140.1458  158.3586 O   0  0  0  0  0  0  0  0  0  0  0  0
  152.2671  141.9576  159.6449 C   0  0  2  0  0  0  0  0  0  0  0  0
  152.8553  143.2055  159.0113 C   0  0  1  0  0  0  0  0  0  0  0  0
  152.0193  144.4274  158.7076 C   0  0  0  0  0  0  0  0  0  0  0  0
  151.2804  144.7637  160.0147 C   0  0  0  0  0  0  0  0  0  0  0  0
  152.1238  144.1445  161.1428 C   0  0  0  0  0  0  0  0  0  0  0  0
  152.9184  143.0320  160.4983 C   0  0  1  0  0  0  0  0  0  0  0  0
  153.7230  136.5548  162.9482 S   0  0  0  0  0  0  0  0  0  0  0  0
  154.1386  134.8601  162.9761 C   0  0  0  0  0  0  0  0  0  0  0  0
  154.3144  134.1376  164.2705 C   0  0  0  0  0  0  0  0  0  0  0  0
  154.0879  130.8965  161.8498 H   0  0  0  0  0  0  0  0  0  0  0  0
  152.7451  132.0258  162.0062 H   0  0  0  0  0  0  0  0  0  0  0  0
  154.0363  132.0181  163.2074 H   0  0  0  0  0  0  0  0  0  0  0  0
  155.6669  132.7621  161.4330 H   0  0  0  0  0  0  0  0  0  0  0  0
  154.3851  132.7848  160.2592 H   0  0  0  0  0  0  0  0  0  0  0  0
  153.5727  137.4085  159.2951 H   0  0  0  0  0  0  0  0  0  0  0  0
  152.3545  137.9140  160.4436 H   0  0  0  0  0  0  0  0  0  0  0  0
  154.6240  138.8323  161.7229 H   0  0  0  0  0  0  0  0  0  0  0  0
  155.1437  138.9793  160.0598 H   0  0  0  0  0  0  0  0  0  0  0  0
  153.3112  140.6511  161.4592 H   0  0  0  0  0  0  0  0  0  0  0  0
  151.1810  141.8843  159.6794 H   0  0  0  0  0  0  0  0  0  0  0  0
  153.7754  143.1033  158.4381 H   0  0  0  0  0  0  0  0  0  0  0  0
  152.6835  145.2451  158.4262 H   0  0  0  0  0  0  0  0  0  0  0  0
  151.3376  144.2394  157.8779 H   0  0  0  0  0  0  0  0  0  0  0  0
  151.1288  145.8355  160.1451 H   0  0  0  0  0  0  0  0  0  0  0  0
  150.2957  144.2946  160.0024 H   0  0  0  0  0  0  0  0  0  0  0  0
  152.8182  144.8826  161.5458 H   0  0  0  0  0  0  0  0  0  0  0  0
  151.5133  143.7655  161.9629 H   0  0  0  0  0  0  0  0  0  0  0  0
  153.8830  142.8122  160.9532 H   0  0  0  0  0  0  0  0  0  0  0  0
  153.6994  133.2377  164.2977 H   0  0  0  0  0  0  0  0  0  0  0  0
  154.0281  134.7641  165.1157 H   0  0  0  0  0  0  0  0  0  0  0  0
  155.3542  133.8413  164.4089 H   0  0  0  0  0  0  0  0  0  0  0  0
  1  2  1  0  0  0  0
  1 20  1  0  0  0  0
  1 21  1  0  0  0  0
  1 22  1  0  0  0  0
  2  3  1  0  0  0  0
  2 23  1  0  0  0  0
  2 24  1  0  0  0  0
  3 18  2  0  0  0  0
  3  4  1  0  0  0  0
  4  5  2  0  0  0  0
  5  6  1  0  0  0  0
  5 17  1  0  0  0  0
  6  7  1  0  0  0  0
  6 25  1  0  0  0  0
  6 26  1  0  0  0  0
  7  8  1  0  0  0  0
  7 27  1  0  0  0  0
  7 28  1  0  0  0  0
  8  9  1  0  0  0  0
  8 29  1  0  0  0  0
  9 10  2  0  0  0  0
  9 11  1  0  0  0  0
 11 16  1  0  0  0  0
 11 12  1  0  0  0  0
 11 30  1  0  0  0  0
 12 16  1  0  0  0  0
 12 13  1  0  0  0  0
 12 31  1  0  0  0  0
 13 14  1  0  0  0  0
 13 32  1  0  0  0  0
 13 33  1  0  0  0  0
 14 15  1  0  0  0  0
 14 34  1  0  0  0  0
 14 35  1  0  0  0  0
 15 16  1  0  0  0  0
 15 36  1  0  0  0  0
 15 37  1  0  0  0  0
 16 38  1  0  0  0  0
 17 18  1  0  0  0  0
 18 19  1  0  0  0  0
 19 39  1  0  0  0  0
 19 40  1  0  0  0  0
 19 41  1  0  0  0  0
M  END
> <s_m_source_file>
AV-unprocessed.smi

> <i_m_source_file_index>
719

> <i_lp_mmshare_version>
43012

> <i_f3d_flags>
0

> <s_epik_input>
W0NIM11bQ0gyXWMxbmMoc2MxW0NIM10pW0NIMl1bQ0gyXVtOSF1DKD1PKVtDQEhdMltDQEhdKFtDQEBIXTIzKVtDSDJdW0NIMl1bQ0gyXTM=

> <s_epik_cmdline>
J2VwaWtfcHl0aG9uJywgJy1waCcsICc3LjAnLCAnLXRuJywgJzgnLCAnLW1hJywgJzIwMCcsICctbWV0YWxfYmluZGluZycsICctaW1hZScsICc8aW5maWxlLm1hZT4nLCAnLW9tYWUnLCAnPG91dGZpbGUubWFlPic=

> <r_epik_Ionization_Penalty>
0.00247473

> <r_epik_Ionization_Penalty_Charging>
0

> <r_epik_Ionization_Penalty_Neutral>
0.00247473

> <r_epik_State_Penalty>
0.00171502

> <r_epik_Charging_Adjusted_Penalty>
0.00171502

> <i_epik_Tot_Q>
0

> <i_epik_Tot_abs_Q>
0

> <r_epik_Metal_State_Penalty>
-0

> <b_epik_Metal_Only>
0

> <s_lp_Force_Field>
OPLS_2005

> <r_lp_Energy>
19.4586

> <b_lp_Chiralities_Consistent>
1

> <s_lp_Variant>
AV-unprocessed.smi:719-2

> <Gold.Version>
5.8.1

> <Gold.Id.Protein>
6NUR|6NUR_protein|mol2

> <Gold.PLP.Fitness>
47.1801

> <Gold.PLP.PLP>
-43.1254

> <Gold.PLP.part.hbond>
-1.8096

> <Gold.PLP.part.metal>
0.0000

> <Gold.PLP.part.buried>
-4.4554

> <Gold.PLP.part.nonpolar>
-36.6121

> <Gold.PLP.part.repulsive>
0.0616

> <Gold.PLP.ligand.clash>
0.0000

> <Gold.PLP.ligand.torsion>
0.6844

> <Gold.PLP.Chemscore.Hbond>
1.7800

> <Gold.PLP.Chemscore.CHOScore>
0.0000

> <Gold.PLP.Chemscore.Metal>
0.0000

> <Gold.Chemscore.Hbonds>
donor molecule, donor type, donor heavy atom, donor atom, acceptor molecule, acceptor atom, score
      P1  H  6896  6907       L1     4  0.95
      P1  H  7997  8009       L1    10  0.99

> <Gold.PLP.Chemscore.Internal.Correction>
0.0835

> <Gold.Rescore>
     Score         DG    S(hbond)    S(metal)    S(lipo)     H(rot)  DE(clash)    DE(int)     intcor
     21.02     -22.30       1.53        0.00     131.20       1.42       0.41       0.87       ----

> <Gold.Chemscore.Fitness>
21.0183

> <Gold.Chemscore.DG>
-22.2960

> <Gold.Chemscore.ZeroCoef>
-5.4800

> <Gold.Chemscore.Hbond>
1.5277

> <Gold.Chemscore.Metal>
0.0000

> <Gold.Chemscore.Lipo>
131.2040

> <Gold.Chemscore.Internal_Hbond>
0.0000

> <Gold.Chemscore.DEClash>
0.4107

> <Gold.Chemscore.DEInternal>
0.8670

> <Gold.Chemscore.Rot>
1.4209

> <Gold.Chemscore.Internal.Correction>
   9.000000E+99

> <Gold.Chemscore.Hbonds>
donor molecule, donor type, donor heavy atom, donor atom, acceptor molecule, acceptor atom, score
      P1  H  6896  6907       L1     4  0.14
      P1  H  7997  8009       L1    10  0.94

> <Gold.Chemscore.Hbond.Weighted>
-5.1027

> <Gold.Chemscore.Metal.Weighted>
-0.0000

> <Gold.Chemscore.Lipo.Weighted>
-15.3509

> <Gold.Chemscore.Internal_Hbond.Weighted>
0.0000

> <Gold.Chemscore.DEClash.Weighted>
0.4107

> <Gold.Chemscore.DEInternal.Weighted>
0.8670

> <Gold.Chemscore.Rot.Weighted>
3.6376

> <Gold.Chemscore.Internal.Correction.Weighted>
   9.000000E+99

> <Gold.Protein.RotatedTorsions>
[ 6907 6896 6895 6894 ] final   65.05 input  -60.11 | X-H torsion
[ 7974 7965 7964 7962 ] final  153.43 input  175.53 | X-H torsion
[ 8008 7997 7996 7995 ] final  156.06 input   59.86 | X-H torsion
[ 10167 10162 10161 10158 ] final  -17.89 input  -65.29 | X-H torsion
[ 10718 10713 10712 10709 ] final   -5.37 input   66.30 | X-H torsion
[ 10763 10752 10751 10750 ] final  -95.48 input  -60.55 | X-H torsion
[ 11005 11000 10999 10996 ] final -126.94 input  -57.11 | X-H torsion

> <Gold.Protein.ActiveResidues>
 VAL166  LYS551  ARG553  GLY616  TRP617  ASP618  TYR619  PRO620  LYS621  CYS622 
 ASP623  PHE694  ASN695  SER759  ASP760  ASP761  ALA762  ILE779  LEU786  VAL792 
 PHE793  MET794  SER795  GLU796  ALA797  LYS798  CYS799  TRP800  GLU811  SER814 

> <Gold.Protein.RotatedAtoms>
  152.4378  134.5651  159.9905 H   0  0  0  0  0  0  0  0  0  0  0  0  # atno 6907 bound_to 6896
  151.5757  133.3378  159.3006 H   0  0  0  0  0  0  0  0  0  0  0  0  # atno 6908 bound_to 6896
  150.8279  134.7553  159.6893 H   0  0  0  0  0  0  0  0  0  0  0  0  # atno 6909 bound_to 6896
  144.8155  139.6800  143.6123 H   0  0  0  0  0  0  0  0  0  0  0  0  # atno 7974 bound_to 7965
  156.2443  140.1922  156.6898 H   0  0  0  0  0  0  0  0  0  0  0  0  # atno 8008 bound_to 7997
  154.6260  140.0602  156.9700 H   0  0  0  0  0  0  0  0  0  0  0  0  # atno 8009 bound_to 7997
  155.1785  140.3274  155.4382 H   0  0  0  0  0  0  0  0  0  0  0  0  # atno 8010 bound_to 7997
  140.7252  143.4971  150.9917 H   0  0  0  0  0  0  0  0  0  0  0  0  # atno 10167 bound_to 10162
  156.7475  130.5229  149.5811 H   0  0  0  0  0  0  0  0  0  0  0  0  # atno 10718 bound_to 10713
  154.7152  135.5119  153.8727 H   0  0  0  0  0  0  0  0  0  0  0  0  # atno 10763 bound_to 10752
  153.0814  135.6632  154.0046 H   0  0  0  0  0  0  0  0  0  0  0  0  # atno 10764 bound_to 10752
  153.9880  135.3022  155.3394 H   0  0  0  0  0  0  0  0  0  0  0  0  # atno 10765 bound_to 10752
  140.9640  134.0897  157.3939 H   0  0  0  0  0  0  0  0  0  0  0  0  # atno 11005 bound_to 11000
  146.2457  139.6094  142.9461 LP  0  0  0  0  0  0  0  0  0  0  0  0  # atno 17320 bound_to 7965
  145.5225  141.0431  143.2427 LP  0  0  0  0  0  0  0  0  0  0  0  0  # atno 17321 bound_to 7965
  139.8678  143.7231  152.3169 LP  0  0  0  0  0  0  0  0  0  0  0  0  # atno 17342 bound_to 10162
  139.7469  144.7545  151.0566 LP  0  0  0  0  0  0  0  0  0  0  0  0  # atno 17343 bound_to 10162
  156.1423  130.6253  151.0484 LP  0  0  0  0  0  0  0  0  0  0  0  0  # atno 17370 bound_to 10713
  157.6791  131.0842  150.7416 LP  0  0  0  0  0  0  0  0  0  0  0  0  # atno 17371 bound_to 10713
  139.8888  135.0100  156.6642 LP  0  0  0  0  0  0  0  0  0  0  0  0  # atno 17394 bound_to 11000
  140.7426  133.8965  155.8289 LP  0  0  0  0  0  0  0  0  0  0  0  0  # atno 17395 bound_to 11000

$$$$
