AV-unprocessed.smi:2622|AV-procd|sdf|10228|dock5
  -GOLD-   2272014233D 1   1.00000     0.00000
 Structure written by MMmdl.
 27 28  0  0  0  0  0  0  0  0  3 V2000
  153.3250  139.5229  158.2620 O   0  0  0  0  0  0  0  0  0  0  0  0
  152.5748  140.5057  158.4529 C   0  0  0  0  0  0  0  0  0  0  0  0
  152.6282  141.1667  159.5132 O   0  5  0  0  0  0  0  0  0  0  0  0
  151.5920  140.8816  157.3641 C   0  0  0  0  0  0  0  0  0  0  0  0
  151.3132  139.9387  156.3421 C   0  0  0  0  0  0  0  0  0  0  0  0
  150.4053  140.2477  155.3106 C   0  0  0  0  0  0  0  0  0  0  0  0
  149.7789  141.5052  155.3092 C   0  0  0  0  0  0  0  0  0  0  0  0
  150.0566  142.3880  156.2890 N   0  3  0  0  0  0  0  0  0  0  0  0
  150.9219  142.1422  157.3052 C   0  0  0  0  0  0  0  0  0  0  0  0
  151.1014  143.1703  158.2453 N   0  0  0  0  0  0  0  0  0  0  0  0
  151.9217  144.2757  157.7699 C   0  0  0  0  0  0  0  0  0  0  0  0
  152.2012  145.2507  158.9261 C   0  0  0  0  0  0  0  0  0  0  0  0
  150.9674  145.6826  159.4944 O   0  0  0  0  0  0  0  0  0  0  0  0
  150.2147  144.5965  160.0284 C   0  0  0  0  0  0  0  0  0  0  0  0
  149.8766  143.6034  158.9038 C   0  0  0  0  0  0  0  0  0  0  0  0
  151.7905  138.9695  156.3357 H   0  0  0  0  0  0  0  0  0  0  0  0
  150.1946  139.5282  154.5331 H   0  0  0  0  0  0  0  0  0  0  0  0
  149.0707  141.8307  154.5614 H   0  0  0  0  0  0  0  0  0  0  0  0
  152.8598  143.8927  157.3662 H   0  0  0  0  0  0  0  0  0  0  0  0
  151.4078  144.7959  156.9606 H   0  0  0  0  0  0  0  0  0  0  0  0
  152.8206  144.7791  159.6909 H   0  0  0  0  0  0  0  0  0  0  0  0
  152.7498  146.1192  158.5618 H   0  0  0  0  0  0  0  0  0  0  0  0
  150.7786  144.1058  160.8237 H   0  0  0  0  0  0  0  0  0  0  0  0
  149.2997  144.9827  160.4773 H   0  0  0  0  0  0  0  0  0  0  0  0
  149.2130  144.0756  158.1782 H   0  0  0  0  0  0  0  0  0  0  0  0
  149.3508  142.7388  159.3110 H   0  0  0  0  0  0  0  0  0  0  0  0
  149.5893  143.2944  156.2653 H   0  0  0  0  0  0  0  0  0  0  0  0
  1  2  2  0  0  0  0
  2  3  1  0  0  0  0
  2  4  1  0  0  0  0
  4  9  1  0  0  0  0
  4  5  2  0  0  0  0
  5  6  1  0  0  0  0
  5 16  1  0  0  0  0
  6  7  2  0  0  0  0
  6 17  1  0  0  0  0
  7  8  1  0  0  0  0
  7 18  1  0  0  0  0
  8  9  2  0  0  0  0
  8 27  1  0  0  0  0
  9 10  1  0  0  0  0
 10 15  1  0  0  0  0
 10 11  1  0  0  0  0
 11 12  1  0  0  0  0
 11 19  1  0  0  0  0
 11 20  1  0  0  0  0
 12 13  1  0  0  0  0
 12 21  1  0  0  0  0
 12 22  1  0  0  0  0
 13 14  1  0  0  0  0
 14 15  1  0  0  0  0
 14 23  1  0  0  0  0
 14 24  1  0  0  0  0
 15 25  1  0  0  0  0
 15 26  1  0  0  0  0
M  CHG  1   3  -1
M  CHG  1   8   1
M  END
> <s_m_source_file>
AV-unprocessed.smi

> <i_m_source_file_index>
2622

> <i_lp_mmshare_version>
43012

> <i_f3d_flags>
0

> <s_epik_input>
Tz1DKFtPSF0pYzFbY0hdW2NIXVtjSF1uYzFOMltDSDJdW0NIMl1PW0NIMl1bQ0gyXTI=

> <s_epik_cmdline>
J2VwaWtfcHl0aG9uJywgJy1waCcsICc3LjAnLCAnLXRuJywgJzgnLCAnLW1hJywgJzIwMCcsICctbWV0YWxfYmluZGluZycsICctaW1hZScsICc8aW5maWxlLm1hZT4nLCAnLW9tYWUnLCAnPG91dGZpbGUubWFlPic=

> <r_epik_Ionization_Penalty>
2.51472

> <r_epik_Ionization_Penalty_Charging>
2.51472

> <r_epik_Ionization_Penalty_Neutral>
3.20239e-12

> <r_epik_State_Penalty>
2.68069

> <r_epik_Charging_Adjusted_Penalty>
5.19542

> <i_epik_Tot_Q>
0

> <i_epik_Tot_abs_Q>
2

> <r_epik_Metal_State_Penalty>
6.76699

> <b_epik_Metal_Only>
0

> <s_lp_Force_Field>
OPLS_2005

> <r_lp_Energy>
23.1971

> <b_lp_Chiralities_Consistent>
1

> <s_lp_Variant>
AV-unprocessed.smi:2622-2

> <Gold.Version>
5.8.1

> <Gold.Id.Protein>
6NUR|6NUR_protein|mol2

> <Gold.PLP.Fitness>
43.0713

> <Gold.PLP.PLP>
-31.5427

> <Gold.PLP.part.hbond>
-3.8730

> <Gold.PLP.part.metal>
0.0000

> <Gold.PLP.part.buried>
-4.0085

> <Gold.PLP.part.nonpolar>
-24.2152

> <Gold.PLP.part.repulsive>
0.4034

> <Gold.PLP.ligand.clash>
0.0000

> <Gold.PLP.ligand.torsion>
0.3166

> <Gold.PLP.Chemscore.Hbond>
4.0000

> <Gold.PLP.Chemscore.CHOScore>
0.0000

> <Gold.PLP.Chemscore.Metal>
0.0000

> <Gold.Chemscore.Hbonds>
donor molecule, donor type, donor heavy atom, donor atom, acceptor molecule, acceptor atom, score
      L1  H     8    27       P1  8028  2.00
      P1  H  7997  8009       L1     1  2.00

> <Gold.PLP.Chemscore.Internal.Correction>
0.1618

> <Gold.Rescore>
     Score         DG    S(hbond)    S(metal)    S(lipo)     H(rot)  DE(clash)    DE(int)     intcor
     15.58     -17.33       1.95        0.00      67.39       1.00       0.00       1.74       ----

> <Gold.Chemscore.Fitness>
15.5816

> <Gold.Chemscore.DG>
-17.3251

> <Gold.Chemscore.ZeroCoef>
-5.4800

> <Gold.Chemscore.Hbond>
1.9523

> <Gold.Chemscore.Metal>
0.0000

> <Gold.Chemscore.Lipo>
67.3869

> <Gold.Chemscore.Internal_Hbond>
0.0000

> <Gold.Chemscore.DEClash>
0.0000

> <Gold.Chemscore.DEInternal>
1.7435

> <Gold.Chemscore.Rot>
1.0000

> <Gold.Chemscore.Internal.Correction>
   9.000000E+99

> <Gold.Chemscore.Hbonds>
donor molecule, donor type, donor heavy atom, donor atom, acceptor molecule, acceptor atom, score
      L1  H     8    27       P1  8028  1.00
      P1  H  7997  8009       L1     1  0.60

> <Gold.Chemscore.Hbond.Weighted>
-6.5208

> <Gold.Chemscore.Metal.Weighted>
-0.0000

> <Gold.Chemscore.Lipo.Weighted>
-7.8843

> <Gold.Chemscore.Internal_Hbond.Weighted>
0.0000

> <Gold.Chemscore.DEClash.Weighted>
0.0000

> <Gold.Chemscore.DEInternal.Weighted>
1.7435

> <Gold.Chemscore.Rot.Weighted>
2.5600

> <Gold.Chemscore.Internal.Correction.Weighted>
   9.000000E+99

> <Gold.Protein.RotatedTorsions>
[ 6907 6896 6895 6894 ] final  -70.74 input  -60.11 | X-H torsion
[ 7974 7965 7964 7962 ] final   74.21 input  175.53 | X-H torsion
[ 8008 7997 7996 7995 ] final  156.38 input   59.86 | X-H torsion
[ 10167 10162 10161 10158 ] final  168.37 input  -65.29 | X-H torsion
[ 10718 10713 10712 10709 ] final   10.73 input   66.30 | X-H torsion
[ 10763 10752 10751 10750 ] final -169.49 input  -60.55 | X-H torsion
[ 11005 11000 10999 10996 ] final -139.56 input  -57.11 | X-H torsion

> <Gold.Protein.ActiveResidues>
 VAL166  LYS551  ARG553  GLY616  TRP617  ASP618  TYR619  PRO620  LYS621  CYS622 
 ASP623  PHE694  ASN695  SER759  ASP760  ASP761  ALA762  ILE779  LEU786  VAL792 
 PHE793  MET794  SER795  GLU796  ALA797  LYS798  CYS799  TRP800  GLU811  SER814 

> <Gold.Protein.RotatedAtoms>
  150.7244  134.5410  159.5746 H   0  0  0  0  0  0  0  0  0  0  0  0  # atno 6907 bound_to 6896
  152.2920  134.7707  160.0385 H   0  0  0  0  0  0  0  0  0  0  0  0  # atno 6908 bound_to 6896
  151.8317  133.3374  159.3652 H   0  0  0  0  0  0  0  0  0  0  0  0  # atno 6909 bound_to 6896
  145.7312  139.2684  143.1540 H   0  0  0  0  0  0  0  0  0  0  0  0  # atno 7974 bound_to 7965
  156.2425  140.1914  156.6946 H   0  0  0  0  0  0  0  0  0  0  0  0  # atno 8008 bound_to 7997
  154.6226  140.0606  156.9660 H   0  0  0  0  0  0  0  0  0  0  0  0  # atno 8009 bound_to 7997
  155.1837  140.3278  155.4373 H   0  0  0  0  0  0  0  0  0  0  0  0  # atno 8010 bound_to 7997
  139.4966  144.3821  151.9610 H   0  0  0  0  0  0  0  0  0  0  0  0  # atno 10167 bound_to 10162
  156.9852  130.6021  149.5680 H   0  0  0  0  0  0  0  0  0  0  0  0  # atno 10718 bound_to 10713
  154.6518  135.2912  154.9978 H   0  0  0  0  0  0  0  0  0  0  0  0  # atno 10763 bound_to 10752
  154.1068  135.6568  153.4882 H   0  0  0  0  0  0  0  0  0  0  0  0  # atno 10764 bound_to 10752
  153.0380  135.5255  154.7429 H   0  0  0  0  0  0  0  0  0  0  0  0  # atno 10765 bound_to 10752
  140.8508  134.2289  157.4761 H   0  0  0  0  0  0  0  0  0  0  0  0  # atno 11005 bound_to 11000
  146.0536  140.8044  142.9769 LP  0  0  0  0  0  0  0  0  0  0  0  0  # atno 17320 bound_to 7965
  144.6892  140.3090  143.7251 LP  0  0  0  0  0  0  0  0  0  0  0  0  # atno 17321 bound_to 7965
  140.3258  144.3374  150.5998 LP  0  0  0  0  0  0  0  0  0  0  0  0  # atno 17342 bound_to 10162
  140.5685  143.2183  151.7640 LP  0  0  0  0  0  0  0  0  0  0  0  0  # atno 17343 bound_to 10162
  156.0228  130.5323  150.8324 LP  0  0  0  0  0  0  0  0  0  0  0  0  # atno 17370 bound_to 10713
  157.5498  131.0943  150.9712 LP  0  0  0  0  0  0  0  0  0  0  0  0  # atno 17371 bound_to 10713
  139.8704  134.9682  156.4623 LP  0  0  0  0  0  0  0  0  0  0  0  0  # atno 17394 bound_to 11000
  140.8793  133.7930  155.9448 LP  0  0  0  0  0  0  0  0  0  0  0  0  # atno 17395 bound_to 11000

$$$$
