AV-unprocessed.smi:1072|AV-procd|sdf|4686|dock5
  -GOLD-   22720 3203D 1   1.00000     0.00000
 Structure written by MMmdl.
 46 47  0  0  0  0  0  0  0  0  1 V2000
  150.8850  142.1255  156.5536 C   0  0  0  0  0  0  0  0  0  0  0  0
  149.8995  141.4912  155.5965 C   0  0  0  0  0  0  0  0  0  0  0  0
  148.7404  142.2291  155.4209 N   0  0  0  0  0  0  0  0  0  0  0  0
  147.7779  141.7279  154.5627 C   0  0  0  0  0  0  0  0  0  0  0  0
  146.5391  142.5963  154.4275 C   0  0  0  0  0  0  0  0  0  0  0  0
  147.9630  140.5534  153.9084 C   0  0  0  0  0  0  0  0  0  0  0  0
  146.9251  139.9701  152.9504 C   0  0  0  0  0  0  0  0  0  0  0  0
  146.4150  138.5686  153.2946 C   0  0  0  0  0  0  0  0  0  0  0  0
  146.5321  138.1355  154.4406 O   0  0  0  0  0  0  0  0  0  0  0  0
  145.8605  137.8805  152.2799 N   0  0  0  0  0  0  0  0  0  0  0  0
  145.3065  136.5191  152.2691 C   0  0  1  0  0  0  0  0  0  0  0  0
  143.9275  136.6348  152.9537 C   0  0  0  0  0  0  0  0  0  0  0  0
  145.1393  136.0157  150.8085 C   0  0  0  0  0  0  0  0  0  0  0  0
  144.7175  134.5380  150.7212 C   0  0  0  0  0  0  0  0  0  0  0  0
  145.6833  133.6237  151.4960 C   0  0  2  0  0  0  0  0  0  0  0  0
  145.2639  132.1502  151.3949 C   0  0  0  0  0  0  0  0  0  0  0  0
  145.7916  134.0796  152.9622 C   0  0  0  0  0  0  0  0  0  0  0  0
  146.2234  135.5532  153.0699 C   0  0  0  0  0  0  0  0  0  0  0  0
  149.2278  139.8133  154.1298 C   0  0  0  0  0  0  0  0  0  0  0  0
  149.4622  138.7512  153.5549 O   0  0  0  0  0  0  0  0  0  0  0  0
  150.1684  140.3606  155.0174 N   0  0  0  0  0  0  0  0  0  0  0  0
  148.5645  143.1092  155.8840 H   0  0  0  0  0  0  0  0  0  0  0  0
  151.6911  141.4329  156.7988 H   0  0  0  0  0  0  0  0  0  0  0  0
  150.3886  142.4106  157.4818 H   0  0  0  0  0  0  0  0  0  0  0  0
  151.3244  143.0174  156.1060 H   0  0  0  0  0  0  0  0  0  0  0  0
  145.6542  142.0522  154.7579 H   0  0  0  0  0  0  0  0  0  0  0  0
  146.3938  142.8946  153.3888 H   0  0  0  0  0  0  0  0  0  0  0  0
  146.6167  143.5037  155.0276 H   0  0  0  0  0  0  0  0  0  0  0  0
  147.3623  139.9465  151.9514 H   0  0  0  0  0  0  0  0  0  0  0  0
  146.0644  140.6332  152.8602 H   0  0  0  0  0  0  0  0  0  0  0  0
  145.8260  138.3592  151.3916 H   0  0  0  0  0  0  0  0  0  0  0  0
  143.4062  135.6803  153.0108 H   0  0  0  0  0  0  0  0  0  0  0  0
  143.2758  137.3233  152.4141 H   0  0  0  0  0  0  0  0  0  0  0  0
  144.0228  137.0089  153.9738 H   0  0  0  0  0  0  0  0  0  0  0  0
  144.4168  136.6359  150.2768 H   0  0  0  0  0  0  0  0  0  0  0  0
  146.0753  136.1166  150.2599 H   0  0  0  0  0  0  0  0  0  0  0  0
  143.7029  134.4143  151.1002 H   0  0  0  0  0  0  0  0  0  0  0  0
  144.6850  134.2358  149.6739 H   0  0  0  0  0  0  0  0  0  0  0  0
  146.6710  133.7157  151.0416 H   0  0  0  0  0  0  0  0  0  0  0  0
  144.2787  131.9876  151.8333 H   0  0  0  0  0  0  0  0  0  0  0  0
  145.9711  131.5037  151.9151 H   0  0  0  0  0  0  0  0  0  0  0  0
  145.2237  131.8245  150.3552 H   0  0  0  0  0  0  0  0  0  0  0  0
  144.8384  133.9306  153.4696 H   0  0  0  0  0  0  0  0  0  0  0  0
  146.5133  133.4552  153.4900 H   0  0  0  0  0  0  0  0  0  0  0  0
  147.2501  135.6151  152.7110 H   0  0  0  0  0  0  0  0  0  0  0  0
  146.2589  135.8502  154.1188 H   0  0  0  0  0  0  0  0  0  0  0  0
  1 23  1  0  0  0  0
  1 24  1  0  0  0  0
  1 25  1  0  0  0  0
  1  2  1  0  0  0  0
  2  3  1  0  0  0  0
  2 21  2  0  0  0  0
  3  4  1  0  0  0  0
  3 22  1  0  0  0  0
  4  6  2  0  0  0  0
  4  5  1  0  0  0  0
  5 26  1  0  0  0  0
  5 27  1  0  0  0  0
  5 28  1  0  0  0  0
  6 19  1  0  0  0  0
  6  7  1  0  0  0  0
  7  8  1  0  0  0  0
  7 29  1  0  0  0  0
  7 30  1  0  0  0  0
  8  9  2  0  0  0  0
  8 10  1  0  0  0  0
 10 11  1  0  0  0  0
 10 31  1  0  0  0  0
 11 18  1  0  0  0  0
 11 12  1  0  0  0  0
 11 13  1  0  0  0  0
 12 32  1  0  0  0  0
 12 33  1  0  0  0  0
 12 34  1  0  0  0  0
 13 14  1  0  0  0  0
 13 35  1  0  0  0  0
 13 36  1  0  0  0  0
 14 15  1  0  0  0  0
 14 37  1  0  0  0  0
 14 38  1  0  0  0  0
 15 16  1  0  0  0  0
 15 17  1  0  0  0  0
 15 39  1  0  0  0  0
 16 40  1  0  0  0  0
 16 41  1  0  0  0  0
 16 42  1  0  0  0  0
 17 18  1  0  0  0  0
 17 43  1  0  0  0  0
 17 44  1  0  0  0  0
 18 45  1  0  0  0  0
 18 46  1  0  0  0  0
 19 20  2  0  0  0  0
 19 21  1  0  0  0  0
M  END
> <s_m_source_file>
AV-unprocessed.smi

> <i_m_source_file_index>
1072

> <i_lp_mmshare_version>
43012

> <i_f3d_flags>
0

> <s_epik_input>
W0NIM11jMW5jKFtDSDNdKWMoYyg9TylbbkhdMSlbQ0gyXUMoPU8pW05IXVtDQEBdMihbQ0gzXSlbQ0gyXVtDSDJdW0NAQEhdKFtDSDNdKVtDSDJdW0NIMl0y

> <s_epik_cmdline>
J2VwaWtfcHl0aG9uJywgJy1waCcsICc3LjAnLCAnLXRuJywgJzgnLCAnLW1hJywgJzIwMCcsICctbWV0YWxfYmluZGluZycsICctaW1hZScsICc8aW5maWxlLm1hZT4nLCAnLW9tYWUnLCAnPG91dGZpbGUubWFlPic=

> <r_lp_tautomer_probability>
0.156392

> <r_epik_Ionization_Penalty>
0.0131066

> <r_epik_Ionization_Penalty_Charging>
0.0129643

> <r_epik_Ionization_Penalty_Neutral>
0.000142248

> <r_epik_State_Penalty>
1.15342

> <r_epik_Charging_Adjusted_Penalty>
1.16638

> <i_epik_Tot_Q>
0

> <i_epik_Tot_abs_Q>
0

> <r_epik_Metal_State_Penalty>
1.30766

> <b_epik_Metal_Only>
0

> <s_lp_Force_Field>
OPLS_2005

> <r_lp_Energy>
18.066

> <b_lp_Chiralities_Consistent>
1

> <s_lp_Variant>
AV-unprocessed.smi:1072-4

> <Gold.Version>
5.8.1

> <Gold.Id.Protein>
6NUR|6NUR_protein|mol2

> <Gold.PLP.Fitness>
38.4712

> <Gold.PLP.PLP>
-35.9953

> <Gold.PLP.part.hbond>
-1.3634

> <Gold.PLP.part.metal>
0.0000

> <Gold.PLP.part.buried>
-1.9849

> <Gold.PLP.part.nonpolar>
-34.1479

> <Gold.PLP.part.repulsive>
2.1820

> <Gold.PLP.ligand.clash>
0.0000

> <Gold.PLP.ligand.torsion>
0.6216

> <Gold.PLP.Chemscore.Hbond>
1.2377

> <Gold.PLP.Chemscore.CHOScore>
0.0000

> <Gold.PLP.Chemscore.Metal>
0.0000

> <Gold.Chemscore.Hbonds>
donor molecule, donor type, donor heavy atom, donor atom, acceptor molecule, acceptor atom, score
      L1  H     3    22       P1  8028  0.78
      P1  H  7989  7998       L1    21  0.53

> <Gold.PLP.Chemscore.Internal.Correction>
0.0059

> <Gold.Rescore>
     Score         DG    S(hbond)    S(metal)    S(lipo)     H(rot)  DE(clash)    DE(int)     intcor
     12.00     -12.91       0.77        0.00      73.68       1.47       0.59       0.33       ----

> <Gold.Chemscore.Fitness>
11.9981

> <Gold.Chemscore.DG>
-12.9136

> <Gold.Chemscore.ZeroCoef>
-5.4800

> <Gold.Chemscore.Hbond>
0.7706

> <Gold.Chemscore.Metal>
0.0000

> <Gold.Chemscore.Lipo>
73.6796

> <Gold.Chemscore.Internal_Hbond>
0.0000

> <Gold.Chemscore.DEClash>
0.5857

> <Gold.Chemscore.DEInternal>
0.3298

> <Gold.Chemscore.Rot>
1.4690

> <Gold.Chemscore.Internal.Correction>
   9.000000E+99

> <Gold.Chemscore.Hbonds>
donor molecule, donor type, donor heavy atom, donor atom, acceptor molecule, acceptor atom, score
      L1  H     3    22       P1  8028  0.77
      L1  H    10    31       P1 10171  0.01
      P1  H  7989  7998       L1    21  0.03

> <Gold.Chemscore.Hbond.Weighted>
-2.5737

> <Gold.Chemscore.Metal.Weighted>
-0.0000

> <Gold.Chemscore.Lipo.Weighted>
-8.6205

> <Gold.Chemscore.Internal_Hbond.Weighted>
0.0000

> <Gold.Chemscore.DEClash.Weighted>
0.5857

> <Gold.Chemscore.DEInternal.Weighted>
0.3298

> <Gold.Chemscore.Rot.Weighted>
3.7607

> <Gold.Chemscore.Internal.Correction.Weighted>
   9.000000E+99

> <Gold.Protein.RotatedTorsions>
[ 6907 6896 6895 6894 ] final -110.26 input  -60.11 | X-H torsion
[ 7974 7965 7964 7962 ] final -164.48 input  175.53 | X-H torsion
[ 8008 7997 7996 7995 ] final -144.19 input   59.86 | X-H torsion
[ 10167 10162 10161 10158 ] final  -96.44 input  -65.29 | X-H torsion
[ 10718 10713 10712 10709 ] final   54.44 input   66.30 | X-H torsion
[ 10763 10752 10751 10750 ] final   43.16 input  -60.55 | X-H torsion
[ 11005 11000 10999 10996 ] final   51.75 input  -57.11 | X-H torsion

> <Gold.Protein.ActiveResidues>
 VAL166  LYS551  ARG553  GLY616  TRP617  ASP618  TYR619  PRO620  LYS621  CYS622 
 ASP623  PHE694  ASN695  SER759  ASP760  ASP761  ALA762  ILE779  LEU786  VAL792 
 PHE793  MET794  SER795  GLU796  ALA797  LYS798  CYS799  TRP800  GLU811  SER814 

> <Gold.Protein.RotatedAtoms>
  150.7613  133.9408  159.3455 H   0  0  0  0  0  0  0  0  0  0  0  0  # atno 6907 bound_to 6896
  151.7316  135.0871  160.0310 H   0  0  0  0  0  0  0  0  0  0  0  0  # atno 6908 bound_to 6896
  152.3586  133.6231  159.6034 H   0  0  0  0  0  0  0  0  0  0  0  0  # atno 6909 bound_to 6896
  144.7295  140.2954  143.6213 H   0  0  0  0  0  0  0  0  0  0  0  0  # atno 7974 bound_to 7965
  155.5229  140.0593  157.2903 H   0  0  0  0  0  0  0  0  0  0  0  0  # atno 8008 bound_to 7997
  154.4511  140.1949  156.0462 H   0  0  0  0  0  0  0  0  0  0  0  0  # atno 8009 bound_to 7997
  156.0706  140.3260  155.7575 H   0  0  0  0  0  0  0  0  0  0  0  0  # atno 8010 bound_to 7997
  140.2937  143.3205  152.0319 H   0  0  0  0  0  0  0  0  0  0  0  0  # atno 10167 bound_to 10162
  157.5257  130.8595  149.8618 H   0  0  0  0  0  0  0  0  0  0  0  0  # atno 10718 bound_to 10713
  152.9867  135.6110  154.3066 H   0  0  0  0  0  0  0  0  0  0  0  0  # atno 10763 bound_to 10752
  154.2784  135.2777  155.2710 H   0  0  0  0  0  0  0  0  0  0  0  0  # atno 10764 bound_to 10752
  154.5060  135.5854  153.6624 H   0  0  0  0  0  0  0  0  0  0  0  0  # atno 10765 bound_to 10752
  140.0907  134.5213  155.8855 H   0  0  0  0  0  0  0  0  0  0  0  0  # atno 11005 bound_to 11000
  145.7813  139.1892  143.2156 LP  0  0  0  0  0  0  0  0  0  0  0  0  # atno 17320 bound_to 7965
  146.0831  140.7741  142.9632 LP  0  0  0  0  0  0  0  0  0  0  0  0  # atno 17321 bound_to 7965
  139.4931  144.6506  151.6684 LP  0  0  0  0  0  0  0  0  0  0  0  0  # atno 17342 bound_to 10162
  140.5710  144.0109  150.6217 LP  0  0  0  0  0  0  0  0  0  0  0  0  # atno 17343 bound_to 10162
  156.0385  130.3745  150.1496 LP  0  0  0  0  0  0  0  0  0  0  0  0  # atno 17370 bound_to 10713
  156.9683  130.9826  151.3464 LP  0  0  0  0  0  0  0  0  0  0  0  0  # atno 17371 bound_to 10713
  141.2077  133.6666  156.6321 LP  0  0  0  0  0  0  0  0  0  0  0  0  # atno 17394 bound_to 11000
  140.3357  134.7892  157.4360 LP  0  0  0  0  0  0  0  0  0  0  0  0  # atno 17395 bound_to 11000

$$$$
