AV-unprocessed.smi:856|AV-procd|sdf|3959|dock8
  -GOLD-   22720 1433D 1   1.00000     0.00000
 Structure written by MMmdl.
 42 44  0  0  0  0  0  0  0  0  1 V2000
  154.3147  141.1387  161.0663 C   0  0  0  0  0  0  0  0  0  0  0  0
  153.3678  141.4308  159.9739 N   0  0  0  0  0  0  0  0  0  0  0  0
  153.0864  140.4361  159.0745 C   0  0  0  0  0  0  0  0  0  0  0  0
  153.5703  139.3041  159.1054 O   0  0  0  0  0  0  0  0  0  0  0  0
  152.1302  140.8294  158.0326 C   0  0  0  0  0  0  0  0  0  0  0  0
  151.5779  142.0661  157.9670 C   0  0  0  0  0  0  0  0  0  0  0  0
  150.7045  142.1721  156.8900 N   0  0  0  0  0  0  0  0  0  0  0  0
  150.7778  140.9557  156.3499 C   0  0  0  0  0  0  0  0  0  0  0  0
  151.6055  140.0916  156.9711 N   0  0  0  0  0  0  0  0  0  0  0  0
  151.8503  138.7117  156.5771 C   0  0  0  0  0  0  0  0  0  0  0  0
  152.4391  138.5941  155.1567 C   0  0  2  0  0  0  0  0  0  0  0  0
  153.0797  139.8058  154.8084 O   0  0  0  0  0  0  0  0  0  0  0  0
  151.3510  138.3088  154.1111 C   0  0  0  0  0  0  0  0  0  0  0  0
  150.4002  139.3656  154.1362 O   0  0  0  0  0  0  0  0  0  0  0  0
  149.0526  138.9415  153.9784 C   0  0  0  0  0  0  0  0  0  0  0  0
  148.1759  140.1527  153.9869 C   0  0  0  0  0  0  0  0  0  0  0  0
  147.1853  140.6022  153.1582 C   0  0  0  0  0  0  0  0  0  0  0  0
  146.7348  141.8358  153.7042 C   0  0  0  0  0  0  0  0  0  0  0  0
  147.4842  142.0466  154.8265 C   0  0  0  0  0  0  0  0  0  0  0  0
  148.3674  141.0284  155.0141 O   0  0  0  0  0  0  0  0  0  0  0  0
  151.9424  143.0225  158.9497 N   0  0  0  0  0  0  0  0  0  0  0  0
  151.3569  144.3648  158.8914 C   0  0  0  0  0  0  0  0  0  0  0  0
  152.8274  142.7048  159.9492 C   0  0  0  0  0  0  0  0  0  0  0  0
  153.1294  143.5431  160.8037 O   0  0  0  0  0  0  0  0  0  0  0  0
  154.7596  140.1435  161.0348 H   0  0  0  0  0  0  0  0  0  0  0  0
  153.8157  141.2272  162.0328 H   0  0  0  0  0  0  0  0  0  0  0  0
  155.1459  141.8458  161.0523 H   0  0  0  0  0  0  0  0  0  0  0  0
  150.2079  140.6824  155.4739 H   0  0  0  0  0  0  0  0  0  0  0  0
  152.5451  138.2782  157.2976 H   0  0  0  0  0  0  0  0  0  0  0  0
  150.9313  138.1349  156.6702 H   0  0  0  0  0  0  0  0  0  0  0  0
  153.1771  137.7908  155.1459 H   0  0  0  0  0  0  0  0  0  0  0  0
  152.4339  140.4960  154.8106 H   0  0  0  0  0  0  0  0  0  0  0  0
  151.7977  138.2778  153.1162 H   0  0  0  0  0  0  0  0  0  0  0  0
  150.8914  137.3347  154.2871 H   0  0  0  0  0  0  0  0  0  0  0  0
  148.9588  138.4299  153.0205 H   0  0  0  0  0  0  0  0  0  0  0  0
  148.7645  138.2290  154.7530 H   0  0  0  0  0  0  0  0  0  0  0  0
  146.8313  140.1048  152.2673 H   0  0  0  0  0  0  0  0  0  0  0  0
  145.9612  142.4869  153.3242 H   0  0  0  0  0  0  0  0  0  0  0  0
  147.5179  142.8292  155.5700 H   0  0  0  0  0  0  0  0  0  0  0  0
  152.1390  145.1186  158.7894 H   0  0  0  0  0  0  0  0  0  0  0  0
  150.7949  144.5773  159.8020 H   0  0  0  0  0  0  0  0  0  0  0  0
  150.6742  144.4927  158.0513 H   0  0  0  0  0  0  0  0  0  0  0  0
  1  2  1  0  0  0  0
  1 25  1  0  0  0  0
  1 26  1  0  0  0  0
  1 27  1  0  0  0  0
  2 23  1  0  0  0  0
  2  3  1  0  0  0  0
  3  4  2  0  0  0  0
  3  5  1  0  0  0  0
  5  9  1  0  0  0  0
  5  6  2  0  0  0  0
  6  7  1  0  0  0  0
  6 21  1  0  0  0  0
  7  8  2  0  0  0  0
  8  9  1  0  0  0  0
  8 28  1  0  0  0  0
  9 10  1  0  0  0  0
 10 11  1  0  0  0  0
 10 29  1  0  0  0  0
 10 30  1  0  0  0  0
 11 12  1  0  0  0  0
 11 13  1  0  0  0  0
 11 31  1  0  0  0  0
 12 32  1  0  0  0  0
 13 14  1  0  0  0  0
 13 33  1  0  0  0  0
 13 34  1  0  0  0  0
 14 15  1  0  0  0  0
 15 16  1  0  0  0  0
 15 35  1  0  0  0  0
 15 36  1  0  0  0  0
 16 20  1  0  0  0  0
 16 17  2  0  0  0  0
 17 18  1  0  0  0  0
 17 37  1  0  0  0  0
 18 19  2  0  0  0  0
 18 38  1  0  0  0  0
 19 20  1  0  0  0  0
 19 39  1  0  0  0  0
 21 22  1  0  0  0  0
 21 23  1  0  0  0  0
 22 40  1  0  0  0  0
 22 41  1  0  0  0  0
 22 42  1  0  0  0  0
 23 24  2  0  0  0  0
M  END
> <s_m_source_file>
AV-unprocessed.smi

> <i_m_source_file_index>
856

> <i_lp_mmshare_version>
43012

> <i_f3d_flags>
0

> <s_epik_input>
Tz1jMW4oW0NIM10pYyg9TyluKFtDSDNdKWMoYzEyKW5bY0hdbjJbQ0gyXVtDQEhdKFtPSF0pW0NIMl1PW0NIMl1jM1tjSF1bY0hdW2NIXW8z

> <s_epik_cmdline>
J2VwaWtfcHl0aG9uJywgJy1waCcsICc3LjAnLCAnLXRuJywgJzgnLCAnLW1hJywgJzIwMCcsICctbWV0YWxfYmluZGluZycsICctaW1hZScsICc8aW5maWxlLm1hZT4nLCAnLW9tYWUnLCAnPG91dGZpbGUubWFlPic=

> <r_lp_tautomer_probability>
1

> <r_epik_Ionization_Penalty>
1.33189e-06

> <r_epik_Ionization_Penalty_Charging>
3.64616e-09

> <r_epik_Ionization_Penalty_Neutral>
1.32824e-06

> <r_epik_State_Penalty>
-0

> <r_epik_Charging_Adjusted_Penalty>
3.64616e-09

> <i_epik_Tot_Q>
0

> <i_epik_Tot_abs_Q>
0

> <r_epik_Metal_State_Penalty>
-0

> <b_epik_Metal_Only>
0

> <s_lp_Force_Field>
OPLS_2005

> <r_lp_Energy>
33.5677

> <b_lp_Chiralities_Consistent>
1

> <s_lp_Variant>
AV-unprocessed.smi:856-1

> <Gold.Version>
5.8.1

> <Gold.Id.Protein>
6NUR|6NUR_protein|mol2

> <Gold.PLP.Fitness>
53.3245

> <Gold.PLP.PLP>
-46.4310

> <Gold.PLP.part.hbond>
-2.9132

> <Gold.PLP.part.metal>
0.0000

> <Gold.PLP.part.buried>
-0.9452

> <Gold.PLP.part.nonpolar>
-41.3926

> <Gold.PLP.part.repulsive>
0.4266

> <Gold.PLP.ligand.clash>
0.0162

> <Gold.PLP.ligand.torsion>
0.8681

> <Gold.PLP.Chemscore.Hbond>
1.8613

> <Gold.PLP.Chemscore.CHOScore>
1.0000

> <Gold.PLP.Chemscore.Metal>
0.0000

> <Gold.Chemscore.Hbonds>
donor molecule, donor type, donor heavy atom, donor atom, acceptor molecule, acceptor atom, score
      P1  H  7989  7998       L1    14  0.88
      P1  H  7997  8008       L1    12  1.00
      L1  C    19    39       P1  8028  0.99

> <Gold.PLP.Chemscore.Internal.Correction>
0.0621

> <Gold.Rescore>
     Score         DG    S(hbond)    S(metal)    S(lipo)     H(rot)  DE(clash)    DE(int)     intcor
      5.68     -10.58       1.05        0.00      82.73       3.16       0.13       4.77       ----

> <Gold.Chemscore.Fitness>
5.6814

> <Gold.Chemscore.DG>
-10.5781

> <Gold.Chemscore.ZeroCoef>
-5.4800

> <Gold.Chemscore.Hbond>
1.0504

> <Gold.Chemscore.Metal>
0.0000

> <Gold.Chemscore.Lipo>
82.7274

> <Gold.Chemscore.Internal_Hbond>
0.0000

> <Gold.Chemscore.DEClash>
0.1279

> <Gold.Chemscore.DEInternal>
4.7688

> <Gold.Chemscore.Rot>
3.1599

> <Gold.Chemscore.Internal.Correction>
   9.000000E+99

> <Gold.Chemscore.Hbonds>
donor molecule, donor type, donor heavy atom, donor atom, acceptor molecule, acceptor atom, score
      P1  H  7989  7998       L1    14  0.16
      P1  H  7997  8008       L1    12  0.58

> <Gold.Chemscore.Hbond.Weighted>
-3.5083

> <Gold.Chemscore.Metal.Weighted>
-0.0000

> <Gold.Chemscore.Lipo.Weighted>
-9.6791

> <Gold.Chemscore.Internal_Hbond.Weighted>
0.0000

> <Gold.Chemscore.DEClash.Weighted>
0.1279

> <Gold.Chemscore.DEInternal.Weighted>
4.7688

> <Gold.Chemscore.Rot.Weighted>
8.0893

> <Gold.Chemscore.Internal.Correction.Weighted>
   9.000000E+99

> <Gold.Protein.RotatedTorsions>
[ 6907 6896 6895 6894 ] final   55.32 input  -60.11 | X-H torsion
[ 7974 7965 7964 7962 ] final -145.25 input  175.53 | X-H torsion
[ 8008 7997 7996 7995 ] final  -22.38 input   59.86 | X-H torsion
[ 10167 10162 10161 10158 ] final   72.26 input  -65.29 | X-H torsion
[ 10718 10713 10712 10709 ] final  -28.94 input   66.30 | X-H torsion
[ 10763 10752 10751 10750 ] final   -2.97 input  -60.55 | X-H torsion
[ 11005 11000 10999 10996 ] final -119.83 input  -57.11 | X-H torsion

> <Gold.Protein.ActiveResidues>
 VAL166  LYS551  ARG553  GLY616  TRP617  ASP618  TYR619  PRO620  LYS621  CYS622 
 ASP623  PHE694  ASN695  SER759  ASP760  ASP761  ALA762  ILE779  LEU786  VAL792 
 PHE793  MET794  SER795  GLU796  ALA797  LYS798  CYS799  TRP800  GLU811  SER814 

> <Gold.Protein.RotatedAtoms>
  152.3527  134.6983  160.0231 H   0  0  0  0  0  0  0  0  0  0  0  0  # atno 6907 bound_to 6896
  151.7331  133.3313  159.3354 H   0  0  0  0  0  0  0  0  0  0  0  0  # atno 6908 bound_to 6896
  150.7551  134.6279  159.6215 H   0  0  0  0  0  0  0  0  0  0  0  0  # atno 6909 bound_to 6896
  144.8241  140.5608  143.5559 H   0  0  0  0  0  0  0  0  0  0  0  0  # atno 7974 bound_to 7965
  154.4647  140.2009  156.0149 H   0  0  0  0  0  0  0  0  0  0  0  0  # atno 8008 bound_to 7997
  156.0905  140.3258  155.7781 H   0  0  0  0  0  0  0  0  0  0  0  0  # atno 8009 bound_to 7997
  155.4963  140.0550  157.2937 H   0  0  0  0  0  0  0  0  0  0  0  0  # atno 8010 bound_to 7997
  140.0372  144.5418  150.7461 H   0  0  0  0  0  0  0  0  0  0  0  0  # atno 10167 bound_to 10162
  156.4188  130.4422  149.7198 H   0  0  0  0  0  0  0  0  0  0  0  0  # atno 10718 bound_to 10713
  153.3652  135.6992  153.6681 H   0  0  0  0  0  0  0  0  0  0  0  0  # atno 10763 bound_to 10752
  153.5354  135.3584  155.2695 H   0  0  0  0  0  0  0  0  0  0  0  0  # atno 10764 bound_to 10752
  154.8674  135.4190  154.2917 H   0  0  0  0  0  0  0  0  0  0  0  0  # atno 10765 bound_to 10752
  141.0187  134.0157  157.3313 H   0  0  0  0  0  0  0  0  0  0  0  0  # atno 11005 bound_to 11000
  145.5040  139.1482  143.3641 LP  0  0  0  0  0  0  0  0  0  0  0  0  # atno 17320 bound_to 7965
  146.2546  140.5180  142.8879 LP  0  0  0  0  0  0  0  0  0  0  0  0  # atno 17321 bound_to 7965
  140.7276  143.2653  151.4066 LP  0  0  0  0  0  0  0  0  0  0  0  0  # atno 17342 bound_to 10162
  139.6037  144.1242  152.2226 LP  0  0  0  0  0  0  0  0  0  0  0  0  # atno 17343 bound_to 10162
  156.4147  130.7739  151.2754 LP  0  0  0  0  0  0  0  0  0  0  0  0  # atno 17370 bound_to 10713
  157.7508  131.0201  150.3693 LP  0  0  0  0  0  0  0  0  0  0  0  0  # atno 17371 bound_to 10713
  139.9133  135.0193  156.7779 LP  0  0  0  0  0  0  0  0  0  0  0  0  # atno 17394 bound_to 11000
  140.6610  133.9645  155.7805 LP  0  0  0  0  0  0  0  0  0  0  0  0  # atno 17395 bound_to 11000

$$$$
