AV-unprocessed.smi:3285|AV-procd|sdf|12584|dock9
  -GOLD-   2272018503D 1   1.00000     0.00000
 Structure written by MMmdl.
 45 46  0  0  0  0  0  0  0  0  2 V2000
  147.3835  140.6712  157.3055 C   0  0  0  0  0  0  0  0  0  0  0  0
  146.7716  141.6057  156.3015 C   0  0  0  0  0  0  0  0  0  0  0  0
  145.6655  142.2567  156.6173 N   0  0  0  0  0  0  0  0  0  0  0  0
  145.3434  143.0317  155.4996 O   0  0  0  0  0  0  0  0  0  0  0  0
  146.2794  142.8147  154.5419 C   0  0  0  0  0  0  0  0  0  0  0  0
  146.1047  143.5670  153.2654 C   0  0  0  0  0  0  0  0  0  0  0  0
  147.2182  141.9228  154.9857 C   0  0  0  0  0  0  0  0  0  0  0  0
  148.4368  141.3975  154.2689 C   0  0  0  0  0  0  0  0  0  0  0  0
  149.6365  141.2309  155.2140 C   0  0  0  0  0  0  0  0  0  0  0  0
  149.7529  142.3775  156.1405 N   0  3  0  0  0  0  0  0  0  0  0  0
  150.9857  142.4164  156.9563 C   0  0  2  0  0  0  0  0  0  0  0  0
  151.0278  141.1920  157.8832 C   0  0  0  0  0  0  0  0  0  0  0  0
  152.2874  141.2018  158.7595 C   0  0  0  0  0  0  0  0  0  0  0  0
  152.3985  142.4918  159.5964 C   0  0  1  0  0  0  0  0  0  0  0  0
  153.6703  142.4441  160.4617 C   0  0  0  0  0  0  0  0  0  0  0  0
  152.3359  143.7437  158.6814 C   0  0  2  0  0  0  0  0  0  0  0  0
  152.3810  145.0646  159.4700 C   0  0  0  0  0  0  0  0  0  0  0  0
  151.0763  143.7095  157.7900 C   0  0  0  0  0  0  0  0  0  0  0  0
  148.4088  140.4142  157.0401 H   0  0  0  0  0  0  0  0  0  0  0  0
  146.8158  139.7430  157.3709 H   0  0  0  0  0  0  0  0  0  0  0  0
  147.4048  141.1183  158.2997 H   0  0  0  0  0  0  0  0  0  0  0  0
  146.8918  143.3244  152.5517 H   0  0  0  0  0  0  0  0  0  0  0  0
  146.1333  144.6417  153.4445 H   0  0  0  0  0  0  0  0  0  0  0  0
  145.1468  143.3269  152.8039 H   0  0  0  0  0  0  0  0  0  0  0  0
  148.2184  140.4346  153.8061 H   0  0  0  0  0  0  0  0  0  0  0  0
  148.7160  142.0538  153.4442 H   0  0  0  0  0  0  0  0  0  0  0  0
  149.5301  140.3081  155.7860 H   0  0  0  0  0  0  0  0  0  0  0  0
  150.5505  141.1403  154.6272 H   0  0  0  0  0  0  0  0  0  0  0  0
  149.6733  143.2390  155.6196 H   0  0  0  0  0  0  0  0  0  0  0  0
  151.8430  142.3614  156.2833 H   0  0  0  0  0  0  0  0  0  0  0  0
  150.1422  141.1749  158.5205 H   0  0  0  0  0  0  0  0  0  0  0  0
  151.0019  140.2749  157.2932 H   0  0  0  0  0  0  0  0  0  0  0  0
  152.2739  140.3319  159.4172 H   0  0  0  0  0  0  0  0  0  0  0  0
  153.1704  141.0942  158.1275 H   0  0  0  0  0  0  0  0  0  0  0  0
  151.5429  142.5220  160.2731 H   0  0  0  0  0  0  0  0  0  0  0  0
  154.5701  142.4913  159.8476 H   0  0  0  0  0  0  0  0  0  0  0  0
  153.7140  141.5218  161.0418 H   0  0  0  0  0  0  0  0  0  0  0  0
  153.7061  143.2669  161.1752 H   0  0  0  0  0  0  0  0  0  0  0  0
  153.2062  143.7258  158.0234 H   0  0  0  0  0  0  0  0  0  0  0  0
  151.5776  145.1160  160.2057 H   0  0  0  0  0  0  0  0  0  0  0  0
  152.2753  145.9218  158.8045 H   0  0  0  0  0  0  0  0  0  0  0  0
  153.3269  145.1900  159.9964 H   0  0  0  0  0  0  0  0  0  0  0  0
  151.0850  144.5779  157.1311 H   0  0  0  0  0  0  0  0  0  0  0  0
  150.1858  143.8069  158.4133 H   0  0  0  0  0  0  0  0  0  0  0  0
  148.9717  142.3181  156.7782 H   0  0  0  0  0  0  0  0  0  0  0  0
  1  2  1  0  0  0  0
  1 19  1  0  0  0  0
  1 20  1  0  0  0  0
  1 21  1  0  0  0  0
  2  7  1  0  0  0  0
  2  3  2  0  0  0  0
  3  4  1  0  0  0  0
  4  5  1  0  0  0  0
  5  6  1  0  0  0  0
  5  7  2  0  0  0  0
  6 22  1  0  0  0  0
  6 23  1  0  0  0  0
  6 24  1  0  0  0  0
  7  8  1  0  0  0  0
  8  9  1  0  0  0  0
  8 25  1  0  0  0  0
  8 26  1  0  0  0  0
  9 10  1  0  0  0  0
  9 27  1  0  0  0  0
  9 28  1  0  0  0  0
 10 11  1  0  0  0  0
 10 29  1  0  0  0  0
 10 45  1  0  0  0  0
 11 18  1  0  0  0  0
 11 12  1  0  0  0  0
 11 30  1  0  0  0  0
 12 13  1  0  0  0  0
 12 31  1  0  0  0  0
 12 32  1  0  0  0  0
 13 14  1  0  0  0  0
 13 33  1  0  0  0  0
 13 34  1  0  0  0  0
 14 15  1  0  0  0  0
 14 16  1  0  0  0  0
 14 35  1  0  0  0  0
 15 36  1  0  0  0  0
 15 37  1  0  0  0  0
 15 38  1  0  0  0  0
 16 17  1  0  0  0  0
 16 18  1  0  0  0  0
 16 39  1  0  0  0  0
 17 40  1  0  0  0  0
 17 41  1  0  0  0  0
 17 42  1  0  0  0  0
 18 43  1  0  0  0  0
 18 44  1  0  0  0  0
M  CHG  1  10   1
M  END
> <s_m_source_file>
AV-unprocessed.smi

> <i_m_source_file_index>
3285

> <i_lp_mmshare_version>
43012

> <i_f3d_flags>
0

> <s_epik_input>
W0NIM11jMW5vYyhbQ0gzXSljMVtDSDJdW0NIMl1bTkhdW0NAQEhdMltDSDJdW0NIMl1bQ0BASF0oW0NIM10pW0NAQEhdKFtDSDNdKVtDSDJdMg==

> <s_epik_cmdline>
J2VwaWtfcHl0aG9uJywgJy1waCcsICc3LjAnLCAnLXRuJywgJzgnLCAnLW1hJywgJzIwMCcsICctbWV0YWxfYmluZGluZycsICctaW1hZScsICc8aW5maWxlLm1hZT4nLCAnLW9tYWUnLCAnPG91dGZpbGUubWFlPic=

> <r_lp_tautomer_probability>
1

> <r_epik_Ionization_Penalty>
0.000204615

> <r_epik_Ionization_Penalty_Charging>
0.000204615

> <r_epik_Ionization_Penalty_Neutral>
9.28663e-11

> <r_epik_State_Penalty>
-0

> <r_epik_Charging_Adjusted_Penalty>
0.000204615

> <i_epik_Tot_Q>
1

> <i_epik_Tot_abs_Q>
1

> <r_epik_Metal_State_Penalty>
-0

> <b_epik_Metal_Only>
0

> <s_lp_Force_Field>
OPLS_2005

> <r_lp_Energy>
12.3139

> <b_lp_Chiralities_Consistent>
1

> <s_lp_Variant>
AV-unprocessed.smi:3285-5

> <Gold.Version>
5.8.1

> <Gold.Id.Protein>
6NUR|6NUR_protein|mol2

> <Gold.PLP.Fitness>
46.4456

> <Gold.PLP.PLP>
-41.2899

> <Gold.PLP.part.hbond>
-1.0000

> <Gold.PLP.part.metal>
0.0000

> <Gold.PLP.part.buried>
-5.6214

> <Gold.PLP.part.nonpolar>
-35.1000

> <Gold.PLP.part.repulsive>
0.2896

> <Gold.PLP.ligand.clash>
0.0000

> <Gold.PLP.ligand.torsion>
0.4233

> <Gold.PLP.Chemscore.Hbond>
2.0000

> <Gold.PLP.Chemscore.CHOScore>
0.0000

> <Gold.PLP.Chemscore.Metal>
0.0000

> <Gold.Chemscore.Hbonds>
donor molecule, donor type, donor heavy atom, donor atom, acceptor molecule, acceptor atom, score
      L1  H    10    29       P1  8028  1.66

> <Gold.PLP.Chemscore.Internal.Correction>
0.0023

> <Gold.Rescore>
     Score         DG    S(hbond)    S(metal)    S(lipo)     H(rot)  DE(clash)    DE(int)     intcor
     18.52     -18.80       0.99        0.00     115.07       1.35       0.00       0.27       ----

> <Gold.Chemscore.Fitness>
18.5209

> <Gold.Chemscore.DG>
-18.7974

> <Gold.Chemscore.ZeroCoef>
-5.4800

> <Gold.Chemscore.Hbond>
0.9884

> <Gold.Chemscore.Metal>
0.0000

> <Gold.Chemscore.Lipo>
115.0680

> <Gold.Chemscore.Internal_Hbond>
0.0000

> <Gold.Chemscore.DEClash>
0.0033

> <Gold.Chemscore.DEInternal>
0.2731

> <Gold.Chemscore.Rot>
1.3465

> <Gold.Chemscore.Internal.Correction>
   9.000000E+99

> <Gold.Chemscore.Hbonds>
donor molecule, donor type, donor heavy atom, donor atom, acceptor molecule, acceptor atom, score
      L1  H    10    29       P1  8028  0.83

> <Gold.Chemscore.Hbond.Weighted>
-3.3014

> <Gold.Chemscore.Metal.Weighted>
-0.0000

> <Gold.Chemscore.Lipo.Weighted>
-13.4630

> <Gold.Chemscore.Internal_Hbond.Weighted>
0.0000

> <Gold.Chemscore.DEClash.Weighted>
0.0033

> <Gold.Chemscore.DEInternal.Weighted>
0.2731

> <Gold.Chemscore.Rot.Weighted>
3.4470

> <Gold.Chemscore.Internal.Correction.Weighted>
   9.000000E+99

> <Gold.Protein.RotatedTorsions>
[ 6907 6896 6895 6894 ] final  134.27 input  -60.11 | X-H torsion
[ 7974 7965 7964 7962 ] final  177.84 input  175.53 | X-H torsion
[ 8008 7997 7996 7995 ] final -142.51 input   59.86 | X-H torsion
[ 10167 10162 10161 10158 ] final -176.91 input  -65.29 | X-H torsion
[ 10718 10713 10712 10709 ] final  -26.65 input   66.30 | X-H torsion
[ 10763 10752 10751 10750 ] final  -59.75 input  -60.55 | X-H torsion
[ 11005 11000 10999 10996 ] final    7.93 input  -57.11 | X-H torsion

> <Gold.Protein.ActiveResidues>
 VAL166  LYS551  ARG553  GLY616  TRP617  ASP618  TYR619  PRO620  LYS621  CYS622 
 ASP623  PHE694  ASN695  SER759  ASP760  ASP761  ALA762  ILE779  LEU786  VAL792 
 PHE793  MET794  SER795  GLU796  ALA797  LYS798  CYS799  TRP800  GLU811  SER814 

> <Gold.Protein.RotatedAtoms>
  152.3131  133.5774  159.5693 H   0  0  0  0  0  0  0  0  0  0  0  0  # atno 6907 bound_to 6896
  150.7333  134.0123  159.3682 H   0  0  0  0  0  0  0  0  0  0  0  0  # atno 6908 bound_to 6896
  151.8013  135.0708  160.0451 H   0  0  0  0  0  0  0  0  0  0  0  0  # atno 6909 bound_to 6896
  144.7163  140.0308  143.6439 H   0  0  0  0  0  0  0  0  0  0  0  0  # atno 7974 bound_to 7965
  155.4955  140.0571  157.2947 H   0  0  0  0  0  0  0  0  0  0  0  0  # atno 8008 bound_to 7997
  154.4607  140.1995  156.0204 H   0  0  0  0  0  0  0  0  0  0  0  0  # atno 8009 bound_to 7997
  156.0884  140.3237  155.7788 H   0  0  0  0  0  0  0  0  0  0  0  0  # atno 8010 bound_to 7997
  139.5506  144.2119  152.1070 H   0  0  0  0  0  0  0  0  0  0  0  0  # atno 10167 bound_to 10162
  156.4484  130.4479  149.7006 H   0  0  0  0  0  0  0  0  0  0  0  0  # atno 10718 bound_to 10713
  154.2586  135.6312  153.5266 H   0  0  0  0  0  0  0  0  0  0  0  0  # atno 10763 bound_to 10752
  152.9899  135.5582  154.5729 H   0  0  0  0  0  0  0  0  0  0  0  0  # atno 10764 bound_to 10752
  154.5273  135.2886  155.1186 H   0  0  0  0  0  0  0  0  0  0  0  0  # atno 10765 bound_to 10752
  140.5427  134.0359  155.7909 H   0  0  0  0  0  0  0  0  0  0  0  0  # atno 11005 bound_to 11000
  146.0104  139.3165  143.0874 LP  0  0  0  0  0  0  0  0  0  0  0  0  # atno 17320 bound_to 7965
  145.8689  140.9432  143.0661 LP  0  0  0  0  0  0  0  0  0  0  0  0  # atno 17321 bound_to 7965
  140.1614  144.5022  150.6630 LP  0  0  0  0  0  0  0  0  0  0  0  0  # atno 17342 bound_to 10162
  140.6767  143.2308  151.5488 LP  0  0  0  0  0  0  0  0  0  0  0  0  # atno 17343 bound_to 10162
  156.3843  130.7595  151.2590 LP  0  0  0  0  0  0  0  0  0  0  0  0  # atno 17370 bound_to 10713
  157.7504  131.0286  150.4058 LP  0  0  0  0  0  0  0  0  0  0  0  0  # atno 17371 bound_to 10713
  141.1218  133.9449  157.2715 LP  0  0  0  0  0  0  0  0  0  0  0  0  # atno 17394 bound_to 11000
  139.9495  135.0178  156.8953 LP  0  0  0  0  0  0  0  0  0  0  0  0  # atno 17395 bound_to 11000

$$$$
