AV-unprocessed.smi:470|AV-procd|sdf|2654|dock3
  -GOLD-   2262023 63D 1   1.00000     0.00000
 Structure written by MMmdl.
 33 34  0  0  0  0  0  0  0  0  1 V2000
  149.9467  135.9143  154.5605 N   0  0  0  0  0  0  0  0  0  0  0  0
  150.9155  136.7751  154.8847 C   0  0  0  0  0  0  0  0  0  0  0  0
  151.7215  136.5492  155.7849 O   0  0  0  0  0  0  0  0  0  0  0  0
  150.9934  138.0751  154.0822 C   0  0  0  0  0  0  0  0  0  0  0  0
  150.6566  139.2471  154.9574 C   0  0  0  0  0  0  0  0  0  0  0  0
  149.4094  139.7767  155.1845 C   0  0  0  0  0  0  0  0  0  0  0  0
  149.4668  141.1499  156.2569 S   0  0  0  0  0  0  0  0  0  0  0  0
  151.2040  140.9253  156.3897 C   0  0  0  0  0  0  0  0  0  0  0  0
  152.0174  141.8047  157.1506 N   0  0  0  0  0  0  0  0  0  0  0  0
  151.6957  142.9102  157.8533 C   0  0  0  0  0  0  0  0  0  0  0  0
  150.5180  143.2606  157.9146 O   0  0  0  0  0  0  0  0  0  0  0  0
  152.7679  143.7250  158.6185 C   0  0  2  0  0  0  0  0  0  0  0  0
  153.4585  142.8971  159.7342 C   0  0  0  0  0  0  0  0  0  0  0  0
  152.6741  142.8541  161.0360 C   0  0  0  0  0  0  0  0  0  0  0  0
  151.6639  143.6928  161.3209 C   0  0  0  0  0  0  0  0  0  0  0  0
  151.1857  144.7761  160.3719 C   0  0  0  0  0  0  0  0  0  0  0  0
  152.1791  145.0245  159.2175 C   0  0  0  0  0  0  0  0  0  0  0  0
  151.6726  139.9189  155.6453 N   0  0  0  0  0  0  0  0  0  0  0  0
  149.8553  135.0475  155.0700 H   0  0  0  0  0  0  0  0  0  0  0  0
  149.3050  136.1359  153.8128 H   0  0  0  0  0  0  0  0  0  0  0  0
  151.9980  138.1821  153.6708 H   0  0  0  0  0  0  0  0  0  0  0  0
  150.3169  138.0165  153.2281 H   0  0  0  0  0  0  0  0  0  0  0  0
  148.4646  139.4488  154.7767 H   0  0  0  0  0  0  0  0  0  0  0  0
  152.9986  141.5670  157.1601 H   0  0  0  0  0  0  0  0  0  0  0  0
  153.5636  143.9804  157.9213 H   0  0  0  0  0  0  0  0  0  0  0  0
  153.6333  141.8743  159.3971 H   0  0  0  0  0  0  0  0  0  0  0  0
  154.4412  143.3160  159.9526 H   0  0  0  0  0  0  0  0  0  0  0  0
  152.9749  142.1112  161.7602 H   0  0  0  0  0  0  0  0  0  0  0  0
  151.1396  143.6024  162.2609 H   0  0  0  0  0  0  0  0  0  0  0  0
  150.2128  144.4779  159.9800 H   0  0  0  0  0  0  0  0  0  0  0  0
  151.0302  145.6994  160.9302 H   0  0  0  0  0  0  0  0  0  0  0  0
  153.0036  145.6335  159.5901 H   0  0  0  0  0  0  0  0  0  0  0  0
  151.6951  145.6256  158.4474 H   0  0  0  0  0  0  0  0  0  0  0  0
  1  2  1  0  0  0  0
  1 19  1  0  0  0  0
  1 20  1  0  0  0  0
  2  3  2  0  0  0  0
  2  4  1  0  0  0  0
  4  5  1  0  0  0  0
  4 21  1  0  0  0  0
  4 22  1  0  0  0  0
  5 18  1  0  0  0  0
  5  6  2  0  0  0  0
  6  7  1  0  0  0  0
  6 23  1  0  0  0  0
  7  8  1  0  0  0  0
  8  9  1  0  0  0  0
  8 18  2  0  0  0  0
  9 10  1  0  0  0  0
  9 24  1  0  0  0  0
 10 11  2  0  0  0  0
 10 12  1  0  0  0  0
 12 17  1  0  0  0  0
 12 13  1  0  0  0  0
 12 25  1  0  0  0  0
 13 14  1  0  0  0  0
 13 26  1  0  0  0  0
 13 27  1  0  0  0  0
 14 15  2  0  0  0  0
 14 28  1  0  0  0  0
 15 16  1  0  0  0  0
 15 29  1  0  0  0  0
 16 17  1  0  0  0  0
 16 30  1  0  0  0  0
 16 31  1  0  0  0  0
 17 32  1  0  0  0  0
 17 33  1  0  0  0  0
M  END
> <s_m_source_file>
AV-unprocessed.smi

> <i_m_source_file_index>
470

> <i_lp_mmshare_version>
43012

> <i_f3d_flags>
0

> <s_epik_input>
W05IMl1DKD1PKVtDSDJdYzFbY0hdc2MobjEpW05IXUMoPU8pW0NAQEhdMltDSDJdW0NIXT1bQ0hdW0NIMl1bQ0gyXTI=

> <s_epik_cmdline>
J2VwaWtfcHl0aG9uJywgJy1waCcsICc3LjAnLCAnLXRuJywgJzgnLCAnLW1hJywgJzIwMCcsICctbWV0YWxfYmluZGluZycsICctaW1hZScsICc8aW5maWxlLm1hZT4nLCAnLW9tYWUnLCAnPG91dGZpbGUubWFlPic=

> <r_lp_tautomer_probability>
1

> <r_epik_Ionization_Penalty>
0.00025496

> <r_epik_Ionization_Penalty_Charging>
0

> <r_epik_Ionization_Penalty_Neutral>
0.00025496

> <r_epik_State_Penalty>
-0

> <r_epik_Charging_Adjusted_Penalty>
0

> <i_epik_Tot_Q>
0

> <i_epik_Tot_abs_Q>
0

> <r_epik_Metal_State_Penalty>
0.149391

> <b_epik_Metal_Only>
0

> <s_lp_Force_Field>
OPLS_2005

> <r_lp_Energy>
11.789

> <b_lp_Chiralities_Consistent>
1

> <s_lp_Variant>
AV-unprocessed.smi:470-1

> <Gold.Version>
5.8.1

> <Gold.Id.Protein>
6NUR|6NUR_protein|mol2

> <Gold.PLP.Fitness>
42.0766

> <Gold.PLP.PLP>
-37.2308

> <Gold.PLP.part.hbond>
-2.5976

> <Gold.PLP.part.metal>
0.0000

> <Gold.PLP.part.buried>
-2.7232

> <Gold.PLP.part.nonpolar>
-34.8560

> <Gold.PLP.part.repulsive>
0.5581

> <Gold.PLP.ligand.clash>
0.0000

> <Gold.PLP.ligand.torsion>
0.4878

> <Gold.PLP.Chemscore.Hbond>
1.9280

> <Gold.PLP.Chemscore.CHOScore>
0.0000

> <Gold.PLP.Chemscore.Metal>
0.0000

> <Gold.Chemscore.Hbonds>
donor molecule, donor type, donor heavy atom, donor atom, acceptor molecule, acceptor atom, score
      L1  H     1    20       P1  7948  0.93
      P1  H 10752 10765       L1     3  1.00

> <Gold.PLP.Chemscore.Internal.Correction>
0.0374

> <Gold.Rescore>
     Score         DG    S(hbond)    S(metal)    S(lipo)     H(rot)  DE(clash)    DE(int)     intcor
     13.47     -17.74       1.64        0.00      99.43       1.90       1.48       2.80       ----

> <Gold.Chemscore.Fitness>
13.4661

> <Gold.Chemscore.DG>
-17.7441

> <Gold.Chemscore.ZeroCoef>
-5.4800

> <Gold.Chemscore.Hbond>
1.6427

> <Gold.Chemscore.Metal>
0.0000

> <Gold.Chemscore.Lipo>
99.4298

> <Gold.Chemscore.Internal_Hbond>
0.0000

> <Gold.Chemscore.DEClash>
1.4773

> <Gold.Chemscore.DEInternal>
2.8007

> <Gold.Chemscore.Rot>
1.8968

> <Gold.Chemscore.Internal.Correction>
   9.000000E+99

> <Gold.Chemscore.Hbonds>
donor molecule, donor type, donor heavy atom, donor atom, acceptor molecule, acceptor atom, score
      L1  H     1    20       P1  7948  0.74
      P1  H 10752 10765       L1     3  0.64

> <Gold.Chemscore.Hbond.Weighted>
-5.4867

> <Gold.Chemscore.Metal.Weighted>
-0.0000

> <Gold.Chemscore.Lipo.Weighted>
-11.6333

> <Gold.Chemscore.Internal_Hbond.Weighted>
0.0000

> <Gold.Chemscore.DEClash.Weighted>
1.4773

> <Gold.Chemscore.DEInternal.Weighted>
2.8007

> <Gold.Chemscore.Rot.Weighted>
4.8558

> <Gold.Chemscore.Internal.Correction.Weighted>
   9.000000E+99

> <Gold.Protein.RotatedTorsions>
[ 6907 6896 6895 6894 ] final  160.92 input  -60.11 | X-H torsion
[ 7974 7965 7964 7962 ] final   -7.78 input  175.53 | X-H torsion
[ 8008 7997 7996 7995 ] final   71.29 input   59.86 | X-H torsion
[ 10167 10162 10161 10158 ] final  -55.63 input  -65.29 | X-H torsion
[ 10718 10713 10712 10709 ] final   29.90 input   66.30 | X-H torsion
[ 10763 10752 10751 10750 ] final -149.39 input  -60.55 | X-H torsion
[ 11005 11000 10999 10996 ] final -129.06 input  -57.11 | X-H torsion

> <Gold.Protein.ActiveResidues>
 VAL166  LYS551  ARG553  GLY616  TRP617  ASP618  TYR619  PRO620  LYS621  CYS622 
 ASP623  PHE694  ASN695  SER759  ASP760  ASP761  ALA762  ILE779  LEU786  VAL792 
 PHE793  MET794  SER795  GLU796  ALA797  LYS798  CYS799  TRP800  GLU811  SER814 

> <Gold.Protein.RotatedAtoms>
  151.9634  133.3702  159.4043 H   0  0  0  0  0  0  0  0  0  0  0  0  # atno 6907 bound_to 6896
  150.6960  134.4217  159.5217 H   0  0  0  0  0  0  0  0  0  0  0  0  # atno 6908 bound_to 6896
  152.1909  134.8673  160.0568 H   0  0  0  0  0  0  0  0  0  0  0  0  # atno 6909 bound_to 6896
  146.2298  140.2371  142.8342 H   0  0  0  0  0  0  0  0  0  0  0  0  # atno 7974 bound_to 7965
  155.7516  140.3488  155.5153 H   0  0  0  0  0  0  0  0  0  0  0  0  # atno 8008 bound_to 7997
  155.8999  140.1032  157.1379 H   0  0  0  0  0  0  0  0  0  0  0  0  # atno 8009 bound_to 7997
  154.4042  140.1288  156.4409 H   0  0  0  0  0  0  0  0  0  0  0  0  # atno 8010 bound_to 7997
  140.6364  143.2484  151.5107 H   0  0  0  0  0  0  0  0  0  0  0  0  # atno 10167 bound_to 10162
  157.2526  130.7122  149.6413 H   0  0  0  0  0  0  0  0  0  0  0  0  # atno 10718 bound_to 10713
  154.8180  135.3310  154.7121 H   0  0  0  0  0  0  0  0  0  0  0  0  # atno 10763 bound_to 10752
  153.7759  135.6922  153.4902 H   0  0  0  0  0  0  0  0  0  0  0  0  # atno 10764 bound_to 10752
  153.2013  135.4515  155.0218 H   0  0  0  0  0  0  0  0  0  0  0  0  # atno 10765 bound_to 10752
  140.9463  134.1125  157.4104 H   0  0  0  0  0  0  0  0  0  0  0  0  # atno 11005 bound_to 11000
  144.9513  140.8181  143.5570 LP  0  0  0  0  0  0  0  0  0  0  0  0  # atno 17320 bound_to 7965
  145.2332  139.2105  143.5032 LP  0  0  0  0  0  0  0  0  0  0  0  0  # atno 17321 bound_to 7965
  139.5574  144.2241  152.1635 LP  0  0  0  0  0  0  0  0  0  0  0  0  # atno 17342 bound_to 10162
  140.1499  144.5124  150.6693 LP  0  0  0  0  0  0  0  0  0  0  0  0  # atno 17343 bound_to 10162
  155.9666  130.4423  150.5375 LP  0  0  0  0  0  0  0  0  0  0  0  0  # atno 17370 bound_to 10713
  157.3262  131.0691  151.1895 LP  0  0  0  0  0  0  0  0  0  0  0  0  # atno 17371 bound_to 10713
  139.8834  135.0052  156.6301 LP  0  0  0  0  0  0  0  0  0  0  0  0  # atno 17394 bound_to 11000
  140.7664  133.8775  155.8457 LP  0  0  0  0  0  0  0  0  0  0  0  0  # atno 17395 bound_to 11000

$$$$
