AV-unprocessed.smi:2026|AV-procd|sdf|8207|dock1
  -GOLD-   2272010463D 1   1.00000     0.00000
 Structure written by MMmdl.
 46 48  0  0  0  0  0  0  0  0  3 V2000
  152.3614  142.8432  159.5041 C   0  0  0  0  0  0  0  0  0  0  0  0
  151.8845  141.9818  158.3474 C   0  0  0  0  0  0  0  0  0  0  0  0
  151.0059  142.5528  157.3981 C   0  0  0  0  0  0  0  0  0  0  0  0
  150.5867  141.7387  156.3520 C   0  0  0  0  0  0  0  0  0  0  0  0
  149.7384  141.9946  155.2715 N   0  3  0  0  0  0  0  0  0  0  0  0
  149.6296  140.8746  154.5030 C   0  0  0  0  0  0  0  0  0  0  0  0
  150.3958  139.9094  155.0781 N   0  0  0  0  0  0  0  0  0  0  0  0
  150.6453  138.5220  154.6713 C   0  0  0  0  0  0  0  0  0  0  0  0
  150.4604  137.5289  155.8374 C   0  0  2  0  0  0  0  0  0  0  0  0
  151.3539  136.4462  155.6736 O   0  0  0  0  0  0  0  0  0  0  0  0
  149.0272  136.9731  155.9603 C   0  0  0  0  0  0  0  0  0  0  0  0
  148.5332  137.0040  157.3434 N   0  0  0  0  0  0  0  0  0  0  0  0
  147.7312  137.9526  157.8647 C   0  0  0  0  0  0  0  0  0  0  0  0
  147.3236  138.9069  157.2034 O   0  0  0  0  0  0  0  0  0  0  0  0
  147.4706  137.7052  159.1699 N   0  5  0  0  0  0  0  0  0  0  0  0
  148.1544  136.4897  159.5625 C   0  0  0  0  0  0  0  0  0  0  0  0
  149.1727  136.7920  160.6783 C   0  0  0  0  0  0  0  0  0  0  0  0
  147.1342  135.4227  160.0019 C   0  0  0  0  0  0  0  0  0  0  0  0
  148.8457  136.0923  158.2708 C   0  0  0  0  0  0  0  0  0  0  0  0
  149.5706  135.1051  158.1405 O   0  0  0  0  0  0  0  0  0  0  0  0
  151.0115  140.4021  156.2325 C   0  0  0  0  0  0  0  0  0  0  0  0
  151.8782  139.8246  157.1561 C   0  0  0  0  0  0  0  0  0  0  0  0
  152.3165  140.6350  158.2268 C   0  0  0  0  0  0  0  0  0  0  0  0
  153.2637  140.0309  159.2494 C   0  0  0  0  0  0  0  0  0  0  0  0
  151.9145  143.8374  159.4726 H   0  0  0  0  0  0  0  0  0  0  0  0
  153.4444  142.9630  159.4694 H   0  0  0  0  0  0  0  0  0  0  0  0
  152.0929  142.3878  160.4577 H   0  0  0  0  0  0  0  0  0  0  0  0
  150.6756  143.5780  157.4822 H   0  0  0  0  0  0  0  0  0  0  0  0
  149.0453  140.7716  153.6001 H   0  0  0  0  0  0  0  0  0  0  0  0
  149.9745  138.2968  153.8420 H   0  0  0  0  0  0  0  0  0  0  0  0
  151.6587  138.4631  154.2718 H   0  0  0  0  0  0  0  0  0  0  0  0
  150.7281  138.0173  156.7747 H   0  0  0  0  0  0  0  0  0  0  0  0
  150.9880  135.6896  156.1053 H   0  0  0  0  0  0  0  0  0  0  0  0
  148.3577  137.5214  155.2958 H   0  0  0  0  0  0  0  0  0  0  0  0
  149.0027  135.9398  155.6094 H   0  0  0  0  0  0  0  0  0  0  0  0
  149.7304  135.8979  160.9591 H   0  0  0  0  0  0  0  0  0  0  0  0
  148.6742  137.1601  161.5755 H   0  0  0  0  0  0  0  0  0  0  0  0
  149.8949  137.5503  160.3737 H   0  0  0  0  0  0  0  0  0  0  0  0
  147.6320  134.4982  160.2970 H   0  0  0  0  0  0  0  0  0  0  0  0
  146.4335  135.1775  159.2023 H   0  0  0  0  0  0  0  0  0  0  0  0
  146.5496  135.7657  160.8562 H   0  0  0  0  0  0  0  0  0  0  0  0
  152.2077  138.8005  157.0590 H   0  0  0  0  0  0  0  0  0  0  0  0
  153.5396  139.0102  158.9833 H   0  0  0  0  0  0  0  0  0  0  0  0
  152.7967  140.0043  160.2340 H   0  0  0  0  0  0  0  0  0  0  0  0
  154.1822  140.6145  159.3157 H   0  0  0  0  0  0  0  0  0  0  0  0
  149.2688  142.8679  155.0695 H   0  0  0  0  0  0  0  0  0  0  0  0
  1  2  1  0  0  0  0
  1 25  1  0  0  0  0
  1 26  1  0  0  0  0
  1 27  1  0  0  0  0
  2 23  1  0  0  0  0
  2  3  2  0  0  0  0
  3  4  1  0  0  0  0
  3 28  1  0  0  0  0
  4 21  2  0  0  0  0
  4  5  1  0  0  0  0
  5  6  2  0  0  0  0
  5 46  1  0  0  0  0
  6  7  1  0  0  0  0
  6 29  1  0  0  0  0
  7  8  1  0  0  0  0
  7 21  1  0  0  0  0
  8  9  1  0  0  0  0
  8 30  1  0  0  0  0
  8 31  1  0  0  0  0
  9 10  1  0  0  0  0
  9 11  1  0  0  0  0
  9 32  1  0  0  0  0
 10 33  1  0  0  0  0
 11 12  1  0  0  0  0
 11 34  1  0  0  0  0
 11 35  1  0  0  0  0
 12 19  1  0  0  0  0
 12 13  1  0  0  0  0
 13 14  2  0  0  0  0
 13 15  1  0  0  0  0
 15 16  1  0  0  0  0
 16 17  1  0  0  0  0
 16 18  1  0  0  0  0
 16 19  1  0  0  0  0
 17 36  1  0  0  0  0
 17 37  1  0  0  0  0
 17 38  1  0  0  0  0
 18 39  1  0  0  0  0
 18 40  1  0  0  0  0
 18 41  1  0  0  0  0
 19 20  2  0  0  0  0
 21 22  1  0  0  0  0
 22 23  2  0  0  0  0
 22 42  1  0  0  0  0
 23 24  1  0  0  0  0
 24 43  1  0  0  0  0
 24 44  1  0  0  0  0
 24 45  1  0  0  0  0
M  CHG  1   5   1
M  CHG  1  15  -1
M  END
> <s_m_source_file>
AV-unprocessed.smi

> <i_m_source_file_index>
2026

> <i_lp_mmshare_version>
43012

> <i_f3d_flags>
0

> <s_epik_input>
W0NIM11jKFtjSF0xKWMoW0NIM10pW2NIXWMoYzEyKW4oW2NIXW4yKVtDSDJdW0NASF0oW09IXSlbQ0gyXU4oQzM9TylDKD1PKVtOSF1DMyhbQ0gzXSlbQ0gzXQ==

> <s_epik_cmdline>
J2VwaWtfcHl0aG9uJywgJy1waCcsICc3LjAnLCAnLXRuJywgJzgnLCAnLW1hJywgJzIwMCcsICctbWV0YWxfYmluZGluZycsICctaW1hZScsICc8aW5maWxlLm1hZT4nLCAnLW9tYWUnLCAnPG91dGZpbGUubWFlPic=

> <r_lp_tautomer_probability>
1

> <r_epik_Ionization_Penalty>
6.70784

> <r_epik_Ionization_Penalty_Charging>
6.70784

> <r_epik_Ionization_Penalty_Neutral>
1.13852e-06

> <r_epik_State_Penalty>
6.78089

> <r_epik_Charging_Adjusted_Penalty>
13.4887

> <i_epik_Tot_Q>
0

> <i_epik_Tot_abs_Q>
2

> <r_epik_Metal_State_Penalty>
2.84685

> <b_epik_Metal_Only>
1

> <s_lp_Force_Field>
OPLS_2005

> <r_lp_Energy>
17.8482

> <b_lp_Chiralities_Consistent>
1

> <s_lp_Variant>
AV-unprocessed.smi:2026-7

> <Gold.Version>
5.8.1

> <Gold.Id.Protein>
6NUR|6NUR_protein|mol2

> <Gold.PLP.Fitness>
46.8641

> <Gold.PLP.PLP>
-33.3161

> <Gold.PLP.part.hbond>
-3.9315

> <Gold.PLP.part.metal>
0.0000

> <Gold.PLP.part.buried>
1.4860

> <Gold.PLP.part.nonpolar>
-30.5589

> <Gold.PLP.part.repulsive>
0.2069

> <Gold.PLP.ligand.clash>
0.0000

> <Gold.PLP.ligand.torsion>
1.4554

> <Gold.PLP.Chemscore.Hbond>
4.4832

> <Gold.PLP.Chemscore.CHOScore>
0.9801

> <Gold.PLP.Chemscore.Metal>
0.0000

> <Gold.Chemscore.Hbonds>
donor molecule, donor type, donor heavy atom, donor atom, acceptor molecule, acceptor atom, score
      L1  H     5    46       P1  8028  1.92
      P1  H  6896  6908       L1    20  1.00
      P1  H  6934  6947       L1    15  0.71
      P1  H 10752 10763       L1    10  0.86
      L1  C     6    29       P1  7957  0.81

> <Gold.PLP.Chemscore.Internal.Correction>
0.0687

> <Gold.Rescore>
     Score         DG    S(hbond)    S(metal)    S(lipo)     H(rot)  DE(clash)    DE(int)     intcor
     13.93     -18.42       2.66        0.00      87.92       2.44       1.79       2.70       ----

> <Gold.Chemscore.Fitness>
13.9306

> <Gold.Chemscore.DG>
-18.4216

> <Gold.Chemscore.ZeroCoef>
-5.4800

> <Gold.Chemscore.Hbond>
2.6619

> <Gold.Chemscore.Metal>
0.0000

> <Gold.Chemscore.Lipo>
87.9156

> <Gold.Chemscore.Internal_Hbond>
0.0000

> <Gold.Chemscore.DEClash>
1.7886

> <Gold.Chemscore.DEInternal>
2.7025

> <Gold.Chemscore.Rot>
2.4357

> <Gold.Chemscore.Internal.Correction>
   9.000000E+99

> <Gold.Chemscore.Hbonds>
donor molecule, donor type, donor heavy atom, donor atom, acceptor molecule, acceptor atom, score
      L1  H     5    46       P1  8028  0.91
      P1  H  6896  6908       L1    20  0.97
      P1  H  6934  6947       L1    15  0.28
      P1  H 10752 10763       L1    10  0.19

> <Gold.Chemscore.Hbond.Weighted>
-8.8908

> <Gold.Chemscore.Metal.Weighted>
-0.0000

> <Gold.Chemscore.Lipo.Weighted>
-10.2861

> <Gold.Chemscore.Internal_Hbond.Weighted>
0.0000

> <Gold.Chemscore.DEClash.Weighted>
1.7886

> <Gold.Chemscore.DEInternal.Weighted>
2.7025

> <Gold.Chemscore.Rot.Weighted>
6.2353

> <Gold.Chemscore.Internal.Correction.Weighted>
   9.000000E+99

> <Gold.Protein.RotatedTorsions>
[ 6907 6896 6895 6894 ] final  146.76 input  -60.11 | X-H torsion
[ 7974 7965 7964 7962 ] final   60.26 input  175.53 | X-H torsion
[ 8008 7997 7996 7995 ] final -177.62 input   59.86 | X-H torsion
[ 10167 10162 10161 10158 ] final  -52.90 input  -65.29 | X-H torsion
[ 10718 10713 10712 10709 ] final  134.67 input   66.30 | X-H torsion
[ 10763 10752 10751 10750 ] final   68.43 input  -60.55 | X-H torsion
[ 11005 11000 10999 10996 ] final    7.66 input  -57.11 | X-H torsion

> <Gold.Protein.ActiveResidues>
 VAL166  LYS551  ARG553  GLY616  TRP617  ASP618  TYR619  PRO620  LYS621  CYS622 
 ASP623  PHE694  ASN695  SER759  ASP760  ASP761  ALA762  ILE779  LEU786  VAL792 
 PHE793  MET794  SER795  GLU796  ALA797  LYS798  CYS799  TRP800  GLU811  SER814 

> <Gold.Protein.RotatedAtoms>
  152.1636  133.4598  159.4873 H   0  0  0  0  0  0  0  0  0  0  0  0  # atno 6907 bound_to 6896
  150.6910  134.2040  159.4342 H   0  0  0  0  0  0  0  0  0  0  0  0  # atno 6908 bound_to 6896
  151.9944  134.9962  160.0613 H   0  0  0  0  0  0  0  0  0  0  0  0  # atno 6909 bound_to 6896
  145.8979  139.3559  143.0610 H   0  0  0  0  0  0  0  0  0  0  0  0  # atno 7974 bound_to 7965
  156.0091  140.1237  157.0471 H   0  0  0  0  0  0  0  0  0  0  0  0  # atno 8008 bound_to 7997
  154.4269  140.1091  156.5874 H   0  0  0  0  0  0  0  0  0  0  0  0  # atno 8009 bound_to 7997
  155.6105  140.3471  155.4623 H   0  0  0  0  0  0  0  0  0  0  0  0  # atno 8010 bound_to 7997
  140.6513  143.2568  151.4714 H   0  0  0  0  0  0  0  0  0  0  0  0  # atno 10167 bound_to 10162
  157.4648  131.1076  150.9875 H   0  0  0  0  0  0  0  0  0  0  0  0  # atno 10718 bound_to 10713
  153.0235  135.5248  154.7132 H   0  0  0  0  0  0  0  0  0  0  0  0  # atno 10763 bound_to 10752
  154.6209  135.2889  155.0329 H   0  0  0  0  0  0  0  0  0  0  0  0  # atno 10764 bound_to 10752
  154.1317  135.6592  153.4976 H   0  0  0  0  0  0  0  0  0  0  0  0  # atno 10765 bound_to 10752
  140.5458  134.0331  155.7919 H   0  0  0  0  0  0  0  0  0  0  0  0  # atno 11005 bound_to 11000
  145.8827  140.9353  143.0593 LP  0  0  0  0  0  0  0  0  0  0  0  0  # atno 17320 bound_to 7965
  144.6734  140.0801  143.7469 LP  0  0  0  0  0  0  0  0  0  0  0  0  # atno 17321 bound_to 7965
  139.5729  144.1887  152.1862 LP  0  0  0  0  0  0  0  0  0  0  0  0  # atno 17342 bound_to 10162
  140.1188  144.5391  150.6876 LP  0  0  0  0  0  0  0  0  0  0  0  0  # atno 17343 bound_to 10162
  157.0660  130.5844  149.5394 LP  0  0  0  0  0  0  0  0  0  0  0  0  # atno 17370 bound_to 10713
  156.0045  130.5130  150.7783 LP  0  0  0  0  0  0  0  0  0  0  0  0  # atno 17371 bound_to 10713
  141.1201  133.9476  157.2747 LP  0  0  0  0  0  0  0  0  0  0  0  0  # atno 17394 bound_to 11000
  139.9480  135.0180  156.8911 LP  0  0  0  0  0  0  0  0  0  0  0  0  # atno 17395 bound_to 11000

$$$$
