AV-unprocessed.smi:258|AV-procd|sdf|1970|dock7
  -GOLD-   2262021133D 1   1.00000     0.00000
 Structure written by MMmdl.
 57 60  0  0  0  0  0  0  0  0  1 V2000
  147.6181  132.8955  150.2900 O   0  0  0  0  0  0  0  0  0  0  0  0
  146.9732  132.9147  151.5451 C   0  0  0  0  0  0  0  0  0  0  0  0
  148.0023  133.1788  152.6550 C   0  0  0  0  0  0  0  0  0  0  0  0
  147.5413  132.6851  153.9065 O   0  0  0  0  0  0  0  0  0  0  0  0
  148.4568  132.8171  154.9874 C   0  0  1  0  0  0  0  0  0  0  0  0
  149.7332  132.0446  154.6174 C   0  0  0  0  0  0  0  0  0  0  0  0
  150.8048  132.2353  155.7010 C   0  0  0  0  0  0  0  0  0  0  0  0
  151.0824  133.7278  155.9420 C   0  0  0  0  0  0  0  0  0  0  0  0
  149.8439  134.4480  156.2369 N   0  0  0  0  0  0  0  0  0  0  0  0
  150.0233  135.6756  156.7876 C   0  0  0  0  0  0  0  0  0  0  0  0
  149.5418  135.9390  158.0323 N   0  0  0  0  0  0  0  0  0  0  0  0
  149.7029  137.1482  158.5775 C   0  0  0  0  0  0  0  0  0  0  0  0
  150.3090  138.2202  158.0647 N   0  0  0  0  0  0  0  0  0  0  0  0
  150.8044  137.9605  156.8213 C   0  0  0  0  0  0  0  0  0  0  0  0
  150.7039  136.7290  156.1139 C   0  0  0  0  0  0  0  0  0  0  0  0
  151.3310  136.8418  154.8784 N   0  0  0  0  0  0  0  0  0  0  0  0
  151.7680  138.0712  154.8527 C   0  0  0  0  0  0  0  0  0  0  0  0
  151.5133  138.8080  155.9876 N   0  0  0  0  0  0  0  0  0  0  0  0
  151.8808  140.1931  156.2237 C   0  0  0  0  0  0  0  0  0  0  0  0
  150.8115  141.0380  156.9718 C   0  0  2  0  0  0  0  0  0  0  0  0
  149.6173  141.2998  156.0218 C   0  0  0  0  0  0  0  0  0  0  0  0
  149.8964  142.3504  155.1195 O   0  0  0  0  0  0  0  0  0  0  0  0
  151.3796  142.3672  157.5544 C   0  0  1  0  0  0  0  0  0  0  0  0
  150.3469  143.2931  158.1813 C   0  0  0  0  0  0  0  0  0  0  0  0
  151.2077  144.2062  159.0405 C   0  0  0  0  0  0  0  0  0  0  0  0
  152.1941  143.3438  159.5821 O   0  0  0  0  0  0  0  0  0  0  0  0
  152.3643  142.2163  158.7282 C   0  0  0  0  0  0  0  0  0  0  0  0
  148.7861  134.3036  155.2344 C   0  0  0  0  0  0  0  0  0  0  0  0
  148.1027  132.0879  150.2138 H   0  0  0  0  0  0  0  0  0  0  0  0
  146.1971  133.6792  151.5296 H   0  0  0  0  0  0  0  0  0  0  0  0
  146.4819  131.9546  151.7034 H   0  0  0  0  0  0  0  0  0  0  0  0
  148.9235  132.6454  152.4186 H   0  0  0  0  0  0  0  0  0  0  0  0
  148.2635  134.2360  152.7093 H   0  0  0  0  0  0  0  0  0  0  0  0
  148.0447  132.3787  155.8973 H   0  0  0  0  0  0  0  0  0  0  0  0
  149.5091  130.9846  154.4933 H   0  0  0  0  0  0  0  0  0  0  0  0
  150.1153  132.3982  153.6588 H   0  0  0  0  0  0  0  0  0  0  0  0
  150.4723  131.7717  156.6306 H   0  0  0  0  0  0  0  0  0  0  0  0
  151.7247  131.7269  155.4118 H   0  0  0  0  0  0  0  0  0  0  0  0
  151.8072  133.8328  156.7484 H   0  0  0  0  0  0  0  0  0  0  0  0
  151.5385  134.1678  155.0543 H   0  0  0  0  0  0  0  0  0  0  0  0
  149.2870  137.2744  159.5663 H   0  0  0  0  0  0  0  0  0  0  0  0
  152.3042  138.4719  154.0047 H   0  0  0  0  0  0  0  0  0  0  0  0
  152.8196  140.2116  156.7788 H   0  0  0  0  0  0  0  0  0  0  0  0
  152.0984  140.6281  155.2481 H   0  0  0  0  0  0  0  0  0  0  0  0
  150.4273  140.4510  157.8070 H   0  0  0  0  0  0  0  0  0  0  0  0
  149.3910  140.4260  155.4123 H   0  0  0  0  0  0  0  0  0  0  0  0
  148.7162  141.5389  156.5875 H   0  0  0  0  0  0  0  0  0  0  0  0
  149.3422  143.0858  155.3322 H   0  0  0  0  0  0  0  0  0  0  0  0
  151.8763  142.9211  156.7562 H   0  0  0  0  0  0  0  0  0  0  0  0
  149.7656  143.8515  157.4471 H   0  0  0  0  0  0  0  0  0  0  0  0
  149.6575  142.7292  158.8115 H   0  0  0  0  0  0  0  0  0  0  0  0
  151.6952  144.9642  158.4259 H   0  0  0  0  0  0  0  0  0  0  0  0
  150.6401  144.7106  159.8226 H   0  0  0  0  0  0  0  0  0  0  0  0
  152.1542  141.3201  159.3127 H   0  0  0  0  0  0  0  0  0  0  0  0
  153.3982  142.1649  158.3896 H   0  0  0  0  0  0  0  0  0  0  0  0
  149.1096  134.7713  154.3033 H   0  0  0  0  0  0  0  0  0  0  0  0
  147.8927  134.8324  155.5674 H   0  0  0  0  0  0  0  0  0  0  0  0
  1  2  1  0  0  0  0
  1 29  1  0  0  0  0
  2  3  1  0  0  0  0
  2 30  1  0  0  0  0
  2 31  1  0  0  0  0
  3  4  1  0  0  0  0
  3 32  1  0  0  0  0
  3 33  1  0  0  0  0
  4  5  1  0  0  0  0
  5 28  1  0  0  0  0
  5  6  1  0  0  0  0
  5 34  1  0  0  0  0
  6  7  1  0  0  0  0
  6 35  1  0  0  0  0
  6 36  1  0  0  0  0
  7  8  1  0  0  0  0
  7 37  1  0  0  0  0
  7 38  1  0  0  0  0
  8  9  1  0  0  0  0
  8 39  1  0  0  0  0
  8 40  1  0  0  0  0
  9 10  1  0  0  0  0
  9 28  1  0  0  0  0
 10 15  1  0  0  0  0
 10 11  2  0  0  0  0
 11 12  1  0  0  0  0
 12 13  2  0  0  0  0
 12 41  1  0  0  0  0
 13 14  1  0  0  0  0
 14 18  1  0  0  0  0
 14 15  2  0  0  0  0
 15 16  1  0  0  0  0
 16 17  2  0  0  0  0
 17 18  1  0  0  0  0
 17 42  1  0  0  0  0
 18 19  1  0  0  0  0
 19 20  1  0  0  0  0
 19 43  1  0  0  0  0
 19 44  1  0  0  0  0
 20 21  1  0  0  0  0
 20 23  1  0  0  0  0
 20 45  1  0  0  0  0
 21 22  1  0  0  0  0
 21 46  1  0  0  0  0
 21 47  1  0  0  0  0
 22 48  1  0  0  0  0
 23 27  1  0  0  0  0
 23 24  1  0  0  0  0
 23 49  1  0  0  0  0
 24 25  1  0  0  0  0
 24 50  1  0  0  0  0
 24 51  1  0  0  0  0
 25 26  1  0  0  0  0
 25 52  1  0  0  0  0
 25 53  1  0  0  0  0
 26 27  1  0  0  0  0
 27 54  1  0  0  0  0
 27 55  1  0  0  0  0
 28 56  1  0  0  0  0
 28 57  1  0  0  0  0
M  END
> <s_m_source_file>
AV-unprocessed.smi

> <i_m_source_file_index>
258

> <i_lp_mmshare_version>
43012

> <i_f3d_flags>
0

> <s_epik_input>
W09IXVtDSDJdW0NIMl1PW0NAQEhdMVtDSDJdW0NIMl1bQ0gyXU4oW0NIMl0xKWMobltjSF1uMiljKGMyMyluW2NIXW4zW0NIMl1bQ0BIXShbQ0gyXVtPSF0pW0NAQEhdNFtDSDJdW0NIMl1PW0NIMl00

> <s_epik_cmdline>
J2VwaWtfcHl0aG9uJywgJy1waCcsICc3LjAnLCAnLXRuJywgJzgnLCAnLW1hJywgJzIwMCcsICctbWV0YWxfYmluZGluZycsICctaW1hZScsICc8aW5maWxlLm1hZT4nLCAnLW9tYWUnLCAnPG91dGZpbGUubWFlPic=

> <r_lp_tautomer_probability>
1

> <r_epik_Ionization_Penalty>
0.00349036

> <r_epik_Ionization_Penalty_Charging>
0

> <r_epik_Ionization_Penalty_Neutral>
0.00349036

> <r_epik_State_Penalty>
0.00229798

> <r_epik_Charging_Adjusted_Penalty>
0.00229798

> <i_epik_Tot_Q>
0

> <i_epik_Tot_abs_Q>
0

> <r_epik_Metal_State_Penalty>
-0

> <b_epik_Metal_Only>
0

> <s_lp_Force_Field>
OPLS_2005

> <r_lp_Energy>
44.143

> <b_lp_Chiralities_Consistent>
1

> <s_lp_Variant>
AV-unprocessed.smi:258-6

> <Gold.Version>
5.8.1

> <Gold.Id.Protein>
6NUR|6NUR_protein|mol2

> <Gold.PLP.Fitness>
50.7262

> <Gold.PLP.PLP>
-40.1989

> <Gold.PLP.part.hbond>
-3.7971

> <Gold.PLP.part.metal>
0.0000

> <Gold.PLP.part.buried>
-6.9821

> <Gold.PLP.part.nonpolar>
-29.8341

> <Gold.PLP.part.repulsive>
0.1637

> <Gold.PLP.ligand.clash>
0.0000

> <Gold.PLP.ligand.torsion>
1.0112

> <Gold.PLP.Chemscore.Hbond>
3.9913

> <Gold.PLP.Chemscore.CHOScore>
0.0000

> <Gold.PLP.Chemscore.Metal>
0.0000

> <Gold.Chemscore.Hbonds>
donor molecule, donor type, donor heavy atom, donor atom, acceptor molecule, acceptor atom, score
      L1  H     1    29       P1 10747  0.91
      L1  H    22    48       P1  8028  1.00
      P1  H  6896  6907       L1    11  0.28
      P1  H 10752 10763       L1    16  0.96

> <Gold.PLP.Chemscore.Internal.Correction>
0.5760

> <Gold.Rescore>
     Score         DG    S(hbond)    S(metal)    S(lipo)     H(rot)  DE(clash)    DE(int)     intcor
     15.37     -16.69       3.27        0.00      94.94       4.22       0.20       1.12       ----

> <Gold.Chemscore.Fitness>
15.3745

> <Gold.Chemscore.DG>
-16.6920

> <Gold.Chemscore.ZeroCoef>
-5.4800

> <Gold.Chemscore.Hbond>
3.2690

> <Gold.Chemscore.Metal>
0.0000

> <Gold.Chemscore.Lipo>
94.9440

> <Gold.Chemscore.Internal_Hbond>
0.0000

> <Gold.Chemscore.DEClash>
0.1976

> <Gold.Chemscore.DEInternal>
1.1199

> <Gold.Chemscore.Rot>
4.2246

> <Gold.Chemscore.Internal.Correction>
   9.000000E+99

> <Gold.Chemscore.Hbonds>
donor molecule, donor type, donor heavy atom, donor atom, acceptor molecule, acceptor atom, score
      L1  H     1    29       P1 10747  0.87
      L1  H    22    48       P1  8028  0.99
      P1  H  6896  6907       L1    11  0.05
      P1  H 10752 10763       L1    16  0.54

> <Gold.Chemscore.Hbond.Weighted>
-10.9184

> <Gold.Chemscore.Metal.Weighted>
-0.0000

> <Gold.Chemscore.Lipo.Weighted>
-11.1085

> <Gold.Chemscore.Internal_Hbond.Weighted>
0.0000

> <Gold.Chemscore.DEClash.Weighted>
0.1976

> <Gold.Chemscore.DEInternal.Weighted>
1.1199

> <Gold.Chemscore.Rot.Weighted>
10.8149

> <Gold.Chemscore.Internal.Correction.Weighted>
   9.000000E+99

> <Gold.Protein.RotatedTorsions>
[ 6907 6896 6895 6894 ] final  -68.76 input  -60.11 | X-H torsion
[ 7974 7965 7964 7962 ] final  -17.60 input  175.53 | X-H torsion
[ 8008 7997 7996 7995 ] final   -2.71 input   59.86 | X-H torsion
[ 10167 10162 10161 10158 ] final  -96.71 input  -65.29 | X-H torsion
[ 10718 10713 10712 10709 ] final -171.67 input   66.30 | X-H torsion
[ 10763 10752 10751 10750 ] final   58.98 input  -60.55 | X-H torsion
[ 11005 11000 10999 10996 ] final  114.50 input  -57.11 | X-H torsion

> <Gold.Protein.ActiveResidues>
 VAL166  LYS551  ARG553  GLY616  TRP617  ASP618  TYR619  PRO620  LYS621  CYS622 
 ASP623  PHE694  ASN695  SER759  ASP760  ASP761  ALA762  ILE779  LEU786  VAL792 
 PHE793  MET794  SER795  GLU796  ALA797  LYS798  CYS799  TRP800  GLU811  SER814 

> <Gold.Protein.RotatedAtoms>
  150.7339  134.5693  159.5881 H   0  0  0  0  0  0  0  0  0  0  0  0  # atno 6907 bound_to 6896
  152.3136  134.7464  160.0340 H   0  0  0  0  0  0  0  0  0  0  0  0  # atno 6908 bound_to 6896
  151.8004  133.3333  159.3562 H   0  0  0  0  0  0  0  0  0  0  0  0  # atno 6909 bound_to 6896
  146.1933  140.3802  142.8450 H   0  0  0  0  0  0  0  0  0  0  0  0  # atno 7974 bound_to 7965
  154.6328  140.2527  155.7413 H   0  0  0  0  0  0  0  0  0  0  0  0  # atno 8008 bound_to 7997
  156.2488  140.2903  156.0607 H   0  0  0  0  0  0  0  0  0  0  0  0  # atno 8009 bound_to 7997
  155.1718  140.0386  157.2854 H   0  0  0  0  0  0  0  0  0  0  0  0  # atno 8010 bound_to 7997
  140.2910  143.3221  152.0346 H   0  0  0  0  0  0  0  0  0  0  0  0  # atno 10167 bound_to 10162
  156.7443  130.9354  151.3111 H   0  0  0  0  0  0  0  0  0  0  0  0  # atno 10718 bound_to 10713
  152.9883  135.5588  154.5639 H   0  0  0  0  0  0  0  0  0  0  0  0  # atno 10763 bound_to 10752
  154.5053  135.2799  155.1390 H   0  0  0  0  0  0  0  0  0  0  0  0  # atno 10764 bound_to 10752
  154.2804  135.6346  153.5397 H   0  0  0  0  0  0  0  0  0  0  0  0  # atno 10765 bound_to 10752
  139.8982  134.9569  156.6901 H   0  0  0  0  0  0  0  0  0  0  0  0  # atno 11005 bound_to 11000
  144.8529  140.7028  143.6156 LP  0  0  0  0  0  0  0  0  0  0  0  0  # atno 17320 bound_to 7965
  145.3724  139.1655  143.4325 LP  0  0  0  0  0  0  0  0  0  0  0  0  # atno 17321 bound_to 7965
  139.4938  144.6525  151.6645 LP  0  0  0  0  0  0  0  0  0  0  0  0  # atno 17342 bound_to 10162
  140.5732  144.0073  150.6228 LP  0  0  0  0  0  0  0  0  0  0  0  0  # atno 17343 bound_to 10162
  157.6805  130.9135  150.0255 LP  0  0  0  0  0  0  0  0  0  0  0  0  # atno 17370 bound_to 10713
  156.1444  130.3642  149.9533 LP  0  0  0  0  0  0  0  0  0  0  0  0  # atno 17371 bound_to 10713
  140.7232  133.9123  155.8160 LP  0  0  0  0  0  0  0  0  0  0  0  0  # atno 17394 bound_to 11000
  141.0211  134.0887  157.4119 LP  0  0  0  0  0  0  0  0  0  0  0  0  # atno 17395 bound_to 11000

$$$$
