AV-unprocessed.smi:1795|AV-procd|sdf|7241|dock9
  -GOLD-   22720 8493D 1   1.00000     0.00000
 Structure written by MMmdl.
 47 48  0  0  0  0  0  0  0  0  1 V2000
  151.7814  144.1347  158.7665 C   0  0  0  0  0  0  0  0  0  0  0  0
  152.0809  142.7692  159.3939 C   0  0  1  0  0  0  0  0  0  0  0  0
  151.5279  141.6106  158.5449 C   0  0  0  0  0  0  0  0  0  0  0  0
  151.8727  140.2911  159.0831 N   0  0  0  0  0  0  0  0  0  0  0  0
  151.3222  139.1844  158.2650 C   0  0  2  0  0  0  0  0  0  0  0  0
  152.0970  138.9742  156.9385 C   0  0  0  0  0  0  0  0  0  0  0  0
  149.8076  139.3501  157.9414 C   0  0  0  0  0  0  0  0  0  0  0  0
  149.0446  138.1125  158.0791 N   0  0  0  0  0  0  0  0  0  0  0  0
  149.2614  137.1735  159.0122 C   0  0  0  0  0  0  0  0  0  0  0  0
  150.1156  137.2820  159.8929 O   0  0  0  0  0  0  0  0  0  0  0  0
  148.3640  135.9305  158.9419 C   0  0  0  0  0  0  0  0  0  0  0  0
  148.1335  135.3160  160.2598 N   0  0  0  0  0  0  0  0  0  0  0  0
  148.2868  133.9183  160.3543 C   0  0  0  0  0  0  0  0  0  0  0  0
  148.0972  133.2596  161.5085 C   0  0  0  0  0  0  0  0  0  0  0  0
  147.7257  134.0224  162.6766 C   0  0  0  0  0  0  0  0  0  0  0  0
  147.5737  135.3593  162.5970 C   0  0  0  0  0  0  0  0  0  0  0  0
  147.7788  136.0833  161.3371 C   0  0  0  0  0  0  0  0  0  0  0  0
  147.6403  137.3043  161.2544 O   0  0  0  0  0  0  0  0  0  0  0  0
  153.3332  140.2262  159.2128 C   0  0  0  0  0  0  0  0  0  0  0  0
  153.9361  141.3878  160.0283 C   0  0  2  0  0  0  0  0  0  0  0  0
  153.6821  141.2677  161.5407 C   0  0  0  0  0  0  0  0  0  0  0  0
  153.4934  142.6406  159.5129 O   0  0  0  0  0  0  0  0  0  0  0  0
  150.7076  144.2928  158.6643 H   0  0  0  0  0  0  0  0  0  0  0  0
  152.2287  144.2205  157.7758 H   0  0  0  0  0  0  0  0  0  0  0  0
  152.1787  144.9416  159.3825 H   0  0  0  0  0  0  0  0  0  0  0  0
  151.6276  142.7427  160.3851 H   0  0  0  0  0  0  0  0  0  0  0  0
  150.4478  141.7378  158.5055 H   0  0  0  0  0  0  0  0  0  0  0  0
  151.8949  141.6979  157.5210 H   0  0  0  0  0  0  0  0  0  0  0  0
  151.4285  138.2635  158.8405 H   0  0  0  0  0  0  0  0  0  0  0  0
  151.6586  138.1936  156.3178 H   0  0  0  0  0  0  0  0  0  0  0  0
  153.1241  138.6533  157.1047 H   0  0  0  0  0  0  0  0  0  0  0  0
  152.1199  139.8894  156.3462 H   0  0  0  0  0  0  0  0  0  0  0  0
  149.3271  140.0830  158.5878 H   0  0  0  0  0  0  0  0  0  0  0  0
  149.6845  139.7117  156.9201 H   0  0  0  0  0  0  0  0  0  0  0  0
  148.3172  137.9478  157.3984 H   0  0  0  0  0  0  0  0  0  0  0  0
  147.4198  136.2205  158.4794 H   0  0  0  0  0  0  0  0  0  0  0  0
  148.8021  135.1963  158.2627 H   0  0  0  0  0  0  0  0  0  0  0  0
  148.5587  133.4210  159.4347 H   0  0  0  0  0  0  0  0  0  0  0  0
  148.2157  132.1873  161.5612 H   0  0  0  0  0  0  0  0  0  0  0  0
  147.5669  133.5182  163.6185 H   0  0  0  0  0  0  0  0  0  0  0  0
  147.2936  135.9128  163.4812 H   0  0  0  0  0  0  0  0  0  0  0  0
  153.6418  139.3033  159.6988 H   0  0  0  0  0  0  0  0  0  0  0  0
  153.7834  140.2213  158.2188 H   0  0  0  0  0  0  0  0  0  0  0  0
  155.0170  141.3670  159.8877 H   0  0  0  0  0  0  0  0  0  0  0  0
  154.1348  140.3594  161.9384 H   0  0  0  0  0  0  0  0  0  0  0  0
  152.6190  141.2305  161.7770 H   0  0  0  0  0  0  0  0  0  0  0  0
  154.1146  142.1135  162.0754 H   0  0  0  0  0  0  0  0  0  0  0  0
  1  2  1  0  0  0  0
  1 23  1  0  0  0  0
  1 24  1  0  0  0  0
  1 25  1  0  0  0  0
  2 22  1  0  0  0  0
  2  3  1  0  0  0  0
  2 26  1  0  0  0  0
  3  4  1  0  0  0  0
  3 27  1  0  0  0  0
  3 28  1  0  0  0  0
  4  5  1  0  0  0  0
  4 19  1  0  0  0  0
  5  6  1  0  0  0  0
  5  7  1  0  0  0  0
  5 29  1  0  0  0  0
  6 30  1  0  0  0  0
  6 31  1  0  0  0  0
  6 32  1  0  0  0  0
  7  8  1  0  0  0  0
  7 33  1  0  0  0  0
  7 34  1  0  0  0  0
  8  9  1  0  0  0  0
  8 35  1  0  0  0  0
  9 10  2  0  0  0  0
  9 11  1  0  0  0  0
 11 12  1  0  0  0  0
 11 36  1  0  0  0  0
 11 37  1  0  0  0  0
 12 17  1  0  0  0  0
 12 13  1  0  0  0  0
 13 14  2  0  0  0  0
 13 38  1  0  0  0  0
 14 15  1  0  0  0  0
 14 39  1  0  0  0  0
 15 16  2  0  0  0  0
 15 40  1  0  0  0  0
 16 17  1  0  0  0  0
 16 41  1  0  0  0  0
 17 18  2  0  0  0  0
 19 20  1  0  0  0  0
 19 42  1  0  0  0  0
 19 43  1  0  0  0  0
 20 21  1  0  0  0  0
 20 22  1  0  0  0  0
 20 44  1  0  0  0  0
 21 45  1  0  0  0  0
 21 46  1  0  0  0  0
 21 47  1  0  0  0  0
M  END
> <s_m_source_file>
AV-unprocessed.smi

> <i_m_source_file_index>
1795

> <i_lp_mmshare_version>
43012

> <i_f3d_flags>
0

> <s_epik_input>
W0NIM11bQ0BASF0xW0NIMl1OKFtDSDJdW0NASF0oTzEpW0NIM10pW0NASF0oW0NIM10pW0NIMl1bTkhdQyg9TylbQ0gyXW4yW2NIXVtjSF1bY0hdW2NIXWMyPU8=

> <s_epik_cmdline>
J2VwaWtfcHl0aG9uJywgJy1waCcsICc3LjAnLCAnLXRuJywgJzgnLCAnLW1hJywgJzIwMCcsICctbWV0YWxfYmluZGluZycsICctaW1hZScsICc8aW5maWxlLm1hZT4nLCAnLW9tYWUnLCAnPG91dGZpbGUubWFlPic=

> <r_lp_tautomer_probability>
1

> <r_epik_Ionization_Penalty>
0.237383

> <r_epik_Ionization_Penalty_Charging>
3.58805e-07

> <r_epik_Ionization_Penalty_Neutral>
0.237382

> <r_epik_State_Penalty>
0.228245

> <r_epik_Charging_Adjusted_Penalty>
0.228245

> <i_epik_Tot_Q>
0

> <i_epik_Tot_abs_Q>
0

> <r_epik_Metal_State_Penalty>
0.228221

> <b_epik_Metal_Only>
0

> <s_lp_Force_Field>
OPLS_2005

> <r_lp_Energy>
40.4957

> <b_lp_Chiralities_Consistent>
1

> <s_lp_Variant>
AV-unprocessed.smi:1795-5

> <Gold.Version>
5.8.1

> <Gold.Id.Protein>
6NUR|6NUR_protein|mol2

> <Gold.PLP.Fitness>
46.1337

> <Gold.PLP.PLP>
-43.7423

> <Gold.PLP.part.hbond>
-2.7901

> <Gold.PLP.part.metal>
0.0000

> <Gold.PLP.part.buried>
-5.1873

> <Gold.PLP.part.nonpolar>
-36.3489

> <Gold.PLP.part.repulsive>
0.1069

> <Gold.PLP.ligand.clash>
0.0000

> <Gold.PLP.ligand.torsion>
1.3840

> <Gold.PLP.Chemscore.Hbond>
1.6960

> <Gold.PLP.Chemscore.CHOScore>
0.0000

> <Gold.PLP.Chemscore.Metal>
0.0000

> <Gold.Chemscore.Hbonds>
donor molecule, donor type, donor heavy atom, donor atom, acceptor molecule, acceptor atom, score
      P1  H  6931  6943       L1    18  0.88
      P1  H  6934  6947       L1    18  0.85

> <Gold.PLP.Chemscore.Internal.Correction>
0.0715

> <Gold.Rescore>
     Score         DG    S(hbond)    S(metal)    S(lipo)     H(rot)  DE(clash)    DE(int)     intcor
     11.83     -18.67       1.74        0.00     103.00       1.83       0.19       6.65       ----

> <Gold.Chemscore.Fitness>
11.8331

> <Gold.Chemscore.DG>
-18.6685

> <Gold.Chemscore.ZeroCoef>
-5.4800

> <Gold.Chemscore.Hbond>
1.7394

> <Gold.Chemscore.Metal>
0.0000

> <Gold.Chemscore.Lipo>
103.0021

> <Gold.Chemscore.Internal_Hbond>
0.0000

> <Gold.Chemscore.DEClash>
0.1882

> <Gold.Chemscore.DEInternal>
6.6473

> <Gold.Chemscore.Rot>
1.8251

> <Gold.Chemscore.Internal.Correction>
   9.000000E+99

> <Gold.Chemscore.Hbonds>
donor molecule, donor type, donor heavy atom, donor atom, acceptor molecule, acceptor atom, score
      P1  H  6931  6943       L1    18  0.78
      P1  H  6934  6947       L1    18  0.83

> <Gold.Chemscore.Hbond.Weighted>
-5.8096

> <Gold.Chemscore.Metal.Weighted>
-0.0000

> <Gold.Chemscore.Lipo.Weighted>
-12.0512

> <Gold.Chemscore.Internal_Hbond.Weighted>
0.0000

> <Gold.Chemscore.DEClash.Weighted>
0.1882

> <Gold.Chemscore.DEInternal.Weighted>
6.6473

> <Gold.Chemscore.Rot.Weighted>
4.6724

> <Gold.Chemscore.Internal.Correction.Weighted>
   9.000000E+99

> <Gold.Protein.RotatedTorsions>
[ 6907 6896 6895 6894 ] final -107.85 input  -60.11 | X-H torsion
[ 7974 7965 7964 7962 ] final  -87.37 input  175.53 | X-H torsion
[ 8008 7997 7996 7995 ] final -130.88 input   59.86 | X-H torsion
[ 10167 10162 10161 10158 ] final   -0.09 input  -65.29 | X-H torsion
[ 10718 10713 10712 10709 ] final   68.25 input   66.30 | X-H torsion
[ 10763 10752 10751 10750 ] final  124.66 input  -60.55 | X-H torsion
[ 11005 11000 10999 10996 ] final  121.24 input  -57.11 | X-H torsion

> <Gold.Protein.ActiveResidues>
 VAL166  LYS551  ARG553  GLY616  TRP617  ASP618  TYR619  PRO620  LYS621  CYS622 
 ASP623  PHE694  ASN695  SER759  ASP760  ASP761  ALA762  ILE779  LEU786  VAL792 
 PHE793  MET794  SER795  GLU796  ALA797  LYS798  CYS799  TRP800  GLU811  SER814 

> <Gold.Protein.RotatedAtoms>
  150.7467  133.9765  159.3562 H   0  0  0  0  0  0  0  0  0  0  0  0  # atno 6907 bound_to 6896
  151.7703  135.0786  160.0368 H   0  0  0  0  0  0  0  0  0  0  0  0  # atno 6908 bound_to 6896
  152.3344  133.5957  159.5868 H   0  0  0  0  0  0  0  0  0  0  0  0  # atno 6909 bound_to 6896
  145.4675  140.9560  143.1935 H   0  0  0  0  0  0  0  0  0  0  0  0  # atno 7974 bound_to 7965
  155.3031  140.0453  157.3030 H   0  0  0  0  0  0  0  0  0  0  0  0  # atno 8008 bound_to 7997
  154.5475  140.2307  155.8506 H   0  0  0  0  0  0  0  0  0  0  0  0  # atno 8009 bound_to 7997
  156.1937  140.3044  155.9391 H   0  0  0  0  0  0  0  0  0  0  0  0  # atno 8010 bound_to 7997
  140.6752  143.6936  150.8007 H   0  0  0  0  0  0  0  0  0  0  0  0  # atno 10167 bound_to 10162
  157.6278  130.9363  150.0352 H   0  0  0  0  0  0  0  0  0  0  0  0  # atno 10718 bound_to 10713
  153.6650  135.3340  155.3137 H   0  0  0  0  0  0  0  0  0  0  0  0  # atno 10763 bound_to 10752
  154.8505  135.4372  154.1765 H   0  0  0  0  0  0  0  0  0  0  0  0  # atno 10764 bound_to 10752
  153.2741  135.7003  153.7526 H   0  0  0  0  0  0  0  0  0  0  0  0  # atno 10765 bound_to 10752
  139.9218  134.9638  156.7929 H   0  0  0  0  0  0  0  0  0  0  0  0  # atno 11005 bound_to 11000
  144.7965  139.6224  143.7090 LP  0  0  0  0  0  0  0  0  0  0  0  0  # atno 17320 bound_to 7965
  146.2416  139.6012  142.9488 LP  0  0  0  0  0  0  0  0  0  0  0  0  # atno 17321 bound_to 7965
  140.0628  143.5138  152.2619 LP  0  0  0  0  0  0  0  0  0  0  0  0  # atno 17342 bound_to 10162
  139.6040  144.7591  151.3104 LP  0  0  0  0  0  0  0  0  0  0  0  0  # atno 17343 bound_to 10162
  156.1461  130.3642  149.9508 LP  0  0  0  0  0  0  0  0  0  0  0  0  # atno 17370 bound_to 10713
  156.7538  130.9125  151.3638 LP  0  0  0  0  0  0  0  0  0  0  0  0  # atno 17371 bound_to 10713
  140.6452  133.9781  155.7727 LP  0  0  0  0  0  0  0  0  0  0  0  0  # atno 17394 bound_to 11000
  141.0745  134.0156  157.3478 LP  0  0  0  0  0  0  0  0  0  0  0  0  # atno 17395 bound_to 11000

$$$$
