AV-unprocessed.smi:633|AV-procd|sdf|3130|dock1
  -GOLD-   22720 0 53D 1   1.00000     0.00000
 Structure written by MMmdl.
 53 56  0  0  0  0  0  0  0  0  1 V2000
  153.2549  141.7488  160.5399 C   0  0  0  0  0  0  0  0  0  0  0  0
  152.2336  142.2812  159.5292 C   0  0  2  0  0  0  0  0  0  0  0  0
  151.9495  141.2630  158.4105 C   0  0  0  0  0  0  0  0  0  0  0  0
  151.0731  141.8490  157.4004 N   0  0  0  0  0  0  0  0  0  0  0  0
  150.4713  140.9843  156.4615 C   0  0  0  0  0  0  0  0  0  0  0  0
  151.2764  140.1835  155.6181 C   0  0  0  0  0  0  0  0  0  0  0  0
  150.6598  139.3233  154.6894 C   0  0  0  0  0  0  0  0  0  0  0  0
  149.2476  139.2894  154.6201 C   0  0  0  0  0  0  0  0  0  0  0  0
  148.5067  138.4485  153.7461 N   0  0  0  0  0  0  0  0  0  0  0  0
  147.1734  138.3181  153.6392 C   0  0  0  0  0  0  0  0  0  0  0  0
  146.3452  138.8984  154.3404 O   0  0  0  0  0  0  0  0  0  0  0  0
  146.8515  137.4467  152.6706 N   0  0  0  0  0  0  0  0  0  0  0  0
  145.5051  137.0418  152.2701 C   0  0  0  0  0  0  0  0  0  0  0  0
  144.6543  136.5151  153.4166 C   0  0  0  0  0  0  0  0  0  0  0  0
  143.1480  136.4703  153.3181 C   0  0  0  0  0  0  0  0  0  0  0  0
  143.8171  137.4463  154.2599 C   0  0  0  0  0  0  0  0  0  0  0  0
  145.4786  136.0834  151.0883 C   0  0  0  0  0  0  0  0  0  0  0  0
  144.2481  135.2676  150.7726 C   0  0  0  0  0  0  0  0  0  0  0  0
  145.4943  134.5872  151.2933 C   0  0  0  0  0  0  0  0  0  0  0  0
  148.5310  140.1175  155.5066 C   0  0  0  0  0  0  0  0  0  0  0  0
  149.1180  140.9454  156.3958 N   0  0  0  0  0  0  0  0  0  0  0  0
  151.5801  143.1066  156.8594 C   0  0  0  0  0  0  0  0  0  0  0  0
  151.9133  144.1015  157.9889 C   0  0  1  0  0  0  0  0  0  0  0  0
  150.6678  144.7459  158.6233 C   0  0  0  0  0  0  0  0  0  0  0  0
  152.7570  143.4816  158.9622 O   0  0  0  0  0  0  0  0  0  0  0  0
  152.8968  140.8356  161.0157 H   0  0  0  0  0  0  0  0  0  0  0  0
  153.4432  142.4808  161.3254 H   0  0  0  0  0  0  0  0  0  0  0  0
  154.2070  141.5245  160.0581 H   0  0  0  0  0  0  0  0  0  0  0  0
  151.3110  142.5006  160.0669 H   0  0  0  0  0  0  0  0  0  0  0  0
  152.8819  140.9498  157.9386 H   0  0  0  0  0  0  0  0  0  0  0  0
  151.4865  140.3738  158.8405 H   0  0  0  0  0  0  0  0  0  0  0  0
  152.3545  140.2259  155.6667 H   0  0  0  0  0  0  0  0  0  0  0  0
  151.2810  138.7025  154.0631 H   0  0  0  0  0  0  0  0  0  0  0  0
  149.0602  137.8399  153.1610 H   0  0  0  0  0  0  0  0  0  0  0  0
  147.6108  137.0223  152.1584 H   0  0  0  0  0  0  0  0  0  0  0  0
  145.0355  137.9665  151.9322 H   0  0  0  0  0  0  0  0  0  0  0  0
  145.1065  135.6797  153.9481 H   0  0  0  0  0  0  0  0  0  0  0  0
  142.6818  136.8795  152.4242 H   0  0  0  0  0  0  0  0  0  0  0  0
  142.6422  135.6125  153.7567 H   0  0  0  0  0  0  0  0  0  0  0  0
  143.7576  137.2393  155.3264 H   0  0  0  0  0  0  0  0  0  0  0  0
  143.7989  138.4998  153.9875 H   0  0  0  0  0  0  0  0  0  0  0  0
  146.0411  136.4373  150.2263 H   0  0  0  0  0  0  0  0  0  0  0  0
  143.3992  135.3479  151.4488 H   0  0  0  0  0  0  0  0  0  0  0  0
  143.9967  135.1245  149.7237 H   0  0  0  0  0  0  0  0  0  0  0  0
  146.0730  133.9905  150.5915 H   0  0  0  0  0  0  0  0  0  0  0  0
  145.4683  134.2109  152.3138 H   0  0  0  0  0  0  0  0  0  0  0  0
  147.4508  140.1210  155.5015 H   0  0  0  0  0  0  0  0  0  0  0  0
  152.4829  142.8896  156.2870 H   0  0  0  0  0  0  0  0  0  0  0  0
  150.8767  143.5672  156.1666 H   0  0  0  0  0  0  0  0  0  0  0  0
  152.4985  144.9119  157.5533 H   0  0  0  0  0  0  0  0  0  0  0  0
  150.1155  145.3262  157.8839 H   0  0  0  0  0  0  0  0  0  0  0  0
  150.9480  145.4226  159.4307 H   0  0  0  0  0  0  0  0  0  0  0  0
  149.9799  144.0049  159.0297 H   0  0  0  0  0  0  0  0  0  0  0  0
  1  2  1  0  0  0  0
  1 26  1  0  0  0  0
  1 27  1  0  0  0  0
  1 28  1  0  0  0  0
  2 25  1  0  0  0  0
  2  3  1  0  0  0  0
  2 29  1  0  0  0  0
  3  4  1  0  0  0  0
  3 30  1  0  0  0  0
  3 31  1  0  0  0  0
  4  5  1  0  0  0  0
  4 22  1  0  0  0  0
  5 21  1  0  0  0  0
  5  6  2  0  0  0  0
  6  7  1  0  0  0  0
  6 32  1  0  0  0  0
  7  8  2  0  0  0  0
  7 33  1  0  0  0  0
  8  9  1  0  0  0  0
  8 20  1  0  0  0  0
  9 10  1  0  0  0  0
  9 34  1  0  0  0  0
 10 11  2  0  0  0  0
 10 12  1  0  0  0  0
 12 13  1  0  0  0  0
 12 35  1  0  0  0  0
 13 14  1  0  0  0  0
 13 17  1  0  0  0  0
 13 36  1  0  0  0  0
 14 16  1  0  0  0  0
 14 15  1  0  0  0  0
 14 37  1  0  0  0  0
 15 16  1  0  0  0  0
 15 38  1  0  0  0  0
 15 39  1  0  0  0  0
 16 40  1  0  0  0  0
 16 41  1  0  0  0  0
 17 19  1  0  0  0  0
 17 18  1  0  0  0  0
 17 42  1  0  0  0  0
 18 19  1  0  0  0  0
 18 43  1  0  0  0  0
 18 44  1  0  0  0  0
 19 45  1  0  0  0  0
 19 46  1  0  0  0  0
 20 21  2  0  0  0  0
 20 47  1  0  0  0  0
 22 23  1  0  0  0  0
 22 48  1  0  0  0  0
 22 49  1  0  0  0  0
 23 24  1  0  0  0  0
 23 25  1  0  0  0  0
 23 50  1  0  0  0  0
 24 51  1  0  0  0  0
 24 52  1  0  0  0  0
 24 53  1  0  0  0  0
M  END
> <s_m_source_file>
AV-unprocessed.smi

> <i_m_source_file_index>
633

> <i_lp_mmshare_version>
43012

> <i_f3d_flags>
0

> <s_epik_input>
W0NIM11bQ0BASF0xW0NIMl1OKFtDSDJdW0NASF0oTzEpW0NIM10pYzJbY0hdW2NIXWMoW2NIXW4yKVtOSF1DKD1PKVtOSF1bQ0hdKFtDSF0zW0NIMl1bQ0gyXTMpW0NIXTRbQ0gyXVtDSDJdNA==

> <s_epik_cmdline>
J2VwaWtfcHl0aG9uJywgJy1waCcsICc3LjAnLCAnLXRuJywgJzgnLCAnLW1hJywgJzIwMCcsICctbWV0YWxfYmluZGluZycsICctaW1hZScsICc8aW5maWxlLm1hZT4nLCAnLW9tYWUnLCAnPG91dGZpbGUubWFlPic=

> <r_lp_tautomer_probability>
1

> <r_epik_Ionization_Penalty>
0.00291159

> <r_epik_Ionization_Penalty_Charging>
0

> <r_epik_Ionization_Penalty_Neutral>
0.00291159

> <r_epik_State_Penalty>
0.00200877

> <r_epik_Charging_Adjusted_Penalty>
0.00200877

> <i_epik_Tot_Q>
0

> <i_epik_Tot_abs_Q>
0

> <r_epik_Metal_State_Penalty>
-0

> <b_epik_Metal_Only>
0

> <s_lp_Force_Field>
OPLS_2005

> <r_lp_Energy>
43.7528

> <b_lp_Chiralities_Consistent>
1

> <s_lp_Variant>
AV-unprocessed.smi:633-1

> <Gold.Version>
5.8.1

> <Gold.Id.Protein>
6NUR|6NUR_protein|mol2

> <Gold.PLP.Fitness>
50.0980

> <Gold.PLP.PLP>
-44.8158

> <Gold.PLP.part.hbond>
-2.6791

> <Gold.PLP.part.metal>
0.0000

> <Gold.PLP.part.buried>
-4.0621

> <Gold.PLP.part.nonpolar>
-39.1385

> <Gold.PLP.part.repulsive>
0.3332

> <Gold.PLP.ligand.clash>
0.0000

> <Gold.PLP.ligand.torsion>
1.3789

> <Gold.PLP.Chemscore.Hbond>
1.8406

> <Gold.PLP.Chemscore.CHOScore>
0.0000

> <Gold.PLP.Chemscore.Metal>
0.0000

> <Gold.Chemscore.Hbonds>
donor molecule, donor type, donor heavy atom, donor atom, acceptor molecule, acceptor atom, score
      L1  H     9    34       P1  7948  0.86
      L1  H    12    35       P1  7948  1.00

> <Gold.PLP.Chemscore.Internal.Correction>
2.5182

> <Gold.Rescore>
     Score         DG    S(hbond)    S(metal)    S(lipo)     H(rot)  DE(clash)    DE(int)     intcor
     16.23     -21.94       1.81        0.00     119.64       1.40       1.77       3.94       ----

> <Gold.Chemscore.Fitness>
16.2259

> <Gold.Chemscore.DG>
-21.9386

> <Gold.Chemscore.ZeroCoef>
-5.4800

> <Gold.Chemscore.Hbond>
1.8116

> <Gold.Chemscore.Metal>
0.0000

> <Gold.Chemscore.Lipo>
119.6359

> <Gold.Chemscore.Internal_Hbond>
0.0000

> <Gold.Chemscore.DEClash>
1.7737

> <Gold.Chemscore.DEInternal>
3.9389

> <Gold.Chemscore.Rot>
1.4022

> <Gold.Chemscore.Internal.Correction>
   9.000000E+99

> <Gold.Chemscore.Hbonds>
donor molecule, donor type, donor heavy atom, donor atom, acceptor molecule, acceptor atom, score
      L1  H     9    34       P1  7948  0.80
      L1  H    12    35       P1  7948  0.97

> <Gold.Chemscore.Hbond.Weighted>
-6.0508

> <Gold.Chemscore.Metal.Weighted>
-0.0000

> <Gold.Chemscore.Lipo.Weighted>
-13.9974

> <Gold.Chemscore.Internal_Hbond.Weighted>
0.0000

> <Gold.Chemscore.DEClash.Weighted>
1.7737

> <Gold.Chemscore.DEInternal.Weighted>
3.9389

> <Gold.Chemscore.Rot.Weighted>
3.5897

> <Gold.Chemscore.Internal.Correction.Weighted>
   9.000000E+99

> <Gold.Protein.RotatedTorsions>
[ 6907 6896 6895 6894 ] final  135.40 input  -60.11 | X-H torsion
[ 7974 7965 7964 7962 ] final  154.64 input  175.53 | X-H torsion
[ 8008 7997 7996 7995 ] final  112.45 input   59.86 | X-H torsion
[ 10167 10162 10161 10158 ] final -112.59 input  -65.29 | X-H torsion
[ 10718 10713 10712 10709 ] final  -25.89 input   66.30 | X-H torsion
[ 10763 10752 10751 10750 ] final   -1.14 input  -60.55 | X-H torsion
[ 11005 11000 10999 10996 ] final  125.67 input  -57.11 | X-H torsion

> <Gold.Protein.ActiveResidues>
 VAL166  LYS551  ARG553  GLY616  TRP617  ASP618  TYR619  PRO620  LYS621  CYS622 
 ASP623  PHE694  ASN695  SER759  ASP760  ASP761  ALA762  ILE779  LEU786  VAL792 
 PHE793  MET794  SER795  GLU796  ALA797  LYS798  CYS799  TRP800  GLU811  SER814 

> <Gold.Protein.RotatedAtoms>
  152.3008  133.5653  159.5616 H   0  0  0  0  0  0  0  0  0  0  0  0  # atno 6907 bound_to 6896
  150.7277  134.0294  159.3737 H   0  0  0  0  0  0  0  0  0  0  0  0  # atno 6908 bound_to 6896
  151.8194  135.0657  160.0474 H   0  0  0  0  0  0  0  0  0  0  0  0  # atno 6909 bound_to 6896
  144.8076  139.6960  143.6155 H   0  0  0  0  0  0  0  0  0  0  0  0  # atno 7974 bound_to 7965
  156.2193  140.2999  155.9914 H   0  0  0  0  0  0  0  0  0  0  0  0  # atno 8008 bound_to 7997
  155.2523  140.0426  157.3005 H   0  0  0  0  0  0  0  0  0  0  0  0  # atno 8009 bound_to 7997
  154.5816  140.2376  155.8054 H   0  0  0  0  0  0  0  0  0  0  0  0  # atno 8010 bound_to 7997
  140.1210  143.4443  152.1690 H   0  0  0  0  0  0  0  0  0  0  0  0  # atno 10167 bound_to 10162
  156.4584  130.4498  149.6944 H   0  0  0  0  0  0  0  0  0  0  0  0  # atno 10718 bound_to 10713
  153.3409  135.6980  153.6868 H   0  0  0  0  0  0  0  0  0  0  0  0  # atno 10763 bound_to 10752
  153.5633  135.3530  155.2808 H   0  0  0  0  0  0  0  0  0  0  0  0  # atno 10764 bound_to 10752
  154.8636  135.4254  154.2622 H   0  0  0  0  0  0  0  0  0  0  0  0  # atno 10765 bound_to 10752
  139.9418  134.9634  156.8592 H   0  0  0  0  0  0  0  0  0  0  0  0  # atno 11005 bound_to 11000
  146.2370  139.5924  142.9517 LP  0  0  0  0  0  0  0  0  0  0  0  0  # atno 17320 bound_to 7965
  145.5401  141.0421  143.2335 LP  0  0  0  0  0  0  0  0  0  0  0  0  # atno 17321 bound_to 7965
  139.5568  144.7378  151.4269 LP  0  0  0  0  0  0  0  0  0  0  0  0  # atno 17342 bound_to 10162
  140.6872  143.7947  150.7202 LP  0  0  0  0  0  0  0  0  0  0  0  0  # atno 17343 bound_to 10162
  156.3742  130.7546  151.2532 LP  0  0  0  0  0  0  0  0  0  0  0  0  # atno 17370 bound_to 10713
  157.7499  131.0314  150.4181 LP  0  0  0  0  0  0  0  0  0  0  0  0  # atno 17371 bound_to 10713
  140.5934  134.0240  155.7508 LP  0  0  0  0  0  0  0  0  0  0  0  0  # atno 17394 bound_to 11000
  141.1054  133.9701  157.3005 LP  0  0  0  0  0  0  0  0  0  0  0  0  # atno 17395 bound_to 11000

$$$$
