AV-unprocessed.smi:2247|AV-procd|sdf|9093|dock9
  -GOLD-   2272012293D 1   1.00000     0.00000
 Structure written by MMmdl.
 33 34  0  0  0  0  0  0  0  0  2 V2000
  152.5458  143.6396  161.8689 C   0  0  0  0  0  0  0  0  0  0  0  0
  152.5807  142.4460  160.8967 C   0  0  0  0  0  0  0  0  0  0  0  0
  153.9595  141.7667  160.8805 C   0  0  0  0  0  0  0  0  0  0  0  0
  152.1768  142.8102  159.5310 N   0  0  0  0  0  0  0  0  0  0  0  0
  151.8395  144.1725  159.1506 C   0  0  0  0  0  0  0  0  0  0  0  0
  151.7511  144.1429  157.6217 C   0  0  0  0  0  0  0  0  0  0  0  0
  151.6459  142.6647  157.2139 C   0  0  2  0  0  0  0  0  0  0  0  0
  150.2610  142.3422  156.8751 N   0  0  0  0  0  0  0  0  0  0  0  0
  149.8576  141.3916  156.0194 C   0  0  0  0  0  0  0  0  0  0  0  0
  150.6909  140.6961  155.4342 O   0  0  0  0  0  0  0  0  0  0  0  0
  148.5139  141.3086  155.8943 N   0  5  0  0  0  0  0  0  0  0  0  0
  147.9792  140.5234  154.9454 C   0  0  0  0  0  0  0  0  0  0  0  0
  146.9971  140.8550  154.1055 N   0  0  0  0  0  0  0  0  0  0  0  0
  146.7870  139.7395  153.3093 C   0  0  0  0  0  0  0  0  0  0  0  0
  147.6692  138.7707  153.7027 C   0  0  0  0  0  0  0  0  0  0  0  0
  148.4291  139.2543  154.7314 O   0  0  0  0  0  0  0  0  0  0  0  0
  152.0524  141.9564  158.5050 C   0  0  0  0  0  0  0  0  0  0  0  0
  152.2629  140.7447  158.5542 O   0  0  0  0  0  0  0  0  0  0  0  0
  152.7622  143.3143  162.8868 H   0  0  0  0  0  0  0  0  0  0  0  0
  151.5625  144.1108  161.8806 H   0  0  0  0  0  0  0  0  0  0  0  0
  153.2825  144.3998  161.6082 H   0  0  0  0  0  0  0  0  0  0  0  0
  151.8584  141.7193  161.2730 H   0  0  0  0  0  0  0  0  0  0  0  0
  154.2533  141.4527  161.8824 H   0  0  0  0  0  0  0  0  0  0  0  0
  154.7283  142.4419  160.5036 H   0  0  0  0  0  0  0  0  0  0  0  0
  153.9570  140.8786  160.2474 H   0  0  0  0  0  0  0  0  0  0  0  0
  150.8761  144.4446  159.5836 H   0  0  0  0  0  0  0  0  0  0  0  0
  152.5882  144.8869  159.4949 H   0  0  0  0  0  0  0  0  0  0  0  0
  150.9264  144.7517  157.2483 H   0  0  0  0  0  0  0  0  0  0  0  0
  152.6668  144.5625  157.2026 H   0  0  0  0  0  0  0  0  0  0  0  0
  152.3307  142.4288  156.3976 H   0  0  0  0  0  0  0  0  0  0  0  0
  149.5434  142.8826  157.3351 H   0  0  0  0  0  0  0  0  0  0  0  0
  146.0362  139.7242  152.5335 H   0  0  0  0  0  0  0  0  0  0  0  0
  147.8722  137.7606  153.3795 H   0  0  0  0  0  0  0  0  0  0  0  0
  1  2  1  0  0  0  0
  1 19  1  0  0  0  0
  1 20  1  0  0  0  0
  1 21  1  0  0  0  0
  2  3  1  0  0  0  0
  2  4  1  0  0  0  0
  2 22  1  0  0  0  0
  3 23  1  0  0  0  0
  3 24  1  0  0  0  0
  3 25  1  0  0  0  0
  4 17  1  0  0  0  0
  4  5  1  0  0  0  0
  5  6  1  0  0  0  0
  5 26  1  0  0  0  0
  5 27  1  0  0  0  0
  6  7  1  0  0  0  0
  6 28  1  0  0  0  0
  6 29  1  0  0  0  0
  7  8  1  0  0  0  0
  7 17  1  0  0  0  0
  7 30  1  0  0  0  0
  8  9  1  0  0  0  0
  8 31  1  0  0  0  0
  9 10  2  0  0  0  0
  9 11  1  0  0  0  0
 11 12  1  0  0  0  0
 12 16  1  0  0  0  0
 12 13  2  0  0  0  0
 13 14  1  0  0  0  0
 14 15  2  0  0  0  0
 14 32  1  0  0  0  0
 15 16  1  0  0  0  0
 15 33  1  0  0  0  0
 17 18  2  0  0  0  0
M  CHG  1  11  -1
M  END
> <s_m_source_file>
AV-unprocessed.smi

> <i_m_source_file_index>
2247

> <i_lp_mmshare_version>
43012

> <i_f3d_flags>
0

> <s_epik_input>
W0NIM11bQ0hdKFtDSDNdKU4xW0NIMl1bQ0gyXVtDQEhdKEMxPU8pW05IXUMoPU8pW05IXWMybltjSF1bY0hdbzI=

> <s_epik_cmdline>
J2VwaWtfcHl0aG9uJywgJy1waCcsICc3LjAnLCAnLXRuJywgJzgnLCAnLW1hJywgJzIwMCcsICctbWV0YWxfYmluZGluZycsICctaW1hZScsICc8aW5maWxlLm1hZT4nLCAnLW9tYWUnLCAnPG91dGZpbGUubWFlPic=

> <r_lp_tautomer_probability>
0.785861

> <r_epik_Ionization_Penalty>
8.37364

> <r_epik_Ionization_Penalty_Charging>
6.20178

> <r_epik_Ionization_Penalty_Neutral>
2.17186

> <r_epik_State_Penalty>
6.22234

> <r_epik_Charging_Adjusted_Penalty>
12.4241

> <i_epik_Tot_Q>
-1

> <i_epik_Tot_abs_Q>
1

> <r_epik_Metal_State_Penalty>
2.14252

> <b_epik_Metal_Only>
1

> <s_lp_Force_Field>
OPLS_2005

> <r_lp_Energy>
16.3016

> <b_lp_Chiralities_Consistent>
1

> <s_lp_Variant>
AV-unprocessed.smi:2247-8

> <Gold.Version>
5.8.1

> <Gold.Id.Protein>
6NUR|6NUR_protein|mol2

> <Gold.PLP.Fitness>
43.6072

> <Gold.PLP.PLP>
-36.6747

> <Gold.PLP.part.hbond>
-2.0000

> <Gold.PLP.part.metal>
0.0000

> <Gold.PLP.part.buried>
-5.0252

> <Gold.PLP.part.nonpolar>
-30.7215

> <Gold.PLP.part.repulsive>
0.4721

> <Gold.PLP.ligand.clash>
0.0000

> <Gold.PLP.ligand.torsion>
0.7746

> <Gold.PLP.Chemscore.Hbond>
0.8089

> <Gold.PLP.Chemscore.CHOScore>
1.9922

> <Gold.PLP.Chemscore.Metal>
0.0000

> <Gold.Chemscore.Hbonds>
donor molecule, donor type, donor heavy atom, donor atom, acceptor molecule, acceptor atom, score
      P1  H  7989  7998       L1    10  0.61
      L1  C    14    32       P1 10175  1.00
      L1  C    15    33       P1  7948  1.00

> <Gold.PLP.Chemscore.Internal.Correction>
0.0786

> <Gold.Rescore>
     Score         DG    S(hbond)    S(metal)    S(lipo)     H(rot)  DE(clash)    DE(int)     intcor
     11.09     -14.59       0.93        0.00      80.21       1.32       1.34       2.16       ----

> <Gold.Chemscore.Fitness>
11.0919

> <Gold.Chemscore.DG>
-14.5934

> <Gold.Chemscore.ZeroCoef>
-5.4800

> <Gold.Chemscore.Hbond>
0.9321

> <Gold.Chemscore.Metal>
0.0000

> <Gold.Chemscore.Lipo>
80.2074

> <Gold.Chemscore.Internal_Hbond>
0.0000

> <Gold.Chemscore.DEClash>
1.3398

> <Gold.Chemscore.DEInternal>
2.1617

> <Gold.Chemscore.Rot>
1.3219

> <Gold.Chemscore.Internal.Correction>
   9.000000E+99

> <Gold.Chemscore.Hbonds>
donor molecule, donor type, donor heavy atom, donor atom, acceptor molecule, acceptor atom, score
      P1  H  7989  7998       L1    10  0.59

> <Gold.Chemscore.Hbond.Weighted>
-3.1133

> <Gold.Chemscore.Metal.Weighted>
-0.0000

> <Gold.Chemscore.Lipo.Weighted>
-9.3843

> <Gold.Chemscore.Internal_Hbond.Weighted>
0.0000

> <Gold.Chemscore.DEClash.Weighted>
1.3398

> <Gold.Chemscore.DEInternal.Weighted>
2.1617

> <Gold.Chemscore.Rot.Weighted>
3.3842

> <Gold.Chemscore.Internal.Correction.Weighted>
   9.000000E+99

> <Gold.Protein.RotatedTorsions>
[ 6907 6896 6895 6894 ] final -137.49 input  -60.11 | X-H torsion
[ 7974 7965 7964 7962 ] final  -15.30 input  175.53 | X-H torsion
[ 8008 7997 7996 7995 ] final -148.75 input   59.86 | X-H torsion
[ 10167 10162 10161 10158 ] final -167.89 input  -65.29 | X-H torsion
[ 10718 10713 10712 10709 ] final  -44.91 input   66.30 | X-H torsion
[ 10763 10752 10751 10750 ] final  124.23 input  -60.55 | X-H torsion
[ 11005 11000 10999 10996 ] final -143.11 input  -57.11 | X-H torsion

> <Gold.Protein.ActiveResidues>
 VAL166  LYS551  ARG553  GLY616  TRP617  ASP618  TYR619  PRO620  LYS621  CYS622 
 ASP623  PHE694  ASN695  SER759  ASP760  ASP761  ALA762  ILE779  LEU786  VAL792 
 PHE793  MET794  SER795  GLU796  ALA797  LYS798  CYS799  TRP800  GLU811  SER814 

> <Gold.Protein.RotatedAtoms>
  151.0232  133.5858  159.2668 H   0  0  0  0  0  0  0  0  0  0  0  0  # atno 6907 bound_to 6896
  151.2967  135.0756  159.9233 H   0  0  0  0  0  0  0  0  0  0  0  0  # atno 6908 bound_to 6896
  152.5328  133.9920  159.7909 H   0  0  0  0  0  0  0  0  0  0  0  0  # atno 6909 bound_to 6896
  146.2038  140.3473  142.8414 H   0  0  0  0  0  0  0  0  0  0  0  0  # atno 7974 bound_to 7965
  155.5966  140.0658  157.2744 H   0  0  0  0  0  0  0  0  0  0  0  0  # atno 8008 bound_to 7997
  154.4290  140.1826  156.1177 H   0  0  0  0  0  0  0  0  0  0  0  0  # atno 8009 bound_to 7997
  156.0192  140.3318  155.7024 H   0  0  0  0  0  0  0  0  0  0  0  0  # atno 8010 bound_to 7997
  139.6020  144.0991  152.1753 H   0  0  0  0  0  0  0  0  0  0  0  0  # atno 10167 bound_to 10162
  156.2338  130.4174  149.8843 H   0  0  0  0  0  0  0  0  0  0  0  0  # atno 10718 bound_to 10713
  153.6582  135.3351  155.3119 H   0  0  0  0  0  0  0  0  0  0  0  0  # atno 10763 bound_to 10752
  154.8521  135.4357  154.1833 H   0  0  0  0  0  0  0  0  0  0  0  0  # atno 10764 bound_to 10752
  153.2792  135.7007  153.7477 H   0  0  0  0  0  0  0  0  0  0  0  0  # atno 10765 bound_to 10752
  140.8158  134.2690  157.4921 H   0  0  0  0  0  0  0  0  0  0  0  0  # atno 11005 bound_to 11000
  144.8743  140.7315  143.6027 LP  0  0  0  0  0  0  0  0  0  0  0  0  # atno 17320 bound_to 7965
  145.3393  139.1737  143.4494 LP  0  0  0  0  0  0  0  0  0  0  0  0  # atno 17321 bound_to 7965
  140.0589  144.5872  150.7278 LP  0  0  0  0  0  0  0  0  0  0  0  0  # atno 17342 bound_to 10162
  140.7257  143.2633  151.4129 LP  0  0  0  0  0  0  0  0  0  0  0  0  # atno 17343 bound_to 10162
  156.6448  130.8719  151.3520 LP  0  0  0  0  0  0  0  0  0  0  0  0  # atno 17370 bound_to 10713
  157.7145  130.9480  150.1205 LP  0  0  0  0  0  0  0  0  0  0  0  0  # atno 17371 bound_to 10713
  139.8711  134.9508  156.4067 LP  0  0  0  0  0  0  0  0  0  0  0  0  # atno 17394 bound_to 11000
  140.9150  133.7685  155.9838 LP  0  0  0  0  0  0  0  0  0  0  0  0  # atno 17395 bound_to 11000

$$$$
