AV-unprocessed.smi:1420|AV-procd|sdf|5786|dock9
  -GOLD-   22720 5433D 1   1.00000     0.00000
 Structure written by MMmdl.
 38 39  0  0  0  0  0  0  0  0  1 V2000
  151.3794  144.3049  157.9667 C   0  0  0  0  0  0  0  0  0  0  0  0
  152.1235  142.9506  158.0989 C   0  0  2  0  0  0  0  0  0  0  0  0
  151.0977  141.7936  157.9178 C   0  0  0  0  0  0  0  0  0  0  0  0
  150.1290  142.0505  156.8571 N   0  0  0  0  0  0  0  0  0  0  0  0
  150.1631  141.5047  155.6320 C   0  0  0  0  0  0  0  0  0  0  0  0
  150.9865  140.6575  155.2864 O   0  0  0  0  0  0  0  0  0  0  0  0
  149.1236  142.0150  154.6345 C   0  0  0  0  0  0  0  0  0  0  0  0
  148.4533  140.9039  153.9838 N   0  0  0  0  0  0  0  0  0  0  0  0
  147.3525  140.9361  153.1532 C   0  0  0  0  0  0  0  0  0  0  0  0
  147.0707  139.6471  152.8018 C   0  0  0  0  0  0  0  0  0  0  0  0
  148.0667  138.8870  153.4766 C   0  0  0  0  0  0  0  0  0  0  0  0
  148.8937  139.6415  154.1823 N   0  0  0  0  0  0  0  0  0  0  0  0
  152.9070  142.8440  159.3518 N   0  0  0  0  0  0  0  0  0  0  0  0
  153.5236  141.5230  159.5212 C   0  0  0  0  0  0  0  0  0  0  0  0
  154.3143  141.3961  160.8345 C   0  0  0  0  0  0  0  0  0  0  0  0
  153.4613  141.6779  161.9351 O   0  0  0  0  0  0  0  0  0  0  0  0
  152.9015  142.9812  161.8537 C   0  0  0  0  0  0  0  0  0  0  0  0
  152.1017  143.1229  160.5470 C   0  0  0  0  0  0  0  0  0  0  0  0
  150.7704  144.3613  157.0651 H   0  0  0  0  0  0  0  0  0  0  0  0
  152.0655  145.1474  157.8934 H   0  0  0  0  0  0  0  0  0  0  0  0
  150.7207  144.4775  158.8183 H   0  0  0  0  0  0  0  0  0  0  0  0
  152.8234  142.8932  157.2636 H   0  0  0  0  0  0  0  0  0  0  0  0
  151.5811  140.8464  157.6831 H   0  0  0  0  0  0  0  0  0  0  0  0
  150.5490  141.6370  158.8471 H   0  0  0  0  0  0  0  0  0  0  0  0
  149.4165  142.7404  157.0482 H   0  0  0  0  0  0  0  0  0  0  0  0
  148.3792  142.6237  155.1493 H   0  0  0  0  0  0  0  0  0  0  0  0
  149.5947  142.6498  153.8820 H   0  0  0  0  0  0  0  0  0  0  0  0
  146.8653  141.8630  152.8880 H   0  0  0  0  0  0  0  0  0  0  0  0
  146.2731  139.3002  152.1621 H   0  0  0  0  0  0  0  0  0  0  0  0
  148.2119  137.8168  153.4751 H   0  0  0  0  0  0  0  0  0  0  0  0
  152.7563  140.7481  159.4836 H   0  0  0  0  0  0  0  0  0  0  0  0
  154.2215  141.3186  158.7111 H   0  0  0  0  0  0  0  0  0  0  0  0
  154.7115  140.3866  160.9414 H   0  0  0  0  0  0  0  0  0  0  0  0
  155.1664  142.0775  160.8398 H   0  0  0  0  0  0  0  0  0  0  0  0
  152.2525  143.1436  162.7145 H   0  0  0  0  0  0  0  0  0  0  0  0
  153.6935  143.7299  161.9048 H   0  0  0  0  0  0  0  0  0  0  0  0
  151.7143  144.1391  160.5249 H   0  0  0  0  0  0  0  0  0  0  0  0
  151.2395  142.4549  160.5763 H   0  0  0  0  0  0  0  0  0  0  0  0
  1  2  1  0  0  0  0
  1 19  1  0  0  0  0
  1 20  1  0  0  0  0
  1 21  1  0  0  0  0
  2  3  1  0  0  0  0
  2 13  1  0  0  0  0
  2 22  1  0  0  0  0
  3  4  1  0  0  0  0
  3 23  1  0  0  0  0
  3 24  1  0  0  0  0
  4  5  1  0  0  0  0
  4 25  1  0  0  0  0
  5  6  2  0  0  0  0
  5  7  1  0  0  0  0
  7  8  1  0  0  0  0
  7 26  1  0  0  0  0
  7 27  1  0  0  0  0
  8 12  1  0  0  0  0
  8  9  1  0  0  0  0
  9 10  2  0  0  0  0
  9 28  1  0  0  0  0
 10 11  1  0  0  0  0
 10 29  1  0  0  0  0
 11 12  2  0  0  0  0
 11 30  1  0  0  0  0
 13 18  1  0  0  0  0
 13 14  1  0  0  0  0
 14 15  1  0  0  0  0
 14 31  1  0  0  0  0
 14 32  1  0  0  0  0
 15 16  1  0  0  0  0
 15 33  1  0  0  0  0
 15 34  1  0  0  0  0
 16 17  1  0  0  0  0
 17 18  1  0  0  0  0
 17 35  1  0  0  0  0
 17 36  1  0  0  0  0
 18 37  1  0  0  0  0
 18 38  1  0  0  0  0
M  END
> <s_m_source_file>
AV-unprocessed.smi

> <i_m_source_file_index>
1420

> <i_lp_mmshare_version>
43012

> <i_f3d_flags>
0

> <s_epik_input>
W0NIMl0xW0NIMl1PW0NIMl1bQ0gyXU4xW0NASF0oW0NIM10pW0NIMl1bTkhdQyg9TylbQ0gyXW4yW2NIXVtjSF1bY0hdbjI=

> <s_epik_cmdline>
J2VwaWtfcHl0aG9uJywgJy1waCcsICc3LjAnLCAnLXRuJywgJzgnLCAnLW1hJywgJzIwMCcsICctbWV0YWxfYmluZGluZycsICctaW1hZScsICc8aW5maWxlLm1hZT4nLCAnLW9tYWUnLCAnPG91dGZpbGUubWFlPic=

> <r_lp_tautomer_probability>
1

> <r_epik_Ionization_Penalty>
0.196927

> <r_epik_Ionization_Penalty_Charging>
0

> <r_epik_Ionization_Penalty_Neutral>
0.196927

> <r_epik_State_Penalty>
0.186684

> <r_epik_Charging_Adjusted_Penalty>
0.186684

> <i_epik_Tot_Q>
0

> <i_epik_Tot_abs_Q>
0

> <r_epik_Metal_State_Penalty>
0.186682

> <b_epik_Metal_Only>
0

> <s_lp_Force_Field>
OPLS_2005

> <r_lp_Energy>
27.7246

> <b_lp_Chiralities_Consistent>
1

> <s_lp_Variant>
AV-unprocessed.smi:1420-1

> <Gold.Version>
5.8.1

> <Gold.Id.Protein>
6NUR|6NUR_protein|mol2

> <Gold.PLP.Fitness>
42.0098

> <Gold.PLP.PLP>
-37.2466

> <Gold.PLP.part.hbond>
-1.4410

> <Gold.PLP.part.metal>
0.0000

> <Gold.PLP.part.buried>
-1.9089

> <Gold.PLP.part.nonpolar>
-33.7431

> <Gold.PLP.part.repulsive>
0.2301

> <Gold.PLP.ligand.clash>
0.0000

> <Gold.PLP.ligand.torsion>
0.4830

> <Gold.PLP.Chemscore.Hbond>
0.9280

> <Gold.PLP.Chemscore.CHOScore>
0.9607

> <Gold.PLP.Chemscore.Metal>
0.0000

> <Gold.Chemscore.Hbonds>
donor molecule, donor type, donor heavy atom, donor atom, acceptor molecule, acceptor atom, score
      P1  H  7989  7998       L1     6  0.88
      L1  C    11    30       P1  7948  1.00

> <Gold.PLP.Chemscore.Internal.Correction>
0.0631

> <Gold.Rescore>
     Score         DG    S(hbond)    S(metal)    S(lipo)     H(rot)  DE(clash)    DE(int)     intcor
     12.45     -15.23       0.85        0.00      99.96       1.87       0.76       2.02       ----

> <Gold.Chemscore.Fitness>
12.4523

> <Gold.Chemscore.DG>
-15.2311

> <Gold.Chemscore.ZeroCoef>
-5.4800

> <Gold.Chemscore.Hbond>
0.8488

> <Gold.Chemscore.Metal>
0.0000

> <Gold.Chemscore.Lipo>
99.9598

> <Gold.Chemscore.Internal_Hbond>
0.0000

> <Gold.Chemscore.DEClash>
0.7564

> <Gold.Chemscore.DEInternal>
2.0225

> <Gold.Chemscore.Rot>
1.8669

> <Gold.Chemscore.Internal.Correction>
   9.000000E+99

> <Gold.Chemscore.Hbonds>
donor molecule, donor type, donor heavy atom, donor atom, acceptor molecule, acceptor atom, score
      L1  H     4    25       P1  8028  0.02
      P1  H  7989  7998       L1     6  0.76

> <Gold.Chemscore.Hbond.Weighted>
-2.8350

> <Gold.Chemscore.Metal.Weighted>
-0.0000

> <Gold.Chemscore.Lipo.Weighted>
-11.6953

> <Gold.Chemscore.Internal_Hbond.Weighted>
0.0000

> <Gold.Chemscore.DEClash.Weighted>
0.7564

> <Gold.Chemscore.DEInternal.Weighted>
2.0225

> <Gold.Chemscore.Rot.Weighted>
4.7792

> <Gold.Chemscore.Internal.Correction.Weighted>
   9.000000E+99

> <Gold.Protein.RotatedTorsions>
[ 6907 6896 6895 6894 ] final  -74.33 input  -60.11 | X-H torsion
[ 7974 7965 7964 7962 ] final  -38.81 input  175.53 | X-H torsion
[ 8008 7997 7996 7995 ] final   48.81 input   59.86 | X-H torsion
[ 10167 10162 10161 10158 ] final  125.39 input  -65.29 | X-H torsion
[ 10718 10713 10712 10709 ] final -111.97 input   66.30 | X-H torsion
[ 10763 10752 10751 10750 ] final   94.00 input  -60.55 | X-H torsion
[ 11005 11000 10999 10996 ] final  111.75 input  -57.11 | X-H torsion

> <Gold.Protein.ActiveResidues>
 VAL166  LYS551  ARG553  GLY616  TRP617  ASP618  TYR619  PRO620  LYS621  CYS622 
 ASP623  PHE694  ASN695  SER759  ASP760  ASP761  ALA762  ILE779  LEU786  VAL792 
 PHE793  MET794  SER795  GLU796  ALA797  LYS798  CYS799  TRP800  GLU811  SER814 

> <Gold.Protein.RotatedAtoms>
  150.7097  134.4884  159.5503 H   0  0  0  0  0  0  0  0  0  0  0  0  # atno 6907 bound_to 6896
  152.2507  134.8133  160.0455 H   0  0  0  0  0  0  0  0  0  0  0  0  # atno 6908 bound_to 6896
  151.8881  133.3475  159.3826 H   0  0  0  0  0  0  0  0  0  0  0  0  # atno 6909 bound_to 6896
  146.0453  140.6554  142.9067 H   0  0  0  0  0  0  0  0  0  0  0  0  # atno 7974 bound_to 7965
  155.3918  140.3433  155.4252 H   0  0  0  0  0  0  0  0  0  0  0  0  # atno 8008 bound_to 7997
  156.1553  140.1583  156.8736 H   0  0  0  0  0  0  0  0  0  0  0  0  # atno 8009 bound_to 7997
  154.5089  140.0795  156.7932 H   0  0  0  0  0  0  0  0  0  0  0  0  # atno 8010 bound_to 7997
  139.5688  144.6927  151.3835 H   0  0  0  0  0  0  0  0  0  0  0  0  # atno 10167 bound_to 10162
  156.0678  130.5895  150.8445 H   0  0  0  0  0  0  0  0  0  0  0  0  # atno 10718 bound_to 10713
  153.2366  135.4305  155.0653 H   0  0  0  0  0  0  0  0  0  0  0  0  # atno 10763 bound_to 10752
  154.8321  135.3392  154.6710 H   0  0  0  0  0  0  0  0  0  0  0  0  # atno 10764 bound_to 10752
  153.7135  135.7021  153.5087 H   0  0  0  0  0  0  0  0  0  0  0  0  # atno 10765 bound_to 10752
  139.8911  134.9515  156.6481 H   0  0  0  0  0  0  0  0  0  0  0  0  # atno 11005 bound_to 11000
  144.7095  140.3983  143.7092 LP  0  0  0  0  0  0  0  0  0  0  0  0  # atno 17320 bound_to 7965
  145.6816  139.1619  143.2697 LP  0  0  0  0  0  0  0  0  0  0  0  0  # atno 17321 bound_to 7965
  140.6972  143.7719  150.7346 LP  0  0  0  0  0  0  0  0  0  0  0  0  # atno 17342 bound_to 10162
  140.1219  143.4604  152.2308 LP  0  0  0  0  0  0  0  0  0  0  0  0  # atno 17343 bound_to 10162
  157.5731  131.0946  150.9388 LP  0  0  0  0  0  0  0  0  0  0  0  0  # atno 17370 bound_to 10713
  156.9600  130.5451  149.5285 LP  0  0  0  0  0  0  0  0  0  0  0  0  # atno 17371 bound_to 10713
  140.7542  133.8872  155.8369 LP  0  0  0  0  0  0  0  0  0  0  0  0  # atno 17394 bound_to 11000
  140.9976  134.1194  157.4349 LP  0  0  0  0  0  0  0  0  0  0  0  0  # atno 17395 bound_to 11000

$$$$
