AV-unprocessed.smi:2190|AV-procd|sdf|8891|dock8
  -GOLD-   2272012 93D 1   1.00000     0.00000
 Structure written by MMmdl.
 47 49  0  0  0  0  0  0  0  0  2 V2000
  137.7114  136.1962  157.5835 C   0  0  0  0  0  0  0  0  0  0  0  0
  138.0424  136.7166  156.1998 C   0  0  0  0  0  0  0  0  0  0  0  0
  137.0468  137.3279  155.4142 C   0  0  0  0  0  0  0  0  0  0  0  0
  137.3613  137.8063  154.1296 C   0  0  0  0  0  0  0  0  0  0  0  0
  138.6706  137.6759  153.6222 C   0  0  0  0  0  0  0  0  0  0  0  0
  138.9911  138.1971  152.2338 C   0  0  0  0  0  0  0  0  0  0  0  0
  139.6804  137.0632  154.4004 C   0  0  0  0  0  0  0  0  0  0  0  0
  140.9401  136.9671  153.8451 O   0  0  0  0  0  0  0  0  0  0  0  0
  141.9866  136.4092  154.6287 C   0  0  0  0  0  0  0  0  0  0  0  0
  142.7486  135.3818  153.7774 C   0  0  1  0  0  0  0  0  0  0  0  0
  141.9482  134.2229  153.6519 O   0  0  0  0  0  0  0  0  0  0  0  0
  143.0713  135.9293  152.3730 C   0  0  0  0  0  0  0  0  0  0  0  0
  144.3930  135.5035  151.8813 N   0  0  0  0  0  0  0  0  0  0  0  0
  145.5440  136.2198  151.7227 C   0  0  0  0  0  0  0  0  0  0  0  0
  145.7563  137.6656  152.0308 C   0  0  0  0  0  0  0  0  0  0  0  0
  147.0061  138.1319  151.5734 O   0  0  0  0  0  0  0  0  0  0  0  0
  146.4885  135.3651  151.2390 N   0  3  0  0  0  0  0  0  0  0  0  0
  145.9411  134.0909  151.0885 C   0  0  0  0  0  0  0  0  0  0  0  0
  146.5100  132.9044  150.6356 C   0  0  0  0  0  0  0  0  0  0  0  0
  145.6726  131.7701  150.6114 C   0  0  0  0  0  0  0  0  0  0  0  0
  144.3280  131.8419  151.0290 C   0  0  0  0  0  0  0  0  0  0  0  0
  143.7623  133.0509  151.4846 C   0  0  0  0  0  0  0  0  0  0  0  0
  144.5954  134.1699  151.5026 C   0  0  0  0  0  0  0  0  0  0  0  0
  139.3513  136.5840  155.6943 C   0  0  0  0  0  0  0  0  0  0  0  0
  136.7598  136.5929  157.9389 H   0  0  0  0  0  0  0  0  0  0  0  0
  138.4849  136.4846  158.2958 H   0  0  0  0  0  0  0  0  0  0  0  0
  137.6450  135.1082  157.5696 H   0  0  0  0  0  0  0  0  0  0  0  0
  136.0401  137.4316  155.7921 H   0  0  0  0  0  0  0  0  0  0  0  0
  136.5907  138.2742  153.5347 H   0  0  0  0  0  0  0  0  0  0  0  0
  139.7742  138.9541  152.2848 H   0  0  0  0  0  0  0  0  0  0  0  0
  138.1160  138.6465  151.7636 H   0  0  0  0  0  0  0  0  0  0  0  0
  139.3386  137.3846  151.5952 H   0  0  0  0  0  0  0  0  0  0  0  0
  142.6642  137.1777  155.0057 H   0  0  0  0  0  0  0  0  0  0  0  0
  141.5402  135.9056  155.4878 H   0  0  0  0  0  0  0  0  0  0  0  0
  143.6809  135.1142  154.2761 H   0  0  0  0  0  0  0  0  0  0  0  0
  142.4004  133.5030  154.0652 H   0  0  0  0  0  0  0  0  0  0  0  0
  142.3050  135.6424  151.6530 H   0  0  0  0  0  0  0  0  0  0  0  0
  143.0682  137.0193  152.3888 H   0  0  0  0  0  0  0  0  0  0  0  0
  144.9660  138.2540  151.5640 H   0  0  0  0  0  0  0  0  0  0  0  0
  145.6836  137.8311  153.1054 H   0  0  0  0  0  0  0  0  0  0  0  0
  147.6797  137.8028  152.1492 H   0  0  0  0  0  0  0  0  0  0  0  0
  147.5410  132.8464  150.3190 H   0  0  0  0  0  0  0  0  0  0  0  0
  146.0706  130.8258  150.2687 H   0  0  0  0  0  0  0  0  0  0  0  0
  143.7174  130.9511  151.0013 H   0  0  0  0  0  0  0  0  0  0  0  0
  142.7330  133.0897  151.8083 H   0  0  0  0  0  0  0  0  0  0  0  0
  140.0893  136.1074  156.3212 H   0  0  0  0  0  0  0  0  0  0  0  0
  147.4415  135.6364  151.0342 H   0  0  0  0  0  0  0  0  0  0  0  0
  1  2  1  0  0  0  0
  1 25  1  0  0  0  0
  1 26  1  0  0  0  0
  1 27  1  0  0  0  0
  2 24  1  0  0  0  0
  2  3  2  0  0  0  0
  3  4  1  0  0  0  0
  3 28  1  0  0  0  0
  4  5  2  0  0  0  0
  4 29  1  0  0  0  0
  5  6  1  0  0  0  0
  5  7  1  0  0  0  0
  6 30  1  0  0  0  0
  6 31  1  0  0  0  0
  6 32  1  0  0  0  0
  7  8  1  0  0  0  0
  7 24  2  0  0  0  0
  8  9  1  0  0  0  0
  9 10  1  0  0  0  0
  9 33  1  0  0  0  0
  9 34  1  0  0  0  0
 10 11  1  0  0  0  0
 10 12  1  0  0  0  0
 10 35  1  0  0  0  0
 11 36  1  0  0  0  0
 12 13  1  0  0  0  0
 12 37  1  0  0  0  0
 12 38  1  0  0  0  0
 13 23  1  0  0  0  0
 13 14  1  0  0  0  0
 14 15  1  0  0  0  0
 14 17  2  0  0  0  0
 15 16  1  0  0  0  0
 15 39  1  0  0  0  0
 15 40  1  0  0  0  0
 16 41  1  0  0  0  0
 17 18  1  0  0  0  0
 17 47  1  0  0  0  0
 18 23  2  0  0  0  0
 18 19  1  0  0  0  0
 19 20  2  0  0  0  0
 19 42  1  0  0  0  0
 20 21  1  0  0  0  0
 20 43  1  0  0  0  0
 21 22  2  0  0  0  0
 21 44  1  0  0  0  0
 22 23  1  0  0  0  0
 22 45  1  0  0  0  0
 24 46  1  0  0  0  0
M  CHG  1  17   1
M  END
> <s_m_source_file>
AV-unprocessed.smi

> <i_m_source_file_index>
2190

> <i_lp_mmshare_version>
43012

> <i_f3d_flags>
0

> <s_epik_input>
W0NIM11jMVtjSF1bY0hdYyhbQ0gzXSljKFtjSF0xKU9bQ0gyXVtDQEhdKFtPSF0pW0NIMl1uKGMobjIpW0NIMl1bT0hdKWMoYzIzKVtjSF1bY0hdW2NIXVtjSF0z

> <s_epik_cmdline>
J2VwaWtfcHl0aG9uJywgJy1waCcsICc3LjAnLCAnLXRuJywgJzgnLCAnLW1hJywgJzIwMCcsICctbWV0YWxfYmluZGluZycsICctaW1hZScsICc8aW5maWxlLm1hZT4nLCAnLW9tYWUnLCAnPG91dGZpbGUubWFlPic=

> <r_lp_tautomer_probability>
1

> <r_epik_Ionization_Penalty>
1.43125

> <r_epik_Ionization_Penalty_Charging>
1.43039

> <r_epik_Ionization_Penalty_Neutral>
0.000858184

> <r_epik_State_Penalty>
1.51493

> <r_epik_Charging_Adjusted_Penalty>
2.94531

> <i_epik_Tot_Q>
1

> <i_epik_Tot_abs_Q>
1

> <r_epik_Metal_State_Penalty>
5.5599

> <b_epik_Metal_Only>
0

> <s_lp_Force_Field>
OPLS_2005

> <r_lp_Energy>
19.5123

> <b_lp_Chiralities_Consistent>
1

> <s_lp_Variant>
AV-unprocessed.smi:2190-4

> <Gold.Version>
5.8.1

> <Gold.Id.Protein>
6NUR|6NUR_protein|mol2

> <Gold.PLP.Fitness>
53.5172

> <Gold.PLP.PLP>
-42.9726

> <Gold.PLP.part.hbond>
-3.7953

> <Gold.PLP.part.metal>
0.0000

> <Gold.PLP.part.buried>
-1.9175

> <Gold.PLP.part.nonpolar>
-38.7322

> <Gold.PLP.part.repulsive>
0.1985

> <Gold.PLP.ligand.clash>
0.0000

> <Gold.PLP.ligand.torsion>
1.1511

> <Gold.PLP.Chemscore.Hbond>
4.2560

> <Gold.PLP.Chemscore.CHOScore>
0.0000

> <Gold.PLP.Chemscore.Metal>
0.0000

> <Gold.Chemscore.Hbonds>
donor molecule, donor type, donor heavy atom, donor atom, acceptor molecule, acceptor atom, score
      L1  H    11    36       P1 10957  1.00
      L1  H    16    41       P1  7948  0.56
      L1  H    17    47       P1  7948  1.73
      P1  H  7954  7966       L1    16  0.61

> <Gold.PLP.Chemscore.Internal.Correction>
0.0789

> <Gold.Rescore>
     Score         DG    S(hbond)    S(metal)    S(lipo)     H(rot)  DE(clash)    DE(int)     intcor
     16.87     -19.19       2.58        0.00     110.33       3.05       1.02       1.30       ----

> <Gold.Chemscore.Fitness>
16.8721

> <Gold.Chemscore.DG>
-19.1906

> <Gold.Chemscore.ZeroCoef>
-5.4800

> <Gold.Chemscore.Hbond>
2.5762

> <Gold.Chemscore.Metal>
0.0000

> <Gold.Chemscore.Lipo>
110.3252

> <Gold.Chemscore.Internal_Hbond>
0.0000

> <Gold.Chemscore.DEClash>
1.0162

> <Gold.Chemscore.DEInternal>
1.3023

> <Gold.Chemscore.Rot>
3.0476

> <Gold.Chemscore.Internal.Correction>
   9.000000E+99

> <Gold.Chemscore.Hbonds>
donor molecule, donor type, donor heavy atom, donor atom, acceptor molecule, acceptor atom, score
      L1  H    11    36       P1 10957  0.99
      L1  H    16    41       P1  7948  0.53
      L1  H    17    47       P1  7948  0.59
      P1  H  7954  7966       L1    16  0.05

> <Gold.Chemscore.Hbond.Weighted>
-8.6044

> <Gold.Chemscore.Metal.Weighted>
-0.0000

> <Gold.Chemscore.Lipo.Weighted>
-12.9081

> <Gold.Chemscore.Internal_Hbond.Weighted>
0.0000

> <Gold.Chemscore.DEClash.Weighted>
1.0162

> <Gold.Chemscore.DEInternal.Weighted>
1.3023

> <Gold.Chemscore.Rot.Weighted>
7.8018

> <Gold.Chemscore.Internal.Correction.Weighted>
   9.000000E+99

> <Gold.Protein.RotatedTorsions>
[ 6907 6896 6895 6894 ] final   93.15 input  -60.11 | X-H torsion
[ 7974 7965 7964 7962 ] final  166.33 input  175.53 | X-H torsion
[ 8008 7997 7996 7995 ] final  115.05 input   59.86 | X-H torsion
[ 10167 10162 10161 10158 ] final   81.80 input  -65.29 | X-H torsion
[ 10718 10713 10712 10709 ] final   -6.12 input   66.30 | X-H torsion
[ 10763 10752 10751 10750 ] final  -37.39 input  -60.55 | X-H torsion
[ 11005 11000 10999 10996 ] final  -92.02 input  -57.11 | X-H torsion

> <Gold.Protein.ActiveResidues>
 VAL166  LYS551  ARG553  GLY616  TRP617  ASP618  TYR619  PRO620  LYS621  CYS622 
 ASP623  PHE694  ASN695  SER759  ASP760  ASP761  ALA762  ILE779  LEU786  VAL792 
 PHE793  MET794  SER795  GLU796  ALA797  LYS798  CYS799  TRP800  GLU811  SER814 

> <Gold.Protein.RotatedAtoms>
  152.5453  134.1393  159.8471 H   0  0  0  0  0  0  0  0  0  0  0  0  # atno 6907 bound_to 6896
  151.1430  133.4951  159.2604 H   0  0  0  0  0  0  0  0  0  0  0  0  # atno 6908 bound_to 6896
  151.1552  135.0257  159.8741 H   0  0  0  0  0  0  0  0  0  0  0  0  # atno 6909 bound_to 6896
  144.7466  139.8600  143.6380 H   0  0  0  0  0  0  0  0  0  0  0  0  # atno 7974 bound_to 7965
  156.2358  140.2946  156.0309 H   0  0  0  0  0  0  0  0  0  0  0  0  # atno 8008 bound_to 7997
  155.2095  140.0412  157.2948 H   0  0  0  0  0  0  0  0  0  0  0  0  # atno 8009 bound_to 7997
  154.6076  140.2443  155.7717 H   0  0  0  0  0  0  0  0  0  0  0  0  # atno 8010 bound_to 7997
  139.9354  144.6124  150.8303 H   0  0  0  0  0  0  0  0  0  0  0  0  # atno 10167 bound_to 10162
  156.7366  130.5196  149.5833 H   0  0  0  0  0  0  0  0  0  0  0  0  # atno 10718 bound_to 10713
  153.8954  135.6808  153.4758 H   0  0  0  0  0  0  0  0  0  0  0  0  # atno 10763 bound_to 10752
  153.1158  135.4762  154.9110 H   0  0  0  0  0  0  0  0  0  0  0  0  # atno 10764 bound_to 10752
  154.7601  135.3208  154.8347 H   0  0  0  0  0  0  0  0  0  0  0  0  # atno 10765 bound_to 10752
  141.1531  133.7794  156.9962 H   0  0  0  0  0  0  0  0  0  0  0  0  # atno 11005 bound_to 11000
  146.1355  139.4399  143.0142 LP  0  0  0  0  0  0  0  0  0  0  0  0  # atno 17320 bound_to 7965
  145.7098  141.0110  143.1459 LP  0  0  0  0  0  0  0  0  0  0  0  0  # atno 17321 bound_to 7965
  140.7626  143.3202  151.2641 LP  0  0  0  0  0  0  0  0  0  0  0  0  # atno 17342 bound_to 10162
  139.6748  143.9957  152.2774 LP  0  0  0  0  0  0  0  0  0  0  0  0  # atno 17343 bound_to 10162
  156.1493  130.6299  151.0574 LP  0  0  0  0  0  0  0  0  0  0  0  0  # atno 17370 bound_to 10713
  157.6836  131.0831  150.7302 LP  0  0  0  0  0  0  0  0  0  0  0  0  # atno 17371 bound_to 10713
  140.0970  134.9558  157.1865 LP  0  0  0  0  0  0  0  0  0  0  0  0  # atno 17394 bound_to 11000
  140.3369  134.2748  155.7218 LP  0  0  0  0  0  0  0  0  0  0  0  0  # atno 17395 bound_to 11000

$$$$
