AV-unprocessed.smi:275|AV-procd|sdf|2063|dock7
  -GOLD-   2262021313D 1   1.00000     0.00000
 Structure written by MMmdl.
 65 69  0  0  0  0  0  0  0  0  1 V2000
  143.8000  135.1567  162.8967 C   0  0  0  0  0  0  0  0  0  0  0  0
  143.6282  136.1261  161.7180 C   0  0  0  0  0  0  0  0  0  0  0  0
  142.1308  136.2474  161.3568 C   0  0  0  0  0  0  0  0  0  0  0  0
  144.5899  135.7709  160.5535 C   0  0  1  0  0  0  0  0  0  0  0  0
  144.4882  136.7437  159.4633 N   0  0  0  0  0  0  0  0  0  0  0  0
  144.3094  136.2274  158.1375 C   0  0  0  0  0  0  0  0  0  0  0  0
  144.3067  134.8779  157.9592 N   0  0  0  0  0  0  0  0  0  0  0  0
  144.1577  134.3295  156.7510 C   0  0  0  0  0  0  0  0  0  0  0  0
  144.0108  134.9371  155.5754 N   0  0  0  0  0  0  0  0  0  0  0  0
  144.0412  136.2905  155.7224 C   0  0  0  0  0  0  0  0  0  0  0  0
  144.1907  137.0079  156.9461 C   0  0  0  0  0  0  0  0  0  0  0  0
  144.1888  138.3729  156.6792 N   0  0  0  0  0  0  0  0  0  0  0  0
  144.0303  138.4575  155.3878 C   0  0  0  0  0  0  0  0  0  0  0  0
  143.9269  137.2530  154.7347 N   0  0  0  0  0  0  0  0  0  0  0  0
  143.7488  137.0572  153.3062 C   0  0  0  0  0  0  0  0  0  0  0  0
  145.0333  136.5684  152.5900 C   0  0  2  0  0  0  0  0  0  0  0  0
  145.8208  137.7584  151.9841 C   0  0  0  0  0  0  0  0  0  0  0  0
  146.9273  137.3220  151.2232 O   0  0  0  0  0  0  0  0  0  0  0  0
  144.6741  135.4920  151.5290 C   0  0  2  0  0  0  0  0  0  0  0  0
  143.6025  134.4994  151.9732 C   0  0  0  0  0  0  0  0  0  0  0  0
  143.9452  133.1983  151.2414 C   0  0  0  0  0  0  0  0  0  0  0  0
  145.1231  133.4718  150.4962 O   0  0  0  0  0  0  0  0  0  0  0  0
  145.8038  134.5417  151.1280 C   0  0  0  0  0  0  0  0  0  0  0  0
  145.7994  137.3144  159.7662 C   0  0  0  0  0  0  0  0  0  0  0  0
  146.1166  136.0524  160.5799 C   0  0  0  0  0  0  0  0  0  0  0  0
  146.9938  135.0233  159.8332 C   0  0  0  0  0  0  0  0  0  0  0  0
  147.1570  133.6972  160.5945 C   0  0  0  0  0  0  0  0  0  0  0  0
  147.7707  133.9305  161.9793 C   0  0  0  0  0  0  0  0  0  0  0  0
  146.9745  134.9812  162.7614 C   0  0  0  0  0  0  0  0  0  0  0  0
  146.8008  136.2749  161.9447 C   0  0  0  0  0  0  0  0  0  0  0  0
  143.4944  134.1459  162.6248 H   0  0  0  0  0  0  0  0  0  0  0  0
  143.1988  135.4656  163.7522 H   0  0  0  0  0  0  0  0  0  0  0  0
  144.8385  135.1161  163.2261 H   0  0  0  0  0  0  0  0  0  0  0  0
  143.9267  137.1008  162.1014 H   0  0  0  0  0  0  0  0  0  0  0  0
  141.7142  135.2906  161.0408 H   0  0  0  0  0  0  0  0  0  0  0  0
  141.9440  136.9668  160.5632 H   0  0  0  0  0  0  0  0  0  0  0  0
  141.5540  136.5768  162.2214 H   0  0  0  0  0  0  0  0  0  0  0  0
  144.4442  134.7434  160.2247 H   0  0  0  0  0  0  0  0  0  0  0  0
  144.1589  133.2499  156.7238 H   0  0  0  0  0  0  0  0  0  0  0  0
  143.9829  139.4063  154.8734 H   0  0  0  0  0  0  0  0  0  0  0  0
  142.9370  136.3409  153.1824 H   0  0  0  0  0  0  0  0  0  0  0  0
  143.4022  137.9910  152.8621 H   0  0  0  0  0  0  0  0  0  0  0  0
  145.6656  136.1014  153.3473 H   0  0  0  0  0  0  0  0  0  0  0  0
  145.1716  138.3805  151.3675 H   0  0  0  0  0  0  0  0  0  0  0  0
  146.2288  138.4055  152.7587 H   0  0  0  0  0  0  0  0  0  0  0  0
  147.4182  136.6992  151.7373 H   0  0  0  0  0  0  0  0  0  0  0  0
  144.3223  135.9880  150.6231 H   0  0  0  0  0  0  0  0  0  0  0  0
  143.6439  134.3334  153.0505 H   0  0  0  0  0  0  0  0  0  0  0  0
  142.5996  134.8520  151.7302 H   0  0  0  0  0  0  0  0  0  0  0  0
  144.1395  132.3949  151.9533 H   0  0  0  0  0  0  0  0  0  0  0  0
  143.1442  132.8761  150.5758 H   0  0  0  0  0  0  0  0  0  0  0  0
  146.5210  134.9980  150.4454 H   0  0  0  0  0  0  0  0  0  0  0  0
  146.3413  134.1690  152.0016 H   0  0  0  0  0  0  0  0  0  0  0  0
  146.4784  137.4790  158.9296 H   0  0  0  0  0  0  0  0  0  0  0  0
  145.7150  138.2125  160.3778 H   0  0  0  0  0  0  0  0  0  0  0  0
  146.5784  134.8054  158.8492 H   0  0  0  0  0  0  0  0  0  0  0  0
  147.9801  135.4474  159.6398 H   0  0  0  0  0  0  0  0  0  0  0  0
  146.1875  133.2090  160.6993 H   0  0  0  0  0  0  0  0  0  0  0  0
  147.7851  133.0146  160.0216 H   0  0  0  0  0  0  0  0  0  0  0  0
  147.8094  132.9947  162.5375 H   0  0  0  0  0  0  0  0  0  0  0  0
  148.8019  134.2671  161.8664 H   0  0  0  0  0  0  0  0  0  0  0  0
  145.9998  134.5718  163.0254 H   0  0  0  0  0  0  0  0  0  0  0  0
  147.4795  135.2011  163.7024 H   0  0  0  0  0  0  0  0  0  0  0  0
  147.7817  136.7271  161.7923 H   0  0  0  0  0  0  0  0  0  0  0  0
  146.2529  136.9944  162.5485 H   0  0  0  0  0  0  0  0  0  0  0  0
  1  2  1  0  0  0  0
  1 31  1  0  0  0  0
  1 32  1  0  0  0  0
  1 33  1  0  0  0  0
  2  3  1  0  0  0  0
  2  4  1  0  0  0  0
  2 34  1  0  0  0  0
  3 35  1  0  0  0  0
  3 36  1  0  0  0  0
  3 37  1  0  0  0  0
  4 25  1  0  0  0  0
  4  5  1  0  0  0  0
  4 38  1  0  0  0  0
  5  6  1  0  0  0  0
  5 24  1  0  0  0  0
  6 11  1  0  0  0  0
  6  7  2  0  0  0  0
  7  8  1  0  0  0  0
  8  9  2  0  0  0  0
  8 39  1  0  0  0  0
  9 10  1  0  0  0  0
 10 14  1  0  0  0  0
 10 11  2  0  0  0  0
 11 12  1  0  0  0  0
 12 13  2  0  0  0  0
 13 14  1  0  0  0  0
 13 40  1  0  0  0  0
 14 15  1  0  0  0  0
 15 16  1  0  0  0  0
 15 41  1  0  0  0  0
 15 42  1  0  0  0  0
 16 17  1  0  0  0  0
 16 19  1  0  0  0  0
 16 43  1  0  0  0  0
 17 18  1  0  0  0  0
 17 44  1  0  0  0  0
 17 45  1  0  0  0  0
 18 46  1  0  0  0  0
 19 23  1  0  0  0  0
 19 20  1  0  0  0  0
 19 47  1  0  0  0  0
 20 21  1  0  0  0  0
 20 48  1  0  0  0  0
 20 49  1  0  0  0  0
 21 22  1  0  0  0  0
 21 50  1  0  0  0  0
 21 51  1  0  0  0  0
 22 23  1  0  0  0  0
 23 52  1  0  0  0  0
 23 53  1  0  0  0  0
 24 25  1  0  0  0  0
 24 54  1  0  0  0  0
 24 55  1  0  0  0  0
 25 30  1  0  0  0  0
 25 26  1  0  0  0  0
 26 27  1  0  0  0  0
 26 56  1  0  0  0  0
 26 57  1  0  0  0  0
 27 28  1  0  0  0  0
 27 58  1  0  0  0  0
 27 59  1  0  0  0  0
 28 29  1  0  0  0  0
 28 60  1  0  0  0  0
 28 61  1  0  0  0  0
 29 30  1  0  0  0  0
 29 62  1  0  0  0  0
 29 63  1  0  0  0  0
 30 64  1  0  0  0  0
 30 65  1  0  0  0  0
M  END
> <s_m_source_file>
AV-unprocessed.smi

> <i_m_source_file_index>
275

> <i_lp_mmshare_version>
43012

> <i_f3d_flags>
0

> <s_epik_input>
W0NIMl0xW0NIMl1bQ0gyXVtDSDJdW0NIMl1DMTJbQ0BIXShbQ0hdKFtDSDNdKVtDSDNdKU4oW0NIMl0yKWMobltjSF1uMyljKGMzNCluW2NIXW40W0NIMl1bQ0BIXShbQ0gyXVtPSF0pW0NAQEhdNVtDSDJdW0NIMl1PW0NIMl01

> <s_epik_cmdline>
J2VwaWtfcHl0aG9uJywgJy1waCcsICc3LjAnLCAnLXRuJywgJzgnLCAnLW1hJywgJzIwMCcsICctbWV0YWxfYmluZGluZycsICctaW1hZScsICc8aW5maWxlLm1hZT4nLCAnLW9tYWUnLCAnPG91dGZpbGUubWFlPic=

> <r_lp_tautomer_probability>
1

> <r_epik_Ionization_Penalty>
0.00375122

> <r_epik_Ionization_Penalty_Charging>
0

> <r_epik_Ionization_Penalty_Neutral>
0.00375122

> <r_epik_State_Penalty>
0.00260593

> <r_epik_Charging_Adjusted_Penalty>
0.00260593

> <i_epik_Tot_Q>
0

> <i_epik_Tot_abs_Q>
0

> <r_epik_Metal_State_Penalty>
-0

> <b_epik_Metal_Only>
0

> <s_lp_Force_Field>
OPLS_2005

> <r_lp_Energy>
70.0888

> <b_lp_Chiralities_Consistent>
1

> <s_lp_Variant>
AV-unprocessed.smi:275-2

> <Gold.Version>
5.8.1

> <Gold.Id.Protein>
6NUR|6NUR_protein|mol2

> <Gold.PLP.Fitness>
42.0031

> <Gold.PLP.PLP>
-34.3675

> <Gold.PLP.part.hbond>
-1.7347

> <Gold.PLP.part.metal>
0.0000

> <Gold.PLP.part.buried>
-4.4919

> <Gold.PLP.part.nonpolar>
-29.3537

> <Gold.PLP.part.repulsive>
0.2592

> <Gold.PLP.ligand.clash>
0.0000

> <Gold.PLP.ligand.torsion>
1.3824

> <Gold.PLP.Chemscore.Hbond>
1.7840

> <Gold.PLP.Chemscore.CHOScore>
1.5393

> <Gold.PLP.Chemscore.Metal>
0.0000

> <Gold.Chemscore.Hbonds>
donor molecule, donor type, donor heavy atom, donor atom, acceptor molecule, acceptor atom, score
      L1  H    18    46       P1  7948  0.70
      P1  H  7954  7966       L1    18  1.00
      L1  C     8    39       P1 10957  0.22
      L1  C    13    40       P1 10175  0.77

> <Gold.PLP.Chemscore.Internal.Correction>
0.4305

> <Gold.Rescore>
     Score         DG    S(hbond)    S(metal)    S(lipo)     H(rot)  DE(clash)    DE(int)     intcor
     11.97     -13.63       1.34        0.00      86.89       2.54       0.14       1.51       ----

> <Gold.Chemscore.Fitness>
11.9726

> <Gold.Chemscore.DG>
-13.6290

> <Gold.Chemscore.ZeroCoef>
-5.4800

> <Gold.Chemscore.Hbond>
1.3412

> <Gold.Chemscore.Metal>
0.0000

> <Gold.Chemscore.Lipo>
86.8887

> <Gold.Chemscore.Internal_Hbond>
0.0000

> <Gold.Chemscore.DEClash>
0.1440

> <Gold.Chemscore.DEInternal>
1.5124

> <Gold.Chemscore.Rot>
2.5377

> <Gold.Chemscore.Internal.Correction>
   9.000000E+99

> <Gold.Chemscore.Hbonds>
donor molecule, donor type, donor heavy atom, donor atom, acceptor molecule, acceptor atom, score
      L1  H    18    46       P1  7948  0.68
      P1  H  7954  7966       L1    18  0.40

> <Gold.Chemscore.Hbond.Weighted>
-4.4796

> <Gold.Chemscore.Metal.Weighted>
-0.0000

> <Gold.Chemscore.Lipo.Weighted>
-10.1660

> <Gold.Chemscore.Internal_Hbond.Weighted>
0.0000

> <Gold.Chemscore.DEClash.Weighted>
0.1440

> <Gold.Chemscore.DEInternal.Weighted>
1.5124

> <Gold.Chemscore.Rot.Weighted>
6.4966

> <Gold.Chemscore.Internal.Correction.Weighted>
   9.000000E+99

> <Gold.Protein.RotatedTorsions>
[ 6907 6896 6895 6894 ] final   99.76 input  -60.11 | X-H torsion
[ 7974 7965 7964 7962 ] final  -70.14 input  175.53 | X-H torsion
[ 8008 7997 7996 7995 ] final    0.60 input   59.86 | X-H torsion
[ 10167 10162 10161 10158 ] final -137.02 input  -65.29 | X-H torsion
[ 10718 10713 10712 10709 ] final   99.62 input   66.30 | X-H torsion
[ 10763 10752 10751 10750 ] final -125.98 input  -60.55 | X-H torsion
[ 11005 11000 10999 10996 ] final  160.12 input  -57.11 | X-H torsion

> <Gold.Protein.ActiveResidues>
 VAL166  LYS551  ARG553  GLY616  TRP617  ASP618  TYR619  PRO620  LYS621  CYS622 
 ASP623  PHE694  ASN695  SER759  ASP760  ASP761  ALA762  ILE779  LEU786  VAL792 
 PHE793  MET794  SER795  GLU796  ALA797  LYS798  CYS799  TRP800  GLU811  SER814 

> <Gold.Protein.RotatedAtoms>
  152.5386  134.0380  159.8054 H   0  0  0  0  0  0  0  0  0  0  0  0  # atno 6907 bound_to 6896
  151.0541  133.5592  159.2647 H   0  0  0  0  0  0  0  0  0  0  0  0  # atno 6908 bound_to 6896
  151.2515  135.0631  159.9117 H   0  0  0  0  0  0  0  0  0  0  0  0  # atno 6909 bound_to 6896
  145.6947  140.9139  143.0763 H   0  0  0  0  0  0  0  0  0  0  0  0  # atno 7974 bound_to 7965
  154.6699  140.2609  155.7018 H   0  0  0  0  0  0  0  0  0  0  0  0  # atno 8008 bound_to 7997
  156.2654  140.2831  156.1126 H   0  0  0  0  0  0  0  0  0  0  0  0  # atno 8009 bound_to 7997
  155.1183  140.0376  157.2733 H   0  0  0  0  0  0  0  0  0  0  0  0  # atno 8010 bound_to 7997
  139.8619  143.7066  152.2649 H   0  0  0  0  0  0  0  0  0  0  0  0  # atno 10167 bound_to 10162
  157.6872  131.0675  150.4976 H   0  0  0  0  0  0  0  0  0  0  0  0  # atno 10718 bound_to 10713
  154.8741  135.4011  154.3357 H   0  0  0  0  0  0  0  0  0  0  0  0  # atno 10763 bound_to 10752
  153.4163  135.7022  153.6329 H   0  0  0  0  0  0  0  0  0  0  0  0  # atno 10764 bound_to 10752
  153.5010  135.3727  155.2510 H   0  0  0  0  0  0  0  0  0  0  0  0  # atno 10765 bound_to 10752
  140.2028  134.8325  157.3037 H   0  0  0  0  0  0  0  0  0  0  0  0  # atno 11005 bound_to 11000
  144.6986  139.8868  143.7450 LP  0  0  0  0  0  0  0  0  0  0  0  0  # atno 17320 bound_to 7965
  146.0851  139.3839  143.0440 LP  0  0  0  0  0  0  0  0  0  0  0  0  # atno 17321 bound_to 7965
  139.7366  144.7570  151.0718 LP  0  0  0  0  0  0  0  0  0  0  0  0  # atno 17342 bound_to 10162
  140.7774  143.5023  150.9755 LP  0  0  0  0  0  0  0  0  0  0  0  0  # atno 17343 bound_to 10162
  156.5299  130.4182  149.6207 LP  0  0  0  0  0  0  0  0  0  0  0  0  # atno 17370 bound_to 10713
  156.3078  130.7212  151.2098 LP  0  0  0  0  0  0  0  0  0  0  0  0  # atno 17371 bound_to 10713
  140.2035  134.4225  155.7650 LP  0  0  0  0  0  0  0  0  0  0  0  0  # atno 17394 bound_to 11000
  141.2227  133.7083  156.8222 LP  0  0  0  0  0  0  0  0  0  0  0  0  # atno 17395 bound_to 11000

$$$$
