AV-unprocessed.smi:729|AV-procd|sdf|3519|dock4
  -GOLD-   22720 0513D 1   1.00000     0.00000
 Structure written by MMmdl.
 20 20  0  0  0  0  0  0  0  0  3 V2000
  149.8356  141.7406  156.7329 C   0  0  0  0  0  0  0  0  0  0  0  0
  151.0228  141.7986  157.6892 C   0  0  0  0  0  0  0  0  0  0  0  0
  151.2143  142.8901  158.4633 C   0  0  0  0  0  0  0  0  0  0  0  0
  152.2667  142.9728  159.3641 C   0  0  0  0  0  0  0  0  0  0  0  0
  152.4500  143.9823  160.0800 O   0  5  0  0  0  0  0  0  0  0  0  0
  153.0971  141.8629  159.4277 C   0  0  0  0  0  0  0  0  0  0  0  0
  152.9391  140.6545  158.6267 C   0  0  0  0  0  0  0  0  0  0  0  0
  153.7057  139.6972  158.7469 O   0  0  0  0  0  0  0  0  0  0  0  0
  151.8993  140.6777  157.7440 N   0  0  0  0  0  0  0  0  0  0  0  0
  151.6540  139.4818  156.9010 C   0  0  0  0  0  0  0  0  0  0  0  0
  151.9433  139.7137  155.4125 C   0  0  0  0  0  0  0  0  0  0  0  0
  150.9625  139.9361  154.6685 O   0  0  0  0  0  0  0  0  0  0  0  0
  153.1347  139.6433  155.0380 O   0  5  0  0  0  0  0  0  0  0  0  0
  149.1607  142.5786  156.9092 H   0  0  0  0  0  0  0  0  0  0  0  0
  149.2433  140.8360  156.8622 H   0  0  0  0  0  0  0  0  0  0  0  0
  150.1656  141.8114  155.6970 H   0  0  0  0  0  0  0  0  0  0  0  0
  150.5263  143.7193  158.3800 H   0  0  0  0  0  0  0  0  0  0  0  0
  153.9273  141.8826  160.1189 H   0  0  0  0  0  0  0  0  0  0  0  0
  152.2431  138.6157  157.2037 H   0  0  0  0  0  0  0  0  0  0  0  0
  150.6276  139.1409  157.0296 H   0  0  0  0  0  0  0  0  0  0  0  0
  1  2  1  0  0  0  0
  1 14  1  0  0  0  0
  1 15  1  0  0  0  0
  1 16  1  0  0  0  0
  2  9  1  0  0  0  0
  2  3  2  0  0  0  0
  3  4  1  0  0  0  0
  3 17  1  0  0  0  0
  4  5  1  0  0  0  0
  4  6  2  0  0  0  0
  6  7  1  0  0  0  0
  6 18  1  0  0  0  0
  7  8  2  0  0  0  0
  7  9  1  0  0  0  0
  9 10  1  0  0  0  0
 10 11  1  0  0  0  0
 10 19  1  0  0  0  0
 10 20  1  0  0  0  0
 11 12  2  0  0  0  0
 11 13  1  0  0  0  0
M  CHG  1   5  -1
M  CHG  1  13  -1
M  END
> <s_m_source_file>
AV-unprocessed.smi

> <i_m_source_file_index>
729

> <i_lp_mmshare_version>
43012

> <i_f3d_flags>
0

> <s_epik_input>
W0NIM11jMVtjSF1jKFtPSF0pW2NIXWMoPU8pbjFbQ0gyXUMoPU8pW09IXQ==

> <s_epik_cmdline>
J2VwaWtfcHl0aG9uJywgJy1waCcsICc3LjAnLCAnLXRuJywgJzgnLCAnLW1hJywgJzIwMCcsICctbWV0YWxfYmluZGluZycsICctaW1hZScsICc8aW5maWxlLm1hZT4nLCAnLW9tYWUnLCAnPG91dGZpbGUubWFlPic=

> <r_lp_tautomer_probability>
1

> <r_epik_Ionization_Penalty>
0.494568

> <r_epik_Ionization_Penalty_Charging>
0.494568

> <r_epik_Ionization_Penalty_Neutral>
1.61422e-13

> <r_epik_State_Penalty>
0.445538

> <r_epik_Charging_Adjusted_Penalty>
0.940106

> <i_epik_Tot_Q>
-2

> <i_epik_Tot_abs_Q>
2

> <r_epik_Metal_State_Penalty>
0.445538

> <b_epik_Metal_Only>
0

> <s_lp_Force_Field>
OPLS_2005

> <r_lp_Energy>
22.4438

> <b_lp_Chiralities_Consistent>
1

> <s_lp_Variant>
AV-unprocessed.smi:729-1

> <Gold.Version>
5.8.1

> <Gold.Id.Protein>
6NUR|6NUR_protein|mol2

> <Gold.PLP.Fitness>
36.6463

> <Gold.PLP.PLP>
-25.4125

> <Gold.PLP.part.hbond>
-3.8783

> <Gold.PLP.part.metal>
0.0000

> <Gold.PLP.part.buried>
-2.7096

> <Gold.PLP.part.nonpolar>
-18.1033

> <Gold.PLP.part.repulsive>
0.1063

> <Gold.PLP.ligand.clash>
0.0000

> <Gold.PLP.ligand.torsion>
0.3867

> <Gold.PLP.Chemscore.Hbond>
4.0000

> <Gold.PLP.Chemscore.CHOScore>
0.0000

> <Gold.PLP.Chemscore.Metal>
0.0000

> <Gold.Chemscore.Hbonds>
donor molecule, donor type, donor heavy atom, donor atom, acceptor molecule, acceptor atom, score
      P1  H  7989  7998       L1    12  1.00
      P1  H  7997  8008       L1     8  1.00
      P1  H  7997  8009       L1    13  2.00

> <Gold.PLP.Chemscore.Internal.Correction>
0.0071

> <Gold.Rescore>
     Score         DG    S(hbond)    S(metal)    S(lipo)     H(rot)  DE(clash)    DE(int)     intcor
     14.61     -15.28       2.62        0.00      41.82       1.51       0.00       0.67       ----

> <Gold.Chemscore.Fitness>
14.6129

> <Gold.Chemscore.DG>
-15.2841

> <Gold.Chemscore.ZeroCoef>
-5.4800

> <Gold.Chemscore.Hbond>
2.6241

> <Gold.Chemscore.Metal>
0.0000

> <Gold.Chemscore.Lipo>
41.8210

> <Gold.Chemscore.Internal_Hbond>
0.0000

> <Gold.Chemscore.DEClash>
0.0048

> <Gold.Chemscore.DEInternal>
0.6664

> <Gold.Chemscore.Rot>
1.5053

> <Gold.Chemscore.Internal.Correction>
   9.000000E+99

> <Gold.Chemscore.Hbonds>
donor molecule, donor type, donor heavy atom, donor atom, acceptor molecule, acceptor atom, score
      P1  H  7989  7998       L1    12  0.35
      P1  H  7997  8008       L1     8  0.33
      P1  H  7997  8009       L1    13  0.95

> <Gold.Chemscore.Hbond.Weighted>
-8.7645

> <Gold.Chemscore.Metal.Weighted>
-0.0000

> <Gold.Chemscore.Lipo.Weighted>
-4.8931

> <Gold.Chemscore.Internal_Hbond.Weighted>
0.0000

> <Gold.Chemscore.DEClash.Weighted>
0.0048

> <Gold.Chemscore.DEInternal.Weighted>
0.6664

> <Gold.Chemscore.Rot.Weighted>
3.8534

> <Gold.Chemscore.Internal.Correction.Weighted>
   9.000000E+99

> <Gold.Protein.RotatedTorsions>
[ 6907 6896 6895 6894 ] final  112.30 input  -60.11 | X-H torsion
[ 7974 7965 7964 7962 ] final  160.69 input  175.53 | X-H torsion
[ 8008 7997 7996 7995 ] final -115.28 input   59.86 | X-H torsion
[ 10167 10162 10161 10158 ] final  110.75 input  -65.29 | X-H torsion
[ 10718 10713 10712 10709 ] final   10.32 input   66.30 | X-H torsion
[ 10763 10752 10751 10750 ] final -124.52 input  -60.55 | X-H torsion
[ 11005 11000 10999 10996 ] final  150.03 input  -57.11 | X-H torsion

> <Gold.Protein.ActiveResidues>
 VAL166  LYS551  ARG553  GLY616  TRP617  ASP618  TYR619  PRO620  LYS621  CYS622 
 ASP623  PHE694  ASN695  SER759  ASP760  ASP761  ALA762  ILE779  LEU786  VAL792 
 PHE793  MET794  SER795  GLU796  ALA797  LYS798  CYS799  TRP800  GLU811  SER814 

> <Gold.Protein.RotatedAtoms>
  152.4923  133.8535  159.7213 H   0  0  0  0  0  0  0  0  0  0  0  0  # atno 6907 bound_to 6896
  150.9066  133.7042  159.2872 H   0  0  0  0  0  0  0  0  0  0  0  0  # atno 6908 bound_to 6896
  151.4465  135.1030  159.9738 H   0  0  0  0  0  0  0  0  0  0  0  0  # atno 6909 bound_to 6896
  144.7724  139.7793  143.6292 H   0  0  0  0  0  0  0  0  0  0  0  0  # atno 7974 bound_to 7965
  155.0496  140.0393  157.2539 H   0  0  0  0  0  0  0  0  0  0  0  0  # atno 8008 bound_to 7997
  154.7148  140.2700  155.6571 H   0  0  0  0  0  0  0  0  0  0  0  0  # atno 8009 bound_to 7997
  156.2800  140.2714  156.1801 H   0  0  0  0  0  0  0  0  0  0  0  0  # atno 8010 bound_to 7997
  139.6664  144.7127  151.1769 H   0  0  0  0  0  0  0  0  0  0  0  0  # atno 10167 bound_to 10162
  156.9792  130.5999  149.5675 H   0  0  0  0  0  0  0  0  0  0  0  0  # atno 10718 bound_to 10713
  154.8724  135.4061  154.3118 H   0  0  0  0  0  0  0  0  0  0  0  0  # atno 10763 bound_to 10752
  153.3961  135.7016  153.6465 H   0  0  0  0  0  0  0  0  0  0  0  0  # atno 10764 bound_to 10752
  153.5227  135.3684  155.2610 H   0  0  0  0  0  0  0  0  0  0  0  0  # atno 10765 bound_to 10752
  140.1096  134.8933  157.1916 H   0  0  0  0  0  0  0  0  0  0  0  0  # atno 11005 bound_to 11000
  146.1879  139.5105  142.9824 LP  0  0  0  0  0  0  0  0  0  0  0  0  # atno 17320 bound_to 7965
  145.6286  141.0308  143.1876 LP  0  0  0  0  0  0  0  0  0  0  0  0  # atno 17321 bound_to 7965
  140.7601  143.5912  150.8794 LP  0  0  0  0  0  0  0  0  0  0  0  0  # atno 17342 bound_to 10162
  139.9574  143.6202  152.3012 LP  0  0  0  0  0  0  0  0  0  0  0  0  # atno 17343 bound_to 10162
  156.0251  130.5345  150.8385 LP  0  0  0  0  0  0  0  0  0  0  0  0  # atno 17370 bound_to 10713
  157.5538  131.0944  150.9657 LP  0  0  0  0  0  0  0  0  0  0  0  0  # atno 17371 bound_to 10713
  140.3109  134.3024  155.7267 LP  0  0  0  0  0  0  0  0  0  0  0  0  # atno 17394 bound_to 11000
  141.2127  133.7650  156.9776 LP  0  0  0  0  0  0  0  0  0  0  0  0  # atno 17395 bound_to 11000

$$$$
