AV-unprocessed.smi:295|AV-procd|sdf|2254|dock7
  -GOLD-   2262022143D 1   1.00000     0.00000
 Structure written by MMmdl.
 35 36  0  0  0  0  0  0  0  0  1 V2000
  152.3971  141.1957  158.5357 C   0  0  0  0  0  0  0  0  0  0  0  0
  152.0848  142.6950  158.6975 C   0  0  2  0  0  0  0  0  0  0  0  0
  152.5482  143.2028  160.0775 C   0  0  0  0  0  0  0  0  0  0  0  0
  152.2613  144.7010  160.2598 C   0  0  0  0  0  0  0  0  0  0  0  0
  150.7719  145.0073  160.0500 C   0  0  0  0  0  0  0  0  0  0  0  0
  150.2974  144.5184  158.6740 C   0  0  0  0  0  0  0  0  0  0  0  0
  150.5862  143.0169  158.4755 C   0  0  1  0  0  0  0  0  0  0  0  0
  150.1834  142.6115  157.1327 N   0  0  0  0  0  0  0  0  0  0  0  0
  149.2423  141.7032  156.8329 C   0  0  0  0  0  0  0  0  0  0  0  0
  148.5311  141.1545  157.6736 O   0  0  0  0  0  0  0  0  0  0  0  0
  149.0934  141.3490  155.3523 C   0  0  0  0  0  0  0  0  0  0  0  0
  149.9468  140.2273  155.0004 N   0  0  0  0  0  0  0  0  0  0  0  0
  149.6343  138.9954  154.5842 C   0  0  0  0  0  0  0  0  0  0  0  0
  150.6859  138.2093  154.3889 N   0  0  0  0  0  0  0  0  0  0  0  0
  151.6733  139.0881  154.7279 C   0  0  0  0  0  0  0  0  0  0  0  0
  153.0745  138.7051  154.6977 C   0  0  0  0  0  0  0  0  0  0  0  0
  154.1908  138.4009  154.6736 N   0  0  0  0  0  0  0  0  0  0  0  0
  151.2967  140.3098  155.0987 N   0  0  0  0  0  0  0  0  0  0  0  0
  151.8225  140.5943  159.2408 H   0  0  0  0  0  0  0  0  0  0  0  0
  153.4541  140.9950  158.7123 H   0  0  0  0  0  0  0  0  0  0  0  0
  152.1671  140.8398  157.5310 H   0  0  0  0  0  0  0  0  0  0  0  0
  152.6613  143.2299  157.9407 H   0  0  0  0  0  0  0  0  0  0  0  0
  152.0459  142.6388  160.8648 H   0  0  0  0  0  0  0  0  0  0  0  0
  153.6161  143.0205  160.2028 H   0  0  0  0  0  0  0  0  0  0  0  0
  152.5699  145.0204  161.2556 H   0  0  0  0  0  0  0  0  0  0  0  0
  152.8577  145.2771  159.5511 H   0  0  0  0  0  0  0  0  0  0  0  0
  150.1842  144.5250  160.8323 H   0  0  0  0  0  0  0  0  0  0  0  0
  150.5953  146.0789  160.1456 H   0  0  0  0  0  0  0  0  0  0  0  0
  149.2295  144.7125  158.5664 H   0  0  0  0  0  0  0  0  0  0  0  0
  150.7958  145.0972  157.8949 H   0  0  0  0  0  0  0  0  0  0  0  0
  150.0092  142.4541  159.2122 H   0  0  0  0  0  0  0  0  0  0  0  0
  150.7063  143.0112  156.3666 H   0  0  0  0  0  0  0  0  0  0  0  0
  148.0585  141.0859  155.1295 H   0  0  0  0  0  0  0  0  0  0  0  0
  149.3496  142.2117  154.7355 H   0  0  0  0  0  0  0  0  0  0  0  0
  148.6173  138.6646  154.4324 H   0  0  0  0  0  0  0  0  0  0  0  0
  1  2  1  0  0  0  0
  1 19  1  0  0  0  0
  1 20  1  0  0  0  0
  1 21  1  0  0  0  0
  2  7  1  0  0  0  0
  2  3  1  0  0  0  0
  2 22  1  0  0  0  0
  3  4  1  0  0  0  0
  3 23  1  0  0  0  0
  3 24  1  0  0  0  0
  4  5  1  0  0  0  0
  4 25  1  0  0  0  0
  4 26  1  0  0  0  0
  5  6  1  0  0  0  0
  5 27  1  0  0  0  0
  5 28  1  0  0  0  0
  6  7  1  0  0  0  0
  6 29  1  0  0  0  0
  6 30  1  0  0  0  0
  7  8  1  0  0  0  0
  7 31  1  0  0  0  0
  8  9  1  0  0  0  0
  8 32  1  0  0  0  0
  9 10  2  0  0  0  0
  9 11  1  0  0  0  0
 11 12  1  0  0  0  0
 11 33  1  0  0  0  0
 11 34  1  0  0  0  0
 12 18  1  0  0  0  0
 12 13  1  0  0  0  0
 13 14  2  0  0  0  0
 13 35  1  0  0  0  0
 14 15  1  0  0  0  0
 15 16  1  0  0  0  0
 15 18  2  0  0  0  0
 16 17  3  0  0  0  0
M  END
> <s_m_source_file>
AV-unprocessed.smi

> <i_m_source_file_index>
295

> <i_lp_mmshare_version>
43012

> <i_f3d_flags>
0

> <s_epik_input>
W0NIM11bQ0BASF0xW0NIMl1bQ0gyXVtDSDJdW0NIMl1bQ0BIXTFbTkhdQyg9TylbQ0gyXW4yW2NIXW5jKG4yKUMjTg==

> <s_epik_cmdline>
J2VwaWtfcHl0aG9uJywgJy1waCcsICc3LjAnLCAnLXRuJywgJzgnLCAnLW1hJywgJzIwMCcsICctbWV0YWxfYmluZGluZycsICctaW1hZScsICc8aW5maWxlLm1hZT4nLCAnLW9tYWUnLCAnPG91dGZpbGUubWFlPic=

> <r_lp_tautomer_probability>
1

> <r_epik_Ionization_Penalty>
5.31112e-08

> <r_epik_Ionization_Penalty_Charging>
0

> <r_epik_Ionization_Penalty_Neutral>
5.31112e-08

> <r_epik_State_Penalty>
-0

> <r_epik_Charging_Adjusted_Penalty>
0

> <i_epik_Tot_Q>
0

> <i_epik_Tot_abs_Q>
0

> <r_epik_Metal_State_Penalty>
-0

> <b_epik_Metal_Only>
0

> <s_lp_Force_Field>
OPLS_2005

> <r_lp_Energy>
13.1712

> <b_lp_Chiralities_Consistent>
1

> <s_lp_Variant>
AV-unprocessed.smi:295-1

> <Gold.Version>
5.8.1

> <Gold.Id.Protein>
6NUR|6NUR_protein|mol2

> <Gold.PLP.Fitness>
40.1626

> <Gold.PLP.PLP>
-38.5285

> <Gold.PLP.part.hbond>
-3.4448

> <Gold.PLP.part.metal>
0.0000

> <Gold.PLP.part.buried>
-4.1003

> <Gold.PLP.part.nonpolar>
-30.1995

> <Gold.PLP.part.repulsive>
0.3091

> <Gold.PLP.ligand.clash>
0.0000

> <Gold.PLP.ligand.torsion>
0.3907

> <Gold.PLP.Chemscore.Hbond>
0.8026

> <Gold.PLP.Chemscore.CHOScore>
0.0000

> <Gold.PLP.Chemscore.Metal>
0.0000

> <Gold.Chemscore.Hbonds>
donor molecule, donor type, donor heavy atom, donor atom, acceptor molecule, acceptor atom, score
      P1  H  7989  7998       L1    18  0.43
      P1  H  7997  8008       L1    17  0.33

> <Gold.PLP.Chemscore.Internal.Correction>
0.0078

> <Gold.Rescore>
     Score         DG    S(hbond)    S(metal)    S(lipo)     H(rot)  DE(clash)    DE(int)     intcor
      9.31      -9.68       0.05        0.00      76.92       1.95       0.19       0.18       ----

> <Gold.Chemscore.Fitness>
9.3125

> <Gold.Chemscore.DG>
-9.6770

> <Gold.Chemscore.ZeroCoef>
-5.4800

> <Gold.Chemscore.Hbond>
0.0547

> <Gold.Chemscore.Metal>
0.0000

> <Gold.Chemscore.Lipo>
76.9204

> <Gold.Chemscore.Internal_Hbond>
0.0000

> <Gold.Chemscore.DEClash>
0.1854

> <Gold.Chemscore.DEInternal>
0.1791

> <Gold.Chemscore.Rot>
1.9474

> <Gold.Chemscore.Internal.Correction>
   9.000000E+99

> <Gold.Chemscore.Hbonds>
donor molecule, donor type, donor heavy atom, donor atom, acceptor molecule, acceptor atom, score
      P1  H  7997  8008       L1    17  0.02

> <Gold.Chemscore.Hbond.Weighted>
-0.1826

> <Gold.Chemscore.Metal.Weighted>
-0.0000

> <Gold.Chemscore.Lipo.Weighted>
-8.9997

> <Gold.Chemscore.Internal_Hbond.Weighted>
0.0000

> <Gold.Chemscore.DEClash.Weighted>
0.1854

> <Gold.Chemscore.DEInternal.Weighted>
0.1791

> <Gold.Chemscore.Rot.Weighted>
4.9852

> <Gold.Chemscore.Internal.Correction.Weighted>
   9.000000E+99

> <Gold.Protein.RotatedTorsions>
[ 6907 6896 6895 6894 ] final  -29.88 input  -60.11 | X-H torsion
[ 7974 7965 7964 7962 ] final  148.05 input  175.53 | X-H torsion
[ 8008 7997 7996 7995 ] final   11.58 input   59.86 | X-H torsion
[ 10167 10162 10161 10158 ] final  -74.98 input  -65.29 | X-H torsion
[ 10718 10713 10712 10709 ] final  165.09 input   66.30 | X-H torsion
[ 10763 10752 10751 10750 ] final  -91.46 input  -60.55 | X-H torsion
[ 11005 11000 10999 10996 ] final   80.81 input  -57.11 | X-H torsion

> <Gold.Protein.ActiveResidues>
 VAL166  LYS551  ARG553  GLY616  TRP617  ASP618  TYR619  PRO620  LYS621  CYS622 
 ASP623  PHE694  ASN695  SER759  ASP760  ASP761  ALA762  ILE779  LEU786  VAL792 
 PHE793  MET794  SER795  GLU796  ALA797  LYS798  CYS799  TRP800  GLU811  SER814 

> <Gold.Protein.RotatedAtoms>
  151.1132  135.0038  159.8503 H   0  0  0  0  0  0  0  0  0  0  0  0  # atno 6907 bound_to 6896
  152.5444  134.1811  159.8646 H   0  0  0  0  0  0  0  0  0  0  0  0  # atno 6908 bound_to 6896
  151.1863  133.4649  159.2627 H   0  0  0  0  0  0  0  0  0  0  0  0  # atno 6909 bound_to 6896
  144.8543  139.6105  143.5959 H   0  0  0  0  0  0  0  0  0  0  0  0  # atno 7974 bound_to 7965
  154.8089  140.2865  155.5867 H   0  0  0  0  0  0  0  0  0  0  0  0  # atno 8008 bound_to 7997
  156.2986  140.2572  156.2903 H   0  0  0  0  0  0  0  0  0  0  0  0  # atno 8009 bound_to 7997
  154.9470  140.0380  157.2115 H   0  0  0  0  0  0  0  0  0  0  0  0  # atno 8010 bound_to 7997
  140.4981  143.2366  151.7797 H   0  0  0  0  0  0  0  0  0  0  0  0  # atno 10167 bound_to 10162
  157.0850  131.0402  151.2560 H   0  0  0  0  0  0  0  0  0  0  0  0  # atno 10718 bound_to 10713
  154.6762  135.5267  153.8203 H   0  0  0  0  0  0  0  0  0  0  0  0  # atno 10763 bound_to 10752
  153.0534  135.6541  154.0647 H   0  0  0  0  0  0  0  0  0  0  0  0  # atno 10764 bound_to 10752
  154.0540  135.2967  155.3315 H   0  0  0  0  0  0  0  0  0  0  0  0  # atno 10765 bound_to 10752
  139.9120  134.7949  156.1959 H   0  0  0  0  0  0  0  0  0  0  0  0  # atno 11005 bound_to 11000
  146.2811  139.6879  142.9228 LP  0  0  0  0  0  0  0  0  0  0  0  0  # atno 17320 bound_to 7965
  145.4436  141.0424  143.2843 LP  0  0  0  0  0  0  0  0  0  0  0  0  # atno 17321 bound_to 7965
  139.4866  144.4559  151.9599 LP  0  0  0  0  0  0  0  0  0  0  0  0  # atno 17342 bound_to 10162
  140.3647  144.2929  150.5928 LP  0  0  0  0  0  0  0  0  0  0  0  0  # atno 17343 bound_to 10162
  157.4768  130.7741  149.7376 LP  0  0  0  0  0  0  0  0  0  0  0  0  # atno 17370 bound_to 10713
  155.9913  130.3938  150.2990 LP  0  0  0  0  0  0  0  0  0  0  0  0  # atno 17371 bound_to 10713
  141.0555  133.6867  156.1852 LP  0  0  0  0  0  0  0  0  0  0  0  0  # atno 17394 bound_to 11000
  140.6744  134.4834  157.5588 LP  0  0  0  0  0  0  0  0  0  0  0  0  # atno 17395 bound_to 11000

$$$$
