AV-unprocessed.smi:2855|AV-procd|sdf|10982|dock6
  -GOLD-   2272015433D 1   1.00000     0.00000
 Structure written by MMmdl.
 47 48  0  0  0  0  0  0  0  0  1 V2000
  152.8250  144.8390  157.7915 C   0  0  0  0  0  0  0  0  0  0  0  0
  151.7397  144.2832  158.7305 C   0  0  1  0  0  0  0  0  0  0  0  0
  150.6702  143.4639  157.9859 C   0  0  0  0  0  0  0  0  0  0  0  0
  151.1923  142.0908  157.5325 C   0  0  0  0  0  0  0  0  0  0  0  0
  151.7570  141.2647  158.7128 C   0  0  1  0  0  0  0  0  0  0  0  0
  152.2057  139.8299  158.2996 C   0  0  0  0  0  0  0  0  0  0  0  0
  151.4348  139.2510  157.0988 C   0  0  0  0  0  0  0  0  0  0  0  0
  152.1868  138.8449  159.4817 C   0  0  0  0  0  0  0  0  0  0  0  0
  152.8503  142.0805  159.4588 C   0  0  2  0  0  0  0  0  0  0  0  0
  153.3146  141.3672  160.6477 N   0  0  0  0  0  0  0  0  0  0  0  0
  154.5616  140.9203  160.8634 C   0  0  0  0  0  0  0  0  0  0  0  0
  155.4940  141.0998  160.0790 O   0  0  0  0  0  0  0  0  0  0  0  0
  154.7888  140.1627  162.1783 C   0  0  0  0  0  0  0  0  0  0  0  0
  154.9171  141.0651  163.3311 N   0  0  0  0  0  0  0  0  0  0  0  0
  154.2046  142.2551  163.3743 C   0  0  0  0  0  0  0  0  0  0  0  0
  154.2894  143.1376  164.3979 C   0  0  0  0  0  0  0  0  0  0  0  0
  155.1610  142.8673  165.5364 C   0  0  0  0  0  0  0  0  0  0  0  0
  155.3045  143.6033  166.5102 O   0  0  0  0  0  0  0  0  0  0  0  0
  155.8619  141.6612  165.4549 N   0  0  0  0  0  0  0  0  0  0  0  0
  155.7811  140.7484  164.4023 C   0  0  0  0  0  0  0  0  0  0  0  0
  156.4479  139.7143  164.4276 O   0  0  0  0  0  0  0  0  0  0  0  0
  152.3245  143.4637  159.8960 C   0  0  0  0  0  0  0  0  0  0  0  0
  156.4802  141.4324  166.2196 H   0  0  0  0  0  0  0  0  0  0  0  0
  153.3928  144.0477  157.3030 H   0  0  0  0  0  0  0  0  0  0  0  0
  153.5329  145.4612  158.3395 H   0  0  0  0  0  0  0  0  0  0  0  0
  152.3843  145.4578  157.0095 H   0  0  0  0  0  0  0  0  0  0  0  0
  151.2390  145.1503  159.1635 H   0  0  0  0  0  0  0  0  0  0  0  0
  149.8128  143.3156  158.6435 H   0  0  0  0  0  0  0  0  0  0  0  0
  150.2971  144.0234  157.1273 H   0  0  0  0  0  0  0  0  0  0  0  0
  150.3750  141.5566  157.0495 H   0  0  0  0  0  0  0  0  0  0  0  0
  151.9567  142.2305  156.7688 H   0  0  0  0  0  0  0  0  0  0  0  0
  150.9364  141.1345  159.4207 H   0  0  0  0  0  0  0  0  0  0  0  0
  153.2514  139.8861  157.9970 H   0  0  0  0  0  0  0  0  0  0  0  0
  150.3803  139.1003  157.3289 H   0  0  0  0  0  0  0  0  0  0  0  0
  151.8443  138.2832  156.8082 H   0  0  0  0  0  0  0  0  0  0  0  0
  151.4989  139.8978  156.2247 H   0  0  0  0  0  0  0  0  0  0  0  0
  151.1726  138.6284  159.8162 H   0  0  0  0  0  0  0  0  0  0  0  0
  152.7452  139.2364  160.3323 H   0  0  0  0  0  0  0  0  0  0  0  0
  152.6443  137.8953  159.2023 H   0  0  0  0  0  0  0  0  0  0  0  0
  153.6840  142.2470  158.7765 H   0  0  0  0  0  0  0  0  0  0  0  0
  152.6210  141.1770  161.3563 H   0  0  0  0  0  0  0  0  0  0  0  0
  153.9536  139.4759  162.3209 H   0  0  0  0  0  0  0  0  0  0  0  0
  155.6746  139.5285  162.1016 H   0  0  0  0  0  0  0  0  0  0  0  0
  153.5499  142.5000  162.5501 H   0  0  0  0  0  0  0  0  0  0  0  0
  153.7099  144.0492  164.3733 H   0  0  0  0  0  0  0  0  0  0  0  0
  153.1194  144.0300  160.3836 H   0  0  0  0  0  0  0  0  0  0  0  0
  151.5479  143.3277  160.6504 H   0  0  0  0  0  0  0  0  0  0  0  0
  1  2  1  0  0  0  0
  1 24  1  0  0  0  0
  1 25  1  0  0  0  0
  1 26  1  0  0  0  0
  2 22  1  0  0  0  0
  2  3  1  0  0  0  0
  2 27  1  0  0  0  0
  3  4  1  0  0  0  0
  3 28  1  0  0  0  0
  3 29  1  0  0  0  0
  4  5  1  0  0  0  0
  4 30  1  0  0  0  0
  4 31  1  0  0  0  0
  5  6  1  0  0  0  0
  5  9  1  0  0  0  0
  5 32  1  0  0  0  0
  6  7  1  0  0  0  0
  6  8  1  0  0  0  0
  6 33  1  0  0  0  0
  7 34  1  0  0  0  0
  7 35  1  0  0  0  0
  7 36  1  0  0  0  0
  8 37  1  0  0  0  0
  8 38  1  0  0  0  0
  8 39  1  0  0  0  0
  9 10  1  0  0  0  0
  9 22  1  0  0  0  0
  9 40  1  0  0  0  0
 10 11  1  0  0  0  0
 10 41  1  0  0  0  0
 11 12  2  0  0  0  0
 11 13  1  0  0  0  0
 13 14  1  0  0  0  0
 13 42  1  0  0  0  0
 13 43  1  0  0  0  0
 14 20  1  0  0  0  0
 14 15  1  0  0  0  0
 15 16  2  0  0  0  0
 15 44  1  0  0  0  0
 16 17  1  0  0  0  0
 16 45  1  0  0  0  0
 17 18  2  0  0  0  0
 17 19  1  0  0  0  0
 19 23  1  0  0  0  0
 19 20  1  0  0  0  0
 20 21  2  0  0  0  0
 22 46  1  0  0  0  0
 22 47  1  0  0  0  0
M  END
> <s_m_source_file>
AV-unprocessed.smi

> <i_m_source_file_index>
2855

> <i_lp_mmshare_version>
43012

> <i_f3d_flags>
0

> <s_epik_input>
W0NIM11bQ0BASF0xW0NIMl1bQ0gyXVtDQEBIXShbQ0hdKFtDSDNdKVtDSDNdKVtDQEhdKFtDSDJdMSlbTkhdQyg9TylbQ0gyXW4yW2NIXVtjSF1jKD1PKVtuSF1jMj1P

> <s_epik_cmdline>
J2VwaWtfcHl0aG9uJywgJy1waCcsICc3LjAnLCAnLXRuJywgJzgnLCAnLW1hJywgJzIwMCcsICctbWV0YWxfYmluZGluZycsICctaW1hZScsICc8aW5maWxlLm1hZT4nLCAnLW9tYWUnLCAnPG91dGZpbGUubWFlPic=

> <r_lp_tautomer_probability>
0.999537

> <r_epik_Ionization_Penalty>
0.00306256

> <r_epik_Ionization_Penalty_Charging>
0.00306254

> <r_epik_Ionization_Penalty_Neutral>
2.0223e-08

> <r_epik_State_Penalty>
0.0021533

> <r_epik_Charging_Adjusted_Penalty>
0.00521583

> <i_epik_Tot_Q>
0

> <i_epik_Tot_abs_Q>
0

> <r_epik_Metal_State_Penalty>
0.362116

> <b_epik_Metal_Only>
0

> <s_lp_Force_Field>
OPLS_2005

> <r_lp_Energy>
15.8562

> <b_lp_Chiralities_Consistent>
1

> <s_lp_Variant>
AV-unprocessed.smi:2855-6

> <Gold.Version>
5.8.1

> <Gold.Id.Protein>
6NUR|6NUR_protein|mol2

> <Gold.PLP.Fitness>
41.2103

> <Gold.PLP.PLP>
-43.5273

> <Gold.PLP.part.hbond>
-0.7968

> <Gold.PLP.part.metal>
0.0000

> <Gold.PLP.part.buried>
-0.9398

> <Gold.PLP.part.nonpolar>
-41.3679

> <Gold.PLP.part.repulsive>
0.1102

> <Gold.PLP.ligand.clash>
0.0371

> <Gold.PLP.ligand.torsion>
1.1713

> <Gold.PLP.Chemscore.Hbond>
0.0000

> <Gold.PLP.Chemscore.CHOScore>
0.0000

> <Gold.PLP.Chemscore.Metal>
0.0000

> <Gold.PLP.Chemscore.Internal.Correction>
0.0628

> <Gold.Rescore>
     Score         DG    S(hbond)    S(metal)    S(lipo)     H(rot)  DE(clash)    DE(int)     intcor
     12.34     -15.05       0.00        0.00     122.37       1.85       0.74       1.97       ----

> <Gold.Chemscore.Fitness>
12.3423

> <Gold.Chemscore.DG>
-15.0517

> <Gold.Chemscore.ZeroCoef>
-5.4800

> <Gold.Chemscore.Hbond>
0.0000

> <Gold.Chemscore.Metal>
0.0000

> <Gold.Chemscore.Lipo>
122.3737

> <Gold.Chemscore.Internal_Hbond>
0.0000

> <Gold.Chemscore.DEClash>
0.7410

> <Gold.Chemscore.DEInternal>
1.9684

> <Gold.Chemscore.Rot>
1.8539

> <Gold.Chemscore.Internal.Correction>
   9.000000E+99

> <Gold.Chemscore.Hbond.Weighted>
-0.0000

> <Gold.Chemscore.Metal.Weighted>
-0.0000

> <Gold.Chemscore.Lipo.Weighted>
-14.3177

> <Gold.Chemscore.Internal_Hbond.Weighted>
0.0000

> <Gold.Chemscore.DEClash.Weighted>
0.7410

> <Gold.Chemscore.DEInternal.Weighted>
1.9684

> <Gold.Chemscore.Rot.Weighted>
4.7460

> <Gold.Chemscore.Internal.Correction.Weighted>
   9.000000E+99

> <Gold.Protein.RotatedTorsions>
[ 6907 6896 6895 6894 ] final -167.48 input  -60.11 | X-H torsion
[ 7974 7965 7964 7962 ] final  178.48 input  175.53 | X-H torsion
[ 8008 7997 7996 7995 ] final -115.95 input   59.86 | X-H torsion
[ 10167 10162 10161 10158 ] final -153.60 input  -65.29 | X-H torsion
[ 10718 10713 10712 10709 ] final  146.33 input   66.30 | X-H torsion
[ 10763 10752 10751 10750 ] final  133.38 input  -60.55 | X-H torsion
[ 11005 11000 10999 10996 ] final  178.73 input  -57.11 | X-H torsion

> <Gold.Protein.ActiveResidues>
 VAL166  LYS551  ARG553  GLY616  TRP617  ASP618  TYR619  PRO620  LYS621  CYS622 
 ASP623  PHE694  ASN695  SER759  ASP760  ASP761  ALA762  ILE779  LEU786  VAL792 
 PHE793  MET794  SER795  GLU796  ALA797  LYS798  CYS799  TRP800  GLU811  SER814 

> <Gold.Protein.RotatedAtoms>
  151.4603  133.3594  159.2807 H   0  0  0  0  0  0  0  0  0  0  0  0  # atno 6907 bound_to 6896
  150.9030  134.8445  159.7384 H   0  0  0  0  0  0  0  0  0  0  0  0  # atno 6908 bound_to 6896
  152.4890  134.4525  159.9631 H   0  0  0  0  0  0  0  0  0  0  0  0  # atno 6909 bound_to 6896
  144.7156  140.0404  143.6437 H   0  0  0  0  0  0  0  0  0  0  0  0  # atno 7974 bound_to 7965
  155.0602  140.0393  157.2574 H   0  0  0  0  0  0  0  0  0  0  0  0  # atno 8008 bound_to 7997
  154.7066  140.2684  155.6644 H   0  0  0  0  0  0  0  0  0  0  0  0  # atno 8009 bound_to 7997
  156.2777  140.2730  156.1694 H   0  0  0  0  0  0  0  0  0  0  0  0  # atno 8010 bound_to 7997
  139.7083  143.9150  152.2458 H   0  0  0  0  0  0  0  0  0  0  0  0  # atno 10167 bound_to 10162
  157.3345  131.0926  151.1134 H   0  0  0  0  0  0  0  0  0  0  0  0  # atno 10718 bound_to 10713
  153.8062  135.3135  155.3396 H   0  0  0  0  0  0  0  0  0  0  0  0  # atno 10763 bound_to 10752
  154.8069  135.4692  154.0419 H   0  0  0  0  0  0  0  0  0  0  0  0  # atno 10764 bound_to 10752
  153.1783  135.6889  153.8601 H   0  0  0  0  0  0  0  0  0  0  0  0  # atno 10765 bound_to 10752
  140.3984  134.6800  157.4548 H   0  0  0  0  0  0  0  0  0  0  0  0  # atno 11005 bound_to 11000
  146.0028  139.3105  143.0917 LP  0  0  0  0  0  0  0  0  0  0  0  0  # atno 17320 bound_to 7965
  145.8773  140.9384  143.0619 LP  0  0  0  0  0  0  0  0  0  0  0  0  # atno 17321 bound_to 7965
  139.9012  144.6911  150.8663 LP  0  0  0  0  0  0  0  0  0  0  0  0  # atno 17342 bound_to 10162
  140.7727  143.3512  151.2010 LP  0  0  0  0  0  0  0  0  0  0  0  0  # atno 17343 bound_to 10162
  157.2370  130.6551  149.5873 LP  0  0  0  0  0  0  0  0  0  0  0  0  # atno 17370 bound_to 10713
  155.9700  130.4580  150.5985 LP  0  0  0  0  0  0  0  0  0  0  0  0  # atno 17371 bound_to 10713
  140.0355  134.6344  155.9050 LP  0  0  0  0  0  0  0  0  0  0  0  0  # atno 17394 bound_to 11000
  141.1866  133.6557  156.5245 LP  0  0  0  0  0  0  0  0  0  0  0  0  # atno 17395 bound_to 11000

$$$$
