AV-unprocessed.smi:677|AV-procd|sdf|3311|dock3
  -GOLD-   22720 0273D 1   1.00000     0.00000
 Structure written by MMmdl.
 43 44  0  0  0  0  0  0  0  0  1 V2000
  152.3650  143.8021  161.5495 C   0  0  0  0  0  0  0  0  0  0  0  0
  152.0072  143.4147  160.1298 C   0  0  0  0  0  0  0  0  0  0  0  0
  151.8998  144.3985  159.1251 C   0  0  0  0  0  0  0  0  0  0  0  0
  151.5651  143.9908  157.8196 C   0  0  0  0  0  0  0  0  0  0  0  0
  151.3502  142.6195  157.5696 C   0  0  0  0  0  0  0  0  0  0  0  0
  151.0146  142.1257  156.1737 C   0  0  0  0  0  0  0  0  0  0  0  0
  149.7916  141.2116  156.2341 C   0  0  0  0  0  0  0  0  0  0  0  0
  149.9118  140.0077  156.0092 O   0  0  0  0  0  0  0  0  0  0  0  0
  148.6316  141.7946  156.5752 N   0  0  0  0  0  0  0  0  0  0  0  0
  147.3773  141.0983  156.8412 C   0  0  0  0  0  0  0  0  0  0  0  0
  146.2139  141.6935  156.0217 C   0  0  0  0  0  0  0  0  0  0  0  0
  146.6673  142.3484  154.7022 C   0  0  0  0  0  0  0  0  0  0  0  0
  145.4822  142.9909  153.9606 C   0  0  0  0  0  0  0  0  0  0  0  0
  144.8334  143.9964  154.8058 N   0  0  0  0  0  0  0  0  0  0  0  0
  143.7366  144.6292  154.0809 C   0  0  0  0  0  0  0  0  0  0  0  0
  143.0874  145.6994  154.8566 C   0  0  0  0  0  0  0  0  0  0  0  0
  142.5781  146.5408  155.4663 N   0  0  0  0  0  0  0  0  0  0  0  0
  144.2955  143.3575  156.0071 C   0  0  0  0  0  0  0  0  0  0  0  0
  145.4319  142.7358  156.8378 C   0  0  0  0  0  0  0  0  0  0  0  0
  151.4771  141.7170  158.6471 C   0  0  0  0  0  0  0  0  0  0  0  0
  151.7992  142.0989  159.9014 N   0  0  0  0  0  0  0  0  0  0  0  0
  153.1103  144.5981  161.5526 H   0  0  0  0  0  0  0  0  0  0  0  0
  152.7738  142.9546  162.1012 H   0  0  0  0  0  0  0  0  0  0  0  0
  151.4794  144.1591  162.0753 H   0  0  0  0  0  0  0  0  0  0  0  0
  152.0727  145.4413  159.3474 H   0  0  0  0  0  0  0  0  0  0  0  0
  151.4827  144.7169  157.0240 H   0  0  0  0  0  0  0  0  0  0  0  0
  150.8194  142.9702  155.5112 H   0  0  0  0  0  0  0  0  0  0  0  0
  151.8646  141.5833  155.7572 H   0  0  0  0  0  0  0  0  0  0  0  0
  148.6368  142.7919  156.7337 H   0  0  0  0  0  0  0  0  0  0  0  0
  147.5184  140.0512  156.5717 H   0  0  0  0  0  0  0  0  0  0  0  0
  147.1357  141.1070  157.9054 H   0  0  0  0  0  0  0  0  0  0  0  0
  145.5287  140.8809  155.7741 H   0  0  0  0  0  0  0  0  0  0  0  0
  147.4285  143.1036  154.9030 H   0  0  0  0  0  0  0  0  0  0  0  0
  147.1308  141.6094  154.0482 H   0  0  0  0  0  0  0  0  0  0  0  0
  145.8472  143.4558  153.0446 H   0  0  0  0  0  0  0  0  0  0  0  0
  144.7614  142.2268  153.6650 H   0  0  0  0  0  0  0  0  0  0  0  0
  144.0804  145.0424  153.1315 H   0  0  0  0  0  0  0  0  0  0  0  0
  142.9653  143.8911  153.8574 H   0  0  0  0  0  0  0  0  0  0  0  0
  143.7730  144.1008  156.6100 H   0  0  0  0  0  0  0  0  0  0  0  0
  143.5637  142.5962  155.7325 H   0  0  0  0  0  0  0  0  0  0  0  0
  145.0171  142.2726  157.7337 H   0  0  0  0  0  0  0  0  0  0  0  0
  146.1051  143.5228  157.1810 H   0  0  0  0  0  0  0  0  0  0  0  0
  151.3268  140.6581  158.4967 H   0  0  0  0  0  0  0  0  0  0  0  0
  1  2  1  0  0  0  0
  1 22  1  0  0  0  0
  1 23  1  0  0  0  0
  1 24  1  0  0  0  0
  2 21  1  0  0  0  0
  2  3  2  0  0  0  0
  3  4  1  0  0  0  0
  3 25  1  0  0  0  0
  4  5  2  0  0  0  0
  4 26  1  0  0  0  0
  5  6  1  0  0  0  0
  5 20  1  0  0  0  0
  6  7  1  0  0  0  0
  6 27  1  0  0  0  0
  6 28  1  0  0  0  0
  7  8  2  0  0  0  0
  7  9  1  0  0  0  0
  9 10  1  0  0  0  0
  9 29  1  0  0  0  0
 10 11  1  0  0  0  0
 10 30  1  0  0  0  0
 10 31  1  0  0  0  0
 11 19  1  0  0  0  0
 11 12  1  0  0  0  0
 11 32  1  0  0  0  0
 12 13  1  0  0  0  0
 12 33  1  0  0  0  0
 12 34  1  0  0  0  0
 13 14  1  0  0  0  0
 13 35  1  0  0  0  0
 13 36  1  0  0  0  0
 14 15  1  0  0  0  0
 14 18  1  0  0  0  0
 15 16  1  0  0  0  0
 15 37  1  0  0  0  0
 15 38  1  0  0  0  0
 16 17  3  0  0  0  0
 18 19  1  0  0  0  0
 18 39  1  0  0  0  0
 18 40  1  0  0  0  0
 19 41  1  0  0  0  0
 19 42  1  0  0  0  0
 20 21  2  0  0  0  0
 20 43  1  0  0  0  0
M  END
> <s_m_source_file>
AV-unprocessed.smi

> <i_m_source_file_index>
677

> <i_lp_mmshare_version>
43012

> <i_f3d_flags>
0

> <s_epik_input>
W0NIM11jMVtjSF1bY0hdYyhbY0hdbjEpW0NIMl1DKD1PKVtOSF1bQ0gyXVtDSF0yW0NIMl1bQ0gyXU4oW0NIMl1DI04pW0NIMl1bQ0gyXTI=

> <s_epik_cmdline>
J2VwaWtfcHl0aG9uJywgJy1waCcsICc3LjAnLCAnLXRuJywgJzgnLCAnLW1hJywgJzIwMCcsICctbWV0YWxfYmluZGluZycsICctaW1hZScsICc8aW5maWxlLm1hZT4nLCAnLW9tYWUnLCAnPG91dGZpbGUubWFlPic=

> <r_epik_Ionization_Penalty>
0.0175809

> <r_epik_Ionization_Penalty_Charging>
0

> <r_epik_Ionization_Penalty_Neutral>
0.0175809

> <r_epik_State_Penalty>
0.0130795

> <r_epik_Charging_Adjusted_Penalty>
0.0130795

> <i_epik_Tot_Q>
0

> <i_epik_Tot_abs_Q>
0

> <r_epik_Metal_State_Penalty>
0.0127214

> <b_epik_Metal_Only>
0

> <s_lp_Force_Field>
OPLS_2005

> <r_lp_Energy>
13.8767

> <b_lp_Chiralities_Consistent>
1

> <s_lp_Variant>
AV-unprocessed.smi:677-1

> <Gold.Version>
5.8.1

> <Gold.Id.Protein>
6NUR|6NUR_protein|mol2

> <Gold.PLP.Fitness>
44.9659

> <Gold.PLP.PLP>
-43.3825

> <Gold.PLP.part.hbond>
-2.7530

> <Gold.PLP.part.metal>
0.0000

> <Gold.PLP.part.buried>
-2.5573

> <Gold.PLP.part.nonpolar>
-37.3672

> <Gold.PLP.part.repulsive>
0.2102

> <Gold.PLP.ligand.clash>
0.0000

> <Gold.PLP.ligand.torsion>
0.6402

> <Gold.PLP.Chemscore.Hbond>
0.9440

> <Gold.PLP.Chemscore.CHOScore>
0.0000

> <Gold.PLP.Chemscore.Metal>
0.0000

> <Gold.Chemscore.Hbonds>
donor molecule, donor type, donor heavy atom, donor atom, acceptor molecule, acceptor atom, score
      L1  H     9    29       P1  8028  0.45

> <Gold.PLP.Chemscore.Internal.Correction>
0.0318

> <Gold.Rescore>
     Score         DG    S(hbond)    S(metal)    S(lipo)     H(rot)  DE(clash)    DE(int)     intcor
     14.90     -16.21       0.71        0.00     110.31       1.78       0.86       0.46       ----

> <Gold.Chemscore.Fitness>
14.9004

> <Gold.Chemscore.DG>
-16.2120

> <Gold.Chemscore.ZeroCoef>
-5.4800

> <Gold.Chemscore.Hbond>
0.7096

> <Gold.Chemscore.Metal>
0.0000

> <Gold.Chemscore.Lipo>
110.3084

> <Gold.Chemscore.Internal_Hbond>
0.0000

> <Gold.Chemscore.DEClash>
0.8561

> <Gold.Chemscore.DEInternal>
0.4555

> <Gold.Chemscore.Rot>
1.7751

> <Gold.Chemscore.Internal.Correction>
   9.000000E+99

> <Gold.Chemscore.Hbonds>
donor molecule, donor type, donor heavy atom, donor atom, acceptor molecule, acceptor atom, score
      L1  H     9    29       P1  8028  0.40

> <Gold.Chemscore.Hbond.Weighted>
-2.3702

> <Gold.Chemscore.Metal.Weighted>
-0.0000

> <Gold.Chemscore.Lipo.Weighted>
-12.9061

> <Gold.Chemscore.Internal_Hbond.Weighted>
0.0000

> <Gold.Chemscore.DEClash.Weighted>
0.8561

> <Gold.Chemscore.DEInternal.Weighted>
0.4555

> <Gold.Chemscore.Rot.Weighted>
4.5442

> <Gold.Chemscore.Internal.Correction.Weighted>
   9.000000E+99

> <Gold.Protein.RotatedTorsions>
[ 6907 6896 6895 6894 ] final  117.42 input  -60.11 | X-H torsion
[ 7974 7965 7964 7962 ] final  -18.60 input  175.53 | X-H torsion
[ 8008 7997 7996 7995 ] final -125.55 input   59.86 | X-H torsion
[ 10167 10162 10161 10158 ] final  131.52 input  -65.29 | X-H torsion
[ 10718 10713 10712 10709 ] final   15.82 input   66.30 | X-H torsion
[ 10763 10752 10751 10750 ] final  -37.01 input  -60.55 | X-H torsion
[ 11005 11000 10999 10996 ] final -116.97 input  -57.11 | X-H torsion

> <Gold.Protein.ActiveResidues>
 VAL166  LYS551  ARG553  GLY616  TRP617  ASP618  TYR619  PRO620  LYS621  CYS622 
 ASP623  PHE694  ASN695  SER759  ASP760  ASP761  ALA762  ILE779  LEU786  VAL792 
 PHE793  MET794  SER795  GLU796  ALA797  LYS798  CYS799  TRP800  GLU811  SER814 

> <Gold.Protein.RotatedAtoms>
  152.4612  133.7827  159.6859 H   0  0  0  0  0  0  0  0  0  0  0  0  # atno 6907 bound_to 6896
  150.8558  133.7708  159.3016 H   0  0  0  0  0  0  0  0  0  0  0  0  # atno 6908 bound_to 6896
  151.5290  135.1071  159.9949 H   0  0  0  0  0  0  0  0  0  0  0  0  # atno 6909 bound_to 6896
  146.1884  140.3944  142.8467 H   0  0  0  0  0  0  0  0  0  0  0  0  # atno 7974 bound_to 7965
  155.2151  140.0420  157.2939 H   0  0  0  0  0  0  0  0  0  0  0  0  # atno 8008 bound_to 7997
  154.5986  140.2446  155.7794 H   0  0  0  0  0  0  0  0  0  0  0  0  # atno 8009 bound_to 7997
  156.2306  140.2939  156.0189 H   0  0  0  0  0  0  0  0  0  0  0  0  # atno 8010 bound_to 7997
  139.5380  144.6702  151.4719 H   0  0  0  0  0  0  0  0  0  0  0  0  # atno 10167 bound_to 10162
  157.0590  130.6301  149.5782 H   0  0  0  0  0  0  0  0  0  0  0  0  # atno 10718 bound_to 10713
  153.8891  135.6814  153.4762 H   0  0  0  0  0  0  0  0  0  0  0  0  # atno 10763 bound_to 10752
  153.1191  135.4748  154.9162 H   0  0  0  0  0  0  0  0  0  0  0  0  # atno 10764 bound_to 10752
  154.7631  135.3216  154.8292 H   0  0  0  0  0  0  0  0  0  0  0  0  # atno 10765 bound_to 10752
  141.0386  133.9871  157.3031 H   0  0  0  0  0  0  0  0  0  0  0  0  # atno 11005 bound_to 11000
  144.8439  140.6900  143.6211 LP  0  0  0  0  0  0  0  0  0  0  0  0  # atno 17320 bound_to 7965
  145.3869  139.1625  143.4250 LP  0  0  0  0  0  0  0  0  0  0  0  0  # atno 17321 bound_to 7965
  140.6597  143.8525  150.6874 LP  0  0  0  0  0  0  0  0  0  0  0  0  # atno 17342 bound_to 10162
  140.1915  143.4032  152.1859 LP  0  0  0  0  0  0  0  0  0  0  0  0  # atno 17343 bound_to 10162
  155.9984  130.5058  150.7570 LP  0  0  0  0  0  0  0  0  0  0  0  0  # atno 17370 bound_to 10713
  157.4970  131.0915  151.0360 LP  0  0  0  0  0  0  0  0  0  0  0  0  # atno 17371 bound_to 10713
  139.9259  135.0201  156.8232 LP  0  0  0  0  0  0  0  0  0  0  0  0  # atno 17394 bound_to 11000
  140.6276  133.9935  155.7647 LP  0  0  0  0  0  0  0  0  0  0  0  0  # atno 17395 bound_to 11000

$$$$
