AV-unprocessed.smi:283|AV-procd|sdf|2126|dock10
  -GOLD-   2262021433D 1   1.00000     0.00000
 Structure written by MMmdl.
 48 51  0  0  0  0  0  0  0  0  1 V2000
  154.1436  139.4194  160.3082 C   0  0  0  0  0  0  0  0  0  0  0  0
  153.2314  140.4404  159.6045 C   0  0  1  0  0  0  0  0  0  0  0  0
  152.0584  139.7881  159.0236 N   0  0  0  0  0  0  0  0  0  0  0  0
  151.8756  139.7135  157.6866 C   0  0  0  0  0  0  0  0  0  0  0  0
  152.8236  139.1821  156.8706 N   0  0  0  0  0  0  0  0  0  0  0  0
  152.6163  139.1248  155.5514 C   0  0  0  0  0  0  0  0  0  0  0  0
  151.5546  139.5368  154.8542 N   0  0  0  0  0  0  0  0  0  0  0  0
  150.6038  140.0760  155.6707 C   0  0  0  0  0  0  0  0  0  0  0  0
  150.6863  140.1994  157.0849 C   0  0  0  0  0  0  0  0  0  0  0  0
  149.5287  140.7920  157.5728 N   0  0  0  0  0  0  0  0  0  0  0  0
  148.8071  141.0038  156.5044 C   0  0  0  0  0  0  0  0  0  0  0  0
  149.3814  140.6019  155.3166 N   0  0  0  0  0  0  0  0  0  0  0  0
  148.8413  140.6860  153.9256 C   0  0  2  0  0  0  0  0  0  0  0  0
  148.2227  141.9323  153.7809 O   0  0  0  0  0  0  0  0  0  0  0  0
  146.8232  141.7834  153.5483 C   0  0  2  0  0  0  0  0  0  0  0  0
  146.0599  142.9232  154.2406 C   0  0  0  0  0  0  0  0  0  0  0  0
  144.6795  142.6325  154.2926 O   0  0  0  0  0  0  0  0  0  0  0  0
  146.4987  140.3816  154.0695 C   0  0  1  0  0  0  0  0  0  0  0  0
  145.3429  139.8120  153.4859 O   0  0  0  0  0  0  0  0  0  0  0  0
  147.7662  139.6093  153.7343 C   0  0  1  0  0  0  0  0  0  0  0  0
  147.7835  139.1094  152.4095 O   0  0  0  0  0  0  0  0  0  0  0  0
  152.8613  141.5628  160.5730 C   0  0  0  0  0  0  0  0  0  0  0  0
  153.1785  141.4445  161.9471 C   0  0  0  0  0  0  0  0  0  0  0  0
  152.8512  142.4726  162.8512 C   0  0  0  0  0  0  0  0  0  0  0  0
  152.2082  143.6353  162.3911 C   0  0  0  0  0  0  0  0  0  0  0  0
  151.8991  143.7701  161.0252 C   0  0  0  0  0  0  0  0  0  0  0  0
  152.2248  142.7447  160.1147 C   0  0  0  0  0  0  0  0  0  0  0  0
  151.8370  142.9766  158.4454 Cl  0  0  0  0  0  0  0  0  0  0  0  0
  149.7160  140.5817  153.2820 H   0  0  0  0  0  0  0  0  0  0  0  0
  146.6755  141.8264  152.4675 H   0  0  0  0  0  0  0  0  0  0  0  0
  146.3721  140.4107  155.1528 H   0  0  0  0  0  0  0  0  0  0  0  0
  147.9243  138.7696  154.4130 H   0  0  0  0  0  0  0  0  0  0  0  0
  155.0405  139.9014  160.6981 H   0  0  0  0  0  0  0  0  0  0  0  0
  154.4704  138.6301  159.6314 H   0  0  0  0  0  0  0  0  0  0  0  0
  153.6320  138.9451  161.1463 H   0  0  0  0  0  0  0  0  0  0  0  0
  153.7825  140.8901  158.7796 H   0  0  0  0  0  0  0  0  0  0  0  0
  151.4470  139.3276  159.6822 H   0  0  0  0  0  0  0  0  0  0  0  0
  153.4157  138.6867  154.9723 H   0  0  0  0  0  0  0  0  0  0  0  0
  147.8303  141.4615  156.5589 H   0  0  0  0  0  0  0  0  0  0  0  0
  146.4378  143.0973  155.2483 H   0  0  0  0  0  0  0  0  0  0  0  0
  146.1887  143.8514  153.6836 H   0  0  0  0  0  0  0  0  0  0  0  0
  144.5271  141.8149  153.8430 H   0  0  0  0  0  0  0  0  0  0  0  0
  144.9505  140.4567  152.9164 H   0  0  0  0  0  0  0  0  0  0  0  0
  147.7015  138.1684  152.4437 H   0  0  0  0  0  0  0  0  0  0  0  0
  153.6811  140.5646  162.3202 H   0  0  0  0  0  0  0  0  0  0  0  0
  153.0963  142.3695  163.8981 H   0  0  0  0  0  0  0  0  0  0  0  0
  151.9571  144.4254  163.0833 H   0  0  0  0  0  0  0  0  0  0  0  0
  151.4119  144.6678  160.6740 H   0  0  0  0  0  0  0  0  0  0  0  0
  1  2  1  0  0  0  0
  1 33  1  0  0  0  0
  1 34  1  0  0  0  0
  1 35  1  0  0  0  0
  2  3  1  0  0  0  0
  2 22  1  0  0  0  0
  2 36  1  0  0  0  0
  3  4  1  0  0  0  0
  3 37  1  0  0  0  0
  4  9  1  0  0  0  0
  4  5  2  0  0  0  0
  5  6  1  0  0  0  0
  6  7  2  0  0  0  0
  6 38  1  0  0  0  0
  7  8  1  0  0  0  0
  8 12  1  0  0  0  0
  8  9  2  0  0  0  0
  9 10  1  0  0  0  0
 10 11  2  0  0  0  0
 11 12  1  0  0  0  0
 11 39  1  0  0  0  0
 12 13  1  0  0  0  0
 13 29  1  0  0  0  0
 13 20  1  0  0  0  0
 13 14  1  0  0  0  0
 14 15  1  0  0  0  0
 15 30  1  0  0  0  0
 15 16  1  0  0  0  0
 15 18  1  0  0  0  0
 16 17  1  0  0  0  0
 16 40  1  0  0  0  0
 16 41  1  0  0  0  0
 17 42  1  0  0  0  0
 18 31  1  0  0  0  0
 18 19  1  0  0  0  0
 18 20  1  0  0  0  0
 19 43  1  0  0  0  0
 20 32  1  0  0  0  0
 20 21  1  0  0  0  0
 21 44  1  0  0  0  0
 22 27  1  0  0  0  0
 22 23  2  0  0  0  0
 23 24  1  0  0  0  0
 23 45  1  0  0  0  0
 24 25  2  0  0  0  0
 24 46  1  0  0  0  0
 25 26  1  0  0  0  0
 25 47  1  0  0  0  0
 26 27  2  0  0  0  0
 26 48  1  0  0  0  0
 27 28  1  0  0  0  0
M  END
> <s_m_source_file>
AV-unprocessed.smi

> <i_m_source_file_index>
283

> <i_lp_mmshare_version>
43012

> <i_f3d_flags>
0

> <s_epik_input>
Q2xjMVtjSF1bY0hdW2NIXVtjSF1jMVtDQEhdKFtDSDNdKVtOSF1jKG5bY0hdbjIpYyhjMjMpbltjSF1uM1tDQEBIXTRPW0NASF0oW0NIMl1bT0hdKVtDQEBIXShbT0hdKVtDQEhdNFtPSF0=

> <s_epik_cmdline>
J2VwaWtfcHl0aG9uJywgJy1waCcsICc3LjAnLCAnLXRuJywgJzgnLCAnLW1hJywgJzIwMCcsICctbWV0YWxfYmluZGluZycsICctaW1hZScsICc8aW5maWxlLm1hZT4nLCAnLW9tYWUnLCAnPG91dGZpbGUubWFlPic=

> <r_lp_tautomer_probability>
1

> <r_epik_Ionization_Penalty>
0.000266407

> <r_epik_Ionization_Penalty_Charging>
0

> <r_epik_Ionization_Penalty_Neutral>
0.000266407

> <r_epik_State_Penalty>
-0

> <r_epik_Charging_Adjusted_Penalty>
0

> <i_epik_Tot_Q>
0

> <i_epik_Tot_abs_Q>
0

> <r_epik_Metal_State_Penalty>
-0

> <b_epik_Metal_Only>
0

> <s_epik_Chemistry_Notes>
This compound contains an acetal/aminal-like group ( X-CH(R)-Y where X, Y are N, S, or O) that may be acid/base labile, releasing an aldehyde.

> <s_lp_Force_Field>
OPLS_2005

> <r_lp_Energy>
43.9323

> <b_lp_Chiralities_Consistent>
1

> <s_lp_Variant>
AV-unprocessed.smi:283-2

> <Gold.Version>
5.8.1

> <Gold.Id.Protein>
6NUR|6NUR_protein|mol2

> <Gold.PLP.Fitness>
67.7795

> <Gold.PLP.PLP>
-57.5746

> <Gold.PLP.part.hbond>
-7.2611

> <Gold.PLP.part.metal>
0.0000

> <Gold.PLP.part.buried>
-2.1978

> <Gold.PLP.part.nonpolar>
-48.0440

> <Gold.PLP.part.repulsive>
0.3569

> <Gold.PLP.ligand.clash>
0.0000

> <Gold.PLP.ligand.torsion>
1.1911

> <Gold.PLP.Chemscore.Hbond>
4.1781

> <Gold.PLP.Chemscore.CHOScore>
0.0000

> <Gold.PLP.Chemscore.Metal>
0.0000

> <Gold.Chemscore.Hbonds>
donor molecule, donor type, donor heavy atom, donor atom, acceptor molecule, acceptor atom, score
      L1  H    17    42       P1 10175  0.47
      L1  H    19    43       P1 10175  0.29
      L1  H    21    44       P1  7948  0.14
      P1  H  7989  7998       L1     7  1.00
      P1  H  7997  8009       L1     5  0.83
      P1  H  8011  8017       L1    14  0.11

> <Gold.PLP.Chemscore.Internal.Correction>
0.0529

> <Gold.Rescore>
     Score         DG    S(hbond)    S(metal)    S(lipo)     H(rot)  DE(clash)    DE(int)     intcor
     11.73     -13.17       1.09        0.00     124.17       4.10       0.17       1.27       ----

> <Gold.Chemscore.Fitness>
11.7275

> <Gold.Chemscore.DG>
-13.1719

> <Gold.Chemscore.ZeroCoef>
-5.4800

> <Gold.Chemscore.Hbond>
1.0935

> <Gold.Chemscore.Metal>
0.0000

> <Gold.Chemscore.Lipo>
124.1661

> <Gold.Chemscore.Internal_Hbond>
0.0000

> <Gold.Chemscore.DEClash>
0.1697

> <Gold.Chemscore.DEInternal>
1.2747

> <Gold.Chemscore.Rot>
4.0968

> <Gold.Chemscore.Internal.Correction>
   9.000000E+99

> <Gold.Chemscore.Hbonds>
donor molecule, donor type, donor heavy atom, donor atom, acceptor molecule, acceptor atom, score
      L1  H    17    42       P1 10175  0.02
      L1  H    19    43       P1 10175  0.27
      L1  H    21    44       P1  7948  0.15
      P1  H  7989  7998       L1     7  0.30
      P1  H  7997  8009       L1     5  0.26

> <Gold.Chemscore.Hbond.Weighted>
-3.6524

> <Gold.Chemscore.Metal.Weighted>
-0.0000

> <Gold.Chemscore.Lipo.Weighted>
-14.5274

> <Gold.Chemscore.Internal_Hbond.Weighted>
0.0000

> <Gold.Chemscore.DEClash.Weighted>
0.1697

> <Gold.Chemscore.DEInternal.Weighted>
1.2747

> <Gold.Chemscore.Rot.Weighted>
10.4879

> <Gold.Chemscore.Internal.Correction.Weighted>
   9.000000E+99

> <Gold.Protein.RotatedTorsions>
[ 6907 6896 6895 6894 ] final   76.72 input  -60.11 | X-H torsion
[ 7974 7965 7964 7962 ] final  106.14 input  175.53 | X-H torsion
[ 8008 7997 7996 7995 ] final  155.01 input   59.86 | X-H torsion
[ 10167 10162 10161 10158 ] final  156.42 input  -65.29 | X-H torsion
[ 10718 10713 10712 10709 ] final   24.03 input   66.30 | X-H torsion
[ 10763 10752 10751 10750 ] final -164.51 input  -60.55 | X-H torsion
[ 11005 11000 10999 10996 ] final   95.67 input  -57.11 | X-H torsion

> <Gold.Protein.ActiveResidues>
 VAL166  LYS551  ARG553  GLY616  TRP617  ASP618  TYR619  PRO620  LYS621  CYS622 
 ASP623  PHE694  ASN695  SER759  ASP760  ASP761  ALA762  ILE779  LEU786  VAL792 
 PHE793  MET794  SER795  GLU796  ALA797  LYS798  CYS799  TRP800  GLU811  SER814 

> <Gold.Protein.RotatedAtoms>
  152.5086  134.3925  159.9388 H   0  0  0  0  0  0  0  0  0  0  0  0  # atno 6907 bound_to 6896
  151.3886  133.3790  159.2726 H   0  0  0  0  0  0  0  0  0  0  0  0  # atno 6908 bound_to 6896
  150.9450  134.8876  159.7695 H   0  0  0  0  0  0  0  0  0  0  0  0  # atno 6909 bound_to 6896
  145.3105  139.2542  143.3765 H   0  0  0  0  0  0  0  0  0  0  0  0  # atno 7974 bound_to 7965
  156.2501  140.1951  156.6735 H   0  0  0  0  0  0  0  0  0  0  0  0  # atno 8008 bound_to 7997
  154.6375  140.0588  156.9832 H   0  0  0  0  0  0  0  0  0  0  0  0  # atno 8009 bound_to 7997
  155.1614  140.3260  155.4413 H   0  0  0  0  0  0  0  0  0  0  0  0  # atno 8010 bound_to 7997
  139.4821  144.5010  151.8168 H   0  0  0  0  0  0  0  0  0  0  0  0  # atno 10167 bound_to 10162
  157.1742  130.6773  149.6089 H   0  0  0  0  0  0  0  0  0  0  0  0  # atno 10718 bound_to 10713
  154.7021  135.2990  154.9325 H   0  0  0  0  0  0  0  0  0  0  0  0  # atno 10763 bound_to 10752
  154.0254  135.6677  153.4780 H   0  0  0  0  0  0  0  0  0  0  0  0  # atno 10764 bound_to 10752
  153.0689  135.5072  154.8171 H   0  0  0  0  0  0  0  0  0  0  0  0  # atno 10765 bound_to 10752
  139.8787  134.8911  156.4046 H   0  0  0  0  0  0  0  0  0  0  0  0  # atno 11005 bound_to 11000
  146.3119  140.3640  142.8667 LP  0  0  0  0  0  0  0  0  0  0  0  0  # atno 17320 bound_to 7965
  144.9020  140.7653  143.5861 LP  0  0  0  0  0  0  0  0  0  0  0  0  # atno 17321 bound_to 7965
  140.4503  144.1864  150.5897 LP  0  0  0  0  0  0  0  0  0  0  0  0  # atno 17342 bound_to 10162
  140.4591  143.2456  151.9244 LP  0  0  0  0  0  0  0  0  0  0  0  0  # atno 17343 bound_to 10162
  155.9734  130.4669  150.6304 LP  0  0  0  0  0  0  0  0  0  0  0  0  # atno 17370 bound_to 10713
  157.4014  131.0810  151.1305 LP  0  0  0  0  0  0  0  0  0  0  0  0  # atno 17371 bound_to 10713
  140.9243  133.7623  155.9945 LP  0  0  0  0  0  0  0  0  0  0  0  0  # atno 17394 bound_to 11000
  140.8404  134.3074  157.5316 LP  0  0  0  0  0  0  0  0  0  0  0  0  # atno 17395 bound_to 11000

$$$$
