AV-unprocessed.smi:13|AV-procd|sdf|74|dock7
  -GOLD-   2262015203D 1   1.00000     0.00000
 Structure written by MMmdl.
 54 58  0  0  0  0  0  0  0  0  1 V2000
  153.4140  137.9907  161.2751 C   0  0  0  0  0  0  0  0  0  0  0  0
  153.9240  138.1887  159.8410 C   0  0  0  0  0  0  0  0  0  0  0  0
  155.4404  138.0019  159.8860 C   0  0  0  0  0  0  0  0  0  0  0  0
  153.1823  137.3682  158.7745 C   0  0  0  0  0  0  0  0  0  0  0  0
  152.3895  138.5561  158.5114 N   0  0  0  0  0  0  0  0  0  0  0  0
  152.0246  138.7112  157.1422 C   0  0  0  0  0  0  0  0  0  0  0  0
  152.9695  138.9185  156.1861 N   0  0  0  0  0  0  0  0  0  0  0  0
  152.6320  139.0758  154.9033 C   0  0  0  0  0  0  0  0  0  0  0  0
  151.4171  139.0636  154.3546 N   0  0  0  0  0  0  0  0  0  0  0  0
  150.4566  138.8616  155.2999 C   0  0  0  0  0  0  0  0  0  0  0  0
  150.6725  138.6846  156.6962 C   0  0  0  0  0  0  0  0  0  0  0  0
  149.4538  138.5211  157.3440 N   0  0  0  0  0  0  0  0  0  0  0  0
  148.5702  138.5924  156.3866 C   0  0  0  0  0  0  0  0  0  0  0  0
  149.0856  138.7827  155.1243 N   0  0  0  0  0  0  0  0  0  0  0  0
  148.3376  138.8929  153.8809 C   0  0  0  0  0  0  0  0  0  0  0  0
  147.4403  140.1527  153.8040 C   0  0  2  0  0  0  0  0  0  0  0  0
  146.8743  140.2371  152.5088 O   0  0  0  0  0  0  0  0  0  0  0  0
  148.2157  141.4400  154.0939 C   0  0  0  0  0  0  0  0  0  0  0  0
  147.6973  141.8740  155.4596 C   0  0  0  0  0  0  0  0  0  0  0  0
  146.3397  141.4728  155.4178 O   0  0  0  0  0  0  0  0  0  0  0  0
  146.3084  140.1709  154.8510 C   0  0  0  0  0  0  0  0  0  0  0  0
  153.4244  139.4270  159.0583 C   0  0  1  0  0  0  0  0  0  0  0  0
  152.8479  140.6543  159.7740 C   0  0  1  0  0  0  0  0  0  0  0  0
  153.8883  141.4440  160.5702 C   0  0  0  0  0  0  0  0  0  0  0  0
  153.2785  142.8262  160.5967 C   0  0  0  0  0  0  0  0  0  0  0  0
  152.6801  142.9234  159.1985 C   0  0  0  0  0  0  0  0  0  0  0  0
  152.3279  141.5925  158.8338 O   0  0  0  0  0  0  0  0  0  0  0  0
  153.6076  136.9771  161.6275 H   0  0  0  0  0  0  0  0  0  0  0  0
  152.3379  138.1510  161.3476 H   0  0  0  0  0  0  0  0  0  0  0  0
  153.8927  138.6738  161.9760 H   0  0  0  0  0  0  0  0  0  0  0  0
  155.8836  138.0956  158.8942 H   0  0  0  0  0  0  0  0  0  0  0  0
  155.7122  137.0174  160.2679 H   0  0  0  0  0  0  0  0  0  0  0  0
  155.9162  138.7481  160.5231 H   0  0  0  0  0  0  0  0  0  0  0  0
  153.8119  137.0802  157.9303 H   0  0  0  0  0  0  0  0  0  0  0  0
  152.6034  136.5302  159.1637 H   0  0  0  0  0  0  0  0  0  0  0  0
  153.4531  139.2348  154.2199 H   0  0  0  0  0  0  0  0  0  0  0  0
  147.5109  138.5044  156.5786 H   0  0  0  0  0  0  0  0  0  0  0  0
  149.0495  138.8888  153.0546 H   0  0  0  0  0  0  0  0  0  0  0  0
  147.7334  137.9920  153.7652 H   0  0  0  0  0  0  0  0  0  0  0  0
  147.5691  140.1634  151.8726 H   0  0  0  0  0  0  0  0  0  0  0  0
  149.2983  141.3076  154.0852 H   0  0  0  0  0  0  0  0  0  0  0  0
  147.9776  142.2143  153.3627 H   0  0  0  0  0  0  0  0  0  0  0  0
  148.2141  141.3458  156.2627 H   0  0  0  0  0  0  0  0  0  0  0  0
  147.7977  142.9462  155.6281 H   0  0  0  0  0  0  0  0  0  0  0  0
  145.3262  139.9363  154.4388 H   0  0  0  0  0  0  0  0  0  0  0  0
  146.5051  139.4616  155.6553 H   0  0  0  0  0  0  0  0  0  0  0  0
  154.1583  139.6944  158.2953 H   0  0  0  0  0  0  0  0  0  0  0  0
  152.0315  140.3747  160.4418 H   0  0  0  0  0  0  0  0  0  0  0  0
  154.0638  141.0422  161.5677 H   0  0  0  0  0  0  0  0  0  0  0  0
  154.8408  141.4670  160.0386 H   0  0  0  0  0  0  0  0  0  0  0  0
  152.4901  142.8740  161.3490 H   0  0  0  0  0  0  0  0  0  0  0  0
  154.0032  143.6133  160.8068 H   0  0  0  0  0  0  0  0  0  0  0  0
  151.8172  143.5886  159.1598 H   0  0  0  0  0  0  0  0  0  0  0  0
  153.4236  143.2896  158.4895 H   0  0  0  0  0  0  0  0  0  0  0  0
  1  2  1  0  0  0  0
  1 28  1  0  0  0  0
  1 29  1  0  0  0  0
  1 30  1  0  0  0  0
  2 22  1  0  0  0  0
  2  3  1  0  0  0  0
  2  4  1  0  0  0  0
  3 31  1  0  0  0  0
  3 32  1  0  0  0  0
  3 33  1  0  0  0  0
  4  5  1  0  0  0  0
  4 34  1  0  0  0  0
  4 35  1  0  0  0  0
  5  6  1  0  0  0  0
  5 22  1  0  0  0  0
  6 11  1  0  0  0  0
  6  7  2  0  0  0  0
  7  8  1  0  0  0  0
  8  9  2  0  0  0  0
  8 36  1  0  0  0  0
  9 10  1  0  0  0  0
 10 14  1  0  0  0  0
 10 11  2  0  0  0  0
 11 12  1  0  0  0  0
 12 13  2  0  0  0  0
 13 14  1  0  0  0  0
 13 37  1  0  0  0  0
 14 15  1  0  0  0  0
 15 16  1  0  0  0  0
 15 38  1  0  0  0  0
 15 39  1  0  0  0  0
 16 21  1  0  0  0  0
 16 17  1  0  0  0  0
 16 18  1  0  0  0  0
 17 40  1  0  0  0  0
 18 19  1  0  0  0  0
 18 41  1  0  0  0  0
 18 42  1  0  0  0  0
 19 20  1  0  0  0  0
 19 43  1  0  0  0  0
 19 44  1  0  0  0  0
 20 21  1  0  0  0  0
 21 45  1  0  0  0  0
 21 46  1  0  0  0  0
 22 23  1  0  0  0  0
 22 47  1  0  0  0  0
 23 27  1  0  0  0  0
 23 24  1  0  0  0  0
 23 48  1  0  0  0  0
 24 25  1  0  0  0  0
 24 49  1  0  0  0  0
 24 50  1  0  0  0  0
 25 26  1  0  0  0  0
 25 51  1  0  0  0  0
 25 52  1  0  0  0  0
 26 27  1  0  0  0  0
 26 53  1  0  0  0  0
 26 54  1  0  0  0  0
M  END
> <s_m_source_file>
AV-unprocessed.smi

> <i_m_source_file_index>
13

> <i_lp_mmshare_version>
43012

> <i_f3d_flags>
0

> <s_epik_input>
TzFbQ0gyXVtDSDJdW0NIMl1bQ0BIXTFbQ0BASF0yTihbQ0gyXUMyKFtDSDNdKVtDSDNdKWMobltjSF1uMyljKGMzNCluW2NIXW40W0NIMl1bQ0BAXTUoW09IXSlbQ0gyXVtDSDJdT1tDSDJdNQ==

> <s_epik_cmdline>
J2VwaWtfcHl0aG9uJywgJy1waCcsICc3LjAnLCAnLXRuJywgJzgnLCAnLW1hJywgJzIwMCcsICctbWV0YWxfYmluZGluZycsICctaW1hZScsICc8aW5maWxlLm1hZT4nLCAnLW9tYWUnLCAnPG91dGZpbGUubWFlPic=

> <r_lp_tautomer_probability>
1

> <r_epik_Ionization_Penalty>
0.00202764

> <r_epik_Ionization_Penalty_Charging>
0

> <r_epik_Ionization_Penalty_Neutral>
0.00202764

> <r_epik_State_Penalty>
0.00134017

> <r_epik_Charging_Adjusted_Penalty>
0.00134017

> <i_epik_Tot_Q>
0

> <i_epik_Tot_abs_Q>
0

> <r_epik_Metal_State_Penalty>
-0

> <b_epik_Metal_Only>
0

> <s_lp_Force_Field>
OPLS_2005

> <r_lp_Energy>
62.8076

> <b_lp_Chiralities_Consistent>
1

> <s_lp_Variant>
AV-unprocessed.smi:13-6

> <Gold.Version>
5.8.1

> <Gold.Id.Protein>
6NUR|6NUR_protein|mol2

> <Gold.PLP.Fitness>
44.6473

> <Gold.PLP.PLP>
-36.5327

> <Gold.PLP.part.hbond>
-3.1492

> <Gold.PLP.part.metal>
0.0000

> <Gold.PLP.part.buried>
-2.6975

> <Gold.PLP.part.nonpolar>
-31.2316

> <Gold.PLP.part.repulsive>
0.2279

> <Gold.PLP.ligand.clash>
0.0000

> <Gold.PLP.ligand.torsion>
0.4268

> <Gold.PLP.Chemscore.Hbond>
2.8500

> <Gold.PLP.Chemscore.CHOScore>
0.0000

> <Gold.PLP.Chemscore.Metal>
0.0000

> <Gold.Chemscore.Hbonds>
donor molecule, donor type, donor heavy atom, donor atom, acceptor molecule, acceptor atom, score
      L1  H    17    40       P1  7957  0.75
      P1  H  7989  7998       L1     9  0.70
      P1  H  7997  8010       L1     7  1.00

> <Gold.PLP.Chemscore.Internal.Correction>
0.4183

> <Gold.Rescore>
     Score         DG    S(hbond)    S(metal)    S(lipo)     H(rot)  DE(clash)    DE(int)     intcor
     16.08     -17.11       1.72        0.00     100.57       2.30       0.29       0.73       ----

> <Gold.Chemscore.Fitness>
16.0818

> <Gold.Chemscore.DG>
-17.1110

> <Gold.Chemscore.ZeroCoef>
-5.4800

> <Gold.Chemscore.Hbond>
1.7219

> <Gold.Chemscore.Metal>
0.0000

> <Gold.Chemscore.Lipo>
100.5718

> <Gold.Chemscore.Internal_Hbond>
0.0000

> <Gold.Chemscore.DEClash>
0.2949

> <Gold.Chemscore.DEInternal>
0.7344

> <Gold.Chemscore.Rot>
2.2996

> <Gold.Chemscore.Internal.Correction>
   9.000000E+99

> <Gold.Chemscore.Hbonds>
donor molecule, donor type, donor heavy atom, donor atom, acceptor molecule, acceptor atom, score
      L1  H    17    40       P1  7957  0.74
      P1  H  7989  7998       L1     9  0.07
      P1  H  7997  8010       L1     7  0.58

> <Gold.Chemscore.Hbond.Weighted>
-5.7511

> <Gold.Chemscore.Metal.Weighted>
-0.0000

> <Gold.Chemscore.Lipo.Weighted>
-11.7669

> <Gold.Chemscore.Internal_Hbond.Weighted>
0.0000

> <Gold.Chemscore.DEClash.Weighted>
0.2949

> <Gold.Chemscore.DEInternal.Weighted>
0.7344

> <Gold.Chemscore.Rot.Weighted>
5.8869

> <Gold.Chemscore.Internal.Correction.Weighted>
   9.000000E+99

> <Gold.Protein.RotatedTorsions>
[ 6907 6896 6895 6894 ] final -139.47 input  -60.11 | X-H torsion
[ 7974 7965 7964 7962 ] final  113.61 input  175.53 | X-H torsion
[ 8008 7997 7996 7995 ] final   64.76 input   59.86 | X-H torsion
[ 10167 10162 10161 10158 ] final  101.41 input  -65.29 | X-H torsion
[ 10718 10713 10712 10709 ] final  113.43 input   66.30 | X-H torsion
[ 10763 10752 10751 10750 ] final   95.75 input  -60.55 | X-H torsion
[ 11005 11000 10999 10996 ] final  116.69 input  -57.11 | X-H torsion

> <Gold.Protein.ActiveResidues>
 VAL166  LYS551  ARG553  GLY616  TRP617  ASP618  TYR619  PRO620  LYS621  CYS622 
 ASP623  PHE694  ASN695  SER759  ASP760  ASP761  ALA762  ILE779  LEU786  VAL792 
 PHE793  MET794  SER795  GLU796  ALA797  LYS798  CYS799  TRP800  GLU811  SER814 

> <Gold.Protein.RotatedAtoms>
  151.0482  133.5647  159.2644 H   0  0  0  0  0  0  0  0  0  0  0  0  # atno 6907 bound_to 6896
  151.2667  135.0671  159.9128 H   0  0  0  0  0  0  0  0  0  0  0  0  # atno 6908 bound_to 6896
  152.5377  134.0219  159.8039 H   0  0  0  0  0  0  0  0  0  0  0  0  # atno 6909 bound_to 6896
  145.2147  139.2889  143.4250 H   0  0  0  0  0  0  0  0  0  0  0  0  # atno 7974 bound_to 7965
  155.6511  140.3497  155.4748 H   0  0  0  0  0  0  0  0  0  0  0  0  # atno 8008 bound_to 7997
  155.9847  140.1181  157.0717 H   0  0  0  0  0  0  0  0  0  0  0  0  # atno 8009 bound_to 7997
  154.4201  140.1131  156.5470 H   0  0  0  0  0  0  0  0  0  0  0  0  # atno 8010 bound_to 7997
  139.7440  144.7003  151.0532 H   0  0  0  0  0  0  0  0  0  0  0  0  # atno 10167 bound_to 10162
  157.6339  131.0983  150.7039 H   0  0  0  0  0  0  0  0  0  0  0  0  # atno 10718 bound_to 10713
  153.2569  135.4243  155.0854 H   0  0  0  0  0  0  0  0  0  0  0  0  # atno 10763 bound_to 10752
  154.8404  135.3439  154.6433 H   0  0  0  0  0  0  0  0  0  0  0  0  # atno 10764 bound_to 10752
  153.6854  135.7036  153.5162 H   0  0  0  0  0  0  0  0  0  0  0  0  # atno 10765 bound_to 10752
  139.9049  134.9601  156.7236 H   0  0  0  0  0  0  0  0  0  0  0  0  # atno 11005 bound_to 11000
  146.3389  140.2434  142.8596 LP  0  0  0  0  0  0  0  0  0  0  0  0  # atno 17320 bound_to 7965
  144.9822  140.8470  143.5390 LP  0  0  0  0  0  0  0  0  0  0  0  0  # atno 17321 bound_to 7965
  140.7789  143.4889  150.9919 LP  0  0  0  0  0  0  0  0  0  0  0  0  # atno 17342 bound_to 10162
  139.8578  143.7354  152.3175 LP  0  0  0  0  0  0  0  0  0  0  0  0  # atno 17343 bound_to 10162
  156.7374  130.4728  149.5485 LP  0  0  0  0  0  0  0  0  0  0  0  0  # atno 17370 bound_to 10713
  156.1562  130.6343  151.0660 LP  0  0  0  0  0  0  0  0  0  0  0  0  # atno 17371 bound_to 10713
  140.6981  133.9331  155.8007 LP  0  0  0  0  0  0  0  0  0  0  0  0  # atno 17394 bound_to 11000
  141.0392  134.0646  157.3922 LP  0  0  0  0  0  0  0  0  0  0  0  0  # atno 17395 bound_to 11000

$$$$
