AV-unprocessed.smi:1762|AV-procd|sdf|7111|dock6
  -GOLD-   22720 8333D 1   1.00000     0.00000
 Structure written by MMmdl.
 53 54  0  0  0  0  0  0  0  0  2 V2000
  144.5101  134.4336  150.4710 C   0  0  0  0  0  0  0  0  0  0  0  0
  145.4100  135.3046  151.3550 C   0  0  2  0  0  0  0  0  0  0  0  0
  145.9794  134.5177  152.5501 C   0  0  0  0  0  0  0  0  0  0  0  0
  146.7815  135.4024  153.4389 N   0  3  2  0  0  0  0  0  0  0  0  0
  147.4655  134.7124  154.5866 C   0  0  2  0  0  0  0  0  0  0  0  0
  148.5253  135.6317  155.2313 C   0  0  0  0  0  0  0  0  0  0  0  0
  148.4958  135.8567  156.4420 O   0  0  0  0  0  0  0  0  0  0  0  0
  149.4540  136.1495  154.4136 N   0  0  0  0  0  0  0  0  0  0  0  0
  150.5335  137.0261  154.8466 C   0  0  0  0  0  0  0  0  0  0  0  0
  150.3908  138.4170  154.2134 C   0  0  0  0  0  0  0  0  0  0  0  0
  150.4607  139.5256  155.2465 C   0  0  0  0  0  0  0  0  0  0  0  0
  150.9175  139.2638  156.5558 C   0  0  0  0  0  0  0  0  0  0  0  0
  150.9725  140.3313  157.4727 C   0  0  0  0  0  0  0  0  0  0  0  0
  150.5721  141.6126  157.0470 C   0  0  0  0  0  0  0  0  0  0  0  0
  150.1312  141.7698  155.7181 C   0  0  0  0  0  0  0  0  0  0  0  0
  150.0740  140.7528  154.8311 N   0  0  0  0  0  0  0  0  0  0  0  0
  148.0892  133.3219  154.2243 C   0  0  0  0  0  0  0  0  0  0  0  0
  149.1134  132.8248  155.2637 C   0  0  0  0  0  0  0  0  0  0  0  0
  148.6991  133.2557  152.8082 C   0  0  0  0  0  0  0  0  0  0  0  0
  145.9281  136.5466  153.8725 C   0  0  0  0  0  0  0  0  0  0  0  0
  145.3356  137.3041  152.6706 C   0  0  1  0  0  0  0  0  0  0  0  0
  146.3708  138.1472  151.9048 C   0  0  0  0  0  0  0  0  0  0  0  0
  144.6319  136.3998  151.8236 O   0  0  0  0  0  0  0  0  0  0  0  0
  145.0581  133.5796  150.0718 H   0  0  0  0  0  0  0  0  0  0  0  0
  144.1246  135.0037  149.6254 H   0  0  0  0  0  0  0  0  0  0  0  0
  143.6563  134.0513  151.0308 H   0  0  0  0  0  0  0  0  0  0  0  0
  146.2295  135.6727  150.7375 H   0  0  0  0  0  0  0  0  0  0  0  0
  145.1751  134.0557  153.1250 H   0  0  0  0  0  0  0  0  0  0  0  0
  146.5838  133.7128  152.1372 H   0  0  0  0  0  0  0  0  0  0  0  0
  146.6908  134.5268  155.3336 H   0  0  0  0  0  0  0  0  0  0  0  0
  149.4118  135.9225  153.4305 H   0  0  0  0  0  0  0  0  0  0  0  0
  150.5172  137.1051  155.9347 H   0  0  0  0  0  0  0  0  0  0  0  0
  151.4940  136.5880  154.5687 H   0  0  0  0  0  0  0  0  0  0  0  0
  151.1779  138.5751  153.4744 H   0  0  0  0  0  0  0  0  0  0  0  0
  149.4446  138.4877  153.6748 H   0  0  0  0  0  0  0  0  0  0  0  0
  151.2211  138.2704  156.8519 H   0  0  0  0  0  0  0  0  0  0  0  0
  151.3164  140.1704  158.4835 H   0  0  0  0  0  0  0  0  0  0  0  0
  150.6031  142.4548  157.7223 H   0  0  0  0  0  0  0  0  0  0  0  0
  149.8174  142.7383  155.3576 H   0  0  0  0  0  0  0  0  0  0  0  0
  147.2941  132.5793  154.2720 H   0  0  0  0  0  0  0  0  0  0  0  0
  150.0302  133.4149  155.2524 H   0  0  0  0  0  0  0  0  0  0  0  0
  149.3951  131.7900  155.0657 H   0  0  0  0  0  0  0  0  0  0  0  0
  148.7022  132.8628  156.2728 H   0  0  0  0  0  0  0  0  0  0  0  0
  149.5872  133.8821  152.7220 H   0  0  0  0  0  0  0  0  0  0  0  0
  147.9945  133.5773  152.0420 H   0  0  0  0  0  0  0  0  0  0  0  0
  148.9987  132.2364  152.5631 H   0  0  0  0  0  0  0  0  0  0  0  0
  145.1181  136.1651  154.4963 H   0  0  0  0  0  0  0  0  0  0  0  0
  146.4795  137.2575  154.4873 H   0  0  0  0  0  0  0  0  0  0  0  0
  144.5870  137.9982  153.0538 H   0  0  0  0  0  0  0  0  0  0  0  0
  146.7888  138.9216  152.5485 H   0  0  0  0  0  0  0  0  0  0  0  0
  145.9120  138.6435  151.0495 H   0  0  0  0  0  0  0  0  0  0  0  0
  147.2046  137.5490  151.5385 H   0  0  0  0  0  0  0  0  0  0  0  0
  147.5197  135.7885  152.8674 H   0  0  0  0  0  0  0  0  0  0  0  0
  1  2  1  0  0  0  0
  1 24  1  0  0  0  0
  1 25  1  0  0  0  0
  1 26  1  0  0  0  0
  2 23  1  0  0  0  0
  2  3  1  0  0  0  0
  2 27  1  0  0  0  0
  3  4  1  0  0  0  0
  3 28  1  0  0  0  0
  3 29  1  0  0  0  0
  4  5  1  0  0  0  0
  4 20  1  0  0  0  0
  4 53  1  0  0  0  0
  5  6  1  0  0  0  0
  5 17  1  0  0  0  0
  5 30  1  0  0  0  0
  6  7  2  0  0  0  0
  6  8  1  0  0  0  0
  8  9  1  0  0  0  0
  8 31  1  0  0  0  0
  9 10  1  0  0  0  0
  9 32  1  0  0  0  0
  9 33  1  0  0  0  0
 10 11  1  0  0  0  0
 10 34  1  0  0  0  0
 10 35  1  0  0  0  0
 11 16  1  0  0  0  0
 11 12  2  0  0  0  0
 12 13  1  0  0  0  0
 12 36  1  0  0  0  0
 13 14  2  0  0  0  0
 13 37  1  0  0  0  0
 14 15  1  0  0  0  0
 14 38  1  0  0  0  0
 15 16  2  0  0  0  0
 15 39  1  0  0  0  0
 17 18  1  0  0  0  0
 17 19  1  0  0  0  0
 17 40  1  0  0  0  0
 18 41  1  0  0  0  0
 18 42  1  0  0  0  0
 18 43  1  0  0  0  0
 19 44  1  0  0  0  0
 19 45  1  0  0  0  0
 19 46  1  0  0  0  0
 20 21  1  0  0  0  0
 20 47  1  0  0  0  0
 20 48  1  0  0  0  0
 21 22  1  0  0  0  0
 21 23  1  0  0  0  0
 21 49  1  0  0  0  0
 22 50  1  0  0  0  0
 22 51  1  0  0  0  0
 22 52  1  0  0  0  0
M  CHG  1   4   1
M  END
> <s_m_source_file>
AV-unprocessed.smi

> <i_m_source_file_index>
1762

> <i_lp_mmshare_version>
43012

> <i_f3d_flags>
0

> <s_epik_input>
W0NIM11bQ0BASF0xW0NIMl1OKFtDSDJdW0NASF0oTzEpW0NIM10pW0NAQEhdKFtDSF0oW0NIM10pW0NIM10pQyg9TylbTkhdW0NIMl1bQ0gyXWMyW2NIXVtjSF1bY0hdW2NIXW4y

> <s_epik_cmdline>
J2VwaWtfcHl0aG9uJywgJy1waCcsICc3LjAnLCAnLXRuJywgJzgnLCAnLW1hJywgJzIwMCcsICctbWV0YWxfYmluZGluZycsICctaW1hZScsICc8aW5maWxlLm1hZT4nLCAnLW9tYWUnLCAnPG91dGZpbGUubWFlPic=

> <r_epik_Ionization_Penalty>
2.27005

> <r_epik_Ionization_Penalty_Charging>
2.24983

> <r_epik_Ionization_Penalty_Neutral>
0.0202209

> <r_epik_State_Penalty>
2.40228

> <r_epik_Charging_Adjusted_Penalty>
4.65211

> <i_epik_Tot_Q>
1

> <i_epik_Tot_abs_Q>
1

> <r_epik_Metal_State_Penalty>
2.40762

> <b_epik_Metal_Only>
0

> <s_lp_Force_Field>
OPLS_2005

> <r_lp_Energy>
24.4928

> <b_lp_Chiralities_Consistent>
1

> <s_lp_Variant>
AV-unprocessed.smi:1762-13

> <Gold.Version>
5.8.1

> <Gold.Id.Protein>
6NUR|6NUR_protein|mol2

> <Gold.PLP.Fitness>
47.8296

> <Gold.PLP.PLP>
-35.6394

> <Gold.PLP.part.hbond>
-3.0866

> <Gold.PLP.part.metal>
0.0000

> <Gold.PLP.part.buried>
-3.5389

> <Gold.PLP.part.nonpolar>
-29.7249

> <Gold.PLP.part.repulsive>
0.8490

> <Gold.PLP.ligand.clash>
0.0000

> <Gold.PLP.ligand.torsion>
1.4119

> <Gold.PLP.Chemscore.Hbond>
3.9280

> <Gold.PLP.Chemscore.CHOScore>
1.0000

> <Gold.PLP.Chemscore.Metal>
0.0000

> <Gold.Chemscore.Hbonds>
donor molecule, donor type, donor heavy atom, donor atom, acceptor molecule, acceptor atom, score
      L1  H     4    53       P1  7948  2.00
      L1  H     8    31       P1  7948  1.00
      P1  H  7989  7998       L1    16  0.50
      L1  C    15    39       P1  8028  1.00

> <Gold.PLP.Chemscore.Internal.Correction>
0.2301

> <Gold.Rescore>
     Score         DG    S(hbond)    S(metal)    S(lipo)     H(rot)  DE(clash)    DE(int)     intcor
     16.12     -17.63       1.80        0.00      89.02       1.66       0.59       0.93       ----

> <Gold.Chemscore.Fitness>
16.1164

> <Gold.Chemscore.DG>
-17.6321

> <Gold.Chemscore.ZeroCoef>
-5.4800

> <Gold.Chemscore.Hbond>
1.7952

> <Gold.Chemscore.Metal>
0.0000

> <Gold.Chemscore.Lipo>
89.0158

> <Gold.Chemscore.Internal_Hbond>
0.0000

> <Gold.Chemscore.DEClash>
0.5888

> <Gold.Chemscore.DEInternal>
0.9269

> <Gold.Chemscore.Rot>
1.6635

> <Gold.Chemscore.Internal.Correction>
   9.000000E+99

> <Gold.Chemscore.Hbonds>
donor molecule, donor type, donor heavy atom, donor atom, acceptor molecule, acceptor atom, score
      L1  H     4    53       P1  7948  1.00
      L1  H     8    31       P1  7948  0.43
      P1  H  7989  7998       L1    16  0.03

> <Gold.Chemscore.Hbond.Weighted>
-5.9959

> <Gold.Chemscore.Metal.Weighted>
-0.0000

> <Gold.Chemscore.Lipo.Weighted>
-10.4148

> <Gold.Chemscore.Internal_Hbond.Weighted>
0.0000

> <Gold.Chemscore.DEClash.Weighted>
0.5888

> <Gold.Chemscore.DEInternal.Weighted>
0.9269

> <Gold.Chemscore.Rot.Weighted>
4.2586

> <Gold.Chemscore.Internal.Correction.Weighted>
   9.000000E+99

> <Gold.Protein.RotatedTorsions>
[ 6907 6896 6895 6894 ] final   64.54 input  -60.11 | X-H torsion
[ 7974 7965 7964 7962 ] final  -87.43 input  175.53 | X-H torsion
[ 8008 7997 7996 7995 ] final  -92.60 input   59.86 | X-H torsion
[ 10167 10162 10161 10158 ] final  129.48 input  -65.29 | X-H torsion
[ 10718 10713 10712 10709 ] final  -94.82 input   66.30 | X-H torsion
[ 10763 10752 10751 10750 ] final  -35.62 input  -60.55 | X-H torsion
[ 11005 11000 10999 10996 ] final  -13.18 input  -57.11 | X-H torsion

> <Gold.Protein.ActiveResidues>
 VAL166  LYS551  ARG553  GLY616  TRP617  ASP618  TYR619  PRO620  LYS621  CYS622 
 ASP623  PHE694  ASN695  SER759  ASP760  ASP761  ALA762  ILE779  LEU786  VAL792 
 PHE793  MET794  SER795  GLU796  ALA797  LYS798  CYS799  TRP800  GLU811  SER814 

> <Gold.Protein.RotatedAtoms>
  152.4339  134.5724  159.9924 H   0  0  0  0  0  0  0  0  0  0  0  0  # atno 6907 bound_to 6896
  151.5840  133.3368  159.3022 H   0  0  0  0  0  0  0  0  0  0  0  0  # atno 6908 bound_to 6896
  150.8235  134.7490  159.6857 H   0  0  0  0  0  0  0  0  0  0  0  0  # atno 6909 bound_to 6896
  145.4666  140.9560  143.1940 H   0  0  0  0  0  0  0  0  0  0  0  0  # atno 7974 bound_to 7965
  154.7252  140.0507  157.0676 H   0  0  0  0  0  0  0  0  0  0  0  0  # atno 8008 bound_to 7997
  155.0375  140.3165  155.4717 H   0  0  0  0  0  0  0  0  0  0  0  0  # atno 8009 bound_to 7997
  156.2827  140.2139  156.5497 H   0  0  0  0  0  0  0  0  0  0  0  0  # atno 8010 bound_to 7997
  139.5476  144.6786  151.4425 H   0  0  0  0  0  0  0  0  0  0  0  0  # atno 10167 bound_to 10162
  156.0033  130.5083  150.5983 H   0  0  0  0  0  0  0  0  0  0  0  0  # atno 10718 bound_to 10713
  153.8662  135.6835  153.4778 H   0  0  0  0  0  0  0  0  0  0  0  0  # atno 10763 bound_to 10752
  153.1314  135.4696  154.9352 H   0  0  0  0  0  0  0  0  0  0  0  0  # atno 10764 bound_to 10752
  154.7736  135.3246  154.8089 H   0  0  0  0  0  0  0  0  0  0  0  0  # atno 10765 bound_to 10752
  140.7734  133.8420  155.9227 H   0  0  0  0  0  0  0  0  0  0  0  0  # atno 11005 bound_to 11000
  144.7971  139.6214  143.7088 LP  0  0  0  0  0  0  0  0  0  0  0  0  # atno 17320 bound_to 7965
  146.2421  139.6022  142.9484 LP  0  0  0  0  0  0  0  0  0  0  0  0  # atno 17321 bound_to 7965
  140.6729  143.8255  150.7021 LP  0  0  0  0  0  0  0  0  0  0  0  0  # atno 17342 bound_to 10162
  140.1684  143.4215  152.2018 LP  0  0  0  0  0  0  0  0  0  0  0  0  # atno 17343 bound_to 10162
  157.3837  131.0785  151.1455 LP  0  0  0  0  0  0  0  0  0  0  0  0  # atno 17370 bound_to 10713
  157.2169  130.6463  149.5796 LP  0  0  0  0  0  0  0  0  0  0  0  0  # atno 17371 bound_to 10713
  140.9552  134.1728  157.4697 LP  0  0  0  0  0  0  0  0  0  0  0  0  # atno 17394 bound_to 11000
  139.8752  134.9924  156.5595 LP  0  0  0  0  0  0  0  0  0  0  0  0  # atno 17395 bound_to 11000

$$$$
