AV-unprocessed.smi:763|AV-procd|sdf|3640|dock7
  -GOLD-   22720 1 43D 1   1.00000     0.00000
 Structure written by MMmdl.
 43 44  0  0  0  0  0  0  0  0  2 V2000
  152.0465  144.7885  159.2029 C   0  0  0  0  0  0  0  0  0  0  0  0
  152.9725  143.7143  159.1602 O   0  0  0  0  0  0  0  0  0  0  0  0
  152.8233  142.7801  160.2208 C   0  0  0  0  0  0  0  0  0  0  0  0
  153.9913  141.7851  160.2816 C   0  0  0  0  0  0  0  0  0  0  0  0
  153.7688  140.7731  159.3050 O   0  0  0  0  0  0  0  0  0  0  0  0
  154.0627  139.4592  159.6221 C   0  0  0  0  0  0  0  0  0  0  0  0
  154.3930  139.1742  160.9077 N   0  0  0  0  0  0  0  0  0  0  0  0
  154.6792  137.8986  161.2311 C   0  0  0  0  0  0  0  0  0  0  0  0
  154.6497  136.8483  160.2993 C   0  0  0  0  0  0  0  0  0  0  0  0
  154.3062  137.1484  158.9689 C   0  0  0  0  0  0  0  0  0  0  0  0
  154.0019  138.4813  158.5967 C   0  0  0  0  0  0  0  0  0  0  0  0
  153.6663  138.8345  157.3439 N   0  5  0  0  0  0  0  0  0  0  0  0
  153.6179  137.8636  156.0501 S   0  0  0  0  0  0  0  0  0  0  0  0
  154.8684  137.9342  155.2787 O   0  0  0  0  0  0  0  0  0  0  0  0
  153.1452  136.5178  156.4070 O   0  0  0  0  0  0  0  0  0  0  0  0
  152.2853  138.7014  155.0351 C   0  0  2  0  0  0  0  0  0  0  0  0
  151.6958  139.9405  155.7533 C   0  0  0  0  0  0  0  0  0  0  0  0
  150.7091  139.6062  156.8931 C   0  0  0  0  0  0  0  0  0  0  0  0
  149.6345  138.5952  156.4587 C   0  0  0  0  0  0  0  0  0  0  0  0
  150.2479  137.3501  155.7966 C   0  0  0  0  0  0  0  0  0  0  0  0
  151.1284  137.7639  154.6065 C   0  0  2  0  0  0  0  0  0  0  0  0
  151.5768  136.6290  153.8956 O   0  0  0  0  0  0  0  0  0  0  0  0
  152.1897  145.4251  158.3298 H   0  0  0  0  0  0  0  0  0  0  0  0
  152.1850  145.4082  160.0888 H   0  0  0  0  0  0  0  0  0  0  0  0
  151.0180  144.4253  159.1856 H   0  0  0  0  0  0  0  0  0  0  0  0
  152.6882  143.2887  161.1766 H   0  0  0  0  0  0  0  0  0  0  0  0
  151.9024  142.2277  160.0327 H   0  0  0  0  0  0  0  0  0  0  0  0
  154.9265  142.3074  160.0740 H   0  0  0  0  0  0  0  0  0  0  0  0
  154.0622  141.3390  161.2744 H   0  0  0  0  0  0  0  0  0  0  0  0
  154.9388  137.7099  162.2621 H   0  0  0  0  0  0  0  0  0  0  0  0
  154.8847  135.8369  160.5956 H   0  0  0  0  0  0  0  0  0  0  0  0
  154.2821  136.3453  158.2476 H   0  0  0  0  0  0  0  0  0  0  0  0
  152.7868  139.0393  154.1274 H   0  0  0  0  0  0  0  0  0  0  0  0
  152.4971  140.5753  156.1320 H   0  0  0  0  0  0  0  0  0  0  0  0
  151.1679  140.5431  155.0134 H   0  0  0  0  0  0  0  0  0  0  0  0
  151.2381  139.2250  157.7637 H   0  0  0  0  0  0  0  0  0  0  0  0
  150.2269  140.5234  157.2323 H   0  0  0  0  0  0  0  0  0  0  0  0
  149.0313  138.3019  157.3183 H   0  0  0  0  0  0  0  0  0  0  0  0
  148.9533  139.0759  155.7555 H   0  0  0  0  0  0  0  0  0  0  0  0
  150.8268  136.7811  156.5244 H   0  0  0  0  0  0  0  0  0  0  0  0
  149.4474  136.6914  155.4575 H   0  0  0  0  0  0  0  0  0  0  0  0
  150.4982  138.3117  153.9044 H   0  0  0  0  0  0  0  0  0  0  0  0
  151.4333  136.7798  152.9724 H   0  0  0  0  0  0  0  0  0  0  0  0
  1  2  1  0  0  0  0
  1 23  1  0  0  0  0
  1 24  1  0  0  0  0
  1 25  1  0  0  0  0
  2  3  1  0  0  0  0
  3  4  1  0  0  0  0
  3 26  1  0  0  0  0
  3 27  1  0  0  0  0
  4  5  1  0  0  0  0
  4 28  1  0  0  0  0
  4 29  1  0  0  0  0
  5  6  1  0  0  0  0
  6 11  1  0  0  0  0
  6  7  2  0  0  0  0
  7  8  1  0  0  0  0
  8  9  2  0  0  0  0
  8 30  1  0  0  0  0
  9 10  1  0  0  0  0
  9 31  1  0  0  0  0
 10 11  2  0  0  0  0
 10 32  1  0  0  0  0
 11 12  1  0  0  0  0
 12 13  1  0  0  0  0
 13 14  2  0  0  0  0
 13 15  2  0  0  0  0
 13 16  1  0  0  0  0
 16 21  1  0  0  0  0
 16 17  1  0  0  0  0
 16 33  1  0  0  0  0
 17 18  1  0  0  0  0
 17 34  1  0  0  0  0
 17 35  1  0  0  0  0
 18 19  1  0  0  0  0
 18 36  1  0  0  0  0
 18 37  1  0  0  0  0
 19 20  1  0  0  0  0
 19 38  1  0  0  0  0
 19 39  1  0  0  0  0
 20 21  1  0  0  0  0
 20 40  1  0  0  0  0
 20 41  1  0  0  0  0
 21 22  1  0  0  0  0
 21 42  1  0  0  0  0
 22 43  1  0  0  0  0
M  CHG  1  12  -1
M  END
> <s_m_source_file>
AV-unprocessed.smi

> <i_m_source_file_index>
763

> <i_lp_mmshare_version>
43012

> <i_f3d_flags>
0

> <s_epik_input>
W0NIM11PW0NIMl1bQ0gyXU9jMW5bY0hdW2NIXVtjSF1jMVtOSF1TKD1PKSg9TylbQ0BASF0yW0NIMl1bQ0gyXVtDSDJdW0NIMl1bQ0BIXTJbT0hd

> <s_epik_cmdline>
J2VwaWtfcHl0aG9uJywgJy1waCcsICc3LjAnLCAnLXRuJywgJzgnLCAnLW1hJywgJzIwMCcsICctbWV0YWxfYmluZGluZycsICctaW1hZScsICc8aW5maWxlLm1hZT4nLCAnLW9tYWUnLCAnPG91dGZpbGUubWFlPic=

> <r_epik_Ionization_Penalty>
0.985866

> <r_epik_Ionization_Penalty_Charging>
0.984689

> <r_epik_Ionization_Penalty_Neutral>
0.00117669

> <r_epik_State_Penalty>
1.03185

> <r_epik_Charging_Adjusted_Penalty>
2.01654

> <i_epik_Tot_Q>
-1

> <i_epik_Tot_abs_Q>
1

> <r_epik_Metal_State_Penalty>
0.379327

> <b_epik_Metal_Only>
0

> <s_lp_Force_Field>
OPLS_2005

> <r_lp_Energy>
11.7701

> <b_lp_Chiralities_Consistent>
1

> <s_lp_Variant>
AV-unprocessed.smi:763-7

> <Gold.Version>
5.8.1

> <Gold.Id.Protein>
6NUR|6NUR_protein|mol2

> <Gold.PLP.Fitness>
51.4873

> <Gold.PLP.PLP>
-39.2883

> <Gold.PLP.part.hbond>
-6.5797

> <Gold.PLP.part.metal>
0.0000

> <Gold.PLP.part.buried>
-3.8336

> <Gold.PLP.part.nonpolar>
-29.0692

> <Gold.PLP.part.repulsive>
0.0000

> <Gold.PLP.ligand.clash>
0.0000

> <Gold.PLP.ligand.torsion>
1.1432

> <Gold.PLP.Chemscore.Hbond>
4.4128

> <Gold.PLP.Chemscore.CHOScore>
0.0000

> <Gold.PLP.Chemscore.Metal>
0.0000

> <Gold.Chemscore.Hbonds>
donor molecule, donor type, donor heavy atom, donor atom, acceptor molecule, acceptor atom, score
      L1  H    22    43       P1  7949  0.86
      P1  H  7997  8009       L1    12  2.00
      P1  H  7997  8010       L1    14  0.01
      P1  H 10752 10764       L1    22  0.98
      P1  H 10752 10765       L1    15  0.77

> <Gold.PLP.Chemscore.Internal.Correction>
1.2470

> <Gold.Rescore>
     Score         DG    S(hbond)    S(metal)    S(lipo)     H(rot)  DE(clash)    DE(int)     intcor
     13.75     -17.29       2.31        0.00      86.40       2.35       0.06       3.48       ----

> <Gold.Chemscore.Fitness>
13.7463

> <Gold.Chemscore.DG>
-17.2906

> <Gold.Chemscore.ZeroCoef>
-5.4800

> <Gold.Chemscore.Hbond>
2.3113

> <Gold.Chemscore.Metal>
0.0000

> <Gold.Chemscore.Lipo>
86.4017

> <Gold.Chemscore.Internal_Hbond>
0.0000

> <Gold.Chemscore.DEClash>
0.0609

> <Gold.Chemscore.DEInternal>
3.4834

> <Gold.Chemscore.Rot>
2.3509

> <Gold.Chemscore.Internal.Correction>
   9.000000E+99

> <Gold.Chemscore.Hbonds>
donor molecule, donor type, donor heavy atom, donor atom, acceptor molecule, acceptor atom, score
      L1  H    22    43       P1  7949  0.75
      P1  H  7997  8009       L1    12  0.27
      P1  H 10752 10764       L1    22  0.28
      P1  H 10752 10765       L1    15  0.59

> <Gold.Chemscore.Hbond.Weighted>
-7.7198

> <Gold.Chemscore.Metal.Weighted>
-0.0000

> <Gold.Chemscore.Lipo.Weighted>
-10.1090

> <Gold.Chemscore.Internal_Hbond.Weighted>
0.0000

> <Gold.Chemscore.DEClash.Weighted>
0.0609

> <Gold.Chemscore.DEInternal.Weighted>
3.4834

> <Gold.Chemscore.Rot.Weighted>
6.0182

> <Gold.Chemscore.Internal.Correction.Weighted>
   9.000000E+99

> <Gold.Protein.RotatedTorsions>
[ 6907 6896 6895 6894 ] final  -34.07 input  -60.11 | X-H torsion
[ 7974 7965 7964 7962 ] final -153.88 input  175.53 | X-H torsion
[ 8008 7997 7996 7995 ] final  169.38 input   59.86 | X-H torsion
[ 10167 10162 10161 10158 ] final -138.15 input  -65.29 | X-H torsion
[ 10718 10713 10712 10709 ] final   69.85 input   66.30 | X-H torsion
[ 10763 10752 10751 10750 ] final -106.72 input  -60.55 | X-H torsion
[ 11005 11000 10999 10996 ] final   16.70 input  -57.11 | X-H torsion

> <Gold.Protein.ActiveResidues>
 VAL166  LYS551  ARG553  GLY616  TRP617  ASP618  TYR619  PRO620  LYS621  CYS622 
 ASP623  PHE694  ASN695  SER759  ASP760  ASP761  ALA762  ILE779  LEU786  VAL792 
 PHE793  MET794  SER795  GLU796  ALA797  LYS798  CYS799  TRP800  GLU811  SER814 

> <Gold.Protein.RotatedAtoms>
  151.0574  134.9714  159.8242 H   0  0  0  0  0  0  0  0  0  0  0  0  # atno 6907 bound_to 6896
  152.5390  134.2460  159.8890 H   0  0  0  0  0  0  0  0  0  0  0  0  # atno 6908 bound_to 6896
  151.2478  133.4322  159.2644 H   0  0  0  0  0  0  0  0  0  0  0  0  # atno 6909 bound_to 6896
  144.7718  140.4465  143.5902 H   0  0  0  0  0  0  0  0  0  0  0  0  # atno 7974 bound_to 7965
  156.1463  140.1566  156.8842 H   0  0  0  0  0  0  0  0  0  0  0  0  # atno 8008 bound_to 7997
  154.5031  140.0820  156.7876 H   0  0  0  0  0  0  0  0  0  0  0  0  # atno 8009 bound_to 7997
  155.3983  140.3413  155.4257 H   0  0  0  0  0  0  0  0  0  0  0  0  # atno 8010 bound_to 7997
  139.8507  143.7203  152.2658 H   0  0  0  0  0  0  0  0  0  0  0  0  # atno 10167 bound_to 10162
  157.6368  130.9447  150.0570 H   0  0  0  0  0  0  0  0  0  0  0  0  # atno 10718 bound_to 10713
  154.8030  135.4701  154.0322 H   0  0  0  0  0  0  0  0  0  0  0  0  # atno 10763 bound_to 10752
  153.1813  135.6841  153.8481 H   0  0  0  0  0  0  0  0  0  0  0  0  # atno 10764 bound_to 10752
  153.8031  135.3227  155.3370 H   0  0  0  0  0  0  0  0  0  0  0  0  # atno 10765 bound_to 10752
  140.4442  134.1290  155.7694 H   0  0  0  0  0  0  0  0  0  0  0  0  # atno 11005 bound_to 11000
  145.6302  139.1535  143.2973 LP  0  0  0  0  0  0  0  0  0  0  0  0  # atno 17320 bound_to 7965
  146.1870  140.6406  142.9163 LP  0  0  0  0  0  0  0  0  0  0  0  0  # atno 17321 bound_to 7965
  139.7469  144.7545  151.0567 LP  0  0  0  0  0  0  0  0  0  0  0  0  # atno 17342 bound_to 10162
  140.7788  143.4906  150.9898 LP  0  0  0  0  0  0  0  0  0  0  0  0  # atno 17343 bound_to 10162
  156.1614  130.3644  149.9293 LP  0  0  0  0  0  0  0  0  0  0  0  0  # atno 17370 bound_to 10713
  156.7290  130.9036  151.3624 LP  0  0  0  0  0  0  0  0  0  0  0  0  # atno 17371 bound_to 10713
  141.1692  133.8642  157.1622 LP  0  0  0  0  0  0  0  0  0  0  0  0  # atno 17394 bound_to 11000
  140.0049  135.0012  157.0271 LP  0  0  0  0  0  0  0  0  0  0  0  0  # atno 17395 bound_to 11000

$$$$
