AV-unprocessed.smi:2462|AV-procd|sdf|9718|dock5
  -GOLD-   2272013353D 1   1.00000     0.00000
 Structure written by MMmdl.
 40 41  0  0  0  0  0  0  0  0  1 V2000
  148.1677  138.5885  153.9646 C   0  0  0  0  0  0  0  0  0  0  0  0
  149.0983  139.5712  154.6532 C   0  0  0  0  0  0  0  0  0  0  0  0
  148.5660  140.8409  154.8912 N   0  0  0  0  0  0  0  0  0  0  0  0
  149.2801  141.7369  155.4899 C   0  0  0  0  0  0  0  0  0  0  0  0
  150.5937  141.4735  155.9190 N   0  0  0  0  0  0  0  0  0  0  0  0
  151.3033  142.5771  156.5986 C   0  0  0  0  0  0  0  0  0  0  0  0
  151.4342  142.4245  158.1443 C   0  0  1  0  0  0  0  0  0  0  0  0
  150.1873  141.9591  158.6271 O   0  0  0  0  0  0  0  0  0  0  0  0
  152.4691  141.3182  158.4645 C   0  0  0  0  0  0  0  0  0  0  0  0
  152.7166  141.1301  159.9724 C   0  0  0  0  0  0  0  0  0  0  0  0
  153.1251  142.4502  160.6483 C   0  0  2  0  0  0  0  0  0  0  0  0
  153.3813  142.2582  162.1497 C   0  0  0  0  0  0  0  0  0  0  0  0
  152.0570  143.5267  160.3911 C   0  0  0  0  0  0  0  0  0  0  0  0
  151.8066  143.7333  158.8866 C   0  0  0  0  0  0  0  0  0  0  0  0
  151.2016  140.2734  155.6875 C   0  0  0  0  0  0  0  0  0  0  0  0
  152.3701  140.0632  156.0167 O   0  0  0  0  0  0  0  0  0  0  0  0
  150.3697  139.2570  155.0231 C   0  0  0  0  0  0  0  0  0  0  0  0
  151.0015  137.8901  154.7907 C   0  0  0  0  0  0  0  0  0  0  0  0
  148.6069  138.2338  153.0318 H   0  0  0  0  0  0  0  0  0  0  0  0
  147.2079  139.0492  153.7271 H   0  0  0  0  0  0  0  0  0  0  0  0
  147.9757  137.7305  154.6094 H   0  0  0  0  0  0  0  0  0  0  0  0
  148.9072  142.7401  155.7033 H   0  0  0  0  0  0  0  0  0  0  0  0
  152.2879  142.7265  156.1509 H   0  0  0  0  0  0  0  0  0  0  0  0
  150.7856  143.5137  156.3827 H   0  0  0  0  0  0  0  0  0  0  0  0
  150.2765  141.7629  159.5472 H   0  0  0  0  0  0  0  0  0  0  0  0
  152.1567  140.3701  158.0242 H   0  0  0  0  0  0  0  0  0  0  0  0
  153.4206  141.5678  157.9927 H   0  0  0  0  0  0  0  0  0  0  0  0
  151.8193  140.7317  160.4480 H   0  0  0  0  0  0  0  0  0  0  0  0
  153.4958  140.3815  160.1193 H   0  0  0  0  0  0  0  0  0  0  0  0
  154.0592  142.7867  160.1958 H   0  0  0  0  0  0  0  0  0  0  0  0
  152.4832  141.9173  162.6655 H   0  0  0  0  0  0  0  0  0  0  0  0
  153.6994  143.1910  162.6164 H   0  0  0  0  0  0  0  0  0  0  0  0
  154.1650  141.5202  162.3226 H   0  0  0  0  0  0  0  0  0  0  0  0
  151.1247  143.2494  160.8848 H   0  0  0  0  0  0  0  0  0  0  0  0
  152.3679  144.4720  160.8373 H   0  0  0  0  0  0  0  0  0  0  0  0
  152.7087  144.1542  158.4411 H   0  0  0  0  0  0  0  0  0  0  0  0
  151.0240  144.4823  158.7598 H   0  0  0  0  0  0  0  0  0  0  0  0
  151.3302  137.4616  155.7384 H   0  0  0  0  0  0  0  0  0  0  0  0
  151.8731  137.9845  154.1419 H   0  0  0  0  0  0  0  0  0  0  0  0
  150.3227  137.1753  154.3283 H   0  0  0  0  0  0  0  0  0  0  0  0
  1  2  1  0  0  0  0
  1 19  1  0  0  0  0
  1 20  1  0  0  0  0
  1 21  1  0  0  0  0
  2 17  2  0  0  0  0
  2  3  1  0  0  0  0
  3  4  2  0  0  0  0
  4  5  1  0  0  0  0
  4 22  1  0  0  0  0
  5  6  1  0  0  0  0
  5 15  1  0  0  0  0
  6  7  1  0  0  0  0
  6 23  1  0  0  0  0
  6 24  1  0  0  0  0
  7 14  1  0  0  0  0
  7  8  1  0  0  0  0
  7  9  1  0  0  0  0
  8 25  1  0  0  0  0
  9 10  1  0  0  0  0
  9 26  1  0  0  0  0
  9 27  1  0  0  0  0
 10 11  1  0  0  0  0
 10 28  1  0  0  0  0
 10 29  1  0  0  0  0
 11 12  1  0  0  0  0
 11 13  1  0  0  0  0
 11 30  1  0  0  0  0
 12 31  1  0  0  0  0
 12 32  1  0  0  0  0
 12 33  1  0  0  0  0
 13 14  1  0  0  0  0
 13 34  1  0  0  0  0
 13 35  1  0  0  0  0
 14 36  1  0  0  0  0
 14 37  1  0  0  0  0
 15 16  2  0  0  0  0
 15 17  1  0  0  0  0
 17 18  1  0  0  0  0
 18 38  1  0  0  0  0
 18 39  1  0  0  0  0
 18 40  1  0  0  0  0
M  END
> <s_m_source_file>
AV-unprocessed.smi

> <i_m_source_file_index>
2462

> <i_lp_mmshare_version>
43012

> <i_f3d_flags>
0

> <s_epik_input>
W0NIM11jMW5bY0hdbihjKD1PKWMxW0NIM10pW0NIMl1bQ0BAXTIoW09IXSlbQ0gyXVtDSDJdW0NAQEhdKFtDSDNdKVtDSDJdW0NIMl0y

> <s_epik_cmdline>
J2VwaWtfcHl0aG9uJywgJy1waCcsICc3LjAnLCAnLXRuJywgJzgnLCAnLW1hJywgJzIwMCcsICctbWV0YWxfYmluZGluZycsICctaW1hZScsICc8aW5maWxlLm1hZT4nLCAnLW9tYWUnLCAnPG91dGZpbGUubWFlPic=

> <r_lp_tautomer_probability>
1

> <r_epik_Ionization_Penalty>
0.000179745

> <r_epik_Ionization_Penalty_Charging>
2.35483e-07

> <r_epik_Ionization_Penalty_Neutral>
0.00017951

> <r_epik_State_Penalty>
-0

> <r_epik_Charging_Adjusted_Penalty>
2.35483e-07

> <i_epik_Tot_Q>
0

> <i_epik_Tot_abs_Q>
0

> <r_epik_Metal_State_Penalty>
-0

> <b_epik_Metal_Only>
0

> <s_lp_Force_Field>
OPLS_2005

> <r_lp_Energy>
24.8563

> <b_lp_Chiralities_Consistent>
1

> <s_lp_Variant>
AV-unprocessed.smi:2462-2

> <Gold.Version>
5.8.1

> <Gold.Id.Protein>
6NUR|6NUR_protein|mol2

> <Gold.PLP.Fitness>
44.0425

> <Gold.PLP.PLP>
-38.7437

> <Gold.PLP.part.hbond>
-1.0080

> <Gold.PLP.part.metal>
0.0000

> <Gold.PLP.part.buried>
-1.9981

> <Gold.PLP.part.nonpolar>
-34.7538

> <Gold.PLP.part.repulsive>
0.1074

> <Gold.PLP.ligand.clash>
0.0000

> <Gold.PLP.ligand.torsion>
0.3824

> <Gold.PLP.Chemscore.Hbond>
1.0000

> <Gold.PLP.Chemscore.CHOScore>
1.0000

> <Gold.PLP.Chemscore.Metal>
0.0000

> <Gold.Chemscore.Hbonds>
donor molecule, donor type, donor heavy atom, donor atom, acceptor molecule, acceptor atom, score
      P1  H  7997  8009       L1    16  1.00
      L1  C     4    22       P1  8028  0.86

> <Gold.PLP.Chemscore.Internal.Correction>
0.0636

> <Gold.Rescore>
     Score         DG    S(hbond)    S(metal)    S(lipo)     H(rot)  DE(clash)    DE(int)     intcor
     13.60     -16.77       0.96        0.00     105.71       1.68       1.30       1.87       ----

> <Gold.Chemscore.Fitness>
13.5987

> <Gold.Chemscore.DG>
-16.7713

> <Gold.Chemscore.ZeroCoef>
-5.4800

> <Gold.Chemscore.Hbond>
0.9621

> <Gold.Chemscore.Metal>
0.0000

> <Gold.Chemscore.Lipo>
105.7088

> <Gold.Chemscore.Internal_Hbond>
0.0000

> <Gold.Chemscore.DEClash>
1.3044

> <Gold.Chemscore.DEInternal>
1.8681

> <Gold.Chemscore.Rot>
1.6758

> <Gold.Chemscore.Internal.Correction>
   9.000000E+99

> <Gold.Chemscore.Hbonds>
donor molecule, donor type, donor heavy atom, donor atom, acceptor molecule, acceptor atom, score
      P1  H  7997  8009       L1    16  0.97

> <Gold.Chemscore.Hbond.Weighted>
-3.2133

> <Gold.Chemscore.Metal.Weighted>
-0.0000

> <Gold.Chemscore.Lipo.Weighted>
-12.3679

> <Gold.Chemscore.Internal_Hbond.Weighted>
0.0000

> <Gold.Chemscore.DEClash.Weighted>
1.3044

> <Gold.Chemscore.DEInternal.Weighted>
1.8681

> <Gold.Chemscore.Rot.Weighted>
4.2899

> <Gold.Chemscore.Internal.Correction.Weighted>
   9.000000E+99

> <Gold.Protein.RotatedTorsions>
[ 6907 6896 6895 6894 ] final   93.42 input  -60.11 | X-H torsion
[ 7974 7965 7964 7962 ] final    3.26 input  175.53 | X-H torsion
[ 8008 7997 7996 7995 ] final -158.88 input   59.86 | X-H torsion
[ 10167 10162 10161 10158 ] final  -22.29 input  -65.29 | X-H torsion
[ 10718 10713 10712 10709 ] final  109.55 input   66.30 | X-H torsion
[ 10763 10752 10751 10750 ] final  -28.33 input  -60.55 | X-H torsion
[ 11005 11000 10999 10996 ] final  130.14 input  -57.11 | X-H torsion

> <Gold.Protein.ActiveResidues>
 VAL166  LYS551  ARG553  GLY616  TRP617  ASP618  TYR619  PRO620  LYS621  CYS622 
 ASP623  PHE694  ASN695  SER759  ASP760  ASP761  ALA762  ILE779  LEU786  VAL792 
 PHE793  MET794  SER795  GLU796  ALA797  LYS798  CYS799  TRP800  GLU811  SER814 

> <Gold.Protein.RotatedAtoms>
  152.5452  134.1350  159.8454 H   0  0  0  0  0  0  0  0  0  0  0  0  # atno 6907 bound_to 6896
  151.1392  133.4976  159.2604 H   0  0  0  0  0  0  0  0  0  0  0  0  # atno 6908 bound_to 6896
  151.1591  135.0275  159.8757 H   0  0  0  0  0  0  0  0  0  0  0  0  # atno 6909 bound_to 6896
  146.2445  140.0712  142.8362 H   0  0  0  0  0  0  0  0  0  0  0  0  # atno 7974 bound_to 7965
  155.7542  140.0830  157.2186 H   0  0  0  0  0  0  0  0  0  0  0  0  # atno 8008 bound_to 7997
  154.4009  140.1555  156.2814 H   0  0  0  0  0  0  0  0  0  0  0  0  # atno 8009 bound_to 7997
  155.8901  140.3416  155.5953 H   0  0  0  0  0  0  0  0  0  0  0  0  # atno 8010 bound_to 7997
  140.7285  143.4548  151.0463 H   0  0  0  0  0  0  0  0  0  0  0  0  # atno 10167 bound_to 10162
  157.6536  131.0916  150.6470 H   0  0  0  0  0  0  0  0  0  0  0  0  # atno 10718 bound_to 10713
  153.7467  135.6929  153.4955 H   0  0  0  0  0  0  0  0  0  0  0  0  # atno 10763 bound_to 10752
  153.2032  135.4429  155.0290 H   0  0  0  0  0  0  0  0  0  0  0  0  # atno 10764 bound_to 10752
  154.8202  135.3418  154.6989 H   0  0  0  0  0  0  0  0  0  0  0  0  # atno 10765 bound_to 10752
  139.9655  134.9591  156.9251 H   0  0  0  0  0  0  0  0  0  0  0  0  # atno 11005 bound_to 11000
  145.0815  140.9224  143.4823 LP  0  0  0  0  0  0  0  0  0  0  0  0  # atno 17320 bound_to 7965
  145.0866  139.2921  143.5756 LP  0  0  0  0  0  0  0  0  0  0  0  0  # atno 17321 bound_to 7965
  139.8228  143.7797  152.3177 LP  0  0  0  0  0  0  0  0  0  0  0  0  # atno 17342 bound_to 10162
  139.7885  144.7419  150.9988 LP  0  0  0  0  0  0  0  0  0  0  0  0  # atno 17343 bound_to 10162
  156.6779  130.4558  149.5637 LP  0  0  0  0  0  0  0  0  0  0  0  0  # atno 17370 bound_to 10713
  156.1950  130.6584  151.1104 LP  0  0  0  0  0  0  0  0  0  0  0  0  # atno 17371 bound_to 10713
  140.5406  134.0724  155.7340 LP  0  0  0  0  0  0  0  0  0  0  0  0  # atno 17394 bound_to 11000
  141.1335  133.9262  157.2485 LP  0  0  0  0  0  0  0  0  0  0  0  0  # atno 17395 bound_to 11000

$$$$
