AV-unprocessed.smi:1102|AV-procd|sdf|4768|dock8
  -GOLD-   22720 3303D 1   1.00000     0.00000
 Structure written by MMmdl.
 40 41  0  0  0  0  0  0  0  0  2 V2000
  151.4086  143.1444  157.6870 C   0  0  0  0  0  0  0  0  0  0  0  0
  151.8668  143.8315  158.8895 N   0  0  0  0  0  0  0  0  0  0  0  0
  151.6371  145.2609  159.0531 C   0  0  0  0  0  0  0  0  0  0  0  0
  152.5493  143.1096  159.8925 C   0  0  0  0  0  0  0  0  0  0  0  0
  152.5127  143.4624  161.2638 C   0  0  0  0  0  0  0  0  0  0  0  0
  153.2219  142.6898  162.2061 C   0  0  0  0  0  0  0  0  0  0  0  0
  153.9583  141.5641  161.7818 C   0  0  0  0  0  0  0  0  0  0  0  0
  154.6672  140.8255  162.7684 N   0  0  0  0  0  0  0  0  0  0  0  0
  155.1912  141.2594  163.9278 C   0  0  0  0  0  0  0  0  0  0  0  0
  155.1640  142.4220  164.3299 O   0  0  0  0  0  0  0  0  0  0  0  0
  155.7768  140.2572  164.5982 N   0  0  0  0  0  0  0  0  0  0  0  0
  156.4565  140.3816  165.8841 C   0  0  0  0  0  0  0  0  0  0  0  0
  155.4921  140.8120  167.0024 C   0  0  1  0  0  0  0  0  0  0  0  0
  156.0721  140.7637  168.4166 C   0  0  0  0  0  0  0  0  0  0  0  0
  155.1924  141.7583  169.1379 C   0  0  0  0  0  0  0  0  0  0  0  0
  155.0034  142.8352  168.0733 C   0  0  0  0  0  0  0  0  0  0  0  0
  155.0974  142.1687  166.8161 O   0  0  0  0  0  0  0  0  0  0  0  0
  153.9725  141.2584  160.4000 C   0  0  0  0  0  0  0  0  0  0  0  0
  153.2798  142.0267  159.5315 N   0  3  0  0  0  0  0  0  0  0  0  0
  152.2503  142.6957  157.1585 H   0  0  0  0  0  0  0  0  0  0  0  0
  150.9125  143.8313  157.0011 H   0  0  0  0  0  0  0  0  0  0  0  0
  150.6987  142.3569  157.9423 H   0  0  0  0  0  0  0  0  0  0  0  0
  152.5846  145.7965  159.1195 H   0  0  0  0  0  0  0  0  0  0  0  0
  151.0608  145.4560  159.9580 H   0  0  0  0  0  0  0  0  0  0  0  0
  151.0803  145.6716  158.2107 H   0  0  0  0  0  0  0  0  0  0  0  0
  151.9521  144.3174  161.6112 H   0  0  0  0  0  0  0  0  0  0  0  0
  153.1945  142.9624  163.2512 H   0  0  0  0  0  0  0  0  0  0  0  0
  154.8318  139.8543  162.5473 H   0  0  0  0  0  0  0  0  0  0  0  0
  155.7544  139.3346  164.1888 H   0  0  0  0  0  0  0  0  0  0  0  0
  156.9658  139.4546  166.1529 H   0  0  0  0  0  0  0  0  0  0  0  0
  157.2370  141.1342  165.7720 H   0  0  0  0  0  0  0  0  0  0  0  0
  154.5863  140.2044  166.9666 H   0  0  0  0  0  0  0  0  0  0  0  0
  156.0429  139.7668  168.8570 H   0  0  0  0  0  0  0  0  0  0  0  0
  157.1065  141.1106  168.4213 H   0  0  0  0  0  0  0  0  0  0  0  0
  154.2338  141.2999  169.3846 H   0  0  0  0  0  0  0  0  0  0  0  0
  155.6370  142.1400  170.0573 H   0  0  0  0  0  0  0  0  0  0  0  0
  154.0522  143.3577  168.1771 H   0  0  0  0  0  0  0  0  0  0  0  0
  155.8034  143.5741  168.1326 H   0  0  0  0  0  0  0  0  0  0  0  0
  154.5142  140.4426  159.9463 H   0  0  0  0  0  0  0  0  0  0  0  0
  153.3114  141.7763  158.5431 H   0  0  0  0  0  0  0  0  0  0  0  0
  1  2  1  0  0  0  0
  1 20  1  0  0  0  0
  1 21  1  0  0  0  0
  1 22  1  0  0  0  0
  2  3  1  0  0  0  0
  2  4  1  0  0  0  0
  3 23  1  0  0  0  0
  3 24  1  0  0  0  0
  3 25  1  0  0  0  0
  4 19  1  0  0  0  0
  4  5  2  0  0  0  0
  5  6  1  0  0  0  0
  5 26  1  0  0  0  0
  6  7  2  0  0  0  0
  6 27  1  0  0  0  0
  7  8  1  0  0  0  0
  7 18  1  0  0  0  0
  8  9  1  0  0  0  0
  8 28  1  0  0  0  0
  9 10  2  0  0  0  0
  9 11  1  0  0  0  0
 11 12  1  0  0  0  0
 11 29  1  0  0  0  0
 12 13  1  0  0  0  0
 12 30  1  0  0  0  0
 12 31  1  0  0  0  0
 13 17  1  0  0  0  0
 13 14  1  0  0  0  0
 13 32  1  0  0  0  0
 14 15  1  0  0  0  0
 14 33  1  0  0  0  0
 14 34  1  0  0  0  0
 15 16  1  0  0  0  0
 15 35  1  0  0  0  0
 15 36  1  0  0  0  0
 16 17  1  0  0  0  0
 16 37  1  0  0  0  0
 16 38  1  0  0  0  0
 18 19  2  0  0  0  0
 18 39  1  0  0  0  0
 19 40  1  0  0  0  0
M  CHG  1  19   1
M  END
> <s_m_source_file>
AV-unprocessed.smi

> <i_m_source_file_index>
1102

> <i_lp_mmshare_version>
43012

> <i_f3d_flags>
0

> <s_epik_input>
W0NIM11OKFtDSDNdKWMxW2NIXVtjSF1jKFtjSF1uMSlbTkhdQyg9TylbTkhdW0NIMl1bQ0BASF0yW0NIMl1bQ0gyXVtDSDJdTzI=

> <s_epik_cmdline>
J2VwaWtfcHl0aG9uJywgJy1waCcsICc3LjAnLCAnLXRuJywgJzgnLCAnLW1hJywgJzIwMCcsICctbWV0YWxfYmluZGluZycsICctaW1hZScsICc8aW5maWxlLm1hZT4nLCAnLW9tYWUnLCAnPG91dGZpbGUubWFlPic=

> <r_lp_tautomer_probability>
0.999994

> <r_epik_Ionization_Penalty>
0.265123

> <r_epik_Ionization_Penalty_Charging>
0.265104

> <r_epik_Ionization_Penalty_Neutral>
1.89079e-05

> <r_epik_State_Penalty>
0.257001

> <r_epik_Charging_Adjusted_Penalty>
0.522106

> <i_epik_Tot_Q>
1

> <i_epik_Tot_abs_Q>
1

> <r_epik_Metal_State_Penalty>
0.543599

> <b_epik_Metal_Only>
0

> <s_lp_Force_Field>
OPLS_2005

> <r_lp_Energy>
27.717

> <b_lp_Chiralities_Consistent>
1

> <s_lp_Variant>
AV-unprocessed.smi:1102-2

> <Gold.Version>
5.8.1

> <Gold.Id.Protein>
6NUR|6NUR_protein|mol2

> <Gold.PLP.Fitness>
43.0064

> <Gold.PLP.PLP>
-44.2039

> <Gold.PLP.part.hbond>
-1.9003

> <Gold.PLP.part.metal>
0.0000

> <Gold.PLP.part.buried>
-4.9543

> <Gold.PLP.part.nonpolar>
-37.1465

> <Gold.PLP.part.repulsive>
0.1306

> <Gold.PLP.ligand.clash>
0.0045

> <Gold.PLP.ligand.torsion>
0.5992

> <Gold.PLP.Chemscore.Hbond>
0.0000

> <Gold.PLP.Chemscore.CHOScore>
0.0000

> <Gold.PLP.Chemscore.Metal>
0.0000

> <Gold.PLP.Chemscore.Internal.Correction>
0.0053

> <Gold.Rescore>
     Score         DG    S(hbond)    S(metal)    S(lipo)     H(rot)  DE(clash)    DE(int)     intcor
      9.15     -12.52       0.00        0.00      87.02       1.23       0.02       3.35       ----

> <Gold.Chemscore.Fitness>
9.1549

> <Gold.Chemscore.DG>
-12.5212

> <Gold.Chemscore.ZeroCoef>
-5.4800

> <Gold.Chemscore.Hbond>
0.0000

> <Gold.Chemscore.Metal>
0.0000

> <Gold.Chemscore.Lipo>
87.0236

> <Gold.Chemscore.Internal_Hbond>
0.0000

> <Gold.Chemscore.DEClash>
0.0210

> <Gold.Chemscore.DEInternal>
3.3453

> <Gold.Chemscore.Rot>
1.2268

> <Gold.Chemscore.Internal.Correction>
   9.000000E+99

> <Gold.Chemscore.Hbond.Weighted>
-0.0000

> <Gold.Chemscore.Metal.Weighted>
-0.0000

> <Gold.Chemscore.Lipo.Weighted>
-10.1818

> <Gold.Chemscore.Internal_Hbond.Weighted>
0.0000

> <Gold.Chemscore.DEClash.Weighted>
0.0210

> <Gold.Chemscore.DEInternal.Weighted>
3.3453

> <Gold.Chemscore.Rot.Weighted>
3.1406

> <Gold.Chemscore.Internal.Correction.Weighted>
   9.000000E+99

> <Gold.Protein.RotatedTorsions>
[ 6907 6896 6895 6894 ] final   35.39 input  -60.11 | X-H torsion
[ 7974 7965 7964 7962 ] final -116.27 input  175.53 | X-H torsion
[ 8008 7997 7996 7995 ] final -150.77 input   59.86 | X-H torsion
[ 10167 10162 10161 10158 ] final   26.80 input  -65.29 | X-H torsion
[ 10718 10713 10712 10709 ] final  -89.32 input   66.30 | X-H torsion
[ 10763 10752 10751 10750 ] final   26.83 input  -60.55 | X-H torsion
[ 11005 11000 10999 10996 ] final  103.45 input  -57.11 | X-H torsion

> <Gold.Protein.ActiveResidues>
 VAL166  LYS551  ARG553  GLY616  TRP617  ASP618  TYR619  PRO620  LYS621  CYS622 
 ASP623  PHE694  ASN695  SER759  ASP760  ASP761  ALA762  ILE779  LEU786  VAL792 
 PHE793  MET794  SER795  GLU796  ALA797  LYS798  CYS799  TRP800  GLU811  SER814 

> <Gold.Protein.RotatedAtoms>
  152.1155  134.9243  160.0564 H   0  0  0  0  0  0  0  0  0  0  0  0  # atno 6907 bound_to 6896
  152.0404  133.3970  159.4343 H   0  0  0  0  0  0  0  0  0  0  0  0  # atno 6908 bound_to 6896
  150.6846  134.3342  159.4883 H   0  0  0  0  0  0  0  0  0  0  0  0  # atno 6909 bound_to 6896
  145.0987  140.8537  143.3939 H   0  0  0  0  0  0  0  0  0  0  0  0  # atno 7974 bound_to 7965
  155.6288  140.0689  157.2655 H   0  0  0  0  0  0  0  0  0  0  0  0  # atno 8008 bound_to 7997
  154.4211  140.1771  156.1498 H   0  0  0  0  0  0  0  0  0  0  0  0  # atno 8009 bound_to 7997
  155.9950  140.3341  155.6793 H   0  0  0  0  0  0  0  0  0  0  0  0  # atno 8010 bound_to 7997
  140.4992  144.0342  150.6326 H   0  0  0  0  0  0  0  0  0  0  0  0  # atno 10167 bound_to 10162
  155.9984  130.4868  150.5153 H   0  0  0  0  0  0  0  0  0  0  0  0  # atno 10718 bound_to 10713
  153.0596  135.6551  154.0494 H   0  0  0  0  0  0  0  0  0  0  0  0  # atno 10763 bound_to 10752
  154.0164  135.2923  155.3387 H   0  0  0  0  0  0  0  0  0  0  0  0  # atno 10764 bound_to 10752
  154.6928  135.5276  153.8484 H   0  0  0  0  0  0  0  0  0  0  0  0  # atno 10765 bound_to 10752
  139.8784  134.9263  156.5212 H   0  0  0  0  0  0  0  0  0  0  0  0  # atno 11005 bound_to 11000
  145.0981  139.2842  143.5700 LP  0  0  0  0  0  0  0  0  0  0  0  0  # atno 17320 bound_to 7965
  146.3530  140.0539  142.8634 LP  0  0  0  0  0  0  0  0  0  0  0  0  # atno 17321 bound_to 7965
  140.3633  143.2895  152.0359 LP  0  0  0  0  0  0  0  0  0  0  0  0  # atno 17342 bound_to 10162
  139.4868  144.6286  151.7115 LP  0  0  0  0  0  0  0  0  0  0  0  0  # atno 17343 bound_to 10162
  157.3121  131.0665  151.1993 LP  0  0  0  0  0  0  0  0  0  0  0  0  # atno 17370 bound_to 10713
  157.2936  130.6808  149.6127 LP  0  0  0  0  0  0  0  0  0  0  0  0  # atno 17371 bound_to 10713
  140.8449  133.8176  155.9111 LP  0  0  0  0  0  0  0  0  0  0  0  0  # atno 17394 bound_to 11000
  140.9201  134.2152  157.4932 LP  0  0  0  0  0  0  0  0  0  0  0  0  # atno 17395 bound_to 11000

$$$$
