AV-unprocessed.smi:2078|AV-procd|sdf|8464|dock7
  -GOLD-   2272011163D 1   1.00000     0.00000
 Structure written by MMmdl.
 42 43  0  0  0  0  0  0  0  0  2 V2000
  152.4067  140.0405  157.0371 C   0  0  0  0  0  0  0  0  0  0  0  0
  151.6099  139.2891  156.0256 C   0  0  0  0  0  0  0  0  0  0  0  0
  151.1505  138.0029  155.9752 C   0  0  0  0  0  0  0  0  0  0  0  0
  150.4681  137.9556  154.7305 C   0  0  0  0  0  0  0  0  0  0  0  0
  149.8343  136.7649  154.2925 N   0  0  0  0  0  0  0  0  0  0  0  0
  149.7785  135.5848  154.9329 C   0  0  0  0  0  0  0  0  0  0  0  0
  150.2854  135.3455  156.0293 O   0  0  0  0  0  0  0  0  0  0  0  0
  149.0946  134.6747  154.2241 N   0  0  0  0  0  0  0  0  0  0  0  0
  148.8480  133.3028  154.6520 C   0  0  0  0  0  0  0  0  0  0  0  0
  149.2551  132.2876  153.5661 C   0  0  0  0  0  0  0  0  0  0  0  0
  148.0899  131.8040  152.7843 N   0  3  2  0  0  0  0  0  0  0  0  0
  147.2598  132.9074  152.2319 C   0  0  0  0  0  0  0  0  0  0  0  0
  146.1575  132.3617  151.3107 C   0  0  0  0  0  0  0  0  0  0  0  0
  145.2868  131.3315  152.0440 C   0  0  0  0  0  0  0  0  0  0  0  0
  146.1466  130.2200  152.6741 C   0  0  1  0  0  0  0  0  0  0  0  0
  146.6960  129.2283  151.6334 C   0  0  0  0  0  0  0  0  0  0  0  0
  147.2648  130.8289  153.5458 C   0  0  0  0  0  0  0  0  0  0  0  0
  150.5057  139.1086  154.0805 N   0  0  0  0  0  0  0  0  0  0  0  0
  151.2380  139.9691  154.9068 O   0  0  0  0  0  0  0  0  0  0  0  0
  151.9885  139.9074  158.0349 H   0  0  0  0  0  0  0  0  0  0  0  0
  152.4162  141.1082  156.8162 H   0  0  0  0  0  0  0  0  0  0  0  0
  153.4386  139.6898  157.0525 H   0  0  0  0  0  0  0  0  0  0  0  0
  151.2836  137.2241  156.7117 H   0  0  0  0  0  0  0  0  0  0  0  0
  149.3724  136.8199  153.3968 H   0  0  0  0  0  0  0  0  0  0  0  0
  148.7084  134.9537  153.3337 H   0  0  0  0  0  0  0  0  0  0  0  0
  149.3749  133.1225  155.5894 H   0  0  0  0  0  0  0  0  0  0  0  0
  147.7845  133.2033  154.8714 H   0  0  0  0  0  0  0  0  0  0  0  0
  149.9620  132.7800  152.8966 H   0  0  0  0  0  0  0  0  0  0  0  0
  149.7838  131.4355  153.9963 H   0  0  0  0  0  0  0  0  0  0  0  0
  146.8165  133.4757  153.0513 H   0  0  0  0  0  0  0  0  0  0  0  0
  147.8771  133.6039  151.6658 H   0  0  0  0  0  0  0  0  0  0  0  0
  145.5352  133.1819  150.9512 H   0  0  0  0  0  0  0  0  0  0  0  0
  146.6067  131.9097  150.4258 H   0  0  0  0  0  0  0  0  0  0  0  0
  144.7234  131.8374  152.8293 H   0  0  0  0  0  0  0  0  0  0  0  0
  144.5475  130.9064  151.3641 H   0  0  0  0  0  0  0  0  0  0  0  0
  145.4967  129.6428  153.3335 H   0  0  0  0  0  0  0  0  0  0  0  0
  147.3835  129.7071  150.9362 H   0  0  0  0  0  0  0  0  0  0  0  0
  145.8885  128.7845  151.0503 H   0  0  0  0  0  0  0  0  0  0  0  0
  147.2346  128.4132  152.1178 H   0  0  0  0  0  0  0  0  0  0  0  0
  147.8957  130.0288  153.9357 H   0  0  0  0  0  0  0  0  0  0  0  0
  146.8297  131.3315  154.4114 H   0  0  0  0  0  0  0  0  0  0  0  0
  148.4666  131.2947  151.9976 H   0  0  0  0  0  0  0  0  0  0  0  0
  1  2  1  0  0  0  0
  1 20  1  0  0  0  0
  1 21  1  0  0  0  0
  1 22  1  0  0  0  0
  2 19  1  0  0  0  0
  2  3  2  0  0  0  0
  3  4  1  0  0  0  0
  3 23  1  0  0  0  0
  4  5  1  0  0  0  0
  4 18  2  0  0  0  0
  5  6  1  0  0  0  0
  5 24  1  0  0  0  0
  6  7  2  0  0  0  0
  6  8  1  0  0  0  0
  8  9  1  0  0  0  0
  8 25  1  0  0  0  0
  9 10  1  0  0  0  0
  9 26  1  0  0  0  0
  9 27  1  0  0  0  0
 10 11  1  0  0  0  0
 10 28  1  0  0  0  0
 10 29  1  0  0  0  0
 11 17  1  0  0  0  0
 11 12  1  0  0  0  0
 11 42  1  0  0  0  0
 12 13  1  0  0  0  0
 12 30  1  0  0  0  0
 12 31  1  0  0  0  0
 13 14  1  0  0  0  0
 13 32  1  0  0  0  0
 13 33  1  0  0  0  0
 14 15  1  0  0  0  0
 14 34  1  0  0  0  0
 14 35  1  0  0  0  0
 15 16  1  0  0  0  0
 15 17  1  0  0  0  0
 15 36  1  0  0  0  0
 16 37  1  0  0  0  0
 16 38  1  0  0  0  0
 16 39  1  0  0  0  0
 17 40  1  0  0  0  0
 17 41  1  0  0  0  0
 18 19  1  0  0  0  0
M  CHG  1  11   1
M  END
> <s_m_source_file>
AV-unprocessed.smi

> <i_m_source_file_index>
2078

> <i_lp_mmshare_version>
43012

> <i_f3d_flags>
0

> <s_epik_input>
W0NIM11jMVtjSF1jKG5vMSlbTkhdQyg9TylbTkhdW0NIMl1bQ0gyXU4yW0NIMl1bQ0gyXVtDSDJdW0NAQEhdKFtDSDNdKVtDSDJdMg==

> <s_epik_cmdline>
J2VwaWtfcHl0aG9uJywgJy1waCcsICc3LjAnLCAnLXRuJywgJzgnLCAnLW1hJywgJzIwMCcsICctbWV0YWxfYmluZGluZycsICctaW1hZScsICc8aW5maWxlLm1hZT4nLCAnLW9tYWUnLCAnPG91dGZpbGUubWFlPic=

> <r_epik_Ionization_Penalty>
0.00216453

> <r_epik_Ionization_Penalty_Charging>
0.00212879

> <r_epik_Ionization_Penalty_Neutral>
3.57418e-05

> <r_epik_State_Penalty>
0.00146033

> <r_epik_Charging_Adjusted_Penalty>
0.00358912

> <i_epik_Tot_Q>
1

> <i_epik_Tot_abs_Q>
1

> <r_epik_Metal_State_Penalty>
0.0215827

> <b_epik_Metal_Only>
0

> <s_lp_Force_Field>
OPLS_2005

> <r_lp_Energy>
15.3902

> <b_lp_Chiralities_Consistent>
1

> <s_lp_Variant>
AV-unprocessed.smi:2078-2

> <Gold.Version>
5.8.1

> <Gold.Id.Protein>
6NUR|6NUR_protein|mol2

> <Gold.PLP.Fitness>
40.4427

> <Gold.PLP.PLP>
-31.3029

> <Gold.PLP.part.hbond>
-4.8048

> <Gold.PLP.part.metal>
0.0000

> <Gold.PLP.part.buried>
-3.0620

> <Gold.PLP.part.nonpolar>
-23.6083

> <Gold.PLP.part.repulsive>
0.3246

> <Gold.PLP.ligand.clash>
0.0000

> <Gold.PLP.ligand.torsion>
0.3850

> <Gold.PLP.Chemscore.Hbond>
3.2980

> <Gold.PLP.Chemscore.CHOScore>
0.0000

> <Gold.PLP.Chemscore.Metal>
0.0000

> <Gold.Chemscore.Hbonds>
donor molecule, donor type, donor heavy atom, donor atom, acceptor molecule, acceptor atom, score
      L1  H     5    24       P1  7948  1.00
      L1  H     8    25       P1  7948  0.85
      L1  H    11    42       P1 10747  1.00
      P1  H  7989  7998       L1    19  0.40

> <Gold.PLP.Chemscore.Internal.Correction>
0.0158

> <Gold.Rescore>
     Score         DG    S(hbond)    S(metal)    S(lipo)     H(rot)  DE(clash)    DE(int)     intcor
     16.58     -18.41       2.61        0.00      70.32       1.57       0.05       1.78       ----

> <Gold.Chemscore.Fitness>
16.5794

> <Gold.Chemscore.DG>
-18.4104

> <Gold.Chemscore.ZeroCoef>
-5.4800

> <Gold.Chemscore.Hbond>
2.6112

> <Gold.Chemscore.Metal>
0.0000

> <Gold.Chemscore.Lipo>
70.3211

> <Gold.Chemscore.Internal_Hbond>
0.0000

> <Gold.Chemscore.DEClash>
0.0515

> <Gold.Chemscore.DEInternal>
1.7795

> <Gold.Chemscore.Rot>
1.5697

> <Gold.Chemscore.Internal.Correction>
   9.000000E+99

> <Gold.Chemscore.Hbonds>
donor molecule, donor type, donor heavy atom, donor atom, acceptor molecule, acceptor atom, score
      L1  H     5    24       P1  7948  0.90
      L1  H     8    25       P1  7948  0.46
      L1  H    11    42       P1 10747  0.99
      P1  H  7989  7998       L1    19  0.01

> <Gold.Chemscore.Hbond.Weighted>
-8.7213

> <Gold.Chemscore.Metal.Weighted>
-0.0000

> <Gold.Chemscore.Lipo.Weighted>
-8.2276

> <Gold.Chemscore.Internal_Hbond.Weighted>
0.0000

> <Gold.Chemscore.DEClash.Weighted>
0.0515

> <Gold.Chemscore.DEInternal.Weighted>
1.7795

> <Gold.Chemscore.Rot.Weighted>
4.0185

> <Gold.Chemscore.Internal.Correction.Weighted>
   9.000000E+99

> <Gold.Protein.RotatedTorsions>
[ 6907 6896 6895 6894 ] final -168.77 input  -60.11 | X-H torsion
[ 7974 7965 7964 7962 ] final  156.50 input  175.53 | X-H torsion
[ 8008 7997 7996 7995 ] final  173.08 input   59.86 | X-H torsion
[ 10167 10162 10161 10158 ] final   14.75 input  -65.29 | X-H torsion
[ 10718 10713 10712 10709 ] final -177.50 input   66.30 | X-H torsion
[ 10763 10752 10751 10750 ] final   90.02 input  -60.55 | X-H torsion
[ 11005 11000 10999 10996 ] final  120.61 input  -57.11 | X-H torsion

> <Gold.Protein.ActiveResidues>
 VAL166  LYS551  ARG553  GLY616  TRP617  ASP618  TYR619  PRO620  LYS621  CYS622 
 ASP623  PHE694  ASN695  SER759  ASP760  ASP761  ALA762  ILE779  LEU786  VAL792 
 PHE793  MET794  SER795  GLU796  ALA797  LYS798  CYS799  TRP800  GLU811  SER814 

> <Gold.Protein.RotatedAtoms>
  151.4809  133.3546  159.2837 H   0  0  0  0  0  0  0  0  0  0  0  0  # atno 6907 bound_to 6896
  150.8898  134.8302  159.7296 H   0  0  0  0  0  0  0  0  0  0  0  0  # atno 6908 bound_to 6896
  152.4815  134.4717  159.9689 H   0  0  0  0  0  0  0  0  0  0  0  0  # atno 6909 bound_to 6896
  144.7959  139.7212  143.6202 H   0  0  0  0  0  0  0  0  0  0  0  0  # atno 7974 bound_to 7965
  156.1111  140.1469  156.9337 H   0  0  0  0  0  0  0  0  0  0  0  0  # atno 8008 bound_to 7997
  154.4768  140.0892  156.7324 H   0  0  0  0  0  0  0  0  0  0  0  0  # atno 8009 bound_to 7997
  155.4594  140.3438  155.4313 H   0  0  0  0  0  0  0  0  0  0  0  0  # atno 8010 bound_to 7997
  140.5914  143.8788  150.6877 H   0  0  0  0  0  0  0  0  0  0  0  0  # atno 10167 bound_to 10162
  156.8303  130.9651  151.3107 H   0  0  0  0  0  0  0  0  0  0  0  0  # atno 10718 bound_to 10713
  153.1932  135.4449  155.0175 H   0  0  0  0  0  0  0  0  0  0  0  0  # atno 10763 bound_to 10752
  154.8103  135.3291  154.7326 H   0  0  0  0  0  0  0  0  0  0  0  0  # atno 10764 bound_to 10752
  153.7778  135.6980  153.4949 H   0  0  0  0  0  0  0  0  0  0  0  0  # atno 10765 bound_to 10752
  139.9192  134.9635  156.7833 H   0  0  0  0  0  0  0  0  0  0  0  0  # atno 11005 bound_to 11000
  146.2227  139.5666  142.9607 LP  0  0  0  0  0  0  0  0  0  0  0  0  # atno 17320 bound_to 7965
  145.5674  141.0398  143.2193 LP  0  0  0  0  0  0  0  0  0  0  0  0  # atno 17321 bound_to 7965
  140.2311  143.3735  152.1564 LP  0  0  0  0  0  0  0  0  0  0  0  0  # atno 17342 bound_to 10162
  139.5230  144.7066  151.5336 LP  0  0  0  0  0  0  0  0  0  0  0  0  # atno 17343 bound_to 10162
  157.6410  130.8805  149.9448 LP  0  0  0  0  0  0  0  0  0  0  0  0  # atno 17370 bound_to 10713
  156.0938  130.3661  150.0345 LP  0  0  0  0  0  0  0  0  0  0  0  0  # atno 17371 bound_to 10713
  140.6527  133.9717  155.7763 LP  0  0  0  0  0  0  0  0  0  0  0  0  # atno 17394 bound_to 11000
  141.0697  134.0223  157.3543 LP  0  0  0  0  0  0  0  0  0  0  0  0  # atno 17395 bound_to 11000

$$$$
