AV-unprocessed.smi:527|AV-procd|sdf|2819|dock1
  -GOLD-   2262023303D 1   1.00000     0.00000
 Structure written by MMmdl.
 42 43  0  0  0  0  0  0  0  0  1 V2000
  143.6490  132.9372  151.1120 C   0  0  0  0  0  0  0  0  0  0  0  0
  145.0796  132.9199  150.5351 C   0  0  2  0  0  0  0  0  0  0  0  0
  145.7120  131.5165  150.6285 C   0  0  0  0  0  0  0  0  0  0  0  0
  146.0998  131.1495  152.0692 C   0  0  0  0  0  0  0  0  0  0  0  0
  147.0347  132.2036  152.6780 C   0  0  0  0  0  0  0  0  0  0  0  0
  146.4293  133.6215  152.6068 C   0  0  1  0  0  0  0  0  0  0  0  0
  147.3897  134.5939  153.1257 N   0  0  0  0  0  0  0  0  0  0  0  0
  147.8211  134.6610  154.3940 C   0  0  0  0  0  0  0  0  0  0  0  0
  147.2198  134.1508  155.3418 O   0  0  0  0  0  0  0  0  0  0  0  0
  148.9752  135.3510  154.4743 N   0  0  0  0  0  0  0  0  0  0  0  0
  149.6840  135.6432  155.5840 C   0  0  0  0  0  0  0  0  0  0  0  0
  149.3729  135.3033  156.7285 O   0  0  0  0  0  0  0  0  0  0  0  0
  150.9575  136.4621  155.3338 C   0  0  0  0  0  0  0  0  0  0  0  0
  150.6851  137.8322  154.9332 N   0  0  0  0  0  0  0  0  0  0  0  0
  149.6060  138.2901  154.1874 C   0  0  0  0  0  0  0  0  0  0  0  0
  149.7663  139.6513  154.0586 C   0  0  0  0  0  0  0  0  0  0  0  0
  150.9293  140.0504  154.7133 N   0  0  0  0  0  0  0  0  0  0  0  0
  151.4178  138.9204  155.2083 C   0  0  0  0  0  0  0  0  0  0  0  0
  146.0275  133.9826  151.1530 C   0  0  2  0  0  0  0  0  0  0  0  0
  145.4702  135.4138  151.0199 C   0  0  0  0  0  0  0  0  0  0  0  0
  143.6364  132.7713  152.1886 H   0  0  0  0  0  0  0  0  0  0  0  0
  143.0368  132.1594  150.6550 H   0  0  0  0  0  0  0  0  0  0  0  0
  143.1504  133.8865  150.9182 H   0  0  0  0  0  0  0  0  0  0  0  0
  144.9817  133.1494  149.4731 H   0  0  0  0  0  0  0  0  0  0  0  0
  145.0317  130.7669  150.2226 H   0  0  0  0  0  0  0  0  0  0  0  0
  146.6040  131.4826  150.0017 H   0  0  0  0  0  0  0  0  0  0  0  0
  145.2051  131.0520  152.6846 H   0  0  0  0  0  0  0  0  0  0  0  0
  146.5862  130.1738  152.0836 H   0  0  0  0  0  0  0  0  0  0  0  0
  147.2537  131.9380  153.7131 H   0  0  0  0  0  0  0  0  0  0  0  0
  147.9883  132.1840  152.1483 H   0  0  0  0  0  0  0  0  0  0  0  0
  145.5333  133.6531  153.2292 H   0  0  0  0  0  0  0  0  0  0  0  0
  147.7406  135.2747  152.4683 H   0  0  0  0  0  0  0  0  0  0  0  0
  149.3531  135.6919  153.6028 H   0  0  0  0  0  0  0  0  0  0  0  0
  151.5659  136.4773  156.2392 H   0  0  0  0  0  0  0  0  0  0  0  0
  151.5505  135.9820  154.5543 H   0  0  0  0  0  0  0  0  0  0  0  0
  148.8342  137.6287  153.8222 H   0  0  0  0  0  0  0  0  0  0  0  0
  149.1394  140.3683  153.5493 H   0  0  0  0  0  0  0  0  0  0  0  0
  152.3304  138.8833  155.7847 H   0  0  0  0  0  0  0  0  0  0  0  0
  146.9415  133.9590  150.5568 H   0  0  0  0  0  0  0  0  0  0  0  0
  144.6191  135.5768  151.6815 H   0  0  0  0  0  0  0  0  0  0  0  0
  145.1446  135.6146  149.9990 H   0  0  0  0  0  0  0  0  0  0  0  0
  146.2237  136.1611  151.2685 H   0  0  0  0  0  0  0  0  0  0  0  0
  1  2  1  0  0  0  0
  1 21  1  0  0  0  0
  1 22  1  0  0  0  0
  1 23  1  0  0  0  0
  2 19  1  0  0  0  0
  2  3  1  0  0  0  0
  2 24  1  0  0  0  0
  3  4  1  0  0  0  0
  3 25  1  0  0  0  0
  3 26  1  0  0  0  0
  4  5  1  0  0  0  0
  4 27  1  0  0  0  0
  4 28  1  0  0  0  0
  5  6  1  0  0  0  0
  5 29  1  0  0  0  0
  5 30  1  0  0  0  0
  6  7  1  0  0  0  0
  6 19  1  0  0  0  0
  6 31  1  0  0  0  0
  7  8  1  0  0  0  0
  7 32  1  0  0  0  0
  8  9  2  0  0  0  0
  8 10  1  0  0  0  0
 10 11  1  0  0  0  0
 10 33  1  0  0  0  0
 11 12  2  0  0  0  0
 11 13  1  0  0  0  0
 13 14  1  0  0  0  0
 13 34  1  0  0  0  0
 13 35  1  0  0  0  0
 14 18  1  0  0  0  0
 14 15  1  0  0  0  0
 15 16  2  0  0  0  0
 15 36  1  0  0  0  0
 16 17  1  0  0  0  0
 16 37  1  0  0  0  0
 17 18  2  0  0  0  0
 18 38  1  0  0  0  0
 19 20  1  0  0  0  0
 19 39  1  0  0  0  0
 20 40  1  0  0  0  0
 20 41  1  0  0  0  0
 20 42  1  0  0  0  0
M  END
> <s_m_source_file>
AV-unprocessed.smi

> <i_m_source_file_index>
527

> <i_lp_mmshare_version>
43012

> <i_f3d_flags>
0

> <s_epik_input>
W0NIM11bQ0BASF0xW0NIMl1bQ0gyXVtDSDJdW0NASF0oW0NASF0xW0NIM10pW05IXUMoPU8pW05IXUMoPU8pW0NIMl1uMltjSF1bY0hdbltjSF0y

> <s_epik_cmdline>
J2VwaWtfcHl0aG9uJywgJy1waCcsICc3LjAnLCAnLXRuJywgJzgnLCAnLW1hJywgJzIwMCcsICctbWV0YWxfYmluZGluZycsICctaW1hZScsICc8aW5maWxlLm1hZT4nLCAnLW9tYWUnLCAnPG91dGZpbGUubWFlPic=

> <r_lp_tautomer_probability>
1

> <r_epik_Ionization_Penalty>
0.172132

> <r_epik_Ionization_Penalty_Charging>
0.172105

> <r_epik_Ionization_Penalty_Neutral>
2.71747e-05

> <r_epik_State_Penalty>
0.161503

> <r_epik_Charging_Adjusted_Penalty>
0.333607

> <i_epik_Tot_Q>
0

> <i_epik_Tot_abs_Q>
0

> <r_epik_Metal_State_Penalty>
0.124763

> <b_epik_Metal_Only>
0

> <s_lp_Force_Field>
OPLS_2005

> <r_lp_Energy>
17.7357

> <b_lp_Chiralities_Consistent>
1

> <s_lp_Variant>
AV-unprocessed.smi:527-5

> <Gold.Version>
5.8.1

> <Gold.Id.Protein>
6NUR|6NUR_protein|mol2

> <Gold.PLP.Fitness>
46.0552

> <Gold.PLP.PLP>
-34.2674

> <Gold.PLP.part.hbond>
-3.0000

> <Gold.PLP.part.metal>
0.0000

> <Gold.PLP.part.buried>
-1.6960

> <Gold.PLP.part.nonpolar>
-29.5485

> <Gold.PLP.part.repulsive>
0.1106

> <Gold.PLP.ligand.clash>
0.0000

> <Gold.PLP.ligand.torsion>
0.5931

> <Gold.PLP.Chemscore.Hbond>
2.9600

> <Gold.PLP.Chemscore.CHOScore>
1.3591

> <Gold.PLP.Chemscore.Metal>
0.0000

> <Gold.Chemscore.Hbonds>
donor molecule, donor type, donor heavy atom, donor atom, acceptor molecule, acceptor atom, score
      L1  H     7    32       P1  7948  1.00
      L1  H    10    33       P1  7948  0.94
      P1  H  7989  7998       L1    17  0.95
      L1  C    15    36       P1  7948  0.91
      L1  C    16    37       P1  7957  0.50

> <Gold.PLP.Chemscore.Internal.Correction>
0.0166

> <Gold.Rescore>
     Score         DG    S(hbond)    S(metal)    S(lipo)     H(rot)  DE(clash)    DE(int)     intcor
     15.69     -17.71       2.26        0.00      76.30       1.66       0.11       1.90       ----

> <Gold.Chemscore.Fitness>
15.6932

> <Gold.Chemscore.DG>
-17.7061

> <Gold.Chemscore.ZeroCoef>
-5.4800

> <Gold.Chemscore.Hbond>
2.2624

> <Gold.Chemscore.Metal>
0.0000

> <Gold.Chemscore.Lipo>
76.2971

> <Gold.Chemscore.Internal_Hbond>
0.0000

> <Gold.Chemscore.DEClash>
0.1103

> <Gold.Chemscore.DEInternal>
1.9027

> <Gold.Chemscore.Rot>
1.6629

> <Gold.Chemscore.Internal.Correction>
   9.000000E+99

> <Gold.Chemscore.Hbonds>
donor molecule, donor type, donor heavy atom, donor atom, acceptor molecule, acceptor atom, score
      L1  H     7    32       P1  7948  0.95
      L1  H    10    33       P1  7948  0.41
      P1  H  7989  7998       L1    17  0.21

> <Gold.Chemscore.Hbond.Weighted>
-7.5563

> <Gold.Chemscore.Metal.Weighted>
-0.0000

> <Gold.Chemscore.Lipo.Weighted>
-8.9268

> <Gold.Chemscore.Internal_Hbond.Weighted>
0.0000

> <Gold.Chemscore.DEClash.Weighted>
0.1103

> <Gold.Chemscore.DEInternal.Weighted>
1.9027

> <Gold.Chemscore.Rot.Weighted>
4.2569

> <Gold.Chemscore.Internal.Correction.Weighted>
   9.000000E+99

> <Gold.Protein.RotatedTorsions>
[ 6907 6896 6895 6894 ] final   55.09 input  -60.11 | X-H torsion
[ 7974 7965 7964 7962 ] final   80.59 input  175.53 | X-H torsion
[ 8008 7997 7996 7995 ] final -101.30 input   59.86 | X-H torsion
[ 10167 10162 10161 10158 ] final  136.24 input  -65.29 | X-H torsion
[ 10718 10713 10712 10709 ] final   13.32 input   66.30 | X-H torsion
[ 10763 10752 10751 10750 ] final  -18.44 input  -60.55 | X-H torsion
[ 11005 11000 10999 10996 ] final -141.36 input  -57.11 | X-H torsion

> <Gold.Protein.ActiveResidues>
 VAL166  LYS551  ARG553  GLY616  TRP617  ASP618  TYR619  PRO620  LYS621  CYS622 
 ASP623  PHE694  ASN695  SER759  ASP760  ASP761  ALA762  ILE779  LEU786  VAL792 
 PHE793  MET794  SER795  GLU796  ALA797  LYS798  CYS799  TRP800  GLU811  SER814 

> <Gold.Protein.RotatedAtoms>
  152.3504  134.7014  160.0237 H   0  0  0  0  0  0  0  0  0  0  0  0  # atno 6907 bound_to 6896
  151.7370  133.3315  159.3363 H   0  0  0  0  0  0  0  0  0  0  0  0  # atno 6908 bound_to 6896
  150.7536  134.6246  159.6198 H   0  0  0  0  0  0  0  0  0  0  0  0  # atno 6909 bound_to 6896
  145.6492  139.2443  143.1987 H   0  0  0  0  0  0  0  0  0  0  0  0  # atno 7974 bound_to 7965
  154.8407  140.0435  157.1539 H   0  0  0  0  0  0  0  0  0  0  0  0  # atno 8008 bound_to 7997
  154.9050  140.3005  155.5277 H   0  0  0  0  0  0  0  0  0  0  0  0  # atno 8009 bound_to 7997
  156.2992  140.2369  156.4082 H   0  0  0  0  0  0  0  0  0  0  0  0  # atno 8010 bound_to 7997
  139.5187  144.6475  151.5398 H   0  0  0  0  0  0  0  0  0  0  0  0  # atno 10167 bound_to 10162
  157.0229  130.6162  149.5724 H   0  0  0  0  0  0  0  0  0  0  0  0  # atno 10718 bound_to 10713
  153.5893  135.7003  153.5430 H   0  0  0  0  0  0  0  0  0  0  0  0  # atno 10763 bound_to 10752
  153.3192  135.4079  155.1402 H   0  0  0  0  0  0  0  0  0  0  0  0  # atno 10764 bound_to 10752
  154.8603  135.3691  154.5424 H   0  0  0  0  0  0  0  0  0  0  0  0  # atno 10765 bound_to 10752
  140.8332  134.2492  157.4846 H   0  0  0  0  0  0  0  0  0  0  0  0  # atno 11005 bound_to 11000
  146.1218  140.7299  142.9454 LP  0  0  0  0  0  0  0  0  0  0  0  0  # atno 17320 bound_to 7965
  144.7129  140.4104  143.7067 LP  0  0  0  0  0  0  0  0  0  0  0  0  # atno 17321 bound_to 7965
  140.6266  143.9157  150.6569 LP  0  0  0  0  0  0  0  0  0  0  0  0  # atno 17342 bound_to 10162
  140.2448  143.3637  152.1456 LP  0  0  0  0  0  0  0  0  0  0  0  0  # atno 17343 bound_to 10162
  156.0096  130.5186  150.7944 LP  0  0  0  0  0  0  0  0  0  0  0  0  # atno 17370 bound_to 10713
  157.5236  131.0933  151.0047 LP  0  0  0  0  0  0  0  0  0  0  0  0  # atno 17371 bound_to 10713
  139.8704  134.9597  156.4340 LP  0  0  0  0  0  0  0  0  0  0  0  0  # atno 17394 bound_to 11000
  140.8975  133.7803  155.9642 LP  0  0  0  0  0  0  0  0  0  0  0  0  # atno 17395 bound_to 11000

$$$$
