AV-unprocessed.smi:1632|AV-procd|sdf|6530|dock10
  -GOLD-   22720 7213D 1   1.00000     0.00000
 Structure written by MMmdl.
 43 45  0  0  0  0  0  0  0  0  2 V2000
  150.6523  135.5394  157.5453 O   0  0  0  0  0  0  0  0  0  0  0  0
  150.6118  136.0226  156.2210 C   0  0  0  0  0  0  0  0  0  0  0  0
  151.5712  137.2143  156.0759 C   0  0  0  0  0  0  0  0  0  0  0  0
  151.5832  137.8316  154.6677 C   0  0  0  0  0  0  0  0  0  0  0  0
  150.4591  138.7966  154.4591 C   0  0  0  0  0  0  0  0  0  0  0  0
  149.4163  138.6261  153.5985 N   0  3  0  0  0  0  0  0  0  0  0  0
  148.5677  139.7319  153.6579 C   0  0  0  0  0  0  0  0  0  0  0  0
  147.3879  140.0114  152.9752 C   0  0  0  0  0  0  0  0  0  0  0  0
  146.7610  141.2393  153.2719 C   0  0  0  0  0  0  0  0  0  0  0  0
  147.3073  142.1332  154.2156 C   0  0  0  0  0  0  0  0  0  0  0  0
  148.5042  141.8386  154.9010 C   0  0  0  0  0  0  0  0  0  0  0  0
  149.1198  140.6234  154.6001 C   0  0  0  0  0  0  0  0  0  0  0  0
  150.2875  140.0065  155.0666 N   0  0  0  0  0  0  0  0  0  0  0  0
  151.1152  140.6892  156.0746 C   0  0  0  0  0  0  0  0  0  0  0  0
  150.9046  140.1358  157.4989 C   0  0  2  0  0  0  0  0  0  0  0  0
  149.5263  140.0827  157.8118 O   0  0  0  0  0  0  0  0  0  0  0  0
  151.7004  140.9255  158.5285 C   0  0  0  0  0  0  0  0  0  0  0  0
  152.6796  140.2683  159.3050 C   0  0  0  0  0  0  0  0  0  0  0  0
  153.4308  140.9823  160.2583 C   0  0  0  0  0  0  0  0  0  0  0  0
  153.2092  142.3601  160.4411 C   0  0  0  0  0  0  0  0  0  0  0  0
  152.2369  143.0233  159.6688 C   0  0  0  0  0  0  0  0  0  0  0  0
  151.4843  142.3116  158.7141 C   0  0  0  0  0  0  0  0  0  0  0  0
  150.5577  142.9692  157.9761 F   0  0  0  0  0  0  0  0  0  0  0  0
  150.2958  136.2005  158.1190 H   0  0  0  0  0  0  0  0  0  0  0  0
  150.8913  135.2178  155.5410 H   0  0  0  0  0  0  0  0  0  0  0  0
  149.5867  136.3104  155.9863 H   0  0  0  0  0  0  0  0  0  0  0  0
  151.3155  137.9821  156.8073 H   0  0  0  0  0  0  0  0  0  0  0  0
  152.5824  136.8868  156.3207 H   0  0  0  0  0  0  0  0  0  0  0  0
  152.5241  138.3588  154.5077 H   0  0  0  0  0  0  0  0  0  0  0  0
  151.5414  137.0469  153.9121 H   0  0  0  0  0  0  0  0  0  0  0  0
  146.9664  139.3269  152.2536 H   0  0  0  0  0  0  0  0  0  0  0  0
  145.8420  141.5000  152.7672 H   0  0  0  0  0  0  0  0  0  0  0  0
  146.7977  143.0637  154.4197 H   0  0  0  0  0  0  0  0  0  0  0  0
  148.9089  142.5283  155.6271 H   0  0  0  0  0  0  0  0  0  0  0  0
  152.1567  140.5602  155.7798 H   0  0  0  0  0  0  0  0  0  0  0  0
  150.9256  141.7612  156.0275 H   0  0  0  0  0  0  0  0  0  0  0  0
  151.2563  139.1036  157.5180 H   0  0  0  0  0  0  0  0  0  0  0  0
  149.0334  140.2498  157.0227 H   0  0  0  0  0  0  0  0  0  0  0  0
  152.8608  139.2117  159.1728 H   0  0  0  0  0  0  0  0  0  0  0  0
  154.1777  140.4725  160.8491 H   0  0  0  0  0  0  0  0  0  0  0  0
  153.7853  142.9080  161.1722 H   0  0  0  0  0  0  0  0  0  0  0  0
  152.0688  144.0812  159.8079 H   0  0  0  0  0  0  0  0  0  0  0  0
  149.2967  137.8101  153.0123 H   0  0  0  0  0  0  0  0  0  0  0  0
  1  2  1  0  0  0  0
  1 24  1  0  0  0  0
  2  3  1  0  0  0  0
  2 25  1  0  0  0  0
  2 26  1  0  0  0  0
  3  4  1  0  0  0  0
  3 27  1  0  0  0  0
  3 28  1  0  0  0  0
  4  5  1  0  0  0  0
  4 29  1  0  0  0  0
  4 30  1  0  0  0  0
  5 13  1  0  0  0  0
  5  6  2  0  0  0  0
  6  7  1  0  0  0  0
  6 43  1  0  0  0  0
  7 12  2  0  0  0  0
  7  8  1  0  0  0  0
  8  9  2  0  0  0  0
  8 31  1  0  0  0  0
  9 10  1  0  0  0  0
  9 32  1  0  0  0  0
 10 11  2  0  0  0  0
 10 33  1  0  0  0  0
 11 12  1  0  0  0  0
 11 34  1  0  0  0  0
 12 13  1  0  0  0  0
 13 14  1  0  0  0  0
 14 15  1  0  0  0  0
 14 35  1  0  0  0  0
 14 36  1  0  0  0  0
 15 16  1  0  0  0  0
 15 17  1  0  0  0  0
 15 37  1  0  0  0  0
 16 38  1  0  0  0  0
 17 22  1  0  0  0  0
 17 18  2  0  0  0  0
 18 19  1  0  0  0  0
 18 39  1  0  0  0  0
 19 20  2  0  0  0  0
 19 40  1  0  0  0  0
 20 21  1  0  0  0  0
 20 41  1  0  0  0  0
 21 22  2  0  0  0  0
 21 42  1  0  0  0  0
 22 23  1  0  0  0  0
M  CHG  1   6   1
M  END
> <s_m_source_file>
AV-unprocessed.smi

> <i_m_source_file_index>
1632

> <i_lp_mmshare_version>
43012

> <i_f3d_flags>
0

> <s_epik_input>
W09IXVtDSDJdW0NIMl1bQ0gyXWMobjEpbihjKGMxMilbY0hdW2NIXVtjSF1bY0hdMilbQ0gyXVtDQEhdKFtPSF0pYzNbY0hdW2NIXVtjSF1bY0hdYzNG

> <s_epik_cmdline>
J2VwaWtfcHl0aG9uJywgJy1waCcsICc3LjAnLCAnLXRuJywgJzgnLCAnLW1hJywgJzIwMCcsICctbWV0YWxfYmluZGluZycsICctaW1hZScsICc8aW5maWxlLm1hZT4nLCAnLW9tYWUnLCAnPG91dGZpbGUubWFlPic=

> <r_epik_Ionization_Penalty>
0.786441

> <r_epik_Ionization_Penalty_Charging>
0.786439

> <r_epik_Ionization_Penalty_Neutral>
1.50852e-06

> <r_epik_State_Penalty>
0.816472

> <r_epik_Charging_Adjusted_Penalty>
1.60291

> <i_epik_Tot_Q>
1

> <i_epik_Tot_abs_Q>
1

> <r_epik_Metal_State_Penalty>
4.73733

> <b_epik_Metal_Only>
0

> <s_lp_Force_Field>
OPLS_2005

> <r_lp_Energy>
17.2969

> <b_lp_Chiralities_Consistent>
1

> <s_lp_Variant>
AV-unprocessed.smi:1632-3

> <Gold.Version>
5.8.1

> <Gold.Id.Protein>
6NUR|6NUR_protein|mol2

> <Gold.PLP.Fitness>
54.0963

> <Gold.PLP.PLP>
-48.9652

> <Gold.PLP.part.hbond>
-3.0000

> <Gold.PLP.part.metal>
0.0000

> <Gold.PLP.part.buried>
1.6797

> <Gold.PLP.part.nonpolar>
-47.7257

> <Gold.PLP.part.repulsive>
0.0753

> <Gold.PLP.ligand.clash>
0.0000

> <Gold.PLP.ligand.torsion>
0.4694

> <Gold.PLP.Chemscore.Hbond>
2.0000

> <Gold.PLP.Chemscore.CHOScore>
0.0000

> <Gold.PLP.Chemscore.Metal>
0.0000

> <Gold.Chemscore.Hbonds>
donor molecule, donor type, donor heavy atom, donor atom, acceptor molecule, acceptor atom, score
      L1  H     6    43       P1  7948  2.00

> <Gold.PLP.Chemscore.Internal.Correction>
0.0698

> <Gold.Rescore>
     Score         DG    S(hbond)    S(metal)    S(lipo)     H(rot)  DE(clash)    DE(int)     intcor
     13.34     -15.55       0.97        0.00     127.46       3.16       0.11       2.10       ----

> <Gold.Chemscore.Fitness>
13.3429

> <Gold.Chemscore.DG>
-15.5503

> <Gold.Chemscore.ZeroCoef>
-5.4800

> <Gold.Chemscore.Hbond>
0.9724

> <Gold.Chemscore.Metal>
0.0000

> <Gold.Chemscore.Lipo>
127.4618

> <Gold.Chemscore.Internal_Hbond>
0.0000

> <Gold.Chemscore.DEClash>
0.1051

> <Gold.Chemscore.DEInternal>
2.1023

> <Gold.Chemscore.Rot>
3.1604

> <Gold.Chemscore.Internal.Correction>
   9.000000E+99

> <Gold.Chemscore.Hbonds>
donor molecule, donor type, donor heavy atom, donor atom, acceptor molecule, acceptor atom, score
      L1  H     6    43       P1  7948  0.96

> <Gold.Chemscore.Hbond.Weighted>
-3.2480

> <Gold.Chemscore.Metal.Weighted>
-0.0000

> <Gold.Chemscore.Lipo.Weighted>
-14.9130

> <Gold.Chemscore.Internal_Hbond.Weighted>
0.0000

> <Gold.Chemscore.DEClash.Weighted>
0.1051

> <Gold.Chemscore.DEInternal.Weighted>
2.1023

> <Gold.Chemscore.Rot.Weighted>
8.0907

> <Gold.Chemscore.Internal.Correction.Weighted>
   9.000000E+99

> <Gold.Protein.RotatedTorsions>
[ 6907 6896 6895 6894 ] final -135.81 input  -60.11 | X-H torsion
[ 7974 7965 7964 7962 ] final  172.66 input  175.53 | X-H torsion
[ 8008 7997 7996 7995 ] final   49.48 input   59.86 | X-H torsion
[ 10167 10162 10161 10158 ] final  117.71 input  -65.29 | X-H torsion
[ 10718 10713 10712 10709 ] final  -69.26 input   66.30 | X-H torsion
[ 10763 10752 10751 10750 ] final -124.58 input  -60.55 | X-H torsion
[ 11005 11000 10999 10996 ] final   27.95 input  -57.11 | X-H torsion

> <Gold.Protein.ActiveResidues>
 VAL166  LYS551  ARG553  GLY616  TRP617  ASP618  TYR619  PRO620  LYS621  CYS622 
 ASP623  PHE694  ASN695  SER759  ASP760  ASP761  ALA762  ILE779  LEU786  VAL792 
 PHE793  MET794  SER795  GLU796  ALA797  LYS798  CYS799  TRP800  GLU811  SER814 

> <Gold.Protein.RotatedAtoms>
  151.0024  133.6043  159.2693 H   0  0  0  0  0  0  0  0  0  0  0  0  # atno 6907 bound_to 6896
  151.3224  135.0821  159.9320 H   0  0  0  0  0  0  0  0  0  0  0  0  # atno 6908 bound_to 6896
  152.5277  133.9669  159.7798 H   0  0  0  0  0  0  0  0  0  0  0  0  # atno 6909 bound_to 6896
  144.7262  139.9531  143.6432 H   0  0  0  0  0  0  0  0  0  0  0  0  # atno 7974 bound_to 7965
  155.4029  140.3438  155.4258 H   0  0  0  0  0  0  0  0  0  0  0  0  # atno 8008 bound_to 7997
  156.1493  140.1566  156.8828 H   0  0  0  0  0  0  0  0  0  0  0  0  # atno 8009 bound_to 7997
  154.5038  140.0807  156.7834 H   0  0  0  0  0  0  0  0  0  0  0  0  # atno 8010 bound_to 7997
  139.6160  144.7092  151.2737 H   0  0  0  0  0  0  0  0  0  0  0  0  # atno 10167 bound_to 10162
  156.0464  130.4309  150.2121 H   0  0  0  0  0  0  0  0  0  0  0  0  # atno 10718 bound_to 10713
  154.8725  135.4059  154.3129 H   0  0  0  0  0  0  0  0  0  0  0  0  # atno 10763 bound_to 10752
  153.3970  135.7017  153.6459 H   0  0  0  0  0  0  0  0  0  0  0  0  # atno 10764 bound_to 10752
  153.5217  135.3686  155.2606 H   0  0  0  0  0  0  0  0  0  0  0  0  # atno 10765 bound_to 10752
  140.3208  134.2545  155.7717 H   0  0  0  0  0  0  0  0  0  0  0  0  # atno 11005 bound_to 11000
  146.0696  139.3685  143.0531 LP  0  0  0  0  0  0  0  0  0  0  0  0  # atno 17320 bound_to 7965
  145.7986  140.9781  143.1011 LP  0  0  0  0  0  0  0  0  0  0  0  0  # atno 17321 bound_to 7965
  140.7351  143.6745  150.8053 LP  0  0  0  0  0  0  0  0  0  0  0  0  # atno 17342 bound_to 10162
  140.0348  143.5406  152.2744 LP  0  0  0  0  0  0  0  0  0  0  0  0  # atno 17343 bound_to 10162
  157.0210  130.9979  151.3339 LP  0  0  0  0  0  0  0  0  0  0  0  0  # atno 17370 bound_to 10713
  157.5344  130.8079  149.7955 LP  0  0  0  0  0  0  0  0  0  0  0  0  # atno 17371 bound_to 10713
  141.2087  133.7770  157.0044 LP  0  0  0  0  0  0  0  0  0  0  0  0  # atno 17394 bound_to 11000
  140.0943  134.9573  157.1825 LP  0  0  0  0  0  0  0  0  0  0  0  0  # atno 17395 bound_to 11000

$$$$
