AV-unprocessed.smi:102|AV-procd|sdf|950|dock6
  -GOLD-   2262017483D 1   1.00000     0.00000
 Structure written by MMmdl.
 44 45  0  0  0  0  0  0  0  0  1 V2000
  147.8495  133.1470  152.6474 C   0  0  0  0  0  0  0  0  0  0  0  0
  146.8625  133.8451  153.5735 C   0  0  0  0  0  0  0  0  0  0  0  0
  145.8089  134.3219  153.1517 O   0  0  0  0  0  0  0  0  0  0  0  0
  147.2846  133.8656  154.8450 O   0  0  0  0  0  0  0  0  0  0  0  0
  146.5358  134.5665  155.8266 C   0  0  0  0  0  0  0  0  0  0  0  0
  147.3467  134.7107  157.1248 C   0  0  1  0  0  0  0  0  0  0  0  0
  148.6568  135.1870  156.8693 O   0  0  0  0  0  0  0  0  0  0  0  0
  149.1819  135.6932  158.0535 C   0  0  1  0  0  0  0  0  0  0  0  0
  150.0419  136.8825  157.6906 N   0  0  0  0  0  0  0  0  0  0  0  0
  150.1558  137.2866  156.3665 C   0  0  0  0  0  0  0  0  0  0  0  0
  150.9732  138.2878  155.9648 C   0  0  0  0  0  0  0  0  0  0  0  0
  151.0263  138.6199  154.6638 F   0  0  0  0  0  0  0  0  0  0  0  0
  151.8144  138.9913  156.9277 C   0  0  0  0  0  0  0  0  0  0  0  0
  152.5759  139.9197  156.6644 O   0  0  0  0  0  0  0  0  0  0  0  0
  151.7110  138.5159  158.2379 N   0  0  0  0  0  0  0  0  0  0  0  0
  150.8809  137.4761  158.6623 C   0  0  0  0  0  0  0  0  0  0  0  0
  150.9014  137.1253  159.8411 O   0  0  0  0  0  0  0  0  0  0  0  0
  148.0199  136.0700  158.9944 C   0  0  2  0  0  0  0  0  0  0  0  0
  148.1421  135.3743  160.2287 O   0  0  0  0  0  0  0  0  0  0  0  0
  147.7577  135.9622  161.3750 C   0  0  0  0  0  0  0  0  0  0  0  0
  147.4224  134.9504  162.4625 C   0  0  0  0  0  0  0  0  0  0  0  0
  147.6666  137.1739  161.5728 O   0  0  0  0  0  0  0  0  0  0  0  0
  146.7794  135.6177  158.2289 C   0  0  1  0  0  0  0  0  0  0  0  0
  146.1056  136.7764  157.7480 O   0  0  0  0  0  0  0  0  0  0  0  0
  145.7930  137.7884  158.5773 C   0  0  0  0  0  0  0  0  0  0  0  0
  145.0341  138.9024  157.8691 C   0  0  0  0  0  0  0  0  0  0  0  0
  146.0515  137.8512  159.7789 O   0  0  0  0  0  0  0  0  0  0  0  0
  152.2947  138.9551  158.9349 H   0  0  0  0  0  0  0  0  0  0  0  0
  148.8307  133.6173  152.7145 H   0  0  0  0  0  0  0  0  0  0  0  0
  147.5095  133.2024  151.6132 H   0  0  0  0  0  0  0  0  0  0  0  0
  147.9481  132.0968  152.9227 H   0  0  0  0  0  0  0  0  0  0  0  0
  146.2552  135.5534  155.4553 H   0  0  0  0  0  0  0  0  0  0  0  0
  145.6133  134.0196  156.0251 H   0  0  0  0  0  0  0  0  0  0  0  0
  147.4627  133.7156  157.5573 H   0  0  0  0  0  0  0  0  0  0  0  0
  149.8236  134.9349  158.5042 H   0  0  0  0  0  0  0  0  0  0  0  0
  149.5817  136.7768  155.6074 H   0  0  0  0  0  0  0  0  0  0  0  0
  148.0153  137.1456  159.1762 H   0  0  0  0  0  0  0  0  0  0  0  0
  148.3280  134.4487  162.8035 H   0  0  0  0  0  0  0  0  0  0  0  0
  146.7305  134.1985  162.0827 H   0  0  0  0  0  0  0  0  0  0  0  0
  146.9593  135.4456  163.3163 H   0  0  0  0  0  0  0  0  0  0  0  0
  146.1214  135.0414  158.8812 H   0  0  0  0  0  0  0  0  0  0  0  0
  143.9736  138.6571  157.8104 H   0  0  0  0  0  0  0  0  0  0  0  0
  145.4147  139.0423  156.8571 H   0  0  0  0  0  0  0  0  0  0  0  0
  145.1432  139.8420  158.4109 H   0  0  0  0  0  0  0  0  0  0  0  0
  1  2  1  0  0  0  0
  1 29  1  0  0  0  0
  1 30  1  0  0  0  0
  1 31  1  0  0  0  0
  2  3  2  0  0  0  0
  2  4  1  0  0  0  0
  4  5  1  0  0  0  0
  5  6  1  0  0  0  0
  5 32  1  0  0  0  0
  5 33  1  0  0  0  0
  6 23  1  0  0  0  0
  6  7  1  0  0  0  0
  6 34  1  0  0  0  0
  7  8  1  0  0  0  0
  8  9  1  0  0  0  0
  8 18  1  0  0  0  0
  8 35  1  0  0  0  0
  9 16  1  0  0  0  0
  9 10  1  0  0  0  0
 10 11  2  0  0  0  0
 10 36  1  0  0  0  0
 11 12  1  0  0  0  0
 11 13  1  0  0  0  0
 13 14  2  0  0  0  0
 13 15  1  0  0  0  0
 15 28  1  0  0  0  0
 15 16  1  0  0  0  0
 16 17  2  0  0  0  0
 18 19  1  0  0  0  0
 18 23  1  0  0  0  0
 18 37  1  0  0  0  0
 19 20  1  0  0  0  0
 20 21  1  0  0  0  0
 20 22  2  0  0  0  0
 21 38  1  0  0  0  0
 21 39  1  0  0  0  0
 21 40  1  0  0  0  0
 23 24  1  0  0  0  0
 23 41  1  0  0  0  0
 24 25  1  0  0  0  0
 25 26  1  0  0  0  0
 25 27  2  0  0  0  0
 26 42  1  0  0  0  0
 26 43  1  0  0  0  0
 26 44  1  0  0  0  0
M  END
> <s_m_source_file>
AV-unprocessed.smi

> <i_m_source_file_index>
102

> <i_lp_mmshare_version>
43012

> <i_f3d_flags>
0

> <s_epik_input>
W0NIM11DKD1PKU9bQ0gyXVtDQEBIXTFPW0NASF0oW0NAQEhdKE9DKD1PKVtDSDNdKVtDQEhdMU9DKD1PKVtDSDNdKW4yW2NIXWMoRiljKD1PKVtuSF1jMj1P

> <s_epik_cmdline>
J2VwaWtfcHl0aG9uJywgJy1waCcsICc3LjAnLCAnLXRuJywgJzgnLCAnLW1hJywgJzIwMCcsICctbWV0YWxfYmluZGluZycsICctaW1hZScsICc8aW5maWxlLm1hZT4nLCAnLW9tYWUnLCAnPG91dGZpbGUubWFlPic=

> <r_lp_tautomer_probability>
0.999537

> <r_epik_Ionization_Penalty>
0.058267

> <r_epik_Ionization_Penalty_Charging>
0.058267

> <r_epik_Ionization_Penalty_Neutral>
6.57791e-16

> <r_epik_State_Penalty>
0.0503774

> <r_epik_Charging_Adjusted_Penalty>
0.108644

> <i_epik_Tot_Q>
0

> <i_epik_Tot_abs_Q>
0

> <r_epik_Metal_State_Penalty>
2.6644

> <b_epik_Metal_Only>
0

> <s_epik_Chemistry_Notes>
This compound has an ester and may undergo hydrolysis at high or low pH. This compound contains an acetal/aminal-like group ( X-CH(R)-Y where X, Y are N, S, or O) that may be acid/base labile, releasing an aldehyde.

> <s_lp_Force_Field>
OPLS_2005

> <r_lp_Energy>
13.4822

> <b_lp_Chiralities_Consistent>
1

> <s_lp_Variant>
AV-unprocessed.smi:102-6

> <Gold.Version>
5.8.1

> <Gold.Id.Protein>
6NUR|6NUR_protein|mol2

> <Gold.PLP.Fitness>
36.7208

> <Gold.PLP.PLP>
-27.1296

> <Gold.PLP.part.hbond>
-5.0362

> <Gold.PLP.part.metal>
0.0000

> <Gold.PLP.part.buried>
-4.4693

> <Gold.PLP.part.nonpolar>
-17.6224

> <Gold.PLP.part.repulsive>
0.2012

> <Gold.PLP.ligand.clash>
0.0000

> <Gold.PLP.ligand.torsion>
1.1188

> <Gold.PLP.Chemscore.Hbond>
3.8793

> <Gold.PLP.Chemscore.CHOScore>
0.0000

> <Gold.PLP.Chemscore.Metal>
0.0000

> <Gold.Chemscore.Hbonds>
donor molecule, donor type, donor heavy atom, donor atom, acceptor molecule, acceptor atom, score
      P1  H  6896  6908       L1    17  1.00
      P1  H  6931  6943       L1    22  1.00
      P1  H  6934  6947       L1    27  0.91
      P1  H  7997  8009       L1    14  1.00

> <Gold.PLP.Chemscore.Internal.Correction>
0.1911

> <Gold.Rescore>
     Score         DG    S(hbond)    S(metal)    S(lipo)     H(rot)  DE(clash)    DE(int)     intcor
      7.43     -11.36       3.91        0.00      27.28       4.05       0.06       3.87       ----

> <Gold.Chemscore.Fitness>
7.4278

> <Gold.Chemscore.DG>
-11.3565

> <Gold.Chemscore.ZeroCoef>
-5.4800

> <Gold.Chemscore.Hbond>
3.9095

> <Gold.Chemscore.Metal>
0.0000

> <Gold.Chemscore.Lipo>
27.2833

> <Gold.Chemscore.Internal_Hbond>
0.0000

> <Gold.Chemscore.DEClash>
0.0582

> <Gold.Chemscore.DEInternal>
3.8705

> <Gold.Chemscore.Rot>
4.0520

> <Gold.Chemscore.Internal.Correction>
   9.000000E+99

> <Gold.Chemscore.Hbonds>
donor molecule, donor type, donor heavy atom, donor atom, acceptor molecule, acceptor atom, score
      P1  H  6896  6908       L1    17  0.61
      P1  H  6931  6943       L1    22  0.95
      P1  H  6934  6947       L1    27  0.88
      P1  H  7997  8009       L1    14  0.94

> <Gold.Chemscore.Hbond.Weighted>
-13.0576

> <Gold.Chemscore.Metal.Weighted>
-0.0000

> <Gold.Chemscore.Lipo.Weighted>
-3.1921

> <Gold.Chemscore.Internal_Hbond.Weighted>
0.0000

> <Gold.Chemscore.DEClash.Weighted>
0.0582

> <Gold.Chemscore.DEInternal.Weighted>
3.8705

> <Gold.Chemscore.Rot.Weighted>
10.3732

> <Gold.Chemscore.Internal.Correction.Weighted>
   9.000000E+99

> <Gold.Protein.RotatedTorsions>
[ 6907 6896 6895 6894 ] final -140.78 input  -60.11 | X-H torsion
[ 7974 7965 7964 7962 ] final   -3.38 input  175.53 | X-H torsion
[ 8008 7997 7996 7995 ] final -153.86 input   59.86 | X-H torsion
[ 10167 10162 10161 10158 ] final -135.20 input  -65.29 | X-H torsion
[ 10718 10713 10712 10709 ] final  -18.77 input   66.30 | X-H torsion
[ 10763 10752 10751 10750 ] final  143.93 input  -60.55 | X-H torsion
[ 11005 11000 10999 10996 ] final   89.42 input  -57.11 | X-H torsion

> <Gold.Protein.ActiveResidues>
 VAL166  LYS551  ARG553  GLY616  TRP617  ASP618  TYR619  PRO620  LYS621  CYS622 
 ASP623  PHE694  ASN695  SER759  ASP760  ASP761  ALA762  ILE779  LEU786  VAL792 
 PHE793  MET794  SER795  GLU796  ALA797  LYS798  CYS799  TRP800  GLU811  SER814 

> <Gold.Protein.RotatedAtoms>
  151.0652  133.5511  159.2631 H   0  0  0  0  0  0  0  0  0  0  0  0  # atno 6907 bound_to 6896
  151.2472  135.0609  159.9057 H   0  0  0  0  0  0  0  0  0  0  0  0  # atno 6908 bound_to 6896
  152.5403  134.0418  159.8124 H   0  0  0  0  0  0  0  0  0  0  0  0  # atno 6909 bound_to 6896
  146.2390  140.1712  142.8332 H   0  0  0  0  0  0  0  0  0  0  0  0  # atno 7974 bound_to 7965
  155.6773  140.0740  157.2498 H   0  0  0  0  0  0  0  0  0  0  0  0  # atno 8008 bound_to 7997
  154.4112  140.1688  156.1996 H   0  0  0  0  0  0  0  0  0  0  0  0  # atno 8009 bound_to 7997
  155.9565  140.3373  155.6456 H   0  0  0  0  0  0  0  0  0  0  0  0  # atno 8010 bound_to 7997
  139.8803  143.6847  152.2628 H   0  0  0  0  0  0  0  0  0  0  0  0  # atno 10167 bound_to 10162
  156.5549  130.4711  149.6434 H   0  0  0  0  0  0  0  0  0  0  0  0  # atno 10718 bound_to 10713
  153.9804  135.2942  155.3420 H   0  0  0  0  0  0  0  0  0  0  0  0  # atno 10763 bound_to 10752
  154.7272  135.5083  153.8908 H   0  0  0  0  0  0  0  0  0  0  0  0  # atno 10764 bound_to 10752
  153.0857  135.6692  154.0068 H   0  0  0  0  0  0  0  0  0  0  0  0  # atno 10765 bound_to 10752
  139.8876  134.8550  156.3140 H   0  0  0  0  0  0  0  0  0  0  0  0  # atno 11005 bound_to 11000
  145.0010  140.8632  143.5282 LP  0  0  0  0  0  0  0  0  0  0  0  0  # atno 17320 bound_to 7965
  145.1731  139.2393  143.5331 LP  0  0  0  0  0  0  0  0  0  0  0  0  # atno 17321 bound_to 7965
  139.7202  144.7604  151.0968 LP  0  0  0  0  0  0  0  0  0  0  0  0  # atno 17342 bound_to 10162
  140.7745  143.5217  150.9528 LP  0  0  0  0  0  0  0  0  0  0  0  0  # atno 17343 bound_to 10162
  156.2851  130.7093  151.1927 LP  0  0  0  0  0  0  0  0  0  0  0  0  # atno 17370 bound_to 10713
  157.7380  131.0545  150.5320 LP  0  0  0  0  0  0  0  0  0  0  0  0  # atno 17371 bound_to 10713
  140.9831  133.7255  156.0702 LP  0  0  0  0  0  0  0  0  0  0  0  0  # atno 17394 bound_to 11000
  140.7723  134.3819  157.5505 LP  0  0  0  0  0  0  0  0  0  0  0  0  # atno 17395 bound_to 11000

$$$$
