AV-unprocessed.smi:3283|AV-procd|sdf|12571|dock10
  -GOLD-   2272018493D 1   1.00000     0.00000
 Structure written by MMmdl.
 44 45  0  0  0  0  0  0  0  0  2 V2000
  153.2181  140.6846  159.9811 C   0  0  0  0  0  0  0  0  0  0  0  0
  152.6675  142.0967  160.0977 C   0  0  0  0  0  0  0  0  0  0  0  0
  152.6537  142.7349  161.2848 C   0  0  0  0  0  0  0  0  0  0  0  0
  152.1852  144.1638  161.4958 C   0  0  0  0  0  0  0  0  0  0  0  0
  151.5421  144.7801  160.2426 C   0  0  0  0  0  0  0  0  0  0  0  0
  152.2557  144.3209  158.9588 C   0  0  2  0  0  0  0  0  0  0  0  0
  151.7804  145.1030  157.7223 C   0  0  0  0  0  0  0  0  0  0  0  0
  152.1884  142.7748  158.8065 C   0  0  2  0  0  0  0  0  0  0  0  0
  150.7904  142.2734  158.3563 C   0  0  0  0  0  0  0  0  0  0  0  0
  150.5380  142.4819  156.9172 N   0  3  0  0  0  0  0  0  0  0  0  0
  149.8188  141.3729  156.2614 C   0  0  0  0  0  0  0  0  0  0  0  0
  149.4664  141.7294  154.8100 C   0  0  0  0  0  0  0  0  0  0  0  0
  148.5101  140.7786  154.1555 C   0  0  0  0  0  0  0  0  0  0  0  0
  147.2934  140.9961  153.5676 C   0  0  0  0  0  0  0  0  0  0  0  0
  146.8810  139.7081  153.1291 C   0  0  0  0  0  0  0  0  0  0  0  0
  147.7634  138.7690  153.4187 N   0  0  0  0  0  0  0  0  0  0  0  0
  148.7635  139.4208  154.0478 N   0  0  0  0  0  0  0  0  0  0  0  0
  149.9076  138.6525  154.5021 C   0  0  0  0  0  0  0  0  0  0  0  0
  153.9268  140.6165  159.1554 H   0  0  0  0  0  0  0  0  0  0  0  0
  152.4248  139.9561  159.8224 H   0  0  0  0  0  0  0  0  0  0  0  0
  153.7439  140.3939  160.8913 H   0  0  0  0  0  0  0  0  0  0  0  0
  153.0265  142.2323  162.1654 H   0  0  0  0  0  0  0  0  0  0  0  0
  151.4875  144.1990  162.3330 H   0  0  0  0  0  0  0  0  0  0  0  0
  153.0559  144.7520  161.7876 H   0  0  0  0  0  0  0  0  0  0  0  0
  150.4884  144.5040  160.1982 H   0  0  0  0  0  0  0  0  0  0  0  0
  151.5634  145.8675  160.3250 H   0  0  0  0  0  0  0  0  0  0  0  0
  153.3105  144.5755  159.0783 H   0  0  0  0  0  0  0  0  0  0  0  0
  150.6999  145.0435  157.5917 H   0  0  0  0  0  0  0  0  0  0  0  0
  152.2542  144.7311  156.8135 H   0  0  0  0  0  0  0  0  0  0  0  0
  152.0339  146.1595  157.8138 H   0  0  0  0  0  0  0  0  0  0  0  0
  152.9021  142.5103  158.0247 H   0  0  0  0  0  0  0  0  0  0  0  0
  150.6759  141.2132  158.5842 H   0  0  0  0  0  0  0  0  0  0  0  0
  150.0038  142.8016  158.8939 H   0  0  0  0  0  0  0  0  0  0  0  0
  149.9975  143.3277  156.8040 H   0  0  0  0  0  0  0  0  0  0  0  0
  150.4425  140.4780  156.2843 H   0  0  0  0  0  0  0  0  0  0  0  0
  148.9122  141.1537  156.8272 H   0  0  0  0  0  0  0  0  0  0  0  0
  149.0411  142.7335  154.7814 H   0  0  0  0  0  0  0  0  0  0  0  0
  150.3847  141.7692  154.2227 H   0  0  0  0  0  0  0  0  0  0  0  0
  146.7709  141.9355  153.4624 H   0  0  0  0  0  0  0  0  0  0  0  0
  145.9742  139.4300  152.6127 H   0  0  0  0  0  0  0  0  0  0  0  0
  150.6405  139.2937  154.9908 H   0  0  0  0  0  0  0  0  0  0  0  0
  150.3830  138.1634  153.6512 H   0  0  0  0  0  0  0  0  0  0  0  0
  149.5802  137.8916  155.2114 H   0  0  0  0  0  0  0  0  0  0  0  0
  151.4281  142.6032  156.4554 H   0  0  0  0  0  0  0  0  0  0  0  0
  1  2  1  0  0  0  0
  1 19  1  0  0  0  0
  1 20  1  0  0  0  0
  1 21  1  0  0  0  0
  2  8  1  0  0  0  0
  2  3  2  0  0  0  0
  3  4  1  0  0  0  0
  3 22  1  0  0  0  0
  4  5  1  0  0  0  0
  4 23  1  0  0  0  0
  4 24  1  0  0  0  0
  5  6  1  0  0  0  0
  5 25  1  0  0  0  0
  5 26  1  0  0  0  0
  6  7  1  0  0  0  0
  6  8  1  0  0  0  0
  6 27  1  0  0  0  0
  7 28  1  0  0  0  0
  7 29  1  0  0  0  0
  7 30  1  0  0  0  0
  8  9  1  0  0  0  0
  8 31  1  0  0  0  0
  9 10  1  0  0  0  0
  9 32  1  0  0  0  0
  9 33  1  0  0  0  0
 10 11  1  0  0  0  0
 10 34  1  0  0  0  0
 10 44  1  0  0  0  0
 11 12  1  0  0  0  0
 11 35  1  0  0  0  0
 11 36  1  0  0  0  0
 12 13  1  0  0  0  0
 12 37  1  0  0  0  0
 12 38  1  0  0  0  0
 13 17  1  0  0  0  0
 13 14  2  0  0  0  0
 14 15  1  0  0  0  0
 14 39  1  0  0  0  0
 15 16  2  0  0  0  0
 15 40  1  0  0  0  0
 16 17  1  0  0  0  0
 17 18  1  0  0  0  0
 18 41  1  0  0  0  0
 18 42  1  0  0  0  0
 18 43  1  0  0  0  0
M  CHG  1  10   1
M  END
> <s_m_source_file>
AV-unprocessed.smi

> <i_m_source_file_index>
3283

> <i_lp_mmshare_version>
43012

> <i_f3d_flags>
0

> <s_epik_input>
W0NIM11DMT1bQ0hdW0NIMl1bQ0gyXVtDQEBIXShbQ0gzXSlbQ0BIXTFbQ0gyXVtOSF1bQ0gyXVtDSDJdYzJbY0hdW2NIXW5uMltDSDNd

> <s_epik_cmdline>
J2VwaWtfcHl0aG9uJywgJy1waCcsICc3LjAnLCAnLXRuJywgJzgnLCAnLW1hJywgJzIwMCcsICctbWV0YWxfYmluZGluZycsICctaW1hZScsICc8aW5maWxlLm1hZT4nLCAnLW9tYWUnLCAnPG91dGZpbGUubWFlPic=

> <r_lp_tautomer_probability>
1

> <r_epik_Ionization_Penalty>
0.000866911

> <r_epik_Ionization_Penalty_Charging>
0.000836385

> <r_epik_Ionization_Penalty_Neutral>
3.05258e-05

> <r_epik_State_Penalty>
-0

> <r_epik_Charging_Adjusted_Penalty>
0.000836385

> <i_epik_Tot_Q>
1

> <i_epik_Tot_abs_Q>
1

> <r_epik_Metal_State_Penalty>
-0

> <b_epik_Metal_Only>
0

> <s_lp_Force_Field>
OPLS_2005

> <r_lp_Energy>
12.7435

> <b_lp_Chiralities_Consistent>
1

> <s_lp_Variant>
AV-unprocessed.smi:3283-4

> <Gold.Version>
5.8.1

> <Gold.Id.Protein>
6NUR|6NUR_protein|mol2

> <Gold.PLP.Fitness>
54.4875

> <Gold.PLP.PLP>
-46.4767

> <Gold.PLP.part.hbond>
-1.0000

> <Gold.PLP.part.metal>
0.0000

> <Gold.PLP.part.buried>
-2.9205

> <Gold.PLP.part.nonpolar>
-41.9005

> <Gold.PLP.part.repulsive>
0.2611

> <Gold.PLP.ligand.clash>
0.0000

> <Gold.PLP.ligand.torsion>
0.5105

> <Gold.PLP.Chemscore.Hbond>
2.0000

> <Gold.PLP.Chemscore.CHOScore>
1.0000

> <Gold.PLP.Chemscore.Metal>
0.0000

> <Gold.Chemscore.Hbonds>
donor molecule, donor type, donor heavy atom, donor atom, acceptor molecule, acceptor atom, score
      L1  H    10    34       P1  8028  1.59
      L1  C    15    40       P1 10175  1.00

> <Gold.PLP.Chemscore.Internal.Correction>
0.0318

> <Gold.Rescore>
     Score         DG    S(hbond)    S(metal)    S(lipo)     H(rot)  DE(clash)    DE(int)     intcor
     19.46     -21.54       0.94        0.00     142.94       1.48       1.35       0.72       ----

> <Gold.Chemscore.Fitness>
19.4637

> <Gold.Chemscore.DG>
-21.5379

> <Gold.Chemscore.ZeroCoef>
-5.4800

> <Gold.Chemscore.Hbond>
0.9384

> <Gold.Chemscore.Metal>
0.0000

> <Gold.Chemscore.Lipo>
142.9432

> <Gold.Chemscore.Internal_Hbond>
0.0000

> <Gold.Chemscore.DEClash>
1.3519

> <Gold.Chemscore.DEInternal>
0.7223

> <Gold.Chemscore.Rot>
1.4847

> <Gold.Chemscore.Internal.Correction>
   9.000000E+99

> <Gold.Chemscore.Hbonds>
donor molecule, donor type, donor heavy atom, donor atom, acceptor molecule, acceptor atom, score
      L1  H    10    34       P1  8028  0.77

> <Gold.Chemscore.Hbond.Weighted>
-3.1344

> <Gold.Chemscore.Metal.Weighted>
-0.0000

> <Gold.Chemscore.Lipo.Weighted>
-16.7244

> <Gold.Chemscore.Internal_Hbond.Weighted>
0.0000

> <Gold.Chemscore.DEClash.Weighted>
1.3519

> <Gold.Chemscore.DEInternal.Weighted>
0.7223

> <Gold.Chemscore.Rot.Weighted>
3.8008

> <Gold.Chemscore.Internal.Correction.Weighted>
   9.000000E+99

> <Gold.Protein.RotatedTorsions>
[ 6907 6896 6895 6894 ] final   94.60 input  -60.11 | X-H torsion
[ 7974 7965 7964 7962 ] final    8.06 input  175.53 | X-H torsion
[ 8008 7997 7996 7995 ] final   27.76 input   59.86 | X-H torsion
[ 10167 10162 10161 10158 ] final  165.38 input  -65.29 | X-H torsion
[ 10718 10713 10712 10709 ] final  -95.94 input   66.30 | X-H torsion
[ 10763 10752 10751 10750 ] final  -60.61 input  -60.55 | X-H torsion
[ 11005 11000 10999 10996 ] final   84.58 input  -57.11 | X-H torsion

> <Gold.Protein.ActiveResidues>
 VAL166  LYS551  ARG553  GLY616  TRP617  ASP618  TYR619  PRO620  LYS621  CYS622 
 ASP623  PHE694  ASN695  SER759  ASP760  ASP761  ALA762  ILE779  LEU786  VAL792 
 PHE793  MET794  SER795  GLU796  ALA797  LYS798  CYS799  TRP800  GLU811  SER814 

> <Gold.Protein.RotatedAtoms>
  152.5448  134.1169  159.8382 H   0  0  0  0  0  0  0  0  0  0  0  0  # atno 6907 bound_to 6896
  151.1229  133.5084  159.2609 H   0  0  0  0  0  0  0  0  0  0  0  0  # atno 6908 bound_to 6896
  151.1759  135.0349  159.8826 H   0  0  0  0  0  0  0  0  0  0  0  0  # atno 6909 bound_to 6896
  146.2420  139.9989  142.8418 H   0  0  0  0  0  0  0  0  0  0  0  0  # atno 7974 bound_to 7965
  155.0480  140.3176  155.4701 H   0  0  0  0  0  0  0  0  0  0  0  0  # atno 8008 bound_to 7997
  156.2840  140.2151  156.5549 H   0  0  0  0  0  0  0  0  0  0  0  0  # atno 8009 bound_to 7997
  154.7234  140.0487  157.0648 H   0  0  0  0  0  0  0  0  0  0  0  0  # atno 8010 bound_to 7997
  139.4905  144.4137  151.9268 H   0  0  0  0  0  0  0  0  0  0  0  0  # atno 10167 bound_to 10162
  156.0052  130.5130  150.6151 H   0  0  0  0  0  0  0  0  0  0  0  0  # atno 10718 bound_to 10713
  154.2719  135.6288  153.5313 H   0  0  0  0  0  0  0  0  0  0  0  0  # atno 10763 bound_to 10752
  152.9879  135.5612  154.5590 H   0  0  0  0  0  0  0  0  0  0  0  0  # atno 10764 bound_to 10752
  154.5162  135.2880  155.1276 H   0  0  0  0  0  0  0  0  0  0  0  0  # atno 10765 bound_to 10752
  139.8996  134.8227  156.2465 H   0  0  0  0  0  0  0  0  0  0  0  0  # atno 11005 bound_to 11000
  145.1433  140.9583  143.4475 LP  0  0  0  0  0  0  0  0  0  0  0  0  # atno 17320 bound_to 7965
  145.0274  139.3370  143.6041 LP  0  0  0  0  0  0  0  0  0  0  0  0  # atno 17321 bound_to 7965
  140.3579  144.3008  150.5938 LP  0  0  0  0  0  0  0  0  0  0  0  0  # atno 17342 bound_to 10162
  140.5428  143.2220  151.8057 LP  0  0  0  0  0  0  0  0  0  0  0  0  # atno 17343 bound_to 10162
  157.3977  131.0805  151.1337 LP  0  0  0  0  0  0  0  0  0  0  0  0  # atno 17370 bound_to 10713
  157.2008  130.6394  149.5738 LP  0  0  0  0  0  0  0  0  0  0  0  0  # atno 17371 bound_to 10713
  141.0251  133.7019  156.1334 LP  0  0  0  0  0  0  0  0  0  0  0  0  # atno 17394 bound_to 11000
  140.7177  134.4392  157.5577 LP  0  0  0  0  0  0  0  0  0  0  0  0  # atno 17395 bound_to 11000

$$$$
