AV-unprocessed.smi:3040|AV-procd|sdf|11595|dock3
  -GOLD-   2272016573D 1   1.00000     0.00000
 Structure written by MMmdl.
 39 40  0  0  0  0  0  0  0  0  1 V2000
  154.1426  141.0758  161.4573 C   0  0  0  0  0  0  0  0  0  0  0  0
  153.4110  142.2282  160.9286 N   0  0  0  0  0  0  0  0  0  0  0  0
  153.2566  142.2437  159.4689 C   0  0  0  0  0  0  0  0  0  0  0  0
  152.9495  143.6404  158.9126 C   0  0  0  0  0  0  0  0  0  0  0  0
  151.8086  144.3182  159.6852 C   0  0  1  0  0  0  0  0  0  0  0  0
  150.4409  143.6852  159.3773 C   0  0  0  0  0  0  0  0  0  0  0  0
  149.4804  143.8840  160.1222 O   0  0  0  0  0  0  0  0  0  0  0  0
  150.3751  142.9055  158.2857 N   0  0  0  0  0  0  0  0  0  0  0  0
  149.2183  142.1071  157.8841 C   0  0  0  0  0  0  0  0  0  0  0  0
  149.3506  141.5803  156.4411 C   0  0  0  0  0  0  0  0  0  0  0  0
  150.5489  140.6876  156.2476 C   0  0  0  0  0  0  0  0  0  0  0  0
  151.5787  140.3866  157.1844 C   0  0  0  0  0  0  0  0  0  0  0  0
  152.5136  139.5950  156.6847 N   0  0  0  0  0  0  0  0  0  0  0  0
  152.1142  139.3616  155.4181 N   0  0  0  0  0  0  0  0  0  0  0  0
  152.9244  138.5282  154.5561 C   0  0  0  0  0  0  0  0  0  0  0  0
  150.9271  139.9987  155.1296 C   0  0  0  0  0  0  0  0  0  0  0  0
  152.1137  144.3620  161.2006 C   0  0  0  0  0  0  0  0  0  0  0  0
  152.8908  143.1572  161.7674 C   0  0  0  0  0  0  0  0  0  0  0  0
  153.0268  143.0880  162.9893 O   0  0  0  0  0  0  0  0  0  0  0  0
  153.5756  140.5794  162.2465 H   0  0  0  0  0  0  0  0  0  0  0  0
  155.1005  141.3924  161.8717 H   0  0  0  0  0  0  0  0  0  0  0  0
  154.3420  140.3280  160.6887 H   0  0  0  0  0  0  0  0  0  0  0  0
  154.1626  141.8678  158.9916 H   0  0  0  0  0  0  0  0  0  0  0  0
  152.4597  141.5481  159.2045 H   0  0  0  0  0  0  0  0  0  0  0  0
  153.8445  144.2600  158.9834 H   0  0  0  0  0  0  0  0  0  0  0  0
  152.7127  143.5745  157.8501 H   0  0  0  0  0  0  0  0  0  0  0  0
  151.7542  145.3527  159.3418 H   0  0  0  0  0  0  0  0  0  0  0  0
  151.2095  142.8079  157.7256 H   0  0  0  0  0  0  0  0  0  0  0  0
  149.0691  141.2723  158.5711 H   0  0  0  0  0  0  0  0  0  0  0  0
  148.3263  142.7283  157.9674 H   0  0  0  0  0  0  0  0  0  0  0  0
  148.4351  141.0517  156.1742 H   0  0  0  0  0  0  0  0  0  0  0  0
  149.4017  142.4316  155.7615 H   0  0  0  0  0  0  0  0  0  0  0  0
  151.6806  140.7317  158.2026 H   0  0  0  0  0  0  0  0  0  0  0  0
  152.5555  138.5815  153.5314 H   0  0  0  0  0  0  0  0  0  0  0  0
  152.8798  137.4937  154.8974 H   0  0  0  0  0  0  0  0  0  0  0  0
  153.9601  138.8696  154.5765 H   0  0  0  0  0  0  0  0  0  0  0  0
  150.4628  139.9254  154.1573 H   0  0  0  0  0  0  0  0  0  0  0  0
  152.7176  145.2465  161.4063 H   0  0  0  0  0  0  0  0  0  0  0  0
  151.1973  144.4941  161.7787 H   0  0  0  0  0  0  0  0  0  0  0  0
  1  2  1  0  0  0  0
  1 20  1  0  0  0  0
  1 21  1  0  0  0  0
  1 22  1  0  0  0  0
  2 18  1  0  0  0  0
  2  3  1  0  0  0  0
  3  4  1  0  0  0  0
  3 23  1  0  0  0  0
  3 24  1  0  0  0  0
  4  5  1  0  0  0  0
  4 25  1  0  0  0  0
  4 26  1  0  0  0  0
  5  6  1  0  0  0  0
  5 17  1  0  0  0  0
  5 27  1  0  0  0  0
  6  7  2  0  0  0  0
  6  8  1  0  0  0  0
  8  9  1  0  0  0  0
  8 28  1  0  0  0  0
  9 10  1  0  0  0  0
  9 29  1  0  0  0  0
  9 30  1  0  0  0  0
 10 11  1  0  0  0  0
 10 31  1  0  0  0  0
 10 32  1  0  0  0  0
 11 16  2  0  0  0  0
 11 12  1  0  0  0  0
 12 13  2  0  0  0  0
 12 33  1  0  0  0  0
 13 14  1  0  0  0  0
 14 15  1  0  0  0  0
 14 16  1  0  0  0  0
 15 34  1  0  0  0  0
 15 35  1  0  0  0  0
 15 36  1  0  0  0  0
 16 37  1  0  0  0  0
 17 18  1  0  0  0  0
 17 38  1  0  0  0  0
 17 39  1  0  0  0  0
 18 19  2  0  0  0  0
M  END
> <s_m_source_file>
AV-unprocessed.smi

> <i_m_source_file_index>
3040

> <i_lp_mmshare_version>
43012

> <i_f3d_flags>
0

> <s_epik_input>
W0NIM11OMVtDSDJdW0NIMl1bQ0BIXShbQ0gyXUMxPU8pQyg9TylbTkhdW0NIMl1bQ0gyXWMyW2NIXW5uKFtDSDNdKVtjSF0y

> <s_epik_cmdline>
J2VwaWtfcHl0aG9uJywgJy1waCcsICc3LjAnLCAnLXRuJywgJzgnLCAnLW1hJywgJzIwMCcsICctbWV0YWxfYmluZGluZycsICctaW1hZScsICc8aW5maWxlLm1hZT4nLCAnLW9tYWUnLCAnPG91dGZpbGUubWFlPic=

> <r_lp_tautomer_probability>
1

> <r_epik_Ionization_Penalty>
0.000456436

> <r_epik_Ionization_Penalty_Charging>
0

> <r_epik_Ionization_Penalty_Neutral>
0.000456436

> <r_epik_State_Penalty>
-0

> <r_epik_Charging_Adjusted_Penalty>
0

> <i_epik_Tot_Q>
0

> <i_epik_Tot_abs_Q>
0

> <r_epik_Metal_State_Penalty>
-0

> <b_epik_Metal_Only>
0

> <s_lp_Force_Field>
OPLS_2005

> <r_lp_Energy>
8.58968

> <b_lp_Chiralities_Consistent>
1

> <s_lp_Variant>
AV-unprocessed.smi:3040-1

> <Gold.Version>
5.8.1

> <Gold.Id.Protein>
6NUR|6NUR_protein|mol2

> <Gold.PLP.Fitness>
47.9984

> <Gold.PLP.PLP>
-45.6062

> <Gold.PLP.part.hbond>
-2.0000

> <Gold.PLP.part.metal>
0.0000

> <Gold.PLP.part.buried>
-5.2187

> <Gold.PLP.part.nonpolar>
-39.8926

> <Gold.PLP.part.repulsive>
0.3564

> <Gold.PLP.ligand.clash>
0.0113

> <Gold.PLP.ligand.torsion>
0.6296

> <Gold.PLP.Chemscore.Hbond>
1.2059

> <Gold.PLP.Chemscore.CHOScore>
0.0000

> <Gold.PLP.Chemscore.Metal>
0.0000

> <Gold.Chemscore.Hbonds>
donor molecule, donor type, donor heavy atom, donor atom, acceptor molecule, acceptor atom, score
      P1  H  6933  6944       L1     7  0.20
      P1  H  7997  8009       L1    13  1.00

> <Gold.PLP.Chemscore.Internal.Correction>
0.0450

> <Gold.Rescore>
     Score         DG    S(hbond)    S(metal)    S(lipo)     H(rot)  DE(clash)    DE(int)     intcor
     14.47     -16.42       1.22        0.00      94.91       1.65       0.05       1.90       ----

> <Gold.Chemscore.Fitness>
14.4661

> <Gold.Chemscore.DG>
-16.4242

> <Gold.Chemscore.ZeroCoef>
-5.4800

> <Gold.Chemscore.Hbond>
1.2195

> <Gold.Chemscore.Metal>
0.0000

> <Gold.Chemscore.Lipo>
94.9095

> <Gold.Chemscore.Internal_Hbond>
0.0000

> <Gold.Chemscore.DEClash>
0.0536

> <Gold.Chemscore.DEInternal>
1.9045

> <Gold.Chemscore.Rot>
1.6536

> <Gold.Chemscore.Internal.Correction>
   9.000000E+99

> <Gold.Chemscore.Hbonds>
donor molecule, donor type, donor heavy atom, donor atom, acceptor molecule, acceptor atom, score
      P1  H  6933  6944       L1     7  0.21
      P1  H  7997  8009       L1    13  0.74

> <Gold.Chemscore.Hbond.Weighted>
-4.0730

> <Gold.Chemscore.Metal.Weighted>
-0.0000

> <Gold.Chemscore.Lipo.Weighted>
-11.1044

> <Gold.Chemscore.Internal_Hbond.Weighted>
0.0000

> <Gold.Chemscore.DEClash.Weighted>
0.0536

> <Gold.Chemscore.DEInternal.Weighted>
1.9045

> <Gold.Chemscore.Rot.Weighted>
4.2332

> <Gold.Chemscore.Internal.Correction.Weighted>
   9.000000E+99

> <Gold.Protein.RotatedTorsions>
[ 6907 6896 6895 6894 ] final  169.71 input  -60.11 | X-H torsion
[ 7974 7965 7964 7962 ] final -161.30 input  175.53 | X-H torsion
[ 8008 7997 7996 7995 ] final  170.87 input   59.86 | X-H torsion
[ 10167 10162 10161 10158 ] final  -15.38 input  -65.29 | X-H torsion
[ 10718 10713 10712 10709 ] final   95.65 input   66.30 | X-H torsion
[ 10763 10752 10751 10750 ] final -129.91 input  -60.55 | X-H torsion
[ 11005 11000 10999 10996 ] final  -94.19 input  -57.11 | X-H torsion

> <Gold.Protein.ActiveResidues>
 VAL166  LYS551  ARG553  GLY616  TRP617  ASP618  TYR619  PRO620  LYS621  CYS622 
 ASP623  PHE694  ASN695  SER759  ASP760  ASP761  ALA762  ILE779  LEU786  VAL792 
 PHE793  MET794  SER795  GLU796  ALA797  LYS798  CYS799  TRP800  GLU811  SER814 

> <Gold.Protein.RotatedAtoms>
  151.8276  133.3403  159.3603 H   0  0  0  0  0  0  0  0  0  0  0  0  # atno 6907 bound_to 6896
  150.7274  134.5514  159.5806 H   0  0  0  0  0  0  0  0  0  0  0  0  # atno 6908 bound_to 6896
  152.2960  134.7667  160.0419 H   0  0  0  0  0  0  0  0  0  0  0  0  # atno 6909 bound_to 6896
  144.7396  140.3418  143.6133 H   0  0  0  0  0  0  0  0  0  0  0  0  # atno 7974 bound_to 7965
  156.1325  140.1526  156.9044 H   0  0  0  0  0  0  0  0  0  0  0  0  # atno 8008 bound_to 7997
  154.4920  140.0848  156.7655 H   0  0  0  0  0  0  0  0  0  0  0  0  # atno 8009 bound_to 7997
  155.4230  140.3424  155.4275 H   0  0  0  0  0  0  0  0  0  0  0  0  # atno 8010 bound_to 7997
  140.7217  143.5224  150.9617 H   0  0  0  0  0  0  0  0  0  0  0  0  # atno 10167 bound_to 10162
  157.6936  131.0552  150.4371 H   0  0  0  0  0  0  0  0  0  0  0  0  # atno 10718 bound_to 10713
  154.8757  135.3880  154.3997 H   0  0  0  0  0  0  0  0  0  0  0  0  # atno 10763 bound_to 10752
  153.4723  135.7030  153.5991 H   0  0  0  0  0  0  0  0  0  0  0  0  # atno 10764 bound_to 10752
  153.4443  135.3849  155.2214 H   0  0  0  0  0  0  0  0  0  0  0  0  # atno 10765 bound_to 10752
  141.1477  133.7939  157.0264 H   0  0  0  0  0  0  0  0  0  0  0  0  # atno 11005 bound_to 11000
  145.7367  139.1752  143.2399 LP  0  0  0  0  0  0  0  0  0  0  0  0  # atno 17320 bound_to 7965
  146.1165  140.7363  142.9478 LP  0  0  0  0  0  0  0  0  0  0  0  0  # atno 17321 bound_to 7965
  139.8942  143.6916  152.3141 LP  0  0  0  0  0  0  0  0  0  0  0  0  # atno 17342 bound_to 10162
  139.7242  144.7596  151.0905 LP  0  0  0  0  0  0  0  0  0  0  0  0  # atno 17343 bound_to 10162
  156.4733  130.4057  149.6505 LP  0  0  0  0  0  0  0  0  0  0  0  0  # atno 17370 bound_to 10713
  156.3578  130.7465  151.2433 LP  0  0  0  0  0  0  0  0  0  0  0  0  # atno 17371 bound_to 10713
  140.0782  134.9663  157.1581 LP  0  0  0  0  0  0  0  0  0  0  0  0  # atno 17394 bound_to 11000
  140.3613  134.2491  155.7187 LP  0  0  0  0  0  0  0  0  0  0  0  0  # atno 17395 bound_to 11000

$$$$
