AV-unprocessed.smi:576|AV-procd|sdf|2979|dock2
  -GOLD-   2262023483D 1   1.00000     0.00000
 Structure written by MMmdl.
 35 36  0  0  0  0  0  0  0  0  1 V2000
  152.8891  139.0002  154.6986 C   0  0  0  0  0  0  0  0  0  0  0  0
  151.7082  138.1794  155.2356 C   0  0  1  0  0  0  0  0  0  0  0  0
  151.4568  138.5725  156.6182 N   0  0  0  0  0  0  0  0  0  0  0  0
  152.3970  138.7703  157.5547 C   0  0  0  0  0  0  0  0  0  0  0  0
  153.6044  138.6670  157.3339 O   0  0  0  0  0  0  0  0  0  0  0  0
  151.8861  139.1630  158.9480 C   0  0  0  0  0  0  0  0  0  0  0  0
  152.4428  140.4384  159.4296 N   0  0  0  0  0  0  0  0  0  0  0  0
  151.8351  141.6217  158.9656 C   0  0  0  0  0  0  0  0  0  0  0  0
  152.2610  142.8505  159.3159 C   0  0  0  0  0  0  0  0  0  0  0  0
  151.5520  144.1081  158.8375 C   0  0  0  0  0  0  0  0  0  0  0  0
  151.5693  144.1938  157.5072 F   0  0  0  0  0  0  0  0  0  0  0  0
  150.2810  144.0912  159.2364 F   0  0  0  0  0  0  0  0  0  0  0  0
  152.1282  145.2030  159.3349 F   0  0  0  0  0  0  0  0  0  0  0  0
  153.3764  142.9077  160.2405 C   0  0  0  0  0  0  0  0  0  0  0  0
  153.9652  141.7855  160.6988 C   0  0  0  0  0  0  0  0  0  0  0  0
  153.5064  140.4564  160.2882 C   0  0  0  0  0  0  0  0  0  0  0  0
  154.0430  139.4243  160.6919 O   0  0  0  0  0  0  0  0  0  0  0  0
  150.4923  138.3277  154.3361 C   0  0  0  0  0  0  0  0  0  0  0  0
  149.6486  139.5808  154.3507 C   0  0  0  0  0  0  0  0  0  0  0  0
  149.0945  138.2894  154.9071 C   0  0  0  0  0  0  0  0  0  0  0  0
  153.1461  138.6998  153.6825 H   0  0  0  0  0  0  0  0  0  0  0  0
  153.7782  138.8625  155.3150 H   0  0  0  0  0  0  0  0  0  0  0  0
  152.6566  140.0657  154.6806 H   0  0  0  0  0  0  0  0  0  0  0  0
  152.0116  137.1305  155.2233 H   0  0  0  0  0  0  0  0  0  0  0  0
  150.4904  138.6872  156.8880 H   0  0  0  0  0  0  0  0  0  0  0  0
  150.7969  139.2081  158.9084 H   0  0  0  0  0  0  0  0  0  0  0  0
  152.1123  138.3655  159.6586 H   0  0  0  0  0  0  0  0  0  0  0  0
  150.9997  141.4666  158.2984 H   0  0  0  0  0  0  0  0  0  0  0  0
  153.7503  143.8664  160.5682 H   0  0  0  0  0  0  0  0  0  0  0  0
  154.7958  141.8656  161.3846 H   0  0  0  0  0  0  0  0  0  0  0  0
  150.6114  137.8493  153.3653 H   0  0  0  0  0  0  0  0  0  0  0  0
  149.9068  140.3616  155.0633 H   0  0  0  0  0  0  0  0  0  0  0  0
  149.2552  139.9306  153.3983 H   0  0  0  0  0  0  0  0  0  0  0  0
  148.3293  137.7778  154.3268 H   0  0  0  0  0  0  0  0  0  0  0  0
  148.9891  138.2143  155.9877 H   0  0  0  0  0  0  0  0  0  0  0  0
  1  2  1  0  0  0  0
  1 21  1  0  0  0  0
  1 22  1  0  0  0  0
  1 23  1  0  0  0  0
  2  3  1  0  0  0  0
  2 18  1  0  0  0  0
  2 24  1  0  0  0  0
  3  4  1  0  0  0  0
  3 25  1  0  0  0  0
  4  5  2  0  0  0  0
  4  6  1  0  0  0  0
  6  7  1  0  0  0  0
  6 26  1  0  0  0  0
  6 27  1  0  0  0  0
  7 16  1  0  0  0  0
  7  8  1  0  0  0  0
  8  9  2  0  0  0  0
  8 28  1  0  0  0  0
  9 10  1  0  0  0  0
  9 14  1  0  0  0  0
 10 11  1  0  0  0  0
 10 12  1  0  0  0  0
 10 13  1  0  0  0  0
 14 15  2  0  0  0  0
 14 29  1  0  0  0  0
 15 16  1  0  0  0  0
 15 30  1  0  0  0  0
 16 17  2  0  0  0  0
 18 20  1  0  0  0  0
 18 19  1  0  0  0  0
 18 31  1  0  0  0  0
 19 20  1  0  0  0  0
 19 32  1  0  0  0  0
 19 33  1  0  0  0  0
 20 34  1  0  0  0  0
 20 35  1  0  0  0  0
M  END
> <s_m_source_file>
AV-unprocessed.smi

> <i_m_source_file_index>
576

> <i_lp_mmshare_version>
43012

> <i_f3d_flags>
0

> <s_epik_input>
W0NIMl0xW0NIMl1bQ0hdMVtDQEhdKFtDSDNdKVtOSF1DKD1PKVtDSDJdbjJbY0hdYyhDKEYpKEYpRilbY0hdW2NIXWMyPU8=

> <s_epik_cmdline>
J2VwaWtfcHl0aG9uJywgJy1waCcsICc3LjAnLCAnLXRuJywgJzgnLCAnLW1hJywgJzIwMCcsICctbWV0YWxfYmluZGluZycsICctaW1hZScsICc8aW5maWxlLm1hZT4nLCAnLW9tYWUnLCAnPG91dGZpbGUubWFlPic=

> <r_lp_tautomer_probability>
1

> <r_epik_Ionization_Penalty>
3.84201e-08

> <r_epik_Ionization_Penalty_Charging>
1.91184e-08

> <r_epik_Ionization_Penalty_Neutral>
1.93017e-08

> <r_epik_State_Penalty>
-0

> <r_epik_Charging_Adjusted_Penalty>
1.91184e-08

> <i_epik_Tot_Q>
0

> <i_epik_Tot_abs_Q>
0

> <r_epik_Metal_State_Penalty>
-0

> <b_epik_Metal_Only>
0

> <s_lp_Force_Field>
OPLS_2005

> <r_lp_Energy>
24.3329

> <b_lp_Chiralities_Consistent>
1

> <s_lp_Variant>
AV-unprocessed.smi:576-2

> <Gold.Version>
5.8.1

> <Gold.Id.Protein>
6NUR|6NUR_protein|mol2

> <Gold.PLP.Fitness>
49.2415

> <Gold.PLP.PLP>
-47.3010

> <Gold.PLP.part.hbond>
-1.0000

> <Gold.PLP.part.metal>
0.0000

> <Gold.PLP.part.buried>
-5.0670

> <Gold.PLP.part.nonpolar>
-41.7648

> <Gold.PLP.part.repulsive>
0.0564

> <Gold.PLP.ligand.clash>
0.0000

> <Gold.PLP.ligand.torsion>
1.0690

> <Gold.PLP.Chemscore.Hbond>
0.9760

> <Gold.PLP.Chemscore.CHOScore>
0.0000

> <Gold.PLP.Chemscore.Metal>
0.0000

> <Gold.Chemscore.Hbonds>
donor molecule, donor type, donor heavy atom, donor atom, acceptor molecule, acceptor atom, score
      P1  H  7997  8008       L1     5  0.98

> <Gold.PLP.Chemscore.Internal.Correction>
1.1505

> <Gold.Rescore>
     Score         DG    S(hbond)    S(metal)    S(lipo)     H(rot)  DE(clash)    DE(int)     intcor
     13.19     -15.30       0.98        0.00      94.61       1.77       0.04       2.07       ----

> <Gold.Chemscore.Fitness>
13.1870

> <Gold.Chemscore.DG>
-15.2961

> <Gold.Chemscore.ZeroCoef>
-5.4800

> <Gold.Chemscore.Hbond>
0.9779

> <Gold.Chemscore.Metal>
0.0000

> <Gold.Chemscore.Lipo>
94.6088

> <Gold.Chemscore.Internal_Hbond>
0.0000

> <Gold.Chemscore.DEClash>
0.0424

> <Gold.Chemscore.DEInternal>
2.0667

> <Gold.Chemscore.Rot>
1.7653

> <Gold.Chemscore.Internal.Correction>
   9.000000E+99

> <Gold.Chemscore.Hbonds>
donor molecule, donor type, donor heavy atom, donor atom, acceptor molecule, acceptor atom, score
      P1  H  7997  8008       L1     5  0.93

> <Gold.Chemscore.Hbond.Weighted>
-3.2660

> <Gold.Chemscore.Metal.Weighted>
-0.0000

> <Gold.Chemscore.Lipo.Weighted>
-11.0692

> <Gold.Chemscore.Internal_Hbond.Weighted>
0.0000

> <Gold.Chemscore.DEClash.Weighted>
0.0424

> <Gold.Chemscore.DEInternal.Weighted>
2.0667

> <Gold.Chemscore.Rot.Weighted>
4.5191

> <Gold.Chemscore.Internal.Correction.Weighted>
   9.000000E+99

> <Gold.Protein.RotatedTorsions>
[ 6907 6896 6895 6894 ] final    2.72 input  -60.11 | X-H torsion
[ 7974 7965 7964 7962 ] final   94.12 input  175.53 | X-H torsion
[ 8008 7997 7996 7995 ] final  -89.26 input   59.86 | X-H torsion
[ 10167 10162 10161 10158 ] final -104.14 input  -65.29 | X-H torsion
[ 10718 10713 10712 10709 ] final  -73.93 input   66.30 | X-H torsion
[ 10763 10752 10751 10750 ] final -147.24 input  -60.55 | X-H torsion
[ 11005 11000 10999 10996 ] final  179.14 input  -57.11 | X-H torsion

> <Gold.Protein.ActiveResidues>
 VAL166  LYS551  ARG553  GLY616  TRP617  ASP618  TYR619  PRO620  LYS621  CYS622 
 ASP623  PHE694  ASN695  SER759  ASP760  ASP761  ALA762  ILE779  LEU786  VAL792 
 PHE793  MET794  SER795  GLU796  ALA797  LYS798  CYS799  TRP800  GLU811  SER814 

> <Gold.Protein.RotatedAtoms>
  151.6135  135.1038  160.0085 H   0  0  0  0  0  0  0  0  0  0  0  0  # atno 6907 bound_to 6896
  152.4196  133.7090  159.6478 H   0  0  0  0  0  0  0  0  0  0  0  0  # atno 6908 bound_to 6896
  150.8083  133.8395  159.3216 H   0  0  0  0  0  0  0  0  0  0  0  0  # atno 6909 bound_to 6896
  145.4698  139.2282  143.2941 H   0  0  0  0  0  0  0  0  0  0  0  0  # atno 7974 bound_to 7965
  154.6844  140.0544  157.0299 H   0  0  0  0  0  0  0  0  0  0  0  0  # atno 8008 bound_to 7997
  155.0905  140.3219  155.4556 H   0  0  0  0  0  0  0  0  0  0  0  0  # atno 8009 bound_to 7997
  156.2706  140.2049  156.6032 H   0  0  0  0  0  0  0  0  0  0  0  0  # atno 8010 bound_to 7997
  140.2125  143.3736  152.1038 H   0  0  0  0  0  0  0  0  0  0  0  0  # atno 10167 bound_to 10162
  156.0261  130.4405  150.2816 H   0  0  0  0  0  0  0  0  0  0  0  0  # atno 10718 bound_to 10713
  154.8296  135.3365  154.6787 H   0  0  0  0  0  0  0  0  0  0  0  0  # atno 10763 bound_to 10752
  153.7408  135.6946  153.4972 H   0  0  0  0  0  0  0  0  0  0  0  0  # atno 10764 bound_to 10752
  153.2245  135.4437  155.0478 H   0  0  0  0  0  0  0  0  0  0  0  0  # atno 10765 bound_to 10752
  140.4029  134.6761  157.4572 H   0  0  0  0  0  0  0  0  0  0  0  0  # atno 11005 bound_to 11000
  146.2403  140.5475  142.8937 LP  0  0  0  0  0  0  0  0  0  0  0  0  # atno 17320 bound_to 7965
  144.7952  140.6109  143.6515 LP  0  0  0  0  0  0  0  0  0  0  0  0  # atno 17321 bound_to 7965
  139.5174  144.6992  151.5543 LP  0  0  0  0  0  0  0  0  0  0  0  0  # atno 17342 bound_to 10162
  140.6313  143.9070  150.6608 LP  0  0  0  0  0  0  0  0  0  0  0  0  # atno 17343 bound_to 10162
  157.0919  131.0172  151.3118 LP  0  0  0  0  0  0  0  0  0  0  0  0  # atno 17370 bound_to 10713
  157.4847  130.7786  149.7448 LP  0  0  0  0  0  0  0  0  0  0  0  0  # atno 17371 bound_to 10713
  140.0323  134.6388  155.9090 LP  0  0  0  0  0  0  0  0  0  0  0  0  # atno 17394 bound_to 11000
  141.1850  133.6554  156.5180 LP  0  0  0  0  0  0  0  0  0  0  0  0  # atno 17395 bound_to 11000

$$$$
