AV-unprocessed.smi:767|AV-procd|sdf|3659|dock3
  -GOLD-   22720 1 63D 1   1.00000     0.00000
 Structure written by MMmdl.
 47 49  0  0  0  0  0  0  0  0  1 V2000
  145.6822  130.5885  151.2656 C   0  0  0  0  0  0  0  0  0  0  0  0
  145.6043  132.0991  151.1924 C   0  0  0  0  0  0  0  0  0  0  0  0
  144.5132  132.7357  150.5645 C   0  0  0  0  0  0  0  0  0  0  0  0
  144.4932  134.1426  150.5209 C   0  0  0  0  0  0  0  0  0  0  0  0
  145.5576  134.8573  151.1078 C   0  0  0  0  0  0  0  0  0  0  0  0
  145.5725  136.3762  151.1039 C   0  0  0  0  0  0  0  0  0  0  0  0
  145.6411  136.9942  152.5149 C   0  0  0  0  0  0  0  0  0  0  0  0
  147.0100  137.1908  152.9816 N   0  0  0  0  0  0  0  0  0  0  0  0
  147.3552  137.5996  154.2098 C   0  0  0  0  0  0  0  0  0  0  0  0
  146.5501  137.8915  155.0942 O   0  0  0  0  0  0  0  0  0  0  0  0
  148.6848  137.6309  154.3619 N   0  0  0  0  0  0  0  0  0  0  0  0
  149.3793  137.9940  155.5979 C   0  0  2  0  0  0  0  0  0  0  0  0
  149.0975  139.4496  156.0351 C   0  0  2  0  0  0  0  0  0  0  0  0
  148.0224  140.3013  155.4049 C   0  0  0  0  0  0  0  0  0  0  0  0
  148.7977  141.1118  154.3618 C   0  0  0  0  0  0  0  0  0  0  0  0
  149.9972  140.3732  154.1394 O   0  0  0  0  0  0  0  0  0  0  0  0
  150.4190  139.8344  155.3905 C   0  0  2  0  0  0  0  0  0  0  0  0
  150.8735  138.3600  155.3820 C   0  0  0  0  0  0  0  0  0  0  0  0
  151.7855  137.9799  156.5520 C   0  0  0  0  0  0  0  0  0  0  0  0
  151.5841  137.8779  154.1103 C   0  0  0  0  0  0  0  0  0  0  0  0
  146.6028  134.1244  151.7077 C   0  0  0  0  0  0  0  0  0  0  0  0
  146.6320  132.7749  151.7524 N   0  0  0  0  0  0  0  0  0  0  0  0
  144.7129  130.1350  151.0569 H   0  0  0  0  0  0  0  0  0  0  0  0
  145.9992  130.2659  152.2579 H   0  0  0  0  0  0  0  0  0  0  0  0
  146.3998  130.2132  150.5358 H   0  0  0  0  0  0  0  0  0  0  0  0
  143.7089  132.1626  150.1271 H   0  0  0  0  0  0  0  0  0  0  0  0
  143.6712  134.6621  150.0513 H   0  0  0  0  0  0  0  0  0  0  0  0
  146.4201  136.7194  150.5099 H   0  0  0  0  0  0  0  0  0  0  0  0
  144.6807  136.7367  150.5898 H   0  0  0  0  0  0  0  0  0  0  0  0
  145.1623  137.9735  152.5039 H   0  0  0  0  0  0  0  0  0  0  0  0
  145.0811  136.3857  153.2266 H   0  0  0  0  0  0  0  0  0  0  0  0
  147.7481  136.9696  152.3296 H   0  0  0  0  0  0  0  0  0  0  0  0
  149.2627  137.3617  153.5791 H   0  0  0  0  0  0  0  0  0  0  0  0
  149.2235  137.2846  156.4129 H   0  0  0  0  0  0  0  0  0  0  0  0
  149.1502  139.5441  157.1209 H   0  0  0  0  0  0  0  0  0  0  0  0
  147.2402  139.7009  154.9409 H   0  0  0  0  0  0  0  0  0  0  0  0
  147.5394  140.9574  156.1297 H   0  0  0  0  0  0  0  0  0  0  0  0
  148.2377  141.2510  153.4370 H   0  0  0  0  0  0  0  0  0  0  0  0
  149.0554  142.0955  154.7569 H   0  0  0  0  0  0  0  0  0  0  0  0
  151.0224  140.5232  155.9835 H   0  0  0  0  0  0  0  0  0  0  0  0
  152.7647  138.4523  156.4678 H   0  0  0  0  0  0  0  0  0  0  0  0
  151.9422  136.9018  156.6022 H   0  0  0  0  0  0  0  0  0  0  0  0
  151.3626  138.2874  157.5090 H   0  0  0  0  0  0  0  0  0  0  0  0
  152.5837  138.3047  154.0239 H   0  0  0  0  0  0  0  0  0  0  0  0
  151.0460  138.1586  153.2048 H   0  0  0  0  0  0  0  0  0  0  0  0
  151.6888  136.7928  154.1013 H   0  0  0  0  0  0  0  0  0  0  0  0
  147.4358  134.6342  152.1690 H   0  0  0  0  0  0  0  0  0  0  0  0
  1  2  1  0  0  0  0
  1 23  1  0  0  0  0
  1 24  1  0  0  0  0
  1 25  1  0  0  0  0
  2 22  1  0  0  0  0
  2  3  2  0  0  0  0
  3  4  1  0  0  0  0
  3 26  1  0  0  0  0
  4  5  2  0  0  0  0
  4 27  1  0  0  0  0
  5  6  1  0  0  0  0
  5 21  1  0  0  0  0
  6  7  1  0  0  0  0
  6 28  1  0  0  0  0
  6 29  1  0  0  0  0
  7  8  1  0  0  0  0
  7 30  1  0  0  0  0
  7 31  1  0  0  0  0
  8  9  1  0  0  0  0
  8 32  1  0  0  0  0
  9 10  2  0  0  0  0
  9 11  1  0  0  0  0
 11 12  1  0  0  0  0
 11 33  1  0  0  0  0
 12 18  1  0  0  0  0
 12 13  1  0  0  0  0
 12 34  1  0  0  0  0
 13 17  1  0  0  0  0
 13 14  1  0  0  0  0
 13 35  1  0  0  0  0
 14 15  1  0  0  0  0
 14 36  1  0  0  0  0
 14 37  1  0  0  0  0
 15 16  1  0  0  0  0
 15 38  1  0  0  0  0
 15 39  1  0  0  0  0
 16 17  1  0  0  0  0
 17 18  1  0  0  0  0
 17 40  1  0  0  0  0
 18 19  1  0  0  0  0
 18 20  1  0  0  0  0
 19 41  1  0  0  0  0
 19 42  1  0  0  0  0
 19 43  1  0  0  0  0
 20 44  1  0  0  0  0
 20 45  1  0  0  0  0
 20 46  1  0  0  0  0
 21 22  2  0  0  0  0
 21 47  1  0  0  0  0
M  END
> <s_m_source_file>
AV-unprocessed.smi

> <i_m_source_file_index>
767

> <i_lp_mmshare_version>
43012

> <i_f3d_flags>
0

> <s_epik_input>
W0NIM11jMVtjSF1bY0hdYyhbY0hdbjEpW0NIMl1bQ0gyXVtOSF1DKD1PKVtOSF1bQ0BIXTJDKFtDSDNdKShbQ0gzXSlbQ0BIXShbQ0BASF0yMylPW0NIMl1bQ0gyXTM=

> <s_epik_cmdline>
J2VwaWtfcHl0aG9uJywgJy1waCcsICc3LjAnLCAnLXRuJywgJzgnLCAnLW1hJywgJzIwMCcsICctbWV0YWxfYmluZGluZycsICctaW1hZScsICc8aW5maWxlLm1hZT4nLCAnLW9tYWUnLCAnPG91dGZpbGUubWFlPic=

> <r_epik_Ionization_Penalty>
0.0567523

> <r_epik_Ionization_Penalty_Charging>
0

> <r_epik_Ionization_Penalty_Neutral>
0.0567523

> <r_epik_State_Penalty>
0.0489186

> <r_epik_Charging_Adjusted_Penalty>
0.0489186

> <i_epik_Tot_Q>
0

> <i_epik_Tot_abs_Q>
0

> <r_epik_Metal_State_Penalty>
0.044622

> <b_epik_Metal_Only>
0

> <s_lp_Force_Field>
OPLS_2005

> <r_lp_Energy>
34.1608

> <b_lp_Chiralities_Consistent>
1

> <s_lp_Variant>
AV-unprocessed.smi:767-3

> <Gold.Version>
5.8.1

> <Gold.Id.Protein>
6NUR|6NUR_protein|mol2

> <Gold.PLP.Fitness>
43.2918

> <Gold.PLP.PLP>
-32.9793

> <Gold.PLP.part.hbond>
-2.8827

> <Gold.PLP.part.metal>
0.0000

> <Gold.PLP.part.buried>
-4.6672

> <Gold.PLP.part.nonpolar>
-27.0671

> <Gold.PLP.part.repulsive>
1.2610

> <Gold.PLP.ligand.clash>
0.0000

> <Gold.PLP.ligand.torsion>
0.3231

> <Gold.PLP.Chemscore.Hbond>
2.5843

> <Gold.PLP.Chemscore.CHOScore>
1.0000

> <Gold.PLP.Chemscore.Metal>
0.0000

> <Gold.Chemscore.Hbonds>
donor molecule, donor type, donor heavy atom, donor atom, acceptor molecule, acceptor atom, score
      L1  H     8    32       P1  7948  0.88
      L1  H    11    33       P1  7948  0.68
      P1  H  7989  7998       L1    16  0.83
      L1  C    21    47       P1  7948  1.00

> <Gold.PLP.Chemscore.Internal.Correction>
0.2059

> <Gold.Rescore>
     Score         DG    S(hbond)    S(metal)    S(lipo)     H(rot)  DE(clash)    DE(int)     intcor
     17.55     -21.06       2.42        0.00      95.84       1.45       1.03       2.48       ----

> <Gold.Chemscore.Fitness>
17.5500

> <Gold.Chemscore.DG>
-21.0617

> <Gold.Chemscore.ZeroCoef>
-5.4800

> <Gold.Chemscore.Hbond>
2.4192

> <Gold.Chemscore.Metal>
0.0000

> <Gold.Chemscore.Lipo>
95.8354

> <Gold.Chemscore.Internal_Hbond>
0.0000

> <Gold.Chemscore.DEClash>
1.0276

> <Gold.Chemscore.DEInternal>
2.4841

> <Gold.Chemscore.Rot>
1.4497

> <Gold.Chemscore.Internal.Correction>
   9.000000E+99

> <Gold.Chemscore.Hbonds>
donor molecule, donor type, donor heavy atom, donor atom, acceptor molecule, acceptor atom, score
      L1  H     8    32       P1  7948  0.83
      L1  H    11    33       P1  7948  0.64
      P1  H  7989  7998       L1    16  0.21

> <Gold.Chemscore.Hbond.Weighted>
-8.0802

> <Gold.Chemscore.Metal.Weighted>
-0.0000

> <Gold.Chemscore.Lipo.Weighted>
-11.2127

> <Gold.Chemscore.Internal_Hbond.Weighted>
0.0000

> <Gold.Chemscore.DEClash.Weighted>
1.0276

> <Gold.Chemscore.DEInternal.Weighted>
2.4841

> <Gold.Chemscore.Rot.Weighted>
3.7112

> <Gold.Chemscore.Internal.Correction.Weighted>
   9.000000E+99

> <Gold.Protein.RotatedTorsions>
[ 6907 6896 6895 6894 ] final   42.72 input  -60.11 | X-H torsion
[ 7974 7965 7964 7962 ] final  178.99 input  175.53 | X-H torsion
[ 8008 7997 7996 7995 ] final  -14.03 input   59.86 | X-H torsion
[ 10167 10162 10161 10158 ] final  120.95 input  -65.29 | X-H torsion
[ 10718 10713 10712 10709 ] final   96.93 input   66.30 | X-H torsion
[ 10763 10752 10751 10750 ] final -140.50 input  -60.55 | X-H torsion
[ 11005 11000 10999 10996 ] final -105.16 input  -57.11 | X-H torsion

> <Gold.Protein.ActiveResidues>
 VAL166  LYS551  ARG553  GLY616  TRP617  ASP618  TYR619  PRO620  LYS621  CYS622 
 ASP623  PHE694  ASN695  SER759  ASP760  ASP761  ALA762  ILE779  LEU786  VAL792 
 PHE793  MET794  SER795  GLU796  ALA797  LYS798  CYS799  TRP800  GLU811  SER814 

> <Gold.Protein.RotatedAtoms>
  152.2114  134.8498  160.0496 H   0  0  0  0  0  0  0  0  0  0  0  0  # atno 6907 bound_to 6896
  151.9315  133.3607  159.3941 H   0  0  0  0  0  0  0  0  0  0  0  0  # atno 6908 bound_to 6896
  150.6977  134.4457  159.5357 H   0  0  0  0  0  0  0  0  0  0  0  0  # atno 6909 bound_to 6896
  144.7150  140.0480  143.6436 H   0  0  0  0  0  0  0  0  0  0  0  0  # atno 7974 bound_to 7965
  154.5243  140.2234  155.8918 H   0  0  0  0  0  0  0  0  0  0  0  0  # atno 8008 bound_to 7997
  156.1696  140.3124  155.8915 H   0  0  0  0  0  0  0  0  0  0  0  0  # atno 8009 bound_to 7997
  155.3585  140.0459  157.3037 H   0  0  0  0  0  0  0  0  0  0  0  0  # atno 8010 bound_to 7997
  139.5950  144.7038  151.3199 H   0  0  0  0  0  0  0  0  0  0  0  0  # atno 10167 bound_to 10162
  157.6920  131.0593  150.4567 H   0  0  0  0  0  0  0  0  0  0  0  0  # atno 10718 bound_to 10713
  154.8576  135.3551  154.5717 H   0  0  0  0  0  0  0  0  0  0  0  0  # atno 10763 bound_to 10752
  153.6329  135.7001  153.5273 H   0  0  0  0  0  0  0  0  0  0  0  0  # atno 10764 bound_to 10752
  153.3034  135.4199  155.1232 H   0  0  0  0  0  0  0  0  0  0  0  0  # atno 10765 bound_to 10752
  141.1066  133.8784  157.1700 H   0  0  0  0  0  0  0  0  0  0  0  0  # atno 11005 bound_to 11000
  145.9968  139.3059  143.0952 LP  0  0  0  0  0  0  0  0  0  0  0  0  # atno 17320 bound_to 7965
  145.8840  140.9345  143.0587 LP  0  0  0  0  0  0  0  0  0  0  0  0  # atno 17321 bound_to 7965
  140.7204  143.7151  150.7739 LP  0  0  0  0  0  0  0  0  0  0  0  0  # atno 17342 bound_to 10162
  140.0715  143.5056  152.2577 LP  0  0  0  0  0  0  0  0  0  0  0  0  # atno 17343 bound_to 10162
  156.4914  130.4096  149.6404 LP  0  0  0  0  0  0  0  0  0  0  0  0  # atno 17370 bound_to 10713
  156.3414  130.7384  151.2329 LP  0  0  0  0  0  0  0  0  0  0  0  0  # atno 17371 bound_to 10713
  139.9939  135.0054  157.0039 LP  0  0  0  0  0  0  0  0  0  0  0  0  # atno 17394 bound_to 11000
  140.4885  134.1217  155.7228 LP  0  0  0  0  0  0  0  0  0  0  0  0  # atno 17395 bound_to 11000

$$$$
