AV-unprocessed.smi:2349|AV-procd|sdf|9372|dock2
  -GOLD-   2272013 03D 1   1.00000     0.00000
 Structure written by MMmdl.
 53 54  0  0  0  0  0  0  0  0  2 V2000
  151.3094  143.8390  158.7442 C   0  0  0  0  0  0  0  0  0  0  0  0
  151.0006  142.5749  157.9709 C   0  0  0  0  0  0  0  0  0  0  0  0
  151.5316  141.3235  158.3466 C   0  0  0  0  0  0  0  0  0  0  0  0
  151.1787  140.1758  157.6076 C   0  0  0  0  0  0  0  0  0  0  0  0
  150.3044  140.3010  156.5052 C   0  0  0  0  0  0  0  0  0  0  0  0
  149.8511  139.0711  155.7331 C   0  0  0  0  0  0  0  0  0  0  0  0
  150.5721  137.7698  156.1458 C   0  0  0  0  0  0  0  0  0  0  0  0
  149.6519  136.6367  156.2432 N   0  0  0  0  0  0  0  0  0  0  0  0
  149.9984  135.3406  156.1427 C   0  0  0  0  0  0  0  0  0  0  0  0
  151.1749  134.9789  156.0861 O   0  0  0  0  0  0  0  0  0  0  0  0
  148.9558  134.4784  156.0444 N   0  0  0  0  0  0  0  0  0  0  0  0
  147.5607  134.8273  155.7376 C   0  0  0  0  0  0  0  0  0  0  0  0
  147.3028  134.5300  154.2493 C   0  0  0  0  0  0  0  0  0  0  0  0
  147.6281  133.0600  153.8884 C   0  0  0  0  0  0  0  0  0  0  0  0
  147.5040  132.8412  152.3618 C   0  0  0  0  0  0  0  0  0  0  0  0
  146.1692  133.2931  151.7368 C   0  0  0  0  0  0  0  0  0  0  0  0
  145.9393  134.4974  151.6154 O   0  0  0  0  0  0  0  0  0  0  0  0
  145.2838  132.3501  151.3378 N   0  0  0  0  0  0  0  0  0  0  0  0
  143.9746  132.7305  150.8019 C   0  0  0  0  0  0  0  0  0  0  0  0
  145.5662  130.9125  151.3679 C   0  0  0  0  0  0  0  0  0  0  0  0
  149.0163  132.6472  154.4448 C   0  0  0  0  0  0  0  0  0  0  0  0
  149.1656  133.0324  155.9279 C   0  0  0  0  0  0  0  0  0  0  0  0
  149.8270  141.5838  156.1591 C   0  0  0  0  0  0  0  0  0  0  0  0
  150.1803  142.6576  156.8990 N   0  3  0  0  0  0  0  0  0  0  0  0
  152.3658  143.8736  159.0118 H   0  0  0  0  0  0  0  0  0  0  0  0
  150.7216  143.8684  159.6624 H   0  0  0  0  0  0  0  0  0  0  0  0
  151.0777  144.7295  158.1585 H   0  0  0  0  0  0  0  0  0  0  0  0
  152.1902  141.2398  159.1988 H   0  0  0  0  0  0  0  0  0  0  0  0
  151.5610  139.2088  157.9000 H   0  0  0  0  0  0  0  0  0  0  0  0
  148.7745  138.9522  155.8596 H   0  0  0  0  0  0  0  0  0  0  0  0
  150.0117  139.2450  154.6682 H   0  0  0  0  0  0  0  0  0  0  0  0
  151.3713  137.5527  155.4354 H   0  0  0  0  0  0  0  0  0  0  0  0
  151.0612  137.9086  157.1101 H   0  0  0  0  0  0  0  0  0  0  0  0
  148.6677  136.8551  156.2997 H   0  0  0  0  0  0  0  0  0  0  0  0
  146.8931  134.2263  156.3569 H   0  0  0  0  0  0  0  0  0  0  0  0
  147.3093  135.8626  155.9689 H   0  0  0  0  0  0  0  0  0  0  0  0
  146.2633  134.7519  154.0056 H   0  0  0  0  0  0  0  0  0  0  0  0
  147.9091  135.2014  153.6413 H   0  0  0  0  0  0  0  0  0  0  0  0
  146.8785  132.4436  154.3879 H   0  0  0  0  0  0  0  0  0  0  0  0
  148.3018  133.3824  151.8518 H   0  0  0  0  0  0  0  0  0  0  0  0
  147.6658  131.7835  152.1584 H   0  0  0  0  0  0  0  0  0  0  0  0
  143.2777  131.8923  150.7797 H   0  0  0  0  0  0  0  0  0  0  0  0
  144.0787  133.1077  149.7840 H   0  0  0  0  0  0  0  0  0  0  0  0
  143.5091  133.5095  151.4076 H   0  0  0  0  0  0  0  0  0  0  0  0
  146.5616  130.6932  150.9793 H   0  0  0  0  0  0  0  0  0  0  0  0
  144.8641  130.3434  150.7583 H   0  0  0  0  0  0  0  0  0  0  0  0
  145.5017  130.5325  152.3877 H   0  0  0  0  0  0  0  0  0  0  0  0
  149.1732  131.5742  154.3375 H   0  0  0  0  0  0  0  0  0  0  0  0
  149.8044  133.1308  153.8655 H   0  0  0  0  0  0  0  0  0  0  0  0
  150.1395  132.7149  156.3030 H   0  0  0  0  0  0  0  0  0  0  0  0
  148.4300  132.5004  156.5329 H   0  0  0  0  0  0  0  0  0  0  0  0
  149.1495  141.7774  155.3400 H   0  0  0  0  0  0  0  0  0  0  0  0
  149.8041  143.5705  156.6415 H   0  0  0  0  0  0  0  0  0  0  0  0
  1  2  1  0  0  0  0
  1 25  1  0  0  0  0
  1 26  1  0  0  0  0
  1 27  1  0  0  0  0
  2 24  1  0  0  0  0
  2  3  2  0  0  0  0
  3  4  1  0  0  0  0
  3 28  1  0  0  0  0
  4  5  2  0  0  0  0
  4 29  1  0  0  0  0
  5  6  1  0  0  0  0
  5 23  1  0  0  0  0
  6  7  1  0  0  0  0
  6 30  1  0  0  0  0
  6 31  1  0  0  0  0
  7  8  1  0  0  0  0
  7 32  1  0  0  0  0
  7 33  1  0  0  0  0
  8  9  1  0  0  0  0
  8 34  1  0  0  0  0
  9 10  2  0  0  0  0
  9 11  1  0  0  0  0
 11 22  1  0  0  0  0
 11 12  1  0  0  0  0
 12 13  1  0  0  0  0
 12 35  1  0  0  0  0
 12 36  1  0  0  0  0
 13 14  1  0  0  0  0
 13 37  1  0  0  0  0
 13 38  1  0  0  0  0
 14 15  1  0  0  0  0
 14 21  1  0  0  0  0
 14 39  1  0  0  0  0
 15 16  1  0  0  0  0
 15 40  1  0  0  0  0
 15 41  1  0  0  0  0
 16 17  2  0  0  0  0
 16 18  1  0  0  0  0
 18 19  1  0  0  0  0
 18 20  1  0  0  0  0
 19 42  1  0  0  0  0
 19 43  1  0  0  0  0
 19 44  1  0  0  0  0
 20 45  1  0  0  0  0
 20 46  1  0  0  0  0
 20 47  1  0  0  0  0
 21 22  1  0  0  0  0
 21 48  1  0  0  0  0
 21 49  1  0  0  0  0
 22 50  1  0  0  0  0
 22 51  1  0  0  0  0
 23 24  2  0  0  0  0
 23 52  1  0  0  0  0
 24 53  1  0  0  0  0
M  CHG  1  24   1
M  END
> <s_m_source_file>
AV-unprocessed.smi

> <i_m_source_file_index>
2349

> <i_lp_mmshare_version>
43012

> <i_f3d_flags>
0

> <s_epik_input>
W0NIM11jMVtjSF1bY0hdYyhbY0hdbjEpW0NIMl1bQ0gyXVtOSF1DKD1PKU4yW0NIMl1bQ0gyXVtDSF0oW0NIMl1bQ0gyXTIpW0NIMl1DKD1PKU4oW0NIM10pW0NIM10=

> <s_epik_cmdline>
J2VwaWtfcHl0aG9uJywgJy1waCcsICc3LjAnLCAnLXRuJywgJzgnLCAnLW1hJywgJzIwMCcsICctbWV0YWxfYmluZGluZycsICctaW1hZScsICc8aW5maWxlLm1hZT4nLCAnLW9tYWUnLCAnPG91dGZpbGUubWFlPic=

> <r_epik_Ionization_Penalty>
1.41566

> <r_epik_Ionization_Penalty_Charging>
1.4156

> <r_epik_Ionization_Penalty_Neutral>
6.25151e-05

> <r_epik_State_Penalty>
1.49894

> <r_epik_Charging_Adjusted_Penalty>
2.91453

> <i_epik_Tot_Q>
1

> <i_epik_Tot_abs_Q>
1

> <r_epik_Metal_State_Penalty>
1.55152

> <b_epik_Metal_Only>
0

> <s_lp_Force_Field>
OPLS_2005

> <r_lp_Energy>
40.5866

> <b_lp_Chiralities_Consistent>
1

> <s_lp_Variant>
AV-unprocessed.smi:2349-2

> <Gold.Version>
5.8.1

> <Gold.Id.Protein>
6NUR|6NUR_protein|mol2

> <Gold.PLP.Fitness>
47.7127

> <Gold.PLP.PLP>
-40.0991

> <Gold.PLP.part.hbond>
-2.0000

> <Gold.PLP.part.metal>
0.0000

> <Gold.PLP.part.buried>
-2.5354

> <Gold.PLP.part.nonpolar>
-35.5515

> <Gold.PLP.part.repulsive>
0.3530

> <Gold.PLP.ligand.clash>
0.0000

> <Gold.PLP.ligand.torsion>
0.7338

> <Gold.PLP.Chemscore.Hbond>
2.9760

> <Gold.PLP.Chemscore.CHOScore>
0.0000

> <Gold.PLP.Chemscore.Metal>
0.0000

> <Gold.Chemscore.Hbonds>
donor molecule, donor type, donor heavy atom, donor atom, acceptor molecule, acceptor atom, score
      L1  H    24    53       P1  8028  2.00
      P1  H 10752 10764       L1    10  0.41

> <Gold.PLP.Chemscore.Internal.Correction>
0.1531

> <Gold.Rescore>
     Score         DG    S(hbond)    S(metal)    S(lipo)     H(rot)  DE(clash)    DE(int)     intcor
     18.46     -19.35       1.95        0.00     101.07       1.75       0.02       0.87       ----

> <Gold.Chemscore.Fitness>
18.4575

> <Gold.Chemscore.DG>
-19.3470

> <Gold.Chemscore.ZeroCoef>
-5.4800

> <Gold.Chemscore.Hbond>
1.9490

> <Gold.Chemscore.Metal>
0.0000

> <Gold.Chemscore.Lipo>
101.0727

> <Gold.Chemscore.Internal_Hbond>
0.0000

> <Gold.Chemscore.DEClash>
0.0189

> <Gold.Chemscore.DEInternal>
0.8706

> <Gold.Chemscore.Rot>
1.7454

> <Gold.Chemscore.Internal.Correction>
   9.000000E+99

> <Gold.Chemscore.Hbonds>
donor molecule, donor type, donor heavy atom, donor atom, acceptor molecule, acceptor atom, score
      L1  H    24    53       P1  8028  0.99
      P1  H 10752 10764       L1    10  0.40

> <Gold.Chemscore.Hbond.Weighted>
-6.5097

> <Gold.Chemscore.Metal.Weighted>
-0.0000

> <Gold.Chemscore.Lipo.Weighted>
-11.8255

> <Gold.Chemscore.Internal_Hbond.Weighted>
0.0000

> <Gold.Chemscore.DEClash.Weighted>
0.0189

> <Gold.Chemscore.DEInternal.Weighted>
0.8706

> <Gold.Chemscore.Rot.Weighted>
4.4682

> <Gold.Chemscore.Internal.Correction.Weighted>
   9.000000E+99

> <Gold.Protein.RotatedTorsions>
[ 6907 6896 6895 6894 ] final   20.06 input  -60.11 | X-H torsion
[ 7974 7965 7964 7962 ] final -148.80 input  175.53 | X-H torsion
[ 8008 7997 7996 7995 ] final    2.54 input   59.86 | X-H torsion
[ 10167 10162 10161 10158 ] final  -75.21 input  -65.29 | X-H torsion
[ 10718 10713 10712 10709 ] final -176.21 input   66.30 | X-H torsion
[ 10763 10752 10751 10750 ] final  -41.98 input  -60.55 | X-H torsion
[ 11005 11000 10999 10996 ] final  -89.86 input  -57.11 | X-H torsion

> <Gold.Protein.ActiveResidues>
 VAL166  LYS551  ARG553  GLY616  TRP617  ASP618  TYR619  PRO620  LYS621  CYS622 
 ASP623  PHE694  ASN695  SER759  ASP760  ASP761  ALA762  ILE779  LEU786  VAL792 
 PHE793  MET794  SER795  GLU796  ALA797  LYS798  CYS799  TRP800  GLU811  SER814 

> <Gold.Protein.RotatedAtoms>
  151.8906  135.0418  160.0497 H   0  0  0  0  0  0  0  0  0  0  0  0  # atno 6907 bound_to 6896
  152.2439  133.5154  159.5294 H   0  0  0  0  0  0  0  0  0  0  0  0  # atno 6908 bound_to 6896
  150.7062  134.0968  159.3994 H   0  0  0  0  0  0  0  0  0  0  0  0  # atno 6909 bound_to 6896
  144.8007  140.5149  143.5709 H   0  0  0  0  0  0  0  0  0  0  0  0  # atno 7974 bound_to 7965
  154.6929  140.2657  155.6795 H   0  0  0  0  0  0  0  0  0  0  0  0  # atno 8008 bound_to 7997
  156.2738  140.2787  156.1436 H   0  0  0  0  0  0  0  0  0  0  0  0  # atno 8009 bound_to 7997
  155.0872  140.0373  157.2647 H   0  0  0  0  0  0  0  0  0  0  0  0  # atno 8010 bound_to 7997
  140.4962  143.2370  151.7827 H   0  0  0  0  0  0  0  0  0  0  0  0  # atno 10167 bound_to 10162
  156.8112  130.9587  151.3115 H   0  0  0  0  0  0  0  0  0  0  0  0  # atno 10718 bound_to 10713
  153.9714  135.6728  153.4747 H   0  0  0  0  0  0  0  0  0  0  0  0  # atno 10763 bound_to 10752
  153.0791  135.4933  154.8462 H   0  0  0  0  0  0  0  0  0  0  0  0  # atno 10764 bound_to 10752
  154.7217  135.3118  154.8998 H   0  0  0  0  0  0  0  0  0  0  0  0  # atno 10765 bound_to 10752
  141.1577  133.7656  156.9655 H   0  0  0  0  0  0  0  0  0  0  0  0  # atno 11005 bound_to 11000
  145.5561  139.1478  143.3367 LP  0  0  0  0  0  0  0  0  0  0  0  0  # atno 17320 bound_to 7965
  146.2287  140.5698  142.8985 LP  0  0  0  0  0  0  0  0  0  0  0  0  # atno 17321 bound_to 7965
  139.4862  144.4583  151.9571 LP  0  0  0  0  0  0  0  0  0  0  0  0  # atno 17342 bound_to 10162
  140.3671  144.2901  150.5925 LP  0  0  0  0  0  0  0  0  0  0  0  0  # atno 17343 bound_to 10162
  157.6504  130.8880  149.9623 LP  0  0  0  0  0  0  0  0  0  0  0  0  # atno 17370 bound_to 10713
  156.1043  130.3653  150.0162 LP  0  0  0  0  0  0  0  0  0  0  0  0  # atno 17371 bound_to 10713
  140.1164  134.9444  157.2141 LP  0  0  0  0  0  0  0  0  0  0  0  0  # atno 17394 bound_to 11000
  140.3127  134.3005  155.7263 LP  0  0  0  0  0  0  0  0  0  0  0  0  # atno 17395 bound_to 11000

$$$$
