AV-unprocessed.smi:777|AV-procd|sdf|3701|dock4
  -GOLD-   22720 1123D 1   1.00000     0.00000
 Structure written by MMmdl.
 37 38  0  0  0  0  0  0  0  0  2 V2000
  153.5954  140.8971  160.6369 C   0  0  0  0  0  0  0  0  0  0  0  0
  152.4078  141.0238  159.6592 C   0  0  2  0  0  0  0  0  0  0  0  0
  152.4282  139.9512  158.5593 C   0  0  0  0  0  0  0  0  0  0  0  0
  153.5009  139.5653  158.0954 O   0  0  0  0  0  0  0  0  0  0  0  0
  151.2159  139.5120  158.1701 N   0  0  0  0  0  0  0  0  0  0  0  0
  150.7895  138.5728  157.1211 C   0  0  0  0  0  0  0  0  0  0  0  0
  151.4552  137.2275  157.5106 C   0  0  0  0  0  0  0  0  0  0  0  0
  152.2316  136.6950  156.6862 O   0  0  0  0  0  0  0  0  0  0  0  0
  151.1406  136.7174  158.6095 O   0  5  0  0  0  0  0  0  0  0  0  0
  149.2423  138.4140  156.9692 C   0  0  0  0  0  0  0  0  0  0  0  0
  148.8373  137.5416  155.7648 C   0  0  0  0  0  0  0  0  0  0  0  0
  149.4253  138.0949  154.4586 C   0  0  0  0  0  0  0  0  0  0  0  0
  150.9499  138.2487  154.5569 C   0  0  0  0  0  0  0  0  0  0  0  0
  151.3488  139.1093  155.7723 C   0  0  0  0  0  0  0  0  0  0  0  0
  152.3048  142.3493  159.0568 N   0  0  0  0  0  0  0  0  0  0  0  0
  153.1275  143.4381  159.2677 C   0  0  0  0  0  0  0  0  0  0  0  0
  152.6265  144.4806  158.5424 C   0  0  0  0  0  0  0  0  0  0  0  0
  151.4680  143.9346  157.9243 C   0  0  0  0  0  0  0  0  0  0  0  0
  151.2724  142.6650  158.2398 N   0  0  0  0  0  0  0  0  0  0  0  0
  153.6044  139.9174  161.1155 H   0  0  0  0  0  0  0  0  0  0  0  0
  153.5290  141.6451  161.4272 H   0  0  0  0  0  0  0  0  0  0  0  0
  154.5567  141.0277  160.1381 H   0  0  0  0  0  0  0  0  0  0  0  0
  151.4999  140.8736  160.2459 H   0  0  0  0  0  0  0  0  0  0  0  0
  150.4398  139.9408  158.6527 H   0  0  0  0  0  0  0  0  0  0  0  0
  148.7933  138.0104  157.8780 H   0  0  0  0  0  0  0  0  0  0  0  0
  148.7895  139.3947  156.8196 H   0  0  0  0  0  0  0  0  0  0  0  0
  149.1689  136.5133  155.9125 H   0  0  0  0  0  0  0  0  0  0  0  0
  147.7503  137.5013  155.6901 H   0  0  0  0  0  0  0  0  0  0  0  0
  149.1690  137.4386  153.6265 H   0  0  0  0  0  0  0  0  0  0  0  0
  148.9751  139.0638  154.2388 H   0  0  0  0  0  0  0  0  0  0  0  0
  151.4144  137.2644  154.6239 H   0  0  0  0  0  0  0  0  0  0  0  0
  151.3330  138.7029  153.6428 H   0  0  0  0  0  0  0  0  0  0  0  0
  150.9776  140.1229  155.6132 H   0  0  0  0  0  0  0  0  0  0  0  0
  152.4351  139.2056  155.8079 H   0  0  0  0  0  0  0  0  0  0  0  0
  153.9910  143.3814  159.9143 H   0  0  0  0  0  0  0  0  0  0  0  0
  153.0217  145.4830  158.4734 H   0  0  0  0  0  0  0  0  0  0  0  0
  150.7645  144.4214  157.2652 H   0  0  0  0  0  0  0  0  0  0  0  0
  1  2  1  0  0  0  0
  1 20  1  0  0  0  0
  1 21  1  0  0  0  0
  1 22  1  0  0  0  0
  2  3  1  0  0  0  0
  2 15  1  0  0  0  0
  2 23  1  0  0  0  0
  3  4  2  0  0  0  0
  3  5  1  0  0  0  0
  5  6  1  0  0  0  0
  5 24  1  0  0  0  0
  6 14  1  0  0  0  0
  6  7  1  0  0  0  0
  6 10  1  0  0  0  0
  7  8  2  0  0  0  0
  7  9  1  0  0  0  0
 10 11  1  0  0  0  0
 10 25  1  0  0  0  0
 10 26  1  0  0  0  0
 11 12  1  0  0  0  0
 11 27  1  0  0  0  0
 11 28  1  0  0  0  0
 12 13  1  0  0  0  0
 12 29  1  0  0  0  0
 12 30  1  0  0  0  0
 13 14  1  0  0  0  0
 13 31  1  0  0  0  0
 13 32  1  0  0  0  0
 14 33  1  0  0  0  0
 14 34  1  0  0  0  0
 15 19  1  0  0  0  0
 15 16  1  0  0  0  0
 16 17  2  0  0  0  0
 16 35  1  0  0  0  0
 17 18  1  0  0  0  0
 17 36  1  0  0  0  0
 18 19  2  0  0  0  0
 18 37  1  0  0  0  0
M  CHG  1   9  -1
M  END
> <s_m_source_file>
AV-unprocessed.smi

> <i_m_source_file_index>
777

> <i_lp_mmshare_version>
43012

> <i_f3d_flags>
0

> <s_epik_input>
bjFbY0hdW2NIXVtjSF1uMVtDQEhdKFtDSDNdKUMoPU8pW05IXUMyKEMoPU8pW09IXSlbQ0gyXVtDSDJdW0NIMl1bQ0gyXVtDSDJdMg==

> <s_epik_cmdline>
J2VwaWtfcHl0aG9uJywgJy1waCcsICc3LjAnLCAnLXRuJywgJzgnLCAnLW1hJywgJzIwMCcsICctbWV0YWxfYmluZGluZycsICctaW1hZScsICc8aW5maWxlLm1hZT4nLCAnLW9tYWUnLCAnPG91dGZpbGUubWFlPic=

> <r_lp_tautomer_probability>
1

> <r_epik_Ionization_Penalty>
0.000371068

> <r_epik_Ionization_Penalty_Charging>
0.000323848

> <r_epik_Ionization_Penalty_Neutral>
4.72198e-05

> <r_epik_State_Penalty>
0.000195685

> <r_epik_Charging_Adjusted_Penalty>
0.000519533

> <i_epik_Tot_Q>
-1

> <i_epik_Tot_abs_Q>
1

> <r_epik_Metal_State_Penalty>
-0

> <b_epik_Metal_Only>
0

> <s_lp_Force_Field>
OPLS_2005

> <r_lp_Energy>
8.44032

> <b_lp_Chiralities_Consistent>
1

> <s_lp_Variant>
AV-unprocessed.smi:777-1

> <Gold.Version>
5.8.1

> <Gold.Id.Protein>
6NUR|6NUR_protein|mol2

> <Gold.PLP.Fitness>
50.0087

> <Gold.PLP.PLP>
-35.3576

> <Gold.PLP.part.hbond>
-2.8010

> <Gold.PLP.part.metal>
0.0000

> <Gold.PLP.part.buried>
-3.1274

> <Gold.PLP.part.nonpolar>
-30.8597

> <Gold.PLP.part.repulsive>
0.1182

> <Gold.PLP.ligand.clash>
0.0000

> <Gold.PLP.ligand.torsion>
0.8143

> <Gold.PLP.Chemscore.Hbond>
4.3668

> <Gold.PLP.Chemscore.CHOScore>
1.0000

> <Gold.PLP.Chemscore.Metal>
0.0000

> <Gold.Chemscore.Hbonds>
donor molecule, donor type, donor heavy atom, donor atom, acceptor molecule, acceptor atom, score
      P1  H  6896  6908       L1     9  1.10
      P1  H  7997  8009       L1     4  1.00
      P1  H 10752 10764       L1     8  1.01
      L1  C    18    37       P1  8028  1.00

> <Gold.PLP.Chemscore.Internal.Correction>
0.1796

> <Gold.Rescore>
     Score         DG    S(hbond)    S(metal)    S(lipo)     H(rot)  DE(clash)    DE(int)     intcor
     17.50     -19.52       2.51        0.00      91.53       1.98       0.00       2.03       ----

> <Gold.Chemscore.Fitness>
17.4960

> <Gold.Chemscore.DG>
-19.5245

> <Gold.Chemscore.ZeroCoef>
-5.4800

> <Gold.Chemscore.Hbond>
2.5142

> <Gold.Chemscore.Metal>
0.0000

> <Gold.Chemscore.Lipo>
91.5298

> <Gold.Chemscore.Internal_Hbond>
0.0000

> <Gold.Chemscore.DEClash>
0.0015

> <Gold.Chemscore.DEInternal>
2.0270

> <Gold.Chemscore.Rot>
1.9774

> <Gold.Chemscore.Internal.Correction>
   9.000000E+99

> <Gold.Chemscore.Hbonds>
donor molecule, donor type, donor heavy atom, donor atom, acceptor molecule, acceptor atom, score
      P1  H  6896  6908       L1     9  0.53
      P1  H  7997  8009       L1     4  0.98
      P1  H 10752 10764       L1     8  0.49

> <Gold.Chemscore.Hbond.Weighted>
-8.3976

> <Gold.Chemscore.Metal.Weighted>
-0.0000

> <Gold.Chemscore.Lipo.Weighted>
-10.7090

> <Gold.Chemscore.Internal_Hbond.Weighted>
0.0000

> <Gold.Chemscore.DEClash.Weighted>
0.0015

> <Gold.Chemscore.DEInternal.Weighted>
2.0270

> <Gold.Chemscore.Rot.Weighted>
5.0620

> <Gold.Chemscore.Internal.Correction.Weighted>
   9.000000E+99

> <Gold.Protein.RotatedTorsions>
[ 6907 6896 6895 6894 ] final -118.13 input  -60.11 | X-H torsion
[ 7974 7965 7964 7962 ] final  169.92 input  175.53 | X-H torsion
[ 8008 7997 7996 7995 ] final  154.56 input   59.86 | X-H torsion
[ 10167 10162 10161 10158 ] final   84.16 input  -65.29 | X-H torsion
[ 10718 10713 10712 10709 ] final   50.65 input   66.30 | X-H torsion
[ 10763 10752 10751 10750 ] final  -12.46 input  -60.55 | X-H torsion
[ 11005 11000 10999 10996 ] final  -57.74 input  -57.11 | X-H torsion

> <Gold.Protein.ActiveResidues>
 VAL166  LYS551  ARG553  GLY616  TRP617  ASP618  TYR619  PRO620  LYS621  CYS622 
 ASP623  PHE694  ASN695  SER759  ASP760  ASP761  ALA762  ILE779  LEU786  VAL792 
 PHE793  MET794  SER795  GLU796  ALA797  LYS798  CYS799  TRP800  GLU811  SER814 

> <Gold.Protein.RotatedAtoms>
  150.8194  133.8280  159.3145 H   0  0  0  0  0  0  0  0  0  0  0  0  # atno 6907 bound_to 6896
  151.6042  135.1043  160.0076 H   0  0  0  0  0  0  0  0  0  0  0  0  # atno 6908 bound_to 6896
  152.4284  133.7194  159.6581 H   0  0  0  0  0  0  0  0  0  0  0  0  # atno 6909 bound_to 6896
  144.7340  139.9125  143.6416 H   0  0  0  0  0  0  0  0  0  0  0  0  # atno 7974 bound_to 7965
  156.2524  140.1963  156.6666 H   0  0  0  0  0  0  0  0  0  0  0  0  # atno 8008 bound_to 7997
  154.6424  140.0582  156.9887 H   0  0  0  0  0  0  0  0  0  0  0  0  # atno 8009 bound_to 7997
  155.1542  140.3254  155.4427 H   0  0  0  0  0  0  0  0  0  0  0  0  # atno 8010 bound_to 7997
  139.9109  144.6272  150.8538 H   0  0  0  0  0  0  0  0  0  0  0  0  # atno 10167 bound_to 10162
  157.4905  130.8373  149.8197 H   0  0  0  0  0  0  0  0  0  0  0  0  # atno 10718 bound_to 10713
  153.4988  135.7017  153.5843 H   0  0  0  0  0  0  0  0  0  0  0  0  # atno 10763 bound_to 10752
  153.3983  135.3878  155.1970 H   0  0  0  0  0  0  0  0  0  0  0  0  # atno 10764 bound_to 10752
  154.8712  135.3875  154.4457 H   0  0  0  0  0  0  0  0  0  0  0  0  # atno 10765 bound_to 10752
  141.1178  133.6611  156.4816 H   0  0  0  0  0  0  0  0  0  0  0  0  # atno 11005 bound_to 11000
  146.0990  139.3984  143.0358 LP  0  0  0  0  0  0  0  0  0  0  0  0  # atno 17320 bound_to 7965
  145.7605  140.9937  143.1202 LP  0  0  0  0  0  0  0  0  0  0  0  0  # atno 17321 bound_to 7965
  140.7685  143.3366  151.2295 LP  0  0  0  0  0  0  0  0  0  0  0  0  # atno 17342 bound_to 10162
  139.6943  143.9639  152.2875 LP  0  0  0  0  0  0  0  0  0  0  0  0  # atno 17343 bound_to 10162
  156.0171  130.3809  150.2077 LP  0  0  0  0  0  0  0  0  0  0  0  0  # atno 17370 bound_to 10713
  157.0266  130.9995  151.3324 LP  0  0  0  0  0  0  0  0  0  0  0  0  # atno 17371 bound_to 10713
  140.4596  134.6853  157.5079 LP  0  0  0  0  0  0  0  0  0  0  0  0  # atno 17394 bound_to 11000
  140.0112  134.6687  155.9378 LP  0  0  0  0  0  0  0  0  0  0  0  0  # atno 17395 bound_to 11000

$$$$
