AV-unprocessed.smi:2312|AV-procd|sdf|9263|dock2
  -GOLD-   2272012483D 1   1.00000     0.00000
 Structure written by MMmdl.
 34 35  0  0  0  0  0  0  0  0  1 V2000
  152.3105  141.8208  160.3101 C   0  0  0  0  0  0  0  0  0  0  0  0
  151.1543  142.5250  159.8758 O   0  0  0  0  0  0  0  0  0  0  0  0
  151.3850  143.8115  159.3005 C   0  0  0  0  0  0  0  0  0  0  0  0
  151.9775  143.7087  157.8882 C   0  0  0  0  0  0  0  0  0  0  0  0
  150.9389  143.3934  156.9168 N   0  0  0  0  0  0  0  0  0  0  0  0
  150.7090  142.1709  156.4224 C   0  0  0  0  0  0  0  0  0  0  0  0
  151.3704  141.1790  156.7304 O   0  0  0  0  0  0  0  0  0  0  0  0
  149.6725  142.1790  155.5673 N   0  0  0  0  0  0  0  0  0  0  0  0
  149.1358  141.0835  154.8393 C   0  0  0  0  0  0  0  0  0  0  0  0
  149.7498  139.9303  154.5936 N   0  0  0  0  0  0  0  0  0  0  0  0
  148.7746  139.3022  153.8724 C   0  0  0  0  0  0  0  0  0  0  0  0
  147.6514  139.9945  153.6808 N   0  0  0  0  0  0  0  0  0  0  0  0
  147.9058  141.1589  154.3225 N   0  0  0  0  0  0  0  0  0  0  0  0
  146.9186  142.2206  154.3588 C   0  0  0  0  0  0  0  0  0  0  0  0
  150.1045  144.6488  159.4789 C   0  0  0  0  0  0  0  0  0  0  0  0
  150.9766  145.8104  159.9588 C   0  0  0  0  0  0  0  0  0  0  0  0
  152.0408  144.7710  160.3138 C   0  0  0  0  0  0  0  0  0  0  0  0
  152.0021  140.9063  160.8160 H   0  0  0  0  0  0  0  0  0  0  0  0
  152.9038  142.4040  161.0145 H   0  0  0  0  0  0  0  0  0  0  0  0
  152.9452  141.5292  159.4738 H   0  0  0  0  0  0  0  0  0  0  0  0
  152.4490  144.6520  157.6084 H   0  0  0  0  0  0  0  0  0  0  0  0
  152.7637  142.9546  157.8414 H   0  0  0  0  0  0  0  0  0  0  0  0
  150.3503  144.1565  156.6159 H   0  0  0  0  0  0  0  0  0  0  0  0
  149.2122  143.0656  155.4238 H   0  0  0  0  0  0  0  0  0  0  0  0
  148.8965  138.3052  153.4751 H   0  0  0  0  0  0  0  0  0  0  0  0
  147.2289  143.0311  153.6990 H   0  0  0  0  0  0  0  0  0  0  0  0
  146.8254  142.6032  155.3754 H   0  0  0  0  0  0  0  0  0  0  0  0
  145.9462  141.8492  154.0335 H   0  0  0  0  0  0  0  0  0  0  0  0
  149.5533  144.8496  158.5596 H   0  0  0  0  0  0  0  0  0  0  0  0
  149.4464  144.2693  160.2629 H   0  0  0  0  0  0  0  0  0  0  0  0
  151.2844  146.4741  159.1492 H   0  0  0  0  0  0  0  0  0  0  0  0
  150.5757  146.3634  160.8088 H   0  0  0  0  0  0  0  0  0  0  0  0
  151.9588  144.4318  161.3479 H   0  0  0  0  0  0  0  0  0  0  0  0
  153.0612  145.0676  160.0693 H   0  0  0  0  0  0  0  0  0  0  0  0
  1  2  1  0  0  0  0
  1 18  1  0  0  0  0
  1 19  1  0  0  0  0
  1 20  1  0  0  0  0
  2  3  1  0  0  0  0
  3 17  1  0  0  0  0
  3  4  1  0  0  0  0
  3 15  1  0  0  0  0
  4  5  1  0  0  0  0
  4 21  1  0  0  0  0
  4 22  1  0  0  0  0
  5  6  1  0  0  0  0
  5 23  1  0  0  0  0
  6  7  2  0  0  0  0
  6  8  1  0  0  0  0
  8  9  1  0  0  0  0
  8 24  1  0  0  0  0
  9 13  1  0  0  0  0
  9 10  2  0  0  0  0
 10 11  1  0  0  0  0
 11 12  2  0  0  0  0
 11 25  1  0  0  0  0
 12 13  1  0  0  0  0
 13 14  1  0  0  0  0
 14 26  1  0  0  0  0
 14 27  1  0  0  0  0
 14 28  1  0  0  0  0
 15 16  1  0  0  0  0
 15 29  1  0  0  0  0
 15 30  1  0  0  0  0
 16 17  1  0  0  0  0
 16 31  1  0  0  0  0
 16 32  1  0  0  0  0
 17 33  1  0  0  0  0
 17 34  1  0  0  0  0
M  END
> <s_m_source_file>
AV-unprocessed.smi

> <i_m_source_file_index>
2312

> <i_lp_mmshare_version>
43012

> <i_f3d_flags>
0

> <s_epik_input>
W0NIMl0xW0NIMl1bQ0gyXUMxKE9bQ0gzXSlbQ0gyXVtOSF1DKD1PKVtOSF1jMm5bY0hdbm4yW0NIM10=

> <s_epik_cmdline>
J2VwaWtfcHl0aG9uJywgJy1waCcsICc3LjAnLCAnLXRuJywgJzgnLCAnLW1hJywgJzIwMCcsICctbWV0YWxfYmluZGluZycsICctaW1hZScsICc8aW5maWxlLm1hZT4nLCAnLW9tYWUnLCAnPG91dGZpbGUubWFlPic=

> <r_lp_tautomer_probability>
1

> <r_epik_Ionization_Penalty>
2.1066e-05

> <r_epik_Ionization_Penalty_Charging>
0

> <r_epik_Ionization_Penalty_Neutral>
2.1066e-05

> <r_epik_State_Penalty>
-0

> <r_epik_Charging_Adjusted_Penalty>
0

> <i_epik_Tot_Q>
0

> <i_epik_Tot_abs_Q>
0

> <r_epik_Metal_State_Penalty>
-0

> <b_epik_Metal_Only>
0

> <s_lp_Force_Field>
OPLS_2005

> <r_lp_Energy>
16.1455

> <b_lp_Chiralities_Consistent>
1

> <s_lp_Variant>
AV-unprocessed.smi:2312-1

> <Gold.Version>
5.8.1

> <Gold.Id.Protein>
6NUR|6NUR_protein|mol2

> <Gold.PLP.Fitness>
45.2199

> <Gold.PLP.PLP>
-34.4670

> <Gold.PLP.part.hbond>
-3.6058

> <Gold.PLP.part.metal>
0.0000

> <Gold.PLP.part.buried>
-1.1316

> <Gold.PLP.part.nonpolar>
-30.5541

> <Gold.PLP.part.repulsive>
1.5878

> <Gold.PLP.ligand.clash>
0.0000

> <Gold.PLP.ligand.torsion>
0.7186

> <Gold.PLP.Chemscore.Hbond>
2.9753

> <Gold.PLP.Chemscore.CHOScore>
0.9998

> <Gold.PLP.Chemscore.Metal>
0.0000

> <Gold.Chemscore.Hbonds>
donor molecule, donor type, donor heavy atom, donor atom, acceptor molecule, acceptor atom, score
      L1  H     5    23       P1  8028  0.99
      L1  H     8    24       P1  8028  1.00
      P1  H  7989  7998       L1    10  0.13
      L1  C    11    25       P1  7948  0.81

> <Gold.PLP.Chemscore.Internal.Correction>
0.2647

> <Gold.Rescore>
     Score         DG    S(hbond)    S(metal)    S(lipo)     H(rot)  DE(clash)    DE(int)     intcor
     13.75     -15.98       1.94        0.00      71.64       1.71       0.13       2.10       ----

> <Gold.Chemscore.Fitness>
13.7537

> <Gold.Chemscore.DG>
-15.9804

> <Gold.Chemscore.ZeroCoef>
-5.4800

> <Gold.Chemscore.Hbond>
1.9420

> <Gold.Chemscore.Metal>
0.0000

> <Gold.Chemscore.Lipo>
71.6352

> <Gold.Chemscore.Internal_Hbond>
0.0000

> <Gold.Chemscore.DEClash>
0.1289

> <Gold.Chemscore.DEInternal>
2.0979

> <Gold.Chemscore.Rot>
1.7059

> <Gold.Chemscore.Internal.Correction>
   9.000000E+99

> <Gold.Chemscore.Hbonds>
donor molecule, donor type, donor heavy atom, donor atom, acceptor molecule, acceptor atom, score
      L1  H     5    23       P1  8028  0.94
      L1  H     8    24       P1  8028  0.99
      P1  H  7989  7998       L1    10  0.02

> <Gold.Chemscore.Hbond.Weighted>
-6.4861

> <Gold.Chemscore.Metal.Weighted>
-0.0000

> <Gold.Chemscore.Lipo.Weighted>
-8.3813

> <Gold.Chemscore.Internal_Hbond.Weighted>
0.0000

> <Gold.Chemscore.DEClash.Weighted>
0.1289

> <Gold.Chemscore.DEInternal.Weighted>
2.0979

> <Gold.Chemscore.Rot.Weighted>
4.3670

> <Gold.Chemscore.Internal.Correction.Weighted>
   9.000000E+99

> <Gold.Protein.RotatedTorsions>
[ 6907 6896 6895 6894 ] final   98.81 input  -60.11 | X-H torsion
[ 7974 7965 7964 7962 ] final  -12.97 input  175.53 | X-H torsion
[ 8008 7997 7996 7995 ] final  138.69 input   59.86 | X-H torsion
[ 10167 10162 10161 10158 ] final  -94.09 input  -65.29 | X-H torsion
[ 10718 10713 10712 10709 ] final -148.08 input   66.30 | X-H torsion
[ 10763 10752 10751 10750 ] final -118.59 input  -60.55 | X-H torsion
[ 11005 11000 10999 10996 ] final -125.84 input  -57.11 | X-H torsion

> <Gold.Protein.ActiveResidues>
 VAL166  LYS551  ARG553  GLY616  TRP617  ASP618  TYR619  PRO620  LYS621  CYS622 
 ASP623  PHE694  ASN695  SER759  ASP760  ASP761  ALA762  ILE779  LEU786  VAL792 
 PHE793  MET794  SER795  GLU796  ALA797  LYS798  CYS799  TRP800  GLU811  SER814 

> <Gold.Protein.RotatedAtoms>
  152.5403  134.0523  159.8115 H   0  0  0  0  0  0  0  0  0  0  0  0  # atno 6907 bound_to 6896
  151.0663  133.5495  159.2637 H   0  0  0  0  0  0  0  0  0  0  0  0  # atno 6908 bound_to 6896
  151.2375  135.0585  159.9066 H   0  0  0  0  0  0  0  0  0  0  0  0  # atno 6909 bound_to 6896
  146.2132  140.3134  142.8384 H   0  0  0  0  0  0  0  0  0  0  0  0  # atno 7974 bound_to 7965
  156.2995  140.2387  156.4115 H   0  0  0  0  0  0  0  0  0  0  0  0  # atno 8008 bound_to 7997
  154.8436  140.0427  157.1578 H   0  0  0  0  0  0  0  0  0  0  0  0  # atno 8009 bound_to 7997
  154.9075  140.2985  155.5288 H   0  0  0  0  0  0  0  0  0  0  0  0  # atno 8010 bound_to 7997
  140.3180  143.3066  152.0077 H   0  0  0  0  0  0  0  0  0  0  0  0  # atno 10167 bound_to 10162
  156.4157  130.8003  151.2224 H   0  0  0  0  0  0  0  0  0  0  0  0  # atno 10718 bound_to 10713
  154.8592  135.4268  154.2163 H   0  0  0  0  0  0  0  0  0  0  0  0  # atno 10763 bound_to 10752
  153.3178  135.6980  153.7063 H   0  0  0  0  0  0  0  0  0  0  0  0  # atno 10764 bound_to 10752
  153.6130  135.3516  155.2959 H   0  0  0  0  0  0  0  0  0  0  0  0  # atno 10765 bound_to 10752
  140.9730  134.0780  157.3849 H   0  0  0  0  0  0  0  0  0  0  0  0  # atno 11005 bound_to 11000
  144.8971  140.7597  143.5890 LP  0  0  0  0  0  0  0  0  0  0  0  0  # atno 17320 bound_to 7965
  145.3059  139.1835  143.4665 LP  0  0  0  0  0  0  0  0  0  0  0  0  # atno 17321 bound_to 7965
  139.4880  144.6333  151.7026 LP  0  0  0  0  0  0  0  0  0  0  0  0  # atno 17342 bound_to 10162
  140.5509  144.0426  150.6127 LP  0  0  0  0  0  0  0  0  0  0  0  0  # atno 17343 bound_to 10162
  157.7508  131.0244  150.3874 LP  0  0  0  0  0  0  0  0  0  0  0  0  # atno 17370 bound_to 10713
  156.4181  130.3947  149.6844 LP  0  0  0  0  0  0  0  0  0  0  0  0  # atno 17371 bound_to 10713
  139.8919  135.0121  156.6818 LP  0  0  0  0  0  0  0  0  0  0  0  0  # atno 17394 bound_to 11000
  140.7301  133.9066  155.8205 LP  0  0  0  0  0  0  0  0  0  0  0  0  # atno 17395 bound_to 11000

$$$$
