AV-unprocessed.smi:1278|AV-procd|sdf|5350|dock1
  -GOLD-   22720 4483D 1   1.00000     0.00000
 Structure written by MMmdl.
 39 40  0  0  0  0  0  0  0  0  2 V2000
  144.0490  141.7116  157.2628 C   0  0  0  0  0  0  0  0  0  0  0  0
  144.6315  141.7693  155.8436 C   0  0  1  0  0  0  0  0  0  0  0  0
  145.4504  143.0526  155.6253 C   0  0  0  0  0  0  0  0  0  0  0  0
  146.0421  143.0709  154.2107 C   0  0  0  0  0  0  0  0  0  0  0  0
  146.8645  141.8009  153.9425 C   0  0  0  0  0  0  0  0  0  0  0  0
  146.0473  140.5784  154.1556 N   0  3  1  0  0  0  0  0  0  0  0  0
  146.7768  139.3446  153.7693 C   0  0  0  0  0  0  0  0  0  0  0  0
  145.8898  138.0863  153.8479 C   0  0  0  0  0  0  0  0  0  0  0  0
  146.3856  137.0257  152.9780 N   0  0  0  0  0  0  0  0  0  0  0  0
  145.6414  136.0162  152.5034 C   0  0  0  0  0  0  0  0  0  0  0  0
  144.4426  135.8864  152.7540 O   0  0  0  0  0  0  0  0  0  0  0  0
  146.3699  135.1896  151.7327 N   0  0  0  0  0  0  0  0  0  0  0  0
  145.9374  134.0261  151.0433 C   0  0  0  0  0  0  0  0  0  0  0  0
  146.7604  133.1096  150.5208 N   0  0  0  0  0  0  0  0  0  0  0  0
  146.0622  132.0699  149.9015 C   0  0  0  0  0  0  0  0  0  0  0  0
  144.6984  132.2116  149.9629 C   0  0  0  0  0  0  0  0  0  0  0  0
  144.2337  133.6650  150.8066 S   0  0  0  0  0  0  0  0  0  0  0  0
  145.4914  140.5270  155.5348 C   0  0  0  0  0  0  0  0  0  0  0  0
  144.8378  141.6988  158.0157 H   0  0  0  0  0  0  0  0  0  0  0  0
  143.4408  140.8176  157.4028 H   0  0  0  0  0  0  0  0  0  0  0  0
  143.4139  142.5756  157.4614 H   0  0  0  0  0  0  0  0  0  0  0  0
  143.7931  141.7808  155.1452 H   0  0  0  0  0  0  0  0  0  0  0  0
  144.8239  143.9325  155.7763 H   0  0  0  0  0  0  0  0  0  0  0  0
  146.2549  143.1123  156.3596 H   0  0  0  0  0  0  0  0  0  0  0  0
  145.2383  143.1497  153.4773 H   0  0  0  0  0  0  0  0  0  0  0  0
  146.6675  143.9546  154.0803 H   0  0  0  0  0  0  0  0  0  0  0  0
  147.2325  141.8269  152.9161 H   0  0  0  0  0  0  0  0  0  0  0  0
  147.7401  141.7733  154.5931 H   0  0  0  0  0  0  0  0  0  0  0  0
  147.1288  139.4524  152.7425 H   0  0  0  0  0  0  0  0  0  0  0  0
  147.6683  139.2305  154.3882 H   0  0  0  0  0  0  0  0  0  0  0  0
  145.8682  137.6874  154.8613 H   0  0  0  0  0  0  0  0  0  0  0  0
  144.8582  138.3284  153.5865 H   0  0  0  0  0  0  0  0  0  0  0  0
  147.3633  137.0577  152.7275 H   0  0  0  0  0  0  0  0  0  0  0  0
  147.3462  135.4202  151.6216 H   0  0  0  0  0  0  0  0  0  0  0  0
  146.6176  131.2665  149.4407 H   0  0  0  0  0  0  0  0  0  0  0  0
  143.9424  131.5511  149.5646 H   0  0  0  0  0  0  0  0  0  0  0  0
  146.3095  140.4457  156.2525 H   0  0  0  0  0  0  0  0  0  0  0  0
  144.8772  139.6356  155.6570 H   0  0  0  0  0  0  0  0  0  0  0  0
  145.2634  140.6540  153.5231 H   0  0  0  0  0  0  0  0  0  0  0  0
  1  2  1  0  0  0  0
  1 19  1  0  0  0  0
  1 20  1  0  0  0  0
  1 21  1  0  0  0  0
  2 18  1  0  0  0  0
  2  3  1  0  0  0  0
  2 22  1  0  0  0  0
  3  4  1  0  0  0  0
  3 23  1  0  0  0  0
  3 24  1  0  0  0  0
  4  5  1  0  0  0  0
  4 25  1  0  0  0  0
  4 26  1  0  0  0  0
  5  6  1  0  0  0  0
  5 27  1  0  0  0  0
  5 28  1  0  0  0  0
  6  7  1  0  0  0  0
  6 18  1  0  0  0  0
  6 39  1  0  0  0  0
  7  8  1  0  0  0  0
  7 29  1  0  0  0  0
  7 30  1  0  0  0  0
  8  9  1  0  0  0  0
  8 31  1  0  0  0  0
  8 32  1  0  0  0  0
  9 10  1  0  0  0  0
  9 33  1  0  0  0  0
 10 11  2  0  0  0  0
 10 12  1  0  0  0  0
 12 13  1  0  0  0  0
 12 34  1  0  0  0  0
 13 17  1  0  0  0  0
 13 14  2  0  0  0  0
 14 15  1  0  0  0  0
 15 16  2  0  0  0  0
 15 35  1  0  0  0  0
 16 17  1  0  0  0  0
 16 36  1  0  0  0  0
 18 37  1  0  0  0  0
 18 38  1  0  0  0  0
M  CHG  1   6   1
M  END
> <s_m_source_file>
AV-unprocessed.smi

> <i_m_source_file_index>
1278

> <i_lp_mmshare_version>
43012

> <i_f3d_flags>
0

> <s_epik_input>
W0NIM11bQ0BASF0xW0NIMl1bQ0gyXVtDSDJdTihbQ0gyXTEpW0NIMl1bQ0gyXVtOSF1DKD1PKVtOSF1jMm5bY0hdW2NIXXMy

> <s_epik_cmdline>
J2VwaWtfcHl0aG9uJywgJy1waCcsICc3LjAnLCAnLXRuJywgJzgnLCAnLW1hJywgJzIwMCcsICctbWV0YWxfYmluZGluZycsICctaW1hZScsICc8aW5maWxlLm1hZT4nLCAnLW9tYWUnLCAnPG91dGZpbGUubWFlPic=

> <r_lp_tautomer_probability>
0.999

> <r_epik_Ionization_Penalty>
0.00222194

> <r_epik_Ionization_Penalty_Charging>
0.00208169

> <r_epik_Ionization_Penalty_Neutral>
0.000140251

> <r_epik_State_Penalty>
0.00142585

> <r_epik_Charging_Adjusted_Penalty>
0.00350754

> <i_epik_Tot_Q>
1

> <i_epik_Tot_abs_Q>
1

> <r_epik_Metal_State_Penalty>
0.0570424

> <b_epik_Metal_Only>
0

> <s_lp_Force_Field>
OPLS_2005

> <r_lp_Energy>
13.7049

> <b_lp_Chiralities_Consistent>
1

> <s_lp_Variant>
AV-unprocessed.smi:1278-4

> <Gold.Version>
5.8.1

> <Gold.Id.Protein>
6NUR|6NUR_protein|mol2

> <Gold.PLP.Fitness>
43.1291

> <Gold.PLP.PLP>
-29.3851

> <Gold.PLP.part.hbond>
-3.0000

> <Gold.PLP.part.metal>
0.0000

> <Gold.PLP.part.buried>
-6.2987

> <Gold.PLP.part.nonpolar>
-21.3492

> <Gold.PLP.part.repulsive>
0.4288

> <Gold.PLP.ligand.clash>
0.0000

> <Gold.PLP.ligand.torsion>
0.3413

> <Gold.PLP.Chemscore.Hbond>
4.0000

> <Gold.PLP.Chemscore.CHOScore>
0.7848

> <Gold.PLP.Chemscore.Metal>
0.0000

> <Gold.Chemscore.Hbonds>
donor molecule, donor type, donor heavy atom, donor atom, acceptor molecule, acceptor atom, score
      L1  H     6    39       P1 10175  2.00
      L1  H     9    33       P1  7948  1.00
      L1  H    12    34       P1  7948  1.00
      L1  C    15    35       P1 10747  0.77

> <Gold.PLP.Chemscore.Internal.Correction>
0.0721

> <Gold.Rescore>
     Score         DG    S(hbond)    S(metal)    S(lipo)     H(rot)  DE(clash)    DE(int)     intcor
     16.76     -18.09       2.86        0.00      61.27       1.60       0.00       1.33       ----

> <Gold.Chemscore.Fitness>
16.7596

> <Gold.Chemscore.DG>
-18.0898

> <Gold.Chemscore.ZeroCoef>
-5.4800

> <Gold.Chemscore.Hbond>
2.8557

> <Gold.Chemscore.Metal>
0.0000

> <Gold.Chemscore.Lipo>
61.2656

> <Gold.Chemscore.Internal_Hbond>
0.0000

> <Gold.Chemscore.DEClash>
0.0029

> <Gold.Chemscore.DEInternal>
1.3273

> <Gold.Chemscore.Rot>
1.6001

> <Gold.Chemscore.Internal.Correction>
   9.000000E+99

> <Gold.Chemscore.Hbonds>
donor molecule, donor type, donor heavy atom, donor atom, acceptor molecule, acceptor atom, score
      L1  H     6    39       P1 10175  0.94
      L1  H     9    33       P1  7948  0.92
      L1  H    12    34       P1  7948  0.97

> <Gold.Chemscore.Hbond.Weighted>
-9.5380

> <Gold.Chemscore.Metal.Weighted>
-0.0000

> <Gold.Chemscore.Lipo.Weighted>
-7.1681

> <Gold.Chemscore.Internal_Hbond.Weighted>
0.0000

> <Gold.Chemscore.DEClash.Weighted>
0.0029

> <Gold.Chemscore.DEInternal.Weighted>
1.3273

> <Gold.Chemscore.Rot.Weighted>
4.0963

> <Gold.Chemscore.Internal.Correction.Weighted>
   9.000000E+99

> <Gold.Protein.RotatedTorsions>
[ 6907 6896 6895 6894 ] final   76.31 input  -60.11 | X-H torsion
[ 7974 7965 7964 7962 ] final  175.72 input  175.53 | X-H torsion
[ 8008 7997 7996 7995 ] final  145.98 input   59.86 | X-H torsion
[ 10167 10162 10161 10158 ] final -143.80 input  -65.29 | X-H torsion
[ 10718 10713 10712 10709 ] final   92.66 input   66.30 | X-H torsion
[ 10763 10752 10751 10750 ] final -111.01 input  -60.55 | X-H torsion
[ 11005 11000 10999 10996 ] final -112.77 input  -57.11 | X-H torsion

> <Gold.Protein.ActiveResidues>
 VAL166  LYS551  ARG553  GLY616  TRP617  ASP618  TYR619  PRO620  LYS621  CYS622 
 ASP623  PHE694  ASN695  SER759  ASP760  ASP761  ALA762  ILE779  LEU786  VAL792 
 PHE793  MET794  SER795  GLU796  ALA797  LYS798  CYS799  TRP800  GLU811  SER814 

> <Gold.Protein.RotatedAtoms>
  152.5067  134.3989  159.9409 H   0  0  0  0  0  0  0  0  0  0  0  0  # atno 6907 bound_to 6896
  151.3952  133.3769  159.2733 H   0  0  0  0  0  0  0  0  0  0  0  0  # atno 6908 bound_to 6896
  150.9403  134.8833  159.7667 H   0  0  0  0  0  0  0  0  0  0  0  0  # atno 6909 bound_to 6896
  144.7196  139.9989  143.6440 H   0  0  0  0  0  0  0  0  0  0  0  0  # atno 7974 bound_to 7965
  156.2868  140.2194  156.5303 H   0  0  0  0  0  0  0  0  0  0  0  0  # atno 8008 bound_to 7997
  154.7454  140.0484  157.0870 H   0  0  0  0  0  0  0  0  0  0  0  0  # atno 8009 bound_to 7997
  155.0177  140.3120  155.4808 H   0  0  0  0  0  0  0  0  0  0  0  0  # atno 8010 bound_to 7997
  139.7959  143.7901  152.2654 H   0  0  0  0  0  0  0  0  0  0  0  0  # atno 10167 bound_to 10162
  157.6958  131.0451  150.3915 H   0  0  0  0  0  0  0  0  0  0  0  0  # atno 10718 bound_to 10713
  154.8278  135.4543  154.0973 H   0  0  0  0  0  0  0  0  0  0  0  0  # atno 10763 bound_to 10752
  153.2272  135.6901  153.7938 H   0  0  0  0  0  0  0  0  0  0  0  0  # atno 10764 bound_to 10752
  153.7333  135.3323  155.3266 H   0  0  0  0  0  0  0  0  0  0  0  0  # atno 10765 bound_to 10752
  141.0655  133.9466  157.2586 H   0  0  0  0  0  0  0  0  0  0  0  0  # atno 11005 bound_to 11000
  146.0351  139.3370  143.0731 LP  0  0  0  0  0  0  0  0  0  0  0  0  # atno 17320 bound_to 7965
  145.8404  140.9584  143.0802 LP  0  0  0  0  0  0  0  0  0  0  0  0  # atno 17321 bound_to 7965
  139.8006  144.7375  150.9829 LP  0  0  0  0  0  0  0  0  0  0  0  0  # atno 17342 bound_to 10162
  140.7820  143.4348  151.0639 LP  0  0  0  0  0  0  0  0  0  0  0  0  # atno 17343 bound_to 10162
  156.4318  130.3973  149.6755 LP  0  0  0  0  0  0  0  0  0  0  0  0  # atno 17370 bound_to 10713
  156.3970  130.7655  151.2661 LP  0  0  0  0  0  0  0  0  0  0  0  0  # atno 17371 bound_to 10713
  139.9472  135.0182  156.8888 LP  0  0  0  0  0  0  0  0  0  0  0  0  # atno 17394 bound_to 11000
  140.5782  134.0378  155.7454 LP  0  0  0  0  0  0  0  0  0  0  0  0  # atno 17395 bound_to 11000

$$$$
