AV-unprocessed.smi:1794|AV-procd|sdf|7232|dock4
  -GOLD-   22720 8473D 1   1.00000     0.00000
 Structure written by MMmdl.
 54 56  0  0  0  0  0  0  0  0  1 V2000
  149.7394  138.5199  153.5210 C   0  0  0  0  0  0  0  0  0  0  0  0
  149.5560  139.3120  154.8410 C   0  0  0  0  0  0  0  0  0  0  0  0
  149.5385  138.2809  155.9953 C   0  0  0  0  0  0  0  0  0  0  0  0
  150.8402  140.1743  155.0122 C   0  0  0  0  0  0  0  0  0  0  0  0
  150.9985  140.6639  156.3811 N   0  0  0  0  0  0  0  0  0  0  0  0
  151.9859  140.3363  157.2254 C   0  0  0  0  0  0  0  0  0  0  0  0
  152.8859  139.5434  156.9501 O   0  0  0  0  0  0  0  0  0  0  0  0
  151.8460  140.9798  158.3963 N   0  0  0  0  0  0  0  0  0  0  0  0
  152.6282  140.8604  159.5808 C   0  0  0  0  0  0  0  0  0  0  0  0
  153.4284  139.7282  159.8707 C   0  0  0  0  0  0  0  0  0  0  0  0
  154.1775  139.7053  161.0612 C   0  0  0  0  0  0  0  0  0  0  0  0
  154.1095  140.8195  161.9165 C   0  0  0  0  0  0  0  0  0  0  0  0
  153.3664  141.9121  161.6475 N   0  0  0  0  0  0  0  0  0  0  0  0
  152.6414  141.9389  160.5025 C   0  0  0  0  0  0  0  0  0  0  0  0
  151.8821  143.0927  160.2377 N   0  0  0  0  0  0  0  0  0  0  0  0
  151.7578  144.0403  161.3320 C   0  0  0  0  0  0  0  0  0  0  0  0
  151.2099  145.3174  160.6926 C   0  0  0  0  0  0  0  0  0  0  0  0
  151.6259  145.2267  159.2188 C   0  0  0  0  0  0  0  0  0  0  0  0
  152.3106  143.8630  159.0823 C   0  0  0  0  0  0  0  0  0  0  0  0
  148.3276  140.1546  154.7937 N   0  0  0  0  0  0  0  0  0  0  0  0
  148.2729  141.1059  153.6770 C   0  0  0  0  0  0  0  0  0  0  0  0
  146.9294  141.8527  153.6188 C   0  0  0  0  0  0  0  0  0  0  0  0
  146.6988  142.5205  154.8530 O   0  0  0  0  0  0  0  0  0  0  0  0
  146.6841  141.6257  155.9585 C   0  0  0  0  0  0  0  0  0  0  0  0
  148.0241  140.8743  156.0363 C   0  0  0  0  0  0  0  0  0  0  0  0
  150.7179  138.0405  153.4753 H   0  0  0  0  0  0  0  0  0  0  0  0
  149.6555  139.1674  152.6475 H   0  0  0  0  0  0  0  0  0  0  0  0
  149.0054  137.7218  153.4111 H   0  0  0  0  0  0  0  0  0  0  0  0
  150.4451  137.6746  155.9915 H   0  0  0  0  0  0  0  0  0  0  0  0
  148.7003  137.5888  155.9176 H   0  0  0  0  0  0  0  0  0  0  0  0
  149.4854  138.7587  156.9733 H   0  0  0  0  0  0  0  0  0  0  0  0
  151.7344  139.6095  154.7499 H   0  0  0  0  0  0  0  0  0  0  0  0
  150.8250  141.0041  154.3031 H   0  0  0  0  0  0  0  0  0  0  0  0
  150.3079  141.3280  156.6991 H   0  0  0  0  0  0  0  0  0  0  0  0
  151.0179  141.5498  158.4888 H   0  0  0  0  0  0  0  0  0  0  0  0
  153.4944  138.8856  159.2004 H   0  0  0  0  0  0  0  0  0  0  0  0
  154.7943  138.8545  161.3102 H   0  0  0  0  0  0  0  0  0  0  0  0
  154.6732  140.8372  162.8373 H   0  0  0  0  0  0  0  0  0  0  0  0
  151.0915  143.6615  162.1077 H   0  0  0  0  0  0  0  0  0  0  0  0
  152.7304  144.2356  161.7861 H   0  0  0  0  0  0  0  0  0  0  0  0
  150.1219  145.3369  160.7675 H   0  0  0  0  0  0  0  0  0  0  0  0
  151.5932  146.2133  161.1820 H   0  0  0  0  0  0  0  0  0  0  0  0
  150.7450  145.2796  158.5778 H   0  0  0  0  0  0  0  0  0  0  0  0
  152.2963  146.0365  158.9297 H   0  0  0  0  0  0  0  0  0  0  0  0
  153.3947  143.9845  159.0856 H   0  0  0  0  0  0  0  0  0  0  0  0
  152.0304  143.3644  158.1541 H   0  0  0  0  0  0  0  0  0  0  0  0
  149.0774  141.8366  153.7636 H   0  0  0  0  0  0  0  0  0  0  0  0
  148.4079  140.5974  152.7243 H   0  0  0  0  0  0  0  0  0  0  0  0
  146.9384  142.5870  152.8132 H   0  0  0  0  0  0  0  0  0  0  0  0
  146.1118  141.1603  153.4117 H   0  0  0  0  0  0  0  0  0  0  0  0
  146.5153  142.1936  156.8735 H   0  0  0  0  0  0  0  0  0  0  0  0
  145.8539  140.9248  155.8581 H   0  0  0  0  0  0  0  0  0  0  0  0
  147.9700  140.1887  156.8799 H   0  0  0  0  0  0  0  0  0  0  0  0
  148.8143  141.5912  156.2600 H   0  0  0  0  0  0  0  0  0  0  0  0
  1  2  1  0  0  0  0
  1 26  1  0  0  0  0
  1 27  1  0  0  0  0
  1 28  1  0  0  0  0
  2  3  1  0  0  0  0
  2  4  1  0  0  0  0
  2 20  1  0  0  0  0
  3 29  1  0  0  0  0
  3 30  1  0  0  0  0
  3 31  1  0  0  0  0
  4  5  1  0  0  0  0
  4 32  1  0  0  0  0
  4 33  1  0  0  0  0
  5  6  1  0  0  0  0
  5 34  1  0  0  0  0
  6  7  2  0  0  0  0
  6  8  1  0  0  0  0
  8  9  1  0  0  0  0
  8 35  1  0  0  0  0
  9 14  1  0  0  0  0
  9 10  2  0  0  0  0
 10 11  1  0  0  0  0
 10 36  1  0  0  0  0
 11 12  2  0  0  0  0
 11 37  1  0  0  0  0
 12 13  1  0  0  0  0
 12 38  1  0  0  0  0
 13 14  2  0  0  0  0
 14 15  1  0  0  0  0
 15 19  1  0  0  0  0
 15 16  1  0  0  0  0
 16 17  1  0  0  0  0
 16 39  1  0  0  0  0
 16 40  1  0  0  0  0
 17 18  1  0  0  0  0
 17 41  1  0  0  0  0
 17 42  1  0  0  0  0
 18 19  1  0  0  0  0
 18 43  1  0  0  0  0
 18 44  1  0  0  0  0
 19 45  1  0  0  0  0
 19 46  1  0  0  0  0
 20 25  1  0  0  0  0
 20 21  1  0  0  0  0
 21 22  1  0  0  0  0
 21 47  1  0  0  0  0
 21 48  1  0  0  0  0
 22 23  1  0  0  0  0
 22 49  1  0  0  0  0
 22 50  1  0  0  0  0
 23 24  1  0  0  0  0
 24 25  1  0  0  0  0
 24 51  1  0  0  0  0
 24 52  1  0  0  0  0
 25 53  1  0  0  0  0
 25 54  1  0  0  0  0
M  END
> <s_m_source_file>
AV-unprocessed.smi

> <i_m_source_file_index>
1794

> <i_lp_mmshare_version>
43012

> <i_f3d_flags>
0

> <s_epik_input>
W0NIMl0xW0NIMl1PW0NIMl1bQ0gyXU4xQyhbQ0gzXSkoW0NIM10pW0NIMl1bTkhdQyg9TylbTkhdYzJbY0hdW2NIXVtjSF1uYzJOM1tDSDJdW0NIMl1bQ0gyXVtDSDJdMw==

> <s_epik_cmdline>
J2VwaWtfcHl0aG9uJywgJy1waCcsICc3LjAnLCAnLXRuJywgJzgnLCAnLW1hJywgJzIwMCcsICctbWV0YWxfYmluZGluZycsICctaW1hZScsICc8aW5maWxlLm1hZT4nLCAnLW9tYWUnLCAnPG91dGZpbGUubWFlPic=

> <r_lp_tautomer_probability>
1

> <r_epik_Ionization_Penalty>
0.366523

> <r_epik_Ionization_Penalty_Charging>
0

> <r_epik_Ionization_Penalty_Neutral>
0.366523

> <r_epik_State_Penalty>
0.351681

> <r_epik_Charging_Adjusted_Penalty>
0.351681

> <i_epik_Tot_Q>
0

> <i_epik_Tot_abs_Q>
0

> <r_epik_Metal_State_Penalty>
0.334668

> <b_epik_Metal_Only>
0

> <s_lp_Force_Field>
OPLS_2005

> <r_lp_Energy>
72.3516

> <b_lp_Chiralities_Consistent>
1

> <s_lp_Variant>
AV-unprocessed.smi:1794-1

> <Gold.Version>
5.8.1

> <Gold.Id.Protein>
6NUR|6NUR_protein|mol2

> <Gold.PLP.Fitness>
47.7950

> <Gold.PLP.PLP>
-45.5831

> <Gold.PLP.part.hbond>
-1.0000

> <Gold.PLP.part.metal>
0.0000

> <Gold.PLP.part.buried>
-3.3409

> <Gold.PLP.part.nonpolar>
-41.9709

> <Gold.PLP.part.repulsive>
1.0833

> <Gold.PLP.ligand.clash>
0.0055

> <Gold.PLP.ligand.torsion>
0.4491

> <Gold.PLP.Chemscore.Hbond>
1.0000

> <Gold.PLP.Chemscore.CHOScore>
0.0000

> <Gold.PLP.Chemscore.Metal>
0.0000

> <Gold.Chemscore.Hbonds>
donor molecule, donor type, donor heavy atom, donor atom, acceptor molecule, acceptor atom, score
      P1  H  7997  8009       L1     7  1.00

> <Gold.PLP.Chemscore.Internal.Correction>
0.1156

> <Gold.Rescore>
     Score         DG    S(hbond)    S(metal)    S(lipo)     H(rot)  DE(clash)    DE(int)     intcor
     14.47     -17.98       0.78        0.00     118.36       1.55       0.67       2.84       ----

> <Gold.Chemscore.Fitness>
14.4660

> <Gold.Chemscore.DG>
-17.9804

> <Gold.Chemscore.ZeroCoef>
-5.4800

> <Gold.Chemscore.Hbond>
0.7838

> <Gold.Chemscore.Metal>
0.0000

> <Gold.Chemscore.Lipo>
118.3615

> <Gold.Chemscore.Internal_Hbond>
0.0000

> <Gold.Chemscore.DEClash>
0.6738

> <Gold.Chemscore.DEInternal>
2.8406

> <Gold.Chemscore.Rot>
1.5491

> <Gold.Chemscore.Internal.Correction>
   9.000000E+99

> <Gold.Chemscore.Hbonds>
donor molecule, donor type, donor heavy atom, donor atom, acceptor molecule, acceptor atom, score
      P1  H  7997  8009       L1     7  0.97

> <Gold.Chemscore.Hbond.Weighted>
-2.6179

> <Gold.Chemscore.Metal.Weighted>
-0.0000

> <Gold.Chemscore.Lipo.Weighted>
-13.8483

> <Gold.Chemscore.Internal_Hbond.Weighted>
0.0000

> <Gold.Chemscore.DEClash.Weighted>
0.6738

> <Gold.Chemscore.DEInternal.Weighted>
2.8406

> <Gold.Chemscore.Rot.Weighted>
3.9657

> <Gold.Chemscore.Internal.Correction.Weighted>
   9.000000E+99

> <Gold.Protein.RotatedTorsions>
[ 6907 6896 6895 6894 ] final  157.40 input  -60.11 | X-H torsion
[ 7974 7965 7964 7962 ] final -156.49 input  175.53 | X-H torsion
[ 8008 7997 7996 7995 ] final  177.51 input   59.86 | X-H torsion
[ 10167 10162 10161 10158 ] final  135.86 input  -65.29 | X-H torsion
[ 10718 10713 10712 10709 ] final -156.44 input   66.30 | X-H torsion
[ 10763 10752 10751 10750 ] final   44.48 input  -60.55 | X-H torsion
[ 11005 11000 10999 10996 ] final   74.67 input  -57.11 | X-H torsion

> <Gold.Protein.ActiveResidues>
 VAL166  LYS551  ARG553  GLY616  TRP617  ASP618  TYR619  PRO620  LYS621  CYS622 
 ASP623  PHE694  ASN695  SER759  ASP760  ASP761  ALA762  ILE779  LEU786  VAL792 
 PHE793  MET794  SER795  GLU796  ALA797  LYS798  CYS799  TRP800  GLU811  SER814 

> <Gold.Protein.RotatedAtoms>
  152.0156  133.3878  159.4237 H   0  0  0  0  0  0  0  0  0  0  0  0  # atno 6907 bound_to 6896
  150.6895  134.3682  159.4989 H   0  0  0  0  0  0  0  0  0  0  0  0  # atno 6908 bound_to 6896
  152.1449  134.9033  160.0602 H   0  0  0  0  0  0  0  0  0  0  0  0  # atno 6909 bound_to 6896
  144.7591  140.4102  143.5990 H   0  0  0  0  0  0  0  0  0  0  0  0  # atno 7974 bound_to 7965
  156.0649  140.1356  156.9898 H   0  0  0  0  0  0  0  0  0  0  0  0  # atno 8008 bound_to 7997
  154.4501  140.0984  156.6643 H   0  0  0  0  0  0  0  0  0  0  0  0  # atno 8009 bound_to 7997
  155.5320  140.3459  155.4430 H   0  0  0  0  0  0  0  0  0  0  0  0  # atno 8010 bound_to 7997
  139.5201  144.6495  151.5343 H   0  0  0  0  0  0  0  0  0  0  0  0  # atno 10167 bound_to 10162
  156.5265  130.8501  151.2701 H   0  0  0  0  0  0  0  0  0  0  0  0  # atno 10718 bound_to 10713
  152.9840  135.6069  154.3281 H   0  0  0  0  0  0  0  0  0  0  0  0  # atno 10763 bound_to 10752
  154.2987  135.2773  155.2623 H   0  0  0  0  0  0  0  0  0  0  0  0  # atno 10764 bound_to 10752
  154.4885  135.5898  153.6498 H   0  0  0  0  0  0  0  0  0  0  0  0  # atno 10765 bound_to 10752
  139.9380  134.7452  156.1176 H   0  0  0  0  0  0  0  0  0  0  0  0  # atno 11005 bound_to 11000
  145.6680  139.1594  143.2770 LP  0  0  0  0  0  0  0  0  0  0  0  0  # atno 17320 bound_to 7965
  146.1634  140.6754  142.9267 LP  0  0  0  0  0  0  0  0  0  0  0  0  # atno 17321 bound_to 7965
  140.6294  143.9106  150.6592 LP  0  0  0  0  0  0  0  0  0  0  0  0  # atno 17342 bound_to 10162
  140.2405  143.3667  152.1490 LP  0  0  0  0  0  0  0  0  0  0  0  0  # atno 17343 bound_to 10162
  157.7428  130.9899  150.2548 LP  0  0  0  0  0  0  0  0  0  0  0  0  # atno 17370 bound_to 10713
  156.3100  130.3770  149.7670 LP  0  0  0  0  0  0  0  0  0  0  0  0  # atno 17371 bound_to 10713
  141.1002  133.6680  156.2738 LP  0  0  0  0  0  0  0  0  0  0  0  0  # atno 17394 bound_to 11000
  140.6025  134.5540  157.5520 LP  0  0  0  0  0  0  0  0  0  0  0  0  # atno 17395 bound_to 11000

$$$$
