AV-unprocessed.smi:1671|AV-procd|sdf|6698|dock4
  -GOLD-   22720 7433D 1   1.00000     0.00000
 Structure written by MMmdl.
 44 45  0  0  0  0  0  0  0  0  1 V2000
  149.6804  132.6531  153.4917 C   0  0  0  0  0  0  0  0  0  0  0  0
  150.7603  134.0417  153.0510 S   0  0  0  0  0  0  0  0  0  0  0  0
  150.8754  134.9087  154.6445 C   0  0  1  0  0  0  0  0  0  0  0  0
  151.4577  133.9748  155.7171 C   0  0  0  0  0  0  0  0  0  0  0  0
  151.6931  136.2015  154.5347 C   0  0  0  0  0  0  0  0  0  0  0  0
  152.7052  136.3581  155.2186 O   0  0  0  0  0  0  0  0  0  0  0  0
  151.2451  137.1213  153.6658 N   0  0  0  0  0  0  0  0  0  0  0  0
  151.8762  138.4136  153.4177 C   0  0  0  0  0  0  0  0  0  0  0  0
  151.8113  139.3826  154.5904 C   0  0  0  0  0  0  0  0  0  0  0  0
  150.7037  140.2293  154.8063 C   0  0  0  0  0  0  0  0  0  0  0  0
  150.7148  141.1018  155.9109 C   0  0  0  0  0  0  0  0  0  0  0  0
  151.8363  141.1101  156.7742 C   0  0  0  0  0  0  0  0  0  0  0  0
  151.8658  141.9727  157.8917 N   0  0  0  0  0  0  0  0  0  0  0  0
  150.6569  142.7620  158.1129 C   0  0  0  0  0  0  0  0  0  0  0  0
  150.9218  143.8659  159.1502 C   0  0  0  0  0  0  0  0  0  0  0  0
  151.4350  143.2899  160.3469 O   0  0  0  0  0  0  0  0  0  0  0  0
  152.6738  142.6200  160.1319 C   0  0  1  0  0  0  0  0  0  0  0  0
  153.1896  142.1156  161.4837 C   0  0  0  0  0  0  0  0  0  0  0  0
  152.4596  141.4700  159.1294 C   0  0  0  0  0  0  0  0  0  0  0  0
  152.9057  140.3059  156.5535 N   0  0  0  0  0  0  0  0  0  0  0  0
  152.8888  139.4696  155.4945 C   0  0  0  0  0  0  0  0  0  0  0  0
  149.5465  131.9972  152.6317 H   0  0  0  0  0  0  0  0  0  0  0  0
  148.6995  133.0099  153.8051 H   0  0  0  0  0  0  0  0  0  0  0  0
  150.1173  132.0722  154.3039 H   0  0  0  0  0  0  0  0  0  0  0  0
  149.8586  135.1622  154.9486 H   0  0  0  0  0  0  0  0  0  0  0  0
  151.5472  134.4815  156.6788 H   0  0  0  0  0  0  0  0  0  0  0  0
  152.4469  133.6094  155.4381 H   0  0  0  0  0  0  0  0  0  0  0  0
  150.8159  133.1060  155.8646 H   0  0  0  0  0  0  0  0  0  0  0  0
  150.4089  136.9119  153.1400 H   0  0  0  0  0  0  0  0  0  0  0  0
  152.9158  138.2616  153.1222 H   0  0  0  0  0  0  0  0  0  0  0  0
  151.3793  138.8762  152.5650 H   0  0  0  0  0  0  0  0  0  0  0  0
  149.8547  140.2191  154.1387 H   0  0  0  0  0  0  0  0  0  0  0  0
  149.8743  141.7599  156.0736 H   0  0  0  0  0  0  0  0  0  0  0  0
  150.2970  143.2204  157.1929 H   0  0  0  0  0  0  0  0  0  0  0  0
  149.8659  142.0999  158.4677 H   0  0  0  0  0  0  0  0  0  0  0  0
  151.6218  144.6065  158.7599 H   0  0  0  0  0  0  0  0  0  0  0  0
  149.9962  144.3938  159.3799 H   0  0  0  0  0  0  0  0  0  0  0  0
  153.3984  143.3290  159.7273 H   0  0  0  0  0  0  0  0  0  0  0  0
  154.1438  141.6000  161.3721 H   0  0  0  0  0  0  0  0  0  0  0  0
  152.4850  141.4203  161.9406 H   0  0  0  0  0  0  0  0  0  0  0  0
  153.3382  142.9434  162.1775 H   0  0  0  0  0  0  0  0  0  0  0  0
  151.8043  140.7116  159.5603 H   0  0  0  0  0  0  0  0  0  0  0  0
  153.4174  140.9923  158.9187 H   0  0  0  0  0  0  0  0  0  0  0  0
  153.7645  138.8503  155.3668 H   0  0  0  0  0  0  0  0  0  0  0  0
  1  2  1  0  0  0  0
  1 22  1  0  0  0  0
  1 23  1  0  0  0  0
  1 24  1  0  0  0  0
  2  3  1  0  0  0  0
  3  4  1  0  0  0  0
  3  5  1  0  0  0  0
  3 25  1  0  0  0  0
  4 26  1  0  0  0  0
  4 27  1  0  0  0  0
  4 28  1  0  0  0  0
  5  6  2  0  0  0  0
  5  7  1  0  0  0  0
  7  8  1  0  0  0  0
  7 29  1  0  0  0  0
  8  9  1  0  0  0  0
  8 30  1  0  0  0  0
  8 31  1  0  0  0  0
  9 21  1  0  0  0  0
  9 10  2  0  0  0  0
 10 11  1  0  0  0  0
 10 32  1  0  0  0  0
 11 12  2  0  0  0  0
 11 33  1  0  0  0  0
 12 13  1  0  0  0  0
 12 20  1  0  0  0  0
 13 19  1  0  0  0  0
 13 14  1  0  0  0  0
 14 15  1  0  0  0  0
 14 34  1  0  0  0  0
 14 35  1  0  0  0  0
 15 16  1  0  0  0  0
 15 36  1  0  0  0  0
 15 37  1  0  0  0  0
 16 17  1  0  0  0  0
 17 18  1  0  0  0  0
 17 19  1  0  0  0  0
 17 38  1  0  0  0  0
 18 39  1  0  0  0  0
 18 40  1  0  0  0  0
 18 41  1  0  0  0  0
 19 42  1  0  0  0  0
 19 43  1  0  0  0  0
 20 21  2  0  0  0  0
 21 44  1  0  0  0  0
M  END
> <s_m_source_file>
AV-unprocessed.smi

> <i_m_source_file_index>
1671

> <i_lp_mmshare_version>
43012

> <i_f3d_flags>
0

> <s_epik_input>
W0NIM11TW0NASF0oW0NIM10pQyg9TylbTkhdW0NIMl1jMVtjSF1bY0hdYyhuW2NIXTEpTjJbQ0gyXVtDSDJdT1tDQEBIXShbQ0gzXSlbQ0gyXTI=

> <s_epik_cmdline>
J2VwaWtfcHl0aG9uJywgJy1waCcsICc3LjAnLCAnLXRuJywgJzgnLCAnLW1hJywgJzIwMCcsICctbWV0YWxfYmluZGluZycsICctaW1hZScsICc8aW5maWxlLm1hZT4nLCAnLW9tYWUnLCAnPG91dGZpbGUubWFlPic=

> <r_lp_tautomer_probability>
1

> <r_epik_Ionization_Penalty>
0.00480033

> <r_epik_Ionization_Penalty_Charging>
0

> <r_epik_Ionization_Penalty_Neutral>
0.00480033

> <r_epik_State_Penalty>
0.00347981

> <r_epik_Charging_Adjusted_Penalty>
0.00347981

> <i_epik_Tot_Q>
0

> <i_epik_Tot_abs_Q>
0

> <r_epik_Metal_State_Penalty>
-0

> <b_epik_Metal_Only>
0

> <s_lp_Force_Field>
OPLS_2005

> <r_lp_Energy>
15.4739

> <b_lp_Chiralities_Consistent>
1

> <s_lp_Variant>
AV-unprocessed.smi:1671-2

> <Gold.Version>
5.8.1

> <Gold.Id.Protein>
6NUR|6NUR_protein|mol2

> <Gold.PLP.Fitness>
46.4312

> <Gold.PLP.PLP>
-42.3472

> <Gold.PLP.part.hbond>
-4.0000

> <Gold.PLP.part.metal>
0.0000

> <Gold.PLP.part.buried>
-3.3723

> <Gold.PLP.part.nonpolar>
-35.7463

> <Gold.PLP.part.repulsive>
0.1629

> <Gold.PLP.ligand.clash>
0.0000

> <Gold.PLP.ligand.torsion>
0.7115

> <Gold.PLP.Chemscore.Hbond>
1.7129

> <Gold.PLP.Chemscore.CHOScore>
0.0000

> <Gold.PLP.Chemscore.Metal>
0.0000

> <Gold.Chemscore.Hbonds>
donor molecule, donor type, donor heavy atom, donor atom, acceptor molecule, acceptor atom, score
      L1  H     7    29       P1  7948  0.30
      P1  H  7997  8008       L1    20  0.39

> <Gold.PLP.Chemscore.Internal.Correction>
0.3682

> <Gold.Rescore>
     Score         DG    S(hbond)    S(metal)    S(lipo)     H(rot)  DE(clash)    DE(int)     intcor
     16.47     -17.24       1.32        0.00      98.49       1.63       0.04       0.73       ----

> <Gold.Chemscore.Fitness>
16.4738

> <Gold.Chemscore.DG>
-17.2427

> <Gold.Chemscore.ZeroCoef>
-5.4800

> <Gold.Chemscore.Hbond>
1.3189

> <Gold.Chemscore.Metal>
0.0000

> <Gold.Chemscore.Lipo>
98.4886

> <Gold.Chemscore.Internal_Hbond>
0.0000

> <Gold.Chemscore.DEClash>
0.0402

> <Gold.Chemscore.DEInternal>
0.7287

> <Gold.Chemscore.Rot>
1.6272

> <Gold.Chemscore.Internal.Correction>
   9.000000E+99

> <Gold.Chemscore.Hbonds>
donor molecule, donor type, donor heavy atom, donor atom, acceptor molecule, acceptor atom, score
      P1  H  7997  8008       L1    20  0.04

> <Gold.Chemscore.Hbond.Weighted>
-4.4053

> <Gold.Chemscore.Metal.Weighted>
-0.0000

> <Gold.Chemscore.Lipo.Weighted>
-11.5232

> <Gold.Chemscore.Internal_Hbond.Weighted>
0.0000

> <Gold.Chemscore.DEClash.Weighted>
0.0402

> <Gold.Chemscore.DEInternal.Weighted>
0.7287

> <Gold.Chemscore.Rot.Weighted>
4.1657

> <Gold.Chemscore.Internal.Correction.Weighted>
   9.000000E+99

> <Gold.Protein.RotatedTorsions>
[ 6907 6896 6895 6894 ] final -125.31 input  -60.11 | X-H torsion
[ 7974 7965 7964 7962 ] final  101.91 input  175.53 | X-H torsion
[ 8008 7997 7996 7995 ] final  -75.85 input   59.86 | X-H torsion
[ 10167 10162 10161 10158 ] final -120.06 input  -65.29 | X-H torsion
[ 10718 10713 10712 10709 ] final   62.54 input   66.30 | X-H torsion
[ 10763 10752 10751 10750 ] final   40.03 input  -60.55 | X-H torsion
[ 11005 11000 10999 10996 ] final    6.74 input  -57.11 | X-H torsion

> <Gold.Protein.ActiveResidues>
 VAL166  LYS551  ARG553  GLY616  TRP617  ASP618  TYR619  PRO620  LYS621  CYS622 
 ASP623  PHE694  ASN695  SER759  ASP760  ASP761  ALA762  ILE779  LEU786  VAL792 
 PHE793  MET794  SER795  GLU796  ALA797  LYS798  CYS799  TRP800  GLU811  SER814 

> <Gold.Protein.RotatedAtoms>
  150.8855  133.7313  159.2919 H   0  0  0  0  0  0  0  0  0  0  0  0  # atno 6907 bound_to 6896
  151.4881  135.1054  159.9805 H   0  0  0  0  0  0  0  0  0  0  0  0  # atno 6908 bound_to 6896
  152.4787  133.8155  159.7081 H   0  0  0  0  0  0  0  0  0  0  0  0  # atno 6909 bound_to 6896
  145.3661  139.2407  143.3480 H   0  0  0  0  0  0  0  0  0  0  0  0  # atno 7974 bound_to 7965
  154.5453  140.0737  156.8578 H   0  0  0  0  0  0  0  0  0  0  0  0  # atno 8008 bound_to 7997
  155.3099  140.3389  155.4226 H   0  0  0  0  0  0  0  0  0  0  0  0  # atno 8009 bound_to 7997
  156.1912  140.1687  156.8074 H   0  0  0  0  0  0  0  0  0  0  0  0  # atno 8010 bound_to 7997
  140.0399  143.5164  152.2135 H   0  0  0  0  0  0  0  0  0  0  0  0  # atno 10167 bound_to 10162
  157.5908  130.9056  149.9601 H   0  0  0  0  0  0  0  0  0  0  0  0  # atno 10718 bound_to 10713
  152.9949  135.6203  154.2560 H   0  0  0  0  0  0  0  0  0  0  0  0  # atno 10763 bound_to 10752
  154.2297  135.2792  155.2896 H   0  0  0  0  0  0  0  0  0  0  0  0  # atno 10764 bound_to 10752
  154.5460  135.5747  153.6938 H   0  0  0  0  0  0  0  0  0  0  0  0  # atno 10765 bound_to 10752
  140.5561  134.0237  155.7954 H   0  0  0  0  0  0  0  0  0  0  0  0  # atno 11005 bound_to 11000
  146.2906  140.4304  142.8741 LP  0  0  0  0  0  0  0  0  0  0  0  0  # atno 17320 bound_to 7965
  144.8610  140.7140  143.6107 LP  0  0  0  0  0  0  0  0  0  0  0  0  # atno 17321 bound_to 7965
  139.6021  144.7585  151.3148 LP  0  0  0  0  0  0  0  0  0  0  0  0  # atno 17342 bound_to 10162
  140.7265  143.6989  150.7861 LP  0  0  0  0  0  0  0  0  0  0  0  0  # atno 17343 bound_to 10162
  156.0962  130.3659  150.0301 LP  0  0  0  0  0  0  0  0  0  0  0  0  # atno 17370 bound_to 10713
  156.8424  130.9430  151.3631 LP  0  0  0  0  0  0  0  0  0  0  0  0  # atno 17371 bound_to 10713
  141.1143  133.9566  157.2852 LP  0  0  0  0  0  0  0  0  0  0  0  0  # atno 17394 bound_to 11000
  139.9431  135.0188  156.8769 LP  0  0  0  0  0  0  0  0  0  0  0  0  # atno 17395 bound_to 11000

$$$$
