AV-unprocessed.smi:2119|AV-procd|sdf|8630|dock2
  -GOLD-   2272011373D 1   1.00000     0.00000
 Structure written by MMmdl.
 47 49  0  0  0  0  0  0  0  0  1 V2000
  145.3681  137.2546  153.8697 O   0  0  0  0  0  0  0  0  0  0  0  0
  146.4198  137.0251  153.2730 C   0  0  0  0  0  0  0  0  0  0  0  0
  146.6713  135.8719  152.6380 N   0  0  0  0  0  0  0  0  0  0  0  0
  145.7551  134.7365  152.5626 C   0  0  0  0  0  0  0  0  0  0  0  0
  146.2272  133.6132  151.5859 C   0  0  2  0  0  0  0  0  0  0  0  0
  145.0421  133.2404  150.6307 C   0  0  2  0  0  0  0  0  0  0  0  0
  143.7292  132.8847  151.3178 C   0  0  0  0  0  0  0  0  0  0  0  0
  142.9552  132.1075  150.2469 C   0  0  0  0  0  0  0  0  0  0  0  0
  143.8613  131.9228  149.1639 O   0  0  0  0  0  0  0  0  0  0  0  0
  145.1804  132.0657  149.6626 C   0  0  0  0  0  0  0  0  0  0  0  0
  146.8553  132.4359  152.2393 N   0  0  0  0  0  0  0  0  0  0  0  0
  148.0568  132.8089  152.9977 C   0  0  0  0  0  0  0  0  0  0  0  0
  148.7751  131.5854  153.5900 C   0  0  0  0  0  0  0  0  0  0  0  0
  147.8809  130.8862  154.4469 O   0  0  0  0  0  0  0  0  0  0  0  0
  146.6965  130.4744  153.7758 C   0  0  0  0  0  0  0  0  0  0  0  0
  145.9884  131.6967  153.1631 C   0  0  0  0  0  0  0  0  0  0  0  0
  147.4655  137.8645  153.1835 N   0  0  0  0  0  0  0  0  0  0  0  0
  147.5994  139.1787  153.7081 C   0  0  0  0  0  0  0  0  0  0  0  0
  148.8342  139.7857  154.0437 C   0  0  0  0  0  0  0  0  0  0  0  0
  148.8283  141.0908  154.5731 C   0  0  0  0  0  0  0  0  0  0  0  0
  147.5907  141.7379  154.7547 C   0  0  0  0  0  0  0  0  0  0  0  0
  146.4060  141.1671  154.4512 N   0  0  0  0  0  0  0  0  0  0  0  0
  146.4196  139.9160  153.9440 C   0  0  0  0  0  0  0  0  0  0  0  0
  147.5635  135.7664  152.1777 H   0  0  0  0  0  0  0  0  0  0  0  0
  145.6401  134.3530  153.5773 H   0  0  0  0  0  0  0  0  0  0  0  0
  144.7766  135.1155  152.2665 H   0  0  0  0  0  0  0  0  0  0  0  0
  146.9928  134.0793  150.9638 H   0  0  0  0  0  0  0  0  0  0  0  0
  144.8471  134.1052  149.9948 H   0  0  0  0  0  0  0  0  0  0  0  0
  143.9096  132.2448  152.1828 H   0  0  0  0  0  0  0  0  0  0  0  0
  143.1845  133.7653  151.6591 H   0  0  0  0  0  0  0  0  0  0  0  0
  142.6267  131.1406  150.6300 H   0  0  0  0  0  0  0  0  0  0  0  0
  142.0766  132.6528  149.9017 H   0  0  0  0  0  0  0  0  0  0  0  0
  145.8974  132.2492  148.8620 H   0  0  0  0  0  0  0  0  0  0  0  0
  145.4352  131.1363  150.1726 H   0  0  0  0  0  0  0  0  0  0  0  0
  148.7645  133.3714  152.3986 H   0  0  0  0  0  0  0  0  0  0  0  0
  147.7770  133.4778  153.8135 H   0  0  0  0  0  0  0  0  0  0  0  0
  149.1323  130.9241  152.7990 H   0  0  0  0  0  0  0  0  0  0  0  0
  149.6462  131.8986  154.1655 H   0  0  0  0  0  0  0  0  0  0  0  0
  146.9451  129.7464  153.0019 H   0  0  0  0  0  0  0  0  0  0  0  0
  146.0402  129.9734  154.4873 H   0  0  0  0  0  0  0  0  0  0  0  0
  145.6439  132.3557  153.9617 H   0  0  0  0  0  0  0  0  0  0  0  0
  145.1032  131.3304  152.6439 H   0  0  0  0  0  0  0  0  0  0  0  0
  148.2872  137.4995  152.7243 H   0  0  0  0  0  0  0  0  0  0  0  0
  149.7782  139.2790  153.9206 H   0  0  0  0  0  0  0  0  0  0  0  0
  149.7523  141.5830  154.8383 H   0  0  0  0  0  0  0  0  0  0  0  0
  147.5511  142.7382  155.1599 H   0  0  0  0  0  0  0  0  0  0  0  0
  145.4533  139.4908  153.7148 H   0  0  0  0  0  0  0  0  0  0  0  0
  1  2  2  0  0  0  0
  2  3  1  0  0  0  0
  2 17  1  0  0  0  0
  3  4  1  0  0  0  0
  3 24  1  0  0  0  0
  4  5  1  0  0  0  0
  4 25  1  0  0  0  0
  4 26  1  0  0  0  0
  5  6  1  0  0  0  0
  5 11  1  0  0  0  0
  5 27  1  0  0  0  0
  6 10  1  0  0  0  0
  6  7  1  0  0  0  0
  6 28  1  0  0  0  0
  7  8  1  0  0  0  0
  7 29  1  0  0  0  0
  7 30  1  0  0  0  0
  8  9  1  0  0  0  0
  8 31  1  0  0  0  0
  8 32  1  0  0  0  0
  9 10  1  0  0  0  0
 10 33  1  0  0  0  0
 10 34  1  0  0  0  0
 11 16  1  0  0  0  0
 11 12  1  0  0  0  0
 12 13  1  0  0  0  0
 12 35  1  0  0  0  0
 12 36  1  0  0  0  0
 13 14  1  0  0  0  0
 13 37  1  0  0  0  0
 13 38  1  0  0  0  0
 14 15  1  0  0  0  0
 15 16  1  0  0  0  0
 15 39  1  0  0  0  0
 15 40  1  0  0  0  0
 16 41  1  0  0  0  0
 16 42  1  0  0  0  0
 17 18  1  0  0  0  0
 17 43  1  0  0  0  0
 18 23  1  0  0  0  0
 18 19  2  0  0  0  0
 19 20  1  0  0  0  0
 19 44  1  0  0  0  0
 20 21  2  0  0  0  0
 20 45  1  0  0  0  0
 21 22  1  0  0  0  0
 21 46  1  0  0  0  0
 22 23  2  0  0  0  0
 23 47  1  0  0  0  0
M  END
> <s_m_source_file>
AV-unprocessed.smi

> <i_m_source_file_index>
2119

> <i_lp_mmshare_version>
43012

> <i_f3d_flags>
0

> <s_epik_input>
W2NIXTFuW2NIXVtjSF1bY0hdYzFbTkhdQyg9TylbTkhdW0NIMl1bQ0BIXShbQ0BASF0yW0NIMl1bQ0gyXU9bQ0gyXTIpTjNbQ0gyXVtDSDJdT1tDSDJdW0NIMl0z

> <s_epik_cmdline>
J2VwaWtfcHl0aG9uJywgJy1waCcsICc3LjAnLCAnLXRuJywgJzgnLCAnLW1hJywgJzIwMCcsICctbWV0YWxfYmluZGluZycsICctaW1hZScsICc8aW5maWxlLm1hZT4nLCAnLW9tYWUnLCAnPG91dGZpbGUubWFlPic=

> <r_epik_Ionization_Penalty>
0.129787

> <r_epik_Ionization_Penalty_Charging>
0

> <r_epik_Ionization_Penalty_Neutral>
0.129787

> <r_epik_State_Penalty>
0.121311

> <r_epik_Charging_Adjusted_Penalty>
0.121311

> <i_epik_Tot_Q>
0

> <i_epik_Tot_abs_Q>
0

> <r_epik_Metal_State_Penalty>
0.117931

> <b_epik_Metal_Only>
0

> <s_lp_Force_Field>
OPLS_2005

> <r_lp_Energy>
59.4027

> <b_lp_Chiralities_Consistent>
1

> <s_lp_Variant>
AV-unprocessed.smi:2119-1

> <Gold.Version>
5.8.1

> <Gold.Id.Protein>
6NUR|6NUR_protein|mol2

> <Gold.PLP.Fitness>
43.3846

> <Gold.PLP.PLP>
-31.1420

> <Gold.PLP.part.hbond>
-2.7050

> <Gold.PLP.part.metal>
0.0000

> <Gold.PLP.part.buried>
-0.6287

> <Gold.PLP.part.nonpolar>
-30.8512

> <Gold.PLP.part.repulsive>
0.6951

> <Gold.PLP.ligand.clash>
0.0000

> <Gold.PLP.ligand.torsion>
0.9791

> <Gold.PLP.Chemscore.Hbond>
2.6767

> <Gold.PLP.Chemscore.CHOScore>
2.0000

> <Gold.PLP.Chemscore.Metal>
0.0000

> <Gold.Chemscore.Hbonds>
donor molecule, donor type, donor heavy atom, donor atom, acceptor molecule, acceptor atom, score
      L1  H     3    24       P1  7948  0.86
      L1  H    17    43       P1  7948  0.94
      P1  H 10785 10796       L1     9  0.56
      L1  C    21    46       P1  8028  1.00
      L1  C    23    47       P1 10175  0.96

> <Gold.PLP.Chemscore.Internal.Correction>
0.1708

> <Gold.Rescore>
     Score         DG    S(hbond)    S(metal)    S(lipo)     H(rot)  DE(clash)    DE(int)     intcor
     15.56     -18.18       1.78        0.00      93.97       1.65       0.38       2.25       ----

> <Gold.Chemscore.Fitness>
15.5562

> <Gold.Chemscore.DG>
-18.1842

> <Gold.Chemscore.ZeroCoef>
-5.4800

> <Gold.Chemscore.Hbond>
1.7774

> <Gold.Chemscore.Metal>
0.0000

> <Gold.Chemscore.Lipo>
93.9658

> <Gold.Chemscore.Internal_Hbond>
0.0000

> <Gold.Chemscore.DEClash>
0.3822

> <Gold.Chemscore.DEInternal>
2.2459

> <Gold.Chemscore.Rot>
1.6508

> <Gold.Chemscore.Internal.Correction>
   9.000000E+99

> <Gold.Chemscore.Hbonds>
donor molecule, donor type, donor heavy atom, donor atom, acceptor molecule, acceptor atom, score
      L1  H     3    24       P1  7948  0.82
      L1  H    17    43       P1  7948  0.91
      P1  H 10785 10796       L1     9  0.07

> <Gold.Chemscore.Hbond.Weighted>
-5.9364

> <Gold.Chemscore.Metal.Weighted>
-0.0000

> <Gold.Chemscore.Lipo.Weighted>
-10.9940

> <Gold.Chemscore.Internal_Hbond.Weighted>
0.0000

> <Gold.Chemscore.DEClash.Weighted>
0.3822

> <Gold.Chemscore.DEInternal.Weighted>
2.2459

> <Gold.Chemscore.Rot.Weighted>
4.2262

> <Gold.Chemscore.Internal.Correction.Weighted>
   9.000000E+99

> <Gold.Protein.RotatedTorsions>
[ 6907 6896 6895 6894 ] final  131.40 input  -60.11 | X-H torsion
[ 7974 7965 7964 7962 ] final   55.41 input  175.53 | X-H torsion
[ 8008 7997 7996 7995 ] final  -28.80 input   59.86 | X-H torsion
[ 10167 10162 10161 10158 ] final  137.56 input  -65.29 | X-H torsion
[ 10718 10713 10712 10709 ] final  168.70 input   66.30 | X-H torsion
[ 10763 10752 10751 10750 ] final -177.67 input  -60.55 | X-H torsion
[ 11005 11000 10999 10996 ] final  -31.28 input  -57.11 | X-H torsion

> <Gold.Protein.ActiveResidues>
 VAL166  LYS551  ARG553  GLY616  TRP617  ASP618  TYR619  PRO620  LYS621  CYS622 
 ASP623  PHE694  ASN695  SER759  ASP760  ASP761  ALA762  ILE779  LEU786  VAL792 
 PHE793  MET794  SER795  GLU796  ALA797  LYS798  CYS799  TRP800  GLU811  SER814 

> <Gold.Protein.RotatedAtoms>
  152.3430  133.6088  159.5889 H   0  0  0  0  0  0  0  0  0  0  0  0  # atno 6907 bound_to 6896
  150.7490  133.9693  159.3549 H   0  0  0  0  0  0  0  0  0  0  0  0  # atno 6908 bound_to 6896
  151.7555  135.0823  160.0388 H   0  0  0  0  0  0  0  0  0  0  0  0  # atno 6909 bound_to 6896
  145.9507  139.3969  143.0308 H   0  0  0  0  0  0  0  0  0  0  0  0  # atno 7974 bound_to 7965
  154.4317  140.1835  156.1147 H   0  0  0  0  0  0  0  0  0  0  0  0  # atno 8008 bound_to 7997
  156.0190  140.3343  155.6994 H   0  0  0  0  0  0  0  0  0  0  0  0  # atno 8009 bound_to 7997
  155.6003  140.0639  157.2725 H   0  0  0  0  0  0  0  0  0  0  0  0  # atno 8010 bound_to 7997
  139.5140  144.6403  151.5587 H   0  0  0  0  0  0  0  0  0  0  0  0  # atno 10167 bound_to 10162
  157.0333  131.0265  151.2737 H   0  0  0  0  0  0  0  0  0  0  0  0  # atno 10718 bound_to 10713
  154.5573  135.2817  155.0953 H   0  0  0  0  0  0  0  0  0  0  0  0  # atno 10763 bound_to 10752
  154.2375  135.6363  153.5200 H   0  0  0  0  0  0  0  0  0  0  0  0  # atno 10764 bound_to 10752
  153.0019  135.5552  154.6156 H   0  0  0  0  0  0  0  0  0  0  0  0  # atno 10765 bound_to 10752
  140.9455  133.7253  156.1140 H   0  0  0  0  0  0  0  0  0  0  0  0  # atno 11005 bound_to 11000
  145.8175  140.9695  143.0916 LP  0  0  0  0  0  0  0  0  0  0  0  0  # atno 17320 bound_to 7965
  144.6795  140.0000  143.7484 LP  0  0  0  0  0  0  0  0  0  0  0  0  # atno 17321 bound_to 7965
  140.6167  143.9335  150.6494 LP  0  0  0  0  0  0  0  0  0  0  0  0  # atno 17342 bound_to 10162
  140.2595  143.3534  152.1335 LP  0  0  0  0  0  0  0  0  0  0  0  0  # atno 17343 bound_to 10162
  157.5161  130.7968  149.7757 LP  0  0  0  0  0  0  0  0  0  0  0  0  # atno 17370 bound_to 10713
  156.0062  130.3854  150.2423 LP  0  0  0  0  0  0  0  0  0  0  0  0  # atno 17371 bound_to 10713
  140.7676  134.3869  157.5514 LP  0  0  0  0  0  0  0  0  0  0  0  0  # atno 17394 bound_to 11000
  139.8832  134.9001  156.2781 LP  0  0  0  0  0  0  0  0  0  0  0  0  # atno 17395 bound_to 11000

$$$$
