AV-unprocessed.smi:1875|AV-procd|sdf|7618|dock6
  -GOLD-   22720 9343D 1   1.00000     0.00000
 Structure written by MMmdl.
 48 50  0  0  0  0  0  0  0  0  2 V2000
  150.8749  130.8691  155.7310 C   0  0  0  0  0  0  0  0  0  0  0  0
  150.0689  132.0550  155.2426 C   0  0  0  0  0  0  0  0  0  0  0  0
  148.9715  131.7898  154.5266 N   0  0  0  0  0  0  0  0  0  0  0  0
  148.2553  132.8497  154.0918 C   0  0  0  0  0  0  0  0  0  0  0  0
  148.6423  134.1749  154.3773 C   0  0  0  0  0  0  0  0  0  0  0  0
  149.8182  134.3290  155.1419 C   0  0  0  0  0  0  0  0  0  0  0  0
  150.3436  135.7017  155.5107 C   0  0  0  0  0  0  0  0  0  0  0  0
  150.4965  136.5633  154.3425 N   0  0  0  0  0  0  0  0  0  0  0  0
  150.3895  137.9850  154.6584 C   0  0  0  0  0  0  0  0  0  0  0  0
  151.7608  138.5867  155.0068 C   0  0  2  0  0  0  0  0  0  0  0  0
  152.7293  137.5580  154.9440 O   0  0  0  0  0  0  0  0  0  0  0  0
  151.7718  139.1916  156.4246 C   0  0  0  0  0  0  0  0  0  0  0  0
  151.3221  140.5900  156.4548 N   0  0  0  0  0  0  0  0  0  0  0  0
  150.5242  141.2704  155.5877 C   0  0  0  0  0  0  0  0  0  0  0  0
  150.4030  142.5438  156.0548 N   0  3  0  0  0  0  0  0  0  0  0  0
  151.1354  142.6782  157.2363 C   0  0  0  0  0  0  0  0  0  0  0  0
  151.3226  143.7721  158.0729 C   0  0  0  0  0  0  0  0  0  0  0  0
  152.1353  143.5804  159.2132 C   0  0  0  0  0  0  0  0  0  0  0  0
  152.3637  144.7573  160.1466 C   0  0  0  0  0  0  0  0  0  0  0  0
  152.7272  142.3193  159.4846 C   0  0  0  0  0  0  0  0  0  0  0  0
  153.5983  142.1250  160.7142 C   0  0  0  0  0  0  0  0  0  0  0  0
  152.5240  141.2185  158.6217 C   0  0  0  0  0  0  0  0  0  0  0  0
  151.7244  141.4265  157.5007 C   0  0  0  0  0  0  0  0  0  0  0  0
  150.5305  133.2645  155.5737 N   0  0  0  0  0  0  0  0  0  0  0  0
  150.4262  129.9243  155.4216 H   0  0  0  0  0  0  0  0  0  0  0  0
  150.9353  130.8756  156.8198 H   0  0  0  0  0  0  0  0  0  0  0  0
  151.8886  130.9104  155.3314 H   0  0  0  0  0  0  0  0  0  0  0  0
  147.3684  132.6396  153.5126 H   0  0  0  0  0  0  0  0  0  0  0  0
  148.0692  135.0213  154.0292 H   0  0  0  0  0  0  0  0  0  0  0  0
  149.6550  136.1543  156.2252 H   0  0  0  0  0  0  0  0  0  0  0  0
  151.3000  135.5927  156.0247 H   0  0  0  0  0  0  0  0  0  0  0  0
  149.7934  136.3184  153.6528 H   0  0  0  0  0  0  0  0  0  0  0  0
  149.9847  138.5079  153.7908 H   0  0  0  0  0  0  0  0  0  0  0  0
  149.6830  138.1491  155.4735 H   0  0  0  0  0  0  0  0  0  0  0  0
  152.0228  139.3612  154.2844 H   0  0  0  0  0  0  0  0  0  0  0  0
  153.3706  137.7129  155.6213 H   0  0  0  0  0  0  0  0  0  0  0  0
  151.1454  138.6121  157.1037 H   0  0  0  0  0  0  0  0  0  0  0  0
  152.7808  139.1653  156.8390 H   0  0  0  0  0  0  0  0  0  0  0  0
  150.0676  140.8715  154.6931 H   0  0  0  0  0  0  0  0  0  0  0  0
  150.8677  144.7286  157.8605 H   0  0  0  0  0  0  0  0  0  0  0  0
  153.4246  145.0010  160.2028 H   0  0  0  0  0  0  0  0  0  0  0  0
  152.0077  144.5252  161.1503 H   0  0  0  0  0  0  0  0  0  0  0  0
  151.8353  145.6472  159.8038 H   0  0  0  0  0  0  0  0  0  0  0  0
  153.9721  141.1030  160.7812 H   0  0  0  0  0  0  0  0  0  0  0  0
  153.0320  142.3324  161.6225 H   0  0  0  0  0  0  0  0  0  0  0  0
  154.4594  142.7927  160.6822 H   0  0  0  0  0  0  0  0  0  0  0  0
  152.9737  140.2582  158.8269 H   0  0  0  0  0  0  0  0  0  0  0  0
  149.8589  143.2651  155.5989 H   0  0  0  0  0  0  0  0  0  0  0  0
  1  2  1  0  0  0  0
  1 25  1  0  0  0  0
  1 26  1  0  0  0  0
  1 27  1  0  0  0  0
  2 24  1  0  0  0  0
  2  3  2  0  0  0  0
  3  4  1  0  0  0  0
  4  5  2  0  0  0  0
  4 28  1  0  0  0  0
  5  6  1  0  0  0  0
  5 29  1  0  0  0  0
  6  7  1  0  0  0  0
  6 24  2  0  0  0  0
  7  8  1  0  0  0  0
  7 30  1  0  0  0  0
  7 31  1  0  0  0  0
  8  9  1  0  0  0  0
  8 32  1  0  0  0  0
  9 10  1  0  0  0  0
  9 33  1  0  0  0  0
  9 34  1  0  0  0  0
 10 11  1  0  0  0  0
 10 12  1  0  0  0  0
 10 35  1  0  0  0  0
 11 36  1  0  0  0  0
 12 13  1  0  0  0  0
 12 37  1  0  0  0  0
 12 38  1  0  0  0  0
 13 23  1  0  0  0  0
 13 14  1  0  0  0  0
 14 15  2  0  0  0  0
 14 39  1  0  0  0  0
 15 16  1  0  0  0  0
 15 48  1  0  0  0  0
 16 23  2  0  0  0  0
 16 17  1  0  0  0  0
 17 18  2  0  0  0  0
 17 40  1  0  0  0  0
 18 19  1  0  0  0  0
 18 20  1  0  0  0  0
 19 41  1  0  0  0  0
 19 42  1  0  0  0  0
 19 43  1  0  0  0  0
 20 21  1  0  0  0  0
 20 22  2  0  0  0  0
 21 44  1  0  0  0  0
 21 45  1  0  0  0  0
 21 46  1  0  0  0  0
 22 23  1  0  0  0  0
 22 47  1  0  0  0  0
M  CHG  1  15   1
M  END
> <s_m_source_file>
AV-unprocessed.smi

> <i_m_source_file_index>
1875

> <i_lp_mmshare_version>
43012

> <i_f3d_flags>
0

> <s_epik_input>
W0NIM11jMW5bY0hdW2NIXWMobjEpW0NIMl1bTkhdW0NIMl1bQ0BIXShbT0hdKVtDSDJdbihbY0hdbjIpYyhjMjMpW2NIXWMoW0NIM10pYyhbY0hdMylbQ0gzXQ==

> <s_epik_cmdline>
J2VwaWtfcHl0aG9uJywgJy1waCcsICc3LjAnLCAnLXRuJywgJzgnLCAnLW1hJywgJzIwMCcsICctbWV0YWxfYmluZGluZycsICctaW1hZScsICc8aW5maWxlLm1hZT4nLCAnLW9tYWUnLCAnPG91dGZpbGUubWFlPic=

> <r_epik_Ionization_Penalty>
2.02862

> <r_epik_Ionization_Penalty_Charging>
1.0004

> <r_epik_Ionization_Penalty_Neutral>
1.02823

> <r_epik_State_Penalty>
2.23022

> <r_epik_Charging_Adjusted_Penalty>
3.23062

> <i_epik_Tot_Q>
1

> <i_epik_Tot_abs_Q>
1

> <r_epik_Metal_State_Penalty>
2.31249

> <b_epik_Metal_Only>
0

> <s_epik_Chemistry_Notes>
This compound contains an electron-poor aromatic ring that is susceptible to covalent hydrolysis at low pH, typically resulting in measured values for nitrogen ring protonation that are around two units higher than predicted values.

> <s_lp_Force_Field>
OPLS_2005

> <r_lp_Energy>
18.1078

> <b_lp_Chiralities_Consistent>
1

> <s_lp_Variant>
AV-unprocessed.smi:1875-7

> <Gold.Version>
5.8.1

> <Gold.Id.Protein>
6NUR|6NUR_protein|mol2

> <Gold.PLP.Fitness>
60.3919

> <Gold.PLP.PLP>
-53.5317

> <Gold.PLP.part.hbond>
-4.0000

> <Gold.PLP.part.metal>
0.0000

> <Gold.PLP.part.buried>
-6.7969

> <Gold.PLP.part.nonpolar>
-43.4324

> <Gold.PLP.part.repulsive>
0.1616

> <Gold.PLP.ligand.clash>
0.0000

> <Gold.PLP.ligand.torsion>
1.7972

> <Gold.PLP.Chemscore.Hbond>
3.4480

> <Gold.PLP.Chemscore.CHOScore>
0.0000

> <Gold.PLP.Chemscore.Metal>
0.0000

> <Gold.Chemscore.Hbonds>
donor molecule, donor type, donor heavy atom, donor atom, acceptor molecule, acceptor atom, score
      L1  H     8    32       P1  7948  1.00
      L1  H    15    48       P1  8028  2.00
      P1  H 10752 10765       L1    11  0.46

> <Gold.PLP.Chemscore.Internal.Correction>
0.1105

> <Gold.Rescore>
     Score         DG    S(hbond)    S(metal)    S(lipo)     H(rot)  DE(clash)    DE(int)     intcor
     15.95     -18.54       1.80        0.00     121.65       2.80       0.04       2.54       ----

> <Gold.Chemscore.Fitness>
15.9528

> <Gold.Chemscore.DG>
-18.5359

> <Gold.Chemscore.ZeroCoef>
-5.4800

> <Gold.Chemscore.Hbond>
1.7963

> <Gold.Chemscore.Metal>
0.0000

> <Gold.Chemscore.Lipo>
121.6458

> <Gold.Chemscore.Internal_Hbond>
0.0000

> <Gold.Chemscore.DEClash>
0.0402

> <Gold.Chemscore.DEInternal>
2.5429

> <Gold.Chemscore.Rot>
2.8032

> <Gold.Chemscore.Internal.Correction>
   9.000000E+99

> <Gold.Chemscore.Hbonds>
donor molecule, donor type, donor heavy atom, donor atom, acceptor molecule, acceptor atom, score
      L1  H     8    32       P1  7948  0.29
      L1  H    15    48       P1  8028  0.96
      P1  H 10752 10765       L1    11  0.20

> <Gold.Chemscore.Hbond.Weighted>
-5.9995

> <Gold.Chemscore.Metal.Weighted>
-0.0000

> <Gold.Chemscore.Lipo.Weighted>
-14.2326

> <Gold.Chemscore.Internal_Hbond.Weighted>
0.0000

> <Gold.Chemscore.DEClash.Weighted>
0.0402

> <Gold.Chemscore.DEInternal.Weighted>
2.5429

> <Gold.Chemscore.Rot.Weighted>
7.1761

> <Gold.Chemscore.Internal.Correction.Weighted>
   9.000000E+99

> <Gold.Protein.RotatedTorsions>
[ 6907 6896 6895 6894 ] final   49.76 input  -60.11 | X-H torsion
[ 7974 7965 7964 7962 ] final  108.06 input  175.53 | X-H torsion
[ 8008 7997 7996 7995 ] final   65.33 input   59.86 | X-H torsion
[ 10167 10162 10161 10158 ] final   79.32 input  -65.29 | X-H torsion
[ 10718 10713 10712 10709 ] final -142.01 input   66.30 | X-H torsion
[ 10763 10752 10751 10750 ] final  172.97 input  -60.55 | X-H torsion
[ 11005 11000 10999 10996 ] final  -91.56 input  -57.11 | X-H torsion

> <Gold.Protein.ActiveResidues>
 VAL166  LYS551  ARG553  GLY616  TRP617  ASP618  TYR619  PRO620  LYS621  CYS622 
 ASP623  PHE694  ASN695  SER759  ASP760  ASP761  ALA762  ILE779  LEU786  VAL792 
 PHE793  MET794  SER795  GLU796  ALA797  LYS798  CYS799  TRP800  GLU811  SER814 

> <Gold.Protein.RotatedAtoms>
  152.2944  134.7685  160.0370 H   0  0  0  0  0  0  0  0  0  0  0  0  # atno 6907 bound_to 6896
  151.8220  133.3390  159.3595 H   0  0  0  0  0  0  0  0  0  0  0  0  # atno 6908 bound_to 6896
  150.7244  134.5494  159.5831 H   0  0  0  0  0  0  0  0  0  0  0  0  # atno 6909 bound_to 6896
  145.2856  139.2617  143.3892 H   0  0  0  0  0  0  0  0  0  0  0  0  # atno 7974 bound_to 7965
  155.6601  140.3497  155.4779 H   0  0  0  0  0  0  0  0  0  0  0  0  # atno 8008 bound_to 7997
  155.9776  140.1168  157.0779 H   0  0  0  0  0  0  0  0  0  0  0  0  # atno 8009 bound_to 7997
  154.4183  140.1144  156.5377 H   0  0  0  0  0  0  0  0  0  0  0  0  # atno 8010 bound_to 7997
  139.9616  144.5957  150.8067 H   0  0  0  0  0  0  0  0  0  0  0  0  # atno 10167 bound_to 10162
  156.3408  130.7636  151.1772 H   0  0  0  0  0  0  0  0  0  0  0  0  # atno 10718 bound_to 10713
  154.4335  135.2760  155.1896 H   0  0  0  0  0  0  0  0  0  0  0  0  # atno 10763 bound_to 10752
  154.3792  135.6091  153.5785 H   0  0  0  0  0  0  0  0  0  0  0  0  # atno 10764 bound_to 10752
  152.9837  135.5876  154.4651 H   0  0  0  0  0  0  0  0  0  0  0  0  # atno 10765 bound_to 10752
  141.1542  133.7763  156.9896 H   0  0  0  0  0  0  0  0  0  0  0  0  # atno 11005 bound_to 11000
  146.3202  140.3334  142.8642 LP  0  0  0  0  0  0  0  0  0  0  0  0  # atno 17320 bound_to 7965
  144.9216  140.7874  143.5745 LP  0  0  0  0  0  0  0  0  0  0  0  0  # atno 17321 bound_to 7965
  140.7551  143.3040  151.3008 LP  0  0  0  0  0  0  0  0  0  0  0  0  # atno 17342 bound_to 10162
  139.6550  144.0293  152.2653 LP  0  0  0  0  0  0  0  0  0  0  0  0  # atno 17343 bound_to 10162
  157.7446  131.0455  150.4847 LP  0  0  0  0  0  0  0  0  0  0  0  0  # atno 17370 bound_to 10713
  156.5027  130.4121  149.6344 LP  0  0  0  0  0  0  0  0  0  0  0  0  # atno 17371 bound_to 10713
  140.1011  134.9534  157.1925 LP  0  0  0  0  0  0  0  0  0  0  0  0  # atno 17394 bound_to 11000
  140.3317  134.2803  155.7227 LP  0  0  0  0  0  0  0  0  0  0  0  0  # atno 17395 bound_to 11000

$$$$
