AV-unprocessed.smi:1555|AV-procd|sdf|6267|dock10
  -GOLD-   22720 6453D 1   1.00000     0.00000
 Structure written by MMmdl.
 41 42  0  0  0  0  0  0  0  0  1 V2000
  149.6703  142.9284  158.5479 C   0  0  0  0  0  0  0  0  0  0  0  0
  150.9385  142.9103  157.6802 C   0  0  1  0  0  0  0  0  0  0  0  0
  152.0337  143.8225  158.2650 C   0  0  0  0  0  0  0  0  0  0  0  0
  152.3358  143.5047  159.6486 N   0  0  0  0  0  0  0  0  0  0  0  0
  151.9817  144.2377  160.7741 C   0  0  0  0  0  0  0  0  0  0  0  0
  152.4777  143.5531  161.8604 C   0  0  0  0  0  0  0  0  0  0  0  0
  153.1377  142.4048  161.4297 N   0  0  0  0  0  0  0  0  0  0  0  0
  153.0132  142.4444  160.1093 C   0  0  0  0  0  0  0  0  0  0  0  0
  151.4441  141.5452  157.5567 N   0  0  0  0  0  0  0  0  0  0  0  0
  151.5720  140.8534  156.4120 C   0  0  0  0  0  0  0  0  0  0  0  0
  151.2156  141.3133  155.3262 O   0  0  0  0  0  0  0  0  0  0  0  0
  152.1180  139.6192  156.5553 N   0  0  0  0  0  0  0  0  0  0  0  0
  152.4275  138.9402  157.8251 C   0  0  0  0  0  0  0  0  0  0  0  0
  151.4241  137.7912  158.0272 C   0  0  0  0  0  0  0  0  0  0  0  0
  151.4569  136.8020  156.8408 C   0  0  0  0  0  0  0  0  0  0  0  0
  150.3850  135.7084  156.9991 C   0  0  0  0  0  0  0  0  0  0  0  0
  150.5503  135.0181  158.2200 O   0  0  0  0  0  0  0  0  0  0  0  0
  151.3285  137.5601  155.4985 C   0  0  0  0  0  0  0  0  0  0  0  0
  152.3326  138.7241  155.4121 C   0  0  0  0  0  0  0  0  0  0  0  0
  149.2734  143.9398  158.6391 H   0  0  0  0  0  0  0  0  0  0  0  0
  149.8715  142.5577  159.5534 H   0  0  0  0  0  0  0  0  0  0  0  0
  148.8852  142.3074  158.1150 H   0  0  0  0  0  0  0  0  0  0  0  0
  150.6789  143.2857  156.6885 H   0  0  0  0  0  0  0  0  0  0  0  0
  152.9542  143.7236  157.6881 H   0  0  0  0  0  0  0  0  0  0  0  0
  151.7362  144.8704  158.2022 H   0  0  0  0  0  0  0  0  0  0  0  0
  151.4200  145.1581  160.7109 H   0  0  0  0  0  0  0  0  0  0  0  0
  152.4109  143.7969  162.9103 H   0  0  0  0  0  0  0  0  0  0  0  0
  153.4209  141.6823  159.4616 H   0  0  0  0  0  0  0  0  0  0  0  0
  151.7530  141.0990  158.4080 H   0  0  0  0  0  0  0  0  0  0  0  0
  153.4424  138.5424  157.7791 H   0  0  0  0  0  0  0  0  0  0  0  0
  152.4191  139.5973  158.6947 H   0  0  0  0  0  0  0  0  0  0  0  0
  151.6487  137.2664  158.9563 H   0  0  0  0  0  0  0  0  0  0  0  0
  150.4204  138.2040  158.1392 H   0  0  0  0  0  0  0  0  0  0  0  0
  152.4347  136.3172  156.8562 H   0  0  0  0  0  0  0  0  0  0  0  0
  149.3882  136.1504  156.9931 H   0  0  0  0  0  0  0  0  0  0  0  0
  150.4276  134.9981  156.1728 H   0  0  0  0  0  0  0  0  0  0  0  0
  149.7534  135.0988  158.7215 H   0  0  0  0  0  0  0  0  0  0  0  0
  151.4890  136.8780  154.6632 H   0  0  0  0  0  0  0  0  0  0  0  0
  150.3152  137.9489  155.3887 H   0  0  0  0  0  0  0  0  0  0  0  0
  152.2288  139.2309  154.4516 H   0  0  0  0  0  0  0  0  0  0  0  0
  153.3542  138.3425  155.4353 H   0  0  0  0  0  0  0  0  0  0  0  0
  1  2  1  0  0  0  0
  1 20  1  0  0  0  0
  1 21  1  0  0  0  0
  1 22  1  0  0  0  0
  2  3  1  0  0  0  0
  2  9  1  0  0  0  0
  2 23  1  0  0  0  0
  3  4  1  0  0  0  0
  3 24  1  0  0  0  0
  3 25  1  0  0  0  0
  4  8  1  0  0  0  0
  4  5  1  0  0  0  0
  5  6  2  0  0  0  0
  5 26  1  0  0  0  0
  6  7  1  0  0  0  0
  6 27  1  0  0  0  0
  7  8  2  0  0  0  0
  8 28  1  0  0  0  0
  9 10  1  0  0  0  0
  9 29  1  0  0  0  0
 10 11  2  0  0  0  0
 10 12  1  0  0  0  0
 12 19  1  0  0  0  0
 12 13  1  0  0  0  0
 13 14  1  0  0  0  0
 13 30  1  0  0  0  0
 13 31  1  0  0  0  0
 14 15  1  0  0  0  0
 14 32  1  0  0  0  0
 14 33  1  0  0  0  0
 15 16  1  0  0  0  0
 15 18  1  0  0  0  0
 15 34  1  0  0  0  0
 16 17  1  0  0  0  0
 16 35  1  0  0  0  0
 16 36  1  0  0  0  0
 17 37  1  0  0  0  0
 18 19  1  0  0  0  0
 18 38  1  0  0  0  0
 18 39  1  0  0  0  0
 19 40  1  0  0  0  0
 19 41  1  0  0  0  0
M  END
> <s_m_source_file>
AV-unprocessed.smi

> <i_m_source_file_index>
1555

> <i_lp_mmshare_version>
43012

> <i_f3d_flags>
0

> <s_epik_input>
W2NIXTFuW2NIXVtjSF1uMVtDSDJdW0NAQEhdKFtDSDNdKVtOSF1DKD1PKU4yW0NIMl1bQ0gyXVtDSF0oW0NIMl1bT0hdKVtDSDJdW0NIMl0y

> <s_epik_cmdline>
J2VwaWtfcHl0aG9uJywgJy1waCcsICc3LjAnLCAnLXRuJywgJzgnLCAnLW1hJywgJzIwMCcsICctbWV0YWxfYmluZGluZycsICctaW1hZScsICc8aW5maWxlLm1hZT4nLCAnLW9tYWUnLCAnPG91dGZpbGUubWFlPic=

> <r_lp_tautomer_probability>
1

> <r_epik_Ionization_Penalty>
0.625883

> <r_epik_Ionization_Penalty_Charging>
0.625812

> <r_epik_Ionization_Penalty_Neutral>
7.07114e-05

> <r_epik_State_Penalty>
0.642234

> <r_epik_Charging_Adjusted_Penalty>
1.26805

> <i_epik_Tot_Q>
0

> <i_epik_Tot_abs_Q>
0

> <r_epik_Metal_State_Penalty>
0.307949

> <b_epik_Metal_Only>
0

> <s_lp_Force_Field>
OPLS_2005

> <r_lp_Energy>
32.573

> <b_lp_Chiralities_Consistent>
1

> <s_lp_Variant>
AV-unprocessed.smi:1555-4

> <Gold.Version>
5.8.1

> <Gold.Id.Protein>
6NUR|6NUR_protein|mol2

> <Gold.PLP.Fitness>
40.2040

> <Gold.PLP.PLP>
-35.9268

> <Gold.PLP.part.hbond>
-2.0000

> <Gold.PLP.part.metal>
0.0000

> <Gold.PLP.part.buried>
-4.0148

> <Gold.PLP.part.nonpolar>
-30.1307

> <Gold.PLP.part.repulsive>
0.1634

> <Gold.PLP.ligand.clash>
0.0000

> <Gold.PLP.ligand.torsion>
0.1990

> <Gold.PLP.Chemscore.Hbond>
1.5440

> <Gold.PLP.Chemscore.CHOScore>
0.0000

> <Gold.PLP.Chemscore.Metal>
0.0000

> <Gold.Chemscore.Hbonds>
donor molecule, donor type, donor heavy atom, donor atom, acceptor molecule, acceptor atom, score
      P1  H  7989  7998       L1    11  0.48

> <Gold.PLP.Chemscore.Internal.Correction>
0.0432

> <Gold.Rescore>
     Score         DG    S(hbond)    S(metal)    S(lipo)     H(rot)  DE(clash)    DE(int)     intcor
     12.68     -13.55       1.64        0.00      76.52       2.49       0.52       0.36       ----

> <Gold.Chemscore.Fitness>
12.6757

> <Gold.Chemscore.DG>
-13.5487

> <Gold.Chemscore.ZeroCoef>
-5.4800

> <Gold.Chemscore.Hbond>
1.6414

> <Gold.Chemscore.Metal>
0.0000

> <Gold.Chemscore.Lipo>
76.5168

> <Gold.Chemscore.Internal_Hbond>
0.0000

> <Gold.Chemscore.DEClash>
0.5178

> <Gold.Chemscore.DEInternal>
0.3552

> <Gold.Chemscore.Rot>
2.4867

> <Gold.Chemscore.Internal.Correction>
   9.000000E+99

> <Gold.Chemscore.Hbonds>
donor molecule, donor type, donor heavy atom, donor atom, acceptor molecule, acceptor atom, score
      P1  H  7989  7998       L1    11  0.48

> <Gold.Chemscore.Hbond.Weighted>
-5.4823

> <Gold.Chemscore.Metal.Weighted>
-0.0000

> <Gold.Chemscore.Lipo.Weighted>
-8.9525

> <Gold.Chemscore.Internal_Hbond.Weighted>
0.0000

> <Gold.Chemscore.DEClash.Weighted>
0.5178

> <Gold.Chemscore.DEInternal.Weighted>
0.3552

> <Gold.Chemscore.Rot.Weighted>
6.3660

> <Gold.Chemscore.Internal.Correction.Weighted>
   9.000000E+99

> <Gold.Protein.RotatedTorsions>
[ 6907 6896 6895 6894 ] final  147.38 input  -60.11 | X-H torsion
[ 7974 7965 7964 7962 ] final  -23.75 input  175.53 | X-H torsion
[ 8008 7997 7996 7995 ] final   91.68 input   59.86 | X-H torsion
[ 10167 10162 10161 10158 ] final   -0.96 input  -65.29 | X-H torsion
[ 10718 10713 10712 10709 ] final  -63.76 input   66.30 | X-H torsion
[ 10763 10752 10751 10750 ] final -123.32 input  -60.55 | X-H torsion
[ 11005 11000 10999 10996 ] final  -26.57 input  -57.11 | X-H torsion

> <Gold.Protein.ActiveResidues>
 VAL166  LYS551  ARG553  GLY616  TRP617  ASP618  TYR619  PRO620  LYS621  CYS622 
 ASP623  PHE694  ASN695  SER759  ASP760  ASP761  ALA762  ILE779  LEU786  VAL792 
 PHE793  MET794  SER795  GLU796  ALA797  LYS798  CYS799  TRP800  GLU811  SER814 

> <Gold.Protein.RotatedAtoms>
  152.1556  133.4549  159.4834 H   0  0  0  0  0  0  0  0  0  0  0  0  # atno 6907 bound_to 6896
  150.6900  134.2135  159.4378 H   0  0  0  0  0  0  0  0  0  0  0  0  # atno 6908 bound_to 6896
  152.0034  134.9915  160.0616 H   0  0  0  0  0  0  0  0  0  0  0  0  # atno 6909 bound_to 6896
  146.1597  140.4658  142.8576 H   0  0  0  0  0  0  0  0  0  0  0  0  # atno 7974 bound_to 7965
  156.0266  140.3334  155.7095 H   0  0  0  0  0  0  0  0  0  0  0  0  # atno 8008 bound_to 7997
  155.5945  140.0649  157.2767 H   0  0  0  0  0  0  0  0  0  0  0  0  # atno 8009 bound_to 7997
  154.4337  140.1821  156.1097 H   0  0  0  0  0  0  0  0  0  0  0  0  # atno 8010 bound_to 7997
  140.6790  143.6832  150.8088 H   0  0  0  0  0  0  0  0  0  0  0  0  # atno 10167 bound_to 10162
  156.0771  130.4225  150.1323 H   0  0  0  0  0  0  0  0  0  0  0  0  # atno 10718 bound_to 10713
  154.8705  135.4102  154.2924 H   0  0  0  0  0  0  0  0  0  0  0  0  # atno 10763 bound_to 10752
  153.3797  135.7011  153.6580 H   0  0  0  0  0  0  0  0  0  0  0  0  # atno 10764 bound_to 10752
  153.5407  135.3648  155.2688 H   0  0  0  0  0  0  0  0  0  0  0  0  # atno 10765 bound_to 10752
  140.9041  133.7504  156.0583 H   0  0  0  0  0  0  0  0  0  0  0  0  # atno 11005 bound_to 11000
  144.8010  140.6213  143.6478 LP  0  0  0  0  0  0  0  0  0  0  0  0  # atno 17320 bound_to 7965
  145.4619  139.1512  143.3861 LP  0  0  0  0  0  0  0  0  0  0  0  0  # atno 17321 bound_to 7965
  140.0529  143.5231  152.2665 LP  0  0  0  0  0  0  0  0  0  0  0  0  # atno 17342 bound_to 10162
  139.6100  144.7606  151.2974 LP  0  0  0  0  0  0  0  0  0  0  0  0  # atno 17343 bound_to 10162
  156.9362  130.9729  151.3524 LP  0  0  0  0  0  0  0  0  0  0  0  0  # atno 17370 bound_to 10713
  157.5871  130.8417  149.8605 LP  0  0  0  0  0  0  0  0  0  0  0  0  # atno 17371 bound_to 10713
  140.8193  134.3308  157.5387 LP  0  0  0  0  0  0  0  0  0  0  0  0  # atno 17394 bound_to 11000
  139.8747  134.9300  156.3490 LP  0  0  0  0  0  0  0  0  0  0  0  0  # atno 17395 bound_to 11000

$$$$
