AV-unprocessed.smi:1041|AV-procd|sdf|4528|dock8
  -GOLD-   22720 2553D 1   1.00000     0.00000
 Structure written by MMmdl.
 53 54  0  0  0  0  0  0  0  0  2 V2000
  152.6394  144.7804  158.7332 C   0  0  0  0  0  0  0  0  0  0  0  0
  152.0288  143.5036  158.8090 O   0  0  0  0  0  0  0  0  0  0  0  0
  151.5434  143.0585  157.5534 C   0  0  0  0  0  0  0  0  0  0  0  0
  150.1923  142.3556  157.7599 C   0  0  0  0  0  0  0  0  0  0  0  0
  149.4598  142.1340  156.4867 N   0  3  2  0  0  0  0  0  0  0  0  0
  148.1105  141.5546  156.7121 C   0  0  0  0  0  0  0  0  0  0  0  0
  147.3151  141.4569  155.3995 C   0  0  0  0  0  0  0  0  0  0  0  0
  148.0783  140.6394  154.3381 C   0  0  1  0  0  0  0  0  0  0  0  0
  147.3265  140.5578  152.9963 C   0  0  0  0  0  0  0  0  0  0  0  0
  146.2731  139.5542  153.0460 N   0  0  0  0  0  0  0  0  0  0  0  0
  146.2080  138.4674  152.2645 C   0  0  0  0  0  0  0  0  0  0  0  0
  147.0702  138.1726  151.4376 O   0  0  0  0  0  0  0  0  0  0  0  0
  144.9742  137.5819  152.4434 C   0  0  0  0  0  0  0  0  0  0  0  0
  145.2607  136.0862  152.5695 C   0  0  0  0  0  0  0  0  0  0  0  0
  144.9036  135.1791  151.6137 C   0  0  0  0  0  0  0  0  0  0  0  0
  144.1939  135.5722  150.3298 C   0  0  0  0  0  0  0  0  0  0  0  0
  145.1754  133.8117  151.7608 N   0  0  0  0  0  0  0  0  0  0  0  0
  145.7810  133.4092  152.8292 C   0  0  0  0  0  0  0  0  0  0  0  0
  146.1341  131.9633  153.1062 C   0  0  0  0  0  0  0  0  0  0  0  0
  146.1695  134.2823  153.8436 N   0  0  0  0  0  0  0  0  0  0  0  0
  145.9405  135.6134  153.7914 C   0  0  0  0  0  0  0  0  0  0  0  0
  146.2784  136.3391  154.7254 O   0  0  0  0  0  0  0  0  0  0  0  0
  149.4797  141.2458  154.1547 C   0  0  0  0  0  0  0  0  0  0  0  0
  150.2311  141.3415  155.4927 C   0  0  0  0  0  0  0  0  0  0  0  0
  146.6360  133.9099  154.6578 H   0  0  0  0  0  0  0  0  0  0  0  0
  152.9973  145.0754  159.7196 H   0  0  0  0  0  0  0  0  0  0  0  0
  151.9309  145.5368  158.3925 H   0  0  0  0  0  0  0  0  0  0  0  0
  153.4938  144.7706  158.0553 H   0  0  0  0  0  0  0  0  0  0  0  0
  151.4626  143.8903  156.8537 H   0  0  0  0  0  0  0  0  0  0  0  0
  152.2532  142.3506  157.1226 H   0  0  0  0  0  0  0  0  0  0  0  0
  150.3334  141.4021  158.2708 H   0  0  0  0  0  0  0  0  0  0  0  0
  149.5912  142.9741  158.4282 H   0  0  0  0  0  0  0  0  0  0  0  0
  148.2085  140.5676  157.1669 H   0  0  0  0  0  0  0  0  0  0  0  0
  147.5562  142.1752  157.4174 H   0  0  0  0  0  0  0  0  0  0  0  0
  146.3439  141.0051  155.6043 H   0  0  0  0  0  0  0  0  0  0  0  0
  147.1128  142.4594  155.0196 H   0  0  0  0  0  0  0  0  0  0  0  0
  148.2002  139.6227  154.7158 H   0  0  0  0  0  0  0  0  0  0  0  0
  146.9003  141.5315  152.7478 H   0  0  0  0  0  0  0  0  0  0  0  0
  148.0164  140.2972  152.1926 H   0  0  0  0  0  0  0  0  0  0  0  0
  145.5234  139.7076  153.7054 H   0  0  0  0  0  0  0  0  0  0  0  0
  144.4342  137.9164  153.3295 H   0  0  0  0  0  0  0  0  0  0  0  0
  144.2879  137.7708  151.6170 H   0  0  0  0  0  0  0  0  0  0  0  0
  144.8308  136.2167  149.7238 H   0  0  0  0  0  0  0  0  0  0  0  0
  143.2672  136.1038  150.5469 H   0  0  0  0  0  0  0  0  0  0  0  0
  143.9420  134.6956  149.7318 H   0  0  0  0  0  0  0  0  0  0  0  0
  145.2281  131.3591  153.1571 H   0  0  0  0  0  0  0  0  0  0  0  0
  146.6723  131.8529  154.0486 H   0  0  0  0  0  0  0  0  0  0  0  0
  146.7632  131.5713  152.3067 H   0  0  0  0  0  0  0  0  0  0  0  0
  150.0581  140.6409  153.4555 H   0  0  0  0  0  0  0  0  0  0  0  0
  149.3992  142.2389  153.7101 H   0  0  0  0  0  0  0  0  0  0  0  0
  151.2044  141.7965  155.3139 H   0  0  0  0  0  0  0  0  0  0  0  0
  150.4187  140.3418  155.8882 H   0  0  0  0  0  0  0  0  0  0  0  0
  149.3088  143.0484  156.0841 H   0  0  0  0  0  0  0  0  0  0  0  0
  1  2  1  0  0  0  0
  1 26  1  0  0  0  0
  1 27  1  0  0  0  0
  1 28  1  0  0  0  0
  2  3  1  0  0  0  0
  3  4  1  0  0  0  0
  3 29  1  0  0  0  0
  3 30  1  0  0  0  0
  4  5  1  0  0  0  0
  4 31  1  0  0  0  0
  4 32  1  0  0  0  0
  5 24  1  0  0  0  0
  5  6  1  0  0  0  0
  5 53  1  0  0  0  0
  6  7  1  0  0  0  0
  6 33  1  0  0  0  0
  6 34  1  0  0  0  0
  7  8  1  0  0  0  0
  7 35  1  0  0  0  0
  7 36  1  0  0  0  0
  8  9  1  0  0  0  0
  8 23  1  0  0  0  0
  8 37  1  0  0  0  0
  9 10  1  0  0  0  0
  9 38  1  0  0  0  0
  9 39  1  0  0  0  0
 10 11  1  0  0  0  0
 10 40  1  0  0  0  0
 11 12  2  0  0  0  0
 11 13  1  0  0  0  0
 13 14  1  0  0  0  0
 13 41  1  0  0  0  0
 13 42  1  0  0  0  0
 14 21  1  0  0  0  0
 14 15  2  0  0  0  0
 15 16  1  0  0  0  0
 15 17  1  0  0  0  0
 16 43  1  0  0  0  0
 16 44  1  0  0  0  0
 16 45  1  0  0  0  0
 17 18  2  0  0  0  0
 18 19  1  0  0  0  0
 18 20  1  0  0  0  0
 19 46  1  0  0  0  0
 19 47  1  0  0  0  0
 19 48  1  0  0  0  0
 20 25  1  0  0  0  0
 20 21  1  0  0  0  0
 21 22  2  0  0  0  0
 23 24  1  0  0  0  0
 23 49  1  0  0  0  0
 23 50  1  0  0  0  0
 24 51  1  0  0  0  0
 24 52  1  0  0  0  0
M  CHG  1   5   1
M  END
> <s_m_source_file>
AV-unprocessed.smi

> <i_m_source_file_index>
1041

> <i_lp_mmshare_version>
43012

> <i_f3d_flags>
0

> <s_epik_input>
W0NIM11PW0NIMl1bQ0gyXU4xW0NIMl1bQ0gyXVtDSF0oW0NIMl1bQ0gyXTEpW0NIMl1bTkhdQyg9TylbQ0gyXWMyYyhbQ0gzXSluYyhbQ0gzXSlbbkhdYzI9Tw==

> <s_epik_cmdline>
J2VwaWtfcHl0aG9uJywgJy1waCcsICc3LjAnLCAnLXRuJywgJzgnLCAnLW1hJywgJzIwMCcsICctbWV0YWxfYmluZGluZycsICctaW1hZScsICc8aW5maWxlLm1hZT4nLCAnLW9tYWUnLCAnPG91dGZpbGUubWFlPic=

> <r_lp_tautomer_probability>
0.839158

> <r_epik_Ionization_Penalty>
0.00964357

> <r_epik_Ionization_Penalty_Charging>
0.00961423

> <r_epik_Ionization_Penalty_Neutral>
2.93415e-05

> <r_epik_State_Penalty>
0.0972512

> <r_epik_Charging_Adjusted_Penalty>
0.106865

> <i_epik_Tot_Q>
1

> <i_epik_Tot_abs_Q>
1

> <r_epik_Metal_State_Penalty>
0.270886

> <b_epik_Metal_Only>
0

> <s_lp_Force_Field>
OPLS_2005

> <r_lp_Energy>
21.4676

> <b_lp_Chiralities_Consistent>
1

> <s_lp_Variant>
AV-unprocessed.smi:1041-1

> <Gold.Version>
5.8.1

> <Gold.Id.Protein>
6NUR|6NUR_protein|mol2

> <Gold.PLP.Fitness>
44.4409

> <Gold.PLP.PLP>
-36.7725

> <Gold.PLP.part.hbond>
-3.0000

> <Gold.PLP.part.metal>
0.0000

> <Gold.PLP.part.buried>
-2.4420

> <Gold.PLP.part.nonpolar>
-34.2233

> <Gold.PLP.part.repulsive>
3.0897

> <Gold.PLP.ligand.clash>
0.0000

> <Gold.PLP.ligand.torsion>
0.7389

> <Gold.PLP.Chemscore.Hbond>
3.0000

> <Gold.PLP.Chemscore.CHOScore>
0.0000

> <Gold.PLP.Chemscore.Metal>
0.0000

> <Gold.Chemscore.Hbonds>
donor molecule, donor type, donor heavy atom, donor atom, acceptor molecule, acceptor atom, score
      L1  H     5    53       P1  8028  2.00
      L1  H    10    40       P1 10175  0.03
      P1  H  7954  7966       L1    12  1.00

> <Gold.PLP.Chemscore.Internal.Correction>
0.1461

> <Gold.Rescore>
     Score         DG    S(hbond)    S(metal)    S(lipo)     H(rot)  DE(clash)    DE(int)     intcor
     14.78     -17.06       2.04        0.00      93.96       2.43       1.47       0.82       ----

> <Gold.Chemscore.Fitness>
14.7788

> <Gold.Chemscore.DG>
-17.0622

> <Gold.Chemscore.ZeroCoef>
-5.4800

> <Gold.Chemscore.Hbond>
2.0382

> <Gold.Chemscore.Metal>
0.0000

> <Gold.Chemscore.Lipo>
93.9597

> <Gold.Chemscore.Internal_Hbond>
0.0000

> <Gold.Chemscore.DEClash>
1.4665

> <Gold.Chemscore.DEInternal>
0.8169

> <Gold.Chemscore.Rot>
2.4291

> <Gold.Chemscore.Internal.Correction>
   9.000000E+99

> <Gold.Chemscore.Hbonds>
donor molecule, donor type, donor heavy atom, donor atom, acceptor molecule, acceptor atom, score
      L1  H     5    53       P1  8028  1.00
      L1  H    10    40       P1 10175  0.03
      P1  H  7954  7966       L1    12  1.00

> <Gold.Chemscore.Hbond.Weighted>
-6.8075

> <Gold.Chemscore.Metal.Weighted>
-0.0000

> <Gold.Chemscore.Lipo.Weighted>
-10.9933

> <Gold.Chemscore.Internal_Hbond.Weighted>
0.0000

> <Gold.Chemscore.DEClash.Weighted>
1.4665

> <Gold.Chemscore.DEInternal.Weighted>
0.8169

> <Gold.Chemscore.Rot.Weighted>
6.2186

> <Gold.Chemscore.Internal.Correction.Weighted>
   9.000000E+99

> <Gold.Protein.RotatedTorsions>
[ 6907 6896 6895 6894 ] final   27.73 input  -60.11 | X-H torsion
[ 7974 7965 7964 7962 ] final  -44.36 input  175.53 | X-H torsion
[ 8008 7997 7996 7995 ] final   41.88 input   59.86 | X-H torsion
[ 10167 10162 10161 10158 ] final -145.60 input  -65.29 | X-H torsion
[ 10718 10713 10712 10709 ] final   25.02 input   66.30 | X-H torsion
[ 10763 10752 10751 10750 ] final   10.64 input  -60.55 | X-H torsion
[ 11005 11000 10999 10996 ] final   20.18 input  -57.11 | X-H torsion

> <Gold.Protein.ActiveResidues>
 VAL166  LYS551  ARG553  GLY616  TRP617  ASP618  TYR619  PRO620  LYS621  CYS622 
 ASP623  PHE694  ASN695  SER759  ASP760  ASP761  ALA762  ILE779  LEU786  VAL792 
 PHE793  MET794  SER795  GLU796  ALA797  LYS798  CYS799  TRP800  GLU811  SER814 

> <Gold.Protein.RotatedAtoms>
  152.0066  134.9899  160.0566 H   0  0  0  0  0  0  0  0  0  0  0  0  # atno 6907 bound_to 6896
  152.1469  133.4493  159.4802 H   0  0  0  0  0  0  0  0  0  0  0  0  # atno 6908 bound_to 6896
  150.6871  134.2155  159.4419 H   0  0  0  0  0  0  0  0  0  0  0  0  # atno 6909 bound_to 6896
  145.9928  140.7161  142.9308 H   0  0  0  0  0  0  0  0  0  0  0  0  # atno 7974 bound_to 7965
  155.2770  140.3370  155.4261 H   0  0  0  0  0  0  0  0  0  0  0  0  # atno 8008 bound_to 7997
  156.2107  140.1769  156.7742 H   0  0  0  0  0  0  0  0  0  0  0  0  # atno 8009 bound_to 7997
  154.5682  140.0675  156.8909 H   0  0  0  0  0  0  0  0  0  0  0  0  # atno 8010 bound_to 7997
  139.7790  143.8128  152.2636 H   0  0  0  0  0  0  0  0  0  0  0  0  # atno 10167 bound_to 10162
  157.1877  130.6832  149.6137 H   0  0  0  0  0  0  0  0  0  0  0  0  # atno 10718 bound_to 10713
  153.2010  135.6856  153.8231 H   0  0  0  0  0  0  0  0  0  0  0  0  # atno 10763 bound_to 10752
  153.7497  135.3225  155.3320 H   0  0  0  0  0  0  0  0  0  0  0  0  # atno 10764 bound_to 10752
  154.8171  135.4678  154.0776 H   0  0  0  0  0  0  0  0  0  0  0  0  # atno 10765 bound_to 10752
  140.4054  134.1674  155.7665 H   0  0  0  0  0  0  0  0  0  0  0  0  # atno 11005 bound_to 11000
  144.6894  140.3099  143.7249 LP  0  0  0  0  0  0  0  0  0  0  0  0  # atno 17320 bound_to 7965
  145.7604  139.1823  143.2270 LP  0  0  0  0  0  0  0  0  0  0  0  0  # atno 17321 bound_to 7965
  139.8185  144.7306  150.9604 LP  0  0  0  0  0  0  0  0  0  0  0  0  # atno 17342 bound_to 10162
  140.7817  143.4182  151.0884 LP  0  0  0  0  0  0  0  0  0  0  0  0  # atno 17343 bound_to 10162
  155.9716  130.4625  150.6148 LP  0  0  0  0  0  0  0  0  0  0  0  0  # atno 17370 bound_to 10713
  157.3891  131.0793  151.1410 LP  0  0  0  0  0  0  0  0  0  0  0  0  # atno 17371 bound_to 10713
  141.1841  133.8351  157.1152 LP  0  0  0  0  0  0  0  0  0  0  0  0  # atno 17394 bound_to 11000
  140.0306  134.9903  157.0772 LP  0  0  0  0  0  0  0  0  0  0  0  0  # atno 17395 bound_to 11000

$$$$
