AV-unprocessed.smi:3034|AV-procd|sdf|11578|dock5
  -GOLD-   2272016543D 1   1.00000     0.00000
 Structure written by MMmdl.
 32 32  0  0  0  0  0  0  0  0  1 V2000
  150.2653  140.7950  157.4275 C   0  0  0  0  0  0  0  0  0  0  0  0
  149.2721  139.6474  157.2172 C   0  0  0  0  0  0  0  0  0  0  0  0
  148.3674  139.8691  155.9969 C   0  0  0  0  0  0  0  0  0  0  0  0
  149.3519  140.0868  154.4528 S   0  0  0  0  0  0  0  0  0  0  0  0
  148.9878  141.3663  153.8245 O   0  0  0  0  0  0  0  0  0  0  0  0
  150.7602  139.7706  154.7343 O   0  0  0  0  0  0  0  0  0  0  0  0
  148.7417  138.8243  153.4518 N   0  0  0  0  0  0  0  0  0  0  0  0
  147.3654  138.3802  153.6727 C   0  0  0  0  0  0  0  0  0  0  0  0
  146.5381  138.4945  152.3804 C   0  0  1  0  0  0  0  0  0  0  0  0
  147.4208  138.6664  151.2874 O   0  0  0  0  0  0  0  0  0  0  0  0
  145.6329  137.2814  152.2034 C   0  0  0  0  0  0  0  0  0  0  0  0
  144.5669  137.0131  153.0932 C   0  0  0  0  0  0  0  0  0  0  0  0
  143.7575  135.8857  152.8543 C   0  0  0  0  0  0  0  0  0  0  0  0
  144.0363  135.0739  151.7385 C   0  0  0  0  0  0  0  0  0  0  0  0
  145.1161  135.4284  150.9064 C   0  0  0  0  0  0  0  0  0  0  0  0
  145.8977  136.5071  151.1262 N   0  0  0  0  0  0  0  0  0  0  0  0
  150.8951  140.6084  158.2975 H   0  0  0  0  0  0  0  0  0  0  0  0
  149.7463  141.7401  157.5893 H   0  0  0  0  0  0  0  0  0  0  0  0
  150.9189  140.9137  156.5631 H   0  0  0  0  0  0  0  0  0  0  0  0
  149.8226  138.7138  157.0976 H   0  0  0  0  0  0  0  0  0  0  0  0
  148.6617  139.5343  158.1135 H   0  0  0  0  0  0  0  0  0  0  0  0
  147.7194  139.0041  155.8549 H   0  0  0  0  0  0  0  0  0  0  0  0
  147.7265  140.7417  156.1235 H   0  0  0  0  0  0  0  0  0  0  0  0
  148.9003  139.0345  152.4665 H   0  0  0  0  0  0  0  0  0  0  0  0
  147.3595  137.3594  154.0573 H   0  0  0  0  0  0  0  0  0  0  0  0
  146.9295  139.0152  154.4454 H   0  0  0  0  0  0  0  0  0  0  0  0
  145.9051  139.3823  152.4295 H   0  0  0  0  0  0  0  0  0  0  0  0
  148.0923  139.2809  151.5411 H   0  0  0  0  0  0  0  0  0  0  0  0
  144.3646  137.6532  153.9390 H   0  0  0  0  0  0  0  0  0  0  0  0
  142.9357  135.6496  153.5142 H   0  0  0  0  0  0  0  0  0  0  0  0
  143.4361  134.2020  151.5242 H   0  0  0  0  0  0  0  0  0  0  0  0
  145.3573  134.8305  150.0400 H   0  0  0  0  0  0  0  0  0  0  0  0
  1  2  1  0  0  0  0
  1 17  1  0  0  0  0
  1 18  1  0  0  0  0
  1 19  1  0  0  0  0
  2  3  1  0  0  0  0
  2 20  1  0  0  0  0
  2 21  1  0  0  0  0
  3  4  1  0  0  0  0
  3 22  1  0  0  0  0
  3 23  1  0  0  0  0
  4  5  2  0  0  0  0
  4  6  2  0  0  0  0
  4  7  1  0  0  0  0
  7  8  1  0  0  0  0
  7 24  1  0  0  0  0
  8  9  1  0  0  0  0
  8 25  1  0  0  0  0
  8 26  1  0  0  0  0
  9 10  1  0  0  0  0
  9 11  1  0  0  0  0
  9 27  1  0  0  0  0
 10 28  1  0  0  0  0
 11 16  1  0  0  0  0
 11 12  2  0  0  0  0
 12 13  1  0  0  0  0
 12 29  1  0  0  0  0
 13 14  2  0  0  0  0
 13 30  1  0  0  0  0
 14 15  1  0  0  0  0
 14 31  1  0  0  0  0
 15 16  2  0  0  0  0
 15 32  1  0  0  0  0
M  END
> <s_m_source_file>
AV-unprocessed.smi

> <i_m_source_file_index>
3034

> <i_lp_mmshare_version>
43012

> <i_f3d_flags>
0

> <s_epik_input>
W0NIM11bQ0gyXVtDSDJdUyg9TykoPU8pW05IXVtDSDJdW0NASF0oW09IXSljMVtjSF1bY0hdW2NIXVtjSF1uMQ==

> <s_epik_cmdline>
J2VwaWtfcHl0aG9uJywgJy1waCcsICc3LjAnLCAnLXRuJywgJzgnLCAnLW1hJywgJzIwMCcsICctbWV0YWxfYmluZGluZycsICctaW1hZScsICc8aW5maWxlLm1hZT4nLCAnLW9tYWUnLCAnPG91dGZpbGUubWFlPic=

> <r_epik_Ionization_Penalty>
0.00187371

> <r_epik_Ionization_Penalty_Charging>
0

> <r_epik_Ionization_Penalty_Neutral>
0.00187371

> <r_epik_State_Penalty>
0.0012608

> <r_epik_Charging_Adjusted_Penalty>
0.0012608

> <i_epik_Tot_Q>
0

> <i_epik_Tot_abs_Q>
0

> <r_epik_Metal_State_Penalty>
0.0168387

> <b_epik_Metal_Only>
0

> <s_lp_Force_Field>
OPLS_2005

> <r_lp_Energy>
4.76334

> <b_lp_Chiralities_Consistent>
1

> <s_lp_Variant>
AV-unprocessed.smi:3034-2

> <Gold.Version>
5.8.1

> <Gold.Id.Protein>
6NUR|6NUR_protein|mol2

> <Gold.PLP.Fitness>
41.3495

> <Gold.PLP.PLP>
-27.3789

> <Gold.PLP.part.hbond>
-7.4812

> <Gold.PLP.part.metal>
0.0000

> <Gold.PLP.part.buried>
-3.8857

> <Gold.PLP.part.nonpolar>
-16.7505

> <Gold.PLP.part.repulsive>
1.2233

> <Gold.PLP.ligand.clash>
0.0000

> <Gold.PLP.ligand.torsion>
1.6409

> <Gold.PLP.Chemscore.Hbond>
4.6880

> <Gold.PLP.Chemscore.CHOScore>
1.0000

> <Gold.PLP.Chemscore.Metal>
0.0000

> <Gold.Chemscore.Hbonds>
donor molecule, donor type, donor heavy atom, donor atom, acceptor molecule, acceptor atom, score
      L1  H     7    24       P1  7957  1.00
      L1  H    10    28       P1  7957  0.91
      P1  H  7954  7966       L1    10  0.96
      P1  H  7989  7998       L1     6  1.00
      P1  H  8011  8017       L1     5  0.80
      L1  C    15    32       P1  7921  1.00

> <Gold.PLP.Chemscore.Internal.Correction>
0.1885

> <Gold.Rescore>
     Score         DG    S(hbond)    S(metal)    S(lipo)     H(rot)  DE(clash)    DE(int)     intcor
     13.58     -15.36       3.39        0.00      45.10       2.63       0.15       1.64       ----

> <Gold.Chemscore.Fitness>
13.5750

> <Gold.Chemscore.DG>
-15.3604

> <Gold.Chemscore.ZeroCoef>
-5.4800

> <Gold.Chemscore.Hbond>
3.3923

> <Gold.Chemscore.Metal>
0.0000

> <Gold.Chemscore.Lipo>
45.0991

> <Gold.Chemscore.Internal_Hbond>
0.0000

> <Gold.Chemscore.DEClash>
0.1500

> <Gold.Chemscore.DEInternal>
1.6354

> <Gold.Chemscore.Rot>
2.6275

> <Gold.Chemscore.Internal.Correction>
   9.000000E+99

> <Gold.Chemscore.Hbonds>
donor molecule, donor type, donor heavy atom, donor atom, acceptor molecule, acceptor atom, score
      L1  H     7    24       P1  7957  0.96
      L1  H    10    28       P1  7957  0.84
      P1  H  7954  7966       L1    10  0.28
      P1  H  7989  7998       L1     6  0.30
      P1  H  8011  8017       L1     5  0.77

> <Gold.Chemscore.Hbond.Weighted>
-11.3303

> <Gold.Chemscore.Metal.Weighted>
-0.0000

> <Gold.Chemscore.Lipo.Weighted>
-5.2766

> <Gold.Chemscore.Internal_Hbond.Weighted>
0.0000

> <Gold.Chemscore.DEClash.Weighted>
0.1500

> <Gold.Chemscore.DEInternal.Weighted>
1.6354

> <Gold.Chemscore.Rot.Weighted>
6.7265

> <Gold.Chemscore.Internal.Correction.Weighted>
   9.000000E+99

> <Gold.Protein.RotatedTorsions>
[ 6907 6896 6895 6894 ] final  103.25 input  -60.11 | X-H torsion
[ 7974 7965 7964 7962 ] final   93.53 input  175.53 | X-H torsion
[ 8008 7997 7996 7995 ] final  136.21 input   59.86 | X-H torsion
[ 10167 10162 10161 10158 ] final  125.26 input  -65.29 | X-H torsion
[ 10718 10713 10712 10709 ] final  157.44 input   66.30 | X-H torsion
[ 10763 10752 10751 10750 ] final  -25.29 input  -60.55 | X-H torsion
[ 11005 11000 10999 10996 ] final   33.20 input  -57.11 | X-H torsion

> <Gold.Protein.ActiveResidues>
 VAL166  LYS551  ARG553  GLY616  TRP617  ASP618  TYR619  PRO620  LYS621  CYS622 
 ASP623  PHE694  ASN695  SER759  ASP760  ASP761  ALA762  ILE779  LEU786  VAL792 
 PHE793  MET794  SER795  GLU796  ALA797  LYS798  CYS799  TRP800  GLU811  SER814 

> <Gold.Protein.RotatedAtoms>
  152.5301  133.9854  159.7825 H   0  0  0  0  0  0  0  0  0  0  0  0  # atno 6907 bound_to 6896
  151.0100  133.5966  159.2691 H   0  0  0  0  0  0  0  0  0  0  0  0  # atno 6908 bound_to 6896
  151.3044  135.0784  159.9303 H   0  0  0  0  0  0  0  0  0  0  0  0  # atno 6909 bound_to 6896
  145.4777  139.2279  143.2899 H   0  0  0  0  0  0  0  0  0  0  0  0  # atno 7974 bound_to 7965
  156.3004  140.2451  156.3708 H   0  0  0  0  0  0  0  0  0  0  0  0  # atno 8008 bound_to 7997
  154.8790  140.0413  157.1790 H   0  0  0  0  0  0  0  0  0  0  0  0  # atno 8009 bound_to 7997
  154.8715  140.2936  155.5482 H   0  0  0  0  0  0  0  0  0  0  0  0  # atno 8010 bound_to 7997
  139.5695  144.6931  151.3817 H   0  0  0  0  0  0  0  0  0  0  0  0  # atno 10167 bound_to 10162
  157.1915  131.0655  151.2077 H   0  0  0  0  0  0  0  0  0  0  0  0  # atno 10718 bound_to 10713
  153.6974  135.6958  153.5072 H   0  0  0  0  0  0  0  0  0  0  0  0  # atno 10763 bound_to 10752
  153.2367  135.4319  155.0653 H   0  0  0  0  0  0  0  0  0  0  0  0  # atno 10764 bound_to 10752
  154.8354  135.3498  154.6514 H   0  0  0  0  0  0  0  0  0  0  0  0  # atno 10765 bound_to 10752
  140.2656  134.3142  155.7844 H   0  0  0  0  0  0  0  0  0  0  0  0  # atno 11005 bound_to 11000
  146.2359  140.5561  142.8955 LP  0  0  0  0  0  0  0  0  0  0  0  0  # atno 17320 bound_to 7965
  144.7907  140.6026  143.6543 LP  0  0  0  0  0  0  0  0  0  0  0  0  # atno 17321 bound_to 7965
  140.6979  143.7703  150.7356 LP  0  0  0  0  0  0  0  0  0  0  0  0  # atno 17342 bound_to 10162
  140.1205  143.4616  152.2316 LP  0  0  0  0  0  0  0  0  0  0  0  0  # atno 17343 bound_to 10162
  157.3856  130.7254  149.6661 LP  0  0  0  0  0  0  0  0  0  0  0  0  # atno 17370 bound_to 10713
  155.9711  130.4160  150.4211 LP  0  0  0  0  0  0  0  0  0  0  0  0  # atno 17371 bound_to 10713
  141.2184  133.7435  156.9254 LP  0  0  0  0  0  0  0  0  0  0  0  0  # atno 17394 bound_to 11000
  140.1423  134.9285  157.2483 LP  0  0  0  0  0  0  0  0  0  0  0  0  # atno 17395 bound_to 11000

$$$$
