AV-unprocessed.smi:934|AV-procd|sdf|4205|dock10
  -GOLD-   22720 2113D 1   1.00000     0.00000
 Structure written by MMmdl.
 43 44  0  0  0  0  0  0  0  0  2 V2000
  146.6457  138.5863  151.7049 C   0  0  0  0  0  0  0  0  0  0  0  0
  146.1117  138.8889  153.0587 N   0  3  0  0  0  0  0  0  0  0  0  0
  145.5180  137.6676  153.6626 C   0  0  0  0  0  0  0  0  0  0  0  0
  147.0280  139.7051  153.9412 C   0  0  0  0  0  0  0  0  0  0  0  0
  146.1931  140.2713  155.1371 C   0  0  0  0  0  0  0  0  0  0  0  0
  145.1753  141.2438  154.7365 N   0  0  0  0  0  0  0  0  0  0  0  0
  145.0320  142.4756  155.2455 C   0  0  0  0  0  0  0  0  0  0  0  0
  145.7493  142.9274  156.1367 O   0  0  0  0  0  0  0  0  0  0  0  0
  144.0249  143.1334  154.6464 N   0  0  0  0  0  0  0  0  0  0  0  0
  143.5410  144.4441  154.9076 C   0  0  0  0  0  0  0  0  0  0  0  0
  144.1998  145.2038  155.8963 C   0  0  0  0  0  0  0  0  0  0  0  0
  143.7559  146.5117  156.1679 C   0  0  0  0  0  0  0  0  0  0  0  0
  142.6683  147.0161  155.4295 C   0  0  0  0  0  0  0  0  0  0  0  0
  142.0348  146.3094  154.4701 N   0  0  0  0  0  0  0  0  0  0  0  0
  142.4646  145.0543  154.2159 C   0  0  0  0  0  0  0  0  0  0  0  0
  148.2096  138.8420  154.4816 C   0  0  0  0  0  0  0  0  0  0  0  0
  149.2681  139.6671  155.2361 C   0  0  0  0  0  0  0  0  0  0  0  0
  149.7706  140.6843  154.3796 O   0  0  0  0  0  0  0  0  0  0  0  0
  148.7706  141.6043  153.9615 C   0  0  0  0  0  0  0  0  0  0  0  0
  147.6764  140.8776  153.1546 C   0  0  0  0  0  0  0  0  0  0  0  0
  147.4647  137.8679  151.7495 H   0  0  0  0  0  0  0  0  0  0  0  0
  146.9951  139.4757  151.1839 H   0  0  0  0  0  0  0  0  0  0  0  0
  145.8641  138.1518  151.0807 H   0  0  0  0  0  0  0  0  0  0  0  0
  146.2830  136.9925  154.0462 H   0  0  0  0  0  0  0  0  0  0  0  0
  144.9335  137.1169  152.9248 H   0  0  0  0  0  0  0  0  0  0  0  0
  144.8250  137.9128  154.4668 H   0  0  0  0  0  0  0  0  0  0  0  0
  145.7349  139.4816  155.7304 H   0  0  0  0  0  0  0  0  0  0  0  0
  146.8470  140.7772  155.8463 H   0  0  0  0  0  0  0  0  0  0  0  0
  144.5512  140.9676  153.9925 H   0  0  0  0  0  0  0  0  0  0  0  0
  143.5804  142.6583  153.8746 H   0  0  0  0  0  0  0  0  0  0  0  0
  145.0343  144.7909  156.4442 H   0  0  0  0  0  0  0  0  0  0  0  0
  144.2382  147.1141  156.9235 H   0  0  0  0  0  0  0  0  0  0  0  0
  142.3010  148.0155  155.6103 H   0  0  0  0  0  0  0  0  0  0  0  0
  141.9341  144.5524  153.4223 H   0  0  0  0  0  0  0  0  0  0  0  0
  147.8485  138.0260  155.1068 H   0  0  0  0  0  0  0  0  0  0  0  0
  148.7541  138.3747  153.6623 H   0  0  0  0  0  0  0  0  0  0  0  0
  148.8825  140.0983  156.1594 H   0  0  0  0  0  0  0  0  0  0  0  0
  150.0977  139.0217  155.5249 H   0  0  0  0  0  0  0  0  0  0  0  0
  148.3543  142.1250  154.8242 H   0  0  0  0  0  0  0  0  0  0  0  0
  149.2417  142.3661  153.3403 H   0  0  0  0  0  0  0  0  0  0  0  0
  148.1274  140.5070  152.2341 H   0  0  0  0  0  0  0  0  0  0  0  0
  146.9251  141.6073  152.8517 H   0  0  0  0  0  0  0  0  0  0  0  0
  145.3194  139.4940  152.8963 H   0  0  0  0  0  0  0  0  0  0  0  0
  1  2  1  0  0  0  0
  1 21  1  0  0  0  0
  1 22  1  0  0  0  0
  1 23  1  0  0  0  0
  2  3  1  0  0  0  0
  2  4  1  0  0  0  0
  2 43  1  0  0  0  0
  3 24  1  0  0  0  0
  3 25  1  0  0  0  0
  3 26  1  0  0  0  0
  4 20  1  0  0  0  0
  4  5  1  0  0  0  0
  4 16  1  0  0  0  0
  5  6  1  0  0  0  0
  5 27  1  0  0  0  0
  5 28  1  0  0  0  0
  6  7  1  0  0  0  0
  6 29  1  0  0  0  0
  7  8  2  0  0  0  0
  7  9  1  0  0  0  0
  9 10  1  0  0  0  0
  9 30  1  0  0  0  0
 10 15  1  0  0  0  0
 10 11  2  0  0  0  0
 11 12  1  0  0  0  0
 11 31  1  0  0  0  0
 12 13  2  0  0  0  0
 12 32  1  0  0  0  0
 13 14  1  0  0  0  0
 13 33  1  0  0  0  0
 14 15  2  0  0  0  0
 15 34  1  0  0  0  0
 16 17  1  0  0  0  0
 16 35  1  0  0  0  0
 16 36  1  0  0  0  0
 17 18  1  0  0  0  0
 17 37  1  0  0  0  0
 17 38  1  0  0  0  0
 18 19  1  0  0  0  0
 19 20  1  0  0  0  0
 19 39  1  0  0  0  0
 19 40  1  0  0  0  0
 20 41  1  0  0  0  0
 20 42  1  0  0  0  0
M  CHG  1   2   1
M  END
> <s_m_source_file>
AV-unprocessed.smi

> <i_m_source_file_index>
934

> <i_lp_mmshare_version>
43012

> <i_f3d_flags>
0

> <s_epik_input>
W0NIMl0xW0NIMl1PW0NIMl1bQ0gyXUMxKE4oW0NIM10pW0NIM10pW0NIMl1bTkhdQyg9TylbTkhdYzJbY0hdW2NIXVtjSF1uW2NIXTI=

> <s_epik_cmdline>
J2VwaWtfcHl0aG9uJywgJy1waCcsICc3LjAnLCAnLXRuJywgJzgnLCAnLW1hJywgJzIwMCcsICctbWV0YWxfYmluZGluZycsICctaW1hZScsICc8aW5maWxlLm1hZT4nLCAnLW9tYWUnLCAnPG91dGZpbGUubWFlPic=

> <r_epik_Ionization_Penalty>
0.0170741

> <r_epik_Ionization_Penalty_Charging>
0.0128317

> <r_epik_Ionization_Penalty_Neutral>
0.00424236

> <r_epik_State_Penalty>
0.00995429

> <r_epik_Charging_Adjusted_Penalty>
0.022786

> <i_epik_Tot_Q>
1

> <i_epik_Tot_abs_Q>
1

> <r_epik_Metal_State_Penalty>
0.00996615

> <b_epik_Metal_Only>
0

> <s_lp_Force_Field>
OPLS_2005

> <r_lp_Energy>
34.8396

> <b_lp_Chiralities_Consistent>
1

> <s_lp_Variant>
AV-unprocessed.smi:934-1

> <Gold.Version>
5.8.1

> <Gold.Id.Protein>
6NUR|6NUR_protein|mol2

> <Gold.PLP.Fitness>
42.8012

> <Gold.PLP.PLP>
-27.0756

> <Gold.PLP.part.hbond>
-4.0000

> <Gold.PLP.part.metal>
0.0000

> <Gold.PLP.part.buried>
-1.3310

> <Gold.PLP.part.nonpolar>
-23.7566

> <Gold.PLP.part.repulsive>
0.2928

> <Gold.PLP.ligand.clash>
0.0000

> <Gold.PLP.ligand.torsion>
0.2439

> <Gold.PLP.Chemscore.Hbond>
4.4250

> <Gold.PLP.Chemscore.CHOScore>
0.9382

> <Gold.PLP.Chemscore.Metal>
0.0000

> <Gold.Chemscore.Hbonds>
donor molecule, donor type, donor heavy atom, donor atom, acceptor molecule, acceptor atom, score
      L1  H     2    43       P1 10175  2.00
      L1  H     6    29       P1 10175  1.00
      L1  H     9    30       P1 10174  0.70
      P1  H  7989  7998       L1    18  0.66
      L1  C    15    34       P1 10174  0.97

> <Gold.PLP.Chemscore.Internal.Correction>
0.1240

> <Gold.Rescore>
     Score         DG    S(hbond)    S(metal)    S(lipo)     H(rot)  DE(clash)    DE(int)     intcor
     15.92     -19.29       2.59        0.00      76.89       1.49       1.76       1.60       ----

> <Gold.Chemscore.Fitness>
15.9204

> <Gold.Chemscore.DG>
-19.2863

> <Gold.Chemscore.ZeroCoef>
-5.4800

> <Gold.Chemscore.Hbond>
2.5859

> <Gold.Chemscore.Metal>
0.0000

> <Gold.Chemscore.Lipo>
76.8910

> <Gold.Chemscore.Internal_Hbond>
0.0000

> <Gold.Chemscore.DEClash>
1.7626

> <Gold.Chemscore.DEInternal>
1.6033

> <Gold.Chemscore.Rot>
1.4948

> <Gold.Chemscore.Internal.Correction>
   9.000000E+99

> <Gold.Chemscore.Hbonds>
donor molecule, donor type, donor heavy atom, donor atom, acceptor molecule, acceptor atom, score
      L1  H     2    43       P1 10175  0.99
      L1  H     6    29       P1 10175  0.88
      L1  H     9    30       P1 10174  0.07
      P1  H  7989  7998       L1    18  0.58

> <Gold.Chemscore.Hbond.Weighted>
-8.6367

> <Gold.Chemscore.Metal.Weighted>
-0.0000

> <Gold.Chemscore.Lipo.Weighted>
-8.9962

> <Gold.Chemscore.Internal_Hbond.Weighted>
0.0000

> <Gold.Chemscore.DEClash.Weighted>
1.7626

> <Gold.Chemscore.DEInternal.Weighted>
1.6033

> <Gold.Chemscore.Rot.Weighted>
3.8267

> <Gold.Chemscore.Internal.Correction.Weighted>
   9.000000E+99

> <Gold.Protein.RotatedTorsions>
[ 6907 6896 6895 6894 ] final  -81.26 input  -60.11 | X-H torsion
[ 7974 7965 7964 7962 ] final   73.04 input  175.53 | X-H torsion
[ 8008 7997 7996 7995 ] final   65.56 input   59.86 | X-H torsion
[ 10167 10162 10161 10158 ] final   66.38 input  -65.29 | X-H torsion
[ 10718 10713 10712 10709 ] final  -33.00 input   66.30 | X-H torsion
[ 10763 10752 10751 10750 ] final -128.26 input  -60.55 | X-H torsion
[ 11005 11000 10999 10996 ] final -108.95 input  -57.11 | X-H torsion

> <Gold.Protein.ActiveResidues>
 VAL166  LYS551  ARG553  GLY616  TRP617  ASP618  TYR619  PRO620  LYS621  CYS622 
 ASP623  PHE694  ASN695  SER759  ASP760  ASP761  ALA762  ILE779  LEU786  VAL792 
 PHE793  MET794  SER795  GLU796  ALA797  LYS798  CYS799  TRP800  GLU811  SER814 

> <Gold.Protein.RotatedAtoms>
  150.6915  134.3844  159.5048 H   0  0  0  0  0  0  0  0  0  0  0  0  # atno 6907 bound_to 6896
  152.1642  134.8885  160.0548 H   0  0  0  0  0  0  0  0  0  0  0  0  # atno 6908 bound_to 6896
  151.9935  133.3765  159.4190 H   0  0  0  0  0  0  0  0  0  0  0  0  # atno 6909 bound_to 6896
  145.7458  139.2739  143.1460 H   0  0  0  0  0  0  0  0  0  0  0  0  # atno 7974 bound_to 7965
  155.6637  140.3497  155.4792 H   0  0  0  0  0  0  0  0  0  0  0  0  # atno 8008 bound_to 7997
  155.9747  140.1162  157.0804 H   0  0  0  0  0  0  0  0  0  0  0  0  # atno 8009 bound_to 7997
  154.4175  140.1150  156.5340 H   0  0  0  0  0  0  0  0  0  0  0  0  # atno 8010 bound_to 7997
  140.1010  144.4904  150.7037 H   0  0  0  0  0  0  0  0  0  0  0  0  # atno 10167 bound_to 10162
  156.3681  130.4335  149.7568 H   0  0  0  0  0  0  0  0  0  0  0  0  # atno 10718 bound_to 10713
  154.8756  135.3934  154.3728 H   0  0  0  0  0  0  0  0  0  0  0  0  # atno 10763 bound_to 10752
  153.4485  135.7028  153.6129 H   0  0  0  0  0  0  0  0  0  0  0  0  # atno 10764 bound_to 10752
  153.4679  135.3797  155.2343 H   0  0  0  0  0  0  0  0  0  0  0  0  # atno 10765 bound_to 10752
  141.0874  133.9115  157.2154 H   0  0  0  0  0  0  0  0  0  0  0  0  # atno 11005 bound_to 11000
  146.0404  140.8171  142.9831 LP  0  0  0  0  0  0  0  0  0  0  0  0  # atno 17320 bound_to 7965
  144.6860  140.2901  143.7279 LP  0  0  0  0  0  0  0  0  0  0  0  0  # atno 17321 bound_to 7965
  140.6978  143.2415  151.4952 LP  0  0  0  0  0  0  0  0  0  0  0  0  # atno 17342 bound_to 10162
  139.5671  144.2016  152.1781 LP  0  0  0  0  0  0  0  0  0  0  0  0  # atno 17343 bound_to 10162
  156.4706  130.7995  151.3013 LP  0  0  0  0  0  0  0  0  0  0  0  0  # atno 17370 bound_to 10713
  157.7481  131.0037  150.3048 LP  0  0  0  0  0  0  0  0  0  0  0  0  # atno 17371 bound_to 10713
  139.9694  135.0132  156.9473 LP  0  0  0  0  0  0  0  0  0  0  0  0  # atno 17394 bound_to 11000
  140.5332  134.0793  155.7321 LP  0  0  0  0  0  0  0  0  0  0  0  0  # atno 17395 bound_to 11000

$$$$
