AV-unprocessed.smi:3253|AV-procd|sdf|12451|dock4
  -GOLD-   2272018343D 1   1.00000     0.00000
 Structure written by MMmdl.
 36 37  0  0  0  0  0  0  0  0  1 V2000
  149.2044  141.9573  158.0230 C   0  0  0  0  0  0  0  0  0  0  0  0
  150.5575  141.4870  157.4647 C   0  0  2  0  0  0  0  0  0  0  0  0
  151.4696  142.6525  157.0224 C   0  0  0  0  0  0  0  0  0  0  0  0
  151.7301  143.5979  158.0913 N   0  0  0  0  0  0  0  0  0  0  0  0
  152.3272  143.3371  159.3178 C   0  0  0  0  0  0  0  0  0  0  0  0
  152.3598  144.5319  160.0007 C   0  0  0  0  0  0  0  0  0  0  0  0
  151.7867  145.5335  159.2208 N   0  0  0  0  0  0  0  0  0  0  0  0
  151.4348  144.9049  158.1067 C   0  0  0  0  0  0  0  0  0  0  0  0
  150.3236  140.5774  156.3469 N   0  0  0  0  0  0  0  0  0  0  0  0
  151.2741  139.8971  155.6870 C   0  0  0  0  0  0  0  0  0  0  0  0
  152.4726  139.9753  155.9591 O   0  0  0  0  0  0  0  0  0  0  0  0
  150.7974  138.9889  154.5428 C   0  0  1  0  0  0  0  0  0  0  0  0
  151.6057  137.6763  154.4894 C   0  0  0  0  0  0  0  0  0  0  0  0
  150.5946  136.6049  154.8616 C   0  0  0  0  0  0  0  0  0  0  0  0
  150.8988  135.4225  155.0117 O   0  0  0  0  0  0  0  0  0  0  0  0
  149.3736  137.1277  155.0021 N   0  0  0  0  0  0  0  0  0  0  0  0
  148.1683  136.3913  155.3577 C   0  0  0  0  0  0  0  0  0  0  0  0
  149.3259  138.5506  154.7134 C   0  0  0  0  0  0  0  0  0  0  0  0
  149.3301  142.5658  158.9188 H   0  0  0  0  0  0  0  0  0  0  0  0
  148.5770  141.1083  158.2963 H   0  0  0  0  0  0  0  0  0  0  0  0
  148.6587  142.5526  157.2900 H   0  0  0  0  0  0  0  0  0  0  0  0
  151.0612  140.9333  158.2595 H   0  0  0  0  0  0  0  0  0  0  0  0
  152.4295  142.2747  156.6672 H   0  0  0  0  0  0  0  0  0  0  0  0
  151.0184  143.1904  156.1874 H   0  0  0  0  0  0  0  0  0  0  0  0
  152.6725  142.3520  159.5945 H   0  0  0  0  0  0  0  0  0  0  0  0
  152.7470  144.7456  160.9859 H   0  0  0  0  0  0  0  0  0  0  0  0
  150.9533  145.4072  157.2805 H   0  0  0  0  0  0  0  0  0  0  0  0
  149.3649  140.4536  156.0547 H   0  0  0  0  0  0  0  0  0  0  0  0
  150.9065  139.5229  153.5970 H   0  0  0  0  0  0  0  0  0  0  0  0
  151.9823  137.4867  153.4838 H   0  0  0  0  0  0  0  0  0  0  0  0
  152.4540  137.6542  155.1758 H   0  0  0  0  0  0  0  0  0  0  0  0
  147.9405  135.6428  154.5980 H   0  0  0  0  0  0  0  0  0  0  0  0
  147.3105  137.0589  155.4438 H   0  0  0  0  0  0  0  0  0  0  0  0
  148.2981  135.8830  156.3138 H   0  0  0  0  0  0  0  0  0  0  0  0
  148.8093  139.0854  155.5126 H   0  0  0  0  0  0  0  0  0  0  0  0
  148.7643  138.7135  153.7927 H   0  0  0  0  0  0  0  0  0  0  0  0
  1  2  1  0  0  0  0
  1 19  1  0  0  0  0
  1 20  1  0  0  0  0
  1 21  1  0  0  0  0
  2  3  1  0  0  0  0
  2  9  1  0  0  0  0
  2 22  1  0  0  0  0
  3  4  1  0  0  0  0
  3 23  1  0  0  0  0
  3 24  1  0  0  0  0
  4  8  1  0  0  0  0
  4  5  1  0  0  0  0
  5  6  2  0  0  0  0
  5 25  1  0  0  0  0
  6  7  1  0  0  0  0
  6 26  1  0  0  0  0
  7  8  2  0  0  0  0
  8 27  1  0  0  0  0
  9 10  1  0  0  0  0
  9 28  1  0  0  0  0
 10 11  2  0  0  0  0
 10 12  1  0  0  0  0
 12 18  1  0  0  0  0
 12 13  1  0  0  0  0
 12 29  1  0  0  0  0
 13 14  1  0  0  0  0
 13 30  1  0  0  0  0
 13 31  1  0  0  0  0
 14 15  2  0  0  0  0
 14 16  1  0  0  0  0
 16 17  1  0  0  0  0
 16 18  1  0  0  0  0
 17 32  1  0  0  0  0
 17 33  1  0  0  0  0
 17 34  1  0  0  0  0
 18 35  1  0  0  0  0
 18 36  1  0  0  0  0
M  END
> <s_m_source_file>
AV-unprocessed.smi

> <i_m_source_file_index>
3253

> <i_lp_mmshare_version>
43012

> <i_f3d_flags>
0

> <s_epik_input>
W2NIXTFuW2NIXVtjSF1uMVtDSDJdW0NAQEhdKFtDSDNdKVtOSF1DKD1PKVtDQEBIXTJbQ0gyXUMoPU8pTihbQ0gzXSlbQ0gyXTI=

> <s_epik_cmdline>
J2VwaWtfcHl0aG9uJywgJy1waCcsICc3LjAnLCAnLXRuJywgJzgnLCAnLW1hJywgJzIwMCcsICctbWV0YWxfYmluZGluZycsICctaW1hZScsICc8aW5maWxlLm1hZT4nLCAnLW9tYWUnLCAnPG91dGZpbGUubWFlPic=

> <r_lp_tautomer_probability>
1

> <r_epik_Ionization_Penalty>
0.628884

> <r_epik_Ionization_Penalty_Charging>
0.628884

> <r_epik_Ionization_Penalty_Neutral>
2.35084e-08

> <r_epik_State_Penalty>
0.64556

> <r_epik_Charging_Adjusted_Penalty>
1.27444

> <i_epik_Tot_Q>
0

> <i_epik_Tot_abs_Q>
0

> <r_epik_Metal_State_Penalty>
0.308736

> <b_epik_Metal_Only>
0

> <s_lp_Force_Field>
OPLS_2005

> <r_lp_Energy>
12.6609

> <b_lp_Chiralities_Consistent>
1

> <s_lp_Variant>
AV-unprocessed.smi:3253-7

> <Gold.Version>
5.8.1

> <Gold.Id.Protein>
6NUR|6NUR_protein|mol2

> <Gold.PLP.Fitness>
42.3924

> <Gold.PLP.PLP>
-35.1555

> <Gold.PLP.part.hbond>
-2.9825

> <Gold.PLP.part.metal>
0.0000

> <Gold.PLP.part.buried>
-4.2686

> <Gold.PLP.part.nonpolar>
-28.1257

> <Gold.PLP.part.repulsive>
0.3219

> <Gold.PLP.ligand.clash>
0.0000

> <Gold.PLP.ligand.torsion>
0.6730

> <Gold.PLP.Chemscore.Hbond>
2.0000

> <Gold.PLP.Chemscore.CHOScore>
0.8506

> <Gold.PLP.Chemscore.Metal>
0.0000

> <Gold.Chemscore.Hbonds>
donor molecule, donor type, donor heavy atom, donor atom, acceptor molecule, acceptor atom, score
      P1  H  7997  8009       L1    11  1.00
      P1  H 10752 10764       L1    15  0.89
      L1  C     8    27       P1  8028  0.63

> <Gold.PLP.Chemscore.Internal.Correction>
0.0312

> <Gold.Rescore>
     Score         DG    S(hbond)    S(metal)    S(lipo)     H(rot)  DE(clash)    DE(int)     intcor
     12.71     -14.06       1.86        0.00      63.36       1.97       0.59       0.76       ----

> <Gold.Chemscore.Fitness>
12.7125

> <Gold.Chemscore.DG>
-14.0586

> <Gold.Chemscore.ZeroCoef>
-5.4800

> <Gold.Chemscore.Hbond>
1.8565

> <Gold.Chemscore.Metal>
0.0000

> <Gold.Chemscore.Lipo>
63.3609

> <Gold.Chemscore.Internal_Hbond>
0.0000

> <Gold.Chemscore.DEClash>
0.5907

> <Gold.Chemscore.DEInternal>
0.7554

> <Gold.Chemscore.Rot>
1.9669

> <Gold.Chemscore.Internal.Correction>
   9.000000E+99

> <Gold.Chemscore.Hbonds>
donor molecule, donor type, donor heavy atom, donor atom, acceptor molecule, acceptor atom, score
      P1  H  7997  8009       L1    11  1.00
      P1  H 10752 10764       L1    15  0.21

> <Gold.Chemscore.Hbond.Weighted>
-6.2006

> <Gold.Chemscore.Metal.Weighted>
-0.0000

> <Gold.Chemscore.Lipo.Weighted>
-7.4132

> <Gold.Chemscore.Internal_Hbond.Weighted>
0.0000

> <Gold.Chemscore.DEClash.Weighted>
0.5907

> <Gold.Chemscore.DEInternal.Weighted>
0.7554

> <Gold.Chemscore.Rot.Weighted>
5.0352

> <Gold.Chemscore.Internal.Correction.Weighted>
   9.000000E+99

> <Gold.Protein.RotatedTorsions>
[ 6907 6896 6895 6894 ] final  161.35 input  -60.11 | X-H torsion
[ 7974 7965 7964 7962 ] final   -0.67 input  175.53 | X-H torsion
[ 8008 7997 7996 7995 ] final -150.40 input   59.86 | X-H torsion
[ 10167 10162 10161 10158 ] final -151.07 input  -65.29 | X-H torsion
[ 10718 10713 10712 10709 ] final   65.56 input   66.30 | X-H torsion
[ 10763 10752 10751 10750 ] final  -52.83 input  -60.55 | X-H torsion
[ 11005 11000 10999 10996 ] final  124.93 input  -57.11 | X-H torsion

> <Gold.Protein.ActiveResidues>
 VAL166  LYS551  ARG553  GLY616  TRP617  ASP618  TYR619  PRO620  LYS621  CYS622 
 ASP623  PHE694  ASN695  SER759  ASP760  ASP761  ALA762  ILE779  LEU786  VAL792 
 PHE793  MET794  SER795  GLU796  ALA797  LYS798  CYS799  TRP800  GLU811  SER814 

> <Gold.Protein.RotatedAtoms>
  151.9568  133.3683  159.4020 H   0  0  0  0  0  0  0  0  0  0  0  0  # atno 6907 bound_to 6896
  150.6971  134.4282  159.5245 H   0  0  0  0  0  0  0  0  0  0  0  0  # atno 6908 bound_to 6896
  152.1964  134.8626  160.0563 H   0  0  0  0  0  0  0  0  0  0  0  0  # atno 6909 bound_to 6896
  146.2425  140.1305  142.8338 H   0  0  0  0  0  0  0  0  0  0  0  0  # atno 7974 bound_to 7965
  155.6230  140.0683  157.2672 H   0  0  0  0  0  0  0  0  0  0  0  0  # atno 8008 bound_to 7997
  154.4224  140.1781  156.1440 H   0  0  0  0  0  0  0  0  0  0  0  0  # atno 8009 bound_to 7997
  155.9994  140.3337  155.6834 H   0  0  0  0  0  0  0  0  0  0  0  0  # atno 8010 bound_to 7997
  139.7299  143.8824  152.2531 H   0  0  0  0  0  0  0  0  0  0  0  0  # atno 10167 bound_to 10162
  157.6113  130.9220  149.9993 H   0  0  0  0  0  0  0  0  0  0  0  0  # atno 10718 bound_to 10713
  154.1491  135.6493  153.4959 H   0  0  0  0  0  0  0  0  0  0  0  0  # atno 10763 bound_to 10752
  153.0143  135.5333  154.6827 H   0  0  0  0  0  0  0  0  0  0  0  0  # atno 10764 bound_to 10752
  154.6109  135.2954  155.0404 H   0  0  0  0  0  0  0  0  0  0  0  0  # atno 10765 bound_to 10752
  139.9382  134.9638  156.8482 H   0  0  0  0  0  0  0  0  0  0  0  0  # atno 11005 bound_to 11000
  145.0330  140.8886  143.5098 LP  0  0  0  0  0  0  0  0  0  0  0  0  # atno 17320 bound_to 7965
  145.1372  139.2595  143.5509 LP  0  0  0  0  0  0  0  0  0  0  0  0  # atno 17321 bound_to 7965
  139.8744  144.7051  150.8949 LP  0  0  0  0  0  0  0  0  0  0  0  0  # atno 17342 bound_to 10162
  140.7769  143.3711  151.1647 LP  0  0  0  0  0  0  0  0  0  0  0  0  # atno 17343 bound_to 10162
  156.1217  130.3645  149.9876 LP  0  0  0  0  0  0  0  0  0  0  0  0  # atno 17370 bound_to 10713
  156.7955  130.9271  151.3646 LP  0  0  0  0  0  0  0  0  0  0  0  0  # atno 17371 bound_to 10713
  140.6021  134.0162  155.7541 LP  0  0  0  0  0  0  0  0  0  0  0  0  # atno 17394 bound_to 11000
  141.1005  133.9776  157.3087 LP  0  0  0  0  0  0  0  0  0  0  0  0  # atno 17395 bound_to 11000

$$$$
