AV-unprocessed.smi:2911|AV-procd|sdf|11180|dock3
  -GOLD-   2272016 73D 1   1.00000     0.00000
 Structure written by MMmdl.
 41 42  0  0  0  0  0  0  0  0  1 V2000
  143.8293  143.7978  163.0316 C   0  0  0  0  0  0  0  0  0  0  0  0
  144.7176  143.4384  161.8898 C   0  0  0  0  0  0  0  0  0  0  0  0
  145.3808  142.2886  161.8677 N   0  0  0  0  0  0  0  0  0  0  0  0
  146.0801  142.3422  160.6534 O   0  0  0  0  0  0  0  0  0  0  0  0
  145.7325  143.5187  160.0785 C   0  0  0  0  0  0  0  0  0  0  0  0
  146.3545  143.8960  158.7763 C   0  0  0  0  0  0  0  0  0  0  0  0
  147.0566  142.7098  158.0965 C   0  0  0  0  0  0  0  0  0  0  0  0
  148.4909  142.9394  157.9652 N   0  0  0  0  0  0  0  0  0  0  0  0
  149.2836  143.4537  158.9209 C   0  0  0  0  0  0  0  0  0  0  0  0
  148.8397  143.8402  160.0022 O   0  0  0  0  0  0  0  0  0  0  0  0
  150.5750  143.6067  158.5308 N   0  0  0  0  0  0  0  0  0  0  0  0
  151.2128  142.6369  157.6224 C   0  0  0  0  0  0  0  0  0  0  0  0
  151.9098  141.5480  158.4612 C   0  0  0  0  0  0  0  0  0  0  0  0
  152.9359  142.1598  159.4390 C   0  0  2  0  0  0  0  0  0  0  0  0
  153.5442  141.0954  160.3623 C   0  0  0  0  0  0  0  0  0  0  0  0
  152.3156  143.3245  160.2417 C   0  0  0  0  0  0  0  0  0  0  0  0
  151.6077  144.3275  159.3073 C   0  0  2  0  0  0  0  0  0  0  0  0
  151.1166  145.5857  160.0544 C   0  0  0  0  0  0  0  0  0  0  0  0
  144.8987  144.2513  160.8130 N   0  0  0  0  0  0  0  0  0  0  0  0
  144.1403  143.2823  163.9409 H   0  0  0  0  0  0  0  0  0  0  0  0
  142.7999  143.5174  162.8084 H   0  0  0  0  0  0  0  0  0  0  0  0
  143.8632  144.8716  163.2180 H   0  0  0  0  0  0  0  0  0  0  0  0
  145.5764  144.3011  158.1282 H   0  0  0  0  0  0  0  0  0  0  0  0
  147.0666  144.7033  158.9517 H   0  0  0  0  0  0  0  0  0  0  0  0
  146.9117  141.8050  158.6875 H   0  0  0  0  0  0  0  0  0  0  0  0
  146.6170  142.5151  157.1167 H   0  0  0  0  0  0  0  0  0  0  0  0
  148.9153  142.6869  157.0847 H   0  0  0  0  0  0  0  0  0  0  0  0
  150.5128  142.1681  156.9301 H   0  0  0  0  0  0  0  0  0  0  0  0
  151.9409  143.1479  156.9910 H   0  0  0  0  0  0  0  0  0  0  0  0
  151.1590  140.9851  159.0179 H   0  0  0  0  0  0  0  0  0  0  0  0
  152.4034  140.8331  157.8020 H   0  0  0  0  0  0  0  0  0  0  0  0
  153.7477  142.5744  158.8396 H   0  0  0  0  0  0  0  0  0  0  0  0
  152.7833  140.6383  160.9955 H   0  0  0  0  0  0  0  0  0  0  0  0
  154.3033  141.5289  161.0140 H   0  0  0  0  0  0  0  0  0  0  0  0
  154.0192  140.3010  159.7860 H   0  0  0  0  0  0  0  0  0  0  0  0
  151.6027  142.9365  160.9711 H   0  0  0  0  0  0  0  0  0  0  0  0
  153.0944  143.8319  160.8123 H   0  0  0  0  0  0  0  0  0  0  0  0
  152.3456  144.6936  158.5912 H   0  0  0  0  0  0  0  0  0  0  0  0
  151.9646  146.1691  160.4140 H   0  0  0  0  0  0  0  0  0  0  0  0
  150.5110  145.3452  160.9277 H   0  0  0  0  0  0  0  0  0  0  0  0
  150.5317  146.2324  159.3998 H   0  0  0  0  0  0  0  0  0  0  0  0
  1  2  1  0  0  0  0
  1 20  1  0  0  0  0
  1 21  1  0  0  0  0
  1 22  1  0  0  0  0
  2 19  1  0  0  0  0
  2  3  2  0  0  0  0
  3  4  1  0  0  0  0
  4  5  1  0  0  0  0
  5  6  1  0  0  0  0
  5 19  2  0  0  0  0
  6  7  1  0  0  0  0
  6 23  1  0  0  0  0
  6 24  1  0  0  0  0
  7  8  1  0  0  0  0
  7 25  1  0  0  0  0
  7 26  1  0  0  0  0
  8  9  1  0  0  0  0
  8 27  1  0  0  0  0
  9 10  2  0  0  0  0
  9 11  1  0  0  0  0
 11 17  1  0  0  0  0
 11 12  1  0  0  0  0
 12 13  1  0  0  0  0
 12 28  1  0  0  0  0
 12 29  1  0  0  0  0
 13 14  1  0  0  0  0
 13 30  1  0  0  0  0
 13 31  1  0  0  0  0
 14 15  1  0  0  0  0
 14 16  1  0  0  0  0
 14 32  1  0  0  0  0
 15 33  1  0  0  0  0
 15 34  1  0  0  0  0
 15 35  1  0  0  0  0
 16 17  1  0  0  0  0
 16 36  1  0  0  0  0
 16 37  1  0  0  0  0
 17 18  1  0  0  0  0
 17 38  1  0  0  0  0
 18 39  1  0  0  0  0
 18 40  1  0  0  0  0
 18 41  1  0  0  0  0
M  END
> <s_m_source_file>
AV-unprocessed.smi

> <i_m_source_file_index>
2911

> <i_lp_mmshare_version>
43012

> <i_f3d_flags>
0

> <s_epik_input>
W0NIM11jMW5vYyhuMSlbQ0gyXVtDSDJdW05IXUMoPU8pTjJbQ0gyXVtDSDJdW0NAQEhdKFtDSDNdKVtDSDJdW0NASF0yW0NIM10=

> <s_epik_cmdline>
J2VwaWtfcHl0aG9uJywgJy1waCcsICc3LjAnLCAnLXRuJywgJzgnLCAnLW1hJywgJzIwMCcsICctbWV0YWxfYmluZGluZycsICctaW1hZScsICc8aW5maWxlLm1hZT4nLCAnLW9tYWUnLCAnPG91dGZpbGUubWFlPic=

> <r_lp_tautomer_probability>
1

> <r_epik_Ionization_Penalty>
6.61671e-05

> <r_epik_Ionization_Penalty_Charging>
0

> <r_epik_Ionization_Penalty_Neutral>
6.61671e-05

> <r_epik_State_Penalty>
-0

> <r_epik_Charging_Adjusted_Penalty>
0

> <i_epik_Tot_Q>
0

> <i_epik_Tot_abs_Q>
0

> <r_epik_Metal_State_Penalty>
-0

> <b_epik_Metal_Only>
0

> <s_lp_Force_Field>
OPLS_2005

> <r_lp_Energy>
29.3819

> <b_lp_Chiralities_Consistent>
1

> <s_lp_Variant>
AV-unprocessed.smi:2911-4

> <Gold.Version>
5.8.1

> <Gold.Id.Protein>
6NUR|6NUR_protein|mol2

> <Gold.PLP.Fitness>
44.3698

> <Gold.PLP.PLP>
-40.8852

> <Gold.PLP.part.hbond>
-5.5762

> <Gold.PLP.part.metal>
0.0000

> <Gold.PLP.part.buried>
-3.4423

> <Gold.PLP.part.nonpolar>
-33.7412

> <Gold.PLP.part.repulsive>
0.3101

> <Gold.PLP.ligand.clash>
0.0000

> <Gold.PLP.ligand.torsion>
0.8519

> <Gold.PLP.Chemscore.Hbond>
1.5863

> <Gold.PLP.Chemscore.CHOScore>
0.0000

> <Gold.PLP.Chemscore.Metal>
0.0000

> <Gold.Chemscore.Hbonds>
donor molecule, donor type, donor heavy atom, donor atom, acceptor molecule, acceptor atom, score
      P1  H  6933  6944       L1    10  0.59
      P1  H  6934  6946       L1     4  0.95

> <Gold.PLP.Chemscore.Internal.Correction>
0.4294

> <Gold.Rescore>
     Score         DG    S(hbond)    S(metal)    S(lipo)     H(rot)  DE(clash)    DE(int)     intcor
     11.77     -15.42       1.36        0.00      81.38       1.61       0.15       3.50       ----

> <Gold.Chemscore.Fitness>
11.7710

> <Gold.Chemscore.DG>
-15.4196

> <Gold.Chemscore.ZeroCoef>
-5.4800

> <Gold.Chemscore.Hbond>
1.3583

> <Gold.Chemscore.Metal>
0.0000

> <Gold.Chemscore.Lipo>
81.3794

> <Gold.Chemscore.Internal_Hbond>
0.0000

> <Gold.Chemscore.DEClash>
0.1535

> <Gold.Chemscore.DEInternal>
3.4951

> <Gold.Chemscore.Rot>
1.6088

> <Gold.Chemscore.Internal.Correction>
   9.000000E+99

> <Gold.Chemscore.Hbonds>
donor molecule, donor type, donor heavy atom, donor atom, acceptor molecule, acceptor atom, score
      P1  H  6933  6944       L1    10  0.53
      P1  H  6934  6946       L1     4  0.21

> <Gold.Chemscore.Hbond.Weighted>
-4.5368

> <Gold.Chemscore.Metal.Weighted>
-0.0000

> <Gold.Chemscore.Lipo.Weighted>
-9.5214

> <Gold.Chemscore.Internal_Hbond.Weighted>
0.0000

> <Gold.Chemscore.DEClash.Weighted>
0.1535

> <Gold.Chemscore.DEInternal.Weighted>
3.4951

> <Gold.Chemscore.Rot.Weighted>
4.1186

> <Gold.Chemscore.Internal.Correction.Weighted>
   9.000000E+99

> <Gold.Protein.RotatedTorsions>
[ 6907 6896 6895 6894 ] final   41.78 input  -60.11 | X-H torsion
[ 7974 7965 7964 7962 ] final   63.98 input  175.53 | X-H torsion
[ 8008 7997 7996 7995 ] final   26.91 input   59.86 | X-H torsion
[ 10167 10162 10161 10158 ] final  176.62 input  -65.29 | X-H torsion
[ 10718 10713 10712 10709 ] final  -77.10 input   66.30 | X-H torsion
[ 10763 10752 10751 10750 ] final   25.51 input  -60.55 | X-H torsion
[ 11005 11000 10999 10996 ] final   43.42 input  -57.11 | X-H torsion

> <Gold.Protein.ActiveResidues>
 VAL166  LYS551  ARG553  GLY616  TRP617  ASP618  TYR619  PRO620  LYS621  CYS622 
 ASP623  PHE694  ASN695  SER759  ASP760  ASP761  ALA762  ILE779  LEU786  VAL792 
 PHE793  MET794  SER795  GLU796  ALA797  LYS798  CYS799  TRP800  GLU811  SER814 

> <Gold.Protein.RotatedAtoms>
  152.1996  134.8600  160.0509 H   0  0  0  0  0  0  0  0  0  0  0  0  # atno 6907 bound_to 6896
  151.9458  133.3646  159.3990 H   0  0  0  0  0  0  0  0  0  0  0  0  # atno 6908 bound_to 6896
  150.6952  134.4315  159.5295 H   0  0  0  0  0  0  0  0  0  0  0  0  # atno 6909 bound_to 6896
  145.8556  139.3282  143.0849 H   0  0  0  0  0  0  0  0  0  0  0  0  # atno 7974 bound_to 7965
  155.0347  140.3162  155.4745 H   0  0  0  0  0  0  0  0  0  0  0  0  # atno 8008 bound_to 7997
  156.2867  140.2174  156.5412 H   0  0  0  0  0  0  0  0  0  0  0  0  # atno 8009 bound_to 7997
  154.7340  140.0479  157.0740 H   0  0  0  0  0  0  0  0  0  0  0  0  # atno 8010 bound_to 7997
  139.5221  144.2894  152.0476 H   0  0  0  0  0  0  0  0  0  0  0  0  # atno 10167 bound_to 10162
  156.0155  130.4482  150.3294 H   0  0  0  0  0  0  0  0  0  0  0  0  # atno 10718 bound_to 10713
  153.0687  135.6581  154.0296 H   0  0  0  0  0  0  0  0  0  0  0  0  # atno 10763 bound_to 10752
  153.9947  135.2942  155.3410 H   0  0  0  0  0  0  0  0  0  0  0  0  # atno 10764 bound_to 10752
  154.7054  135.5227  153.8657 H   0  0  0  0  0  0  0  0  0  0  0  0  # atno 10765 bound_to 10752
  140.1647  134.4297  155.8295 H   0  0  0  0  0  0  0  0  0  0  0  0  # atno 11005 bound_to 11000
  145.9307  140.9050  143.0357 LP  0  0  0  0  0  0  0  0  0  0  0  0  # atno 17320 bound_to 7965
  144.6728  140.1415  143.7437 LP  0  0  0  0  0  0  0  0  0  0  0  0  # atno 17321 bound_to 7965
  140.2346  144.4333  150.6285 LP  0  0  0  0  0  0  0  0  0  0  0  0  # atno 17342 bound_to 10162
  140.6332  143.2190  151.6451 LP  0  0  0  0  0  0  0  0  0  0  0  0  # atno 17343 bound_to 10162
  157.1392  131.0292  151.2935 LP  0  0  0  0  0  0  0  0  0  0  0  0  # atno 17370 bound_to 10713
  157.4486  130.7585  149.7131 LP  0  0  0  0  0  0  0  0  0  0  0  0  # atno 17371 bound_to 10713
  141.2212  133.6929  156.7656 LP  0  0  0  0  0  0  0  0  0  0  0  0  # atno 17394 bound_to 11000
  140.2448  134.8586  157.3609 LP  0  0  0  0  0  0  0  0  0  0  0  0  # atno 17395 bound_to 11000

$$$$
