AV-unprocessed.smi:504|AV-procd|sdf|2747|dock8
  -GOLD-   2262023213D 1   1.00000     0.00000
 Structure written by MMmdl.
 35 36  0  0  0  0  0  0  0  0  1 V2000
  152.4669  139.4708  156.1112 N   0  0  0  0  0  0  0  0  0  0  0  0
  151.6966  139.9384  156.8373 C   0  0  0  0  0  0  0  0  0  0  0  0
  150.7136  140.5345  157.7650 C   0  0  0  0  0  0  0  0  0  0  0  0
  149.4794  139.7462  157.7964 N   0  0  0  0  0  0  0  0  0  0  0  0
  149.3012  138.5472  158.3749 C   0  0  0  0  0  0  0  0  0  0  0  0
  150.1854  137.9560  158.9955 O   0  0  0  0  0  0  0  0  0  0  0  0
  147.8967  137.9409  158.2393 C   0  0  0  0  0  0  0  0  0  0  0  0
  147.7601  136.6290  158.8895 N   0  0  0  0  0  0  0  0  0  0  0  0
  148.0899  135.5589  158.0765 N   0  0  0  0  0  0  0  0  0  0  0  0
  147.9951  134.3594  158.5373 C   0  0  0  0  0  0  0  0  0  0  0  0
  147.5559  134.0851  159.8878 C   0  0  0  0  0  0  0  0  0  0  0  0
  147.4482  132.4542  160.4498 Cl  0  0  0  0  0  0  0  0  0  0  0  0
  147.2402  135.1414  160.6785 C   0  0  0  0  0  0  0  0  0  0  0  0
  146.7081  134.8928  162.3062 Cl  0  0  0  0  0  0  0  0  0  0  0  0
  147.3377  136.5231  160.1874 C   0  0  0  0  0  0  0  0  0  0  0  0
  147.0652  137.5086  160.8743 O   0  0  0  0  0  0  0  0  0  0  0  0
  151.3087  140.6457  159.1918 C   0  0  0  0  0  0  0  0  0  0  0  0
  152.5051  141.6112  159.2509 C   0  0  0  0  0  0  0  0  0  0  0  0
  152.1192  143.0039  158.7331 C   0  0  0  0  0  0  0  0  0  0  0  0
  151.5262  142.9261  157.3191 C   0  0  0  0  0  0  0  0  0  0  0  0
  150.3376  141.9505  157.2712 C   0  0  0  0  0  0  0  0  0  0  0  0
  148.6871  140.1474  157.3165 H   0  0  0  0  0  0  0  0  0  0  0  0
  147.1822  138.6494  158.6624 H   0  0  0  0  0  0  0  0  0  0  0  0
  147.6353  137.8585  157.1824 H   0  0  0  0  0  0  0  0  0  0  0  0
  148.2417  133.4861  157.9333 H   0  0  0  0  0  0  0  0  0  0  0  0
  150.5403  140.9893  159.8859 H   0  0  0  0  0  0  0  0  0  0  0  0
  151.6266  139.6667  159.5515 H   0  0  0  0  0  0  0  0  0  0  0  0
  152.8714  141.6852  160.2752 H   0  0  0  0  0  0  0  0  0  0  0  0
  153.3305  141.2151  158.6583 H   0  0  0  0  0  0  0  0  0  0  0  0
  151.3922  143.4557  159.4093 H   0  0  0  0  0  0  0  0  0  0  0  0
  152.9918  143.6577  158.7364 H   0  0  0  0  0  0  0  0  0  0  0  0
  151.2052  143.9175  156.9980 H   0  0  0  0  0  0  0  0  0  0  0  0
  152.2958  142.6096  156.6141 H   0  0  0  0  0  0  0  0  0  0  0  0
  149.9520  141.8999  156.2519 H   0  0  0  0  0  0  0  0  0  0  0  0
  149.5276  142.3524  157.8823 H   0  0  0  0  0  0  0  0  0  0  0  0
  1  2  3  0  0  0  0
  2  3  1  0  0  0  0
  3 21  1  0  0  0  0
  3  4  1  0  0  0  0
  3 17  1  0  0  0  0
  4  5  1  0  0  0  0
  4 22  1  0  0  0  0
  5  6  2  0  0  0  0
  5  7  1  0  0  0  0
  7  8  1  0  0  0  0
  7 23  1  0  0  0  0
  7 24  1  0  0  0  0
  8 15  1  0  0  0  0
  8  9  1  0  0  0  0
  9 10  2  0  0  0  0
 10 11  1  0  0  0  0
 10 25  1  0  0  0  0
 11 12  1  0  0  0  0
 11 13  2  0  0  0  0
 13 14  1  0  0  0  0
 13 15  1  0  0  0  0
 15 16  2  0  0  0  0
 17 18  1  0  0  0  0
 17 26  1  0  0  0  0
 17 27  1  0  0  0  0
 18 19  1  0  0  0  0
 18 28  1  0  0  0  0
 18 29  1  0  0  0  0
 19 20  1  0  0  0  0
 19 30  1  0  0  0  0
 19 31  1  0  0  0  0
 20 21  1  0  0  0  0
 20 32  1  0  0  0  0
 20 33  1  0  0  0  0
 21 34  1  0  0  0  0
 21 35  1  0  0  0  0
M  END
> <s_m_source_file>
AV-unprocessed.smi

> <i_m_source_file_index>
504

> <i_lp_mmshare_version>
43012

> <i_f3d_flags>
0

> <s_epik_input>
W0NIMl0xW0NIMl1bQ0gyXVtDSDJdW0NIMl1DMShDI04pW05IXUMoPU8pW0NIMl1uMm5bY0hdYyhDbCljKENsKWMyPU8=

> <s_epik_cmdline>
J2VwaWtfcHl0aG9uJywgJy1waCcsICc3LjAnLCAnLXRuJywgJzgnLCAnLW1hJywgJzIwMCcsICctbWV0YWxfYmluZGluZycsICctaW1hZScsICc8aW5maWxlLm1hZT4nLCAnLW9tYWUnLCAnPG91dGZpbGUubWFlPic=

> <r_lp_tautomer_probability>
1

> <r_epik_Ionization_Penalty>
4.52612e-07

> <r_epik_Ionization_Penalty_Charging>
2.33921e-11

> <r_epik_Ionization_Penalty_Neutral>
4.52589e-07

> <r_epik_State_Penalty>
-0

> <r_epik_Charging_Adjusted_Penalty>
2.33921e-11

> <i_epik_Tot_Q>
0

> <i_epik_Tot_abs_Q>
0

> <r_epik_Metal_State_Penalty>
-0

> <b_epik_Metal_Only>
0

> <s_lp_Force_Field>
OPLS_2005

> <r_lp_Energy>
21.394

> <b_lp_Chiralities_Consistent>
1

> <s_lp_Variant>
AV-unprocessed.smi:504-1

> <Gold.Version>
5.8.1

> <Gold.Id.Protein>
6NUR|6NUR_protein|mol2

> <Gold.PLP.Fitness>
39.9993

> <Gold.PLP.PLP>
-32.7097

> <Gold.PLP.part.hbond>
-3.0000

> <Gold.PLP.part.metal>
0.0000

> <Gold.PLP.part.buried>
-4.9700

> <Gold.PLP.part.nonpolar>
-25.5394

> <Gold.PLP.part.repulsive>
0.1515

> <Gold.PLP.ligand.clash>
0.0000

> <Gold.PLP.ligand.torsion>
0.5699

> <Gold.PLP.Chemscore.Hbond>
2.8080

> <Gold.PLP.Chemscore.CHOScore>
0.0000

> <Gold.PLP.Chemscore.Metal>
0.0000

> <Gold.Chemscore.Hbonds>
donor molecule, donor type, donor heavy atom, donor atom, acceptor molecule, acceptor atom, score
      P1  H  6931  6943       L1    16  0.15
      P1  H  6934  6947       L1    16  0.98
      P1  H  7997  8009       L1     1  0.99

> <Gold.PLP.Chemscore.Internal.Correction>
0.0055

> <Gold.Rescore>
     Score         DG    S(hbond)    S(metal)    S(lipo)     H(rot)  DE(clash)    DE(int)     intcor
     19.07     -19.46       2.73        0.00      76.61       1.60       0.08       0.30       ----

> <Gold.Chemscore.Fitness>
19.0736

> <Gold.Chemscore.DG>
-19.4580

> <Gold.Chemscore.ZeroCoef>
-5.4800

> <Gold.Chemscore.Hbond>
2.7284

> <Gold.Chemscore.Metal>
0.0000

> <Gold.Chemscore.Lipo>
76.6070

> <Gold.Chemscore.Internal_Hbond>
0.0000

> <Gold.Chemscore.DEClash>
0.0811

> <Gold.Chemscore.DEInternal>
0.3034

> <Gold.Chemscore.Rot>
1.6007

> <Gold.Chemscore.Internal.Correction>
   9.000000E+99

> <Gold.Chemscore.Hbonds>
donor molecule, donor type, donor heavy atom, donor atom, acceptor molecule, acceptor atom, score
      P1  H  6931  6943       L1    16  0.11
      P1  H  6934  6947       L1    16  0.91
      P1  H  7997  8009       L1     1  0.91

> <Gold.Chemscore.Hbond.Weighted>
-9.1128

> <Gold.Chemscore.Metal.Weighted>
-0.0000

> <Gold.Chemscore.Lipo.Weighted>
-8.9630

> <Gold.Chemscore.Internal_Hbond.Weighted>
0.0000

> <Gold.Chemscore.DEClash.Weighted>
0.0811

> <Gold.Chemscore.DEInternal.Weighted>
0.3034

> <Gold.Chemscore.Rot.Weighted>
4.0978

> <Gold.Chemscore.Internal.Correction.Weighted>
   9.000000E+99

> <Gold.Protein.RotatedTorsions>
[ 6907 6896 6895 6894 ] final   49.37 input  -60.11 | X-H torsion
[ 7974 7965 7964 7962 ] final  145.88 input  175.53 | X-H torsion
[ 8008 7997 7996 7995 ] final -146.22 input   59.86 | X-H torsion
[ 10167 10162 10161 10158 ] final  -56.31 input  -65.29 | X-H torsion
[ 10718 10713 10712 10709 ] final -173.20 input   66.30 | X-H torsion
[ 10763 10752 10751 10750 ] final  -74.64 input  -60.55 | X-H torsion
[ 11005 11000 10999 10996 ] final -114.40 input  -57.11 | X-H torsion

> <Gold.Protein.ActiveResidues>
 VAL166  LYS551  ARG553  GLY616  TRP617  ASP618  TYR619  PRO620  LYS621  CYS622 
 ASP623  PHE694  ASN695  SER759  ASP760  ASP761  ALA762  ILE779  LEU786  VAL792 
 PHE793  MET794  SER795  GLU796  ALA797  LYS798  CYS799  TRP800  GLU811  SER814 

> <Gold.Protein.RotatedAtoms>
  152.2900  134.7732  160.0379 H   0  0  0  0  0  0  0  0  0  0  0  0  # atno 6907 bound_to 6896
  151.8281  133.3399  159.3613 H   0  0  0  0  0  0  0  0  0  0  0  0  # atno 6908 bound_to 6896
  150.7226  134.5438  159.5805 H   0  0  0  0  0  0  0  0  0  0  0  0  # atno 6909 bound_to 6896
  144.8716  139.5837  143.5884 H   0  0  0  0  0  0  0  0  0  0  0  0  # atno 7974 bound_to 7965
  155.5559  140.0621  157.2839 H   0  0  0  0  0  0  0  0  0  0  0  0  # atno 8008 bound_to 7997
  154.4405  140.1894  156.0779 H   0  0  0  0  0  0  0  0  0  0  0  0  # atno 8009 bound_to 7997
  156.0482  140.3287  155.7324 H   0  0  0  0  0  0  0  0  0  0  0  0  # atno 8010 bound_to 7997
  140.6325  143.2466  151.5205 H   0  0  0  0  0  0  0  0  0  0  0  0  # atno 10167 bound_to 10162
  156.7667  130.9433  151.3119 H   0  0  0  0  0  0  0  0  0  0  0  0  # atno 10718 bound_to 10713
  154.4758  135.5858  153.6354 H   0  0  0  0  0  0  0  0  0  0  0  0  # atno 10763 bound_to 10752
  152.9840  135.6078  154.3309 H   0  0  0  0  0  0  0  0  0  0  0  0  # atno 10764 bound_to 10752
  154.3195  135.2844  155.2506 H   0  0  0  0  0  0  0  0  0  0  0  0  # atno 10765 bound_to 10752
  141.0554  133.9620  157.2763 H   0  0  0  0  0  0  0  0  0  0  0  0  # atno 11005 bound_to 11000
  146.2934  139.7206  142.9144 LP  0  0  0  0  0  0  0  0  0  0  0  0  # atno 17320 bound_to 7965
  145.4119  141.0397  143.3012 LP  0  0  0  0  0  0  0  0  0  0  0  0  # atno 17321 bound_to 7965
  139.5538  144.2329  152.1576 LP  0  0  0  0  0  0  0  0  0  0  0  0  # atno 17342 bound_to 10162
  140.1576  144.5056  150.6651 LP  0  0  0  0  0  0  0  0  0  0  0  0  # atno 17343 bound_to 10162
  157.6710  130.9050  150.0039 LP  0  0  0  0  0  0  0  0  0  0  0  0  # atno 17370 bound_to 10713
  156.1304  130.3643  149.9741 LP  0  0  0  0  0  0  0  0  0  0  0  0  # atno 17371 bound_to 10713
  139.9386  135.0194  156.8635 LP  0  0  0  0  0  0  0  0  0  0  0  0  # atno 17394 bound_to 11000
  140.5974  134.0204  155.7523 LP  0  0  0  0  0  0  0  0  0  0  0  0  # atno 17395 bound_to 11000

$$$$
