AV-unprocessed.smi:1995|AV-procd|sdf|8081|dock5
  -GOLD-   2272010293D 1   1.00000     0.00000
 Structure written by MMmdl.
 41 42  0  0  0  0  0  0  0  0  2 V2000
  147.4555  138.6901  155.1362 C   0  0  0  0  0  0  0  0  0  0  0  0
  148.1627  139.6223  156.1368 C   0  0  0  0  0  0  0  0  0  0  0  0
  149.5545  139.1327  156.6508 C   0  0  2  0  0  0  0  0  0  0  0  0
  150.4352  138.9209  155.3900 C   0  0  0  0  0  0  0  0  0  0  0  0
  149.3563  137.7533  157.3612 C   0  0  0  0  0  0  0  0  0  0  0  0
  148.5220  137.8173  158.5623 N   0  0  0  0  0  0  0  0  0  0  0  0
  148.3221  136.8347  159.4528 C   0  0  0  0  0  0  0  0  0  0  0  0
  148.8771  135.7434  159.3048 O   0  0  0  0  0  0  0  0  0  0  0  0
  147.4817  137.1753  160.4563 N   0  5  0  0  0  0  0  0  0  0  0  0
  146.7785  136.2252  161.0939 C   0  0  0  0  0  0  0  0  0  0  0  0
  147.2796  135.0205  161.3906 N   0  0  0  0  0  0  0  0  0  0  0  0
  146.3755  134.1925  162.0589 C   0  0  0  0  0  0  0  0  0  0  0  0
  145.1605  134.7838  162.2833 C   0  0  0  0  0  0  0  0  0  0  0  0
  145.1155  136.4081  161.6597 S   0  0  0  0  0  0  0  0  0  0  0  0
  150.1790  140.1418  157.5536 N   0  0  0  0  0  0  0  0  0  0  0  0
  150.3849  141.4686  156.9598 C   0  0  0  0  0  0  0  0  0  0  0  0
  150.8953  142.4891  157.9915 C   0  0  0  0  0  0  0  0  0  0  0  0
  152.0978  142.0135  158.5849 O   0  0  0  0  0  0  0  0  0  0  0  0
  151.9280  140.7519  159.2196 C   0  0  0  0  0  0  0  0  0  0  0  0
  151.4299  139.7188  158.1946 C   0  0  0  0  0  0  0  0  0  0  0  0
  146.5024  139.1187  154.8265 H   0  0  0  0  0  0  0  0  0  0  0  0
  147.2442  137.7145  155.5726 H   0  0  0  0  0  0  0  0  0  0  0  0
  148.0490  138.5345  154.2353 H   0  0  0  0  0  0  0  0  0  0  0  0
  148.2517  140.6129  155.6913 H   0  0  0  0  0  0  0  0  0  0  0  0
  147.4847  139.7649  156.9791 H   0  0  0  0  0  0  0  0  0  0  0  0
  149.9038  138.3836  154.6040 H   0  0  0  0  0  0  0  0  0  0  0  0
  151.3287  138.3364  155.6099 H   0  0  0  0  0  0  0  0  0  0  0  0
  150.7639  139.8686  154.9632 H   0  0  0  0  0  0  0  0  0  0  0  0
  148.9517  137.0105  156.6738 H   0  0  0  0  0  0  0  0  0  0  0  0
  150.3160  137.3550  157.6884 H   0  0  0  0  0  0  0  0  0  0  0  0
  148.0422  138.6893  158.7303 H   0  0  0  0  0  0  0  0  0  0  0  0
  146.6825  133.1956  162.3383 H   0  0  0  0  0  0  0  0  0  0  0  0
  144.2948  134.3670  162.7753 H   0  0  0  0  0  0  0  0  0  0  0  0
  151.1041  141.4114  156.1428 H   0  0  0  0  0  0  0  0  0  0  0  0
  149.4589  141.8566  156.5392 H   0  0  0  0  0  0  0  0  0  0  0  0
  151.0910  143.4476  157.5104 H   0  0  0  0  0  0  0  0  0  0  0  0
  150.1445  142.6653  158.7634 H   0  0  0  0  0  0  0  0  0  0  0  0
  152.8812  140.4355  159.6431 H   0  0  0  0  0  0  0  0  0  0  0  0
  151.2235  140.8447  160.0476 H   0  0  0  0  0  0  0  0  0  0  0  0
  151.3029  138.7704  158.7131 H   0  0  0  0  0  0  0  0  0  0  0  0
  152.2071  139.5687  157.4455 H   0  0  0  0  0  0  0  0  0  0  0  0
  1  2  1  0  0  0  0
  1 21  1  0  0  0  0
  1 22  1  0  0  0  0
  1 23  1  0  0  0  0
  2  3  1  0  0  0  0
  2 24  1  0  0  0  0
  2 25  1  0  0  0  0
  3  4  1  0  0  0  0
  3  5  1  0  0  0  0
  3 15  1  0  0  0  0
  4 26  1  0  0  0  0
  4 27  1  0  0  0  0
  4 28  1  0  0  0  0
  5  6  1  0  0  0  0
  5 29  1  0  0  0  0
  5 30  1  0  0  0  0
  6  7  1  0  0  0  0
  6 31  1  0  0  0  0
  7  8  2  0  0  0  0
  7  9  1  0  0  0  0
  9 10  1  0  0  0  0
 10 14  1  0  0  0  0
 10 11  2  0  0  0  0
 11 12  1  0  0  0  0
 12 13  2  0  0  0  0
 12 32  1  0  0  0  0
 13 14  1  0  0  0  0
 13 33  1  0  0  0  0
 15 20  1  0  0  0  0
 15 16  1  0  0  0  0
 16 17  1  0  0  0  0
 16 34  1  0  0  0  0
 16 35  1  0  0  0  0
 17 18  1  0  0  0  0
 17 36  1  0  0  0  0
 17 37  1  0  0  0  0
 18 19  1  0  0  0  0
 19 20  1  0  0  0  0
 19 38  1  0  0  0  0
 19 39  1  0  0  0  0
 20 40  1  0  0  0  0
 20 41  1  0  0  0  0
M  CHG  1   9  -1
M  END
> <s_m_source_file>
AV-unprocessed.smi

> <i_m_source_file_index>
1995

> <i_lp_mmshare_version>
43012

> <i_f3d_flags>
0

> <s_epik_input>
W0NIMl0xW0NIMl1PW0NIMl1bQ0gyXU4xW0NAQF0oW0NIM10pKFtDSDJdW0NIM10pW0NIMl1bTkhdQyg9TylbTkhdYzJuW2NIXVtjSF1zMg==

> <s_epik_cmdline>
J2VwaWtfcHl0aG9uJywgJy1waCcsICc3LjAnLCAnLXRuJywgJzgnLCAnLW1hJywgJzIwMCcsICctbWV0YWxfYmluZGluZycsICctaW1hZScsICc8aW5maWxlLm1hZT4nLCAnLW9tYWUnLCAnPG91dGZpbGUubWFlPic=

> <r_lp_tautomer_probability>
0.999

> <r_epik_Ionization_Penalty>
8.86479

> <r_epik_Ionization_Penalty_Charging>
6.76546

> <r_epik_Ionization_Penalty_Neutral>
2.09933

> <r_epik_State_Penalty>
7.05418

> <r_epik_Charging_Adjusted_Penalty>
13.8196

> <i_epik_Tot_Q>
-1

> <i_epik_Tot_abs_Q>
1

> <r_epik_Metal_State_Penalty>
2.97744

> <b_epik_Metal_Only>
1

> <s_lp_Force_Field>
OPLS_2005

> <r_lp_Energy>
37.8837

> <b_lp_Chiralities_Consistent>
1

> <s_lp_Variant>
AV-unprocessed.smi:1995-6

> <Gold.Version>
5.8.1

> <Gold.Id.Protein>
6NUR|6NUR_protein|mol2

> <Gold.PLP.Fitness>
40.2022

> <Gold.PLP.PLP>
-27.7430

> <Gold.PLP.part.hbond>
-3.0000

> <Gold.PLP.part.metal>
0.0000

> <Gold.PLP.part.buried>
-5.6189

> <Gold.PLP.part.nonpolar>
-20.0206

> <Gold.PLP.part.repulsive>
0.1882

> <Gold.PLP.ligand.clash>
0.0000

> <Gold.PLP.ligand.torsion>
0.5158

> <Gold.PLP.Chemscore.Hbond>
4.4560

> <Gold.PLP.Chemscore.CHOScore>
0.0000

> <Gold.PLP.Chemscore.Metal>
0.0000

> <Gold.Chemscore.Hbonds>
donor molecule, donor type, donor heavy atom, donor atom, acceptor molecule, acceptor atom, score
      P1  H  6896  6909       L1     8  0.73
      P1  H  6931  6943       L1     9  0.20
      P1  H  6934  6947       L1     9  2.00

> <Gold.PLP.Chemscore.Internal.Correction>
0.1229

> <Gold.Rescore>
     Score         DG    S(hbond)    S(metal)    S(lipo)     H(rot)  DE(clash)    DE(int)     intcor
     13.47     -15.15       2.24        0.00      55.82       1.70       0.01       1.66       ----

> <Gold.Chemscore.Fitness>
13.4739

> <Gold.Chemscore.DG>
-15.1498

> <Gold.Chemscore.ZeroCoef>
-5.4800

> <Gold.Chemscore.Hbond>
2.2417

> <Gold.Chemscore.Metal>
0.0000

> <Gold.Chemscore.Lipo>
55.8173

> <Gold.Chemscore.Internal_Hbond>
0.0000

> <Gold.Chemscore.DEClash>
0.0127

> <Gold.Chemscore.DEInternal>
1.6632

> <Gold.Chemscore.Rot>
1.6985

> <Gold.Chemscore.Internal.Correction>
   9.000000E+99

> <Gold.Chemscore.Hbonds>
donor molecule, donor type, donor heavy atom, donor atom, acceptor molecule, acceptor atom, score
      P1  H  6896  6909       L1     8  0.73
      P1  H  6931  6943       L1     9  0.02
      P1  H  6934  6947       L1     9  0.91

> <Gold.Chemscore.Hbond.Weighted>
-7.4874

> <Gold.Chemscore.Metal.Weighted>
-0.0000

> <Gold.Chemscore.Lipo.Weighted>
-6.5306

> <Gold.Chemscore.Internal_Hbond.Weighted>
0.0000

> <Gold.Chemscore.DEClash.Weighted>
0.0127

> <Gold.Chemscore.DEInternal.Weighted>
1.6632

> <Gold.Chemscore.Rot.Weighted>
4.3482

> <Gold.Chemscore.Internal.Correction.Weighted>
   9.000000E+99

> <Gold.Protein.RotatedTorsions>
[ 6907 6896 6895 6894 ] final   54.91 input  -60.11 | X-H torsion
[ 7974 7965 7964 7962 ] final   18.27 input  175.53 | X-H torsion
[ 8008 7997 7996 7995 ] final   19.75 input   59.86 | X-H torsion
[ 10167 10162 10161 10158 ] final  118.09 input  -65.29 | X-H torsion
[ 10718 10713 10712 10709 ] final  -72.61 input   66.30 | X-H torsion
[ 10763 10752 10751 10750 ] final  -61.99 input  -60.55 | X-H torsion
[ 11005 11000 10999 10996 ] final  161.08 input  -57.11 | X-H torsion

> <Gold.Protein.ActiveResidues>
 VAL166  LYS551  ARG553  GLY616  TRP617  ASP618  TYR619  PRO620  LYS621  CYS622 
 ASP623  PHE694  ASN695  SER759  ASP760  ASP761  ALA762  ILE779  LEU786  VAL792 
 PHE793  MET794  SER795  GLU796  ALA797  LYS798  CYS799  TRP800  GLU811  SER814 

> <Gold.Protein.RotatedAtoms>
  152.3486  134.7037  160.0242 H   0  0  0  0  0  0  0  0  0  0  0  0  # atno 6907 bound_to 6896
  151.7398  133.3316  159.3370 H   0  0  0  0  0  0  0  0  0  0  0  0  # atno 6908 bound_to 6896
  150.7525  134.6221  159.6186 H   0  0  0  0  0  0  0  0  0  0  0  0  # atno 6909 bound_to 6896
  146.2191  139.8482  142.8627 H   0  0  0  0  0  0  0  0  0  0  0  0  # atno 7974 bound_to 7965
  154.9254  140.3033  155.5195 H   0  0  0  0  0  0  0  0  0  0  0  0  # atno 8008 bound_to 7997
  156.3007  140.2363  156.4245 H   0  0  0  0  0  0  0  0  0  0  0  0  # atno 8009 bound_to 7997
  154.8289  140.0419  157.1452 H   0  0  0  0  0  0  0  0  0  0  0  0  # atno 8010 bound_to 7997
  139.6135  144.7087  151.2791 H   0  0  0  0  0  0  0  0  0  0  0  0  # atno 10167 bound_to 10162
  156.0313  130.4376  150.2618 H   0  0  0  0  0  0  0  0  0  0  0  0  # atno 10718 bound_to 10713
  154.2930  135.6249  153.5393 H   0  0  0  0  0  0  0  0  0  0  0  0  # atno 10763 bound_to 10752
  152.9850  135.5660  154.5369 H   0  0  0  0  0  0  0  0  0  0  0  0  # atno 10764 bound_to 10752
  154.4983  135.2870  155.1417 H   0  0  0  0  0  0  0  0  0  0  0  0  # atno 10765 bound_to 10752
  140.2123  134.8258  157.3134 H   0  0  0  0  0  0  0  0  0  0  0  0  # atno 11005 bound_to 11000
  145.2828  141.0144  143.3707 LP  0  0  0  0  0  0  0  0  0  0  0  0  # atno 17320 bound_to 7965
  144.9136  139.4497  143.6575 LP  0  0  0  0  0  0  0  0  0  0  0  0  # atno 17321 bound_to 7965
  140.7335  143.6793  150.8015 LP  0  0  0  0  0  0  0  0  0  0  0  0  # atno 17342 bound_to 10162
  140.0391  143.5364  152.2726 LP  0  0  0  0  0  0  0  0  0  0  0  0  # atno 17343 bound_to 10162
  157.0720  131.0119  151.3187 LP  0  0  0  0  0  0  0  0  0  0  0  0  # atno 17370 bound_to 10713
  157.4992  130.7869  149.7587 LP  0  0  0  0  0  0  0  0  0  0  0  0  # atno 17371 bound_to 10713
  140.1938  134.4339  155.7701 LP  0  0  0  0  0  0  0  0  0  0  0  0  # atno 17394 bound_to 11000
  141.2226  133.7039  156.8070 LP  0  0  0  0  0  0  0  0  0  0  0  0  # atno 17395 bound_to 11000

$$$$
