AV-unprocessed.smi:3056|AV-procd|sdf|11649|dock8
  -GOLD-   2272017 43D 1   1.00000     0.00000
 Structure written by MMmdl.
 48 49  0  0  0  0  0  0  0  0  2 V2000
  146.4441  133.0568  150.7264 C   0  0  0  0  0  0  0  0  0  0  0  0
  147.0325  133.4819  152.0410 C   0  0  0  0  0  0  0  0  0  0  0  0
  146.4305  134.2894  153.0471 C   0  0  0  0  0  0  0  0  0  0  0  0
  147.2183  134.4790  154.0925 N   0  0  0  0  0  0  0  0  0  0  0  0
  148.3491  133.8013  153.7943 N   0  0  0  0  0  0  0  0  0  0  0  0
  149.4603  133.7808  154.7370 C   0  0  2  0  0  0  0  0  0  0  0  0
  149.1703  132.7646  155.8582 C   0  0  0  0  0  0  0  0  0  0  0  0
  149.8002  135.2042  155.2609 C   0  0  2  0  0  0  0  0  0  0  0  0
  148.6289  135.8450  156.0286 C   0  0  0  0  0  0  0  0  0  0  0  0
  150.1850  136.1032  154.1461 N   0  3  0  0  0  0  0  0  0  0  0  0
  150.2133  137.5492  154.4701 C   0  0  0  0  0  0  0  0  0  0  0  0
  151.2712  137.9189  155.5246 C   0  0  0  0  0  0  0  0  0  0  0  0
  151.9470  137.0198  156.0273 O   0  0  0  0  0  0  0  0  0  0  0  0
  151.4234  139.2182  155.8760 N   0  0  0  0  0  0  0  0  0  0  0  0
  150.6169  140.3444  155.3952 C   0  0  0  0  0  0  0  0  0  0  0  0
  149.8595  140.9444  156.5929 C   0  0  0  0  0  0  0  0  0  0  0  0
  150.7881  141.3411  157.5989 O   0  0  0  0  0  0  0  0  0  0  0  0
  151.6009  140.2693  158.0737 C   0  0  2  0  0  0  0  0  0  0  0  0
  152.5293  140.8167  159.1632 C   0  0  0  0  0  0  0  0  0  0  0  0
  152.3831  139.6679  156.8889 C   0  0  0  0  0  0  0  0  0  0  0  0
  148.2610  133.1884  152.5615 C   0  0  0  0  0  0  0  0  0  0  0  0
  145.6435  133.7245  150.4071 H   0  0  0  0  0  0  0  0  0  0  0  0
  146.0230  132.0530  150.7816 H   0  0  0  0  0  0  0  0  0  0  0  0
  147.1912  133.0498  149.9323 H   0  0  0  0  0  0  0  0  0  0  0  0
  145.4492  134.7407  153.0486 H   0  0  0  0  0  0  0  0  0  0  0  0
  150.3276  133.4146  154.1852 H   0  0  0  0  0  0  0  0  0  0  0  0
  150.0447  132.5998  156.4873 H   0  0  0  0  0  0  0  0  0  0  0  0
  148.8901  131.7960  155.4427 H   0  0  0  0  0  0  0  0  0  0  0  0
  148.3535  133.0974  156.4998 H   0  0  0  0  0  0  0  0  0  0  0  0
  150.6342  135.1319  155.9611 H   0  0  0  0  0  0  0  0  0  0  0  0
  148.3724  135.2797  156.9247 H   0  0  0  0  0  0  0  0  0  0  0  0
  147.7350  135.9084  155.4073 H   0  0  0  0  0  0  0  0  0  0  0  0
  148.8785  136.8555  156.3529 H   0  0  0  0  0  0  0  0  0  0  0  0
  151.0985  135.8218  153.8211 H   0  0  0  0  0  0  0  0  0  0  0  0
  150.3689  138.1253  153.5579 H   0  0  0  0  0  0  0  0  0  0  0  0
  149.2334  137.8194  154.8644 H   0  0  0  0  0  0  0  0  0  0  0  0
  151.2755  141.0949  154.9555 H   0  0  0  0  0  0  0  0  0  0  0  0
  149.9038  140.0799  154.6167 H   0  0  0  0  0  0  0  0  0  0  0  0
  149.2864  141.8166  156.2785 H   0  0  0  0  0  0  0  0  0  0  0  0
  149.1487  140.2254  157.0034 H   0  0  0  0  0  0  0  0  0  0  0  0
  150.9578  139.5056  158.5148 H   0  0  0  0  0  0  0  0  0  0  0  0
  153.1661  140.0300  159.5682 H   0  0  0  0  0  0  0  0  0  0  0  0
  151.9552  141.2370  159.9892 H   0  0  0  0  0  0  0  0  0  0  0  0
  153.1759  141.6030  158.7727 H   0  0  0  0  0  0  0  0  0  0  0  0
  153.0315  138.8656  157.2436 H   0  0  0  0  0  0  0  0  0  0  0  0
  153.0445  140.4166  156.4500 H   0  0  0  0  0  0  0  0  0  0  0  0
  149.0721  132.5998  152.1585 H   0  0  0  0  0  0  0  0  0  0  0  0
  149.5243  135.9768  153.3921 H   0  0  0  0  0  0  0  0  0  0  0  0
  1  2  1  0  0  0  0
  1 22  1  0  0  0  0
  1 23  1  0  0  0  0
  1 24  1  0  0  0  0
  2 21  2  0  0  0  0
  2  3  1  0  0  0  0
  3  4  2  0  0  0  0
  3 25  1  0  0  0  0
  4  5  1  0  0  0  0
  5  6  1  0  0  0  0
  5 21  1  0  0  0  0
  6  7  1  0  0  0  0
  6  8  1  0  0  0  0
  6 26  1  0  0  0  0
  7 27  1  0  0  0  0
  7 28  1  0  0  0  0
  7 29  1  0  0  0  0
  8  9  1  0  0  0  0
  8 10  1  0  0  0  0
  8 30  1  0  0  0  0
  9 31  1  0  0  0  0
  9 32  1  0  0  0  0
  9 33  1  0  0  0  0
 10 11  1  0  0  0  0
 10 34  1  0  0  0  0
 10 48  1  0  0  0  0
 11 12  1  0  0  0  0
 11 35  1  0  0  0  0
 11 36  1  0  0  0  0
 12 13  2  0  0  0  0
 12 14  1  0  0  0  0
 14 20  1  0  0  0  0
 14 15  1  0  0  0  0
 15 16  1  0  0  0  0
 15 37  1  0  0  0  0
 15 38  1  0  0  0  0
 16 17  1  0  0  0  0
 16 39  1  0  0  0  0
 16 40  1  0  0  0  0
 17 18  1  0  0  0  0
 18 19  1  0  0  0  0
 18 20  1  0  0  0  0
 18 41  1  0  0  0  0
 19 42  1  0  0  0  0
 19 43  1  0  0  0  0
 19 44  1  0  0  0  0
 20 45  1  0  0  0  0
 20 46  1  0  0  0  0
 21 47  1  0  0  0  0
M  CHG  1  10   1
M  END
> <s_m_source_file>
AV-unprocessed.smi

> <i_m_source_file_index>
3056

> <i_lp_mmshare_version>
43012

> <i_f3d_flags>
0

> <s_epik_input>
W0NIM11jMVtjSF1ubihbY0hdMSlbQ0BIXShbQ0gzXSlbQ0BIXShbQ0gzXSlbTkhdW0NIMl1DKD1PKU4yW0NIMl1bQ0gyXU9bQ0BASF0oW0NIM10pW0NIMl0y

> <s_epik_cmdline>
J2VwaWtfcHl0aG9uJywgJy1waCcsICc3LjAnLCAnLXRuJywgJzgnLCAnLW1hJywgJzIwMCcsICctbWV0YWxfYmluZGluZycsICctaW1hZScsICc8aW5maWxlLm1hZT4nLCAnLW9tYWUnLCAnPG91dGZpbGUubWFlPic=

> <r_lp_tautomer_probability>
1

> <r_epik_Ionization_Penalty>
0.233715

> <r_epik_Ionization_Penalty_Charging>
0.233698

> <r_epik_Ionization_Penalty_Neutral>
1.68157e-05

> <r_epik_State_Penalty>
0.225221

> <r_epik_Charging_Adjusted_Penalty>
0.458919

> <i_epik_Tot_Q>
1

> <i_epik_Tot_abs_Q>
1

> <r_epik_Metal_State_Penalty>
0.225535

> <b_epik_Metal_Only>
0

> <s_lp_Force_Field>
OPLS_2005

> <r_lp_Energy>
28.5623

> <b_lp_Chiralities_Consistent>
1

> <s_lp_Variant>
AV-unprocessed.smi:3056-5

> <Gold.Version>
5.8.1

> <Gold.Id.Protein>
6NUR|6NUR_protein|mol2

> <Gold.PLP.Fitness>
41.9988

> <Gold.PLP.PLP>
-30.5313

> <Gold.PLP.part.hbond>
-3.0000

> <Gold.PLP.part.metal>
0.0000

> <Gold.PLP.part.buried>
2.7236

> <Gold.PLP.part.nonpolar>
-30.3198

> <Gold.PLP.part.repulsive>
0.1996

> <Gold.PLP.ligand.clash>
0.0000

> <Gold.PLP.ligand.torsion>
0.5527

> <Gold.PLP.Chemscore.Hbond>
3.1860

> <Gold.PLP.Chemscore.CHOScore>
0.9757

> <Gold.PLP.Chemscore.Metal>
0.0000

> <Gold.Chemscore.Hbonds>
donor molecule, donor type, donor heavy atom, donor atom, acceptor molecule, acceptor atom, score
      L1  H    10    34       P1  7949  0.10
      L1  H    10    48       P1  7948  2.00
      P1  H 10752 10764       L1    13  0.65
      L1  C    21    47       P1 10747  0.96

> <Gold.PLP.Chemscore.Internal.Correction>
0.0877

> <Gold.Rescore>
     Score         DG    S(hbond)    S(metal)    S(lipo)     H(rot)  DE(clash)    DE(int)     intcor
     11.08     -14.13       1.60        0.00      66.19       1.74       0.05       3.00       ----

> <Gold.Chemscore.Fitness>
11.0774

> <Gold.Chemscore.DG>
-14.1259

> <Gold.Chemscore.ZeroCoef>
-5.4800

> <Gold.Chemscore.Hbond>
1.6002

> <Gold.Chemscore.Metal>
0.0000

> <Gold.Chemscore.Lipo>
66.1857

> <Gold.Chemscore.Internal_Hbond>
0.0000

> <Gold.Chemscore.DEClash>
0.0534

> <Gold.Chemscore.DEInternal>
2.9952

> <Gold.Chemscore.Rot>
1.7354

> <Gold.Chemscore.Internal.Correction>
   9.000000E+99

> <Gold.Chemscore.Hbonds>
donor molecule, donor type, donor heavy atom, donor atom, acceptor molecule, acceptor atom, score
      L1  H    10    34       P1  7949  0.01
      L1  H    10    48       P1  7948  0.29
      P1  H 10752 10764       L1    13  0.62

> <Gold.Chemscore.Hbond.Weighted>
-5.3448

> <Gold.Chemscore.Metal.Weighted>
-0.0000

> <Gold.Chemscore.Lipo.Weighted>
-7.7437

> <Gold.Chemscore.Internal_Hbond.Weighted>
0.0000

> <Gold.Chemscore.DEClash.Weighted>
0.0534

> <Gold.Chemscore.DEInternal.Weighted>
2.9952

> <Gold.Chemscore.Rot.Weighted>
4.4426

> <Gold.Chemscore.Internal.Correction.Weighted>
   9.000000E+99

> <Gold.Protein.RotatedTorsions>
[ 6907 6896 6895 6894 ] final   85.09 input  -60.11 | X-H torsion
[ 7974 7965 7964 7962 ] final  -86.18 input  175.53 | X-H torsion
[ 8008 7997 7996 7995 ] final -132.16 input   59.86 | X-H torsion
[ 10167 10162 10161 10158 ] final  -33.41 input  -65.29 | X-H torsion
[ 10718 10713 10712 10709 ] final -101.28 input   66.30 | X-H torsion
[ 10763 10752 10751 10750 ] final  -41.59 input  -60.55 | X-H torsion
[ 11005 11000 10999 10996 ] final   92.21 input  -57.11 | X-H torsion

> <Gold.Protein.ActiveResidues>
 VAL166  LYS551  ARG553  GLY616  TRP617  ASP618  TYR619  PRO620  LYS621  CYS622 
 ASP623  PHE694  ASN695  SER759  ASP760  ASP761  ALA762  ILE779  LEU786  VAL792 
 PHE793  MET794  SER795  GLU796  ALA797  LYS798  CYS799  TRP800  GLU811  SER814 

> <Gold.Protein.RotatedAtoms>
  152.5367  134.2640  159.8945 H   0  0  0  0  0  0  0  0  0  0  0  0  # atno 6907 bound_to 6896
  151.2599  133.4301  159.2623 H   0  0  0  0  0  0  0  0  0  0  0  0  # atno 6908 bound_to 6896
  151.0463  134.9656  159.8244 H   0  0  0  0  0  0  0  0  0  0  0  0  # atno 6909 bound_to 6896
  145.4834  140.9556  143.1852 H   0  0  0  0  0  0  0  0  0  0  0  0  # atno 7974 bound_to 7965
  155.3243  140.0463  157.3040 H   0  0  0  0  0  0  0  0  0  0  0  0  # atno 8008 bound_to 7997
  154.5363  140.2273  155.8683 H   0  0  0  0  0  0  0  0  0  0  0  0  # atno 8009 bound_to 7997
  156.1838  140.3067  155.9205 H   0  0  0  0  0  0  0  0  0  0  0  0  # atno 8010 bound_to 7997
  140.7205  143.3623  151.1939 H   0  0  0  0  0  0  0  0  0  0  0  0  # atno 10167 bound_to 10162
  156.0189  130.5366  150.6940 H   0  0  0  0  0  0  0  0  0  0  0  0  # atno 10718 bound_to 10713
  153.9650  135.6735  153.4746 H   0  0  0  0  0  0  0  0  0  0  0  0  # atno 10763 bound_to 10752
  153.0820  135.4918  154.8518 H   0  0  0  0  0  0  0  0  0  0  0  0  # atno 10764 bound_to 10752
  154.7251  135.3125  154.8944 H   0  0  0  0  0  0  0  0  0  0  0  0  # atno 10765 bound_to 10752
  139.8827  134.8720  156.3540 H   0  0  0  0  0  0  0  0  0  0  0  0  # atno 11005 bound_to 11000
  144.7876  139.6395  143.7127 LP  0  0  0  0  0  0  0  0  0  0  0  0  # atno 17320 bound_to 7965
  146.2327  139.5846  142.9544 LP  0  0  0  0  0  0  0  0  0  0  0  0  # atno 17321 bound_to 7965
  139.7177  143.9274  152.2973 LP  0  0  0  0  0  0  0  0  0  0  0  0  # atno 17342 bound_to 10162
  139.9020  144.6906  150.8655 LP  0  0  0  0  0  0  0  0  0  0  0  0  # atno 17343 bound_to 10162
  157.4615  131.0883  151.0740 LP  0  0  0  0  0  0  0  0  0  0  0  0  # atno 17370 bound_to 10713
  157.1227  130.6068  149.5509 LP  0  0  0  0  0  0  0  0  0  0  0  0  # atno 17371 bound_to 10713
  140.9574  133.7411  156.0355 LP  0  0  0  0  0  0  0  0  0  0  0  0  # atno 17394 bound_to 11000
  140.8031  134.3486  157.5434 LP  0  0  0  0  0  0  0  0  0  0  0  0  # atno 17395 bound_to 11000

$$$$
