AV-unprocessed.smi:44|AV-procd|sdf|402|dock5
  -GOLD-   2262016253D 1   1.00000     0.00000
 Structure written by MMmdl.
 29 31  0  0  0  0  0  0  0  0  3 V2000
  152.1375  135.2774  157.4642 O   0  0  0  0  0  0  0  0  0  0  0  0
  151.8251  136.1869  156.6985 C   0  0  0  0  0  0  0  0  0  0  0  0
  151.4467  136.0907  155.3830 N   0  5  0  0  0  0  0  0  0  0  0  0
  151.1158  137.2137  154.6324 C   0  0  0  0  0  0  0  0  0  0  0  0
  151.1125  138.4398  155.0198 N   0  0  0  0  0  0  0  0  0  0  0  0
  151.4874  138.6414  156.3564 C   0  0  0  0  0  0  0  0  0  0  0  0
  151.8349  137.6044  157.1903 C   0  0  0  0  0  0  0  0  0  0  0  0
  152.1549  138.0968  158.4266 N   0  3  0  0  0  0  0  0  0  0  0  0
  151.9864  139.4115  158.2862 C   0  0  0  0  0  0  0  0  0  0  0  0
  151.5787  139.8224  157.0476 N   0  0  0  0  0  0  0  0  0  0  0  0
  151.3098  141.2185  156.5876 C   0  0  2  0  0  0  0  0  0  0  0  0
  150.2857  141.8788  157.5118 C   0  0  0  0  0  0  0  0  0  0  0  0
  148.9867  141.5629  156.8037 C   0  0  0  0  0  0  0  0  0  0  0  0
  149.4058  141.6724  155.3381 C   0  0  2  0  0  0  0  0  0  0  0  0
  148.4991  140.8850  154.3808 C   0  0  0  0  0  0  0  0  0  0  0  0
  148.7957  141.2302  153.0455 O   0  0  0  0  0  0  0  0  0  0  0  0
  150.7339  141.1487  155.3155 O   0  0  0  0  0  0  0  0  0  0  0  0
  152.4482  137.5859  159.2495 H   0  0  0  0  0  0  0  0  0  0  0  0
  152.2864  141.7039  156.5765 H   0  0  0  0  0  0  0  0  0  0  0  0
  149.4388  142.7283  155.0630 H   0  0  0  0  0  0  0  0  0  0  0  0
  150.8367  136.9517  153.6086 H   0  0  0  0  0  0  0  0  0  0  0  0
  152.1587  140.1026  159.0907 H   0  0  0  0  0  0  0  0  0  0  0  0
  150.3440  141.4988  158.5326 H   0  0  0  0  0  0  0  0  0  0  0  0
  150.4660  142.9547  157.5221 H   0  0  0  0  0  0  0  0  0  0  0  0
  148.6613  140.5497  157.0429 H   0  0  0  0  0  0  0  0  0  0  0  0
  148.1814  142.2493  157.0666 H   0  0  0  0  0  0  0  0  0  0  0  0
  148.6008  139.8094  154.5252 H   0  0  0  0  0  0  0  0  0  0  0  0
  147.4541  141.1396  154.5608 H   0  0  0  0  0  0  0  0  0  0  0  0
  149.1643  140.4752  152.6129 H   0  0  0  0  0  0  0  0  0  0  0  0
  1  2  2  0  0  0  0
  2  7  1  0  0  0  0
  2  3  1  0  0  0  0
  3  4  1  0  0  0  0
  4 21  1  0  0  0  0
  4  5  2  0  0  0  0
  5  6  1  0  0  0  0
  6 10  1  0  0  0  0
  6  7  2  0  0  0  0
  7  8  1  0  0  0  0
  8  9  2  0  0  0  0
  8 18  1  0  0  0  0
  9 10  1  0  0  0  0
  9 22  1  0  0  0  0
 10 11  1  0  0  0  0
 11 19  1  0  0  0  0
 11 17  1  0  0  0  0
 11 12  1  0  0  0  0
 12 13  1  0  0  0  0
 12 23  1  0  0  0  0
 12 24  1  0  0  0  0
 13 14  1  0  0  0  0
 13 25  1  0  0  0  0
 13 26  1  0  0  0  0
 14 20  1  0  0  0  0
 14 15  1  0  0  0  0
 14 17  1  0  0  0  0
 15 16  1  0  0  0  0
 15 27  1  0  0  0  0
 15 28  1  0  0  0  0
 16 29  1  0  0  0  0
M  CHG  1   3  -1
M  CHG  1   8   1
M  END
> <s_m_source_file>
AV-unprocessed.smi

> <i_m_source_file_index>
44

> <i_lp_mmshare_version>
43012

> <i_f3d_flags>
0

> <s_epik_input>
bjFbY0hdW25IXWMoPU8pYyhjMTIpbltjSF1uMltDQEhdM1tDSDJdW0NIMl1bQ0BIXShPMylbQ0gyXVtPSF0=

> <s_epik_cmdline>
J2VwaWtfcHl0aG9uJywgJy1waCcsICc3LjAnLCAnLXRuJywgJzgnLCAnLW1hJywgJzIwMCcsICctbWV0YWxfYmluZGluZycsICctaW1hZScsICc8aW5maWxlLm1hZT4nLCAnLW9tYWUnLCAnPG91dGZpbGUubWFlPic=

> <r_lp_tautomer_probability>
0.144281

> <r_epik_Ionization_Penalty>
5.63685

> <r_epik_Ionization_Penalty_Charging>
5.58669

> <r_epik_Ionization_Penalty_Neutral>
0.0501585

> <r_epik_State_Penalty>
1.20809

> <r_epik_Charging_Adjusted_Penalty>
6.79478

> <i_epik_Tot_Q>
0

> <i_epik_Tot_abs_Q>
2

> <r_epik_Metal_State_Penalty>
1.52487

> <b_epik_Metal_Only>
0

> <s_epik_Chemistry_Notes>
This compound contains an acetal/aminal-like group ( X-CH(R)-Y where X, Y are N, S, or O) that may be acid/base labile, releasing an aldehyde.

> <s_lp_Force_Field>
OPLS_2005

> <r_lp_Energy>
43.1819

> <b_lp_Chiralities_Consistent>
1

> <s_lp_Variant>
AV-unprocessed.smi:44-8

> <Gold.Version>
5.8.1

> <Gold.Id.Protein>
6NUR|6NUR_protein|mol2

> <Gold.PLP.Fitness>
37.9113

> <Gold.PLP.PLP>
-22.1170

> <Gold.PLP.part.hbond>
-4.3923

> <Gold.PLP.part.metal>
0.0000

> <Gold.PLP.part.buried>
-1.5001

> <Gold.PLP.part.nonpolar>
-15.5804

> <Gold.PLP.part.repulsive>
0.3334

> <Gold.PLP.ligand.clash>
0.0000

> <Gold.PLP.ligand.torsion>
0.1724

> <Gold.PLP.Chemscore.Hbond>
4.3120

> <Gold.PLP.Chemscore.CHOScore>
1.0625

> <Gold.PLP.Chemscore.Metal>
0.0000

> <Gold.Chemscore.Hbonds>
donor molecule, donor type, donor heavy atom, donor atom, acceptor molecule, acceptor atom, score
      L1  H    16    29       P1  7957  0.75
      P1  H  7989  7998       L1    17  0.63
      P1  H  8011  8017       L1    16  0.90
      P1  H 10752 10763       L1     3  1.60
      L1  C     4    21       P1  7948  0.21
      L1  C     4    21       P1  7949  0.86

> <Gold.PLP.Chemscore.Internal.Correction>
0.0157

> <Gold.Rescore>
     Score         DG    S(hbond)    S(metal)    S(lipo)     H(rot)  DE(clash)    DE(int)     intcor
      7.88      -9.74       1.99        0.00      29.26       2.27       0.25       1.61       ----

> <Gold.Chemscore.Fitness>
7.8802

> <Gold.Chemscore.DG>
-9.7424

> <Gold.Chemscore.ZeroCoef>
-5.4800

> <Gold.Chemscore.Hbond>
1.9927

> <Gold.Chemscore.Metal>
0.0000

> <Gold.Chemscore.Lipo>
29.2594

> <Gold.Chemscore.Internal_Hbond>
0.0000

> <Gold.Chemscore.DEClash>
0.2484

> <Gold.Chemscore.DEInternal>
1.6138

> <Gold.Chemscore.Rot>
2.2720

> <Gold.Chemscore.Internal.Correction>
   9.000000E+99

> <Gold.Chemscore.Hbonds>
donor molecule, donor type, donor heavy atom, donor atom, acceptor molecule, acceptor atom, score
      L1  H    16    29       P1  7957  0.74
      P1  H  7989  7998       L1    17  0.57
      P1  H  8011  8017       L1    16  0.17
      P1  H 10752 10763       L1     3  0.07

> <Gold.Chemscore.Hbond.Weighted>
-6.6555

> <Gold.Chemscore.Metal.Weighted>
-0.0000

> <Gold.Chemscore.Lipo.Weighted>
-3.4233

> <Gold.Chemscore.Internal_Hbond.Weighted>
0.0000

> <Gold.Chemscore.DEClash.Weighted>
0.2484

> <Gold.Chemscore.DEInternal.Weighted>
1.6138

> <Gold.Chemscore.Rot.Weighted>
5.8164

> <Gold.Chemscore.Internal.Correction.Weighted>
   9.000000E+99

> <Gold.Protein.RotatedTorsions>
[ 6907 6896 6895 6894 ] final  -56.49 input  -60.11 | X-H torsion
[ 7974 7965 7964 7962 ] final  -55.48 input  175.53 | X-H torsion
[ 8008 7997 7996 7995 ] final   58.87 input   59.86 | X-H torsion
[ 10167 10162 10161 10158 ] final  105.01 input  -65.29 | X-H torsion
[ 10718 10713 10712 10709 ] final -147.26 input   66.30 | X-H torsion
[ 10763 10752 10751 10750 ] final   71.64 input  -60.55 | X-H torsion
[ 11005 11000 10999 10996 ] final   31.72 input  -57.11 | X-H torsion

> <Gold.Protein.ActiveResidues>
 VAL166  LYS551  ARG553  GLY616  TRP617  ASP618  TYR619  PRO620  LYS621  CYS622 
 ASP623  PHE694  ASN695  SER759  ASP760  ASP761  ALA762  ILE779  LEU786  VAL792 
 PHE793  MET794  SER795  GLU796  ALA797  LYS798  CYS799  TRP800  GLU811  SER814 

> <Gold.Protein.RotatedAtoms>
  150.8163  134.7346  159.6732 H   0  0  0  0  0  0  0  0  0  0  0  0  # atno 6907 bound_to 6896
  152.4281  134.5826  159.9962 H   0  0  0  0  0  0  0  0  0  0  0  0  # atno 6908 bound_to 6896
  151.6022  133.3318  159.3086 H   0  0  0  0  0  0  0  0  0  0  0  0  # atno 6909 bound_to 6896
  145.8737  140.8197  142.9875 H   0  0  0  0  0  0  0  0  0  0  0  0  # atno 7974 bound_to 7965
  155.5570  140.3487  155.4482 H   0  0  0  0  0  0  0  0  0  0  0  0  # atno 8008 bound_to 7997
  156.0541  140.1325  157.0042 H   0  0  0  0  0  0  0  0  0  0  0  0  # atno 8009 bound_to 7997
  154.4448  140.0998  156.6405 H   0  0  0  0  0  0  0  0  0  0  0  0  # atno 8010 bound_to 7997
  139.7128  144.7074  151.0998 H   0  0  0  0  0  0  0  0  0  0  0  0  # atno 10167 bound_to 10162
  156.4053  130.7954  151.2168 H   0  0  0  0  0  0  0  0  0  0  0  0  # atno 10718 bound_to 10713
  153.0411  135.5129  154.7623 H   0  0  0  0  0  0  0  0  0  0  0  0  # atno 10763 bound_to 10752
  154.6560  135.2932  154.9929 H   0  0  0  0  0  0  0  0  0  0  0  0  # atno 10764 bound_to 10752
  154.0796  135.6666  153.4888 H   0  0  0  0  0  0  0  0  0  0  0  0  # atno 10765 bound_to 10752
  140.2810  134.2973  155.7801 H   0  0  0  0  0  0  0  0  0  0  0  0  # atno 11005 bound_to 11000
  144.6726  140.1278  143.7445 LP  0  0  0  0  0  0  0  0  0  0  0  0  # atno 17320 bound_to 7965
  145.9106  139.2485  143.1440 LP  0  0  0  0  0  0  0  0  0  0  0  0  # atno 17321 bound_to 7965
  140.7737  143.5270  150.9469 LP  0  0  0  0  0  0  0  0  0  0  0  0  # atno 17342 bound_to 10162
  139.8955  143.6900  152.3139 LP  0  0  0  0  0  0  0  0  0  0  0  0  # atno 17343 bound_to 10162
  157.7505  131.0274  150.4004 LP  0  0  0  0  0  0  0  0  0  0  0  0  # atno 17370 bound_to 10713
  156.4292  130.3968  149.6772 LP  0  0  0  0  0  0  0  0  0  0  0  0  # atno 17371 bound_to 10713
  141.2163  133.7525  156.9480 LP  0  0  0  0  0  0  0  0  0  0  0  0  # atno 17394 bound_to 11000
  140.1284  134.9372  157.2302 LP  0  0  0  0  0  0  0  0  0  0  0  0  # atno 17395 bound_to 11000

$$$$
