AV-unprocessed.smi:69|AV-procd|sdf|645|dock7
  -GOLD-   2262016543D 1   1.00000     0.00000
 Structure written by MMmdl.
 32 34  0  0  0  0  0  0  0  0  1 V2000
  143.2415  134.5948  154.9868 N   0  0  0  0  0  0  0  0  0  0  0  0
  143.9358  135.4656  154.2413 C   0  0  0  0  0  0  0  0  0  0  0  0
  143.4939  135.7359  152.9909 N   0  0  0  0  0  0  0  0  0  0  0  0
  144.1682  136.6022  152.2282 C   0  0  0  0  0  0  0  0  0  0  0  0
  145.2781  137.2847  152.5211 N   0  0  0  0  0  0  0  0  0  0  0  0
  145.7243  137.0128  153.7824 C   0  0  0  0  0  0  0  0  0  0  0  0
  145.1091  136.1162  154.7006 C   0  0  0  0  0  0  0  0  0  0  0  0
  145.8293  136.0843  155.8860 N   0  0  0  0  0  0  0  0  0  0  0  0
  146.8107  136.9202  155.6783 C   0  0  0  0  0  0  0  0  0  0  0  0
  146.8309  137.5202  154.4373 N   0  0  0  0  0  0  0  0  0  0  0  0
  147.8218  138.5287  153.9396 C   0  0  2  0  0  0  0  0  0  0  0  0
  148.7716  138.7387  154.9430 O   0  0  0  0  0  0  0  0  0  0  0  0
  148.7400  140.0912  155.3971 C   0  0  1  0  0  0  0  0  0  0  0  0
  150.1247  140.5393  155.8978 C   0  0  0  0  0  0  0  0  0  0  0  0
  151.1095  140.2446  154.9302 O   0  0  0  0  0  0  0  0  0  0  0  0
  148.1869  140.8618  154.1915 C   0  0  1  0  0  0  0  0  0  0  0  0
  149.2236  141.1503  153.2657 O   0  0  0  0  0  0  0  0  0  0  0  0
  147.1610  139.8814  153.6319 C   0  0  1  0  0  0  0  0  0  0  0  0
  146.9279  140.0986  152.2524 O   0  0  0  0  0  0  0  0  0  0  0  0
  148.3034  138.0666  153.0765 H   0  0  0  0  0  0  0  0  0  0  0  0
  148.0163  140.1784  156.2074 H   0  0  0  0  0  0  0  0  0  0  0  0
  147.7238  141.8030  154.4899 H   0  0  0  0  0  0  0  0  0  0  0  0
  146.2247  139.9764  154.1820 H   0  0  0  0  0  0  0  0  0  0  0  0
  143.5506  134.3767  155.9231 H   0  0  0  0  0  0  0  0  0  0  0  0
  142.4090  134.1629  154.6129 H   0  0  0  0  0  0  0  0  0  0  0  0
  143.7611  136.7729  151.2425 H   0  0  0  0  0  0  0  0  0  0  0  0
  147.5544  137.1242  156.4349 H   0  0  0  0  0  0  0  0  0  0  0  0
  150.1371  141.6030  156.1374 H   0  0  0  0  0  0  0  0  0  0  0  0
  150.3891  139.9969  156.8061 H   0  0  0  0  0  0  0  0  0  0  0  0
  151.8493  139.8493  155.3655 H   0  0  0  0  0  0  0  0  0  0  0  0
  149.1916  140.5055  152.5750 H   0  0  0  0  0  0  0  0  0  0  0  0
  147.7349  139.9450  151.7854 H   0  0  0  0  0  0  0  0  0  0  0  0
  1  2  1  0  0  0  0
  1 24  1  0  0  0  0
  1 25  1  0  0  0  0
  2  7  1  0  0  0  0
  2  3  2  0  0  0  0
  3  4  1  0  0  0  0
  4  5  2  0  0  0  0
  4 26  1  0  0  0  0
  5  6  1  0  0  0  0
  6 10  1  0  0  0  0
  6  7  2  0  0  0  0
  7  8  1  0  0  0  0
  8  9  2  0  0  0  0
  9 10  1  0  0  0  0
  9 27  1  0  0  0  0
 10 11  1  0  0  0  0
 11 20  1  0  0  0  0
 11 18  1  0  0  0  0
 11 12  1  0  0  0  0
 12 13  1  0  0  0  0
 13 21  1  0  0  0  0
 13 14  1  0  0  0  0
 13 16  1  0  0  0  0
 14 15  1  0  0  0  0
 14 28  1  0  0  0  0
 14 29  1  0  0  0  0
 15 30  1  0  0  0  0
 16 22  1  0  0  0  0
 16 17  1  0  0  0  0
 16 18  1  0  0  0  0
 17 31  1  0  0  0  0
 18 23  1  0  0  0  0
 18 19  1  0  0  0  0
 19 32  1  0  0  0  0
M  END
> <s_m_source_file>
AV-unprocessed.smi

> <i_m_source_file_index>
69

> <i_lp_mmshare_version>
43012

> <i_f3d_flags>
0

> <s_epik_input>
bjFbY0hdbmMoW05IMl0pYyhjMTIpbltjSF1uMltDQEBIXTNPW0NASF0oW0NIMl1bT0hdKVtDQEBIXShbT0hdKVtDQEhdM1tPSF0=

> <s_epik_cmdline>
J2VwaWtfcHl0aG9uJywgJy1waCcsICc3LjAnLCAnLXRuJywgJzgnLCAnLW1hJywgJzIwMCcsICctbWV0YWxfYmluZGluZycsICctaW1hZScsICc8aW5maWxlLm1hZT4nLCAnLW9tYWUnLCAnPG91dGZpbGUubWFlPic=

> <r_lp_tautomer_probability>
1

> <r_epik_Ionization_Penalty>
0.000428445

> <r_epik_Ionization_Penalty_Charging>
0

> <r_epik_Ionization_Penalty_Neutral>
0.000428445

> <r_epik_State_Penalty>
-0

> <r_epik_Charging_Adjusted_Penalty>
0

> <i_epik_Tot_Q>
0

> <i_epik_Tot_abs_Q>
0

> <r_epik_Metal_State_Penalty>
-0

> <b_epik_Metal_Only>
0

> <s_epik_Chemistry_Notes>
This compound contains an acetal/aminal-like group ( X-CH(R)-Y where X, Y are N, S, or O) that may be acid/base labile, releasing an aldehyde.

> <s_lp_Force_Field>
OPLS_2005

> <r_lp_Energy>
42.3633

> <b_lp_Chiralities_Consistent>
1

> <s_lp_Variant>
AV-unprocessed.smi:69-3

> <Gold.Version>
5.8.1

> <Gold.Id.Protein>
6NUR|6NUR_protein|mol2

> <Gold.PLP.Fitness>
35.1075

> <Gold.PLP.PLP>
-20.4755

> <Gold.PLP.part.hbond>
-6.0781

> <Gold.PLP.part.metal>
0.0000

> <Gold.PLP.part.buried>
-6.0200

> <Gold.PLP.part.nonpolar>
-9.2313

> <Gold.PLP.part.repulsive>
0.4156

> <Gold.PLP.ligand.clash>
0.0000

> <Gold.PLP.ligand.torsion>
0.0438

> <Gold.PLP.Chemscore.Hbond>
3.9040

> <Gold.PLP.Chemscore.CHOScore>
1.0000

> <Gold.PLP.Chemscore.Metal>
0.0000

> <Gold.Chemscore.Hbonds>
donor molecule, donor type, donor heavy atom, donor atom, acceptor molecule, acceptor atom, score
      L1  H     1    25       P1 10957  0.01
      L1  H    17    31       P1  7957  0.99
      L1  H    19    32       P1  7957  1.00
      P1  H  7989  7998       L1    15  1.00
      P1  H  8011  8017       L1    17  0.80
      L1  C     4    26       P1 10171  1.00

> <Gold.PLP.Chemscore.Internal.Correction>
0.0075

> <Gold.Rescore>
     Score         DG    S(hbond)    S(metal)    S(lipo)     H(rot)  DE(clash)    DE(int)     intcor
      9.37      -9.43       3.40        0.00      24.86       4.03       0.02       0.05       ----

> <Gold.Chemscore.Fitness>
9.3695

> <Gold.Chemscore.DG>
-9.4348

> <Gold.Chemscore.ZeroCoef>
-5.4800

> <Gold.Chemscore.Hbond>
3.4004

> <Gold.Chemscore.Metal>
0.0000

> <Gold.Chemscore.Lipo>
24.8584

> <Gold.Chemscore.Internal_Hbond>
0.0000

> <Gold.Chemscore.DEClash>
0.0174

> <Gold.Chemscore.DEInternal>
0.0479

> <Gold.Chemscore.Rot>
4.0277

> <Gold.Chemscore.Internal.Correction>
   9.000000E+99

> <Gold.Chemscore.Hbonds>
donor molecule, donor type, donor heavy atom, donor atom, acceptor molecule, acceptor atom, score
      L1  H     1    25       P1 10957  0.02
      L1  H    17    31       P1  7957  0.88
      L1  H    19    32       P1  7957  0.99
      P1  H  7989  7998       L1    15  0.65
      P1  H  8011  8017       L1    17  0.12

> <Gold.Chemscore.Hbond.Weighted>
-11.3573

> <Gold.Chemscore.Metal.Weighted>
-0.0000

> <Gold.Chemscore.Lipo.Weighted>
-2.9084

> <Gold.Chemscore.Internal_Hbond.Weighted>
0.0000

> <Gold.Chemscore.DEClash.Weighted>
0.0174

> <Gold.Chemscore.DEInternal.Weighted>
0.0479

> <Gold.Chemscore.Rot.Weighted>
10.3110

> <Gold.Chemscore.Internal.Correction.Weighted>
   9.000000E+99

> <Gold.Protein.RotatedTorsions>
[ 6907 6896 6895 6894 ] final  118.11 input  -60.11 | X-H torsion
[ 7974 7965 7964 7962 ] final -105.01 input  175.53 | X-H torsion
[ 8008 7997 7996 7995 ] final  137.19 input   59.86 | X-H torsion
[ 10167 10162 10161 10158 ] final  -50.61 input  -65.29 | X-H torsion
[ 10718 10713 10712 10709 ] final  -25.48 input   66.30 | X-H torsion
[ 10763 10752 10751 10750 ] final  165.19 input  -60.55 | X-H torsion
[ 11005 11000 10999 10996 ] final  -62.66 input  -57.11 | X-H torsion

> <Gold.Protein.ActiveResidues>
 VAL166  LYS551  ARG553  GLY616  TRP617  ASP618  TYR619  PRO620  LYS621  CYS622 
 ASP623  PHE694  ASN695  SER759  ASP760  ASP761  ALA762  ILE779  LEU786  VAL792 
 PHE793  MET794  SER795  GLU796  ALA797  LYS798  CYS799  TRP800  GLU811  SER814 

> <Gold.Protein.RotatedAtoms>
  152.4566  133.7735  159.6811 H   0  0  0  0  0  0  0  0  0  0  0  0  # atno 6907 bound_to 6896
  150.8494  133.7800  159.3037 H   0  0  0  0  0  0  0  0  0  0  0  0  # atno 6908 bound_to 6896
  151.5400  135.1071  159.9976 H   0  0  0  0  0  0  0  0  0  0  0  0  # atno 6909 bound_to 6896
  145.2359  140.9188  143.3178 H   0  0  0  0  0  0  0  0  0  0  0  0  # atno 7974 bound_to 7965
  156.3003  140.2426  156.3869 H   0  0  0  0  0  0  0  0  0  0  0  0  # atno 8008 bound_to 7997
  154.8650  140.0418  157.1708 H   0  0  0  0  0  0  0  0  0  0  0  0  # atno 8009 bound_to 7997
  154.8856  140.2955  155.5404 H   0  0  0  0  0  0  0  0  0  0  0  0  # atno 8010 bound_to 7997
  140.6629  143.2651  151.4384 H   0  0  0  0  0  0  0  0  0  0  0  0  # atno 10167 bound_to 10162
  156.4638  130.4509  149.6912 H   0  0  0  0  0  0  0  0  0  0  0  0  # atno 10718 bound_to 10713
  154.3203  135.2756  155.2523 H   0  0  0  0  0  0  0  0  0  0  0  0  # atno 10763 bound_to 10752
  154.4879  135.5841  153.6441 H   0  0  0  0  0  0  0  0  0  0  0  0  # atno 10764 bound_to 10752
  152.9877  135.6127  154.3387 H   0  0  0  0  0  0  0  0  0  0  0  0  # atno 10765 bound_to 10752
  141.1367  133.6642  156.5562 H   0  0  0  0  0  0  0  0  0  0  0  0  # atno 11005 bound_to 11000
  144.9633  139.3956  143.6345 LP  0  0  0  0  0  0  0  0  0  0  0  0  # atno 17320 bound_to 7965
  146.3341  139.8697  142.8842 LP  0  0  0  0  0  0  0  0  0  0  0  0  # atno 17321 bound_to 7965
  139.5868  144.1586  152.2039 LP  0  0  0  0  0  0  0  0  0  0  0  0  # atno 17342 bound_to 10162
  140.0928  144.5606  150.7043 LP  0  0  0  0  0  0  0  0  0  0  0  0  # atno 17343 bound_to 10162
  156.3689  130.7520  151.2501 LP  0  0  0  0  0  0  0  0  0  0  0  0  # atno 17370 bound_to 10713
  157.7496  131.0329  150.4246 LP  0  0  0  0  0  0  0  0  0  0  0  0  # atno 17371 bound_to 10713
  140.4024  134.7344  157.4788 LP  0  0  0  0  0  0  0  0  0  0  0  0  # atno 17394 bound_to 11000
  140.0486  134.6163  155.8890 LP  0  0  0  0  0  0  0  0  0  0  0  0  # atno 17395 bound_to 11000

$$$$
