AV-unprocessed.smi:3068|AV-procd|sdf|11709|dock2
  -GOLD-   2272017113D 1   1.00000     0.00000
 Structure written by MMmdl.
 39 41  0  0  0  0  0  0  0  0  1 V2000
  147.1323  141.6590  158.8359 N   0  0  0  0  0  0  0  0  0  0  0  0
  147.2301  141.4230  157.7073 C   0  0  0  0  0  0  0  0  0  0  0  0
  147.3527  141.1260  156.2858 C   0  0  0  0  0  0  0  0  0  0  0  0
  146.3579  141.5720  155.4840 N   0  0  0  0  0  0  0  0  0  0  0  0
  146.4591  141.3031  154.1650 C   0  0  0  0  0  0  0  0  0  0  0  0
  147.5537  140.5897  153.6396 C   0  0  0  0  0  0  0  0  0  0  0  0
  148.5509  140.1424  154.4317 N   0  0  0  0  0  0  0  0  0  0  0  0
  148.4604  140.4023  155.7603 C   0  0  0  0  0  0  0  0  0  0  0  0
  149.4932  139.9440  156.5993 N   0  0  0  0  0  0  0  0  0  0  0  0
  150.8939  140.0126  156.1990 C   0  0  0  0  0  0  0  0  0  0  0  0
  151.7252  140.9192  157.1215 C   0  0  1  0  0  0  0  0  0  0  0  0
  151.0734  142.3031  157.2955 C   0  0  0  0  0  0  0  0  0  0  0  0
  151.8179  143.1408  158.2270 N   0  0  0  0  0  0  0  0  0  0  0  0
  151.1854  144.4487  158.3887 C   0  0  0  0  0  0  0  0  0  0  0  0
  151.9709  145.3654  159.3399 C   0  0  0  0  0  0  0  0  0  0  0  0
  152.1490  144.6883  160.7063 C   0  0  0  0  0  0  0  0  0  0  0  0
  152.7633  143.2915  160.5266 C   0  0  0  0  0  0  0  0  0  0  0  0
  151.9496  142.4562  159.5167 C   0  0  2  0  0  0  0  0  0  0  0  0
  152.5752  141.0579  159.3370 C   0  0  0  0  0  0  0  0  0  0  0  0
  151.8114  140.3013  158.4032 O   0  0  0  0  0  0  0  0  0  0  0  0
  145.6644  141.6595  153.5263 H   0  0  0  0  0  0  0  0  0  0  0  0
  147.6300  140.3778  152.5835 H   0  0  0  0  0  0  0  0  0  0  0  0
  149.2571  139.3648  157.3925 H   0  0  0  0  0  0  0  0  0  0  0  0
  151.3151  139.0069  156.1746 H   0  0  0  0  0  0  0  0  0  0  0  0
  150.9419  140.3848  155.1752 H   0  0  0  0  0  0  0  0  0  0  0  0
  152.7286  141.0470  156.7120 H   0  0  0  0  0  0  0  0  0  0  0  0
  151.0120  142.7991  156.3259 H   0  0  0  0  0  0  0  0  0  0  0  0
  150.0479  142.1795  157.6476 H   0  0  0  0  0  0  0  0  0  0  0  0
  151.0982  144.9358  157.4167 H   0  0  0  0  0  0  0  0  0  0  0  0
  150.1683  144.3244  158.7635 H   0  0  0  0  0  0  0  0  0  0  0  0
  152.9478  145.5888  158.9090 H   0  0  0  0  0  0  0  0  0  0  0  0
  151.4552  146.3187  159.4561 H   0  0  0  0  0  0  0  0  0  0  0  0
  152.7780  145.2994  161.3539 H   0  0  0  0  0  0  0  0  0  0  0  0
  151.1806  144.6012  161.2003 H   0  0  0  0  0  0  0  0  0  0  0  0
  153.7925  143.3897  160.1785 H   0  0  0  0  0  0  0  0  0  0  0  0
  152.8082  142.7818  161.4897 H   0  0  0  0  0  0  0  0  0  0  0  0
  150.9511  142.3137  159.9341 H   0  0  0  0  0  0  0  0  0  0  0  0
  153.6077  141.1325  158.9916 H   0  0  0  0  0  0  0  0  0  0  0  0
  152.5938  140.5238  160.2871 H   0  0  0  0  0  0  0  0  0  0  0  0
  1  2  3  0  0  0  0
  2  3  1  0  0  0  0
  3  8  1  0  0  0  0
  3  4  2  0  0  0  0
  4  5  1  0  0  0  0
  5  6  2  0  0  0  0
  5 21  1  0  0  0  0
  6  7  1  0  0  0  0
  6 22  1  0  0  0  0
  7  8  2  0  0  0  0
  8  9  1  0  0  0  0
  9 10  1  0  0  0  0
  9 23  1  0  0  0  0
 10 11  1  0  0  0  0
 10 24  1  0  0  0  0
 10 25  1  0  0  0  0
 11 20  1  0  0  0  0
 11 12  1  0  0  0  0
 11 26  1  0  0  0  0
 12 13  1  0  0  0  0
 12 27  1  0  0  0  0
 12 28  1  0  0  0  0
 13 18  1  0  0  0  0
 13 14  1  0  0  0  0
 14 15  1  0  0  0  0
 14 29  1  0  0  0  0
 14 30  1  0  0  0  0
 15 16  1  0  0  0  0
 15 31  1  0  0  0  0
 15 32  1  0  0  0  0
 16 17  1  0  0  0  0
 16 33  1  0  0  0  0
 16 34  1  0  0  0  0
 17 18  1  0  0  0  0
 17 35  1  0  0  0  0
 17 36  1  0  0  0  0
 18 19  1  0  0  0  0
 18 37  1  0  0  0  0
 19 20  1  0  0  0  0
 19 38  1  0  0  0  0
 19 39  1  0  0  0  0
M  END
> <s_m_source_file>
AV-unprocessed.smi

> <i_m_source_file_index>
3068

> <i_lp_mmshare_version>
43012

> <i_f3d_flags>
0

> <s_epik_input>
TiNDYzFuW2NIXVtjSF1uYzFbTkhdW0NIMl1bQ0BIXShbQ0gyXTIpT1tDSDJdW0NAQEhdKE4yMylbQ0gyXVtDSDJdW0NIMl1bQ0gyXTM=

> <s_epik_cmdline>
J2VwaWtfcHl0aG9uJywgJy1waCcsICc3LjAnLCAnLXRuJywgJzgnLCAnLW1hJywgJzIwMCcsICctbWV0YWxfYmluZGluZycsICctaW1hZScsICc8aW5maWxlLm1hZT4nLCAnLW9tYWUnLCAnPG91dGZpbGUubWFlPic=

> <r_epik_Ionization_Penalty>
1.22359

> <r_epik_Ionization_Penalty_Charging>
0

> <r_epik_Ionization_Penalty_Neutral>
1.22359

> <r_epik_State_Penalty>
1.29103

> <r_epik_Charging_Adjusted_Penalty>
1.29103

> <i_epik_Tot_Q>
0

> <i_epik_Tot_abs_Q>
0

> <r_epik_Metal_State_Penalty>
1.29103

> <b_epik_Metal_Only>
0

> <s_lp_Force_Field>
OPLS_2005

> <r_lp_Energy>
45.8407

> <b_lp_Chiralities_Consistent>
1

> <s_lp_Variant>
AV-unprocessed.smi:3068-12

> <Gold.Version>
5.8.1

> <Gold.Id.Protein>
6NUR|6NUR_protein|mol2

> <Gold.PLP.Fitness>
40.4816

> <Gold.PLP.PLP>
-35.2207

> <Gold.PLP.part.hbond>
-1.0000

> <Gold.PLP.part.metal>
0.0000

> <Gold.PLP.part.buried>
-6.7027

> <Gold.PLP.part.nonpolar>
-29.1098

> <Gold.PLP.part.repulsive>
0.3064

> <Gold.PLP.ligand.clash>
0.0000

> <Gold.PLP.ligand.torsion>
0.3544

> <Gold.PLP.Chemscore.Hbond>
0.4056

> <Gold.PLP.Chemscore.CHOScore>
1.5840

> <Gold.PLP.Chemscore.Metal>
0.0000

> <Gold.Chemscore.Hbonds>
donor molecule, donor type, donor heavy atom, donor atom, acceptor molecule, acceptor atom, score
      P1  H  6934  6946       L1     1  0.46
      L1  C     5    21       P1 10175  0.74
      L1  C     6    22       P1  7957  1.00

> <Gold.PLP.Chemscore.Internal.Correction>
0.0011

> <Gold.Rescore>
     Score         DG    S(hbond)    S(metal)    S(lipo)     H(rot)  DE(clash)    DE(int)     intcor
     15.44     -15.97       0.57        0.00     101.73       1.30       0.20       0.32       ----

> <Gold.Chemscore.Fitness>
15.4441

> <Gold.Chemscore.DG>
-15.9665

> <Gold.Chemscore.ZeroCoef>
-5.4800

> <Gold.Chemscore.Hbond>
0.5738

> <Gold.Chemscore.Metal>
0.0000

> <Gold.Chemscore.Lipo>
101.7322

> <Gold.Chemscore.Internal_Hbond>
0.0000

> <Gold.Chemscore.DEClash>
0.2047

> <Gold.Chemscore.DEInternal>
0.3176

> <Gold.Chemscore.Rot>
1.3019

> <Gold.Chemscore.Internal.Correction>
   9.000000E+99

> <Gold.Chemscore.Hbonds>
donor molecule, donor type, donor heavy atom, donor atom, acceptor molecule, acceptor atom, score
      P1  H  6934  6946       L1     1  0.43

> <Gold.Chemscore.Hbond.Weighted>
-1.9165

> <Gold.Chemscore.Metal.Weighted>
-0.0000

> <Gold.Chemscore.Lipo.Weighted>
-11.9027

> <Gold.Chemscore.Internal_Hbond.Weighted>
0.0000

> <Gold.Chemscore.DEClash.Weighted>
0.2047

> <Gold.Chemscore.DEInternal.Weighted>
0.3176

> <Gold.Chemscore.Rot.Weighted>
3.3327

> <Gold.Chemscore.Internal.Correction.Weighted>
   9.000000E+99

> <Gold.Protein.RotatedTorsions>
[ 6907 6896 6895 6894 ] final -140.97 input  -60.11 | X-H torsion
[ 7974 7965 7964 7962 ] final  -94.25 input  175.53 | X-H torsion
[ 8008 7997 7996 7995 ] final  121.77 input   59.86 | X-H torsion
[ 10167 10162 10161 10158 ] final  -74.06 input  -65.29 | X-H torsion
[ 10718 10713 10712 10709 ] final    4.71 input   66.30 | X-H torsion
[ 10763 10752 10751 10750 ] final  -42.83 input  -60.55 | X-H torsion
[ 11005 11000 10999 10996 ] final   -8.32 input  -57.11 | X-H torsion

> <Gold.Protein.ActiveResidues>
 VAL166  LYS551  ARG553  GLY616  TRP617  ASP618  TYR619  PRO620  LYS621  CYS622 
 ASP623  PHE694  ASN695  SER759  ASP760  ASP761  ALA762  ILE779  LEU786  VAL792 
 PHE793  MET794  SER795  GLU796  ALA797  LYS798  CYS799  TRP800  GLU811  SER814 

> <Gold.Protein.RotatedAtoms>
  151.0677  133.5492  159.2629 H   0  0  0  0  0  0  0  0  0  0  0  0  # atno 6907 bound_to 6896
  151.2443  135.0599  159.9047 H   0  0  0  0  0  0  0  0  0  0  0  0  # atno 6908 bound_to 6896
  152.5407  134.0447  159.8137 H   0  0  0  0  0  0  0  0  0  0  0  0  # atno 6909 bound_to 6896
  145.3757  140.9511  143.2422 H   0  0  0  0  0  0  0  0  0  0  0  0  # atno 7974 bound_to 7965
  156.2700  140.2801  156.1361 H   0  0  0  0  0  0  0  0  0  0  0  0  # atno 8008 bound_to 7997
  155.1002  140.0389  157.2712 H   0  0  0  0  0  0  0  0  0  0  0  0  # atno 8009 bound_to 7997
  154.6821  140.2611  155.6904 H   0  0  0  0  0  0  0  0  0  0  0  0  # atno 8010 bound_to 7997
  140.5058  143.2353  151.7676 H   0  0  0  0  0  0  0  0  0  0  0  0  # atno 10167 bound_to 10162
  156.8967  130.5707  149.5648 H   0  0  0  0  0  0  0  0  0  0  0  0  # atno 10718 bound_to 10713
  153.9855  135.6711  153.4752 H   0  0  0  0  0  0  0  0  0  0  0  0  # atno 10763 bound_to 10752
  153.0728  135.4964  154.8338 H   0  0  0  0  0  0  0  0  0  0  0  0  # atno 10764 bound_to 10752
  154.7139  135.3103  154.9116 H   0  0  0  0  0  0  0  0  0  0  0  0  # atno 10765 bound_to 10752
  140.7222  133.8819  155.8829 H   0  0  0  0  0  0  0  0  0  0  0  0  # atno 11005 bound_to 11000
  144.8544  139.5273  143.6841 LP  0  0  0  0  0  0  0  0  0  0  0  0  # atno 17320 bound_to 7965
  146.2865  139.7018  142.9192 LP  0  0  0  0  0  0  0  0  0  0  0  0  # atno 17321 bound_to 7965
  139.4883  144.4459  151.9711 LP  0  0  0  0  0  0  0  0  0  0  0  0  # atno 17342 bound_to 10162
  140.3549  144.3043  150.5943 LP  0  0  0  0  0  0  0  0  0  0  0  0  # atno 17343 bound_to 10162
  156.0602  130.5656  150.9177 LP  0  0  0  0  0  0  0  0  0  0  0  0  # atno 17370 bound_to 10713
  157.6051  131.0939  150.8893 LP  0  0  0  0  0  0  0  0  0  0  0  0  # atno 17371 bound_to 10713
  140.9994  134.1171  157.4332 LP  0  0  0  0  0  0  0  0  0  0  0  0  # atno 17394 bound_to 11000
  139.8845  135.0064  156.6376 LP  0  0  0  0  0  0  0  0  0  0  0  0  # atno 17395 bound_to 11000

$$$$
