AV-unprocessed.smi:1473|AV-procd|sdf|5967|dock1
  -GOLD-   22720 6 53D 1   1.00000     0.00000
 Structure written by MMmdl.
 33 34  0  0  0  0  0  0  0  0  2 V2000
  146.1415  144.7396  159.2970 N   0  0  0  0  0  0  0  0  0  0  0  0
  147.0116  143.3025  159.6542 S   0  0  0  0  0  0  0  0  0  0  0  0
  148.1178  143.7103  160.5351 O   0  0  0  0  0  0  0  0  0  0  0  0
  146.0179  142.3471  160.1701 O   0  0  0  0  0  0  0  0  0  0  0  0
  147.4726  142.9990  158.1307 N   0  5  0  0  0  0  0  0  0  0  0  0
  147.1137  141.7330  157.5113 C   0  0  0  0  0  0  0  0  0  0  0  0
  148.1444  141.2681  156.4890 C   0  0  0  0  0  0  0  0  0  0  0  0
  147.9951  141.5813  155.1210 C   0  0  0  0  0  0  0  0  0  0  0  0
  148.9837  141.1392  154.2244 C   0  0  0  0  0  0  0  0  0  0  0  0
  150.0667  140.4310  154.6045 N   0  0  0  0  0  0  0  0  0  0  0  0
  150.2288  140.1236  155.9145 C   0  0  0  0  0  0  0  0  0  0  0  0
  151.3857  139.3826  156.2511 N   0  0  0  0  0  0  0  0  0  0  0  0
  151.9883  139.5847  157.5665 C   0  0  0  0  0  0  0  0  0  0  0  0
  153.0180  138.4828  157.8675 C   0  0  0  0  0  0  0  0  0  0  0  0
  153.9792  138.4202  156.8202 O   0  0  0  0  0  0  0  0  0  0  0  0
  153.3759  138.0885  155.5748 C   0  0  0  0  0  0  0  0  0  0  0  0
  152.3606  139.1744  155.1803 C   0  0  0  0  0  0  0  0  0  0  0  0
  149.2778  140.5224  156.8887 C   0  0  0  0  0  0  0  0  0  0  0  0
  146.5614  145.2657  158.5315 H   0  0  0  0  0  0  0  0  0  0  0  0
  145.9580  145.2973  160.1301 H   0  0  0  0  0  0  0  0  0  0  0  0
  146.9763  140.9450  158.2529 H   0  0  0  0  0  0  0  0  0  0  0  0
  146.1543  141.8080  156.9983 H   0  0  0  0  0  0  0  0  0  0  0  0
  147.1530  142.1517  154.7537 H   0  0  0  0  0  0  0  0  0  0  0  0
  148.9032  141.3615  153.1706 H   0  0  0  0  0  0  0  0  0  0  0  0
  152.4666  140.5646  157.5963 H   0  0  0  0  0  0  0  0  0  0  0  0
  151.2222  139.5662  158.3421 H   0  0  0  0  0  0  0  0  0  0  0  0
  153.5291  138.6952  158.8067 H   0  0  0  0  0  0  0  0  0  0  0  0
  152.5282  137.5147  157.9841 H   0  0  0  0  0  0  0  0  0  0  0  0
  154.1530  138.0088  154.8145 H   0  0  0  0  0  0  0  0  0  0  0  0
  152.8938  137.1115  155.6393 H   0  0  0  0  0  0  0  0  0  0  0  0
  151.8802  138.8774  154.2482 H   0  0  0  0  0  0  0  0  0  0  0  0
  152.8759  140.1162  154.9876 H   0  0  0  0  0  0  0  0  0  0  0  0
  149.4179  140.2871  157.9342 H   0  0  0  0  0  0  0  0  0  0  0  0
  1  2  1  0  0  0  0
  1 19  1  0  0  0  0
  1 20  1  0  0  0  0
  2  3  2  0  0  0  0
  2  4  2  0  0  0  0
  2  5  1  0  0  0  0
  5  6  1  0  0  0  0
  6  7  1  0  0  0  0
  6 21  1  0  0  0  0
  6 22  1  0  0  0  0
  7 18  1  0  0  0  0
  7  8  2  0  0  0  0
  8  9  1  0  0  0  0
  8 23  1  0  0  0  0
  9 10  2  0  0  0  0
  9 24  1  0  0  0  0
 10 11  1  0  0  0  0
 11 12  1  0  0  0  0
 11 18  2  0  0  0  0
 12 17  1  0  0  0  0
 12 13  1  0  0  0  0
 13 14  1  0  0  0  0
 13 25  1  0  0  0  0
 13 26  1  0  0  0  0
 14 15  1  0  0  0  0
 14 27  1  0  0  0  0
 14 28  1  0  0  0  0
 15 16  1  0  0  0  0
 16 17  1  0  0  0  0
 16 29  1  0  0  0  0
 16 30  1  0  0  0  0
 17 31  1  0  0  0  0
 17 32  1  0  0  0  0
 18 33  1  0  0  0  0
M  CHG  1   5  -1
M  END
> <s_m_source_file>
AV-unprocessed.smi

> <i_m_source_file_index>
1473

> <i_lp_mmshare_version>
43012

> <i_f3d_flags>
0

> <s_epik_input>
W05IMl1TKD1PKSg9TylbTkhdW0NIMl1jMVtjSF1bY0hdbmMoW2NIXTEpTjJbQ0gyXVtDSDJdT1tDSDJdW0NIMl0y

> <s_epik_cmdline>
J2VwaWtfcHl0aG9uJywgJy1waCcsICc3LjAnLCAnLXRuJywgJzgnLCAnLW1hJywgJzIwMCcsICctbWV0YWxfYmluZGluZycsICctaW1hZScsICc8aW5maWxlLm1hZT4nLCAnLW9tYWUnLCAnPG91dGZpbGUubWFlPic=

> <r_lp_tautomer_probability>
1

> <r_epik_Ionization_Penalty>
1.02326

> <r_epik_Ionization_Penalty_Charging>
0.789613

> <r_epik_Ionization_Penalty_Neutral>
0.233646

> <r_epik_State_Penalty>
0.93706

> <r_epik_Charging_Adjusted_Penalty>
1.72667

> <i_epik_Tot_Q>
-1

> <i_epik_Tot_abs_Q>
1

> <r_epik_Metal_State_Penalty>
0.736197

> <b_epik_Metal_Only>
0

> <s_lp_Force_Field>
OPLS_2005

> <r_lp_Energy>
11.8177

> <b_lp_Chiralities_Consistent>
1

> <s_lp_Variant>
AV-unprocessed.smi:1473-2

> <Gold.Version>
5.8.1

> <Gold.Id.Protein>
6NUR|6NUR_protein|mol2

> <Gold.PLP.Fitness>
37.9867

> <Gold.PLP.PLP>
-22.6500

> <Gold.PLP.part.hbond>
-4.8969

> <Gold.PLP.part.metal>
0.0000

> <Gold.PLP.part.buried>
-2.5678

> <Gold.PLP.part.nonpolar>
-16.8287

> <Gold.PLP.part.repulsive>
1.1079

> <Gold.PLP.ligand.clash>
0.0000

> <Gold.PLP.ligand.torsion>
1.4921

> <Gold.PLP.Chemscore.Hbond>
4.6480

> <Gold.PLP.Chemscore.CHOScore>
1.0000

> <Gold.PLP.Chemscore.Metal>
0.0000

> <Gold.Chemscore.Hbonds>
donor molecule, donor type, donor heavy atom, donor atom, acceptor molecule, acceptor atom, score
      L1  H     1    19       P1  8029  1.00
      P1  H  6933  6944       L1     3  1.00
      P1  H  6934  6946       L1     4  1.00
      P1  H  7989  7998       L1    10  0.93
      P1  H  7997  8009       L1    15  0.53
      L1  C     9    24       P1  7957  1.00

> <Gold.PLP.Chemscore.Internal.Correction>
1.3768

> <Gold.Rescore>
     Score         DG    S(hbond)    S(metal)    S(lipo)     H(rot)  DE(clash)    DE(int)     intcor
     14.25     -15.78       2.94        0.00      45.31       1.88       0.06       1.46       ----

> <Gold.Chemscore.Fitness>
14.2520

> <Gold.Chemscore.DG>
-15.7800

> <Gold.Chemscore.ZeroCoef>
-5.4800

> <Gold.Chemscore.Hbond>
2.9386

> <Gold.Chemscore.Metal>
0.0000

> <Gold.Chemscore.Lipo>
45.3135

> <Gold.Chemscore.Internal_Hbond>
0.0000

> <Gold.Chemscore.DEClash>
0.0645

> <Gold.Chemscore.DEInternal>
1.4635

> <Gold.Chemscore.Rot>
1.8814

> <Gold.Chemscore.Internal.Correction>
   9.000000E+99

> <Gold.Chemscore.Hbonds>
donor molecule, donor type, donor heavy atom, donor atom, acceptor molecule, acceptor atom, score
      L1  H     1    19       P1  8029  0.99
      P1  H  6933  6944       L1     3  0.55
      P1  H  6934  6946       L1     4  0.65
      P1  H  7989  7998       L1    10  0.66
      P1  H  7997  8009       L1    15  0.10

> <Gold.Chemscore.Hbond.Weighted>
-9.8148

> <Gold.Chemscore.Metal.Weighted>
-0.0000

> <Gold.Chemscore.Lipo.Weighted>
-5.3017

> <Gold.Chemscore.Internal_Hbond.Weighted>
0.0000

> <Gold.Chemscore.DEClash.Weighted>
0.0645

> <Gold.Chemscore.DEInternal.Weighted>
1.4635

> <Gold.Chemscore.Rot.Weighted>
4.8165

> <Gold.Chemscore.Internal.Correction.Weighted>
   9.000000E+99

> <Gold.Protein.RotatedTorsions>
[ 6907 6896 6895 6894 ] final -175.31 input  -60.11 | X-H torsion
[ 7974 7965 7964 7962 ] final   11.17 input  175.53 | X-H torsion
[ 8008 7997 7996 7995 ] final  156.16 input   59.86 | X-H torsion
[ 10167 10162 10161 10158 ] final  -34.45 input  -65.29 | X-H torsion
[ 10718 10713 10712 10709 ] final   -8.79 input   66.30 | X-H torsion
[ 10763 10752 10751 10750 ] final   47.55 input  -60.55 | X-H torsion
[ 11005 11000 10999 10996 ] final   58.03 input  -57.11 | X-H torsion

> <Gold.Protein.ActiveResidues>
 VAL166  LYS551  ARG553  GLY616  TRP617  ASP618  TYR619  PRO620  LYS621  CYS622 
 ASP623  PHE694  ASN695  SER759  ASP760  ASP761  ALA762  ILE779  LEU786  VAL792 
 PHE793  MET794  SER795  GLU796  ALA797  LYS798  CYS799  TRP800  GLU811  SER814 

> <Gold.Protein.RotatedAtoms>
  151.5864  133.3371  159.3018 H   0  0  0  0  0  0  0  0  0  0  0  0  # atno 6907 bound_to 6896
  150.8284  134.7529  159.6844 H   0  0  0  0  0  0  0  0  0  0  0  0  # atno 6908 bound_to 6896
  152.4371  134.5671  159.9962 H   0  0  0  0  0  0  0  0  0  0  0  0  # atno 6909 bound_to 6896
  146.2376  139.9526  142.8468 H   0  0  0  0  0  0  0  0  0  0  0  0  # atno 7974 bound_to 7965
  156.2438  140.1920  156.6913 H   0  0  0  0  0  0  0  0  0  0  0  0  # atno 8008 bound_to 7997
  154.6249  140.0603  156.9688 H   0  0  0  0  0  0  0  0  0  0  0  0  # atno 8009 bound_to 7997
  155.1802  140.3275  155.4379 H   0  0  0  0  0  0  0  0  0  0  0  0  # atno 8010 bound_to 7997
  140.7185  143.3547  151.2083 H   0  0  0  0  0  0  0  0  0  0  0  0  # atno 10167 bound_to 10162
  156.6974  130.5083  149.5926 H   0  0  0  0  0  0  0  0  0  0  0  0  # atno 10718 bound_to 10713
  152.9799  135.5973  154.3780 H   0  0  0  0  0  0  0  0  0  0  0  0  # atno 10763 bound_to 10752
  154.3448  135.2767  155.2405 H   0  0  0  0  0  0  0  0  0  0  0  0  # atno 10764 bound_to 10752
  154.4471  135.5999  153.6222 H   0  0  0  0  0  0  0  0  0  0  0  0  # atno 10765 bound_to 10752
  140.0408  134.5876  155.9384 H   0  0  0  0  0  0  0  0  0  0  0  0  # atno 11005 bound_to 11000
  145.1847  140.9784  143.4246 LP  0  0  0  0  0  0  0  0  0  0  0  0  # atno 17320 bound_to 7965
  144.9910  139.3689  143.6214 LP  0  0  0  0  0  0  0  0  0  0  0  0  # atno 17321 bound_to 7965
  139.7086  143.9414  152.2937 LP  0  0  0  0  0  0  0  0  0  0  0  0  # atno 17342 bound_to 10162
  139.9131  144.6844  150.8541 LP  0  0  0  0  0  0  0  0  0  0  0  0  # atno 17343 bound_to 10162
  156.1753  130.6464  151.0887 LP  0  0  0  0  0  0  0  0  0  0  0  0  # atno 17370 bound_to 10713
  157.6986  131.0784  150.6892 LP  0  0  0  0  0  0  0  0  0  0  0  0  # atno 17371 bound_to 10713
  141.1882  133.6562  156.5314 LP  0  0  0  0  0  0  0  0  0  0  0  0  # atno 17394 bound_to 11000
  140.4072  134.7304  157.4815 LP  0  0  0  0  0  0  0  0  0  0  0  0  # atno 17395 bound_to 11000

$$$$
