AV-unprocessed.smi:1218|AV-procd|sdf|5108|dock1
  -GOLD-   22720 4163D 1   1.00000     0.00000
 Structure written by MMmdl.
 45 46  0  0  0  0  0  0  0  0  2 V2000
  146.9215  138.8728  152.7107 C   0  0  0  0  0  0  0  0  0  0  0  0
  147.4759  139.2174  154.1032 C   0  0  0  0  0  0  0  0  0  0  0  0
  146.8525  140.5227  154.6198 C   0  0  0  0  0  0  0  0  0  0  0  0
  149.0168  139.3165  154.1029 C   0  0  0  0  0  0  0  0  0  0  0  0
  149.6888  137.9943  154.2317 N   0  3  1  0  0  0  0  0  0  0  0  0
  151.0974  137.9978  153.7670 C   0  0  0  0  0  0  0  0  0  0  0  0
  152.0274  138.6316  154.8173 C   0  0  0  0  0  0  0  0  0  0  0  0
  151.8924  137.9343  156.0495 O   0  0  0  0  0  0  0  0  0  0  0  0
  150.5727  138.0148  156.5805 C   0  0  2  0  0  0  0  0  0  0  0  0
  150.5501  137.2920  157.9392 C   0  0  0  0  0  0  0  0  0  0  0  0
  149.2047  137.2188  158.4989 N   0  0  0  0  0  0  0  0  0  0  0  0
  148.5581  136.0828  158.8024 C   0  0  0  0  0  0  0  0  0  0  0  0
  149.0421  134.9650  158.6183 O   0  0  0  0  0  0  0  0  0  0  0  0
  147.1597  136.2448  159.4091 C   0  0  0  0  0  0  0  0  0  0  0  0
  147.1450  135.9986  160.8417 N   0  0  0  0  0  0  0  0  0  0  0  0
  146.6913  134.8837  161.5164 C   0  0  0  0  0  0  0  0  0  0  0  0
  146.8784  135.1107  162.8498 C   0  0  0  0  0  0  0  0  0  0  0  0
  147.4584  136.4095  162.8932 C   0  0  0  0  0  0  0  0  0  0  0  0
  147.6154  136.9387  161.6905 N   0  0  0  0  0  0  0  0  0  0  0  0
  149.5916  137.3698  155.5765 C   0  0  0  0  0  0  0  0  0  0  0  0
  147.1954  139.6301  151.9754 H   0  0  0  0  0  0  0  0  0  0  0  0
  145.8332  138.8069  152.7282 H   0  0  0  0  0  0  0  0  0  0  0  0
  147.2972  137.9126  152.3562 H   0  0  0  0  0  0  0  0  0  0  0  0
  147.1652  138.4317  154.7908 H   0  0  0  0  0  0  0  0  0  0  0  0
  147.1104  141.3673  153.9801 H   0  0  0  0  0  0  0  0  0  0  0  0
  147.1977  140.7516  155.6286 H   0  0  0  0  0  0  0  0  0  0  0  0
  145.7650  140.4522  154.6555 H   0  0  0  0  0  0  0  0  0  0  0  0
  149.3238  139.7868  153.1676 H   0  0  0  0  0  0  0  0  0  0  0  0
  149.3532  139.9853  154.8950 H   0  0  0  0  0  0  0  0  0  0  0  0
  151.4032  136.9654  153.5923 H   0  0  0  0  0  0  0  0  0  0  0  0
  151.1874  138.5083  152.8077 H   0  0  0  0  0  0  0  0  0  0  0  0
  153.0643  138.5628  154.4884 H   0  0  0  0  0  0  0  0  0  0  0  0
  151.8090  139.6917  154.9551 H   0  0  0  0  0  0  0  0  0  0  0  0
  150.3087  139.0617  156.7336 H   0  0  0  0  0  0  0  0  0  0  0  0
  150.9542  136.2832  157.8382 H   0  0  0  0  0  0  0  0  0  0  0  0
  151.1919  137.8113  158.6516 H   0  0  0  0  0  0  0  0  0  0  0  0
  148.7375  138.0954  158.6811 H   0  0  0  0  0  0  0  0  0  0  0  0
  146.7965  137.2542  159.2095 H   0  0  0  0  0  0  0  0  0  0  0  0
  146.4616  135.5524  158.9363 H   0  0  0  0  0  0  0  0  0  0  0  0
  146.2785  134.0317  160.9965 H   0  0  0  0  0  0  0  0  0  0  0  0
  146.6374  134.4504  163.6696 H   0  0  0  0  0  0  0  0  0  0  0  0
  147.7672  136.9800  163.7566 H   0  0  0  0  0  0  0  0  0  0  0  0
  148.5719  137.4117  155.9568 H   0  0  0  0  0  0  0  0  0  0  0  0
  149.8297  136.3105  155.4712 H   0  0  0  0  0  0  0  0  0  0  0  0
  149.1916  137.3876  153.5951 H   0  0  0  0  0  0  0  0  0  0  0  0
  1  2  1  0  0  0  0
  1 21  1  0  0  0  0
  1 22  1  0  0  0  0
  1 23  1  0  0  0  0
  2  3  1  0  0  0  0
  2  4  1  0  0  0  0
  2 24  1  0  0  0  0
  3 25  1  0  0  0  0
  3 26  1  0  0  0  0
  3 27  1  0  0  0  0
  4  5  1  0  0  0  0
  4 28  1  0  0  0  0
  4 29  1  0  0  0  0
  5 20  1  0  0  0  0
  5  6  1  0  0  0  0
  5 45  1  0  0  0  0
  6  7  1  0  0  0  0
  6 30  1  0  0  0  0
  6 31  1  0  0  0  0
  7  8  1  0  0  0  0
  7 32  1  0  0  0  0
  7 33  1  0  0  0  0
  8  9  1  0  0  0  0
  9 10  1  0  0  0  0
  9 20  1  0  0  0  0
  9 34  1  0  0  0  0
 10 11  1  0  0  0  0
 10 35  1  0  0  0  0
 10 36  1  0  0  0  0
 11 12  1  0  0  0  0
 11 37  1  0  0  0  0
 12 13  2  0  0  0  0
 12 14  1  0  0  0  0
 14 15  1  0  0  0  0
 14 38  1  0  0  0  0
 14 39  1  0  0  0  0
 15 19  1  0  0  0  0
 15 16  1  0  0  0  0
 16 17  2  0  0  0  0
 16 40  1  0  0  0  0
 17 18  1  0  0  0  0
 17 41  1  0  0  0  0
 18 19  2  0  0  0  0
 18 42  1  0  0  0  0
 20 43  1  0  0  0  0
 20 44  1  0  0  0  0
M  CHG  1   5   1
M  END
> <s_m_source_file>
AV-unprocessed.smi

> <i_m_source_file_index>
1218

> <i_lp_mmshare_version>
43012

> <i_f3d_flags>
0

> <s_epik_input>
W0NIM11bQ0hdKFtDSDNdKVtDSDJdTjFbQ0gyXVtDSDJdT1tDQEhdKFtDSDJdMSlbQ0gyXVtOSF1DKD1PKVtDSDJdbjJbY0hdW2NIXVtjSF1uMg==

> <s_epik_cmdline>
J2VwaWtfcHl0aG9uJywgJy1waCcsICc3LjAnLCAnLXRuJywgJzgnLCAnLW1hJywgJzIwMCcsICctbWV0YWxfYmluZGluZycsICctaW1hZScsICc8aW5maWxlLm1hZT4nLCAnLW9tYWUnLCAnPG91dGZpbGUubWFlPic=

> <r_lp_tautomer_probability>
1

> <r_epik_Ionization_Penalty>
0.0995066

> <r_epik_Ionization_Penalty_Charging>
0.0994921

> <r_epik_Ionization_Penalty_Neutral>
1.44634e-05

> <r_epik_State_Penalty>
0.0895432

> <r_epik_Charging_Adjusted_Penalty>
0.189035

> <i_epik_Tot_Q>
1

> <i_epik_Tot_abs_Q>
1

> <r_epik_Metal_State_Penalty>
0.0895432

> <b_epik_Metal_Only>
0

> <s_lp_Force_Field>
OPLS_2005

> <r_lp_Energy>
21.49

> <b_lp_Chiralities_Consistent>
1

> <s_lp_Variant>
AV-unprocessed.smi:1218-3

> <Gold.Version>
5.8.1

> <Gold.Id.Protein>
6NUR|6NUR_protein|mol2

> <Gold.PLP.Fitness>
43.8717

> <Gold.PLP.PLP>
-31.6450

> <Gold.PLP.part.hbond>
-4.0000

> <Gold.PLP.part.metal>
0.0000

> <Gold.PLP.part.buried>
-1.3237

> <Gold.PLP.part.nonpolar>
-25.9320

> <Gold.PLP.part.repulsive>
0.1759

> <Gold.PLP.ligand.clash>
0.0000

> <Gold.PLP.ligand.torsion>
0.8307

> <Gold.PLP.Chemscore.Hbond>
4.5885

> <Gold.PLP.Chemscore.CHOScore>
0.0000

> <Gold.PLP.Chemscore.Metal>
0.0000

> <Gold.Chemscore.Hbonds>
donor molecule, donor type, donor heavy atom, donor atom, acceptor molecule, acceptor atom, score
      L1  H     5    45       P1  7948  1.79
      P1  H  6896  6907       L1    13  1.00
      P1  H  6931  6943       L1    19  1.00
      P1  H  6934  6947       L1    19  0.35

> <Gold.PLP.Chemscore.Internal.Correction>
0.1225

> <Gold.Rescore>
     Score         DG    S(hbond)    S(metal)    S(lipo)     H(rot)  DE(clash)    DE(int)     intcor
     18.09     -19.19       2.79        0.00      80.51       1.96       0.75       0.36       ----

> <Gold.Chemscore.Fitness>
18.0859

> <Gold.Chemscore.DG>
-19.1907

> <Gold.Chemscore.ZeroCoef>
-5.4800

> <Gold.Chemscore.Hbond>
2.7888

> <Gold.Chemscore.Metal>
0.0000

> <Gold.Chemscore.Lipo>
80.5114

> <Gold.Chemscore.Internal_Hbond>
0.0000

> <Gold.Chemscore.DEClash>
0.7488

> <Gold.Chemscore.DEInternal>
0.3561

> <Gold.Chemscore.Rot>
1.9624

> <Gold.Chemscore.Internal.Correction>
   9.000000E+99

> <Gold.Chemscore.Hbonds>
donor molecule, donor type, donor heavy atom, donor atom, acceptor molecule, acceptor atom, score
      L1  H     5    45       P1  7948  0.83
      P1  H  6896  6907       L1    13  0.94
      P1  H  6931  6943       L1    19  0.44
      P1  H  6934  6947       L1    19  0.28

> <Gold.Chemscore.Hbond.Weighted>
-9.3146

> <Gold.Chemscore.Metal.Weighted>
-0.0000

> <Gold.Chemscore.Lipo.Weighted>
-9.4198

> <Gold.Chemscore.Internal_Hbond.Weighted>
0.0000

> <Gold.Chemscore.DEClash.Weighted>
0.7488

> <Gold.Chemscore.DEInternal.Weighted>
0.3561

> <Gold.Chemscore.Rot.Weighted>
5.0237

> <Gold.Chemscore.Internal.Correction.Weighted>
   9.000000E+99

> <Gold.Protein.RotatedTorsions>
[ 6907 6896 6895 6894 ] final  -71.51 input  -60.11 | X-H torsion
[ 7974 7965 7964 7962 ] final -146.21 input  175.53 | X-H torsion
[ 8008 7997 7996 7995 ] final  107.96 input   59.86 | X-H torsion
[ 10167 10162 10161 10158 ] final  -20.61 input  -65.29 | X-H torsion
[ 10718 10713 10712 10709 ] final  -36.49 input   66.30 | X-H torsion
[ 10763 10752 10751 10750 ] final    2.15 input  -60.55 | X-H torsion
[ 11005 11000 10999 10996 ] final  129.82 input  -57.11 | X-H torsion

> <Gold.Protein.ActiveResidues>
 VAL166  LYS551  ARG553  GLY616  TRP617  ASP618  TYR619  PRO620  LYS621  CYS622 
 ASP623  PHE694  ASN695  SER759  ASP760  ASP761  ALA762  ILE779  LEU786  VAL792 
 PHE793  MET794  SER795  GLU796  ALA797  LYS798  CYS799  TRP800  GLU811  SER814 

> <Gold.Protein.RotatedAtoms>
  150.7209  134.5298  159.5694 H   0  0  0  0  0  0  0  0  0  0  0  0  # atno 6907 bound_to 6896
  152.2833  134.7801  160.0401 H   0  0  0  0  0  0  0  0  0  0  0  0  # atno 6908 bound_to 6896
  151.8439  133.3393  159.3688 H   0  0  0  0  0  0  0  0  0  0  0  0  # atno 6909 bound_to 6896
  144.8175  140.5486  143.5601 H   0  0  0  0  0  0  0  0  0  0  0  0  # atno 7974 bound_to 7965
  156.1866  140.3085  155.9250 H   0  0  0  0  0  0  0  0  0  0  0  0  # atno 8008 bound_to 7997
  155.3268  140.0458  157.3058 H   0  0  0  0  0  0  0  0  0  0  0  0  # atno 8009 bound_to 7997
  154.5403  140.2259  155.8663 H   0  0  0  0  0  0  0  0  0  0  0  0  # atno 8010 bound_to 7997
  140.7277  143.4706  151.0252 H   0  0  0  0  0  0  0  0  0  0  0  0  # atno 10167 bound_to 10162
  156.3263  130.4273  149.7914 H   0  0  0  0  0  0  0  0  0  0  0  0  # atno 10718 bound_to 10713
  153.2991  135.6954  153.7220 H   0  0  0  0  0  0  0  0  0  0  0  0  # atno 10763 bound_to 10752
  153.6141  135.3439  155.2989 H   0  0  0  0  0  0  0  0  0  0  0  0  # atno 10764 bound_to 10752
  154.8545  135.4370  154.2096 H   0  0  0  0  0  0  0  0  0  0  0  0  # atno 10765 bound_to 10752
  139.9637  134.9596  156.9203 H   0  0  0  0  0  0  0  0  0  0  0  0  # atno 11005 bound_to 11000
  145.5181  139.1477  143.3567 LP  0  0  0  0  0  0  0  0  0  0  0  0  # atno 17320 bound_to 7965
  146.2479  140.5322  142.8906 LP  0  0  0  0  0  0  0  0  0  0  0  0  # atno 17321 bound_to 7965
  139.8398  143.7579  152.3180 LP  0  0  0  0  0  0  0  0  0  0  0  0  # atno 17342 bound_to 10162
  139.7724  144.7472  151.0205 LP  0  0  0  0  0  0  0  0  0  0  0  0  # atno 17343 bound_to 10162
  156.5203  130.8212  151.3201 LP  0  0  0  0  0  0  0  0  0  0  0  0  # atno 17370 bound_to 10713
  157.7422  130.9885  150.2498 LP  0  0  0  0  0  0  0  0  0  0  0  0  # atno 17371 bound_to 10713
  140.5444  134.0688  155.7351 LP  0  0  0  0  0  0  0  0  0  0  0  0  # atno 17394 bound_to 11000
  141.1315  133.9293  157.2524 LP  0  0  0  0  0  0  0  0  0  0  0  0  # atno 17395 bound_to 11000

$$$$
