AV-unprocessed.smi:3310|AV-procd|sdf|12717|dock3
  -GOLD-   2272019 53D 1   1.00000     0.00000
 Structure written by MMmdl.
 45 46  0  0  0  0  0  0  0  0  2 V2000
  146.5232  142.2507  153.8869 C   0  0  0  0  0  0  0  0  0  0  0  0
  147.4177  141.8831  155.0757 C   0  0  0  0  0  0  0  0  0  0  0  0
  148.4011  140.8039  154.7438 C   0  0  0  0  0  0  0  0  0  0  0  0
  149.7241  140.9459  154.8879 N   0  0  0  0  0  0  0  0  0  0  0  0
  150.2759  139.7545  154.4622 N   0  0  0  0  0  0  0  0  0  0  0  0
  149.2318  139.0142  154.0948 C   0  0  0  0  0  0  0  0  0  0  0  0
  148.0361  139.6056  154.2404 N   0  0  0  0  0  0  0  0  0  0  0  0
  146.7245  139.0672  153.9304 C   0  0  0  0  0  0  0  0  0  0  0  0
  146.6703  138.5052  152.5033 C   0  0  0  0  0  0  0  0  0  0  0  0
  146.5759  137.0329  152.5166 N   0  3  0  0  0  0  0  0  0  0  0  0
  145.5933  136.4857  151.5596 C   0  0  0  0  0  0  0  0  0  0  0  0
  145.2992  134.9990  151.8331 C   0  0  2  0  0  0  0  0  0  0  0  0
  146.6000  134.1715  151.8291 C   0  0  0  0  0  0  0  0  0  0  0  0
  146.3299  132.6814  152.0937 C   0  0  0  0  0  0  0  0  0  0  0  0
  145.3322  132.0975  151.0766 C   0  0  1  0  0  0  0  0  0  0  0  0
  145.0599  130.6103  151.3439 C   0  0  0  0  0  0  0  0  0  0  0  0
  144.0302  132.9192  151.0776 C   0  0  0  0  0  0  0  0  0  0  0  0
  144.3013  134.4093  150.8133 C   0  0  0  0  0  0  0  0  0  0  0  0
  145.8284  143.0468  154.1547 H   0  0  0  0  0  0  0  0  0  0  0  0
  145.9366  141.3939  153.5547 H   0  0  0  0  0  0  0  0  0  0  0  0
  147.1171  142.5983  153.0411 H   0  0  0  0  0  0  0  0  0  0  0  0
  147.9699  142.7654  155.4016 H   0  0  0  0  0  0  0  0  0  0  0  0
  146.8072  141.5777  155.9253 H   0  0  0  0  0  0  0  0  0  0  0  0
  149.3429  138.0120  153.7073 H   0  0  0  0  0  0  0  0  0  0  0  0
  146.4740  138.2976  154.6613 H   0  0  0  0  0  0  0  0  0  0  0  0
  145.9898  139.8645  154.0514 H   0  0  0  0  0  0  0  0  0  0  0  0
  145.8074  138.9135  151.9751 H   0  0  0  0  0  0  0  0  0  0  0  0
  147.5595  138.8031  151.9462 H   0  0  0  0  0  0  0  0  0  0  0  0
  147.4844  136.6477  152.3005 H   0  0  0  0  0  0  0  0  0  0  0  0
  144.6711  137.0667  151.6060 H   0  0  0  0  0  0  0  0  0  0  0  0
  145.9945  136.6057  150.5521 H   0  0  0  0  0  0  0  0  0  0  0  0
  144.8599  134.9181  152.8290 H   0  0  0  0  0  0  0  0  0  0  0  0
  147.1064  134.2825  150.8689 H   0  0  0  0  0  0  0  0  0  0  0  0
  147.2879  134.5530  152.5845 H   0  0  0  0  0  0  0  0  0  0  0  0
  147.2689  132.1283  152.0534 H   0  0  0  0  0  0  0  0  0  0  0  0
  145.9421  132.5562  153.1058 H   0  0  0  0  0  0  0  0  0  0  0  0
  145.7788  132.1753  150.0842 H   0  0  0  0  0  0  0  0  0  0  0  0
  144.6179  130.4580  152.3290 H   0  0  0  0  0  0  0  0  0  0  0  0
  145.9808  130.0283  151.2988 H   0  0  0  0  0  0  0  0  0  0  0  0
  144.3740  130.1974  150.6038 H   0  0  0  0  0  0  0  0  0  0  0  0
  143.3462  132.5338  150.3208 H   0  0  0  0  0  0  0  0  0  0  0  0
  143.5227  132.8068  152.0367 H   0  0  0  0  0  0  0  0  0  0  0  0
  143.3577  134.9542  150.8466 H   0  0  0  0  0  0  0  0  0  0  0  0
  144.6907  134.5319  149.8017 H   0  0  0  0  0  0  0  0  0  0  0  0
  146.3128  136.7379  153.4461 H   0  0  0  0  0  0  0  0  0  0  0  0
  1  2  1  0  0  0  0
  1 19  1  0  0  0  0
  1 20  1  0  0  0  0
  1 21  1  0  0  0  0
  2  3  1  0  0  0  0
  2 22  1  0  0  0  0
  2 23  1  0  0  0  0
  3  7  1  0  0  0  0
  3  4  2  0  0  0  0
  4  5  1  0  0  0  0
  5  6  2  0  0  0  0
  6  7  1  0  0  0  0
  6 24  1  0  0  0  0
  7  8  1  0  0  0  0
  8  9  1  0  0  0  0
  8 25  1  0  0  0  0
  8 26  1  0  0  0  0
  9 10  1  0  0  0  0
  9 27  1  0  0  0  0
  9 28  1  0  0  0  0
 10 11  1  0  0  0  0
 10 29  1  0  0  0  0
 10 45  1  0  0  0  0
 11 12  1  0  0  0  0
 11 30  1  0  0  0  0
 11 31  1  0  0  0  0
 12 18  1  0  0  0  0
 12 13  1  0  0  0  0
 12 32  1  0  0  0  0
 13 14  1  0  0  0  0
 13 33  1  0  0  0  0
 13 34  1  0  0  0  0
 14 15  1  0  0  0  0
 14 35  1  0  0  0  0
 14 36  1  0  0  0  0
 15 16  1  0  0  0  0
 15 17  1  0  0  0  0
 15 37  1  0  0  0  0
 16 38  1  0  0  0  0
 16 39  1  0  0  0  0
 16 40  1  0  0  0  0
 17 18  1  0  0  0  0
 17 41  1  0  0  0  0
 17 42  1  0  0  0  0
 18 43  1  0  0  0  0
 18 44  1  0  0  0  0
M  CHG  1  10   1
M  END
> <s_m_source_file>
AV-unprocessed.smi

> <i_m_source_file_index>
3310

> <i_lp_mmshare_version>
43012

> <i_f3d_flags>
0

> <s_epik_input>
W0NIM11bQ0gyXWMxbm5bY0hdbjFbQ0gyXVtDSDJdW05IXVtDSDJdW0NAQEhdMltDSDJdW0NIMl1bQ0BASF0oW0NIM10pW0NIMl1bQ0gyXTI=

> <s_epik_cmdline>
J2VwaWtfcHl0aG9uJywgJy1waCcsICc3LjAnLCAnLXRuJywgJzgnLCAnLW1hJywgJzIwMCcsICctbWV0YWxfYmluZGluZycsICctaW1hZScsICc8aW5maWxlLm1hZT4nLCAnLW9tYWUnLCAnPG91dGZpbGUubWFlPic=

> <r_lp_tautomer_probability>
1

> <r_epik_Ionization_Penalty>
0.00127868

> <r_epik_Ionization_Penalty_Charging>
0.00126792

> <r_epik_Ionization_Penalty_Neutral>
1.07546e-05

> <r_epik_State_Penalty>
-0

> <r_epik_Charging_Adjusted_Penalty>
0.00126792

> <i_epik_Tot_Q>
1

> <i_epik_Tot_abs_Q>
1

> <r_epik_Metal_State_Penalty>
-0

> <b_epik_Metal_Only>
0

> <s_lp_Force_Field>
OPLS_2005

> <r_lp_Energy>
15.677

> <b_lp_Chiralities_Consistent>
1

> <s_lp_Variant>
AV-unprocessed.smi:3310-1

> <Gold.Version>
5.8.1

> <Gold.Id.Protein>
6NUR|6NUR_protein|mol2

> <Gold.PLP.Fitness>
44.7374

> <Gold.PLP.PLP>
-35.8707

> <Gold.PLP.part.hbond>
-3.0000

> <Gold.PLP.part.metal>
0.0000

> <Gold.PLP.part.buried>
-1.8073

> <Gold.PLP.part.nonpolar>
-31.6850

> <Gold.PLP.part.repulsive>
0.4161

> <Gold.PLP.ligand.clash>
0.0000

> <Gold.PLP.ligand.torsion>
0.8012

> <Gold.PLP.Chemscore.Hbond>
2.4500

> <Gold.PLP.Chemscore.CHOScore>
1.0000

> <Gold.PLP.Chemscore.Metal>
0.0000

> <Gold.Chemscore.Hbonds>
donor molecule, donor type, donor heavy atom, donor atom, acceptor molecule, acceptor atom, score
      L1  H    10    29       P1  7948  2.00
      P1  H  7989  7998       L1     5  0.35
      L1  C     6    24       P1  7948  0.91

> <Gold.PLP.Chemscore.Internal.Correction>
0.1192

> <Gold.Rescore>
     Score         DG    S(hbond)    S(metal)    S(lipo)     H(rot)  DE(clash)    DE(int)     intcor
     11.89     -12.70       1.00        0.00      77.71       2.03       0.05       0.77       ----

> <Gold.Chemscore.Fitness>
11.8869

> <Gold.Chemscore.DG>
-12.7048

> <Gold.Chemscore.ZeroCoef>
-5.4800

> <Gold.Chemscore.Hbond>
0.9966

> <Gold.Chemscore.Metal>
0.0000

> <Gold.Chemscore.Lipo>
77.7077

> <Gold.Chemscore.Internal_Hbond>
0.0000

> <Gold.Chemscore.DEClash>
0.0495

> <Gold.Chemscore.DEInternal>
0.7685

> <Gold.Chemscore.Rot>
2.0295

> <Gold.Chemscore.Internal.Correction>
   9.000000E+99

> <Gold.Chemscore.Hbonds>
donor molecule, donor type, donor heavy atom, donor atom, acceptor molecule, acceptor atom, score
      L1  H    10    29       P1  7948  0.97
      P1  H  7989  7998       L1     5  0.01

> <Gold.Chemscore.Hbond.Weighted>
-3.3286

> <Gold.Chemscore.Metal.Weighted>
-0.0000

> <Gold.Chemscore.Lipo.Weighted>
-9.0918

> <Gold.Chemscore.Internal_Hbond.Weighted>
0.0000

> <Gold.Chemscore.DEClash.Weighted>
0.0495

> <Gold.Chemscore.DEInternal.Weighted>
0.7685

> <Gold.Chemscore.Rot.Weighted>
5.1956

> <Gold.Chemscore.Internal.Correction.Weighted>
   9.000000E+99

> <Gold.Protein.RotatedTorsions>
[ 6907 6896 6895 6894 ] final   53.61 input  -60.11 | X-H torsion
[ 7974 7965 7964 7962 ] final  121.40 input  175.53 | X-H torsion
[ 8008 7997 7996 7995 ] final  165.33 input   59.86 | X-H torsion
[ 10167 10162 10161 10158 ] final -134.04 input  -65.29 | X-H torsion
[ 10718 10713 10712 10709 ] final  149.69 input   66.30 | X-H torsion
[ 10763 10752 10751 10750 ] final   83.21 input  -60.55 | X-H torsion
[ 11005 11000 10999 10996 ] final   62.67 input  -57.11 | X-H torsion

> <Gold.Protein.ActiveResidues>
 VAL166  LYS551  ARG553  GLY616  TRP617  ASP618  TYR619  PRO620  LYS621  CYS622 
 ASP623  PHE694  ASN695  SER759  ASP760  ASP761  ALA762  ILE779  LEU786  VAL792 
 PHE793  MET794  SER795  GLU796  ALA797  LYS798  CYS799  TRP800  GLU811  SER814 

> <Gold.Protein.RotatedAtoms>
  152.3355  134.7204  160.0277 H   0  0  0  0  0  0  0  0  0  0  0  0  # atno 6907 bound_to 6896
  151.7606  133.3328  159.3425 H   0  0  0  0  0  0  0  0  0  0  0  0  # atno 6908 bound_to 6896
  150.7448  134.6041  159.6096 H   0  0  0  0  0  0  0  0  0  0  0  0  # atno 6909 bound_to 6896
  145.1197  139.3397  143.4720 H   0  0  0  0  0  0  0  0  0  0  0  0  # atno 7974 bound_to 7965
  156.1809  140.1673  156.8276 H   0  0  0  0  0  0  0  0  0  0  0  0  # atno 8008 bound_to 7997
  154.5359  140.0747  156.8459 H   0  0  0  0  0  0  0  0  0  0  0  0  # atno 8009 bound_to 7997
  155.3313  140.3379  155.4242 H   0  0  0  0  0  0  0  0  0  0  0  0  # atno 8010 bound_to 7997
  139.8921  143.6709  152.2610 H   0  0  0  0  0  0  0  0  0  0  0  0  # atno 10167 bound_to 10162
  157.2930  131.0857  151.1448 H   0  0  0  0  0  0  0  0  0  0  0  0  # atno 10718 bound_to 10713
  153.1271  135.4700  154.9289 H   0  0  0  0  0  0  0  0  0  0  0  0  # atno 10763 bound_to 10752
  154.7630  135.3137  154.8344 H   0  0  0  0  0  0  0  0  0  0  0  0  # atno 10764 bound_to 10752
  153.8895  135.6886  153.4815 H   0  0  0  0  0  0  0  0  0  0  0  0  # atno 10765 bound_to 10752
  140.0076  134.6345  155.9831 H   0  0  0  0  0  0  0  0  0  0  0  0  # atno 11005 bound_to 11000
  146.3521  140.1151  142.8602 LP  0  0  0  0  0  0  0  0  0  0  0  0  # atno 17320 bound_to 7965
  145.0754  140.9184  143.4857 LP  0  0  0  0  0  0  0  0  0  0  0  0  # atno 17321 bound_to 7965
  139.7100  144.7622  151.1128 LP  0  0  0  0  0  0  0  0  0  0  0  0  # atno 17342 bound_to 10162
  140.7724  143.5343  150.9386 LP  0  0  0  0  0  0  0  0  0  0  0  0  # atno 17343 bound_to 10162
  157.2837  130.6762  149.6079 LP  0  0  0  0  0  0  0  0  0  0  0  0  # atno 17370 bound_to 10713
  155.9668  130.4442  150.5451 LP  0  0  0  0  0  0  0  0  0  0  0  0  # atno 17371 bound_to 10713
  141.1688  133.6537  156.4576 LP  0  0  0  0  0  0  0  0  0  0  0  0  # atno 17394 bound_to 11000
  140.4613  134.6839  157.5086 LP  0  0  0  0  0  0  0  0  0  0  0  0  # atno 17395 bound_to 11000

$$$$
