AV-unprocessed.smi:667|AV-procd|sdf|3256|dock6
  -GOLD-   22720 0203D 1   1.00000     0.00000
 Structure written by MMmdl.
 48 49  0  0  0  0  0  0  0  0  1 V2000
  145.7821  144.2842  162.9244 C   0  0  0  0  0  0  0  0  0  0  0  0
  145.2097  145.0210  161.7474 C   0  0  0  0  0  0  0  0  0  0  0  0
  143.9452  144.8228  161.4142 N   0  0  0  0  0  0  0  0  0  0  0  0
  143.7435  145.6132  160.3409 N   0  0  0  0  0  0  0  0  0  0  0  0
  142.4389  145.6332  159.7084 C   0  0  0  0  0  0  0  0  0  0  0  0
  144.8826  146.3157  159.9979 C   0  0  0  0  0  0  0  0  0  0  0  0
  144.9194  147.2686  158.8465 C   0  0  0  0  0  0  0  0  0  0  0  0
  145.8617  145.9492  160.8827 C   0  0  0  0  0  0  0  0  0  0  0  0
  147.2972  146.4089  160.9408 C   0  0  0  0  0  0  0  0  0  0  0  0
  148.2398  145.2037  160.9135 C   0  0  0  0  0  0  0  0  0  0  0  0
  148.3890  144.5105  161.9204 O   0  0  0  0  0  0  0  0  0  0  0  0
  148.8653  144.9611  159.7513 N   0  0  0  0  0  0  0  0  0  0  0  0
  149.7720  143.8449  159.5058 C   0  0  0  0  0  0  0  0  0  0  0  0
  150.6860  144.1008  158.2821 C   0  0  1  0  0  0  0  0  0  0  0  0
  151.8083  145.0835  158.5935 C   0  0  0  0  0  0  0  0  0  0  0  0
  152.9447  144.1907  159.1007 C   0  0  0  0  0  0  0  0  0  0  0  0
  152.5674  142.8540  158.7850 O   0  0  0  0  0  0  0  0  0  0  0  0
  151.5129  142.8839  157.8331 C   0  0  1  0  0  0  0  0  0  0  0  0
  150.7889  141.5215  157.7434 C   0  0  0  0  0  0  0  0  0  0  0  0
  151.7841  140.3890  157.4428 C   0  0  0  0  0  0  0  0  0  0  0  0
  149.6743  141.5365  156.6826 C   0  0  0  0  0  0  0  0  0  0  0  0
  146.4771  144.9128  163.4801 H   0  0  0  0  0  0  0  0  0  0  0  0
  146.3233  143.3950  162.6012 H   0  0  0  0  0  0  0  0  0  0  0  0
  145.0023  143.9673  163.6178 H   0  0  0  0  0  0  0  0  0  0  0  0
  142.5405  145.3849  158.6517 H   0  0  0  0  0  0  0  0  0  0  0  0
  142.0017  146.6277  159.8010 H   0  0  0  0  0  0  0  0  0  0  0  0
  141.7714  144.9089  160.1772 H   0  0  0  0  0  0  0  0  0  0  0  0
  145.7554  147.9619  158.9376 H   0  0  0  0  0  0  0  0  0  0  0  0
  144.0064  147.8618  158.7959 H   0  0  0  0  0  0  0  0  0  0  0  0
  145.0275  146.7309  157.9045 H   0  0  0  0  0  0  0  0  0  0  0  0
  147.5251  147.0778  160.1098 H   0  0  0  0  0  0  0  0  0  0  0  0
  147.4977  146.9804  161.8472 H   0  0  0  0  0  0  0  0  0  0  0  0
  148.6871  145.5835  158.9765 H   0  0  0  0  0  0  0  0  0  0  0  0
  150.3720  143.6885  160.4027 H   0  0  0  0  0  0  0  0  0  0  0  0
  149.1818  142.9380  159.3737 H   0  0  0  0  0  0  0  0  0  0  0  0
  150.0776  144.4670  157.4539 H   0  0  0  0  0  0  0  0  0  0  0  0
  152.1196  145.5841  157.6756 H   0  0  0  0  0  0  0  0  0  0  0  0
  151.5352  145.8582  159.3097 H   0  0  0  0  0  0  0  0  0  0  0  0
  153.8905  144.4447  158.6209 H   0  0  0  0  0  0  0  0  0  0  0  0
  153.0758  144.2806  160.1794 H   0  0  0  0  0  0  0  0  0  0  0  0
  151.9577  143.1071  156.8608 H   0  0  0  0  0  0  0  0  0  0  0  0
  150.3362  141.2982  158.7096 H   0  0  0  0  0  0  0  0  0  0  0  0
  152.2893  140.5474  156.4893 H   0  0  0  0  0  0  0  0  0  0  0  0
  151.2788  139.4241  157.3956 H   0  0  0  0  0  0  0  0  0  0  0  0
  152.5491  140.3169  158.2165 H   0  0  0  0  0  0  0  0  0  0  0  0
  150.0753  141.7523  155.6920 H   0  0  0  0  0  0  0  0  0  0  0  0
  148.9157  142.2873  156.9024 H   0  0  0  0  0  0  0  0  0  0  0  0
  149.1679  140.5725  156.6322 H   0  0  0  0  0  0  0  0  0  0  0  0
  1  2  1  0  0  0  0
  1 22  1  0  0  0  0
  1 23  1  0  0  0  0
  1 24  1  0  0  0  0
  2  8  1  0  0  0  0
  2  3  2  0  0  0  0
  3  4  1  0  0  0  0
  4  5  1  0  0  0  0
  4  6  1  0  0  0  0
  5 25  1  0  0  0  0
  5 26  1  0  0  0  0
  5 27  1  0  0  0  0
  6  7  1  0  0  0  0
  6  8  2  0  0  0  0
  7 28  1  0  0  0  0
  7 29  1  0  0  0  0
  7 30  1  0  0  0  0
  8  9  1  0  0  0  0
  9 10  1  0  0  0  0
  9 31  1  0  0  0  0
  9 32  1  0  0  0  0
 10 11  2  0  0  0  0
 10 12  1  0  0  0  0
 12 13  1  0  0  0  0
 12 33  1  0  0  0  0
 13 14  1  0  0  0  0
 13 34  1  0  0  0  0
 13 35  1  0  0  0  0
 14 18  1  0  0  0  0
 14 15  1  0  0  0  0
 14 36  1  0  0  0  0
 15 16  1  0  0  0  0
 15 37  1  0  0  0  0
 15 38  1  0  0  0  0
 16 17  1  0  0  0  0
 16 39  1  0  0  0  0
 16 40  1  0  0  0  0
 17 18  1  0  0  0  0
 18 19  1  0  0  0  0
 18 41  1  0  0  0  0
 19 20  1  0  0  0  0
 19 21  1  0  0  0  0
 19 42  1  0  0  0  0
 20 43  1  0  0  0  0
 20 44  1  0  0  0  0
 20 45  1  0  0  0  0
 21 46  1  0  0  0  0
 21 47  1  0  0  0  0
 21 48  1  0  0  0  0
M  END
> <s_m_source_file>
AV-unprocessed.smi

> <i_m_source_file_index>
667

> <i_lp_mmshare_version>
43012

> <i_f3d_flags>
0

> <s_epik_input>
W0NIM11jMW5uKFtDSDNdKWMoW0NIM10pYzFbQ0gyXUMoPU8pW05IXVtDSDJdW0NAQEhdMltDSDJdW0NIMl1PW0NASF0yW0NIXShbQ0gzXSlbQ0gzXQ==

> <s_epik_cmdline>
J2VwaWtfcHl0aG9uJywgJy1waCcsICc3LjAnLCAnLXRuJywgJzgnLCAnLW1hJywgJzIwMCcsICctbWV0YWxfYmluZGluZycsICctaW1hZScsICc8aW5maWxlLm1hZT4nLCAnLW9tYWUnLCAnPG91dGZpbGUubWFlPic=

> <r_lp_tautomer_probability>
1

> <r_epik_Ionization_Penalty>
0.00315488

> <r_epik_Ionization_Penalty_Charging>
0

> <r_epik_Ionization_Penalty_Neutral>
0.00315488

> <r_epik_State_Penalty>
0.00222269

> <r_epik_Charging_Adjusted_Penalty>
0.00222269

> <i_epik_Tot_Q>
0

> <i_epik_Tot_abs_Q>
0

> <r_epik_Metal_State_Penalty>
-0

> <b_epik_Metal_Only>
0

> <s_lp_Force_Field>
OPLS_2005

> <r_lp_Energy>
16.6838

> <b_lp_Chiralities_Consistent>
1

> <s_lp_Variant>
AV-unprocessed.smi:667-2

> <Gold.Version>
5.8.1

> <Gold.Id.Protein>
6NUR|6NUR_protein|mol2

> <Gold.PLP.Fitness>
42.3838

> <Gold.PLP.PLP>
-37.3531

> <Gold.PLP.part.hbond>
-2.0000

> <Gold.PLP.part.metal>
0.0000

> <Gold.PLP.part.buried>
-6.8812

> <Gold.PLP.part.nonpolar>
-30.9566

> <Gold.PLP.part.repulsive>
0.3472

> <Gold.PLP.ligand.clash>
0.0000

> <Gold.PLP.ligand.torsion>
0.4719

> <Gold.PLP.Chemscore.Hbond>
1.9760

> <Gold.PLP.Chemscore.CHOScore>
0.0000

> <Gold.PLP.Chemscore.Metal>
0.0000

> <Gold.Chemscore.Hbonds>
donor molecule, donor type, donor heavy atom, donor atom, acceptor molecule, acceptor atom, score
      L1  H    12    33       P1  8029  1.00
      P1  H  6933  6944       L1    11  0.46

> <Gold.PLP.Chemscore.Internal.Correction>
0.0466

> <Gold.Rescore>
     Score         DG    S(hbond)    S(metal)    S(lipo)     H(rot)  DE(clash)    DE(int)     intcor
     17.34     -19.60       1.96        0.00      98.03       1.52       0.44       1.81       ----

> <Gold.Chemscore.Fitness>
17.3449

> <Gold.Chemscore.DG>
-19.5961

> <Gold.Chemscore.ZeroCoef>
-5.4800

> <Gold.Chemscore.Hbond>
1.9583

> <Gold.Chemscore.Metal>
0.0000

> <Gold.Chemscore.Lipo>
98.0346

> <Gold.Chemscore.Internal_Hbond>
0.0000

> <Gold.Chemscore.DEClash>
0.4409

> <Gold.Chemscore.DEInternal>
1.8103

> <Gold.Chemscore.Rot>
1.5213

> <Gold.Chemscore.Internal.Correction>
   9.000000E+99

> <Gold.Chemscore.Hbonds>
donor molecule, donor type, donor heavy atom, donor atom, acceptor molecule, acceptor atom, score
      L1  H    12    33       P1  8029  0.96
      P1  H  6933  6944       L1    11  0.38

> <Gold.Chemscore.Hbond.Weighted>
-6.5406

> <Gold.Chemscore.Metal.Weighted>
-0.0000

> <Gold.Chemscore.Lipo.Weighted>
-11.4700

> <Gold.Chemscore.Internal_Hbond.Weighted>
0.0000

> <Gold.Chemscore.DEClash.Weighted>
0.4409

> <Gold.Chemscore.DEInternal.Weighted>
1.8103

> <Gold.Chemscore.Rot.Weighted>
3.8945

> <Gold.Chemscore.Internal.Correction.Weighted>
   9.000000E+99

> <Gold.Protein.RotatedTorsions>
[ 6907 6896 6895 6894 ] final -154.09 input  -60.11 | X-H torsion
[ 7974 7965 7964 7962 ] final  134.85 input  175.53 | X-H torsion
[ 8008 7997 7996 7995 ] final  169.95 input   59.86 | X-H torsion
[ 10167 10162 10161 10158 ] final  -24.22 input  -65.29 | X-H torsion
[ 10718 10713 10712 10709 ] final   46.90 input   66.30 | X-H torsion
[ 10763 10752 10751 10750 ] final  154.96 input  -60.55 | X-H torsion
[ 11005 11000 10999 10996 ] final    3.35 input  -57.11 | X-H torsion

> <Gold.Protein.ActiveResidues>
 VAL166  LYS551  ARG553  GLY616  TRP617  ASP618  TYR619  PRO620  LYS621  CYS622 
 ASP623  PHE694  ASN695  SER759  ASP760  ASP761  ALA762  ILE779  LEU786  VAL792 
 PHE793  MET794  SER795  GLU796  ALA797  LYS798  CYS799  TRP800  GLU811  SER814 

> <Gold.Protein.RotatedAtoms>
  151.2524  133.4343  159.2611 H   0  0  0  0  0  0  0  0  0  0  0  0  # atno 6907 bound_to 6896
  151.0605  134.9734  159.8268 H   0  0  0  0  0  0  0  0  0  0  0  0  # atno 6908 bound_to 6896
  152.5397  134.2474  159.8938 H   0  0  0  0  0  0  0  0  0  0  0  0  # atno 6909 bound_to 6896
  144.9722  139.4593  143.5427 H   0  0  0  0  0  0  0  0  0  0  0  0  # atno 7974 bound_to 7965
  156.1410  140.1551  156.8920 H   0  0  0  0  0  0  0  0  0  0  0  0  # atno 8008 bound_to 7997
  154.4988  140.0831  156.7792 H   0  0  0  0  0  0  0  0  0  0  0  0  # atno 8009 bound_to 7997
  155.4078  140.3417  155.4263 H   0  0  0  0  0  0  0  0  0  0  0  0  # atno 8010 bound_to 7997
  140.7288  143.4373  151.0711 H   0  0  0  0  0  0  0  0  0  0  0  0  # atno 10167 bound_to 10162
  157.4530  130.8150  149.7807 H   0  0  0  0  0  0  0  0  0  0  0  0  # atno 10718 bound_to 10713
  154.1608  135.2810  155.3109 H   0  0  0  0  0  0  0  0  0  0  0  0  # atno 10763 bound_to 10752
  154.6148  135.5487  153.7515 H   0  0  0  0  0  0  0  0  0  0  0  0  # atno 10764 bound_to 10752
  153.0193  135.6424  154.1750 H   0  0  0  0  0  0  0  0  0  0  0  0  # atno 10765 bound_to 10752
  140.5941  133.9897  155.8102 H   0  0  0  0  0  0  0  0  0  0  0  0  # atno 11005 bound_to 11000
  146.3385  139.8941  142.8804 LP  0  0  0  0  0  0  0  0  0  0  0  0  # atno 17320 bound_to 7965
  145.2542  141.0055  143.3863 LP  0  0  0  0  0  0  0  0  0  0  0  0  # atno 17321 bound_to 7965
  139.8036  143.8049  152.3165 LP  0  0  0  0  0  0  0  0  0  0  0  0  # atno 17342 bound_to 10162
  139.8074  144.7349  150.9742 LP  0  0  0  0  0  0  0  0  0  0  0  0  # atno 17343 bound_to 10162
  155.9995  130.3888  150.2662 LP  0  0  0  0  0  0  0  0  0  0  0  0  # atno 17370 bound_to 10713
  157.0835  131.0150  151.3148 LP  0  0  0  0  0  0  0  0  0  0  0  0  # atno 17371 bound_to 10713
  141.0915  133.9908  157.3229 LP  0  0  0  0  0  0  0  0  0  0  0  0  # atno 17394 bound_to 11000
  139.9261  135.0201  156.8239 LP  0  0  0  0  0  0  0  0  0  0  0  0  # atno 17395 bound_to 11000

$$$$
