AV-unprocessed.smi:3353|AV-procd|sdf|12953|dock8
  -GOLD-   2272019393D 1   1.00000     0.00000
 Structure written by MMmdl.
 43 44  0  0  0  0  0  0  0  0  2 V2000
  151.2681  139.6460  158.3381 C   0  0  0  0  0  0  0  0  0  0  0  0
  152.0902  139.6438  157.0440 C   0  0  0  0  0  0  0  0  0  0  0  0
  151.4247  138.9044  155.9896 N   0  0  0  0  0  0  0  0  0  0  0  0
  151.0949  137.5637  155.9653 C   0  0  0  0  0  0  0  0  0  0  0  0
  150.4953  137.3529  154.7558 C   0  0  0  0  0  0  0  0  0  0  0  0
  149.9666  136.1558  154.2102 N   0  0  0  0  0  0  0  0  0  0  0  0
  150.0389  134.9209  154.7332 C   0  0  0  0  0  0  0  0  0  0  0  0
  150.5797  134.6328  155.8012 O   0  0  0  0  0  0  0  0  0  0  0  0
  149.4450  134.0178  153.9403 N   0  0  0  0  0  0  0  0  0  0  0  0
  149.3537  132.5897  154.2292 C   0  0  0  0  0  0  0  0  0  0  0  0
  147.9070  132.0406  154.1203 C   0  0  2  0  0  0  0  0  0  0  0  0
  147.7729  130.6968  154.8714 C   0  0  0  0  0  0  0  0  0  0  0  0
  147.5021  131.9089  152.6909 N   0  3  0  0  0  0  0  0  0  0  0  0
  146.3157  131.0640  152.4321 C   0  0  0  0  0  0  0  0  0  0  0  0
  145.8257  131.4829  151.0511 C   0  0  0  0  0  0  0  0  0  0  0  0
  146.0727  132.9867  151.0421 C   0  0  0  0  0  0  0  0  0  0  0  0
  147.2690  133.1934  151.9814 C   0  0  0  0  0  0  0  0  0  0  0  0
  150.4953  138.6112  154.0993 C   0  0  0  0  0  0  0  0  0  0  0  0
  151.0599  139.5440  154.8509 N   0  0  0  0  0  0  0  0  0  0  0  0
  151.7755  140.2128  159.1187 H   0  0  0  0  0  0  0  0  0  0  0  0
  151.1136  138.6325  158.7097 H   0  0  0  0  0  0  0  0  0  0  0  0
  150.2887  140.0986  158.1806 H   0  0  0  0  0  0  0  0  0  0  0  0
  152.2564  140.6656  156.7010 H   0  0  0  0  0  0  0  0  0  0  0  0
  153.0732  139.2039  157.2185 H   0  0  0  0  0  0  0  0  0  0  0  0
  151.3163  136.9044  156.7913 H   0  0  0  0  0  0  0  0  0  0  0  0
  149.4880  136.2507  153.3264 H   0  0  0  0  0  0  0  0  0  0  0  0
  149.0230  134.3399  153.0812 H   0  0  0  0  0  0  0  0  0  0  0  0
  150.0339  132.0629  153.5590 H   0  0  0  0  0  0  0  0  0  0  0  0
  149.7365  132.4268  155.2372 H   0  0  0  0  0  0  0  0  0  0  0  0
  147.2233  132.7514  154.5874 H   0  0  0  0  0  0  0  0  0  0  0  0
  148.0754  130.7869  155.9147 H   0  0  0  0  0  0  0  0  0  0  0  0
  148.3922  129.9245  154.4143 H   0  0  0  0  0  0  0  0  0  0  0  0
  146.7444  130.3366  154.8860 H   0  0  0  0  0  0  0  0  0  0  0  0
  146.5536  130.0005  152.4743 H   0  0  0  0  0  0  0  0  0  0  0  0
  145.5436  131.2728  153.1748 H   0  0  0  0  0  0  0  0  0  0  0  0
  146.4306  131.0022  150.2808 H   0  0  0  0  0  0  0  0  0  0  0  0
  144.7818  131.2221  150.8732 H   0  0  0  0  0  0  0  0  0  0  0  0
  146.2548  133.3724  150.0383 H   0  0  0  0  0  0  0  0  0  0  0  0
  145.1994  133.5045  151.4416 H   0  0  0  0  0  0  0  0  0  0  0  0
  147.0516  134.0056  152.6772 H   0  0  0  0  0  0  0  0  0  0  0  0
  148.1674  133.4640  151.4256 H   0  0  0  0  0  0  0  0  0  0  0  0
  150.1147  138.8739  153.1232 H   0  0  0  0  0  0  0  0  0  0  0  0
  148.2662  131.4592  152.2068 H   0  0  0  0  0  0  0  0  0  0  0  0
  1  2  1  0  0  0  0
  1 20  1  0  0  0  0
  1 21  1  0  0  0  0
  1 22  1  0  0  0  0
  2  3  1  0  0  0  0
  2 23  1  0  0  0  0
  2 24  1  0  0  0  0
  3 19  1  0  0  0  0
  3  4  1  0  0  0  0
  4  5  2  0  0  0  0
  4 25  1  0  0  0  0
  5  6  1  0  0  0  0
  5 18  1  0  0  0  0
  6  7  1  0  0  0  0
  6 26  1  0  0  0  0
  7  8  2  0  0  0  0
  7  9  1  0  0  0  0
  9 10  1  0  0  0  0
  9 27  1  0  0  0  0
 10 11  1  0  0  0  0
 10 28  1  0  0  0  0
 10 29  1  0  0  0  0
 11 12  1  0  0  0  0
 11 13  1  0  0  0  0
 11 30  1  0  0  0  0
 12 31  1  0  0  0  0
 12 32  1  0  0  0  0
 12 33  1  0  0  0  0
 13 17  1  0  0  0  0
 13 14  1  0  0  0  0
 13 43  1  0  0  0  0
 14 15  1  0  0  0  0
 14 34  1  0  0  0  0
 14 35  1  0  0  0  0
 15 16  1  0  0  0  0
 15 36  1  0  0  0  0
 15 37  1  0  0  0  0
 16 17  1  0  0  0  0
 16 38  1  0  0  0  0
 16 39  1  0  0  0  0
 17 40  1  0  0  0  0
 17 41  1  0  0  0  0
 18 19  2  0  0  0  0
 18 42  1  0  0  0  0
M  CHG  1  13   1
M  END
> <s_m_source_file>
AV-unprocessed.smi

> <i_m_source_file_index>
3353

> <i_lp_mmshare_version>
43012

> <i_f3d_flags>
0

> <s_epik_input>
W0NIM11bQ0gyXW4xW2NIXWMoW2NIXW4xKVtOSF1DKD1PKVtOSF1bQ0gyXVtDQEhdKFtDSDNdKU4yW0NIMl1bQ0gyXVtDSDJdW0NIMl0y

> <s_epik_cmdline>
J2VwaWtfcHl0aG9uJywgJy1waCcsICc3LjAnLCAnLXRuJywgJzgnLCAnLW1hJywgJzIwMCcsICctbWV0YWxfYmluZGluZycsICctaW1hZScsICc8aW5maWxlLm1hZT4nLCAnLW9tYWUnLCAnPG91dGZpbGUubWFlPic=

> <r_lp_tautomer_probability>
1

> <r_epik_Ionization_Penalty>
0.000914091

> <r_epik_Ionization_Penalty_Charging>
0.000761583

> <r_epik_Ionization_Penalty_Neutral>
0.000152508

> <r_epik_State_Penalty>
0.000487427

> <r_epik_Charging_Adjusted_Penalty>
0.00124901

> <i_epik_Tot_Q>
1

> <i_epik_Tot_abs_Q>
1

> <r_epik_Metal_State_Penalty>
-0

> <b_epik_Metal_Only>
0

> <s_lp_Force_Field>
OPLS_2005

> <r_lp_Energy>
33.6396

> <b_lp_Chiralities_Consistent>
1

> <s_lp_Variant>
AV-unprocessed.smi:3353-1

> <Gold.Version>
5.8.1

> <Gold.Id.Protein>
6NUR|6NUR_protein|mol2

> <Gold.PLP.Fitness>
42.8463

> <Gold.PLP.PLP>
-31.3508

> <Gold.PLP.part.hbond>
-4.9401

> <Gold.PLP.part.metal>
0.0000

> <Gold.PLP.part.buried>
-2.2182

> <Gold.PLP.part.nonpolar>
-24.4707

> <Gold.PLP.part.repulsive>
0.1827

> <Gold.PLP.ligand.clash>
0.0000

> <Gold.PLP.ligand.torsion>
0.4256

> <Gold.PLP.Chemscore.Hbond>
3.0973

> <Gold.PLP.Chemscore.CHOScore>
1.0000

> <Gold.PLP.Chemscore.Metal>
0.0000

> <Gold.Chemscore.Hbonds>
donor molecule, donor type, donor heavy atom, donor atom, acceptor molecule, acceptor atom, score
      L1  H     6    26       P1  7948  0.99
      L1  H     9    27       P1  7948  0.20
      L1  H    13    43       P1 10747  0.67
      P1  H  7989  7998       L1    19  1.00
      L1  C    18    42       P1  7957  1.00

> <Gold.PLP.Chemscore.Internal.Correction>
0.0547

> <Gold.Rescore>
     Score         DG    S(hbond)    S(metal)    S(lipo)     H(rot)  DE(clash)    DE(int)     intcor
     14.36     -16.22       1.93        0.00      71.92       1.61       0.04       1.82       ----

> <Gold.Chemscore.Fitness>
14.3559

> <Gold.Chemscore.DG>
-16.2177

> <Gold.Chemscore.ZeroCoef>
-5.4800

> <Gold.Chemscore.Hbond>
1.9308

> <Gold.Chemscore.Metal>
0.0000

> <Gold.Chemscore.Lipo>
71.9218

> <Gold.Chemscore.Internal_Hbond>
0.0000

> <Gold.Chemscore.DEClash>
0.0391

> <Gold.Chemscore.DEInternal>
1.8227

> <Gold.Chemscore.Rot>
1.6117

> <Gold.Chemscore.Internal.Correction>
   9.000000E+99

> <Gold.Chemscore.Hbonds>
donor molecule, donor type, donor heavy atom, donor atom, acceptor molecule, acceptor atom, score
      L1  H     6    26       P1  7948  0.46
      L1  H     9    27       P1  7948  0.01
      L1  H    13    43       P1 10747  0.66
      P1  H  7989  7998       L1    19  0.34

> <Gold.Chemscore.Hbond.Weighted>
-6.4489

> <Gold.Chemscore.Metal.Weighted>
-0.0000

> <Gold.Chemscore.Lipo.Weighted>
-8.4149

> <Gold.Chemscore.Internal_Hbond.Weighted>
0.0000

> <Gold.Chemscore.DEClash.Weighted>
0.0391

> <Gold.Chemscore.DEInternal.Weighted>
1.8227

> <Gold.Chemscore.Rot.Weighted>
4.1260

> <Gold.Chemscore.Internal.Correction.Weighted>
   9.000000E+99

> <Gold.Protein.RotatedTorsions>
[ 6907 6896 6895 6894 ] final  137.03 input  -60.11 | X-H torsion
[ 7974 7965 7964 7962 ] final  126.48 input  175.53 | X-H torsion
[ 8008 7997 7996 7995 ] final  -34.79 input   59.86 | X-H torsion
[ 10167 10162 10161 10158 ] final  113.29 input  -65.29 | X-H torsion
[ 10718 10713 10712 10709 ] final   83.04 input   66.30 | X-H torsion
[ 10763 10752 10751 10750 ] final   41.05 input  -60.55 | X-H torsion
[ 11005 11000 10999 10996 ] final   80.43 input  -57.11 | X-H torsion

> <Gold.Protein.ActiveResidues>
 VAL166  LYS551  ARG553  GLY616  TRP617  ASP618  TYR619  PRO620  LYS621  CYS622 
 ASP623  PHE694  ASN695  SER759  ASP760  ASP761  ALA762  ILE779  LEU786  VAL792 
 PHE793  MET794  SER795  GLU796  ALA797  LYS798  CYS799  TRP800  GLU811  SER814 

> <Gold.Protein.RotatedAtoms>
  152.2827  133.5485  159.5507 H   0  0  0  0  0  0  0  0  0  0  0  0  # atno 6907 bound_to 6896
  150.7202  134.0541  159.3817 H   0  0  0  0  0  0  0  0  0  0  0  0  # atno 6908 bound_to 6896
  151.8451  135.0577  160.0503 H   0  0  0  0  0  0  0  0  0  0  0  0  # atno 6909 bound_to 6896
  145.0612  139.3804  143.5005 H   0  0  0  0  0  0  0  0  0  0  0  0  # atno 7974 bound_to 7965
  154.4112  140.1674  156.2106 H   0  0  0  0  0  0  0  0  0  0  0  0  # atno 8008 bound_to 7997
  155.9447  140.3405  155.6334 H   0  0  0  0  0  0  0  0  0  0  0  0  # atno 8009 bound_to 7997
  155.6945  140.0737  157.2426 H   0  0  0  0  0  0  0  0  0  0  0  0  # atno 8010 bound_to 7997
  139.6472  144.7127  151.2118 H   0  0  0  0  0  0  0  0  0  0  0  0  # atno 10167 bound_to 10162
  157.6870  131.0074  150.2464 H   0  0  0  0  0  0  0  0  0  0  0  0  # atno 10718 bound_to 10713
  152.9919  135.6173  154.2724 H   0  0  0  0  0  0  0  0  0  0  0  0  # atno 10763 bound_to 10752
  154.2457  135.2787  155.2838 H   0  0  0  0  0  0  0  0  0  0  0  0  # atno 10764 bound_to 10752
  154.5331  135.5782  153.6833 H   0  0  0  0  0  0  0  0  0  0  0  0  # atno 10765 bound_to 10752
  139.9135  134.7919  156.1908 H   0  0  0  0  0  0  0  0  0  0  0  0  # atno 11005 bound_to 11000
  146.3524  140.0311  142.8650 LP  0  0  0  0  0  0  0  0  0  0  0  0  # atno 17320 bound_to 7965
  145.1407  140.9569  143.4490 LP  0  0  0  0  0  0  0  0  0  0  0  0  # atno 17321 bound_to 7965
  140.7520  143.6210  150.8513 LP  0  0  0  0  0  0  0  0  0  0  0  0  # atno 17342 bound_to 10162
  139.9854  143.5905  152.2928 LP  0  0  0  0  0  0  0  0  0  0  0  0  # atno 17343 bound_to 10162
  156.3069  130.3766  149.7698 LP  0  0  0  0  0  0  0  0  0  0  0  0  # atno 17370 bound_to 10713
  156.5311  130.8258  151.3237 LP  0  0  0  0  0  0  0  0  0  0  0  0  # atno 17371 bound_to 10713
  141.0585  133.6853  156.1906 LP  0  0  0  0  0  0  0  0  0  0  0  0  # atno 17394 bound_to 11000
  140.6699  134.4879  157.5587 LP  0  0  0  0  0  0  0  0  0  0  0  0  # atno 17395 bound_to 11000

$$$$
