AV-unprocessed.smi:1948|AV-procd|sdf|7874|dock2
  -GOLD-   2272010 23D 1   1.00000     0.00000
 Structure written by MMmdl.
 30 31  0  0  0  0  0  0  0  0  1 V2000
  147.9071  132.1799  153.8504 O   0  0  0  0  0  0  0  0  0  0  0  0
  148.0457  133.3063  153.3726 C   0  0  0  0  0  0  0  0  0  0  0  0
  148.9446  134.2192  153.7813 N   0  0  0  0  0  0  0  0  0  0  0  0
  149.9108  134.1018  154.8155 C   0  0  0  0  0  0  0  0  0  0  0  0
  150.3190  132.9282  155.3238 N   0  0  0  0  0  0  0  0  0  0  0  0
  151.2703  133.0966  156.3218 N   0  0  0  0  0  0  0  0  0  0  0  0
  151.5420  134.3887  156.5265 C   0  0  0  0  0  0  0  0  0  0  0  0
  150.6634  135.5262  155.5190 S   0  0  0  0  0  0  0  0  0  0  0  0
  147.2978  133.7790  152.3647 N   0  0  0  0  0  0  0  0  0  0  0  0
  146.2263  133.0472  151.6954 C   0  0  2  0  0  0  0  0  0  0  0  0
  146.5854  132.8447  150.2123 C   0  0  0  0  0  0  0  0  0  0  0  0
  145.4628  132.1133  149.4554 C   0  0  0  0  0  0  0  0  0  0  0  0
  144.1020  132.8202  149.6037 C   0  0  2  0  0  0  0  0  0  0  0  0
  144.1099  134.0399  148.8887 O   0  0  0  0  0  0  0  0  0  0  0  0
  143.7541  133.0759  151.0822 C   0  0  0  0  0  0  0  0  0  0  0  0
  144.8864  133.7984  151.8333 C   0  0  0  0  0  0  0  0  0  0  0  0
  148.9340  135.1052  153.2981 H   0  0  0  0  0  0  0  0  0  0  0  0
  152.2659  134.6737  157.2754 H   0  0  0  0  0  0  0  0  0  0  0  0
  147.4797  134.7160  152.0358 H   0  0  0  0  0  0  0  0  0  0  0  0
  146.1277  132.0621  152.1558 H   0  0  0  0  0  0  0  0  0  0  0  0
  146.7731  133.8103  149.7404 H   0  0  0  0  0  0  0  0  0  0  0  0
  147.5122  132.2763  150.1268 H   0  0  0  0  0  0  0  0  0  0  0  0
  145.7241  132.0133  148.4014 H   0  0  0  0  0  0  0  0  0  0  0  0
  145.3789  131.0977  149.8445 H   0  0  0  0  0  0  0  0  0  0  0  0
  143.3267  132.1963  149.1575 H   0  0  0  0  0  0  0  0  0  0  0  0
  144.8608  134.0470  148.3150 H   0  0  0  0  0  0  0  0  0  0  0  0
  142.8282  133.6470  151.1608 H   0  0  0  0  0  0  0  0  0  0  0  0
  143.5628  132.1201  151.5715 H   0  0  0  0  0  0  0  0  0  0  0  0
  144.6168  133.8975  152.8854 H   0  0  0  0  0  0  0  0  0  0  0  0
  144.9901  134.8135  151.4472 H   0  0  0  0  0  0  0  0  0  0  0  0
  1  2  2  0  0  0  0
  2  3  1  0  0  0  0
  2  9  1  0  0  0  0
  3  4  1  0  0  0  0
  3 17  1  0  0  0  0
  4  8  1  0  0  0  0
  4  5  2  0  0  0  0
  5  6  1  0  0  0  0
  6  7  2  0  0  0  0
  7  8  1  0  0  0  0
  7 18  1  0  0  0  0
  9 10  1  0  0  0  0
  9 19  1  0  0  0  0
 10 16  1  0  0  0  0
 10 11  1  0  0  0  0
 10 20  1  0  0  0  0
 11 12  1  0  0  0  0
 11 21  1  0  0  0  0
 11 22  1  0  0  0  0
 12 13  1  0  0  0  0
 12 23  1  0  0  0  0
 12 24  1  0  0  0  0
 13 14  1  0  0  0  0
 13 15  1  0  0  0  0
 13 25  1  0  0  0  0
 14 26  1  0  0  0  0
 15 16  1  0  0  0  0
 15 27  1  0  0  0  0
 15 28  1  0  0  0  0
 16 29  1  0  0  0  0
 16 30  1  0  0  0  0
M  END
> <s_m_source_file>
AV-unprocessed.smi

> <i_m_source_file_index>
1948

> <i_lp_mmshare_version>
43012

> <i_f3d_flags>
0

> <s_epik_input>
czFbY0hdbm5jMVtOSF1DKD1PKVtOSF1bQ0BASF0yW0NIMl1bQ0gyXVtDQEBIXShbT0hdKVtDSDJdW0NIMl0y

> <s_epik_cmdline>
J2VwaWtfcHl0aG9uJywgJy1waCcsICc3LjAnLCAnLXRuJywgJzgnLCAnLW1hJywgJzIwMCcsICctbWV0YWxfYmluZGluZycsICctaW1hZScsICc8aW5maWxlLm1hZT4nLCAnLW9tYWUnLCAnPG91dGZpbGUubWFlPic=

> <r_lp_tautomer_probability>
1

> <r_epik_Ionization_Penalty>
0.000336938

> <r_epik_Ionization_Penalty_Charging>
0

> <r_epik_Ionization_Penalty_Neutral>
0.000336938

> <r_epik_State_Penalty>
-0

> <r_epik_Charging_Adjusted_Penalty>
0

> <i_epik_Tot_Q>
0

> <i_epik_Tot_abs_Q>
0

> <r_epik_Metal_State_Penalty>
0.175756

> <b_epik_Metal_Only>
0

> <s_lp_Force_Field>
OPLS_2005

> <r_lp_Energy>
9.37087

> <b_lp_Chiralities_Consistent>
1

> <s_lp_Variant>
AV-unprocessed.smi:1948-2

> <Gold.Version>
5.8.1

> <Gold.Id.Protein>
6NUR|6NUR_protein|mol2

> <Gold.PLP.Fitness>
37.9698

> <Gold.PLP.PLP>
-29.6781

> <Gold.PLP.part.hbond>
-3.3632

> <Gold.PLP.part.metal>
0.0000

> <Gold.PLP.part.buried>
-2.6233

> <Gold.PLP.part.nonpolar>
-20.7427

> <Gold.PLP.part.repulsive>
0.0944

> <Gold.PLP.ligand.clash>
0.0000

> <Gold.PLP.ligand.torsion>
0.0786

> <Gold.PLP.Chemscore.Hbond>
2.8154

> <Gold.PLP.Chemscore.CHOScore>
0.0000

> <Gold.PLP.Chemscore.Metal>
0.0000

> <Gold.Chemscore.Hbonds>
donor molecule, donor type, donor heavy atom, donor atom, acceptor molecule, acceptor atom, score
      L1  H     3    17       P1  7948  1.00
      L1  H     9    19       P1  7948  0.79
      L1  H    14    26       P1  7921  1.00

> <Gold.PLP.Chemscore.Internal.Correction>
0.0030

> <Gold.Rescore>
     Score         DG    S(hbond)    S(metal)    S(lipo)     H(rot)  DE(clash)    DE(int)     intcor
     13.89     -15.51       1.91        0.00      64.95       1.55       0.23       1.39       ----

> <Gold.Chemscore.Fitness>
13.8873

> <Gold.Chemscore.DG>
-15.5093

> <Gold.Chemscore.ZeroCoef>
-5.4800

> <Gold.Chemscore.Hbond>
1.9121

> <Gold.Chemscore.Metal>
0.0000

> <Gold.Chemscore.Lipo>
64.9547

> <Gold.Chemscore.Internal_Hbond>
0.0000

> <Gold.Chemscore.DEClash>
0.2298

> <Gold.Chemscore.DEInternal>
1.3922

> <Gold.Chemscore.Rot>
1.5456

> <Gold.Chemscore.Internal.Correction>
   9.000000E+99

> <Gold.Chemscore.Hbonds>
donor molecule, donor type, donor heavy atom, donor atom, acceptor molecule, acceptor atom, score
      L1  H     3    17       P1  7948  0.39
      L1  H     9    19       P1  7948  0.55
      L1  H    14    26       P1  7921  0.95

> <Gold.Chemscore.Hbond.Weighted>
-6.3864

> <Gold.Chemscore.Metal.Weighted>
-0.0000

> <Gold.Chemscore.Lipo.Weighted>
-7.5997

> <Gold.Chemscore.Internal_Hbond.Weighted>
0.0000

> <Gold.Chemscore.DEClash.Weighted>
0.2298

> <Gold.Chemscore.DEInternal.Weighted>
1.3922

> <Gold.Chemscore.Rot.Weighted>
3.9568

> <Gold.Chemscore.Internal.Correction.Weighted>
   9.000000E+99

> <Gold.Protein.RotatedTorsions>
[ 6907 6896 6895 6894 ] final -126.63 input  -60.11 | X-H torsion
[ 7974 7965 7964 7962 ] final  162.32 input  175.53 | X-H torsion
[ 8008 7997 7996 7995 ] final -120.91 input   59.86 | X-H torsion
[ 10167 10162 10161 10158 ] final  -83.98 input  -65.29 | X-H torsion
[ 10718 10713 10712 10709 ] final    6.35 input   66.30 | X-H torsion
[ 10763 10752 10751 10750 ] final  -61.57 input  -60.55 | X-H torsion
[ 11005 11000 10999 10996 ] final  -96.67 input  -57.11 | X-H torsion

> <Gold.Protein.ActiveResidues>
 VAL166  LYS551  ARG553  GLY616  TRP617  ASP618  TYR619  PRO620  LYS621  CYS622 
 ASP623  PHE694  ASN695  SER759  ASP760  ASP761  ALA762  ILE779  LEU786  VAL792 
 PHE793  MET794  SER795  GLU796  ALA797  LYS798  CYS799  TRP800  GLU811  SER814 

> <Gold.Protein.RotatedAtoms>
  150.8989  133.7144  159.2884 H   0  0  0  0  0  0  0  0  0  0  0  0  # atno 6907 bound_to 6896
  151.4670  135.1041  159.9750 H   0  0  0  0  0  0  0  0  0  0  0  0  # atno 6908 bound_to 6896
  152.4865  133.8338  159.7172 H   0  0  0  0  0  0  0  0  0  0  0  0  # atno 6909 bound_to 6896
  144.7642  139.8024  143.6321 H   0  0  0  0  0  0  0  0  0  0  0  0  # atno 7974 bound_to 7965
  155.1395  140.0401  157.2795 H   0  0  0  0  0  0  0  0  0  0  0  0  # atno 8008 bound_to 7997
  154.6483  140.2563  155.7216 H   0  0  0  0  0  0  0  0  0  0  0  0  # atno 8009 bound_to 7997
  156.2565  140.2841  156.0906 H   0  0  0  0  0  0  0  0  0  0  0  0  # atno 8010 bound_to 7997
  140.4176  143.2597  151.8934 H   0  0  0  0  0  0  0  0  0  0  0  0  # atno 10167 bound_to 10162
  156.9208  130.5790  149.5648 H   0  0  0  0  0  0  0  0  0  0  0  0  # atno 10718 bound_to 10713
  154.2867  135.6261  153.5368 H   0  0  0  0  0  0  0  0  0  0  0  0  # atno 10763 bound_to 10752
  152.9858  135.5646  154.5436 H   0  0  0  0  0  0  0  0  0  0  0  0  # atno 10764 bound_to 10752
  154.5038  135.2873  155.1375 H   0  0  0  0  0  0  0  0  0  0  0  0  # atno 10765 bound_to 10752
  141.1404  133.8115  157.0603 H   0  0  0  0  0  0  0  0  0  0  0  0  # atno 11005 bound_to 11000
  146.1734  139.4894  142.9913 LP  0  0  0  0  0  0  0  0  0  0  0  0  # atno 17320 bound_to 7965
  145.6522  141.0260  143.1754 LP  0  0  0  0  0  0  0  0  0  0  0  0  # atno 17321 bound_to 7965
  139.4782  144.5472  151.8441 LP  0  0  0  0  0  0  0  0  0  0  0  0  # atno 17342 bound_to 10162
  140.4570  144.1776  150.5902 LP  0  0  0  0  0  0  0  0  0  0  0  0  # atno 17343 bound_to 10162
  156.0492  130.5564  150.8950 LP  0  0  0  0  0  0  0  0  0  0  0  0  # atno 17370 bound_to 10713
  157.5909  131.0944  150.9121 LP  0  0  0  0  0  0  0  0  0  0  0  0  # atno 17371 bound_to 10713
  140.0575  134.9772  157.1247 LP  0  0  0  0  0  0  0  0  0  0  0  0  # atno 17394 bound_to 11000
  140.3897  134.2198  155.7167 LP  0  0  0  0  0  0  0  0  0  0  0  0  # atno 17395 bound_to 11000

$$$$
