AV-unprocessed.smi:2560|AV-procd|sdf|10039|dock2
  -GOLD-   2272014 83D 1   1.00000     0.00000
 Structure written by MMmdl.
 31 32  0  0  0  0  0  0  0  0  1 V2000
  150.0202  134.1880  154.9420 C   0  0  0  0  0  0  0  0  0  0  0  0
  149.0593  135.7258  154.9706 S   0  0  0  0  0  0  0  0  0  0  0  0
  150.2397  137.0319  155.0774 C   0  0  0  0  0  0  0  0  0  0  0  0
  151.4155  136.9474  154.4292 N   0  0  0  0  0  0  0  0  0  0  0  0
  152.3026  138.3532  154.7376 S   0  0  0  0  0  0  0  0  0  0  0  0
  151.0207  138.9806  155.7313 C   0  0  0  0  0  0  0  0  0  0  0  0
  151.0997  140.2526  156.3691 N   0  0  0  0  0  0  0  0  0  0  0  0
  151.9253  140.7142  157.3330 C   0  0  0  0  0  0  0  0  0  0  0  0
  152.7998  139.9976  157.8163 O   0  0  0  0  0  0  0  0  0  0  0  0
  151.7314  141.9860  157.7199 N   0  0  0  0  0  0  0  0  0  0  0  0
  152.5019  142.7012  158.7303 C   0  0  1  0  0  0  0  0  0  0  0  0
  152.0242  144.1438  158.7894 C   0  0  0  0  0  0  0  0  0  0  0  0
  151.7976  144.8117  159.9334 C   0  0  0  0  0  0  0  0  0  0  0  0
  152.0089  144.2097  161.3098 C   0  0  0  0  0  0  0  0  0  0  0  0
  152.8432  142.9182  161.2534 C   0  0  0  0  0  0  0  0  0  0  0  0
  152.3934  142.0014  160.1057 C   0  0  0  0  0  0  0  0  0  0  0  0
  149.9914  138.1367  155.8024 N   0  0  0  0  0  0  0  0  0  0  0  0
  149.3525  133.3290  154.8801 H   0  0  0  0  0  0  0  0  0  0  0  0
  150.6214  134.0943  155.8464 H   0  0  0  0  0  0  0  0  0  0  0  0
  150.6853  134.1722  154.0782 H   0  0  0  0  0  0  0  0  0  0  0  0
  150.4036  140.9167  156.0620 H   0  0  0  0  0  0  0  0  0  0  0  0
  150.9879  142.5011  157.2703 H   0  0  0  0  0  0  0  0  0  0  0  0
  153.5479  142.7344  158.4210 H   0  0  0  0  0  0  0  0  0  0  0  0
  151.8594  144.6405  157.8442 H   0  0  0  0  0  0  0  0  0  0  0  0
  151.4356  145.8286  159.8975 H   0  0  0  0  0  0  0  0  0  0  0  0
  152.5003  144.9410  161.9519 H   0  0  0  0  0  0  0  0  0  0  0  0
  151.0300  144.0092  161.7462 H   0  0  0  0  0  0  0  0  0  0  0  0
  153.8945  143.1720  161.1121 H   0  0  0  0  0  0  0  0  0  0  0  0
  152.7796  142.3922  162.2063 H   0  0  0  0  0  0  0  0  0  0  0  0
  151.3601  141.7010  160.2866 H   0  0  0  0  0  0  0  0  0  0  0  0
  152.9836  141.0843  160.1075 H   0  0  0  0  0  0  0  0  0  0  0  0
  1  2  1  0  0  0  0
  1 18  1  0  0  0  0
  1 19  1  0  0  0  0
  1 20  1  0  0  0  0
  2  3  1  0  0  0  0
  3 17  1  0  0  0  0
  3  4  2  0  0  0  0
  4  5  1  0  0  0  0
  5  6  1  0  0  0  0
  6  7  1  0  0  0  0
  6 17  2  0  0  0  0
  7  8  1  0  0  0  0
  7 21  1  0  0  0  0
  8  9  2  0  0  0  0
  8 10  1  0  0  0  0
 10 11  1  0  0  0  0
 10 22  1  0  0  0  0
 11 16  1  0  0  0  0
 11 12  1  0  0  0  0
 11 23  1  0  0  0  0
 12 13  2  0  0  0  0
 12 24  1  0  0  0  0
 13 14  1  0  0  0  0
 13 25  1  0  0  0  0
 14 15  1  0  0  0  0
 14 26  1  0  0  0  0
 14 27  1  0  0  0  0
 15 16  1  0  0  0  0
 15 28  1  0  0  0  0
 15 29  1  0  0  0  0
 16 30  1  0  0  0  0
 16 31  1  0  0  0  0
M  END
> <s_m_source_file>
AV-unprocessed.smi

> <i_m_source_file_index>
2560

> <i_lp_mmshare_version>
43012

> <i_f3d_flags>
0

> <s_epik_input>
W0NIM11TYzFuc2MobjEpW05IXUMoPU8pW05IXVtDQEBIXTJbQ0hdPVtDSF1bQ0gyXVtDSDJdW0NIMl0y

> <s_epik_cmdline>
J2VwaWtfcHl0aG9uJywgJy1waCcsICc3LjAnLCAnLXRuJywgJzgnLCAnLW1hJywgJzIwMCcsICctbWV0YWxfYmluZGluZycsICctaW1hZScsICc8aW5maWxlLm1hZT4nLCAnLW9tYWUnLCAnPG91dGZpbGUubWFlPic=

> <r_lp_tautomer_probability>
1

> <r_epik_Ionization_Penalty>
2.65559e-05

> <r_epik_Ionization_Penalty_Charging>
0

> <r_epik_Ionization_Penalty_Neutral>
2.65559e-05

> <r_epik_State_Penalty>
-0

> <r_epik_Charging_Adjusted_Penalty>
0

> <i_epik_Tot_Q>
0

> <i_epik_Tot_abs_Q>
0

> <r_epik_Metal_State_Penalty>
-0

> <b_epik_Metal_Only>
0

> <s_lp_Force_Field>
OPLS_2005

> <r_lp_Energy>
8.24661

> <b_lp_Chiralities_Consistent>
1

> <s_lp_Variant>
AV-unprocessed.smi:2560-2

> <Gold.Version>
5.8.1

> <Gold.Id.Protein>
6NUR|6NUR_protein|mol2

> <Gold.PLP.Fitness>
40.4152

> <Gold.PLP.PLP>
-36.3019

> <Gold.PLP.part.hbond>
-2.0000

> <Gold.PLP.part.metal>
0.0000

> <Gold.PLP.part.buried>
-4.1433

> <Gold.PLP.part.nonpolar>
-30.5774

> <Gold.PLP.part.repulsive>
0.7096

> <Gold.PLP.ligand.clash>
0.0000

> <Gold.PLP.ligand.torsion>
0.9493

> <Gold.PLP.Chemscore.Hbond>
2.0000

> <Gold.PLP.Chemscore.CHOScore>
0.0000

> <Gold.PLP.Chemscore.Metal>
0.0000

> <Gold.Chemscore.Hbonds>
donor molecule, donor type, donor heavy atom, donor atom, acceptor molecule, acceptor atom, score
      P1  H  7997  8009       L1     9  1.00
      P1  H 10752 10764       L1     4  0.95

> <Gold.PLP.Chemscore.Internal.Correction>
0.0119

> <Gold.Rescore>
     Score         DG    S(hbond)    S(metal)    S(lipo)     H(rot)  DE(clash)    DE(int)     intcor
     17.28     -18.25       1.73        0.00      87.05       1.25       0.06       0.91       ----

> <Gold.Chemscore.Fitness>
17.2759

> <Gold.Chemscore.DG>
-18.2451

> <Gold.Chemscore.ZeroCoef>
-5.4800

> <Gold.Chemscore.Hbond>
1.7324

> <Gold.Chemscore.Metal>
0.0000

> <Gold.Chemscore.Lipo>
87.0527

> <Gold.Chemscore.Internal_Hbond>
0.0000

> <Gold.Chemscore.DEClash>
0.0550

> <Gold.Chemscore.DEInternal>
0.9141

> <Gold.Chemscore.Rot>
1.2524

> <Gold.Chemscore.Internal.Correction>
   9.000000E+99

> <Gold.Chemscore.Hbonds>
donor molecule, donor type, donor heavy atom, donor atom, acceptor molecule, acceptor atom, score
      P1  H  7997  8009       L1     9  0.90
      P1  H 10752 10764       L1     4  0.21

> <Gold.Chemscore.Hbond.Weighted>
-5.7861

> <Gold.Chemscore.Metal.Weighted>
-0.0000

> <Gold.Chemscore.Lipo.Weighted>
-10.1852

> <Gold.Chemscore.Internal_Hbond.Weighted>
0.0000

> <Gold.Chemscore.DEClash.Weighted>
0.0550

> <Gold.Chemscore.DEInternal.Weighted>
0.9141

> <Gold.Chemscore.Rot.Weighted>
3.2062

> <Gold.Chemscore.Internal.Correction.Weighted>
   9.000000E+99

> <Gold.Protein.RotatedTorsions>
[ 6907 6896 6895 6894 ] final   12.63 input  -60.11 | X-H torsion
[ 7974 7965 7964 7962 ] final -109.87 input  175.53 | X-H torsion
[ 8008 7997 7996 7995 ] final  161.18 input   59.86 | X-H torsion
[ 10167 10162 10161 10158 ] final  -24.45 input  -65.29 | X-H torsion
[ 10718 10713 10712 10709 ] final  -26.51 input   66.30 | X-H torsion
[ 10763 10752 10751 10750 ] final  -69.28 input  -60.55 | X-H torsion
[ 11005 11000 10999 10996 ] final   10.95 input  -57.11 | X-H torsion

> <Gold.Protein.ActiveResidues>
 VAL166  LYS551  ARG553  GLY616  TRP617  ASP618  TYR619  PRO620  LYS621  CYS622 
 ASP623  PHE694  ASN695  SER759  ASP760  ASP761  ALA762  ILE779  LEU786  VAL792 
 PHE793  MET794  SER795  GLU796  ALA797  LYS798  CYS799  TRP800  GLU811  SER814 

> <Gold.Protein.RotatedAtoms>
  151.7735  135.0780  160.0363 H   0  0  0  0  0  0  0  0  0  0  0  0  # atno 6907 bound_to 6896
  152.3272  133.5914  159.5793 H   0  0  0  0  0  0  0  0  0  0  0  0  # atno 6908 bound_to 6896
  150.7402  133.9838  159.3626 H   0  0  0  0  0  0  0  0  0  0  0  0  # atno 6909 bound_to 6896
  145.1752  140.8945  143.3512 H   0  0  0  0  0  0  0  0  0  0  0  0  # atno 7974 bound_to 7965
  156.2121  140.1784  156.7671 H   0  0  0  0  0  0  0  0  0  0  0  0  # atno 8008 bound_to 7997
  154.5738  140.0678  156.9033 H   0  0  0  0  0  0  0  0  0  0  0  0  # atno 8009 bound_to 7997
  155.2625  140.3337  155.4274 H   0  0  0  0  0  0  0  0  0  0  0  0  # atno 8010 bound_to 7997
  140.7288  143.4352  151.0741 H   0  0  0  0  0  0  0  0  0  0  0  0  # atno 10167 bound_to 10162
  156.4503  130.4482  149.6994 H   0  0  0  0  0  0  0  0  0  0  0  0  # atno 10718 bound_to 10713
  154.4011  135.6031  153.5898 H   0  0  0  0  0  0  0  0  0  0  0  0  # atno 10763 bound_to 10752
  152.9788  135.5907  154.4183 H   0  0  0  0  0  0  0  0  0  0  0  0  # atno 10764 bound_to 10752
  154.3981  135.2842  155.2091 H   0  0  0  0  0  0  0  0  0  0  0  0  # atno 10765 bound_to 10752
  140.5087  134.0674  155.7812 H   0  0  0  0  0  0  0  0  0  0  0  0  # atno 11005 bound_to 11000
  145.0192  139.3439  143.6081 LP  0  0  0  0  0  0  0  0  0  0  0  0  # atno 17320 bound_to 7965
  146.3462  139.9486  142.8732 LP  0  0  0  0  0  0  0  0  0  0  0  0  # atno 17321 bound_to 7965
  139.8013  143.8080  152.3163 LP  0  0  0  0  0  0  0  0  0  0  0  0  # atno 17342 bound_to 10162
  139.8098  144.7340  150.9713 LP  0  0  0  0  0  0  0  0  0  0  0  0  # atno 17343 bound_to 10162
  156.3823  130.7585  151.2579 LP  0  0  0  0  0  0  0  0  0  0  0  0  # atno 17370 bound_to 10713
  157.7503  131.0292  150.4082 LP  0  0  0  0  0  0  0  0  0  0  0  0  # atno 17371 bound_to 10713
  141.1397  133.9159  157.2353 LP  0  0  0  0  0  0  0  0  0  0  0  0  # atno 17394 bound_to 11000
  139.9671  135.0139  156.9416 LP  0  0  0  0  0  0  0  0  0  0  0  0  # atno 17395 bound_to 11000

$$$$
