AV-unprocessed.smi:676|AV-procd|sdf|3308|dock4
  -GOLD-   22720 0273D 1   1.00000     0.00000
 Structure written by MMmdl.
 42 43  0  0  0  0  0  0  0  0  1 V2000
  148.0560  136.2900  156.2187 C   0  0  0  0  0  0  0  0  0  0  0  0
  149.0179  137.1827  155.6702 O   0  0  0  0  0  0  0  0  0  0  0  0
  150.3853  136.9994  156.0623 C   0  0  2  0  0  0  0  0  0  0  0  0
  150.8936  135.6228  155.6158 C   0  0  0  0  0  0  0  0  0  0  0  0
  150.5824  137.4388  157.5257 C   0  0  0  0  0  0  0  0  0  0  0  0
  150.7163  138.8673  157.0025 C   0  0  1  0  0  0  0  0  0  0  0  0
  151.7220  139.6383  157.7250 N   0  0  0  0  0  0  0  0  0  0  0  0
  151.5398  140.8880  158.1748 C   0  0  0  0  0  0  0  0  0  0  0  0
  150.4781  141.5002  158.0543 O   0  0  0  0  0  0  0  0  0  0  0  0
  152.7407  141.5359  158.8766 C   0  0  0  0  0  0  0  0  0  0  0  0
  152.4592  142.9043  159.3401 N   0  0  0  0  0  0  0  0  0  0  0  0
  152.2460  143.8876  158.3536 C   0  0  0  0  0  0  0  0  0  0  0  0
  151.9861  145.1660  158.6699 C   0  0  0  0  0  0  0  0  0  0  0  0
  151.9272  145.5250  160.0668 C   0  0  0  0  0  0  0  0  0  0  0  0
  152.1318  144.5930  161.0187 C   0  0  0  0  0  0  0  0  0  0  0  0
  152.4172  143.1945  160.6775 C   0  0  0  0  0  0  0  0  0  0  0  0
  152.6069  142.3368  161.5407 O   0  0  0  0  0  0  0  0  0  0  0  0
  151.1923  138.2742  155.6505 C   0  0  0  0  0  0  0  0  0  0  0  0
  152.7110  138.0830  155.4737 C   0  0  0  0  0  0  0  0  0  0  0  0
  150.7174  139.0082  154.3915 C   0  0  0  0  0  0  0  0  0  0  0  0
  147.0575  136.6422  155.9606 H   0  0  0  0  0  0  0  0  0  0  0  0
  148.1143  136.2303  157.3050 H   0  0  0  0  0  0  0  0  0  0  0  0
  148.1586  135.2865  155.8065 H   0  0  0  0  0  0  0  0  0  0  0  0
  151.9583  135.5008  155.8121 H   0  0  0  0  0  0  0  0  0  0  0  0
  150.7384  135.4711  154.5475 H   0  0  0  0  0  0  0  0  0  0  0  0
  150.3953  134.8118  156.1460 H   0  0  0  0  0  0  0  0  0  0  0  0
  149.7348  137.2851  158.1926 H   0  0  0  0  0  0  0  0  0  0  0  0
  151.5009  137.0458  157.9650 H   0  0  0  0  0  0  0  0  0  0  0  0
  149.7454  139.3632  156.9317 H   0  0  0  0  0  0  0  0  0  0  0  0
  152.6211  139.2024  157.8700 H   0  0  0  0  0  0  0  0  0  0  0  0
  153.0302  140.8958  159.7109 H   0  0  0  0  0  0  0  0  0  0  0  0
  153.6031  141.5413  158.2070 H   0  0  0  0  0  0  0  0  0  0  0  0
  152.3141  143.5397  157.3332 H   0  0  0  0  0  0  0  0  0  0  0  0
  151.8288  145.9069  157.9000 H   0  0  0  0  0  0  0  0  0  0  0  0
  151.7201  146.5463  160.3501 H   0  0  0  0  0  0  0  0  0  0  0  0
  152.0854  144.8809  162.0586 H   0  0  0  0  0  0  0  0  0  0  0  0
  153.2265  139.0367  155.3544 H   0  0  0  0  0  0  0  0  0  0  0  0
  152.9378  137.4845  154.5909 H   0  0  0  0  0  0  0  0  0  0  0  0
  153.1662  137.5814  156.3277 H   0  0  0  0  0  0  0  0  0  0  0  0
  151.2935  139.9172  154.2145 H   0  0  0  0  0  0  0  0  0  0  0  0
  149.6731  139.3114  154.4651 H   0  0  0  0  0  0  0  0  0  0  0  0
  150.8114  138.3800  153.5053 H   0  0  0  0  0  0  0  0  0  0  0  0
  1  2  1  0  0  0  0
  1 21  1  0  0  0  0
  1 22  1  0  0  0  0
  1 23  1  0  0  0  0
  2  3  1  0  0  0  0
  3 18  1  0  0  0  0
  3  4  1  0  0  0  0
  3  5  1  0  0  0  0
  4 24  1  0  0  0  0
  4 25  1  0  0  0  0
  4 26  1  0  0  0  0
  5  6  1  0  0  0  0
  5 27  1  0  0  0  0
  5 28  1  0  0  0  0
  6  7  1  0  0  0  0
  6 18  1  0  0  0  0
  6 29  1  0  0  0  0
  7  8  1  0  0  0  0
  7 30  1  0  0  0  0
  8  9  2  0  0  0  0
  8 10  1  0  0  0  0
 10 11  1  0  0  0  0
 10 31  1  0  0  0  0
 10 32  1  0  0  0  0
 11 16  1  0  0  0  0
 11 12  1  0  0  0  0
 12 13  2  0  0  0  0
 12 33  1  0  0  0  0
 13 14  1  0  0  0  0
 13 34  1  0  0  0  0
 14 15  2  0  0  0  0
 14 35  1  0  0  0  0
 15 16  1  0  0  0  0
 15 36  1  0  0  0  0
 16 17  2  0  0  0  0
 18 19  1  0  0  0  0
 18 20  1  0  0  0  0
 19 37  1  0  0  0  0
 19 38  1  0  0  0  0
 19 39  1  0  0  0  0
 20 40  1  0  0  0  0
 20 41  1  0  0  0  0
 20 42  1  0  0  0  0
M  END
> <s_m_source_file>
AV-unprocessed.smi

> <i_m_source_file_index>
676

> <i_lp_mmshare_version>
43012

> <i_f3d_flags>
0

> <s_epik_input>
W0NIM11PW0NAQF0xKFtDSDNdKVtDSDJdW0NASF0oQzEoW0NIM10pW0NIM10pW05IXUMoPU8pW0NIMl1uMltjSF1bY0hdW2NIXVtjSF1jMj1P

> <s_epik_cmdline>
J2VwaWtfcHl0aG9uJywgJy1waCcsICc3LjAnLCAnLXRuJywgJzgnLCAnLW1hJywgJzIwMCcsICctbWV0YWxfYmluZGluZycsICctaW1hZScsICc8aW5maWxlLm1hZT4nLCAnLW9tYWUnLCAnPG91dGZpbGUubWFlPic=

> <r_lp_tautomer_probability>
1

> <r_epik_Ionization_Penalty>
4.09771e-07

> <r_epik_Ionization_Penalty_Charging>
3.90712e-07

> <r_epik_Ionization_Penalty_Neutral>
1.90591e-08

> <r_epik_State_Penalty>
-0

> <r_epik_Charging_Adjusted_Penalty>
3.90712e-07

> <i_epik_Tot_Q>
0

> <i_epik_Tot_abs_Q>
0

> <r_epik_Metal_State_Penalty>
-0

> <b_epik_Metal_Only>
0

> <s_lp_Force_Field>
OPLS_2005

> <r_lp_Energy>
31.4736

> <b_lp_Chiralities_Consistent>
1

> <s_lp_Variant>
AV-unprocessed.smi:676-2

> <Gold.Version>
5.8.1

> <Gold.Id.Protein>
6NUR|6NUR_protein|mol2

> <Gold.PLP.Fitness>
38.8587

> <Gold.PLP.PLP>
-38.9587

> <Gold.PLP.part.hbond>
0.0000

> <Gold.PLP.part.metal>
0.0000

> <Gold.PLP.part.buried>
-5.3349

> <Gold.PLP.part.nonpolar>
-33.1592

> <Gold.PLP.part.repulsive>
0.2106

> <Gold.PLP.ligand.clash>
0.0000

> <Gold.PLP.ligand.torsion>
0.2407

> <Gold.PLP.Chemscore.Hbond>
0.0000

> <Gold.PLP.Chemscore.CHOScore>
0.0000

> <Gold.PLP.Chemscore.Metal>
0.0000

> <Gold.PLP.Chemscore.Internal.Correction>
0.3813

> <Gold.Rescore>
     Score         DG    S(hbond)    S(metal)    S(lipo)     H(rot)  DE(clash)    DE(int)     intcor
     14.45     -15.13       0.79        0.00      95.43       1.62       0.16       0.52       ----

> <Gold.Chemscore.Fitness>
14.4517

> <Gold.Chemscore.DG>
-15.1334

> <Gold.Chemscore.ZeroCoef>
-5.4800

> <Gold.Chemscore.Hbond>
0.7869

> <Gold.Chemscore.Metal>
0.0000

> <Gold.Chemscore.Lipo>
95.4341

> <Gold.Chemscore.Internal_Hbond>
0.0000

> <Gold.Chemscore.DEClash>
0.1643

> <Gold.Chemscore.DEInternal>
0.5175

> <Gold.Chemscore.Rot>
1.6175

> <Gold.Chemscore.Internal.Correction>
   9.000000E+99

> <Gold.Chemscore.Hbond.Weighted>
-2.6284

> <Gold.Chemscore.Metal.Weighted>
-0.0000

> <Gold.Chemscore.Lipo.Weighted>
-11.1658

> <Gold.Chemscore.Internal_Hbond.Weighted>
0.0000

> <Gold.Chemscore.DEClash.Weighted>
0.1643

> <Gold.Chemscore.DEInternal.Weighted>
0.5175

> <Gold.Chemscore.Rot.Weighted>
4.1408

> <Gold.Chemscore.Internal.Correction.Weighted>
   9.000000E+99

> <Gold.Protein.RotatedTorsions>
[ 6907 6896 6895 6894 ] final  137.17 input  -60.11 | X-H torsion
[ 7974 7965 7964 7962 ] final  169.79 input  175.53 | X-H torsion
[ 8008 7997 7996 7995 ] final -173.74 input   59.86 | X-H torsion
[ 10167 10162 10161 10158 ] final  -71.33 input  -65.29 | X-H torsion
[ 10718 10713 10712 10709 ] final -156.84 input   66.30 | X-H torsion
[ 10763 10752 10751 10750 ] final   -5.78 input  -60.55 | X-H torsion
[ 11005 11000 10999 10996 ] final -127.83 input  -57.11 | X-H torsion

> <Gold.Protein.ActiveResidues>
 VAL166  LYS551  ARG553  GLY616  TRP617  ASP618  TYR619  PRO620  LYS621  CYS622 
 ASP623  PHE694  ASN695  SER759  ASP760  ASP761  ALA762  ILE779  LEU786  VAL792 
 PHE793  MET794  SER795  GLU796  ALA797  LYS798  CYS799  TRP800  GLU811  SER814 

> <Gold.Protein.RotatedAtoms>
  152.2811  133.5471  159.5498 H   0  0  0  0  0  0  0  0  0  0  0  0  # atno 6907 bound_to 6896
  150.7196  134.0562  159.3824 H   0  0  0  0  0  0  0  0  0  0  0  0  # atno 6908 bound_to 6896
  151.8473  135.0570  160.0506 H   0  0  0  0  0  0  0  0  0  0  0  0  # atno 6909 bound_to 6896
  144.7344  139.9106  143.6415 H   0  0  0  0  0  0  0  0  0  0  0  0  # atno 7974 bound_to 7965
  155.9612  140.1145  157.0894 H   0  0  0  0  0  0  0  0  0  0  0  0  # atno 8008 bound_to 7997
  154.4132  140.1181  156.5249 H   0  0  0  0  0  0  0  0  0  0  0  0  # atno 8009 bound_to 7997
  155.6717  140.3473  155.4823 H   0  0  0  0  0  0  0  0  0  0  0  0  # atno 8010 bound_to 7997
  140.5281  143.2324  151.7310 H   0  0  0  0  0  0  0  0  0  0  0  0  # atno 10167 bound_to 10162
  156.5321  130.8525  151.2719 H   0  0  0  0  0  0  0  0  0  0  0  0  # atno 10718 bound_to 10713
  153.4033  135.7005  153.6411 H   0  0  0  0  0  0  0  0  0  0  0  0  # atno 10763 bound_to 10752
  153.4935  135.3667  155.2504 H   0  0  0  0  0  0  0  0  0  0  0  0  # atno 10764 bound_to 10752
  154.8712  135.4095  154.3371 H   0  0  0  0  0  0  0  0  0  0  0  0  # atno 10765 bound_to 10752
  140.9567  134.0992  157.4009 H   0  0  0  0  0  0  0  0  0  0  0  0  # atno 11005 bound_to 11000
  146.1004  139.3999  143.0350 LP  0  0  0  0  0  0  0  0  0  0  0  0  # atno 17320 bound_to 7965
  145.7587  140.9944  143.1212 LP  0  0  0  0  0  0  0  0  0  0  0  0  # atno 17321 bound_to 7965
  139.4945  144.4155  152.0035 LP  0  0  0  0  0  0  0  0  0  0  0  0  # atno 17342 bound_to 10162
  140.3255  144.3378  150.5999 LP  0  0  0  0  0  0  0  0  0  0  0  0  # atno 17343 bound_to 10162
  157.7420  130.9881  150.2485 LP  0  0  0  0  0  0  0  0  0  0  0  0  # atno 17370 bound_to 10713
  156.3050  130.3764  149.7714 LP  0  0  0  0  0  0  0  0  0  0  0  0  # atno 17371 bound_to 10713
  139.8864  135.0081  156.6499 LP  0  0  0  0  0  0  0  0  0  0  0  0  # atno 17394 bound_to 11000
  140.7526  133.8884  155.8358 LP  0  0  0  0  0  0  0  0  0  0  0  0  # atno 17395 bound_to 11000

$$$$
