AV-unprocessed.smi:2455|AV-procd|sdf|9699|dock5
  -GOLD-   2272013333D 1   1.00000     0.00000
 Structure written by MMmdl.
 36 36  0  0  0  0  0  0  0  0  2 V2000
  144.5680  135.2021  161.1280 C   0  0  0  0  0  0  0  0  0  0  0  0
  145.8677  135.2585  160.3029 C   0  0  0  0  0  0  0  0  0  0  0  0
  147.1908  135.4627  161.1069 C   0  0  0  0  0  0  0  0  0  0  0  0
  147.2833  134.3143  162.1588 C   0  0  0  0  0  0  0  0  0  0  0  0
  147.6898  132.9235  161.6337 C   0  0  0  0  0  0  0  0  0  0  0  0
  148.4289  135.4512  160.1527 C   0  0  0  0  0  0  0  0  0  0  0  0
  148.4480  136.5753  159.2179 N   0  0  0  0  0  0  0  0  0  0  0  0
  149.4220  136.8568  158.3391 C   0  0  0  0  0  0  0  0  0  0  0  0
  150.4472  136.1877  158.2156 O   0  0  0  0  0  0  0  0  0  0  0  0
  149.2065  138.0909  157.4624 C   0  0  0  0  0  0  0  0  0  0  0  0
  150.1655  138.1324  156.3723 N   0  0  0  0  0  0  0  0  0  0  0  0
  151.0932  139.1119  156.0814 C   0  0  0  0  0  0  0  0  0  0  0  0
  151.7681  138.7145  154.9629 C   0  0  0  0  0  0  0  0  0  0  0  0
  151.1716  137.4650  154.6349 C   0  0  0  0  0  0  0  0  0  0  0  0
  150.2115  137.1209  155.4780 N   0  0  0  0  0  0  0  0  0  0  0  0
  147.1030  136.8189  161.8607 C   0  0  0  0  0  0  0  0  0  0  0  0
  146.1707  137.6051  161.5789 O   0  0  0  0  0  0  0  0  0  0  0  0
  147.9859  137.0560  162.7155 O   0  5  0  0  0  0  0  0  0  0  0  0
  143.7117  135.0302  160.4759 H   0  0  0  0  0  0  0  0  0  0  0  0
  144.3861  136.1363  161.6584 H   0  0  0  0  0  0  0  0  0  0  0  0
  144.5837  134.3954  161.8607 H   0  0  0  0  0  0  0  0  0  0  0  0
  145.9328  134.3397  159.7181 H   0  0  0  0  0  0  0  0  0  0  0  0
  145.7656  136.0487  159.5584 H   0  0  0  0  0  0  0  0  0  0  0  0
  147.9928  134.5936  162.9394 H   0  0  0  0  0  0  0  0  0  0  0  0
  146.3279  134.2177  162.6745 H   0  0  0  0  0  0  0  0  0  0  0  0
  147.7105  132.2019  162.4504 H   0  0  0  0  0  0  0  0  0  0  0  0
  148.6836  132.9299  161.1864 H   0  0  0  0  0  0  0  0  0  0  0  0
  146.9900  132.5460  160.8900 H   0  0  0  0  0  0  0  0  0  0  0  0
  149.3518  135.5212  160.7293 H   0  0  0  0  0  0  0  0  0  0  0  0
  148.5053  134.5038  159.6176 H   0  0  0  0  0  0  0  0  0  0  0  0
  147.6453  137.1869  159.2396 H   0  0  0  0  0  0  0  0  0  0  0  0
  148.1921  138.0791  157.0602 H   0  0  0  0  0  0  0  0  0  0  0  0
  149.3065  139.0044  158.0506 H   0  0  0  0  0  0  0  0  0  0  0  0
  151.1966  139.9980  156.6903 H   0  0  0  0  0  0  0  0  0  0  0  0
  152.5660  139.2365  154.4560 H   0  0  0  0  0  0  0  0  0  0  0  0
  151.4055  136.8030  153.8141 H   0  0  0  0  0  0  0  0  0  0  0  0
  1  2  1  0  0  0  0
  1 19  1  0  0  0  0
  1 20  1  0  0  0  0
  1 21  1  0  0  0  0
  2  3  1  0  0  0  0
  2 22  1  0  0  0  0
  2 23  1  0  0  0  0
  3  4  1  0  0  0  0
  3  6  1  0  0  0  0
  3 16  1  0  0  0  0
  4  5  1  0  0  0  0
  4 24  1  0  0  0  0
  4 25  1  0  0  0  0
  5 26  1  0  0  0  0
  5 27  1  0  0  0  0
  5 28  1  0  0  0  0
  6  7  1  0  0  0  0
  6 29  1  0  0  0  0
  6 30  1  0  0  0  0
  7  8  1  0  0  0  0
  7 31  1  0  0  0  0
  8  9  2  0  0  0  0
  8 10  1  0  0  0  0
 10 11  1  0  0  0  0
 10 32  1  0  0  0  0
 10 33  1  0  0  0  0
 11 15  1  0  0  0  0
 11 12  1  0  0  0  0
 12 13  2  0  0  0  0
 12 34  1  0  0  0  0
 13 14  1  0  0  0  0
 13 35  1  0  0  0  0
 14 15  2  0  0  0  0
 14 36  1  0  0  0  0
 16 17  2  0  0  0  0
 16 18  1  0  0  0  0
M  CHG  1  18  -1
M  END
> <s_m_source_file>
AV-unprocessed.smi

> <i_m_source_file_index>
2455

> <i_lp_mmshare_version>
43012

> <i_f3d_flags>
0

> <s_epik_input>
W0NIM11bQ0gyXUMoW0NIMl1bQ0gzXSkoQyg9TylbT0hdKVtDSDJdW05IXUMoPU8pW0NIMl1uMVtjSF1bY0hdW2NIXW4x

> <s_epik_cmdline>
J2VwaWtfcHl0aG9uJywgJy1waCcsICc3LjAnLCAnLXRuJywgJzgnLCAnLW1hJywgJzIwMCcsICctbWV0YWxfYmluZGluZycsICctaW1hZScsICc8aW5maWxlLm1hZT4nLCAnLW9tYWUnLCAnPG91dGZpbGUubWFlPic=

> <r_lp_tautomer_probability>
1

> <r_epik_Ionization_Penalty>
0.00236672

> <r_epik_Ionization_Penalty_Charging>
0.00235221

> <r_epik_Ionization_Penalty_Neutral>
1.45156e-05

> <r_epik_State_Penalty>
0.00162453

> <r_epik_Charging_Adjusted_Penalty>
0.00397673

> <i_epik_Tot_Q>
-1

> <i_epik_Tot_abs_Q>
1

> <r_epik_Metal_State_Penalty>
-0

> <b_epik_Metal_Only>
0

> <s_lp_Force_Field>
OPLS_2005

> <r_lp_Energy>
9.36787

> <b_lp_Chiralities_Consistent>
1

> <s_lp_Variant>
AV-unprocessed.smi:2455-1

> <Gold.Version>
5.8.1

> <Gold.Id.Protein>
6NUR|6NUR_protein|mol2

> <Gold.PLP.Fitness>
42.8228

> <Gold.PLP.PLP>
-27.1625

> <Gold.PLP.part.hbond>
-3.0000

> <Gold.PLP.part.metal>
0.0000

> <Gold.PLP.part.buried>
-4.5963

> <Gold.PLP.part.nonpolar>
-20.3181

> <Gold.PLP.part.repulsive>
0.2585

> <Gold.PLP.ligand.clash>
0.0000

> <Gold.PLP.ligand.torsion>
0.5640

> <Gold.PLP.Chemscore.Hbond>
4.5440

> <Gold.PLP.Chemscore.CHOScore>
1.0000

> <Gold.PLP.Chemscore.Metal>
0.0000

> <Gold.Chemscore.Hbonds>
donor molecule, donor type, donor heavy atom, donor atom, acceptor molecule, acceptor atom, score
      P1  H  6896  6909       L1     9  0.82
      P1  H  6931  6943       L1    18  1.76
      P1  H  6934  6947       L1    17  1.95
      L1  C    14    36       P1  7949  1.00

> <Gold.PLP.Chemscore.Internal.Correction>
0.1564

> <Gold.Rescore>
     Score         DG    S(hbond)    S(metal)    S(lipo)     H(rot)  DE(clash)    DE(int)     intcor
      8.48     -10.66       1.59        0.00      56.48       2.63       0.00       2.18       ----

> <Gold.Chemscore.Fitness>
8.4761

> <Gold.Chemscore.DG>
-10.6580

> <Gold.Chemscore.ZeroCoef>
-5.4800

> <Gold.Chemscore.Hbond>
1.5888

> <Gold.Chemscore.Metal>
0.0000

> <Gold.Chemscore.Lipo>
56.4822

> <Gold.Chemscore.Internal_Hbond>
0.0000

> <Gold.Chemscore.DEClash>
0.0000

> <Gold.Chemscore.DEInternal>
2.1819

> <Gold.Chemscore.Rot>
2.6316

> <Gold.Chemscore.Internal.Correction>
   9.000000E+99

> <Gold.Chemscore.Hbonds>
donor molecule, donor type, donor heavy atom, donor atom, acceptor molecule, acceptor atom, score
      P1  H  6896  6909       L1     9  0.73
      P1  H  6931  6943       L1    18  0.43
      P1  H  6934  6947       L1    17  0.24

> <Gold.Chemscore.Hbond.Weighted>
-5.3066

> <Gold.Chemscore.Metal.Weighted>
-0.0000

> <Gold.Chemscore.Lipo.Weighted>
-6.6084

> <Gold.Chemscore.Internal_Hbond.Weighted>
0.0000

> <Gold.Chemscore.DEClash.Weighted>
0.0000

> <Gold.Chemscore.DEInternal.Weighted>
2.1819

> <Gold.Chemscore.Rot.Weighted>
6.7370

> <Gold.Chemscore.Internal.Correction.Weighted>
   9.000000E+99

> <Gold.Protein.RotatedTorsions>
[ 6907 6896 6895 6894 ] final   74.28 input  -60.11 | X-H torsion
[ 7974 7965 7964 7962 ] final  -10.91 input  175.53 | X-H torsion
[ 8008 7997 7996 7995 ] final -152.78 input   59.86 | X-H torsion
[ 10167 10162 10161 10158 ] final  -74.06 input  -65.29 | X-H torsion
[ 10718 10713 10712 10709 ] final   51.80 input   66.30 | X-H torsion
[ 10763 10752 10751 10750 ] final  -30.51 input  -60.55 | X-H torsion
[ 11005 11000 10999 10996 ] final  -53.97 input  -57.11 | X-H torsion

> <Gold.Protein.ActiveResidues>
 VAL166  LYS551  ARG553  GLY616  TRP617  ASP618  TYR619  PRO620  LYS621  CYS622 
 ASP623  PHE694  ASN695  SER759  ASP760  ASP761  ALA762  ILE779  LEU786  VAL792 
 PHE793  MET794  SER795  GLU796  ALA797  LYS798  CYS799  TRP800  GLU811  SER814 

> <Gold.Protein.RotatedAtoms>
  152.4968  134.4295  159.9507 H   0  0  0  0  0  0  0  0  0  0  0  0  # atno 6907 bound_to 6896
  151.4272  133.3674  159.2771 H   0  0  0  0  0  0  0  0  0  0  0  0  # atno 6908 bound_to 6896
  150.9180  134.8621  159.7530 H   0  0  0  0  0  0  0  0  0  0  0  0  # atno 6909 bound_to 6896
  146.2205  140.2833  142.8363 H   0  0  0  0  0  0  0  0  0  0  0  0  # atno 7974 bound_to 7965
  155.6606  140.0722  157.2555 H   0  0  0  0  0  0  0  0  0  0  0  0  # atno 8008 bound_to 7997
  154.4143  140.1717  156.1822 H   0  0  0  0  0  0  0  0  0  0  0  0  # atno 8009 bound_to 7997
  155.9701  140.3362  155.6571 H   0  0  0  0  0  0  0  0  0  0  0  0  # atno 8010 bound_to 7997
  140.5058  143.2353  151.7676 H   0  0  0  0  0  0  0  0  0  0  0  0  # atno 10167 bound_to 10162
  157.5015  130.8441  149.8323 H   0  0  0  0  0  0  0  0  0  0  0  0  # atno 10718 bound_to 10713
  153.7822  135.6904  153.4886 H   0  0  0  0  0  0  0  0  0  0  0  0  # atno 10763 bound_to 10752
  153.1804  135.4508  155.0019 H   0  0  0  0  0  0  0  0  0  0  0  0  # atno 10764 bound_to 10752
  154.8077  135.3364  154.7324 H   0  0  0  0  0  0  0  0  0  0  0  0  # atno 10765 bound_to 10752
  141.1002  133.6619  156.4250 H   0  0  0  0  0  0  0  0  0  0  0  0  # atno 11005 bound_to 11000
  144.9181  140.7836  143.5765 LP  0  0  0  0  0  0  0  0  0  0  0  0  # atno 17320 bound_to 7965
  145.2768  139.1933  143.4812 LP  0  0  0  0  0  0  0  0  0  0  0  0  # atno 17321 bound_to 7965
  139.4883  144.4459  151.9710 LP  0  0  0  0  0  0  0  0  0  0  0  0  # atno 17342 bound_to 10162
  140.3550  144.3043  150.5943 LP  0  0  0  0  0  0  0  0  0  0  0  0  # atno 17343 bound_to 10162
  156.0232  130.3788  150.1899 LP  0  0  0  0  0  0  0  0  0  0  0  0  # atno 17370 bound_to 10713
  157.0089  130.9945  151.3371 LP  0  0  0  0  0  0  0  0  0  0  0  0  # atno 17371 bound_to 10713
  140.5040  134.6458  157.5259 LP  0  0  0  0  0  0  0  0  0  0  0  0  # atno 17394 bound_to 11000
  139.9851  134.7074  155.9788 LP  0  0  0  0  0  0  0  0  0  0  0  0  # atno 17395 bound_to 11000

$$$$
