AV-unprocessed.smi:1541|AV-procd|sdf|6202|dock2
  -GOLD-   22720 6373D 1   1.00000     0.00000
 Structure written by MMmdl.
 40 41  0  0  0  0  0  0  0  0  1 V2000
  145.8834  137.8240  152.5787 C   0  0  0  0  0  0  0  0  0  0  0  0
  146.7238  139.0015  152.0709 C   0  0  0  0  0  0  0  0  0  0  0  0
  147.5883  139.5292  153.1084 N   0  0  0  0  0  0  0  0  0  0  0  0
  147.6648  140.8257  153.5771 C   0  0  0  0  0  0  0  0  0  0  0  0
  148.6297  140.8125  154.5445 C   0  0  0  0  0  0  0  0  0  0  0  0
  149.1099  141.8754  155.3507 N   0  0  0  0  0  0  0  0  0  0  0  0
  150.1537  141.8500  156.1957 C   0  0  0  0  0  0  0  0  0  0  0  0
  150.8646  140.8684  156.4120 O   0  0  0  0  0  0  0  0  0  0  0  0
  150.3306  143.0408  156.7868 N   0  0  0  0  0  0  0  0  0  0  0  0
  151.3814  143.3637  157.7497 C   0  0  0  0  0  0  0  0  0  0  0  0
  151.5385  142.1942  158.7440 C   0  0  0  0  0  0  0  0  0  0  0  0
  152.5862  142.4085  159.8499 C   0  0  0  0  0  0  0  0  0  0  0  0
  152.1131  143.3866  160.9372 C   0  0  0  0  0  0  0  0  0  0  0  0
  152.3752  144.8749  160.6462 C   0  0  0  0  0  0  0  0  0  0  0  0
  152.2301  145.3254  159.1821 C   0  0  0  0  0  0  0  0  0  0  0  0
  151.0457  144.7160  158.4132 C   0  0  0  0  0  0  0  0  0  0  0  0
  149.0956  139.4734  154.6082 C   0  0  0  0  0  0  0  0  0  0  0  0
  148.4622  138.7037  153.7361 N   0  0  0  0  0  0  0  0  0  0  0  0
  145.2463  137.4321  151.7859 H   0  0  0  0  0  0  0  0  0  0  0  0
  145.2388  138.1257  153.4049 H   0  0  0  0  0  0  0  0  0  0  0  0
  146.5187  137.0099  152.9288 H   0  0  0  0  0  0  0  0  0  0  0  0
  147.3414  138.6875  151.2287 H   0  0  0  0  0  0  0  0  0  0  0  0
  146.0772  139.8021  151.7085 H   0  0  0  0  0  0  0  0  0  0  0  0
  147.0399  141.6146  153.1853 H   0  0  0  0  0  0  0  0  0  0  0  0
  148.6081  142.7479  155.2729 H   0  0  0  0  0  0  0  0  0  0  0  0
  149.6936  143.7864  156.5479 H   0  0  0  0  0  0  0  0  0  0  0  0
  152.3188  143.4837  157.2029 H   0  0  0  0  0  0  0  0  0  0  0  0
  150.5742  141.9600  159.1976 H   0  0  0  0  0  0  0  0  0  0  0  0
  151.8215  141.3019  158.1841 H   0  0  0  0  0  0  0  0  0  0  0  0
  152.7640  141.4428  160.3245 H   0  0  0  0  0  0  0  0  0  0  0  0
  153.5458  142.7151  159.4320 H   0  0  0  0  0  0  0  0  0  0  0  0
  151.0493  143.2335  161.1231 H   0  0  0  0  0  0  0  0  0  0  0  0
  152.6054  143.1373  161.8780 H   0  0  0  0  0  0  0  0  0  0  0  0
  151.7041  145.4661  161.2705 H   0  0  0  0  0  0  0  0  0  0  0  0
  153.3822  145.1307  160.9781 H   0  0  0  0  0  0  0  0  0  0  0  0
  152.1308  146.4114  159.1781 H   0  0  0  0  0  0  0  0  0  0  0  0
  153.1565  145.1234  158.6432 H   0  0  0  0  0  0  0  0  0  0  0  0
  150.7740  145.4206  157.6256 H   0  0  0  0  0  0  0  0  0  0  0  0
  150.1669  144.6340  159.0545 H   0  0  0  0  0  0  0  0  0  0  0  0
  149.8559  139.0430  155.2432 H   0  0  0  0  0  0  0  0  0  0  0  0
  1  2  1  0  0  0  0
  1 19  1  0  0  0  0
  1 20  1  0  0  0  0
  1 21  1  0  0  0  0
  2  3  1  0  0  0  0
  2 22  1  0  0  0  0
  2 23  1  0  0  0  0
  3 18  1  0  0  0  0
  3  4  1  0  0  0  0
  4  5  2  0  0  0  0
  4 24  1  0  0  0  0
  5  6  1  0  0  0  0
  5 17  1  0  0  0  0
  6  7  1  0  0  0  0
  6 25  1  0  0  0  0
  7  8  2  0  0  0  0
  7  9  1  0  0  0  0
  9 10  1  0  0  0  0
  9 26  1  0  0  0  0
 10 16  1  0  0  0  0
 10 11  1  0  0  0  0
 10 27  1  0  0  0  0
 11 12  1  0  0  0  0
 11 28  1  0  0  0  0
 11 29  1  0  0  0  0
 12 13  1  0  0  0  0
 12 30  1  0  0  0  0
 12 31  1  0  0  0  0
 13 14  1  0  0  0  0
 13 32  1  0  0  0  0
 13 33  1  0  0  0  0
 14 15  1  0  0  0  0
 14 34  1  0  0  0  0
 14 35  1  0  0  0  0
 15 16  1  0  0  0  0
 15 36  1  0  0  0  0
 15 37  1  0  0  0  0
 16 38  1  0  0  0  0
 16 39  1  0  0  0  0
 17 18  2  0  0  0  0
 17 40  1  0  0  0  0
M  END
> <s_m_source_file>
AV-unprocessed.smi

> <i_m_source_file_index>
1541

> <i_lp_mmshare_version>
43012

> <i_f3d_flags>
0

> <s_epik_input>
W0NIM11bQ0gyXW4xW2NIXWMoW2NIXW4xKVtOSF1DKD1PKVtOSF1bQ0hdMltDSDJdW0NIMl1bQ0gyXVtDSDJdW0NIMl1bQ0gyXTI=

> <s_epik_cmdline>
J2VwaWtfcHl0aG9uJywgJy1waCcsICc3LjAnLCAnLXRuJywgJzgnLCAnLW1hJywgJzIwMCcsICctbWV0YWxfYmluZGluZycsICctaW1hZScsICc8aW5maWxlLm1hZT4nLCAnLW9tYWUnLCAnPG91dGZpbGUubWFlPic=

> <r_lp_tautomer_probability>
1

> <r_epik_Ionization_Penalty>
0.000192371

> <r_epik_Ionization_Penalty_Charging>
0

> <r_epik_Ionization_Penalty_Neutral>
0.000192371

> <r_epik_State_Penalty>
-0

> <r_epik_Charging_Adjusted_Penalty>
0

> <i_epik_Tot_Q>
0

> <i_epik_Tot_abs_Q>
0

> <r_epik_Metal_State_Penalty>
-0

> <b_epik_Metal_Only>
0

> <s_lp_Force_Field>
OPLS_2005

> <r_lp_Energy>
18.5955

> <b_lp_Chiralities_Consistent>
1

> <s_lp_Variant>
AV-unprocessed.smi:1541-1

> <Gold.Version>
5.8.1

> <Gold.Id.Protein>
6NUR|6NUR_protein|mol2

> <Gold.PLP.Fitness>
45.0442

> <Gold.PLP.PLP>
-40.0762

> <Gold.PLP.part.hbond>
-1.8857

> <Gold.PLP.part.metal>
0.0000

> <Gold.PLP.part.buried>
-1.4914

> <Gold.PLP.part.nonpolar>
-38.1777

> <Gold.PLP.part.repulsive>
1.8497

> <Gold.PLP.ligand.clash>
0.0000

> <Gold.PLP.ligand.torsion>
0.2155

> <Gold.PLP.Chemscore.Hbond>
1.7930

> <Gold.PLP.Chemscore.CHOScore>
0.0000

> <Gold.PLP.Chemscore.Metal>
0.0000

> <Gold.Chemscore.Hbonds>
donor molecule, donor type, donor heavy atom, donor atom, acceptor molecule, acceptor atom, score
      L1  H     6    25       P1  8028  0.80
      L1  H     9    26       P1  8028  0.96

> <Gold.PLP.Chemscore.Internal.Correction>
0.0200

> <Gold.Rescore>
     Score         DG    S(hbond)    S(metal)    S(lipo)     H(rot)  DE(clash)    DE(int)     intcor
     16.54     -20.64       1.57        0.00     110.13       1.16       1.29       2.80       ----

> <Gold.Chemscore.Fitness>
16.5407

> <Gold.Chemscore.DG>
-20.6356

> <Gold.Chemscore.ZeroCoef>
-5.4800

> <Gold.Chemscore.Hbond>
1.5695

> <Gold.Chemscore.Metal>
0.0000

> <Gold.Chemscore.Lipo>
110.1261

> <Gold.Chemscore.Internal_Hbond>
0.0000

> <Gold.Chemscore.DEClash>
1.2942

> <Gold.Chemscore.DEInternal>
2.8008

> <Gold.Chemscore.Rot>
1.1606

> <Gold.Chemscore.Internal.Correction>
   9.000000E+99

> <Gold.Chemscore.Hbonds>
donor molecule, donor type, donor heavy atom, donor atom, acceptor molecule, acceptor atom, score
      L1  H     6    25       P1  8028  0.75
      L1  H     9    26       P1  8028  0.91

> <Gold.Chemscore.Hbond.Weighted>
-5.2420

> <Gold.Chemscore.Metal.Weighted>
-0.0000

> <Gold.Chemscore.Lipo.Weighted>
-12.8848

> <Gold.Chemscore.Internal_Hbond.Weighted>
0.0000

> <Gold.Chemscore.DEClash.Weighted>
1.2942

> <Gold.Chemscore.DEInternal.Weighted>
2.8008

> <Gold.Chemscore.Rot.Weighted>
2.9712

> <Gold.Chemscore.Internal.Correction.Weighted>
   9.000000E+99

> <Gold.Protein.RotatedTorsions>
[ 6907 6896 6895 6894 ] final   94.03 input  -60.11 | X-H torsion
[ 7974 7965 7964 7962 ] final -143.82 input  175.53 | X-H torsion
[ 8008 7997 7996 7995 ] final   55.22 input   59.86 | X-H torsion
[ 10167 10162 10161 10158 ] final   11.98 input  -65.29 | X-H torsion
[ 10718 10713 10712 10709 ] final   71.52 input   66.30 | X-H torsion
[ 10763 10752 10751 10750 ] final -172.99 input  -60.55 | X-H torsion
[ 11005 11000 10999 10996 ] final    5.83 input  -57.11 | X-H torsion

> <Gold.Protein.ActiveResidues>
 VAL166  LYS551  ARG553  GLY616  TRP617  ASP618  TYR619  PRO620  LYS621  CYS622 
 ASP623  PHE694  ASN695  SER759  ASP760  ASP761  ALA762  ILE779  LEU786  VAL792 
 PHE793  MET794  SER795  GLU796  ALA797  LYS798  CYS799  TRP800  GLU811  SER814 

> <Gold.Protein.RotatedAtoms>
  152.5451  134.1257  159.8417 H   0  0  0  0  0  0  0  0  0  0  0  0  # atno 6907 bound_to 6896
  151.1308  133.5031  159.2606 H   0  0  0  0  0  0  0  0  0  0  0  0  # atno 6908 bound_to 6896
  151.1677  135.0313  159.8793 H   0  0  0  0  0  0  0  0  0  0  0  0  # atno 6909 bound_to 6896
  144.8341  140.5786  143.5495 H   0  0  0  0  0  0  0  0  0  0  0  0  # atno 7974 bound_to 7965
  155.4976  140.3473  155.4365 H   0  0  0  0  0  0  0  0  0  0  0  0  # atno 8008 bound_to 7997
  156.0935  140.1417  156.9588 H   0  0  0  0  0  0  0  0  0  0  0  0  # atno 8009 bound_to 7997
  154.4649  140.0921  156.6972 H   0  0  0  0  0  0  0  0  0  0  0  0  # atno 8010 bound_to 7997
  140.6097  143.8433  150.7052 H   0  0  0  0  0  0  0  0  0  0  0  0  # atno 10167 bound_to 10162
  157.6456  130.9532  150.0801 H   0  0  0  0  0  0  0  0  0  0  0  0  # atno 10718 bound_to 10713
  154.6129  135.2866  155.0412 H   0  0  0  0  0  0  0  0  0  0  0  0  # atno 10763 bound_to 10752
  154.1635  135.6484  153.4995 H   0  0  0  0  0  0  0  0  0  0  0  0  # atno 10764 bound_to 10752
  153.0203  135.5384  154.6890 H   0  0  0  0  0  0  0  0  0  0  0  0  # atno 10765 bound_to 10752
  140.5662  134.0145  155.7991 H   0  0  0  0  0  0  0  0  0  0  0  0  # atno 11005 bound_to 11000
  145.4832  139.1494  143.3751 LP  0  0  0  0  0  0  0  0  0  0  0  0  # atno 17320 bound_to 7965
  146.2642  140.4968  142.8841 LP  0  0  0  0  0  0  0  0  0  0  0  0  # atno 17321 bound_to 7965
  140.1998  143.3968  152.1800 LP  0  0  0  0  0  0  0  0  0  0  0  0  # atno 17342 bound_to 10162
  139.5352  144.7202  151.4918 LP  0  0  0  0  0  0  0  0  0  0  0  0  # atno 17343 bound_to 10162
  156.1780  130.3649  149.9074 LP  0  0  0  0  0  0  0  0  0  0  0  0  # atno 17370 bound_to 10713
  156.7034  130.8942  151.3602 LP  0  0  0  0  0  0  0  0  0  0  0  0  # atno 17371 bound_to 10713
  141.1084  133.9656  157.2955 LP  0  0  0  0  0  0  0  0  0  0  0  0  # atno 17394 bound_to 11000
  139.9383  135.0194  156.8628 LP  0  0  0  0  0  0  0  0  0  0  0  0  # atno 17395 bound_to 11000

$$$$
