AV-unprocessed.smi:528|AV-procd|sdf|2833|dock5
  -GOLD-   2262023323D 1   1.00000     0.00000
 Structure written by MMmdl.
 45 47  0  0  0  0  0  0  0  0  1 V2000
  146.4348  141.0534  155.7504 C   0  0  0  0  0  0  0  0  0  0  0  0
  147.0259  142.1605  156.6408 C   0  0  2  0  0  0  0  0  0  0  0  0
  148.4796  142.1565  156.4822 N   0  0  0  0  0  0  0  0  0  0  0  0
  149.2962  141.1297  156.7632 C   0  0  0  0  0  0  0  0  0  0  0  0
  148.8959  140.0406  157.1770 O   0  0  0  0  0  0  0  0  0  0  0  0
  150.7921  141.3854  156.5268 C   0  0  0  0  0  0  0  0  0  0  0  0
  151.5691  141.5428  157.7682 N   0  0  0  0  0  0  0  0  0  0  0  0
  151.2940  142.6770  158.5574 C   0  0  0  0  0  0  0  0  0  0  0  0
  151.9225  142.9306  159.7214 C   0  0  0  0  0  0  0  0  0  0  0  0
  151.6430  144.1920  160.5238 C   0  0  0  0  0  0  0  0  0  0  0  0
  150.3422  144.3137  160.7893 F   0  0  0  0  0  0  0  0  0  0  0  0
  152.3078  144.1859  161.6799 F   0  0  0  0  0  0  0  0  0  0  0  0
  152.0269  145.2632  159.8309 F   0  0  0  0  0  0  0  0  0  0  0  0
  152.9442  141.9835  160.1223 C   0  0  0  0  0  0  0  0  0  0  0  0
  153.2286  140.9003  159.3732 C   0  0  0  0  0  0  0  0  0  0  0  0
  152.5205  140.6267  158.1206 C   0  0  0  0  0  0  0  0  0  0  0  0
  152.7677  139.6374  157.4304 O   0  0  0  0  0  0  0  0  0  0  0  0
  146.6684  141.9898  158.1383 C   0  0  1  0  0  0  0  0  0  0  0  0
  147.4428  142.9543  159.0725 C   0  0  0  0  0  0  0  0  0  0  0  0
  146.3270  143.6442  159.8770 C   0  0  2  0  0  0  0  0  0  0  0  0
  145.6829  142.6299  160.8391 C   0  0  0  0  0  0  0  0  0  0  0  0
  144.8774  141.7269  159.8869 C   0  0  0  0  0  0  0  0  0  0  0  0
  145.1980  142.3208  158.5015 C   0  0  1  0  0  0  0  0  0  0  0  0
  145.2461  143.8122  158.8184 C   0  0  0  0  0  0  0  0  0  0  0  0
  145.3460  141.0673  155.7529 H   0  0  0  0  0  0  0  0  0  0  0  0
  146.7575  140.0650  156.0792 H   0  0  0  0  0  0  0  0  0  0  0  0
  146.7500  141.1758  154.7135 H   0  0  0  0  0  0  0  0  0  0  0  0
  146.6271  143.1178  156.3014 H   0  0  0  0  0  0  0  0  0  0  0  0
  148.8975  143.0099  156.1406 H   0  0  0  0  0  0  0  0  0  0  0  0
  151.1870  140.5622  155.9298 H   0  0  0  0  0  0  0  0  0  0  0  0
  150.9075  142.2717  155.8996 H   0  0  0  0  0  0  0  0  0  0  0  0
  150.5402  143.3354  158.1504 H   0  0  0  0  0  0  0  0  0  0  0  0
  153.4897  142.1438  161.0407 H   0  0  0  0  0  0  0  0  0  0  0  0
  153.9958  140.2155  159.7033 H   0  0  0  0  0  0  0  0  0  0  0  0
  146.8877  140.9582  158.4195 H   0  0  0  0  0  0  0  0  0  0  0  0
  148.1524  142.4297  159.7129 H   0  0  0  0  0  0  0  0  0  0  0  0
  148.0014  143.7007  158.5057 H   0  0  0  0  0  0  0  0  0  0  0  0
  146.6445  144.5679  160.3617 H   0  0  0  0  0  0  0  0  0  0  0  0
  146.4272  142.0742  161.4106 H   0  0  0  0  0  0  0  0  0  0  0  0
  145.0198  143.1292  161.5466 H   0  0  0  0  0  0  0  0  0  0  0  0
  145.1586  140.6765  159.9683 H   0  0  0  0  0  0  0  0  0  0  0  0
  143.8105  141.8024  160.1012 H   0  0  0  0  0  0  0  0  0  0  0  0
  144.4647  142.0407  157.7465 H   0  0  0  0  0  0  0  0  0  0  0  0
  144.3070  144.1999  159.2179 H   0  0  0  0  0  0  0  0  0  0  0  0
  145.5562  144.4301  157.9742 H   0  0  0  0  0  0  0  0  0  0  0  0
  1  2  1  0  0  0  0
  1 25  1  0  0  0  0
  1 26  1  0  0  0  0
  1 27  1  0  0  0  0
  2  3  1  0  0  0  0
  2 18  1  0  0  0  0
  2 28  1  0  0  0  0
  3  4  1  0  0  0  0
  3 29  1  0  0  0  0
  4  5  2  0  0  0  0
  4  6  1  0  0  0  0
  6  7  1  0  0  0  0
  6 30  1  0  0  0  0
  6 31  1  0  0  0  0
  7 16  1  0  0  0  0
  7  8  1  0  0  0  0
  8  9  2  0  0  0  0
  8 32  1  0  0  0  0
  9 10  1  0  0  0  0
  9 14  1  0  0  0  0
 10 11  1  0  0  0  0
 10 12  1  0  0  0  0
 10 13  1  0  0  0  0
 14 15  2  0  0  0  0
 14 33  1  0  0  0  0
 15 16  1  0  0  0  0
 15 34  1  0  0  0  0
 16 17  2  0  0  0  0
 18 23  1  0  0  0  0
 18 19  1  0  0  0  0
 18 35  1  0  0  0  0
 19 20  1  0  0  0  0
 19 36  1  0  0  0  0
 19 37  1  0  0  0  0
 20 24  1  0  0  0  0
 20 21  1  0  0  0  0
 20 38  1  0  0  0  0
 21 22  1  0  0  0  0
 21 39  1  0  0  0  0
 21 40  1  0  0  0  0
 22 23  1  0  0  0  0
 22 41  1  0  0  0  0
 22 42  1  0  0  0  0
 23 24  1  0  0  0  0
 23 43  1  0  0  0  0
 24 44  1  0  0  0  0
 24 45  1  0  0  0  0
M  END
> <s_m_source_file>
AV-unprocessed.smi

> <i_m_source_file_index>
528

> <i_lp_mmshare_version>
43012

> <i_f3d_flags>
0

> <s_epik_input>
W0NIMl0xW0NIMl1bQ0BASF0oW0NIMl0yKVtDQEBIXShbQ0gyXVtDQEhdMTIpW0NASF0oW0NIM10pW05IXUMoPU8pW0NIMl1uM1tjSF1jKEMoRikoRilGKVtjSF1bY0hdYzM9Tw==

> <s_epik_cmdline>
J2VwaWtfcHl0aG9uJywgJy1waCcsICc3LjAnLCAnLXRuJywgJzgnLCAnLW1hJywgJzIwMCcsICctbWV0YWxfYmluZGluZycsICctaW1hZScsICc8aW5maWxlLm1hZT4nLCAnLW9tYWUnLCAnPG91dGZpbGUubWFlPic=

> <r_lp_tautomer_probability>
1

> <r_epik_Ionization_Penalty>
4.09479e-08

> <r_epik_Ionization_Penalty_Charging>
1.9321e-08

> <r_epik_Ionization_Penalty_Neutral>
2.16269e-08

> <r_epik_State_Penalty>
-0

> <r_epik_Charging_Adjusted_Penalty>
1.9321e-08

> <i_epik_Tot_Q>
0

> <i_epik_Tot_abs_Q>
0

> <r_epik_Metal_State_Penalty>
-0

> <b_epik_Metal_Only>
0

> <s_lp_Force_Field>
OPLS_2005

> <r_lp_Energy>
62.8308

> <b_lp_Chiralities_Consistent>
1

> <s_lp_Variant>
AV-unprocessed.smi:528-3

> <Gold.Version>
5.8.1

> <Gold.Id.Protein>
6NUR|6NUR_protein|mol2

> <Gold.PLP.Fitness>
47.3727

> <Gold.PLP.PLP>
-42.2732

> <Gold.PLP.part.hbond>
-2.0000

> <Gold.PLP.part.metal>
0.0000

> <Gold.PLP.part.buried>
-4.8310

> <Gold.PLP.part.nonpolar>
-34.2770

> <Gold.PLP.part.repulsive>
0.0220

> <Gold.PLP.ligand.clash>
0.0000

> <Gold.PLP.ligand.torsion>
0.4927

> <Gold.PLP.Chemscore.Hbond>
2.0000

> <Gold.PLP.Chemscore.CHOScore>
0.0000

> <Gold.PLP.Chemscore.Metal>
0.0000

> <Gold.Chemscore.Hbonds>
donor molecule, donor type, donor heavy atom, donor atom, acceptor molecule, acceptor atom, score
      L1  H     3    29       P1  8028  1.00
      P1  H  7997  8008       L1    17  1.00

> <Gold.PLP.Chemscore.Internal.Correction>
0.0849

> <Gold.Rescore>
     Score         DG    S(hbond)    S(metal)    S(lipo)     H(rot)  DE(clash)    DE(int)     intcor
     14.70     -16.34       1.92        0.00      75.58       1.71       0.38       1.26       ----

> <Gold.Chemscore.Fitness>
14.6990

> <Gold.Chemscore.DG>
-16.3428

> <Gold.Chemscore.ZeroCoef>
-5.4800

> <Gold.Chemscore.Hbond>
1.9175

> <Gold.Chemscore.Metal>
0.0000

> <Gold.Chemscore.Lipo>
75.5752

> <Gold.Chemscore.Internal_Hbond>
0.0000

> <Gold.Chemscore.DEClash>
0.3794

> <Gold.Chemscore.DEInternal>
1.2645

> <Gold.Chemscore.Rot>
1.7125

> <Gold.Chemscore.Internal.Correction>
   9.000000E+99

> <Gold.Chemscore.Hbonds>
donor molecule, donor type, donor heavy atom, donor atom, acceptor molecule, acceptor atom, score
      L1  H     3    29       P1  8028  0.97
      P1  H  7997  8008       L1    17  0.40

> <Gold.Chemscore.Hbond.Weighted>
-6.4045

> <Gold.Chemscore.Metal.Weighted>
-0.0000

> <Gold.Chemscore.Lipo.Weighted>
-8.8423

> <Gold.Chemscore.Internal_Hbond.Weighted>
0.0000

> <Gold.Chemscore.DEClash.Weighted>
0.3794

> <Gold.Chemscore.DEInternal.Weighted>
1.2645

> <Gold.Chemscore.Rot.Weighted>
4.3840

> <Gold.Chemscore.Internal.Correction.Weighted>
   9.000000E+99

> <Gold.Protein.RotatedTorsions>
[ 6907 6896 6895 6894 ] final  -58.36 input  -60.11 | X-H torsion
[ 7974 7965 7964 7962 ] final -112.12 input  175.53 | X-H torsion
[ 8008 7997 7996 7995 ] final  -57.30 input   59.86 | X-H torsion
[ 10167 10162 10161 10158 ] final -126.02 input  -65.29 | X-H torsion
[ 10718 10713 10712 10709 ] final -101.04 input   66.30 | X-H torsion
[ 10763 10752 10751 10750 ] final  -26.79 input  -60.55 | X-H torsion
[ 11005 11000 10999 10996 ] final -155.77 input  -57.11 | X-H torsion

> <Gold.Protein.ActiveResidues>
 VAL166  LYS551  ARG553  GLY616  TRP617  ASP618  TYR619  PRO620  LYS621  CYS622 
 ASP623  PHE694  ASN695  SER759  ASP760  ASP761  ALA762  ILE779  LEU786  VAL792 
 PHE793  MET794  SER795  GLU796  ALA797  LYS798  CYS799  TRP800  GLU811  SER814 

> <Gold.Protein.RotatedAtoms>
  150.8013  134.7109  159.6602 H   0  0  0  0  0  0  0  0  0  0  0  0  # atno 6907 bound_to 6896
  152.4130  134.6088  160.0029 H   0  0  0  0  0  0  0  0  0  0  0  0  # atno 6908 bound_to 6896
  151.6325  133.3294  159.3148 H   0  0  0  0  0  0  0  0  0  0  0  0  # atno 6909 bound_to 6896
  145.1478  140.8813  143.3664 H   0  0  0  0  0  0  0  0  0  0  0  0  # atno 7974 bound_to 7965
  154.4263  140.1110  156.5775 H   0  0  0  0  0  0  0  0  0  0  0  0  # atno 8008 bound_to 7997
  155.6147  140.3494  155.4614 H   0  0  0  0  0  0  0  0  0  0  0  0  # atno 8009 bound_to 7997
  156.0072  140.1211  157.0479 H   0  0  0  0  0  0  0  0  0  0  0  0  # atno 8010 bound_to 7997
  139.9759  143.5795  152.2396 H   0  0  0  0  0  0  0  0  0  0  0  0  # atno 10167 bound_to 10162
  156.0182  130.5355  150.6905 H   0  0  0  0  0  0  0  0  0  0  0  0  # atno 10718 bound_to 10713
  153.7216  135.6944  153.5011 H   0  0  0  0  0  0  0  0  0  0  0  0  # atno 10763 bound_to 10752
  153.2200  135.4373  155.0477 H   0  0  0  0  0  0  0  0  0  0  0  0  # atno 10764 bound_to 10752
  154.8282  135.3458  154.6749 H   0  0  0  0  0  0  0  0  0  0  0  0  # atno 10765 bound_to 10752
  140.6829  134.4125  157.5225 H   0  0  0  0  0  0  0  0  0  0  0  0  # atno 11005 bound_to 11000
  145.0463  139.3218  143.5951 LP  0  0  0  0  0  0  0  0  0  0  0  0  # atno 17320 bound_to 7965
  146.3498  139.9854  142.8691 LP  0  0  0  0  0  0  0  0  0  0  0  0  # atno 17321 bound_to 7965
  139.6446  144.7657  151.2269 LP  0  0  0  0  0  0  0  0  0  0  0  0  # atno 17342 bound_to 10162
  140.7506  143.6260  150.8468 LP  0  0  0  0  0  0  0  0  0  0  0  0  # atno 17343 bound_to 10162
  157.4587  131.0881  151.0768 LP  0  0  0  0  0  0  0  0  0  0  0  0  # atno 17370 bound_to 10713
  157.1262  130.6083  149.5518 LP  0  0  0  0  0  0  0  0  0  0  0  0  # atno 17371 bound_to 10713
  139.8946  134.8702  156.2169 LP  0  0  0  0  0  0  0  0  0  0  0  0  # atno 17394 bound_to 11000
  141.0303  133.6992  156.1419 LP  0  0  0  0  0  0  0  0  0  0  0  0  # atno 17395 bound_to 11000

$$$$
