AV-unprocessed.smi:547|AV-procd|sdf|2889|dock8
  -GOLD-   2262023383D 1   1.00000     0.00000
 Structure written by MMmdl.
 37 38  0  0  0  0  0  0  0  0  1 V2000
  150.0235  140.1659  154.4353 O   0  0  0  0  0  0  0  0  0  0  0  0
  149.4634  141.1999  154.8000 C   0  0  0  0  0  0  0  0  0  0  0  0
  148.1364  141.6269  154.1535 C   0  0  0  0  0  0  0  0  0  0  0  0
  147.0300  141.9682  155.0778 N   0  0  0  0  0  0  0  0  0  0  0  0
  147.0248  141.3414  156.3193 N   0  0  0  0  0  0  0  0  0  0  0  0
  146.0956  141.6097  157.1695 C   0  0  0  0  0  0  0  0  0  0  0  0
  145.0360  142.5479  156.8787 C   0  0  0  0  0  0  0  0  0  0  0  0
  143.8151  142.8696  158.0592 Cl  0  0  0  0  0  0  0  0  0  0  0  0
  145.0399  143.1502  155.6636 C   0  0  0  0  0  0  0  0  0  0  0  0
  143.8007  144.2819  155.2415 Cl  0  0  0  0  0  0  0  0  0  0  0  0
  146.0843  142.8681  154.6682 C   0  0  0  0  0  0  0  0  0  0  0  0
  146.1133  143.3936  153.5544 O   0  0  0  0  0  0  0  0  0  0  0  0
  149.9457  142.0052  155.7583 N   0  0  0  0  0  0  0  0  0  0  0  0
  151.1298  141.7332  156.5659 C   0  0  0  0  0  0  0  0  0  0  0  0
  151.2988  142.7404  157.7256 C   0  0  0  0  0  0  0  0  0  0  0  0
  151.6784  144.1571  157.2374 C   0  0  0  0  0  0  0  0  0  0  0  0
  151.8424  145.1351  158.4116 C   0  0  0  0  0  0  0  0  0  0  0  0
  152.8737  144.6191  159.4261 C   0  0  0  0  0  0  0  0  0  0  0  0
  152.5036  143.2131  159.9221 C   0  0  0  0  0  0  0  0  0  0  0  0
  152.3357  142.2339  158.7484 C   0  0  0  0  0  0  0  0  0  0  0  0
  148.3401  142.4752  153.4966 H   0  0  0  0  0  0  0  0  0  0  0  0
  147.8045  140.8152  153.5041 H   0  0  0  0  0  0  0  0  0  0  0  0
  146.0590  141.1428  158.1538 H   0  0  0  0  0  0  0  0  0  0  0  0
  149.4251  142.8414  155.9801 H   0  0  0  0  0  0  0  0  0  0  0  0
  151.0814  140.7133  156.9518 H   0  0  0  0  0  0  0  0  0  0  0  0
  151.9995  141.7726  155.9095 H   0  0  0  0  0  0  0  0  0  0  0  0
  150.3421  142.8162  158.2450 H   0  0  0  0  0  0  0  0  0  0  0  0
  152.6067  144.1136  156.6662 H   0  0  0  0  0  0  0  0  0  0  0  0
  150.9178  144.5464  156.5602 H   0  0  0  0  0  0  0  0  0  0  0  0
  152.1435  146.1151  158.0404 H   0  0  0  0  0  0  0  0  0  0  0  0
  150.8801  145.2749  158.9065 H   0  0  0  0  0  0  0  0  0  0  0  0
  153.8614  144.5963  158.9643 H   0  0  0  0  0  0  0  0  0  0  0  0
  152.9424  145.3063  160.2699 H   0  0  0  0  0  0  0  0  0  0  0  0
  153.2703  142.8464  160.6051 H   0  0  0  0  0  0  0  0  0  0  0  0
  151.5765  143.2596  160.4950 H   0  0  0  0  0  0  0  0  0  0  0  0
  152.0360  141.2573  159.1306 H   0  0  0  0  0  0  0  0  0  0  0  0
  153.2987  142.0896  158.2565 H   0  0  0  0  0  0  0  0  0  0  0  0
  1  2  2  0  0  0  0
  2  3  1  0  0  0  0
  2 13  1  0  0  0  0
  3  4  1  0  0  0  0
  3 21  1  0  0  0  0
  3 22  1  0  0  0  0
  4 11  1  0  0  0  0
  4  5  1  0  0  0  0
  5  6  2  0  0  0  0
  6  7  1  0  0  0  0
  6 23  1  0  0  0  0
  7  8  1  0  0  0  0
  7  9  2  0  0  0  0
  9 10  1  0  0  0  0
  9 11  1  0  0  0  0
 11 12  2  0  0  0  0
 13 14  1  0  0  0  0
 13 24  1  0  0  0  0
 14 15  1  0  0  0  0
 14 25  1  0  0  0  0
 14 26  1  0  0  0  0
 15 20  1  0  0  0  0
 15 16  1  0  0  0  0
 15 27  1  0  0  0  0
 16 17  1  0  0  0  0
 16 28  1  0  0  0  0
 16 29  1  0  0  0  0
 17 18  1  0  0  0  0
 17 30  1  0  0  0  0
 17 31  1  0  0  0  0
 18 19  1  0  0  0  0
 18 32  1  0  0  0  0
 18 33  1  0  0  0  0
 19 20  1  0  0  0  0
 19 34  1  0  0  0  0
 19 35  1  0  0  0  0
 20 36  1  0  0  0  0
 20 37  1  0  0  0  0
M  END
> <s_m_source_file>
AV-unprocessed.smi

> <i_m_source_file_index>
547

> <i_lp_mmshare_version>
43012

> <i_f3d_flags>
0

> <s_epik_input>
W0NIMl0xW0NIMl1bQ0gyXVtDSDJdW0NIMl1bQ0hdMVtDSDJdW05IXUMoPU8pW0NIMl1uMm5bY0hdYyhDbCljKENsKWMyPU8=

> <s_epik_cmdline>
J2VwaWtfcHl0aG9uJywgJy1waCcsICc3LjAnLCAnLXRuJywgJzgnLCAnLW1hJywgJzIwMCcsICctbWV0YWxfYmluZGluZycsICctaW1hZScsICc8aW5maWxlLm1hZT4nLCAnLW9tYWUnLCAnPG91dGZpbGUubWFlPic=

> <r_lp_tautomer_probability>
1

> <r_epik_Ionization_Penalty>
1.98263e-08

> <r_epik_Ionization_Penalty_Charging>
2.84997e-11

> <r_epik_Ionization_Penalty_Neutral>
1.97978e-08

> <r_epik_State_Penalty>
-0

> <r_epik_Charging_Adjusted_Penalty>
2.84997e-11

> <i_epik_Tot_Q>
0

> <i_epik_Tot_abs_Q>
0

> <r_epik_Metal_State_Penalty>
-0

> <b_epik_Metal_Only>
0

> <s_lp_Force_Field>
OPLS_2005

> <r_lp_Energy>
30.5704

> <b_lp_Chiralities_Consistent>
1

> <s_lp_Variant>
AV-unprocessed.smi:547-1

> <Gold.Version>
5.8.1

> <Gold.Id.Protein>
6NUR|6NUR_protein|mol2

> <Gold.PLP.Fitness>
46.3913

> <Gold.PLP.PLP>
-41.5431

> <Gold.PLP.part.hbond>
-3.0000

> <Gold.PLP.part.metal>
0.0000

> <Gold.PLP.part.buried>
-3.5869

> <Gold.PLP.part.nonpolar>
-35.3155

> <Gold.PLP.part.repulsive>
0.5319

> <Gold.PLP.ligand.clash>
0.0000

> <Gold.PLP.ligand.torsion>
0.5698

> <Gold.PLP.Chemscore.Hbond>
1.9920

> <Gold.PLP.Chemscore.CHOScore>
0.0000

> <Gold.PLP.Chemscore.Metal>
0.0000

> <Gold.Chemscore.Hbonds>
donor molecule, donor type, donor heavy atom, donor atom, acceptor molecule, acceptor atom, score
      L1  H    13    24       P1  8028  1.00
      P1  H  7989  7998       L1     1  1.00

> <Gold.PLP.Chemscore.Internal.Correction>
0.0118

> <Gold.Rescore>
     Score         DG    S(hbond)    S(metal)    S(lipo)     H(rot)  DE(clash)    DE(int)     intcor
     16.83     -17.32       1.62        0.00      92.27       1.71       0.03       0.46       ----

> <Gold.Chemscore.Fitness>
16.8321

> <Gold.Chemscore.DG>
-17.3196

> <Gold.Chemscore.ZeroCoef>
-5.4800

> <Gold.Chemscore.Hbond>
1.6232

> <Gold.Chemscore.Metal>
0.0000

> <Gold.Chemscore.Lipo>
92.2689

> <Gold.Chemscore.Internal_Hbond>
0.0000

> <Gold.Chemscore.DEClash>
0.0290

> <Gold.Chemscore.DEInternal>
0.4585

> <Gold.Chemscore.Rot>
1.7099

> <Gold.Chemscore.Internal.Correction>
   9.000000E+99

> <Gold.Chemscore.Hbonds>
donor molecule, donor type, donor heavy atom, donor atom, acceptor molecule, acceptor atom, score
      L1  H    13    24       P1  8028  0.94
      P1  H  7989  7998       L1     1  0.32

> <Gold.Chemscore.Hbond.Weighted>
-5.4215

> <Gold.Chemscore.Metal.Weighted>
-0.0000

> <Gold.Chemscore.Lipo.Weighted>
-10.7955

> <Gold.Chemscore.Internal_Hbond.Weighted>
0.0000

> <Gold.Chemscore.DEClash.Weighted>
0.0290

> <Gold.Chemscore.DEInternal.Weighted>
0.4585

> <Gold.Chemscore.Rot.Weighted>
4.3774

> <Gold.Chemscore.Internal.Correction.Weighted>
   9.000000E+99

> <Gold.Protein.RotatedTorsions>
[ 6907 6896 6895 6894 ] final  164.39 input  -60.11 | X-H torsion
[ 7974 7965 7964 7962 ] final   -3.31 input  175.53 | X-H torsion
[ 8008 7997 7996 7995 ] final  169.36 input   59.86 | X-H torsion
[ 10167 10162 10161 10158 ] final  140.50 input  -65.29 | X-H torsion
[ 10718 10713 10712 10709 ] final -141.97 input   66.30 | X-H torsion
[ 10763 10752 10751 10750 ] final -156.42 input  -60.55 | X-H torsion
[ 11005 11000 10999 10996 ] final  107.25 input  -57.11 | X-H torsion

> <Gold.Protein.ActiveResidues>
 VAL166  LYS551  ARG553  GLY616  TRP617  ASP618  TYR619  PRO620  LYS621  CYS622 
 ASP623  PHE694  ASN695  SER759  ASP760  ASP761  ALA762  ILE779  LEU786  VAL792 
 PHE793  MET794  SER795  GLU796  ALA797  LYS798  CYS799  TRP800  GLU811  SER814 

> <Gold.Protein.RotatedAtoms>
  151.9106  133.3560  159.3861 H   0  0  0  0  0  0  0  0  0  0  0  0  # atno 6907 bound_to 6896
  150.7059  134.4736  159.5446 H   0  0  0  0  0  0  0  0  0  0  0  0  # atno 6908 bound_to 6896
  152.2341  134.8293  160.0520 H   0  0  0  0  0  0  0  0  0  0  0  0  # atno 6909 bound_to 6896
  146.2391  140.1703  142.8332 H   0  0  0  0  0  0  0  0  0  0  0  0  # atno 7974 bound_to 7965
  156.1464  140.1566  156.8839 H   0  0  0  0  0  0  0  0  0  0  0  0  # atno 8008 bound_to 7997
  154.5032  140.0820  156.7879 H   0  0  0  0  0  0  0  0  0  0  0  0  # atno 8009 bound_to 7997
  155.3980  140.3413  155.4257 H   0  0  0  0  0  0  0  0  0  0  0  0  # atno 8010 bound_to 7997
  139.5047  144.6230  151.6006 H   0  0  0  0  0  0  0  0  0  0  0  0  # atno 10167 bound_to 10162
  156.3404  130.7634  151.1769 H   0  0  0  0  0  0  0  0  0  0  0  0  # atno 10718 bound_to 10713
  154.7714  135.3146  154.8181 H   0  0  0  0  0  0  0  0  0  0  0  0  # atno 10763 bound_to 10752
  153.8916  135.6825  153.4764 H   0  0  0  0  0  0  0  0  0  0  0  0  # atno 10764 bound_to 10752
  153.1329  135.4772  154.9311 H   0  0  0  0  0  0  0  0  0  0  0  0  # atno 10765 bound_to 10752
  139.8825  134.9395  156.5791 H   0  0  0  0  0  0  0  0  0  0  0  0  # atno 11005 bound_to 11000
  145.0017  140.8638  143.5277 LP  0  0  0  0  0  0  0  0  0  0  0  0  # atno 17320 bound_to 7965
  145.1723  139.2397  143.5335 LP  0  0  0  0  0  0  0  0  0  0  0  0  # atno 17321 bound_to 7965
  140.5938  143.9733  150.6341 LP  0  0  0  0  0  0  0  0  0  0  0  0  # atno 17342 bound_to 10162
  140.2922  143.3317  152.1052 LP  0  0  0  0  0  0  0  0  0  0  0  0  # atno 17343 bound_to 10162
  157.7446  131.0456  150.4852 LP  0  0  0  0  0  0  0  0  0  0  0  0  # atno 17370 bound_to 10713
  156.5031  130.4122  149.6342 LP  0  0  0  0  0  0  0  0  0  0  0  0  # atno 17371 bound_to 10713
  140.8041  133.8482  155.8752 LP  0  0  0  0  0  0  0  0  0  0  0  0  # atno 17394 bound_to 11000
  140.9566  134.1710  157.4687 LP  0  0  0  0  0  0  0  0  0  0  0  0  # atno 17395 bound_to 11000

$$$$
