AV-unprocessed.smi:1126|AV-procd|sdf|4837|dock5
  -GOLD-   22720 3403D 1   1.00000     0.00000
 Structure written by MMmdl.
 48 49  0  0  0  0  0  0  0  0  2 V2000
  141.8285  135.2032  153.4980 C   0  0  0  0  0  0  0  0  0  0  0  0
  143.1889  135.5195  153.2576 O   0  0  0  0  0  0  0  0  0  0  0  0
  143.3846  136.8936  152.9670 C   0  0  0  0  0  0  0  0  0  0  0  0
  144.8753  137.1371  152.6838 C   0  0  0  0  0  0  0  0  0  0  0  0
  145.3575  138.4338  153.2248 N   0  3  2  0  0  0  0  0  0  0  0  0
  146.7538  138.7276  152.8125 C   0  0  0  0  0  0  0  0  0  0  0  0
  147.1832  140.1356  153.2571 C   0  0  0  0  0  0  0  0  0  0  0  0
  147.0271  140.3179  154.7796 C   0  0  1  0  0  0  0  0  0  0  0  0
  147.4047  141.7353  155.2488 C   0  0  0  0  0  0  0  0  0  0  0  0
  148.8433  141.8718  155.4328 N   0  0  0  0  0  0  0  0  0  0  0  0
  149.4818  141.6723  156.5949 C   0  0  0  0  0  0  0  0  0  0  0  0
  148.9084  141.3612  157.6385 O   0  0  0  0  0  0  0  0  0  0  0  0
  151.0003  141.8499  156.5780 C   0  0  0  0  0  0  0  0  0  0  0  0
  151.4386  142.6983  157.6716 N   0  0  0  0  0  0  0  0  0  0  0  0
  151.1743  144.0364  157.8758 C   0  0  0  0  0  0  0  0  0  0  0  0
  151.7897  144.4045  159.0386 C   0  0  0  0  0  0  0  0  0  0  0  0
  151.8096  145.7508  159.7034 C   0  0  0  0  0  0  0  0  0  0  0  0
  152.4131  143.2020  159.4779 C   0  0  0  0  0  0  0  0  0  0  0  0
  152.2011  142.1834  158.6602 N   0  0  0  0  0  0  0  0  0  0  0  0
  145.5828  139.9685  155.1773 C   0  0  0  0  0  0  0  0  0  0  0  0
  145.1899  138.5618  154.6964 C   0  0  0  0  0  0  0  0  0  0  0  0
  141.7311  134.1375  153.7052 H   0  0  0  0  0  0  0  0  0  0  0  0
  141.2096  135.4344  152.6302 H   0  0  0  0  0  0  0  0  0  0  0  0
  141.4427  135.7498  154.3596 H   0  0  0  0  0  0  0  0  0  0  0  0
  142.7600  137.2040  152.1293 H   0  0  0  0  0  0  0  0  0  0  0  0
  143.0807  137.4923  153.8272 H   0  0  0  0  0  0  0  0  0  0  0  0
  145.4786  136.3237  153.0894 H   0  0  0  0  0  0  0  0  0  0  0  0
  145.0183  137.1155  151.6024 H   0  0  0  0  0  0  0  0  0  0  0  0
  147.4247  137.9775  153.2345 H   0  0  0  0  0  0  0  0  0  0  0  0
  146.8407  138.6561  151.7277 H   0  0  0  0  0  0  0  0  0  0  0  0
  148.2174  140.3057  152.9561 H   0  0  0  0  0  0  0  0  0  0  0  0
  146.5839  140.8814  152.7324 H   0  0  0  0  0  0  0  0  0  0  0  0
  147.6921  139.6105  155.2781 H   0  0  0  0  0  0  0  0  0  0  0  0
  147.0570  142.4751  154.5257 H   0  0  0  0  0  0  0  0  0  0  0  0
  146.9104  141.9587  156.1956 H   0  0  0  0  0  0  0  0  0  0  0  0
  149.3936  142.1175  154.6224 H   0  0  0  0  0  0  0  0  0  0  0  0
  151.4927  140.8783  156.6463 H   0  0  0  0  0  0  0  0  0  0  0  0
  151.3130  142.3031  155.6363 H   0  0  0  0  0  0  0  0  0  0  0  0
  150.5741  144.6087  157.1835 H   0  0  0  0  0  0  0  0  0  0  0  0
  152.5445  145.7955  160.5074 H   0  0  0  0  0  0  0  0  0  0  0  0
  150.8414  145.9976  160.1392 H   0  0  0  0  0  0  0  0  0  0  0  0
  152.0570  146.5443  158.9982 H   0  0  0  0  0  0  0  0  0  0  0  0
  153.0099  143.0403  160.3634 H   0  0  0  0  0  0  0  0  0  0  0  0
  145.4702  140.0274  156.2605 H   0  0  0  0  0  0  0  0  0  0  0  0
  144.8941  140.7025  154.7560 H   0  0  0  0  0  0  0  0  0  0  0  0
  144.1558  138.3726  154.9811 H   0  0  0  0  0  0  0  0  0  0  0  0
  145.7981  137.8092  155.2010 H   0  0  0  0  0  0  0  0  0  0  0  0
  144.7833  139.1477  152.7990 H   0  0  0  0  0  0  0  0  0  0  0  0
  1  2  1  0  0  0  0
  1 22  1  0  0  0  0
  1 23  1  0  0  0  0
  1 24  1  0  0  0  0
  2  3  1  0  0  0  0
  3  4  1  0  0  0  0
  3 25  1  0  0  0  0
  3 26  1  0  0  0  0
  4  5  1  0  0  0  0
  4 27  1  0  0  0  0
  4 28  1  0  0  0  0
  5 21  1  0  0  0  0
  5  6  1  0  0  0  0
  5 48  1  0  0  0  0
  6  7  1  0  0  0  0
  6 29  1  0  0  0  0
  6 30  1  0  0  0  0
  7  8  1  0  0  0  0
  7 31  1  0  0  0  0
  7 32  1  0  0  0  0
  8  9  1  0  0  0  0
  8 20  1  0  0  0  0
  8 33  1  0  0  0  0
  9 10  1  0  0  0  0
  9 34  1  0  0  0  0
  9 35  1  0  0  0  0
 10 11  1  0  0  0  0
 10 36  1  0  0  0  0
 11 12  2  0  0  0  0
 11 13  1  0  0  0  0
 13 14  1  0  0  0  0
 13 37  1  0  0  0  0
 13 38  1  0  0  0  0
 14 19  1  0  0  0  0
 14 15  1  0  0  0  0
 15 16  2  0  0  0  0
 15 39  1  0  0  0  0
 16 17  1  0  0  0  0
 16 18  1  0  0  0  0
 17 40  1  0  0  0  0
 17 41  1  0  0  0  0
 17 42  1  0  0  0  0
 18 19  2  0  0  0  0
 18 43  1  0  0  0  0
 20 21  1  0  0  0  0
 20 44  1  0  0  0  0
 20 45  1  0  0  0  0
 21 46  1  0  0  0  0
 21 47  1  0  0  0  0
M  CHG  1   5   1
M  END
> <s_m_source_file>
AV-unprocessed.smi

> <i_m_source_file_index>
1126

> <i_lp_mmshare_version>
43012

> <i_f3d_flags>
0

> <s_epik_input>
W0NIM11PW0NIMl1bQ0gyXU4xW0NIMl1bQ0gyXVtDSF0oW0NIMl1bQ0gyXTEpW0NIMl1bTkhdQyg9TylbQ0gyXW4yW2NIXWMoW0NIM10pW2NIXW4y

> <s_epik_cmdline>
J2VwaWtfcHl0aG9uJywgJy1waCcsICc3LjAnLCAnLXRuJywgJzgnLCAnLW1hJywgJzIwMCcsICctbWV0YWxfYmluZGluZycsICctaW1hZScsICc8aW5maWxlLm1hZT4nLCAnLW9tYWUnLCAnPG91dGZpbGUubWFlPic=

> <r_lp_tautomer_probability>
1

> <r_epik_Ionization_Penalty>
0.00992859

> <r_epik_Ionization_Penalty_Charging>
0.00990284

> <r_epik_Ionization_Penalty_Neutral>
2.57527e-05

> <r_epik_State_Penalty>
0.00754525

> <r_epik_Charging_Adjusted_Penalty>
0.0174481

> <i_epik_Tot_Q>
1

> <i_epik_Tot_abs_Q>
1

> <r_epik_Metal_State_Penalty>
0.00754529

> <b_epik_Metal_Only>
0

> <s_lp_Force_Field>
OPLS_2005

> <r_lp_Energy>
19.6202

> <b_lp_Chiralities_Consistent>
1

> <s_lp_Variant>
AV-unprocessed.smi:1126-1

> <Gold.Version>
5.8.1

> <Gold.Id.Protein>
6NUR|6NUR_protein|mol2

> <Gold.PLP.Fitness>
47.2498

> <Gold.PLP.PLP>
-39.9493

> <Gold.PLP.part.hbond>
-2.0000

> <Gold.PLP.part.metal>
0.0000

> <Gold.PLP.part.buried>
-5.6632

> <Gold.PLP.part.nonpolar>
-34.0247

> <Gold.PLP.part.repulsive>
0.3062

> <Gold.PLP.ligand.clash>
0.0000

> <Gold.PLP.ligand.torsion>
0.8679

> <Gold.PLP.Chemscore.Hbond>
2.0000

> <Gold.PLP.Chemscore.CHOScore>
1.0000

> <Gold.PLP.Chemscore.Metal>
0.0000

> <Gold.Chemscore.Hbonds>
donor molecule, donor type, donor heavy atom, donor atom, acceptor molecule, acceptor atom, score
      L1  H     5    48       P1 10175  2.00
      L1  C    15    39       P1  8028  1.00

> <Gold.PLP.Chemscore.Internal.Correction>
0.0362

> <Gold.Rescore>
     Score         DG    S(hbond)    S(metal)    S(lipo)     H(rot)  DE(clash)    DE(int)     intcor
     13.81     -14.84       0.99        0.00      97.56       2.10       0.06       0.96       ----

> <Gold.Chemscore.Fitness>
13.8145

> <Gold.Chemscore.DG>
-14.8353

> <Gold.Chemscore.ZeroCoef>
-5.4800

> <Gold.Chemscore.Hbond>
0.9934

> <Gold.Chemscore.Metal>
0.0000

> <Gold.Chemscore.Lipo>
97.5632

> <Gold.Chemscore.Internal_Hbond>
0.0000

> <Gold.Chemscore.DEClash>
0.0581

> <Gold.Chemscore.DEInternal>
0.9627

> <Gold.Chemscore.Rot>
2.1006

> <Gold.Chemscore.Internal.Correction>
   9.000000E+99

> <Gold.Chemscore.Hbonds>
donor molecule, donor type, donor heavy atom, donor atom, acceptor molecule, acceptor atom, score
      L1  H     5    48       P1 10175  1.00

> <Gold.Chemscore.Hbond.Weighted>
-3.3180

> <Gold.Chemscore.Metal.Weighted>
-0.0000

> <Gold.Chemscore.Lipo.Weighted>
-11.4149

> <Gold.Chemscore.Internal_Hbond.Weighted>
0.0000

> <Gold.Chemscore.DEClash.Weighted>
0.0581

> <Gold.Chemscore.DEInternal.Weighted>
0.9627

> <Gold.Chemscore.Rot.Weighted>
5.3775

> <Gold.Chemscore.Internal.Correction.Weighted>
   9.000000E+99

> <Gold.Protein.RotatedTorsions>
[ 6907 6896 6895 6894 ] final -151.67 input  -60.11 | X-H torsion
[ 7974 7965 7964 7962 ] final -157.19 input  175.53 | X-H torsion
[ 8008 7997 7996 7995 ] final  -77.99 input   59.86 | X-H torsion
[ 10167 10162 10161 10158 ] final  -86.26 input  -65.29 | X-H torsion
[ 10718 10713 10712 10709 ] final   11.56 input   66.30 | X-H torsion
[ 10763 10752 10751 10750 ] final  130.03 input  -60.55 | X-H torsion
[ 11005 11000 10999 10996 ] final -118.98 input  -57.11 | X-H torsion

> <Gold.Protein.ActiveResidues>
 VAL166  LYS551  ARG553  GLY616  TRP617  ASP618  TYR619  PRO620  LYS621  CYS622 
 ASP623  PHE694  ASN695  SER759  ASP760  ASP761  ALA762  ILE779  LEU786  VAL792 
 PHE793  MET794  SER795  GLU796  ALA797  LYS798  CYS799  TRP800  GLU811  SER814 

> <Gold.Protein.RotatedAtoms>
  151.2165  133.4526  159.2599 H   0  0  0  0  0  0  0  0  0  0  0  0  # atno 6907 bound_to 6896
  151.0925  134.9925  159.8420 H   0  0  0  0  0  0  0  0  0  0  0  0  # atno 6908 bound_to 6896
  152.5436  134.2098  159.8798 H   0  0  0  0  0  0  0  0  0  0  0  0  # atno 6909 bound_to 6896
  144.7559  140.4003  143.6013 H   0  0  0  0  0  0  0  0  0  0  0  0  # atno 7974 bound_to 7965
  154.5648  140.0701  156.8874 H   0  0  0  0  0  0  0  0  0  0  0  0  # atno 8008 bound_to 7997
  155.2744  140.3367  155.4244 H   0  0  0  0  0  0  0  0  0  0  0  0  # atno 8009 bound_to 7997
  156.2071  140.1744  156.7761 H   0  0  0  0  0  0  0  0  0  0  0  0  # atno 8010 bound_to 7997
  140.3959  143.2684  151.9205 H   0  0  0  0  0  0  0  0  0  0  0  0  # atno 10167 bound_to 10162
  156.9974  130.6066  149.5692 H   0  0  0  0  0  0  0  0  0  0  0  0  # atno 10718 bound_to 10713
  153.7514  135.3209  155.3322 H   0  0  0  0  0  0  0  0  0  0  0  0  # atno 10763 bound_to 10752
  154.8261  135.4568  154.0928 H   0  0  0  0  0  0  0  0  0  0  0  0  # atno 10764 bound_to 10752
  153.2132  135.6938  153.8172 H   0  0  0  0  0  0  0  0  0  0  0  0  # atno 10765 bound_to 10752
  141.0248  134.0070  157.3231 H   0  0  0  0  0  0  0  0  0  0  0  0  # atno 11005 bound_to 11000
  145.6781  139.1613  143.2716 LP  0  0  0  0  0  0  0  0  0  0  0  0  # atno 17320 bound_to 7965
  146.1568  140.6846  142.9296 LP  0  0  0  0  0  0  0  0  0  0  0  0  # atno 17321 bound_to 7965
  139.4787  144.5682  151.8131 LP  0  0  0  0  0  0  0  0  0  0  0  0  # atno 17342 bound_to 10162
  140.4791  144.1475  150.5929 LP  0  0  0  0  0  0  0  0  0  0  0  0  # atno 17343 bound_to 10162
  156.0184  130.5278  150.8203 LP  0  0  0  0  0  0  0  0  0  0  0  0  # atno 17370 bound_to 10713
  157.5415  131.0941  150.9821 LP  0  0  0  0  0  0  0  0  0  0  0  0  # atno 17371 bound_to 10713
  139.9169  135.0197  156.7914 LP  0  0  0  0  0  0  0  0  0  0  0  0  # atno 17394 bound_to 11000
  140.6511  133.9731  155.7755 LP  0  0  0  0  0  0  0  0  0  0  0  0  # atno 17395 bound_to 11000

$$$$
