AV-unprocessed.smi:3054|AV-procd|sdf|11639|dock4
  -GOLD-   2272017 33D 1   1.00000     0.00000
 Structure written by MMmdl.
 40 41  0  0  0  0  0  0  0  0  2 V2000
  147.6938  141.9068  154.0792 C   0  0  0  0  0  0  0  0  0  0  0  0
  148.6091  140.7269  154.4419 C   0  0  0  0  0  0  0  0  0  0  0  0
  148.5397  139.5266  153.4584 C   0  0  2  0  0  0  0  0  0  0  0  0
  147.0966  138.9869  153.2886 C   0  0  0  0  0  0  0  0  0  0  0  0
  147.0722  137.6986  152.6029 N   0  0  0  0  0  0  0  0  0  0  0  0
  145.9616  137.0393  152.2464 C   0  0  0  0  0  0  0  0  0  0  0  0
  144.8239  137.4531  152.4684 O   0  0  0  0  0  0  0  0  0  0  0  0
  146.2577  135.8871  151.6238 N   0  0  0  0  0  0  0  0  0  0  0  0
  145.3463  134.9322  151.1080 C   0  0  0  0  0  0  0  0  0  0  0  0
  145.4901  133.5184  150.9897 C   0  0  0  0  0  0  0  0  0  0  0  0
  144.4100  132.9700  150.4516 N   0  0  0  0  0  0  0  0  0  0  0  0
  143.5819  134.0146  150.2262 N   0  0  0  0  0  0  0  0  0  0  0  0
  144.1119  135.2264  150.6105 C   0  0  0  0  0  0  0  0  0  0  0  0
  149.4921  138.4467  153.8536 N   0  3  0  0  0  0  0  0  0  0  0  0
  150.8796  138.8776  154.1320 C   0  0  0  0  0  0  0  0  0  0  0  0
  151.4893  137.7429  154.9466 C   0  0  0  0  0  0  0  0  0  0  0  0
  150.3281  137.2857  155.8218 C   0  0  0  0  0  0  0  0  0  0  0  0
  149.0682  137.6152  155.0092 C   0  0  0  0  0  0  0  0  0  0  0  0
  142.6689  133.8853  149.8139 H   0  0  0  0  0  0  0  0  0  0  0  0
  147.7693  142.6944  154.8293 H   0  0  0  0  0  0  0  0  0  0  0  0
  146.6483  141.6025  154.0276 H   0  0  0  0  0  0  0  0  0  0  0  0
  147.9656  142.3469  153.1198 H   0  0  0  0  0  0  0  0  0  0  0  0
  149.6348  141.0911  154.5060 H   0  0  0  0  0  0  0  0  0  0  0  0
  148.3734  140.4002  155.4544 H   0  0  0  0  0  0  0  0  0  0  0  0
  148.8631  139.8896  152.4813 H   0  0  0  0  0  0  0  0  0  0  0  0
  146.6217  138.8329  154.2576 H   0  0  0  0  0  0  0  0  0  0  0  0
  146.4872  139.7215  152.7594 H   0  0  0  0  0  0  0  0  0  0  0  0
  147.9641  137.2804  152.3819 H   0  0  0  0  0  0  0  0  0  0  0  0
  147.2363  135.6686  151.5072 H   0  0  0  0  0  0  0  0  0  0  0  0
  146.3157  132.8797  151.2654 H   0  0  0  0  0  0  0  0  0  0  0  0
  143.5801  136.1598  150.4989 H   0  0  0  0  0  0  0  0  0  0  0  0
  151.4410  139.0680  153.2167 H   0  0  0  0  0  0  0  0  0  0  0  0
  150.8701  139.7931  154.7263 H   0  0  0  0  0  0  0  0  0  0  0  0
  151.7961  136.9329  154.2835 H   0  0  0  0  0  0  0  0  0  0  0  0
  152.3600  138.0547  155.5244 H   0  0  0  0  0  0  0  0  0  0  0  0
  150.3955  136.2286  156.0814 H   0  0  0  0  0  0  0  0  0  0  0  0
  150.3238  137.8554  156.7521 H   0  0  0  0  0  0  0  0  0  0  0  0
  148.3529  138.1400  155.6442 H   0  0  0  0  0  0  0  0  0  0  0  0
  148.5845  136.7099  154.6411 H   0  0  0  0  0  0  0  0  0  0  0  0
  149.5583  137.8142  153.0687 H   0  0  0  0  0  0  0  0  0  0  0  0
  1  2  1  0  0  0  0
  1 20  1  0  0  0  0
  1 21  1  0  0  0  0
  1 22  1  0  0  0  0
  2  3  1  0  0  0  0
  2 23  1  0  0  0  0
  2 24  1  0  0  0  0
  3  4  1  0  0  0  0
  3 14  1  0  0  0  0
  3 25  1  0  0  0  0
  4  5  1  0  0  0  0
  4 26  1  0  0  0  0
  4 27  1  0  0  0  0
  5  6  1  0  0  0  0
  5 28  1  0  0  0  0
  6  7  2  0  0  0  0
  6  8  1  0  0  0  0
  8  9  1  0  0  0  0
  8 29  1  0  0  0  0
  9 13  2  0  0  0  0
  9 10  1  0  0  0  0
 10 11  2  0  0  0  0
 10 30  1  0  0  0  0
 11 12  1  0  0  0  0
 12 19  1  0  0  0  0
 12 13  1  0  0  0  0
 13 31  1  0  0  0  0
 14 18  1  0  0  0  0
 14 15  1  0  0  0  0
 14 40  1  0  0  0  0
 15 16  1  0  0  0  0
 15 32  1  0  0  0  0
 15 33  1  0  0  0  0
 16 17  1  0  0  0  0
 16 34  1  0  0  0  0
 16 35  1  0  0  0  0
 17 18  1  0  0  0  0
 17 36  1  0  0  0  0
 17 37  1  0  0  0  0
 18 38  1  0  0  0  0
 18 39  1  0  0  0  0
M  CHG  1  14   1
M  END
> <s_m_source_file>
AV-unprocessed.smi

> <i_m_source_file_index>
3054

> <i_lp_mmshare_version>
43012

> <i_f3d_flags>
0

> <s_epik_input>
W0NIMl0xW0NIMl1bQ0gyXVtDSDJdTjFbQ0BIXShbQ0gyXVtDSDNdKVtDSDJdW05IXUMoPU8pW05IXWMyW2NIXW5bbkhdW2NIXTI=

> <s_epik_cmdline>
J2VwaWtfcHl0aG9uJywgJy1waCcsICc3LjAnLCAnLXRuJywgJzgnLCAnLW1hJywgJzIwMCcsICctbWV0YWxfYmluZGluZycsICctaW1hZScsICc8aW5maWxlLm1hZT4nLCAnLW9tYWUnLCAnPG91dGZpbGUubWFlPic=

> <r_lp_tautomer_probability>
0.5

> <r_epik_Ionization_Penalty>
0.00108132

> <r_epik_Ionization_Penalty_Charging>
0.00104139

> <r_epik_Ionization_Penalty_Neutral>
3.99244e-05

> <r_epik_State_Penalty>
0.00068071

> <r_epik_Charging_Adjusted_Penalty>
0.0017221

> <i_epik_Tot_Q>
1

> <i_epik_Tot_abs_Q>
1

> <r_epik_Metal_State_Penalty>
-0

> <b_epik_Metal_Only>
0

> <s_lp_Force_Field>
OPLS_2005

> <r_lp_Energy>
36.476

> <b_lp_Chiralities_Consistent>
1

> <s_lp_Variant>
AV-unprocessed.smi:3054-1

> <Gold.Version>
5.8.1

> <Gold.Id.Protein>
6NUR|6NUR_protein|mol2

> <Gold.PLP.Fitness>
45.2986

> <Gold.PLP.PLP>
-28.3386

> <Gold.PLP.part.hbond>
-4.6316

> <Gold.PLP.part.metal>
0.0000

> <Gold.PLP.part.buried>
-1.7403

> <Gold.PLP.part.nonpolar>
-23.7985

> <Gold.PLP.part.repulsive>
1.1917

> <Gold.PLP.ligand.clash>
0.0000

> <Gold.PLP.ligand.torsion>
0.4451

> <Gold.PLP.Chemscore.Hbond>
4.9192

> <Gold.PLP.Chemscore.CHOScore>
1.0000

> <Gold.PLP.Chemscore.Metal>
0.0000

> <Gold.Chemscore.Hbonds>
donor molecule, donor type, donor heavy atom, donor atom, acceptor molecule, acceptor atom, score
      L1  H     5    28       P1  7948  0.98
      L1  H     8    29       P1  7948  0.93
      L1  H    12    19       P1 10186  1.00
      L1  H    14    40       P1  7948  1.95
      L1  C    13    31       P1 10171  1.00

> <Gold.PLP.Chemscore.Internal.Correction>
0.0924

> <Gold.Rescore>
     Score         DG    S(hbond)    S(metal)    S(lipo)     H(rot)  DE(clash)    DE(int)     intcor
     19.16     -20.95       3.68        0.00      66.68       1.81       1.25       0.55       ----

> <Gold.Chemscore.Fitness>
19.1597

> <Gold.Chemscore.DG>
-20.9535

> <Gold.Chemscore.ZeroCoef>
-5.4800

> <Gold.Chemscore.Hbond>
3.6840

> <Gold.Chemscore.Metal>
0.0000

> <Gold.Chemscore.Lipo>
66.6752

> <Gold.Chemscore.Internal_Hbond>
0.0000

> <Gold.Chemscore.DEClash>
1.2451

> <Gold.Chemscore.DEInternal>
0.5487

> <Gold.Chemscore.Rot>
1.8094

> <Gold.Chemscore.Internal.Correction>
   9.000000E+99

> <Gold.Chemscore.Hbonds>
donor molecule, donor type, donor heavy atom, donor atom, acceptor molecule, acceptor atom, score
      L1  H     5    28       P1  7948  0.90
      L1  H     8    29       P1  7948  0.89
      L1  H    12    19       P1 10186  0.95
      L1  H    14    40       P1  7948  0.74

> <Gold.Chemscore.Hbond.Weighted>
-12.3047

> <Gold.Chemscore.Metal.Weighted>
-0.0000

> <Gold.Chemscore.Lipo.Weighted>
-7.8010

> <Gold.Chemscore.Internal_Hbond.Weighted>
0.0000

> <Gold.Chemscore.DEClash.Weighted>
1.2451

> <Gold.Chemscore.DEInternal.Weighted>
0.5487

> <Gold.Chemscore.Rot.Weighted>
4.6322

> <Gold.Chemscore.Internal.Correction.Weighted>
   9.000000E+99

> <Gold.Protein.RotatedTorsions>
[ 6907 6896 6895 6894 ] final   26.89 input  -60.11 | X-H torsion
[ 7974 7965 7964 7962 ] final  -76.93 input  175.53 | X-H torsion
[ 8008 7997 7996 7995 ] final  121.82 input   59.86 | X-H torsion
[ 10167 10162 10161 10158 ] final   -2.61 input  -65.29 | X-H torsion
[ 10718 10713 10712 10709 ] final   33.56 input   66.30 | X-H torsion
[ 10763 10752 10751 10750 ] final -177.10 input  -60.55 | X-H torsion
[ 11005 11000 10999 10996 ] final -120.24 input  -57.11 | X-H torsion

> <Gold.Protein.ActiveResidues>
 VAL166  LYS551  ARG553  GLY616  TRP617  ASP618  TYR619  PRO620  LYS621  CYS622 
 ASP623  PHE694  ASN695  SER759  ASP760  ASP761  ALA762  ILE779  LEU786  VAL792 
 PHE793  MET794  SER795  GLU796  ALA797  LYS798  CYS799  TRP800  GLU811  SER814 

> <Gold.Protein.RotatedAtoms>
  151.9942  134.9963  160.0562 H   0  0  0  0  0  0  0  0  0  0  0  0  # atno 6907 bound_to 6896
  152.1580  133.4559  159.4855 H   0  0  0  0  0  0  0  0  0  0  0  0  # atno 6908 bound_to 6896
  150.6884  134.2024  159.4370 H   0  0  0  0  0  0  0  0  0  0  0  0  # atno 6909 bound_to 6896
  145.6064  140.9397  143.1213 H   0  0  0  0  0  0  0  0  0  0  0  0  # atno 7974 bound_to 7965
  156.2702  140.2800  156.1368 H   0  0  0  0  0  0  0  0  0  0  0  0  # atno 8008 bound_to 7997
  155.0995  140.0389  157.2710 H   0  0  0  0  0  0  0  0  0  0  0  0  # atno 8009 bound_to 7997
  154.6826  140.2612  155.6899 H   0  0  0  0  0  0  0  0  0  0  0  0  # atno 8010 bound_to 7997
  140.6858  143.6636  150.8245 H   0  0  0  0  0  0  0  0  0  0  0  0  # atno 10167 bound_to 10162
  157.2994  130.7343  149.6657 H   0  0  0  0  0  0  0  0  0  0  0  0  # atno 10718 bound_to 10713
  154.5643  135.2822  155.0889 H   0  0  0  0  0  0  0  0  0  0  0  0  # atno 10763 bound_to 10752
  154.2286  135.6378  153.5171 H   0  0  0  0  0  0  0  0  0  0  0  0  # atno 10764 bound_to 10752
  153.0038  135.5531  154.6247 H   0  0  0  0  0  0  0  0  0  0  0  0  # atno 10765 bound_to 10752
  141.0158  134.0197  157.3351 H   0  0  0  0  0  0  0  0  0  0  0  0  # atno 11005 bound_to 11000
  144.7288  139.7791  143.7355 LP  0  0  0  0  0  0  0  0  0  0  0  0  # atno 17320 bound_to 7965
  146.1537  139.4628  143.0032 LP  0  0  0  0  0  0  0  0  0  0  0  0  # atno 17321 bound_to 7965
  140.0343  143.5411  152.2746 LP  0  0  0  0  0  0  0  0  0  0  0  0  # atno 17342 bound_to 10162
  139.6215  144.7630  151.2729 LP  0  0  0  0  0  0  0  0  0  0  0  0  # atno 17343 bound_to 10162
  155.9671  130.4284  150.4789 LP  0  0  0  0  0  0  0  0  0  0  0  0  # atno 17370 bound_to 10713
  157.2767  131.0598  151.2225 LP  0  0  0  0  0  0  0  0  0  0  0  0  # atno 17371 bound_to 10713
  139.9116  135.0191  156.7715 LP  0  0  0  0  0  0  0  0  0  0  0  0  # atno 17394 bound_to 11000
  140.6657  133.9605  155.7829 LP  0  0  0  0  0  0  0  0  0  0  0  0  # atno 17395 bound_to 11000

$$$$
