AV-unprocessed.smi:3184|AV-procd|sdf|12164|dock4
  -GOLD-   2272018 03D 1   1.00000     0.00000
 Structure written by MMmdl.
 34 35  0  0  0  0  0  0  0  0  1 V2000
  147.4706  141.7507  155.8162 C   0  0  0  0  0  0  0  0  0  0  0  0
  148.8709  141.1338  155.9391 C   0  0  1  0  0  0  0  0  0  0  0  0
  149.4816  140.8224  154.5594 C   0  0  0  0  0  0  0  0  0  0  0  0
  150.4030  139.7018  154.6091 N   0  0  0  0  0  0  0  0  0  0  0  0
  150.3778  138.5601  153.8195 C   0  0  0  0  0  0  0  0  0  0  0  0
  151.4318  137.7753  154.2296 C   0  0  0  0  0  0  0  0  0  0  0  0
  152.1161  138.4114  155.2627 N   0  0  0  0  0  0  0  0  0  0  0  0
  151.4503  139.5464  155.4308 C   0  0  0  0  0  0  0  0  0  0  0  0
  149.7444  142.0453  156.6752 N   0  0  0  0  0  0  0  0  0  0  0  0
  150.4967  141.7278  157.7429 C   0  0  0  0  0  0  0  0  0  0  0  0
  150.4830  140.6140  158.2682 O   0  0  0  0  0  0  0  0  0  0  0  0
  151.2816  142.7367  158.1792 N   0  0  0  0  0  0  0  0  0  0  0  0
  152.4578  142.6150  159.0462 C   0  0  0  0  0  0  0  0  0  0  0  0
  153.0984  144.0029  159.0761 C   0  0  0  0  0  0  0  0  0  0  0  0
  151.9492  144.9509  158.7649 C   0  0  0  0  0  0  0  0  0  0  0  0
  151.0324  144.1390  157.8499 C   0  0  0  0  0  0  0  0  0  0  0  0
  146.7941  141.0826  155.2825 H   0  0  0  0  0  0  0  0  0  0  0  0
  147.4987  142.6974  155.2756 H   0  0  0  0  0  0  0  0  0  0  0  0
  147.0370  141.9403  156.7988 H   0  0  0  0  0  0  0  0  0  0  0  0
  148.7726  140.1910  156.4804 H   0  0  0  0  0  0  0  0  0  0  0  0
  148.6940  140.5795  153.8450 H   0  0  0  0  0  0  0  0  0  0  0  0
  150.0062  141.6934  154.1634 H   0  0  0  0  0  0  0  0  0  0  0  0
  149.6304  138.4035  153.0558 H   0  0  0  0  0  0  0  0  0  0  0  0
  151.7474  136.8092  153.8642 H   0  0  0  0  0  0  0  0  0  0  0  0
  151.7269  140.2794  156.1746 H   0  0  0  0  0  0  0  0  0  0  0  0
  149.8171  142.9872  156.3190 H   0  0  0  0  0  0  0  0  0  0  0  0
  152.1335  142.3229  160.0464 H   0  0  0  0  0  0  0  0  0  0  0  0
  153.1640  141.8667  158.6834 H   0  0  0  0  0  0  0  0  0  0  0  0
  153.5848  144.2241  160.0266 H   0  0  0  0  0  0  0  0  0  0  0  0
  153.8519  144.0749  158.2906 H   0  0  0  0  0  0  0  0  0  0  0  0
  151.4204  145.1972  159.6867 H   0  0  0  0  0  0  0  0  0  0  0  0
  152.2810  145.8849  158.3103 H   0  0  0  0  0  0  0  0  0  0  0  0
  151.2886  144.3073  156.8029 H   0  0  0  0  0  0  0  0  0  0  0  0
  149.9865  144.4160  157.9918 H   0  0  0  0  0  0  0  0  0  0  0  0
  1  2  1  0  0  0  0
  1 17  1  0  0  0  0
  1 18  1  0  0  0  0
  1 19  1  0  0  0  0
  2  3  1  0  0  0  0
  2  9  1  0  0  0  0
  2 20  1  0  0  0  0
  3  4  1  0  0  0  0
  3 21  1  0  0  0  0
  3 22  1  0  0  0  0
  4  8  1  0  0  0  0
  4  5  1  0  0  0  0
  5  6  2  0  0  0  0
  5 23  1  0  0  0  0
  6  7  1  0  0  0  0
  6 24  1  0  0  0  0
  7  8  2  0  0  0  0
  8 25  1  0  0  0  0
  9 10  1  0  0  0  0
  9 26  1  0  0  0  0
 10 11  2  0  0  0  0
 10 12  1  0  0  0  0
 12 16  1  0  0  0  0
 12 13  1  0  0  0  0
 13 14  1  0  0  0  0
 13 27  1  0  0  0  0
 13 28  1  0  0  0  0
 14 15  1  0  0  0  0
 14 29  1  0  0  0  0
 14 30  1  0  0  0  0
 15 16  1  0  0  0  0
 15 31  1  0  0  0  0
 15 32  1  0  0  0  0
 16 33  1  0  0  0  0
 16 34  1  0  0  0  0
M  END
> <s_m_source_file>
AV-unprocessed.smi

> <i_m_source_file_index>
3184

> <i_lp_mmshare_version>
43012

> <i_f3d_flags>
0

> <s_epik_input>
W2NIXTFuW2NIXVtjSF1uMVtDSDJdW0NAQEhdKFtDSDNdKVtOSF1DKD1PKU4yW0NIMl1bQ0gyXVtDSDJdW0NIMl0y

> <s_epik_cmdline>
J2VwaWtfcHl0aG9uJywgJy1waCcsICc3LjAnLCAnLXRuJywgJzgnLCAnLW1hJywgJzIwMCcsICctbWV0YWxfYmluZGluZycsICctaW1hZScsICc8aW5maWxlLm1hZT4nLCAnLW9tYWUnLCAnPG91dGZpbGUubWFlPic=

> <r_lp_tautomer_probability>
1

> <r_epik_Ionization_Penalty>
0.625774

> <r_epik_Ionization_Penalty_Charging>
0.625709

> <r_epik_Ionization_Penalty_Neutral>
6.46152e-05

> <r_epik_State_Penalty>
0.642123

> <r_epik_Charging_Adjusted_Penalty>
1.26783

> <i_epik_Tot_Q>
0

> <i_epik_Tot_abs_Q>
0

> <r_epik_Metal_State_Penalty>
0.307922

> <b_epik_Metal_Only>
0

> <s_lp_Force_Field>
OPLS_2005

> <r_lp_Energy>
35.7196

> <b_lp_Chiralities_Consistent>
1

> <s_lp_Variant>
AV-unprocessed.smi:3184-4

> <Gold.Version>
5.8.1

> <Gold.Id.Protein>
6NUR|6NUR_protein|mol2

> <Gold.PLP.Fitness>
41.9967

> <Gold.PLP.PLP>
-33.9222

> <Gold.PLP.part.hbond>
-1.0000

> <Gold.PLP.part.metal>
0.0000

> <Gold.PLP.part.buried>
0.9955

> <Gold.PLP.part.nonpolar>
-32.9157

> <Gold.PLP.part.repulsive>
0.0550

> <Gold.PLP.ligand.clash>
0.9263

> <Gold.PLP.ligand.torsion>
0.6291

> <Gold.PLP.Chemscore.Hbond>
0.9027

> <Gold.PLP.Chemscore.CHOScore>
2.5116

> <Gold.PLP.Chemscore.Metal>
0.0000

> <Gold.Chemscore.Hbonds>
donor molecule, donor type, donor heavy atom, donor atom, acceptor molecule, acceptor atom, score
      L1  H     9    26       P1  8028  0.89
      L1  C     5    23       P1  7948  0.98
      L1  C     5    23       P1  7957  0.74
      L1  C     6    24       P1  7949  0.76

> <Gold.PLP.Chemscore.Internal.Correction>
0.0159

> <Gold.Rescore>
     Score         DG    S(hbond)    S(metal)    S(lipo)     H(rot)  DE(clash)    DE(int)     intcor
     13.40     -14.17       0.92        0.00      83.09       1.60       0.05       0.72       ----

> <Gold.Chemscore.Fitness>
13.4000

> <Gold.Chemscore.DG>
-14.1656

> <Gold.Chemscore.ZeroCoef>
-5.4800

> <Gold.Chemscore.Hbond>
0.9169

> <Gold.Chemscore.Metal>
0.0000

> <Gold.Chemscore.Lipo>
83.0904

> <Gold.Chemscore.Internal_Hbond>
0.0000

> <Gold.Chemscore.DEClash>
0.0504

> <Gold.Chemscore.DEInternal>
0.7153

> <Gold.Chemscore.Rot>
1.6009

> <Gold.Chemscore.Internal.Correction>
   9.000000E+99

> <Gold.Chemscore.Hbonds>
donor molecule, donor type, donor heavy atom, donor atom, acceptor molecule, acceptor atom, score
      L1  H     9    26       P1  8028  0.80

> <Gold.Chemscore.Hbond.Weighted>
-3.0624

> <Gold.Chemscore.Metal.Weighted>
-0.0000

> <Gold.Chemscore.Lipo.Weighted>
-9.7216

> <Gold.Chemscore.Internal_Hbond.Weighted>
0.0000

> <Gold.Chemscore.DEClash.Weighted>
0.0504

> <Gold.Chemscore.DEInternal.Weighted>
0.7153

> <Gold.Chemscore.Rot.Weighted>
4.0983

> <Gold.Chemscore.Internal.Correction.Weighted>
   9.000000E+99

> <Gold.Protein.RotatedTorsions>
[ 6907 6896 6895 6894 ] final  105.83 input  -60.11 | X-H torsion
[ 7974 7965 7964 7962 ] final   43.80 input  175.53 | X-H torsion
[ 8008 7997 7996 7995 ] final -168.44 input   59.86 | X-H torsion
[ 10167 10162 10161 10158 ] final  108.17 input  -65.29 | X-H torsion
[ 10718 10713 10712 10709 ] final   -6.52 input   66.30 | X-H torsion
[ 10763 10752 10751 10750 ] final  170.25 input  -60.55 | X-H torsion
[ 11005 11000 10999 10996 ] final  -49.75 input  -57.11 | X-H torsion

> <Gold.Protein.ActiveResidues>
 VAL166  LYS551  ARG553  GLY616  TRP617  ASP618  TYR619  PRO620  LYS621  CYS622 
 ASP623  PHE694  ASN695  SER759  ASP760  ASP761  ALA762  ILE779  LEU786  VAL792 
 PHE793  MET794  SER795  GLU796  ALA797  LYS798  CYS799  TRP800  GLU811  SER814 

> <Gold.Protein.RotatedAtoms>
  152.5216  133.9470  159.7653 H   0  0  0  0  0  0  0  0  0  0  0  0  # atno 6907 bound_to 6896
  150.9788  133.6258  159.2733 H   0  0  0  0  0  0  0  0  0  0  0  0  # atno 6908 bound_to 6896
  151.3443  135.0876  159.9434 H   0  0  0  0  0  0  0  0  0  0  0  0  # atno 6909 bound_to 6896
  146.0624  139.5146  142.9650 H   0  0  0  0  0  0  0  0  0  0  0  0  # atno 7974 bound_to 7965
  155.8914  140.1025  157.1416 H   0  0  0  0  0  0  0  0  0  0  0  0  # atno 8008 bound_to 7997
  154.4015  140.1310  156.4384 H   0  0  0  0  0  0  0  0  0  0  0  0  # atno 8009 bound_to 7997
  155.7529  140.3464  155.5162 H   0  0  0  0  0  0  0  0  0  0  0  0  # atno 8010 bound_to 7997
  139.6868  144.7112  151.1418 H   0  0  0  0  0  0  0  0  0  0  0  0  # atno 10167 bound_to 10162
  156.7307  130.5179  149.5846 H   0  0  0  0  0  0  0  0  0  0  0  0  # atno 10718 bound_to 10713
  154.3949  135.2754  155.2132 H   0  0  0  0  0  0  0  0  0  0  0  0  # atno 10763 bound_to 10752
  154.4183  135.6006  153.5998 H   0  0  0  0  0  0  0  0  0  0  0  0  # atno 10764 bound_to 10752
  152.9831  135.5966  154.4209 H   0  0  0  0  0  0  0  0  0  0  0  0  # atno 10765 bound_to 10752
  141.0777  133.6661  156.3630 H   0  0  0  0  0  0  0  0  0  0  0  0  # atno 11005 bound_to 11000
  145.6537  141.0257  143.1746 LP  0  0  0  0  0  0  0  0  0  0  0  0  # atno 17320 bound_to 7965
  144.7182  139.8120  143.7391 LP  0  0  0  0  0  0  0  0  0  0  0  0  # atno 17321 bound_to 7965
  140.7670  143.5618  150.9091 LP  0  0  0  0  0  0  0  0  0  0  0  0  # atno 17342 bound_to 10162
  139.9293  143.6512  152.3080 LP  0  0  0  0  0  0  0  0  0  0  0  0  # atno 17343 bound_to 10162
  156.1531  130.6323  151.0621 LP  0  0  0  0  0  0  0  0  0  0  0  0  # atno 17370 bound_to 10713
  157.6860  131.0824  150.7241 LP  0  0  0  0  0  0  0  0  0  0  0  0  # atno 17371 bound_to 10713
  140.5538  134.6002  157.5415 LP  0  0  0  0  0  0  0  0  0  0  0  0  # atno 17394 bound_to 11000
  139.9589  134.7486  156.0279 LP  0  0  0  0  0  0  0  0  0  0  0  0  # atno 17395 bound_to 11000

$$$$
