AV-unprocessed.smi:1809|AV-procd|sdf|7312|dock6
  -GOLD-   22720 8573D 1   1.00000     0.00000
 Structure written by MMmdl.
 40 42  0  0  0  0  0  0  0  0  2 V2000
  136.7475  137.6766  154.4848 C   0  0  0  0  0  0  0  0  0  0  0  0
  138.1410  138.1224  154.1991 C   0  0  0  0  0  0  0  0  0  0  0  0
  138.4425  139.3767  153.8398 N   0  0  0  0  0  0  0  0  0  0  0  0
  139.8030  139.5529  153.6254 N   0  0  0  0  0  0  0  0  0  0  0  0
  140.4904  138.4257  153.8288 C   0  0  0  0  0  0  0  0  0  0  0  0
  141.8948  138.4579  153.6394 N   0  0  0  0  0  0  0  0  0  0  0  0
  142.8163  137.6238  154.1474 C   0  0  0  0  0  0  0  0  0  0  0  0
  142.5877  136.6892  154.9150 O   0  0  0  0  0  0  0  0  0  0  0  0
  144.0458  137.9362  153.7142 N   0  0  0  0  0  0  0  0  0  0  0  0
  145.2628  137.2093  154.0589 C   0  0  0  0  0  0  0  0  0  0  0  0
  145.8538  136.4664  152.8479 C   0  0  1  0  0  0  0  0  0  0  0  0
  146.2074  135.0110  153.1924 C   0  0  0  0  0  0  0  0  0  0  0  0
  146.7328  134.2815  152.0106 N   0  3  1  0  0  0  0  0  0  0  0  0
  146.7981  132.8198  152.2402 C   0  0  0  0  0  0  0  0  0  0  0  0
  145.5629  132.2064  151.5545 C   0  0  0  0  0  0  0  0  0  0  0  0
  144.8199  133.3828  150.9133 C   0  0  0  0  0  0  0  0  0  0  0  0
  145.8989  134.4586  150.8012 C   0  0  1  0  0  0  0  0  0  0  0  0
  145.3961  135.9041  150.6085 C   0  0  0  0  0  0  0  0  0  0  0  0
  144.8740  136.4351  151.8179 O   0  0  0  0  0  0  0  0  0  0  0  0
  139.5186  137.0338  154.3074 S   0  0  0  0  0  0  0  0  0  0  0  0
  136.0619  138.5247  154.4739 H   0  0  0  0  0  0  0  0  0  0  0  0
  136.7008  137.2036  155.4658 H   0  0  0  0  0  0  0  0  0  0  0  0
  136.4249  136.9571  153.7321 H   0  0  0  0  0  0  0  0  0  0  0  0
  142.2324  139.1895  153.0315 H   0  0  0  0  0  0  0  0  0  0  0  0
  144.1469  138.7239  153.0904 H   0  0  0  0  0  0  0  0  0  0  0  0
  145.9965  137.9039  154.4715 H   0  0  0  0  0  0  0  0  0  0  0  0
  145.0268  136.5022  154.8547 H   0  0  0  0  0  0  0  0  0  0  0  0
  146.7476  136.9891  152.5016 H   0  0  0  0  0  0  0  0  0  0  0  0
  146.9539  134.9811  153.9869 H   0  0  0  0  0  0  0  0  0  0  0  0
  145.3187  134.5046  153.5737 H   0  0  0  0  0  0  0  0  0  0  0  0
  147.7062  132.4364  151.7737 H   0  0  0  0  0  0  0  0  0  0  0  0
  146.8506  132.5677  153.3005 H   0  0  0  0  0  0  0  0  0  0  0  0
  145.8761  131.4917  150.7926 H   0  0  0  0  0  0  0  0  0  0  0  0
  144.9259  131.6741  152.2615 H   0  0  0  0  0  0  0  0  0  0  0  0
  144.3771  133.1274  149.9501 H   0  0  0  0  0  0  0  0  0  0  0  0
  144.0173  133.7185  151.5715 H   0  0  0  0  0  0  0  0  0  0  0  0
  146.5229  134.2020  149.9431 H   0  0  0  0  0  0  0  0  0  0  0  0
  146.2080  136.5429  150.2573 H   0  0  0  0  0  0  0  0  0  0  0  0
  144.6236  135.9358  149.8398 H   0  0  0  0  0  0  0  0  0  0  0  0
  147.6599  134.6365  151.8233 H   0  0  0  0  0  0  0  0  0  0  0  0
  1  2  1  0  0  0  0
  1 21  1  0  0  0  0
  1 22  1  0  0  0  0
  1 23  1  0  0  0  0
  2 20  1  0  0  0  0
  2  3  2  0  0  0  0
  3  4  1  0  0  0  0
  4  5  2  0  0  0  0
  5  6  1  0  0  0  0
  5 20  1  0  0  0  0
  6  7  1  0  0  0  0
  6 24  1  0  0  0  0
  7  8  2  0  0  0  0
  7  9  1  0  0  0  0
  9 10  1  0  0  0  0
  9 25  1  0  0  0  0
 10 11  1  0  0  0  0
 10 26  1  0  0  0  0
 10 27  1  0  0  0  0
 11 19  1  0  0  0  0
 11 12  1  0  0  0  0
 11 28  1  0  0  0  0
 12 13  1  0  0  0  0
 12 29  1  0  0  0  0
 12 30  1  0  0  0  0
 13 17  1  0  0  0  0
 13 14  1  0  0  0  0
 13 40  1  0  0  0  0
 14 15  1  0  0  0  0
 14 31  1  0  0  0  0
 14 32  1  0  0  0  0
 15 16  1  0  0  0  0
 15 33  1  0  0  0  0
 15 34  1  0  0  0  0
 16 17  1  0  0  0  0
 16 35  1  0  0  0  0
 16 36  1  0  0  0  0
 17 18  1  0  0  0  0
 17 37  1  0  0  0  0
 18 19  1  0  0  0  0
 18 38  1  0  0  0  0
 18 39  1  0  0  0  0
M  CHG  1  13   1
M  END
> <s_m_source_file>
AV-unprocessed.smi

> <i_m_source_file_index>
1809

> <i_lp_mmshare_version>
43012

> <i_f3d_flags>
0

> <s_epik_input>
W0NIM11jMW5uYyhzMSlbTkhdQyg9TylbTkhdW0NIMl1bQ0BIXShbQ0gyXTIpT1tDSDJdW0NAQEhdKE4yMylbQ0gyXVtDSDJdW0NIMl0z

> <s_epik_cmdline>
J2VwaWtfcHl0aG9uJywgJy1waCcsICc3LjAnLCAnLXRuJywgJzgnLCAnLW1hJywgJzIwMCcsICctbWV0YWxfYmluZGluZycsICctaW1hZScsICc8aW5maWxlLm1hZT4nLCAnLW9tYWUnLCAnPG91dGZpbGUubWFlPic=

> <r_lp_tautomer_probability>
1

> <r_epik_Ionization_Penalty>
0.112474

> <r_epik_Ionization_Penalty_Charging>
0.108916

> <r_epik_Ionization_Penalty_Neutral>
0.00355844

> <r_epik_State_Penalty>
0.0565397

> <r_epik_Charging_Adjusted_Penalty>
0.165456

> <i_epik_Tot_Q>
1

> <i_epik_Tot_abs_Q>
1

> <r_epik_Metal_State_Penalty>
0.422831

> <b_epik_Metal_Only>
0

> <s_lp_Force_Field>
OPLS_2005

> <r_lp_Energy>
33.5148

> <b_lp_Chiralities_Consistent>
1

> <s_lp_Variant>
AV-unprocessed.smi:1809-4

> <Gold.Version>
5.8.1

> <Gold.Id.Protein>
6NUR|6NUR_protein|mol2

> <Gold.PLP.Fitness>
39.2068

> <Gold.PLP.PLP>
-28.8839

> <Gold.PLP.part.hbond>
-3.0000

> <Gold.PLP.part.metal>
0.0000

> <Gold.PLP.part.buried>
-4.6953

> <Gold.PLP.part.nonpolar>
-22.0223

> <Gold.PLP.part.repulsive>
1.7050

> <Gold.PLP.ligand.clash>
0.0000

> <Gold.PLP.ligand.torsion>
0.8037

> <Gold.PLP.Chemscore.Hbond>
3.9760

> <Gold.PLP.Chemscore.CHOScore>
0.0000

> <Gold.PLP.Chemscore.Metal>
0.0000

> <Gold.Chemscore.Hbonds>
donor molecule, donor type, donor heavy atom, donor atom, acceptor molecule, acceptor atom, score
      L1  H     6    24       P1 10175  1.00
      L1  H     9    25       P1 10175  1.00
      L1  H    13    40       P1  7948  1.98

> <Gold.PLP.Chemscore.Internal.Correction>
0.0023

> <Gold.Rescore>
     Score         DG    S(hbond)    S(metal)    S(lipo)     H(rot)  DE(clash)    DE(int)     intcor
     16.73     -17.67       2.73        0.00      55.62       1.34       0.01       0.94       ----

> <Gold.Chemscore.Fitness>
16.7254

> <Gold.Chemscore.DG>
-17.6728

> <Gold.Chemscore.ZeroCoef>
-5.4800

> <Gold.Chemscore.Hbond>
2.7287

> <Gold.Chemscore.Metal>
0.0000

> <Gold.Chemscore.Lipo>
55.6166

> <Gold.Chemscore.Internal_Hbond>
0.0000

> <Gold.Chemscore.DEClash>
0.0052

> <Gold.Chemscore.DEInternal>
0.9422

> <Gold.Chemscore.Rot>
1.3391

> <Gold.Chemscore.Internal.Correction>
   9.000000E+99

> <Gold.Chemscore.Hbonds>
donor molecule, donor type, donor heavy atom, donor atom, acceptor molecule, acceptor atom, score
      L1  H     6    24       P1 10175  0.94
      L1  H     9    25       P1 10175  0.96
      L1  H    13    40       P1  7948  0.36

> <Gold.Chemscore.Hbond.Weighted>
-9.1138

> <Gold.Chemscore.Metal.Weighted>
-0.0000

> <Gold.Chemscore.Lipo.Weighted>
-6.5071

> <Gold.Chemscore.Internal_Hbond.Weighted>
0.0000

> <Gold.Chemscore.DEClash.Weighted>
0.0052

> <Gold.Chemscore.DEInternal.Weighted>
0.9422

> <Gold.Chemscore.Rot.Weighted>
3.4281

> <Gold.Chemscore.Internal.Correction.Weighted>
   9.000000E+99

> <Gold.Protein.RotatedTorsions>
[ 6907 6896 6895 6894 ] final   88.80 input  -60.11 | X-H torsion
[ 7974 7965 7964 7962 ] final   -8.58 input  175.53 | X-H torsion
[ 8008 7997 7996 7995 ] final  133.71 input   59.86 | X-H torsion
[ 10167 10162 10161 10158 ] final   41.65 input  -65.29 | X-H torsion
[ 10718 10713 10712 10709 ] final  109.88 input   66.30 | X-H torsion
[ 10763 10752 10751 10750 ] final   13.32 input  -60.55 | X-H torsion
[ 11005 11000 10999 10996 ] final   15.67 input  -57.11 | X-H torsion

> <Gold.Protein.ActiveResidues>
 VAL166  LYS551  ARG553  GLY616  TRP617  ASP618  TYR619  PRO620  LYS621  CYS622 
 ASP623  PHE694  ASN695  SER759  ASP760  ASP761  ALA762  ILE779  LEU786  VAL792 
 PHE793  MET794  SER795  GLU796  ALA797  LYS798  CYS799  TRP800  GLU811  SER814 

> <Gold.Protein.RotatedAtoms>
  152.5429  134.2066  159.8732 H   0  0  0  0  0  0  0  0  0  0  0  0  # atno 6907 bound_to 6896
  151.2051  133.4581  159.2604 H   0  0  0  0  0  0  0  0  0  0  0  0  # atno 6908 bound_to 6896
  151.0951  134.9952  159.8477 H   0  0  0  0  0  0  0  0  0  0  0  0  # atno 6909 bound_to 6896
  146.2276  140.2488  142.8346 H   0  0  0  0  0  0  0  0  0  0  0  0  # atno 7974 bound_to 7965
  156.2994  140.2514  156.3297 H   0  0  0  0  0  0  0  0  0  0  0  0  # atno 8008 bound_to 7997
  154.9156  140.0402  157.1989 H   0  0  0  0  0  0  0  0  0  0  0  0  # atno 8009 bound_to 7997
  154.8362  140.2883  155.5694 H   0  0  0  0  0  0  0  0  0  0  0  0  # atno 8010 bound_to 7997
  140.3622  144.2214  150.6137 H   0  0  0  0  0  0  0  0  0  0  0  0  # atno 10167 bound_to 10162
  157.6521  131.0922  150.6519 H   0  0  0  0  0  0  0  0  0  0  0  0  # atno 10718 bound_to 10713
  153.1732  135.6816  153.8578 H   0  0  0  0  0  0  0  0  0  0  0  0  # atno 10763 bound_to 10752
  153.7935  135.3165  155.3382 H   0  0  0  0  0  0  0  0  0  0  0  0  # atno 10764 bound_to 10752
  154.8012  135.4777  154.0373 H   0  0  0  0  0  0  0  0  0  0  0  0  # atno 10765 bound_to 10752
  140.4557  134.1178  155.7709 H   0  0  0  0  0  0  0  0  0  0  0  0  # atno 11005 bound_to 11000
  144.9427  140.8096  143.5620 LP  0  0  0  0  0  0  0  0  0  0  0  0  # atno 17320 bound_to 7965
  145.2442  139.2059  143.4977 LP  0  0  0  0  0  0  0  0  0  0  0  0  # atno 17321 bound_to 7965
  140.5116  143.2289  151.8527 LP  0  0  0  0  0  0  0  0  0  0  0  0  # atno 17342 bound_to 10162
  139.4813  144.4943  151.9144 LP  0  0  0  0  0  0  0  0  0  0  0  0  # atno 17343 bound_to 10162
  156.6829  130.4572  149.5622 LP  0  0  0  0  0  0  0  0  0  0  0  0  # atno 17370 bound_to 10713
  156.1916  130.6563  151.1068 LP  0  0  0  0  0  0  0  0  0  0  0  0  # atno 17371 bound_to 10713
  141.1644  133.8731  157.1757 LP  0  0  0  0  0  0  0  0  0  0  0  0  # atno 17394 bound_to 11000
  139.9977  135.0040  157.0121 LP  0  0  0  0  0  0  0  0  0  0  0  0  # atno 17395 bound_to 11000

$$$$
