AV-unprocessed.smi:1388|AV-procd|sdf|5641|dock4
  -GOLD-   22720 5253D 1   1.00000     0.00000
 Structure written by MMmdl.
 45 46  0  0  0  0  0  0  0  0  1 V2000
  146.8332  134.6269  154.4772 C   0  0  0  0  0  0  0  0  0  0  0  0
  147.1104  135.9480  153.9351 N   0  0  0  0  0  0  0  0  0  0  0  0
  146.6671  137.0939  154.4723 C   0  0  0  0  0  0  0  0  0  0  0  0
  145.9695  137.1426  155.4852 O   0  0  0  0  0  0  0  0  0  0  0  0
  147.0697  138.3859  153.7526 C   0  0  0  0  0  0  0  0  0  0  0  0
  147.8394  139.3402  154.5841 N   0  0  0  0  0  0  0  0  0  0  0  0
  147.3731  140.7258  154.4230 C   0  0  0  0  0  0  0  0  0  0  0  0
  148.1544  141.6744  155.3497 C   0  0  0  0  0  0  0  0  0  0  0  0
  149.6665  141.5926  155.0887 C   0  0  0  0  0  0  0  0  0  0  0  0
  150.4009  142.3934  156.0640 N   0  0  0  0  0  0  0  0  0  0  0  0
  150.6928  142.0105  157.3159 C   0  0  0  0  0  0  0  0  0  0  0  0
  150.3497  140.9280  157.7925 O   0  0  0  0  0  0  0  0  0  0  0  0
  151.4085  142.9519  157.9567 N   0  0  0  0  0  0  0  0  0  0  0  0
  151.8871  142.9405  159.2975 C   0  0  0  0  0  0  0  0  0  0  0  0
  152.4844  141.8559  159.8523 N   0  0  0  0  0  0  0  0  0  0  0  0
  152.9092  141.9112  161.1312 C   0  0  0  0  0  0  0  0  0  0  0  0
  152.7646  143.0518  161.9393 C   0  0  0  0  0  0  0  0  0  0  0  0
  152.1473  144.1840  161.3810 C   0  0  0  0  0  0  0  0  0  0  0  0
  151.6991  144.1352  160.0436 C   0  0  0  0  0  0  0  0  0  0  0  0
  151.0323  145.3593  159.4373 C   0  0  0  0  0  0  0  0  0  0  0  0
  150.1082  140.1251  155.1719 C   0  0  0  0  0  0  0  0  0  0  0  0
  149.2618  139.2414  154.2393 C   0  0  0  0  0  0  0  0  0  0  0  0
  147.2859  133.8636  153.8445 H   0  0  0  0  0  0  0  0  0  0  0  0
  145.7591  134.4407  154.5204 H   0  0  0  0  0  0  0  0  0  0  0  0
  147.2454  134.5257  155.4819 H   0  0  0  0  0  0  0  0  0  0  0  0
  147.6807  135.9984  153.1032 H   0  0  0  0  0  0  0  0  0  0  0  0
  147.6622  138.0998  152.8822 H   0  0  0  0  0  0  0  0  0  0  0  0
  146.1721  138.8738  153.3674 H   0  0  0  0  0  0  0  0  0  0  0  0
  147.4811  141.0400  153.3834 H   0  0  0  0  0  0  0  0  0  0  0  0
  146.3148  140.8121  154.6688 H   0  0  0  0  0  0  0  0  0  0  0  0
  147.8051  142.6974  155.2052 H   0  0  0  0  0  0  0  0  0  0  0  0
  147.9413  141.4199  156.3892 H   0  0  0  0  0  0  0  0  0  0  0  0
  149.8752  141.9555  154.0803 H   0  0  0  0  0  0  0  0  0  0  0  0
  150.7223  143.2996  155.7563 H   0  0  0  0  0  0  0  0  0  0  0  0
  151.6427  143.7753  157.4226 H   0  0  0  0  0  0  0  0  0  0  0  0
  153.3768  141.0195  161.5212 H   0  0  0  0  0  0  0  0  0  0  0  0
  153.1179  143.0573  162.9600 H   0  0  0  0  0  0  0  0  0  0  0  0
  152.0205  145.0772  161.9751 H   0  0  0  0  0  0  0  0  0  0  0  0
  150.9718  146.1765  160.1568 H   0  0  0  0  0  0  0  0  0  0  0  0
  150.0184  145.1212  159.1145 H   0  0  0  0  0  0  0  0  0  0  0  0
  151.5977  145.7131  158.5746 H   0  0  0  0  0  0  0  0  0  0  0  0
  151.1624  140.0370  154.9063 H   0  0  0  0  0  0  0  0  0  0  0  0
  150.0158  139.7621  156.1968 H   0  0  0  0  0  0  0  0  0  0  0  0
  149.5952  138.2075  154.3376 H   0  0  0  0  0  0  0  0  0  0  0  0
  149.4219  139.5284  153.1983 H   0  0  0  0  0  0  0  0  0  0  0  0
  1  2  1  0  0  0  0
  1 23  1  0  0  0  0
  1 24  1  0  0  0  0
  1 25  1  0  0  0  0
  2  3  1  0  0  0  0
  2 26  1  0  0  0  0
  3  4  2  0  0  0  0
  3  5  1  0  0  0  0
  5  6  1  0  0  0  0
  5 27  1  0  0  0  0
  5 28  1  0  0  0  0
  6 22  1  0  0  0  0
  6  7  1  0  0  0  0
  7  8  1  0  0  0  0
  7 29  1  0  0  0  0
  7 30  1  0  0  0  0
  8  9  1  0  0  0  0
  8 31  1  0  0  0  0
  8 32  1  0  0  0  0
  9 10  1  0  0  0  0
  9 21  1  0  0  0  0
  9 33  1  0  0  0  0
 10 11  1  0  0  0  0
 10 34  1  0  0  0  0
 11 12  2  0  0  0  0
 11 13  1  0  0  0  0
 13 14  1  0  0  0  0
 13 35  1  0  0  0  0
 14 19  1  0  0  0  0
 14 15  2  0  0  0  0
 15 16  1  0  0  0  0
 16 17  2  0  0  0  0
 16 36  1  0  0  0  0
 17 18  1  0  0  0  0
 17 37  1  0  0  0  0
 18 19  2  0  0  0  0
 18 38  1  0  0  0  0
 19 20  1  0  0  0  0
 20 39  1  0  0  0  0
 20 40  1  0  0  0  0
 20 41  1  0  0  0  0
 21 22  1  0  0  0  0
 21 42  1  0  0  0  0
 21 43  1  0  0  0  0
 22 44  1  0  0  0  0
 22 45  1  0  0  0  0
M  END
> <s_m_source_file>
AV-unprocessed.smi

> <i_m_source_file_index>
1388

> <i_lp_mmshare_version>
43012

> <i_f3d_flags>
0

> <s_epik_input>
W0NIM11bTkhdQyg9TylbQ0gyXU4xW0NIMl1bQ0gyXVtDSF0oW0NIMl1bQ0gyXTEpW05IXUMoPU8pW05IXWMybltjSF1bY0hdW2NIXWMyW0NIM10=

> <s_epik_cmdline>
J2VwaWtfcHl0aG9uJywgJy1waCcsICc3LjAnLCAnLXRuJywgJzgnLCAnLW1hJywgJzIwMCcsICctbWV0YWxfYmluZGluZycsICctaW1hZScsICc8aW5maWxlLm1hZT4nLCAnLW9tYWUnLCAnPG91dGZpbGUubWFlPic=

> <r_epik_Ionization_Penalty>
0.164795

> <r_epik_Ionization_Penalty_Charging>
0

> <r_epik_Ionization_Penalty_Neutral>
0.164795

> <r_epik_State_Penalty>
0.154069

> <r_epik_Charging_Adjusted_Penalty>
0.154069

> <i_epik_Tot_Q>
0

> <i_epik_Tot_abs_Q>
0

> <r_epik_Metal_State_Penalty>
0.158585

> <b_epik_Metal_Only>
0

> <s_lp_Force_Field>
OPLS_2005

> <r_lp_Energy>
17.3475

> <b_lp_Chiralities_Consistent>
1

> <s_lp_Variant>
AV-unprocessed.smi:1388-1

> <Gold.Version>
5.8.1

> <Gold.Id.Protein>
6NUR|6NUR_protein|mol2

> <Gold.PLP.Fitness>
40.8832

> <Gold.PLP.PLP>
-39.8734

> <Gold.PLP.part.hbond>
-2.0000

> <Gold.PLP.part.metal>
0.0000

> <Gold.PLP.part.buried>
-3.5121

> <Gold.PLP.part.nonpolar>
-34.0968

> <Gold.PLP.part.repulsive>
0.2913

> <Gold.PLP.ligand.clash>
0.0000

> <Gold.PLP.ligand.torsion>
1.2652

> <Gold.PLP.Chemscore.Hbond>
1.1664

> <Gold.PLP.Chemscore.CHOScore>
0.0000

> <Gold.PLP.Chemscore.Metal>
0.0000

> <Gold.Chemscore.Hbonds>
donor molecule, donor type, donor heavy atom, donor atom, acceptor molecule, acceptor atom, score
      L1  H     2    26       P1  7948  1.00
      L1  H    10    34       P1  8028  0.05

> <Gold.PLP.Chemscore.Internal.Correction>
0.0410

> <Gold.Rescore>
     Score         DG    S(hbond)    S(metal)    S(lipo)     H(rot)  DE(clash)    DE(int)     intcor
     14.38     -17.44       1.59        0.00      93.30       1.66       0.05       3.01       ----

> <Gold.Chemscore.Fitness>
14.3845

> <Gold.Chemscore.DG>
-17.4440

> <Gold.Chemscore.ZeroCoef>
-5.4800

> <Gold.Chemscore.Hbond>
1.5873

> <Gold.Chemscore.Metal>
0.0000

> <Gold.Chemscore.Lipo>
93.3026

> <Gold.Chemscore.Internal_Hbond>
0.0000

> <Gold.Chemscore.DEClash>
0.0544

> <Gold.Chemscore.DEInternal>
3.0051

> <Gold.Chemscore.Rot>
1.6616

> <Gold.Chemscore.Internal.Correction>
   9.000000E+99

> <Gold.Chemscore.Hbonds>
donor molecule, donor type, donor heavy atom, donor atom, acceptor molecule, acceptor atom, score
      L1  H     2    26       P1  7948  1.00
      L1  H    10    34       P1  8028  0.05

> <Gold.Chemscore.Hbond.Weighted>
-5.3014

> <Gold.Chemscore.Metal.Weighted>
-0.0000

> <Gold.Chemscore.Lipo.Weighted>
-10.9164

> <Gold.Chemscore.Internal_Hbond.Weighted>
0.0000

> <Gold.Chemscore.DEClash.Weighted>
0.0544

> <Gold.Chemscore.DEInternal.Weighted>
3.0051

> <Gold.Chemscore.Rot.Weighted>
4.2538

> <Gold.Chemscore.Internal.Correction.Weighted>
   9.000000E+99

> <Gold.Protein.RotatedTorsions>
[ 6907 6896 6895 6894 ] final  161.56 input  -60.11 | X-H torsion
[ 7974 7965 7964 7962 ] final -162.26 input  175.53 | X-H torsion
[ 8008 7997 7996 7995 ] final  -25.04 input   59.86 | X-H torsion
[ 10167 10162 10161 10158 ] final   32.93 input  -65.29 | X-H torsion
[ 10718 10713 10712 10709 ] final   91.96 input   66.30 | X-H torsion
[ 10763 10752 10751 10750 ] final  -65.85 input  -60.55 | X-H torsion
[ 11005 11000 10999 10996 ] final -111.88 input  -57.11 | X-H torsion

> <Gold.Protein.ActiveResidues>
 VAL166  LYS551  ARG553  GLY616  TRP617  ASP618  TYR619  PRO620  LYS621  CYS622 
 ASP623  PHE694  ASN695  SER759  ASP760  ASP761  ALA762  ILE779  LEU786  VAL792 
 PHE793  MET794  SER795  GLU796  ALA797  LYS798  CYS799  TRP800  GLU811  SER814 

> <Gold.Protein.RotatedAtoms>
  151.9538  133.3674  159.4009 H   0  0  0  0  0  0  0  0  0  0  0  0  # atno 6907 bound_to 6896
  150.6976  134.4312  159.5259 H   0  0  0  0  0  0  0  0  0  0  0  0  # atno 6908 bound_to 6896
  152.1990  134.8605  160.0560 H   0  0  0  0  0  0  0  0  0  0  0  0  # atno 6909 bound_to 6896
  144.7363  140.3279  143.6158 H   0  0  0  0  0  0  0  0  0  0  0  0  # atno 7974 bound_to 7965
  154.4497  140.1937  156.0557 H   0  0  0  0  0  0  0  0  0  0  0  0  # atno 8008 bound_to 7997
  156.0621  140.3295  155.7446 H   0  0  0  0  0  0  0  0  0  0  0  0  # atno 8009 bound_to 7997
  155.5396  140.0585  157.2863 H   0  0  0  0  0  0  0  0  0  0  0  0  # atno 8010 bound_to 7997
  140.4454  144.1126  150.6181 H   0  0  0  0  0  0  0  0  0  0  0  0  # atno 10167 bound_to 10162
  157.6959  131.0426  150.3809 H   0  0  0  0  0  0  0  0  0  0  0  0  # atno 10718 bound_to 10713
  154.3511  135.6136  153.5643 H   0  0  0  0  0  0  0  0  0  0  0  0  # atno 10763 bound_to 10752
  152.9798  135.5792  154.4742 H   0  0  0  0  0  0  0  0  0  0  0  0  # atno 10764 bound_to 10752
  154.4464  135.2851  155.1789 H   0  0  0  0  0  0  0  0  0  0  0  0  # atno 10765 bound_to 10752
  141.0708  133.9383  157.2488 H   0  0  0  0  0  0  0  0  0  0  0  0  # atno 11005 bound_to 11000
  145.7502  139.1791  143.2326 LP  0  0  0  0  0  0  0  0  0  0  0  0  # atno 17320 bound_to 7965
  146.1066  140.7479  142.9523 LP  0  0  0  0  0  0  0  0  0  0  0  0  # atno 17321 bound_to 7965
  140.4270  143.2585  151.9644 LP  0  0  0  0  0  0  0  0  0  0  0  0  # atno 17342 bound_to 10162
  139.4792  144.5779  151.7981 LP  0  0  0  0  0  0  0  0  0  0  0  0  # atno 17343 bound_to 10162
  156.4223  130.3955  149.6816 LP  0  0  0  0  0  0  0  0  0  0  0  0  # atno 17370 bound_to 10713
  156.4063  130.7700  151.2710 LP  0  0  0  0  0  0  0  0  0  0  0  0  # atno 17371 bound_to 10713
  139.9522  135.0173  156.9025 LP  0  0  0  0  0  0  0  0  0  0  0  0  # atno 17394 bound_to 11000
  140.5677  134.0473  155.7420 LP  0  0  0  0  0  0  0  0  0  0  0  0  # atno 17395 bound_to 11000

$$$$
