AV-unprocessed.smi:1794|AV-procd|sdf|7233|dock4
  -GOLD-   22720 8473D 1   1.00000     0.00000
 Structure written by MMmdl.
 55 57  0  0  0  0  0  0  0  0  2 V2000
  144.3444  135.0970  154.0594 C   0  0  0  0  0  0  0  0  0  0  0  0
  144.2836  134.2950  152.7347 C   0  0  0  0  0  0  0  0  0  0  0  0
  142.7816  134.1825  152.3716 C   0  0  0  0  0  0  0  0  0  0  0  0
  145.0409  135.0522  151.6017 C   0  0  0  0  0  0  0  0  0  0  0  0
  146.0938  135.9368  152.1004 N   0  0  0  0  0  0  0  0  0  0  0  0
  145.9134  137.1801  152.5688 C   0  0  0  0  0  0  0  0  0  0  0  0
  144.8086  137.7138  152.6543 O   0  0  0  0  0  0  0  0  0  0  0  0
  147.0888  137.7371  152.9080 N   0  0  0  0  0  0  0  0  0  0  0  0
  147.3913  139.0475  153.3873 C   0  0  0  0  0  0  0  0  0  0  0  0
  146.5740  140.1783  153.1309 C   0  0  0  0  0  0  0  0  0  0  0  0
  146.9718  141.4411  153.6029 C   0  0  0  0  0  0  0  0  0  0  0  0
  148.1788  141.5373  154.3132 C   0  0  0  0  0  0  0  0  0  0  0  0
  148.9660  140.4748  154.5702 N   0  0  0  0  0  0  0  0  0  0  0  0
  148.5893  139.2481  154.1335 C   0  0  0  0  0  0  0  0  0  0  0  0
  149.4429  138.1673  154.4521 N   0  0  0  0  0  0  0  0  0  0  0  0
  150.8236  138.4101  154.8590 C   0  0  0  0  0  0  0  0  0  0  0  0
  151.2718  137.1170  155.5343 C   0  0  0  0  0  0  0  0  0  0  0  0
  149.9946  136.6534  156.2270 C   0  0  0  0  0  0  0  0  0  0  0  0
  148.8841  137.0925  155.2672 C   0  0  0  0  0  0  0  0  0  0  0  0
  144.8591  132.9193  152.9568 N   0  3  0  0  0  0  0  0  0  0  0  0
  144.9282  132.0399  151.7552 C   0  0  0  0  0  0  0  0  0  0  0  0
  145.3491  130.6150  152.1521 C   0  0  0  0  0  0  0  0  0  0  0  0
  146.6031  130.6534  152.8177 O   0  0  0  0  0  0  0  0  0  0  0  0
  146.5379  131.4149  154.0149 C   0  0  0  0  0  0  0  0  0  0  0  0
  146.1590  132.8684  153.6850 C   0  0  0  0  0  0  0  0  0  0  0  0
  143.7480  136.0086  154.0096 H   0  0  0  0  0  0  0  0  0  0  0  0
  145.3578  135.4124  154.3066 H   0  0  0  0  0  0  0  0  0  0  0  0
  143.9596  134.5133  154.8964 H   0  0  0  0  0  0  0  0  0  0  0  0
  142.2866  135.1540  152.3969 H   0  0  0  0  0  0  0  0  0  0  0  0
  142.2505  133.5364  153.0718 H   0  0  0  0  0  0  0  0  0  0  0  0
  142.6249  133.7913  151.3667 H   0  0  0  0  0  0  0  0  0  0  0  0
  145.4608  134.3551  150.8759 H   0  0  0  0  0  0  0  0  0  0  0  0
  144.3530  135.6842  151.0412 H   0  0  0  0  0  0  0  0  0  0  0  0
  147.0370  135.5780  152.0697 H   0  0  0  0  0  0  0  0  0  0  0  0
  147.8979  137.1470  152.7800 H   0  0  0  0  0  0  0  0  0  0  0  0
  145.6523  140.1206  152.5770 H   0  0  0  0  0  0  0  0  0  0  0  0
  146.3674  142.3166  153.4172 H   0  0  0  0  0  0  0  0  0  0  0  0
  148.5215  142.4911  154.6862 H   0  0  0  0  0  0  0  0  0  0  0  0
  151.4505  138.6574  154.0020 H   0  0  0  0  0  0  0  0  0  0  0  0
  150.8846  139.2296  155.5759 H   0  0  0  0  0  0  0  0  0  0  0  0
  151.5750  136.3871  154.7825 H   0  0  0  0  0  0  0  0  0  0  0  0
  152.1041  137.2632  156.2233 H   0  0  0  0  0  0  0  0  0  0  0  0
  149.9823  135.5820  156.4283 H   0  0  0  0  0  0  0  0  0  0  0  0
  149.8848  137.1760  157.1781 H   0  0  0  0  0  0  0  0  0  0  0  0
  147.9905  137.4061  155.8087 H   0  0  0  0  0  0  0  0  0  0  0  0
  148.6095  136.2642  154.6137 H   0  0  0  0  0  0  0  0  0  0  0  0
  143.9663  131.9720  151.2513 H   0  0  0  0  0  0  0  0  0  0  0  0
  145.6427  132.4385  151.0350 H   0  0  0  0  0  0  0  0  0  0  0  0
  144.5964  130.1497  152.7910 H   0  0  0  0  0  0  0  0  0  0  0  0
  145.4415  129.9900  151.2636 H   0  0  0  0  0  0  0  0  0  0  0  0
  145.8194  130.9713  154.7062 H   0  0  0  0  0  0  0  0  0  0  0  0
  147.5111  131.3835  154.5053 H   0  0  0  0  0  0  0  0  0  0  0  0
  146.9490  133.3167  153.0824 H   0  0  0  0  0  0  0  0  0  0  0  0
  146.1170  133.4197  154.6221 H   0  0  0  0  0  0  0  0  0  0  0  0
  144.1979  132.4677  153.5725 H   0  0  0  0  0  0  0  0  0  0  0  0
  1  2  1  0  0  0  0
  1 26  1  0  0  0  0
  1 27  1  0  0  0  0
  1 28  1  0  0  0  0
  2  3  1  0  0  0  0
  2  4  1  0  0  0  0
  2 20  1  0  0  0  0
  3 29  1  0  0  0  0
  3 30  1  0  0  0  0
  3 31  1  0  0  0  0
  4  5  1  0  0  0  0
  4 32  1  0  0  0  0
  4 33  1  0  0  0  0
  5  6  1  0  0  0  0
  5 34  1  0  0  0  0
  6  7  2  0  0  0  0
  6  8  1  0  0  0  0
  8  9  1  0  0  0  0
  8 35  1  0  0  0  0
  9 14  1  0  0  0  0
  9 10  2  0  0  0  0
 10 11  1  0  0  0  0
 10 36  1  0  0  0  0
 11 12  2  0  0  0  0
 11 37  1  0  0  0  0
 12 13  1  0  0  0  0
 12 38  1  0  0  0  0
 13 14  2  0  0  0  0
 14 15  1  0  0  0  0
 15 19  1  0  0  0  0
 15 16  1  0  0  0  0
 16 17  1  0  0  0  0
 16 39  1  0  0  0  0
 16 40  1  0  0  0  0
 17 18  1  0  0  0  0
 17 41  1  0  0  0  0
 17 42  1  0  0  0  0
 18 19  1  0  0  0  0
 18 43  1  0  0  0  0
 18 44  1  0  0  0  0
 19 45  1  0  0  0  0
 19 46  1  0  0  0  0
 20 25  1  0  0  0  0
 20 21  1  0  0  0  0
 20 55  1  0  0  0  0
 21 22  1  0  0  0  0
 21 47  1  0  0  0  0
 21 48  1  0  0  0  0
 22 23  1  0  0  0  0
 22 49  1  0  0  0  0
 22 50  1  0  0  0  0
 23 24  1  0  0  0  0
 24 25  1  0  0  0  0
 24 51  1  0  0  0  0
 24 52  1  0  0  0  0
 25 53  1  0  0  0  0
 25 54  1  0  0  0  0
M  CHG  1  20   1
M  END
> <s_m_source_file>
AV-unprocessed.smi

> <i_m_source_file_index>
1794

> <i_lp_mmshare_version>
43012

> <i_f3d_flags>
0

> <s_epik_input>
W0NIMl0xW0NIMl1PW0NIMl1bQ0gyXU4xQyhbQ0gzXSkoW0NIM10pW0NIMl1bTkhdQyg9TylbTkhdYzJbY0hdW2NIXVtjSF1uYzJOM1tDSDJdW0NIMl1bQ0gyXVtDSDJdMw==

> <s_epik_cmdline>
J2VwaWtfcHl0aG9uJywgJy1waCcsICc3LjAnLCAnLXRuJywgJzgnLCAnLW1hJywgJzIwMCcsICctbWV0YWxfYmluZGluZycsICctaW1hZScsICc8aW5maWxlLm1hZT4nLCAnLW9tYWUnLCAnPG91dGZpbGUubWFlPic=

> <r_lp_tautomer_probability>
1

> <r_epik_Ionization_Penalty>
0.687101

> <r_epik_Ionization_Penalty_Charging>
0.602531

> <r_epik_Ionization_Penalty_Neutral>
0.0845706

> <r_epik_State_Penalty>
0.681137

> <r_epik_Charging_Adjusted_Penalty>
1.28367

> <i_epik_Tot_Q>
1

> <i_epik_Tot_abs_Q>
1

> <r_epik_Metal_State_Penalty>
0.680055

> <b_epik_Metal_Only>
0

> <s_lp_Force_Field>
OPLS_2005

> <r_lp_Energy>
53.5269

> <b_lp_Chiralities_Consistent>
1

> <s_lp_Variant>
AV-unprocessed.smi:1794-2

> <Gold.Version>
5.8.1

> <Gold.Id.Protein>
6NUR|6NUR_protein|mol2

> <Gold.PLP.Fitness>
43.3582

> <Gold.PLP.PLP>
-32.5413

> <Gold.PLP.part.hbond>
-2.6986

> <Gold.PLP.part.metal>
0.0000

> <Gold.PLP.part.buried>
-5.2753

> <Gold.PLP.part.nonpolar>
-27.7921

> <Gold.PLP.part.repulsive>
2.4288

> <Gold.PLP.ligand.clash>
0.0000

> <Gold.PLP.ligand.torsion>
1.4341

> <Gold.PLP.Chemscore.Hbond>
3.4245

> <Gold.PLP.Chemscore.CHOScore>
1.0000

> <Gold.PLP.Chemscore.Metal>
0.0000

> <Gold.Chemscore.Hbonds>
donor molecule, donor type, donor heavy atom, donor atom, acceptor molecule, acceptor atom, score
      L1  H     5    34       P1  7948  0.82
      L1  H     8    35       P1  7948  1.00
      L1  H    20    55       P1 10957  1.85
      L1  C    12    38       P1  8028  1.00

> <Gold.PLP.Chemscore.Internal.Correction>
0.4117

> <Gold.Rescore>
     Score         DG    S(hbond)    S(metal)    S(lipo)     H(rot)  DE(clash)    DE(int)     intcor
     13.01     -17.22       1.80        0.00      84.04       1.60       2.29       1.92       ----

> <Gold.Chemscore.Fitness>
13.0063

> <Gold.Chemscore.DG>
-17.2161

> <Gold.Chemscore.ZeroCoef>
-5.4800

> <Gold.Chemscore.Hbond>
1.7996

> <Gold.Chemscore.Metal>
0.0000

> <Gold.Chemscore.Lipo>
84.0405

> <Gold.Chemscore.Internal_Hbond>
0.0000

> <Gold.Chemscore.DEClash>
2.2870

> <Gold.Chemscore.DEInternal>
1.9228

> <Gold.Chemscore.Rot>
1.6044

> <Gold.Chemscore.Internal.Correction>
   9.000000E+99

> <Gold.Chemscore.Hbonds>
donor molecule, donor type, donor heavy atom, donor atom, acceptor molecule, acceptor atom, score
      L1  H     5    34       P1  7948  0.78
      L1  H     8    35       P1  7948  0.97
      L1  H    20    55       P1 10957  0.23

> <Gold.Chemscore.Hbond.Weighted>
-6.0106

> <Gold.Chemscore.Metal.Weighted>
-0.0000

> <Gold.Chemscore.Lipo.Weighted>
-9.8327

> <Gold.Chemscore.Internal_Hbond.Weighted>
0.0000

> <Gold.Chemscore.DEClash.Weighted>
2.2870

> <Gold.Chemscore.DEInternal.Weighted>
1.9228

> <Gold.Chemscore.Rot.Weighted>
4.1072

> <Gold.Chemscore.Internal.Correction.Weighted>
   9.000000E+99

> <Gold.Protein.RotatedTorsions>
[ 6907 6896 6895 6894 ] final  112.84 input  -60.11 | X-H torsion
[ 7974 7965 7964 7962 ] final  -43.26 input  175.53 | X-H torsion
[ 8008 7997 7996 7995 ] final -150.24 input   59.86 | X-H torsion
[ 10167 10162 10161 10158 ] final -150.54 input  -65.29 | X-H torsion
[ 10718 10713 10712 10709 ] final   -7.82 input   66.30 | X-H torsion
[ 10763 10752 10751 10750 ] final   29.14 input  -60.55 | X-H torsion
[ 11005 11000 10999 10996 ] final -114.74 input  -57.11 | X-H torsion

> <Gold.Protein.ActiveResidues>
 VAL166  LYS551  ARG553  GLY616  TRP617  ASP618  TYR619  PRO620  LYS621  CYS622 
 ASP623  PHE694  ASN695  SER759  ASP760  ASP761  ALA762  ILE779  LEU786  VAL792 
 PHE793  MET794  SER795  GLU796  ALA797  LYS798  CYS799  TRP800  GLU811  SER814 

> <Gold.Protein.RotatedAtoms>
  152.4894  133.8460  159.7176 H   0  0  0  0  0  0  0  0  0  0  0  0  # atno 6907 bound_to 6896
  150.9010  133.7109  159.2885 H   0  0  0  0  0  0  0  0  0  0  0  0  # atno 6908 bound_to 6896
  151.4550  135.1037  159.9761 H   0  0  0  0  0  0  0  0  0  0  0  0  # atno 6909 bound_to 6896
  146.0036  140.7046  142.9258 H   0  0  0  0  0  0  0  0  0  0  0  0  # atno 7974 bound_to 7965
  155.6203  140.0681  157.2680 H   0  0  0  0  0  0  0  0  0  0  0  0  # atno 8008 bound_to 7997
  154.4231  140.1785  156.1414 H   0  0  0  0  0  0  0  0  0  0  0  0  # atno 8009 bound_to 7997
  156.0014  140.3335  155.6853 H   0  0  0  0  0  0  0  0  0  0  0  0  # atno 8010 bound_to 7997
  139.7345  143.8756  152.2545 H   0  0  0  0  0  0  0  0  0  0  0  0  # atno 10167 bound_to 10162
  156.7117  130.5124  149.5890 H   0  0  0  0  0  0  0  0  0  0  0  0  # atno 10718 bound_to 10713
  153.0449  135.6496  154.0844 H   0  0  0  0  0  0  0  0  0  0  0  0  # atno 10763 bound_to 10752
  154.0544  135.2893  155.3337 H   0  0  0  0  0  0  0  0  0  0  0  0  # atno 10764 bound_to 10752
  154.6699  135.5360  153.8190 H   0  0  0  0  0  0  0  0  0  0  0  0  # atno 10765 bound_to 10752
  141.0532  133.9653  157.2799 H   0  0  0  0  0  0  0  0  0  0  0  0  # atno 11005 bound_to 11000
  144.6928  140.3276  143.7221 LP  0  0  0  0  0  0  0  0  0  0  0  0  # atno 17320 bound_to 7965
  145.7450  139.1776  143.2354 LP  0  0  0  0  0  0  0  0  0  0  0  0  # atno 17321 bound_to 7965
  139.8689  144.7078  150.9011 LP  0  0  0  0  0  0  0  0  0  0  0  0  # atno 17342 bound_to 10162
  140.7776  143.3754  151.1572 LP  0  0  0  0  0  0  0  0  0  0  0  0  # atno 17343 bound_to 10162
  156.1656  130.6403  151.0774 LP  0  0  0  0  0  0  0  0  0  0  0  0  # atno 17370 bound_to 10713
  157.6933  131.0802  150.7043 LP  0  0  0  0  0  0  0  0  0  0  0  0  # atno 17371 bound_to 10713
  139.9368  135.0195  156.8581 LP  0  0  0  0  0  0  0  0  0  0  0  0  # atno 17394 bound_to 11000
  140.6014  134.0168  155.7539 LP  0  0  0  0  0  0  0  0  0  0  0  0  # atno 17395 bound_to 11000

$$$$
