AV-unprocessed.smi:3158|AV-procd|sdf|12048|dock9
  -GOLD-   2272017473D 1   1.00000     0.00000
 Structure written by MMmdl.
 39 39  0  0  0  0  0  0  0  0  1 V2000
  152.3123  144.6254  158.9186 C   0  0  0  0  0  0  0  0  0  0  0  0
  151.9070  143.1445  158.9388 C   0  0  0  0  0  0  0  0  0  0  0  0
  152.8875  142.2372  159.7077 C   0  0  1  0  0  0  0  0  0  0  0  0
  153.0240  142.6649  161.1754 C   0  0  0  0  0  0  0  0  0  0  0  0
  152.4526  140.8426  159.6584 N   0  0  0  0  0  0  0  0  0  0  0  0
  153.2269  139.7832  159.3725 C   0  0  0  0  0  0  0  0  0  0  0  0
  154.4248  139.8709  159.1012 O   0  0  0  0  0  0  0  0  0  0  0  0
  152.5466  138.4050  159.4306 C   0  0  1  0  0  0  0  0  0  0  0  0
  153.1993  137.5173  160.5032 C   0  0  0  0  0  0  0  0  0  0  0  0
  151.0933  138.4831  159.6648 N   0  0  0  0  0  0  0  0  0  0  0  0
  150.4404  137.1885  159.8253 C   0  0  0  0  0  0  0  0  0  0  0  0
  148.9671  137.4024  160.1983 C   0  0  0  0  0  0  0  0  0  0  0  0
  148.5850  136.5908  161.3374 N   0  0  0  0  0  0  0  0  0  0  0  0
  148.4980  135.2172  161.4204 C   0  0  0  0  0  0  0  0  0  0  0  0
  148.1063  134.9116  162.6924 C   0  0  0  0  0  0  0  0  0  0  0  0
  147.9779  136.1818  163.3210 C   0  0  0  0  0  0  0  0  0  0  0  0
  148.2662  137.1849  162.5077 N   0  0  0  0  0  0  0  0  0  0  0  0
  151.5532  145.2271  158.4185 H   0  0  0  0  0  0  0  0  0  0  0  0
  153.2525  144.7774  158.3881 H   0  0  0  0  0  0  0  0  0  0  0  0
  152.4315  145.0141  159.9304 H   0  0  0  0  0  0  0  0  0  0  0  0
  150.9188  143.0648  159.3932 H   0  0  0  0  0  0  0  0  0  0  0  0
  151.7977  142.7872  157.9141 H   0  0  0  0  0  0  0  0  0  0  0  0
  153.8734  142.3386  159.2507 H   0  0  0  0  0  0  0  0  0  0  0  0
  153.3766  143.6938  161.2529 H   0  0  0  0  0  0  0  0  0  0  0  0
  153.7388  142.0325  161.7035 H   0  0  0  0  0  0  0  0  0  0  0  0
  152.0701  142.5995  161.6997 H   0  0  0  0  0  0  0  0  0  0  0  0
  151.4825  140.6655  159.8750 H   0  0  0  0  0  0  0  0  0  0  0  0
  152.7019  137.9126  158.4688 H   0  0  0  0  0  0  0  0  0  0  0  0
  154.2739  137.4250  160.3403 H   0  0  0  0  0  0  0  0  0  0  0  0
  152.7804  136.5108  160.4835 H   0  0  0  0  0  0  0  0  0  0  0  0
  153.0476  137.9171  161.5068 H   0  0  0  0  0  0  0  0  0  0  0  0
  150.6284  139.0165  158.9438 H   0  0  0  0  0  0  0  0  0  0  0  0
  150.4987  136.6096  158.9028 H   0  0  0  0  0  0  0  0  0  0  0  0
  150.9451  136.6172  160.6058 H   0  0  0  0  0  0  0  0  0  0  0  0
  148.7775  138.4504  160.4369 H   0  0  0  0  0  0  0  0  0  0  0  0
  148.3193  137.1455  159.3589 H   0  0  0  0  0  0  0  0  0  0  0  0
  148.7211  134.5793  160.5779 H   0  0  0  0  0  0  0  0  0  0  0  0
  147.9377  133.9304  163.1104 H   0  0  0  0  0  0  0  0  0  0  0  0
  147.6861  136.4032  164.3370 H   0  0  0  0  0  0  0  0  0  0  0  0
  1  2  1  0  0  0  0
  1 18  1  0  0  0  0
  1 19  1  0  0  0  0
  1 20  1  0  0  0  0
  2  3  1  0  0  0  0
  2 21  1  0  0  0  0
  2 22  1  0  0  0  0
  3  4  1  0  0  0  0
  3  5  1  0  0  0  0
  3 23  1  0  0  0  0
  4 24  1  0  0  0  0
  4 25  1  0  0  0  0
  4 26  1  0  0  0  0
  5  6  1  0  0  0  0
  5 27  1  0  0  0  0
  6  7  2  0  0  0  0
  6  8  1  0  0  0  0
  8  9  1  0  0  0  0
  8 10  1  0  0  0  0
  8 28  1  0  0  0  0
  9 29  1  0  0  0  0
  9 30  1  0  0  0  0
  9 31  1  0  0  0  0
 10 11  1  0  0  0  0
 10 32  1  0  0  0  0
 11 12  1  0  0  0  0
 11 33  1  0  0  0  0
 11 34  1  0  0  0  0
 12 13  1  0  0  0  0
 12 35  1  0  0  0  0
 12 36  1  0  0  0  0
 13 17  1  0  0  0  0
 13 14  1  0  0  0  0
 14 15  2  0  0  0  0
 14 37  1  0  0  0  0
 15 16  1  0  0  0  0
 15 38  1  0  0  0  0
 16 17  2  0  0  0  0
 16 39  1  0  0  0  0
M  END
> <s_m_source_file>
AV-unprocessed.smi

> <i_m_source_file_index>
3158

> <i_lp_mmshare_version>
43012

> <i_f3d_flags>
0

> <s_epik_input>
W0NIM11bQ0gyXVtDQEhdKFtDSDNdKVtOSF1DKD1PKVtDQEhdKFtDSDNdKVtOSF1bQ0gyXVtDSDJdbjFbY0hdW2NIXVtjSF1uMQ==

> <s_epik_cmdline>
J2VwaWtfcHl0aG9uJywgJy1waCcsICc3LjAnLCAnLXRuJywgJzgnLCAnLW1hJywgJzIwMCcsICctbWV0YWxfYmluZGluZycsICctaW1hZScsICc8aW5maWxlLm1hZT4nLCAnLW9tYWUnLCAnPG91dGZpbGUubWFlPic=

> <r_lp_tautomer_probability>
1

> <r_epik_Ionization_Penalty>
0.724013

> <r_epik_Ionization_Penalty_Charging>
0

> <r_epik_Ionization_Penalty_Neutral>
0.724013

> <r_epik_State_Penalty>
0.74758

> <r_epik_Charging_Adjusted_Penalty>
0.74758

> <i_epik_Tot_Q>
0

> <i_epik_Tot_abs_Q>
0

> <r_epik_Metal_State_Penalty>
0.746846

> <b_epik_Metal_Only>
0

> <s_lp_Force_Field>
OPLS_2005

> <r_lp_Energy>
5.19136

> <b_lp_Chiralities_Consistent>
1

> <s_lp_Variant>
AV-unprocessed.smi:3158-8

> <Gold.Version>
5.8.1

> <Gold.Id.Protein>
6NUR|6NUR_protein|mol2

> <Gold.PLP.Fitness>
44.7673

> <Gold.PLP.PLP>
-37.5460

> <Gold.PLP.part.hbond>
-3.0000

> <Gold.PLP.part.metal>
0.0000

> <Gold.PLP.part.buried>
-4.1025

> <Gold.PLP.part.nonpolar>
-30.2694

> <Gold.PLP.part.repulsive>
0.1332

> <Gold.PLP.ligand.clash>
0.0000

> <Gold.PLP.ligand.torsion>
0.6324

> <Gold.PLP.Chemscore.Hbond>
2.7840

> <Gold.PLP.Chemscore.CHOScore>
0.0000

> <Gold.PLP.Chemscore.Metal>
0.0000

> <Gold.Chemscore.Hbonds>
donor molecule, donor type, donor heavy atom, donor atom, acceptor molecule, acceptor atom, score
      P1  H  6931  6943       L1    17  0.07
      P1  H  7997  8008       L1     7  1.00

> <Gold.PLP.Chemscore.Internal.Correction>
0.1341

> <Gold.Rescore>
     Score         DG    S(hbond)    S(metal)    S(lipo)     H(rot)  DE(clash)    DE(int)     intcor
     16.50     -17.54       2.16        0.00      87.84       2.12       0.00       1.04       ----

> <Gold.Chemscore.Fitness>
16.4983

> <Gold.Chemscore.DG>
-17.5372

> <Gold.Chemscore.ZeroCoef>
-5.4800

> <Gold.Chemscore.Hbond>
2.1603

> <Gold.Chemscore.Metal>
0.0000

> <Gold.Chemscore.Lipo>
87.8442

> <Gold.Chemscore.Internal_Hbond>
0.0000

> <Gold.Chemscore.DEClash>
0.0038

> <Gold.Chemscore.DEInternal>
1.0351

> <Gold.Chemscore.Rot>
2.1234

> <Gold.Chemscore.Internal.Correction>
   9.000000E+99

> <Gold.Chemscore.Hbonds>
donor molecule, donor type, donor heavy atom, donor atom, acceptor molecule, acceptor atom, score
      P1  H  7997  8008       L1     7  0.95

> <Gold.Chemscore.Hbond.Weighted>
-7.2153

> <Gold.Chemscore.Metal.Weighted>
-0.0000

> <Gold.Chemscore.Lipo.Weighted>
-10.2778

> <Gold.Chemscore.Internal_Hbond.Weighted>
0.0000

> <Gold.Chemscore.DEClash.Weighted>
0.0038

> <Gold.Chemscore.DEInternal.Weighted>
1.0351

> <Gold.Chemscore.Rot.Weighted>
5.4359

> <Gold.Chemscore.Internal.Correction.Weighted>
   9.000000E+99

> <Gold.Protein.RotatedTorsions>
[ 6907 6896 6895 6894 ] final  150.47 input  -60.11 | X-H torsion
[ 7974 7965 7964 7962 ] final  -48.63 input  175.53 | X-H torsion
[ 8008 7997 7996 7995 ] final -126.54 input   59.86 | X-H torsion
[ 10167 10162 10161 10158 ] final  -71.50 input  -65.29 | X-H torsion
[ 10718 10713 10712 10709 ] final    1.03 input   66.30 | X-H torsion
[ 10763 10752 10751 10750 ] final  -52.63 input  -60.55 | X-H torsion
[ 11005 11000 10999 10996 ] final  117.89 input  -57.11 | X-H torsion

> <Gold.Protein.ActiveResidues>
 VAL166  LYS551  ARG553  GLY616  TRP617  ASP618  TYR619  PRO620  LYS621  CYS622 
 ASP623  PHE694  ASN695  SER759  ASP760  ASP761  ALA762  ILE779  LEU786  VAL792 
 PHE793  MET794  SER795  GLU796  ALA797  LYS798  CYS799  TRP800  GLU811  SER814 

> <Gold.Protein.RotatedAtoms>
  152.1140  133.4316  159.4643 H   0  0  0  0  0  0  0  0  0  0  0  0  # atno 6907 bound_to 6896
  150.6868  134.2615  159.4560 H   0  0  0  0  0  0  0  0  0  0  0  0  # atno 6908 bound_to 6896
  152.0486  134.9667  160.0625 H   0  0  0  0  0  0  0  0  0  0  0  0  # atno 6909 bound_to 6896
  145.9492  140.7589  142.9513 H   0  0  0  0  0  0  0  0  0  0  0  0  # atno 7974 bound_to 7965
  155.2313  140.0425  157.2962 H   0  0  0  0  0  0  0  0  0  0  0  0  # atno 8008 bound_to 7997
  154.5886  140.2420  155.7922 H   0  0  0  0  0  0  0  0  0  0  0  0  # atno 8009 bound_to 7997
  156.2244  140.2959  156.0038 H   0  0  0  0  0  0  0  0  0  0  0  0  # atno 8010 bound_to 7997
  140.5268  143.2325  151.7333 H   0  0  0  0  0  0  0  0  0  0  0  0  # atno 10167 bound_to 10162
  156.8421  130.5524  149.5677 H   0  0  0  0  0  0  0  0  0  0  0  0  # atno 10718 bound_to 10713
  154.1458  135.6498  153.4952 H   0  0  0  0  0  0  0  0  0  0  0  0  # atno 10763 bound_to 10752
  153.0152  135.5326  154.6858 H   0  0  0  0  0  0  0  0  0  0  0  0  # atno 10764 bound_to 10752
  154.6132  135.2956  155.0380 H   0  0  0  0  0  0  0  0  0  0  0  0  # atno 10765 bound_to 10752
  139.9090  134.9615  156.7420 H   0  0  0  0  0  0  0  0  0  0  0  0  # atno 11005 bound_to 11000
  144.6792  140.2406  143.7344 LP  0  0  0  0  0  0  0  0  0  0  0  0  # atno 17320 bound_to 7965
  145.8195  139.2037  143.1946 LP  0  0  0  0  0  0  0  0  0  0  0  0  # atno 17321 bound_to 7965
  139.4941  144.4174  152.0015 LP  0  0  0  0  0  0  0  0  0  0  0  0  # atno 17342 bound_to 10162
  140.3274  144.3357  150.5995 LP  0  0  0  0  0  0  0  0  0  0  0  0  # atno 17343 bound_to 10162
  156.0874  130.5869  150.9673 LP  0  0  0  0  0  0  0  0  0  0  0  0  # atno 17370 bound_to 10713
  157.6350  131.0917  150.8367 LP  0  0  0  0  0  0  0  0  0  0  0  0  # atno 17371 bound_to 10713
  140.6842  133.9448  155.7928 LP  0  0  0  0  0  0  0  0  0  0  0  0  # atno 17394 bound_to 11000
  141.0489  134.0514  157.3809 LP  0  0  0  0  0  0  0  0  0  0  0  0  # atno 17395 bound_to 11000

$$$$
