AV-unprocessed.smi:2828|AV-procd|sdf|10897|dock9
  -GOLD-   2272015343D 1   1.00000     0.00000
 Structure written by MMmdl.
 38 39  0  0  0  0  0  0  0  0  1 V2000
  150.9876  144.0846  161.0017 C   0  0  0  0  0  0  0  0  0  0  0  0
  151.8586  144.4519  159.8001 C   0  0  0  0  0  0  0  0  0  0  0  0
  152.3190  145.8932  159.9735 C   0  0  0  0  0  0  0  0  0  0  0  0
  152.8177  143.4719  159.1251 C   0  0  0  0  0  0  0  0  0  0  0  0
  152.9672  142.0875  159.6687 C   0  0  0  0  0  0  0  0  0  0  0  0
  153.3247  141.8626  160.8251 O   0  0  0  0  0  0  0  0  0  0  0  0
  152.7508  141.1180  158.7666 N   0  0  0  0  0  0  0  0  0  0  0  0
  152.8587  139.6884  159.0327 C   0  0  0  0  0  0  0  0  0  0  0  0
  151.5962  138.9320  158.5897 C   0  0  0  0  0  0  0  0  0  0  0  0
  151.2508  139.1887  157.1613 C   0  0  0  0  0  0  0  0  0  0  0  0
  150.2224  138.6878  156.4807 N   0  0  0  0  0  0  0  0  0  0  0  0
  150.3826  139.3023  155.2782 C   0  0  0  0  0  0  0  0  0  0  0  0
  149.5021  139.0543  154.2123 N   0  0  0  0  0  0  0  0  0  0  0  0
  151.4071  140.1394  155.1840 N   0  0  0  0  0  0  0  0  0  0  0  0
  151.9921  140.0776  156.4573 O   0  0  0  0  0  0  0  0  0  0  0  0
  151.5344  143.8923  158.4140 C   0  0  0  0  0  0  0  0  0  0  0  0
  150.3541  142.9414  158.2135 C   0  0  0  0  0  0  0  0  0  0  0  0
  151.6571  144.7674  157.1739 C   0  0  0  0  0  0  0  0  0  0  0  0
  151.5417  144.2330  161.9292 H   0  0  0  0  0  0  0  0  0  0  0  0
  150.6586  143.0477  160.9835 H   0  0  0  0  0  0  0  0  0  0  0  0
  150.0998  144.7170  161.0280 H   0  0  0  0  0  0  0  0  0  0  0  0
  153.0537  146.1750  159.2204 H   0  0  0  0  0  0  0  0  0  0  0  0
  152.7856  146.0290  160.9496 H   0  0  0  0  0  0  0  0  0  0  0  0
  151.4698  146.5729  159.8979 H   0  0  0  0  0  0  0  0  0  0  0  0
  153.7522  143.9054  158.7729 H   0  0  0  0  0  0  0  0  0  0  0  0
  152.4842  141.3910  157.8315 H   0  0  0  0  0  0  0  0  0  0  0  0
  153.7421  139.2819  158.5372 H   0  0  0  0  0  0  0  0  0  0  0  0
  153.0149  139.5551  160.1034 H   0  0  0  0  0  0  0  0  0  0  0  0
  151.7329  137.8588  158.7266 H   0  0  0  0  0  0  0  0  0  0  0  0
  150.7439  139.2192  159.2068 H   0  0  0  0  0  0  0  0  0  0  0  0
  148.7319  138.4111  154.3254 H   0  0  0  0  0  0  0  0  0  0  0  0
  149.6276  139.5239  153.3273 H   0  0  0  0  0  0  0  0  0  0  0  0
  150.4712  142.3830  157.2844 H   0  0  0  0  0  0  0  0  0  0  0  0
  149.4236  143.5071  158.1585 H   0  0  0  0  0  0  0  0  0  0  0  0
  150.2591  142.2135  159.0170 H   0  0  0  0  0  0  0  0  0  0  0  0
  151.6939  144.1523  156.2744 H   0  0  0  0  0  0  0  0  0  0  0  0
  152.5661  145.3673  157.1939 H   0  0  0  0  0  0  0  0  0  0  0  0
  150.8016  145.4395  157.0997 H   0  0  0  0  0  0  0  0  0  0  0  0
  1  2  1  0  0  0  0
  1 19  1  0  0  0  0
  1 20  1  0  0  0  0
  1 21  1  0  0  0  0
  2 16  1  0  0  0  0
  2  3  1  0  0  0  0
  2  4  1  0  0  0  0
  3 22  1  0  0  0  0
  3 23  1  0  0  0  0
  3 24  1  0  0  0  0
  4  5  1  0  0  0  0
  4 16  1  0  0  0  0
  4 25  1  0  0  0  0
  5  6  2  0  0  0  0
  5  7  1  0  0  0  0
  7  8  1  0  0  0  0
  7 26  1  0  0  0  0
  8  9  1  0  0  0  0
  8 27  1  0  0  0  0
  8 28  1  0  0  0  0
  9 10  1  0  0  0  0
  9 29  1  0  0  0  0
  9 30  1  0  0  0  0
 10 15  1  0  0  0  0
 10 11  2  0  0  0  0
 11 12  1  0  0  0  0
 12 13  1  0  0  0  0
 12 14  2  0  0  0  0
 13 31  1  0  0  0  0
 13 32  1  0  0  0  0
 14 15  1  0  0  0  0
 16 17  1  0  0  0  0
 16 18  1  0  0  0  0
 17 33  1  0  0  0  0
 17 34  1  0  0  0  0
 17 35  1  0  0  0  0
 18 36  1  0  0  0  0
 18 37  1  0  0  0  0
 18 38  1  0  0  0  0
M  END
> <s_m_source_file>
AV-unprocessed.smi

> <i_m_source_file_index>
2828

> <i_lp_mmshare_version>
43012

> <i_f3d_flags>
0

> <s_epik_input>
W0NIM11DMShbQ0gzXSlbQ0hdKEMxKFtDSDNdKVtDSDNdKUMoPU8pW05IXVtDSDJdW0NIMl1jMm5jKFtOSDJdKW5vMg==

> <s_epik_cmdline>
J2VwaWtfcHl0aG9uJywgJy1waCcsICc3LjAnLCAnLXRuJywgJzgnLCAnLW1hJywgJzIwMCcsICctbWV0YWxfYmluZGluZycsICctaW1hZScsICc8aW5maWxlLm1hZT4nLCAnLW9tYWUnLCAnPG91dGZpbGUubWFlPic=

> <r_lp_tautomer_probability>
1

> <r_epik_Ionization_Penalty>
9.99855e-05

> <r_epik_Ionization_Penalty_Charging>
0

> <r_epik_Ionization_Penalty_Neutral>
9.99855e-05

> <r_epik_State_Penalty>
-0

> <r_epik_Charging_Adjusted_Penalty>
0

> <i_epik_Tot_Q>
0

> <i_epik_Tot_abs_Q>
0

> <r_epik_Metal_State_Penalty>
-0

> <b_epik_Metal_Only>
0

> <s_lp_Force_Field>
OPLS_2005

> <r_lp_Energy>
20.4222

> <b_lp_Chiralities_Consistent>
1

> <s_lp_Variant>
AV-unprocessed.smi:2828-1

> <Gold.Version>
5.8.1

> <Gold.Id.Protein>
6NUR|6NUR_protein|mol2

> <Gold.PLP.Fitness>
41.2208

> <Gold.PLP.PLP>
-33.0182

> <Gold.PLP.part.hbond>
-3.0000

> <Gold.PLP.part.metal>
0.0000

> <Gold.PLP.part.buried>
-2.9999

> <Gold.PLP.part.nonpolar>
-26.6103

> <Gold.PLP.part.repulsive>
0.2402

> <Gold.PLP.ligand.clash>
0.0000

> <Gold.PLP.ligand.torsion>
0.1178

> <Gold.PLP.Chemscore.Hbond>
2.7673

> <Gold.PLP.Chemscore.CHOScore>
0.0000

> <Gold.PLP.Chemscore.Metal>
0.0000

> <Gold.Chemscore.Hbonds>
donor molecule, donor type, donor heavy atom, donor atom, acceptor molecule, acceptor atom, score
      L1  H    13    32       P1  7957  0.52
      P1  H  7989  7998       L1    14  1.00
      P1  H  7997  8009       L1    15  0.16

> <Gold.PLP.Chemscore.Internal.Correction>
0.1365

> <Gold.Rescore>
     Score         DG    S(hbond)    S(metal)    S(lipo)     H(rot)  DE(clash)    DE(int)     intcor
     14.09     -16.52       1.92        0.00      89.26       2.28       0.80       1.63       ----

> <Gold.Chemscore.Fitness>
14.0877

> <Gold.Chemscore.DG>
-16.5153

> <Gold.Chemscore.ZeroCoef>
-5.4800

> <Gold.Chemscore.Hbond>
1.9247

> <Gold.Chemscore.Metal>
0.0000

> <Gold.Chemscore.Lipo>
89.2641

> <Gold.Chemscore.Internal_Hbond>
0.0000

> <Gold.Chemscore.DEClash>
0.8017

> <Gold.Chemscore.DEInternal>
1.6259

> <Gold.Chemscore.Rot>
2.2801

> <Gold.Chemscore.Internal.Correction>
   9.000000E+99

> <Gold.Chemscore.Hbonds>
donor molecule, donor type, donor heavy atom, donor atom, acceptor molecule, acceptor atom, score
      L1  H    13    32       P1  7957  0.52
      P1  H  7989  7998       L1    14  0.88
      P1  H  7997  8009       L1    15  0.16

> <Gold.Chemscore.Hbond.Weighted>
-6.4284

> <Gold.Chemscore.Metal.Weighted>
-0.0000

> <Gold.Chemscore.Lipo.Weighted>
-10.4439

> <Gold.Chemscore.Internal_Hbond.Weighted>
0.0000

> <Gold.Chemscore.DEClash.Weighted>
0.8017

> <Gold.Chemscore.DEInternal.Weighted>
1.6259

> <Gold.Chemscore.Rot.Weighted>
5.8370

> <Gold.Chemscore.Internal.Correction.Weighted>
   9.000000E+99

> <Gold.Protein.RotatedTorsions>
[ 6907 6896 6895 6894 ] final -124.06 input  -60.11 | X-H torsion
[ 7974 7965 7964 7962 ] final  152.64 input  175.53 | X-H torsion
[ 8008 7997 7996 7995 ] final -176.66 input   59.86 | X-H torsion
[ 10167 10162 10161 10158 ] final   17.04 input  -65.29 | X-H torsion
[ 10718 10713 10712 10709 ] final  -12.66 input   66.30 | X-H torsion
[ 10763 10752 10751 10750 ] final -148.14 input  -60.55 | X-H torsion
[ 11005 11000 10999 10996 ] final  125.57 input  -57.11 | X-H torsion

> <Gold.Protein.ActiveResidues>
 VAL166  LYS551  ARG553  GLY616  TRP617  ASP618  TYR619  PRO620  LYS621  CYS622 
 ASP623  PHE694  ASN695  SER759  ASP760  ASP761  ALA762  ILE779  LEU786  VAL792 
 PHE793  MET794  SER795  GLU796  ALA797  LYS798  CYS799  TRP800  GLU811  SER814 

> <Gold.Protein.RotatedAtoms>
  150.8731  133.7477  159.2954 H   0  0  0  0  0  0  0  0  0  0  0  0  # atno 6907 bound_to 6896
  151.5082  135.1062  159.9856 H   0  0  0  0  0  0  0  0  0  0  0  0  # atno 6908 bound_to 6896
  152.4709  133.7983  159.6994 H   0  0  0  0  0  0  0  0  0  0  0  0  # atno 6909 bound_to 6896
  144.8209  139.6695  143.6101 H   0  0  0  0  0  0  0  0  0  0  0  0  # atno 7974 bound_to 7965
  155.9976  140.1214  157.0578 H   0  0  0  0  0  0  0  0  0  0  0  0  # atno 8008 bound_to 7997
  154.4232  140.1113  156.5721 H   0  0  0  0  0  0  0  0  0  0  0  0  # atno 8009 bound_to 7997
  155.6257  140.3472  155.4668 H   0  0  0  0  0  0  0  0  0  0  0  0  # atno 8010 bound_to 7997
  140.5754  143.9082  150.6746 H   0  0  0  0  0  0  0  0  0  0  0  0  # atno 10167 bound_to 10162
  156.6414  130.4929  149.6094 H   0  0  0  0  0  0  0  0  0  0  0  0  # atno 10718 bound_to 10713
  154.8249  135.3342  154.6928 H   0  0  0  0  0  0  0  0  0  0  0  0  # atno 10763 bound_to 10752
  153.7555  135.6936  153.4941 H   0  0  0  0  0  0  0  0  0  0  0  0  # atno 10764 bound_to 10752
  153.2146  135.4470  155.0370 H   0  0  0  0  0  0  0  0  0  0  0  0  # atno 10765 bound_to 10752
  139.9413  134.9635  156.8578 H   0  0  0  0  0  0  0  0  0  0  0  0  # atno 11005 bound_to 11000
  146.2514  139.6208  142.9424 LP  0  0  0  0  0  0  0  0  0  0  0  0  # atno 17320 bound_to 7965
  145.5108  141.0435  143.2489 LP  0  0  0  0  0  0  0  0  0  0  0  0  # atno 17321 bound_to 7965
  140.2568  143.3553  152.1358 LP  0  0  0  0  0  0  0  0  0  0  0  0  # atno 17342 bound_to 10162
  139.5140  144.6941  151.5679 LP  0  0  0  0  0  0  0  0  0  0  0  0  # atno 17343 bound_to 10162
  156.2156  130.6706  151.1315 LP  0  0  0  0  0  0  0  0  0  0  0  0  # atno 17370 bound_to 10713
  157.7170  131.0704  150.6288 LP  0  0  0  0  0  0  0  0  0  0  0  0  # atno 17371 bound_to 10713
  140.5945  134.0230  155.7512 LP  0  0  0  0  0  0  0  0  0  0  0  0  # atno 17394 bound_to 11000
  141.1048  133.9711  157.3016 LP  0  0  0  0  0  0  0  0  0  0  0  0  # atno 17395 bound_to 11000

$$$$
