AV-unprocessed.smi:110|AV-procd|sdf|1068|dock9
  -GOLD-   2262018153D 1   1.00000     0.00000
 Structure written by MMmdl.
 46 50  0  0  0  0  0  0  0  0  1 V2000
  145.4865  138.2971  151.6999 O   0  0  0  0  0  0  0  0  0  0  0  0
  146.8634  138.5506  151.8818 C   0  0  0  0  0  0  0  0  0  0  0  0
  147.1789  138.7137  153.3791 C   0  0  2  0  0  0  0  0  0  0  0  0
  148.5755  138.9136  153.5934 O   0  0  0  0  0  0  0  0  0  0  0  0
  148.9588  138.4156  154.8411 C   0  0  1  0  0  0  0  0  0  0  0  0
  149.5108  139.5283  155.6819 N   0  0  0  0  0  0  0  0  0  0  0  0
  148.9439  140.7650  155.8895 C   0  0  0  0  0  0  0  0  0  0  0  0
  149.6179  141.5669  156.6669 N   0  0  0  0  0  0  0  0  0  0  0  0
  150.7332  140.8264  157.0394 C   0  0  0  0  0  0  0  0  0  0  0  0
  151.8690  141.0786  157.8612 C   0  0  0  0  0  0  0  0  0  0  0  0
  152.0934  142.2343  158.5289 N   0  0  0  0  0  0  0  0  0  0  0  0
  151.6133  143.5020  157.9605 C   0  0  0  0  0  0  0  0  0  0  0  0
  151.5863  144.5406  159.0983 C   0  0  0  0  0  0  0  0  0  0  0  0
  152.1908  143.7544  160.2168 C   0  0  0  0  0  0  0  0  0  0  0  0
  152.4928  144.2092  161.5121 C   0  0  0  0  0  0  0  0  0  0  0  0
  153.0881  143.3009  162.4136 C   0  0  0  0  0  0  0  0  0  0  0  0
  153.3772  141.9770  162.0086 C   0  0  0  0  0  0  0  0  0  0  0  0
  153.0665  141.5428  160.7012 C   0  0  0  0  0  0  0  0  0  0  0  0
  152.4507  142.4486  159.8127 C   0  0  0  0  0  0  0  0  0  0  0  0
  152.8155  140.1095  157.9413 N   0  0  0  0  0  0  0  0  0  0  0  0
  152.6450  138.9512  157.2988 C   0  0  0  0  0  0  0  0  0  0  0  0
  151.6278  138.5698  156.5253 N   0  0  0  0  0  0  0  0  0  0  0  0
  150.6843  139.5484  156.4120 C   0  0  0  0  0  0  0  0  0  0  0  0
  147.7380  137.7151  155.4713 C   0  0  1  0  0  0  0  0  0  0  0  0
  147.0767  138.4864  156.4588 O   0  0  0  0  0  0  0  0  0  0  0  0
  146.8387  137.5058  154.2631 C   0  0  2  0  0  0  0  0  0  0  0  0
  147.1558  136.2881  153.6122 O   0  0  0  0  0  0  0  0  0  0  0  0
  146.6361  139.5723  153.7760 H   0  0  0  0  0  0  0  0  0  0  0  0
  149.8017  137.7381  154.6987 H   0  0  0  0  0  0  0  0  0  0  0  0
  148.0495  136.7757  155.9301 H   0  0  0  0  0  0  0  0  0  0  0  0
  145.7807  137.4797  154.5282 H   0  0  0  0  0  0  0  0  0  0  0  0
  145.0013  138.7996  152.3363 H   0  0  0  0  0  0  0  0  0  0  0  0
  147.4073  137.6975  151.4748 H   0  0  0  0  0  0  0  0  0  0  0  0
  147.1636  139.4309  151.3125 H   0  0  0  0  0  0  0  0  0  0  0  0
  148.0066  141.0582  155.4396 H   0  0  0  0  0  0  0  0  0  0  0  0
  152.2943  143.8203  157.1703 H   0  0  0  0  0  0  0  0  0  0  0  0
  150.6233  143.3798  157.5188 H   0  0  0  0  0  0  0  0  0  0  0  0
  152.1811  145.4246  158.8671 H   0  0  0  0  0  0  0  0  0  0  0  0
  150.5696  144.8422  159.3518 H   0  0  0  0  0  0  0  0  0  0  0  0
  152.2798  145.2258  161.8079 H   0  0  0  0  0  0  0  0  0  0  0  0
  153.3323  143.6213  163.4156 H   0  0  0  0  0  0  0  0  0  0  0  0
  153.8435  141.2933  162.7026 H   0  0  0  0  0  0  0  0  0  0  0  0
  153.3045  140.5350  160.3941 H   0  0  0  0  0  0  0  0  0  0  0  0
  153.4359  138.2261  157.4219 H   0  0  0  0  0  0  0  0  0  0  0  0
  146.1711  138.5834  156.2064 H   0  0  0  0  0  0  0  0  0  0  0  0
  148.0098  136.3728  153.2165 H   0  0  0  0  0  0  0  0  0  0  0  0
  1  2  1  0  0  0  0
  1 32  1  0  0  0  0
  2  3  1  0  0  0  0
  2 33  1  0  0  0  0
  2 34  1  0  0  0  0
  3 28  1  0  0  0  0
  3 26  1  0  0  0  0
  3  4  1  0  0  0  0
  4  5  1  0  0  0  0
  5 29  1  0  0  0  0
  5  6  1  0  0  0  0
  5 24  1  0  0  0  0
  6 23  1  0  0  0  0
  6  7  1  0  0  0  0
  7  8  2  0  0  0  0
  7 35  1  0  0  0  0
  8  9  1  0  0  0  0
  9 23  2  0  0  0  0
  9 10  1  0  0  0  0
 10 11  1  0  0  0  0
 10 20  2  0  0  0  0
 11 19  1  0  0  0  0
 11 12  1  0  0  0  0
 12 13  1  0  0  0  0
 12 36  1  0  0  0  0
 12 37  1  0  0  0  0
 13 14  1  0  0  0  0
 13 38  1  0  0  0  0
 13 39  1  0  0  0  0
 14 19  2  0  0  0  0
 14 15  1  0  0  0  0
 15 16  2  0  0  0  0
 15 40  1  0  0  0  0
 16 17  1  0  0  0  0
 16 41  1  0  0  0  0
 17 18  2  0  0  0  0
 17 42  1  0  0  0  0
 18 19  1  0  0  0  0
 18 43  1  0  0  0  0
 20 21  1  0  0  0  0
 21 22  2  0  0  0  0
 21 44  1  0  0  0  0
 22 23  1  0  0  0  0
 24 30  1  0  0  0  0
 24 25  1  0  0  0  0
 24 26  1  0  0  0  0
 25 45  1  0  0  0  0
 26 31  1  0  0  0  0
 26 27  1  0  0  0  0
 27 46  1  0  0  0  0
M  END
> <s_m_source_file>
AV-unprocessed.smi

> <i_m_source_file_index>
110

> <i_lp_mmshare_version>
43012

> <i_f3d_flags>
0

> <s_epik_input>
W09IXVtDSDJdW0NASF0xT1tDQEhdKFtDQEhdKFtPSF0pW0NAQEhdMVtPSF0pbihbY0hdbjIpYyhjMjMpbltjSF1uYzNOKFtDSDJdW0NIMl00KWMoYzQ1KVtjSF1bY0hdW2NIXVtjSF01

> <s_epik_cmdline>
J2VwaWtfcHl0aG9uJywgJy1waCcsICc3LjAnLCAnLXRuJywgJzgnLCAnLW1hJywgJzIwMCcsICctbWV0YWxfYmluZGluZycsICctaW1hZScsICc8aW5maWxlLm1hZT4nLCAnLW9tYWUnLCAnPG91dGZpbGUubWFlPic=

> <r_lp_tautomer_probability>
1

> <r_epik_Ionization_Penalty>
0.00068475

> <r_epik_Ionization_Penalty_Charging>
0

> <r_epik_Ionization_Penalty_Neutral>
0.00068475

> <r_epik_State_Penalty>
0.000417442

> <r_epik_Charging_Adjusted_Penalty>
0.000417442

> <i_epik_Tot_Q>
0

> <i_epik_Tot_abs_Q>
0

> <r_epik_Metal_State_Penalty>
-0

> <b_epik_Metal_Only>
0

> <s_epik_Chemistry_Notes>
This compound contains an acetal/aminal-like group ( X-CH(R)-Y where X, Y are N, S, or O) that may be acid/base labile, releasing an aldehyde.

> <s_lp_Force_Field>
OPLS_2005

> <r_lp_Energy>
62.6904

> <b_lp_Chiralities_Consistent>
1

> <s_lp_Variant>
AV-unprocessed.smi:110-6

> <Gold.Version>
5.8.1

> <Gold.Id.Protein>
6NUR|6NUR_protein|mol2

> <Gold.PLP.Fitness>
52.3332

> <Gold.PLP.PLP>
-48.0677

> <Gold.PLP.part.hbond>
-3.3103

> <Gold.PLP.part.metal>
0.0000

> <Gold.PLP.part.buried>
-5.8214

> <Gold.PLP.part.nonpolar>
-39.5307

> <Gold.PLP.part.repulsive>
2.5529

> <Gold.PLP.ligand.clash>
0.0000

> <Gold.PLP.ligand.torsion>
0.9151

> <Gold.PLP.Chemscore.Hbond>
2.0103

> <Gold.PLP.Chemscore.CHOScore>
0.0000

> <Gold.PLP.Chemscore.Metal>
0.0000

> <Gold.Chemscore.Hbonds>
donor molecule, donor type, donor heavy atom, donor atom, acceptor molecule, acceptor atom, score
      L1  H     1    32       P1 10175  0.62
      L1  H    27    46       P1  7948  0.96
      P1  H  7997  8009       L1    20  0.16

> <Gold.PLP.Chemscore.Internal.Correction>
0.0648

> <Gold.Rescore>
     Score         DG    S(hbond)    S(metal)    S(lipo)     H(rot)  DE(clash)    DE(int)     intcor
     13.81     -16.63       1.91        0.00     114.78       3.38       0.74       2.07       ----

> <Gold.Chemscore.Fitness>
13.8138

> <Gold.Chemscore.DG>
-16.6256

> <Gold.Chemscore.ZeroCoef>
-5.4800

> <Gold.Chemscore.Hbond>
1.9096

> <Gold.Chemscore.Metal>
0.0000

> <Gold.Chemscore.Lipo>
114.7825

> <Gold.Chemscore.Internal_Hbond>
0.0000

> <Gold.Chemscore.DEClash>
0.7386

> <Gold.Chemscore.DEInternal>
2.0733

> <Gold.Chemscore.Rot>
3.3837

> <Gold.Chemscore.Internal.Correction>
   9.000000E+99

> <Gold.Chemscore.Hbonds>
donor molecule, donor type, donor heavy atom, donor atom, acceptor molecule, acceptor atom, score
      L1  H     1    32       P1 10175  0.61
      L1  H    27    46       P1  7948  0.92

> <Gold.Chemscore.Hbond.Weighted>
-6.3782

> <Gold.Chemscore.Metal.Weighted>
-0.0000

> <Gold.Chemscore.Lipo.Weighted>
-13.4296

> <Gold.Chemscore.Internal_Hbond.Weighted>
0.0000

> <Gold.Chemscore.DEClash.Weighted>
0.7386

> <Gold.Chemscore.DEInternal.Weighted>
2.0733

> <Gold.Chemscore.Rot.Weighted>
8.6622

> <Gold.Chemscore.Internal.Correction.Weighted>
   9.000000E+99

> <Gold.Protein.RotatedTorsions>
[ 6907 6896 6895 6894 ] final   34.37 input  -60.11 | X-H torsion
[ 7974 7965 7964 7962 ] final  -12.56 input  175.53 | X-H torsion
[ 8008 7997 7996 7995 ] final  145.73 input   59.86 | X-H torsion
[ 10167 10162 10161 10158 ] final -118.59 input  -65.29 | X-H torsion
[ 10718 10713 10712 10709 ] final  -98.35 input   66.30 | X-H torsion
[ 10763 10752 10751 10750 ] final   54.18 input  -60.55 | X-H torsion
[ 11005 11000 10999 10996 ] final  -60.21 input  -57.11 | X-H torsion

> <Gold.Protein.ActiveResidues>
 VAL166  LYS551  ARG553  GLY616  TRP617  ASP618  TYR619  PRO620  LYS621  CYS622 
 ASP623  PHE694  ASN695  SER759  ASP760  ASP761  ALA762  ILE779  LEU786  VAL792 
 PHE793  MET794  SER795  GLU796  ALA797  LYS798  CYS799  TRP800  GLU811  SER814 

> <Gold.Protein.RotatedAtoms>
  152.1015  134.9338  160.0569 H   0  0  0  0  0  0  0  0  0  0  0  0  # atno 6907 bound_to 6896
  152.0551  133.4032  159.4402 H   0  0  0  0  0  0  0  0  0  0  0  0  # atno 6908 bound_to 6896
  150.6839  134.3184  159.4819 H   0  0  0  0  0  0  0  0  0  0  0  0  # atno 6909 bound_to 6896
  146.2147  140.3075  142.8380 H   0  0  0  0  0  0  0  0  0  0  0  0  # atno 7974 bound_to 7965
  156.2875  140.2201  156.5262 H   0  0  0  0  0  0  0  0  0  0  0  0  # atno 8008 bound_to 7997
  154.7487  140.0482  157.0896 H   0  0  0  0  0  0  0  0  0  0  0  0  # atno 8009 bound_to 7997
  155.0138  140.3116  155.4823 H   0  0  0  0  0  0  0  0  0  0  0  0  # atno 8010 bound_to 7997
  140.0559  143.5015  152.2058 H   0  0  0  0  0  0  0  0  0  0  0  0  # atno 10167 bound_to 10162
  156.0105  130.5234  150.6509 H   0  0  0  0  0  0  0  0  0  0  0  0  # atno 10718 bound_to 10713
  152.9802  135.5753  154.4863 H   0  0  0  0  0  0  0  0  0  0  0  0  # atno 10763 bound_to 10752
  154.4404  135.2775  155.1853 H   0  0  0  0  0  0  0  0  0  0  0  0  # atno 10764 bound_to 10752
  154.3524  135.6206  153.5703 H   0  0  0  0  0  0  0  0  0  0  0  0  # atno 10765 bound_to 10752
  141.1278  133.6621  156.5188 H   0  0  0  0  0  0  0  0  0  0  0  0  # atno 11005 bound_to 11000
  144.9012  140.7645  143.5866 LP  0  0  0  0  0  0  0  0  0  0  0  0  # atno 17320 bound_to 7965
  145.3001  139.1853  143.4694 LP  0  0  0  0  0  0  0  0  0  0  0  0  # atno 17321 bound_to 7965
  139.5924  144.7555  151.3368 LP  0  0  0  0  0  0  0  0  0  0  0  0  # atno 17342 bound_to 10162
  140.7195  143.7175  150.7721 LP  0  0  0  0  0  0  0  0  0  0  0  0  # atno 17343 bound_to 10162
  157.4271  131.0844  151.1075 LP  0  0  0  0  0  0  0  0  0  0  0  0  # atno 17370 bound_to 10713
  157.1659  130.6246  149.5625 LP  0  0  0  0  0  0  0  0  0  0  0  0  # atno 17371 bound_to 10713
  140.4309  134.7103  157.4941 LP  0  0  0  0  0  0  0  0  0  0  0  0  # atno 17394 bound_to 11000
  140.0295  134.6428  155.9127 LP  0  0  0  0  0  0  0  0  0  0  0  0  # atno 17395 bound_to 11000

$$$$
