AV-unprocessed.smi:1444|AV-procd|sdf|5882|dock2
  -GOLD-   22720 5563D 1   1.00000     0.00000
 Structure written by MMmdl.
 43 44  0  0  0  0  0  0  0  0  1 V2000
  151.1878  145.2767  159.2779 C   0  0  0  0  0  0  0  0  0  0  0  0
  150.9157  144.3152  158.2641 O   0  0  0  0  0  0  0  0  0  0  0  0
  151.4273  143.0396  158.4095 C   0  0  0  0  0  0  0  0  0  0  0  0
  152.2503  142.7905  159.4591 N   0  0  0  0  0  0  0  0  0  0  0  0
  152.7481  141.5451  159.6045 C   0  0  0  0  0  0  0  0  0  0  0  0
  152.4496  140.4887  158.7248 C   0  0  0  0  0  0  0  0  0  0  0  0
  151.5965  140.7446  157.6354 C   0  0  0  0  0  0  0  0  0  0  0  0
  151.0788  142.0507  157.4601 C   0  0  0  0  0  0  0  0  0  0  0  0
  150.1940  142.4097  156.4064 N   0  0  0  0  0  0  0  0  0  0  0  0
  149.1665  141.7052  155.9030 C   0  0  0  0  0  0  0  0  0  0  0  0
  148.8210  140.5848  156.2778 O   0  0  0  0  0  0  0  0  0  0  0  0
  148.5659  142.3714  154.9062 N   0  0  0  0  0  0  0  0  0  0  0  0
  147.4291  141.8895  154.1248 C   0  0  1  0  0  0  0  0  0  0  0  0
  147.6969  140.4174  153.7737 C   0  0  0  0  0  0  0  0  0  0  0  0
  146.1267  142.1483  154.9230 C   0  0  0  0  0  0  0  0  0  0  0  0
  145.4689  143.4401  154.7045 N   0  0  0  0  0  0  0  0  0  0  0  0
  145.4909  143.8560  153.3016 C   0  0  0  0  0  0  0  0  0  0  0  0
  144.7681  145.1970  153.0847 C   0  0  0  0  0  0  0  0  0  0  0  0
  143.4274  145.0993  153.5519 O   0  0  0  0  0  0  0  0  0  0  0  0
  143.3540  144.7349  154.9255 C   0  0  0  0  0  0  0  0  0  0  0  0
  144.0750  143.3926  155.1396 C   0  0  0  0  0  0  0  0  0  0  0  0
  150.7238  146.2253  159.0086 H   0  0  0  0  0  0  0  0  0  0  0  0
  152.2591  145.4523  159.3856 H   0  0  0  0  0  0  0  0  0  0  0  0
  150.7763  144.9687  160.2401 H   0  0  0  0  0  0  0  0  0  0  0  0
  153.3982  141.3843  160.4516 H   0  0  0  0  0  0  0  0  0  0  0  0
  152.8614  139.5032  158.8845 H   0  0  0  0  0  0  0  0  0  0  0  0
  151.3454  139.9349  156.9679 H   0  0  0  0  0  0  0  0  0  0  0  0
  150.4163  143.2735  155.9331 H   0  0  0  0  0  0  0  0  0  0  0  0
  148.9232  143.2845  154.6659 H   0  0  0  0  0  0  0  0  0  0  0  0
  147.3886  142.4526  153.1904 H   0  0  0  0  0  0  0  0  0  0  0  0
  147.0508  140.0744  152.9676 H   0  0  0  0  0  0  0  0  0  0  0  0
  147.5534  139.7663  154.6366 H   0  0  0  0  0  0  0  0  0  0  0  0
  148.7196  140.2792  153.4206 H   0  0  0  0  0  0  0  0  0  0  0  0
  145.4177  141.3335  154.7687 H   0  0  0  0  0  0  0  0  0  0  0  0
  146.3993  142.0866  155.9779 H   0  0  0  0  0  0  0  0  0  0  0  0
  146.5088  143.9552  152.9383 H   0  0  0  0  0  0  0  0  0  0  0  0
  145.0173  143.0925  152.6824 H   0  0  0  0  0  0  0  0  0  0  0  0
  145.2855  146.0039  153.6060 H   0  0  0  0  0  0  0  0  0  0  0  0
  144.7570  145.4540  152.0255 H   0  0  0  0  0  0  0  0  0  0  0  0
  143.8009  145.5165  155.5420 H   0  0  0  0  0  0  0  0  0  0  0  0
  142.3069  144.6546  155.2176 H   0  0  0  0  0  0  0  0  0  0  0  0
  143.5442  142.6078  154.5983 H   0  0  0  0  0  0  0  0  0  0  0  0
  144.0253  143.1303  156.1972 H   0  0  0  0  0  0  0  0  0  0  0  0
  1  2  1  0  0  0  0
  1 22  1  0  0  0  0
  1 23  1  0  0  0  0
  1 24  1  0  0  0  0
  2  3  1  0  0  0  0
  3  8  1  0  0  0  0
  3  4  2  0  0  0  0
  4  5  1  0  0  0  0
  5  6  2  0  0  0  0
  5 25  1  0  0  0  0
  6  7  1  0  0  0  0
  6 26  1  0  0  0  0
  7  8  2  0  0  0  0
  7 27  1  0  0  0  0
  8  9  1  0  0  0  0
  9 10  1  0  0  0  0
  9 28  1  0  0  0  0
 10 11  2  0  0  0  0
 10 12  1  0  0  0  0
 12 13  1  0  0  0  0
 12 29  1  0  0  0  0
 13 14  1  0  0  0  0
 13 15  1  0  0  0  0
 13 30  1  0  0  0  0
 14 31  1  0  0  0  0
 14 32  1  0  0  0  0
 14 33  1  0  0  0  0
 15 16  1  0  0  0  0
 15 34  1  0  0  0  0
 15 35  1  0  0  0  0
 16 21  1  0  0  0  0
 16 17  1  0  0  0  0
 17 18  1  0  0  0  0
 17 36  1  0  0  0  0
 17 37  1  0  0  0  0
 18 19  1  0  0  0  0
 18 38  1  0  0  0  0
 18 39  1  0  0  0  0
 19 20  1  0  0  0  0
 20 21  1  0  0  0  0
 20 40  1  0  0  0  0
 20 41  1  0  0  0  0
 21 42  1  0  0  0  0
 21 43  1  0  0  0  0
M  END
> <s_m_source_file>
AV-unprocessed.smi

> <i_m_source_file_index>
1444

> <i_lp_mmshare_version>
43012

> <i_f3d_flags>
0

> <s_epik_input>
W0NIM11PYzFuW2NIXVtjSF1bY0hdYzFbTkhdQyg9TylbTkhdW0NASF0oW0NIM10pW0NIMl1OMltDSDJdW0NIMl1PW0NIMl1bQ0gyXTI=

> <s_epik_cmdline>
J2VwaWtfcHl0aG9uJywgJy1waCcsICc3LjAnLCAnLXRuJywgJzgnLCAnLW1hJywgJzIwMCcsICctbWV0YWxfYmluZGluZycsICctaW1hZScsICc8aW5maWxlLm1hZT4nLCAnLW9tYWUnLCAnPG91dGZpbGUubWFlPic=

> <r_lp_tautomer_probability>
1

> <r_epik_Ionization_Penalty>
0.266086

> <r_epik_Ionization_Penalty_Charging>
0

> <r_epik_Ionization_Penalty_Neutral>
0.266086

> <r_epik_State_Penalty>
0.257924

> <r_epik_Charging_Adjusted_Penalty>
0.257924

> <i_epik_Tot_Q>
0

> <i_epik_Tot_abs_Q>
0

> <r_epik_Metal_State_Penalty>
0.25792

> <b_epik_Metal_Only>
0

> <s_lp_Force_Field>
OPLS_2005

> <r_lp_Energy>
29.2348

> <b_lp_Chiralities_Consistent>
1

> <s_lp_Variant>
AV-unprocessed.smi:1444-2

> <Gold.Version>
5.8.1

> <Gold.Id.Protein>
6NUR|6NUR_protein|mol2

> <Gold.PLP.Fitness>
39.4703

> <Gold.PLP.PLP>
-39.7559

> <Gold.PLP.part.hbond>
-2.8030

> <Gold.PLP.part.metal>
0.0000

> <Gold.PLP.part.buried>
-7.1458

> <Gold.PLP.part.nonpolar>
-31.1573

> <Gold.PLP.part.repulsive>
0.8374

> <Gold.PLP.ligand.clash>
0.0036

> <Gold.PLP.ligand.torsion>
1.1619

> <Gold.PLP.Chemscore.Hbond>
0.6672

> <Gold.PLP.Chemscore.CHOScore>
0.0000

> <Gold.PLP.Chemscore.Metal>
0.0000

> <Gold.Chemscore.Hbonds>
donor molecule, donor type, donor heavy atom, donor atom, acceptor molecule, acceptor atom, score
      L1  H     9    28       P1  8028  0.31
      L1  H    12    29       P1  8028  0.56

> <Gold.PLP.Chemscore.Internal.Correction>
0.0403

> <Gold.Rescore>
     Score         DG    S(hbond)    S(metal)    S(lipo)     H(rot)  DE(clash)    DE(int)     intcor
     12.10     -15.62       1.63        0.00      77.75       1.72       0.06       3.46       ----

> <Gold.Chemscore.Fitness>
12.1036

> <Gold.Chemscore.DG>
-15.6225

> <Gold.Chemscore.ZeroCoef>
-5.4800

> <Gold.Chemscore.Hbond>
1.6306

> <Gold.Chemscore.Metal>
0.0000

> <Gold.Chemscore.Lipo>
77.7492

> <Gold.Chemscore.Internal_Hbond>
0.0000

> <Gold.Chemscore.DEClash>
0.0609

> <Gold.Chemscore.DEInternal>
3.4580

> <Gold.Chemscore.Rot>
1.7189

> <Gold.Chemscore.Internal.Correction>
   9.000000E+99

> <Gold.Chemscore.Hbonds>
donor molecule, donor type, donor heavy atom, donor atom, acceptor molecule, acceptor atom, score
      L1  H     9    28       P1  8028  0.31
      L1  H    12    29       P1  8028  0.56

> <Gold.Chemscore.Hbond.Weighted>
-5.4463

> <Gold.Chemscore.Metal.Weighted>
-0.0000

> <Gold.Chemscore.Lipo.Weighted>
-9.0967

> <Gold.Chemscore.Internal_Hbond.Weighted>
0.0000

> <Gold.Chemscore.DEClash.Weighted>
0.0609

> <Gold.Chemscore.DEInternal.Weighted>
3.4580

> <Gold.Chemscore.Rot.Weighted>
4.4004

> <Gold.Chemscore.Internal.Correction.Weighted>
   9.000000E+99

> <Gold.Protein.RotatedTorsions>
[ 6907 6896 6895 6894 ] final   -3.35 input  -60.11 | X-H torsion
[ 7974 7965 7964 7962 ] final   24.66 input  175.53 | X-H torsion
[ 8008 7997 7996 7995 ] final  -44.76 input   59.86 | X-H torsion
[ 10167 10162 10161 10158 ] final    9.62 input  -65.29 | X-H torsion
[ 10718 10713 10712 10709 ] final   58.03 input   66.30 | X-H torsion
[ 10763 10752 10751 10750 ] final   90.06 input  -60.55 | X-H torsion
[ 11005 11000 10999 10996 ] final -171.61 input  -57.11 | X-H torsion

> <Gold.Protein.ActiveResidues>
 VAL166  LYS551  ARG553  GLY616  TRP617  ASP618  TYR619  PRO620  LYS621  CYS622 
 ASP623  PHE694  ASN695  SER759  ASP760  ASP761  ALA762  ILE779  LEU786  VAL792 
 PHE793  MET794  SER795  GLU796  ALA797  LYS798  CYS799  TRP800  GLU811  SER814 

> <Gold.Protein.RotatedAtoms>
  151.5152  135.1066  159.9863 H   0  0  0  0  0  0  0  0  0  0  0  0  # atno 6907 bound_to 6896
  152.4644  133.7888  159.6901 H   0  0  0  0  0  0  0  0  0  0  0  0  # atno 6908 bound_to 6896
  150.8621  133.7564  159.3014 H   0  0  0  0  0  0  0  0  0  0  0  0  # atno 6909 bound_to 6896
  146.1927  139.7574  142.8820 H   0  0  0  0  0  0  0  0  0  0  0  0  # atno 7974 bound_to 7965
  154.3998  140.1414  156.3736 H   0  0  0  0  0  0  0  0  0  0  0  0  # atno 8008 bound_to 7997
  155.8069  140.3474  155.5414 H   0  0  0  0  0  0  0  0  0  0  0  0  # atno 8009 bound_to 7997
  155.8426  140.0929  157.1715 H   0  0  0  0  0  0  0  0  0  0  0  0  # atno 8010 bound_to 7997
  140.6244  143.8133  150.7215 H   0  0  0  0  0  0  0  0  0  0  0  0  # atno 10167 bound_to 10162
  157.5563  130.8802  149.9041 H   0  0  0  0  0  0  0  0  0  0  0  0  # atno 10718 bound_to 10713
  153.1936  135.4447  155.0180 H   0  0  0  0  0  0  0  0  0  0  0  0  # atno 10763 bound_to 10752
  154.8105  135.3292  154.7320 H   0  0  0  0  0  0  0  0  0  0  0  0  # atno 10764 bound_to 10752
  153.7771  135.6980  153.4950 H   0  0  0  0  0  0  0  0  0  0  0  0  # atno 10765 bound_to 10752
  140.5062  134.5845  157.5004 H   0  0  0  0  0  0  0  0  0  0  0  0  # atno 11005 bound_to 11000
  145.3742  141.0348  143.3214 LP  0  0  0  0  0  0  0  0  0  0  0  0  # atno 17320 bound_to 7965
  144.8518  139.5310  143.6853 LP  0  0  0  0  0  0  0  0  0  0  0  0  # atno 17321 bound_to 7965
  140.1731  143.4178  152.1987 LP  0  0  0  0  0  0  0  0  0  0  0  0  # atno 17342 bound_to 10162
  139.5467  144.7304  151.4562 LP  0  0  0  0  0  0  0  0  0  0  0  0  # atno 17343 bound_to 10162
  156.0621  130.3698  150.0958 LP  0  0  0  0  0  0  0  0  0  0  0  0  # atno 17370 bound_to 10713
  156.9126  130.9657  151.3560 LP  0  0  0  0  0  0  0  0  0  0  0  0  # atno 17371 bound_to 10713
  139.9685  134.7333  156.0090 LP  0  0  0  0  0  0  0  0  0  0  0  0  # atno 17394 bound_to 11000
  141.1409  133.6565  156.3728 LP  0  0  0  0  0  0  0  0  0  0  0  0  # atno 17395 bound_to 11000

$$$$
