AV-unprocessed.smi:1254|AV-procd|sdf|5272|dock3
  -GOLD-   22720 4383D 1   1.00000     0.00000
 Structure written by MMmdl.
 46 47  0  0  0  0  0  0  0  0  2 V2000
  147.4244  135.4758  162.8257 C   0  0  0  0  0  0  0  0  0  0  0  0
  147.7864  135.7655  161.4093 C   0  0  0  0  0  0  0  0  0  0  0  0
  147.8583  134.9848  160.2903 C   0  0  0  0  0  0  0  0  0  0  0  0
  148.2690  135.9016  159.2867 C   0  0  0  0  0  0  0  0  0  0  0  0
  148.4615  135.4768  157.9474 N   0  0  0  0  0  0  0  0  0  0  0  0
  148.9694  134.3064  157.5261 C   0  0  0  0  0  0  0  0  0  0  0  0
  149.3397  133.3878  158.2578 O   0  0  0  0  0  0  0  0  0  0  0  0
  149.0333  134.2535  156.1878 N   0  0  0  0  0  0  0  0  0  0  0  0
  149.5452  133.1222  155.4217 C   0  0  0  0  0  0  0  0  0  0  0  0
  148.4118  132.3024  154.7786 C   0  0  1  0  0  0  0  0  0  0  0  0
  147.8426  132.9914  153.5235 C   0  0  0  0  0  0  0  0  0  0  0  0
  146.7910  132.1485  152.9021 N   0  3  1  0  0  0  0  0  0  0  0  0
  146.1512  132.7681  151.7130 C   0  0  0  0  0  0  0  0  0  0  0  0
  145.3886  131.7546  150.8321 C   0  0  0  0  0  0  0  0  0  0  0  0
  146.1517  131.4304  149.5368 C   0  0  0  0  0  0  0  0  0  0  0  0
  143.9810  132.2761  150.5074 C   0  0  0  0  0  0  0  0  0  0  0  0
  147.3189  130.7932  152.6169 C   0  0  0  0  0  0  0  0  0  0  0  0
  147.9221  130.1714  153.8870 C   0  0  0  0  0  0  0  0  0  0  0  0
  148.9303  131.0301  154.4041 O   0  0  0  0  0  0  0  0  0  0  0  0
  148.4318  137.1314  159.7504 N   0  0  0  0  0  0  0  0  0  0  0  0
  148.1246  137.0499  161.1137 O   0  0  0  0  0  0  0  0  0  0  0  0
  146.8293  134.5653  162.8966 H   0  0  0  0  0  0  0  0  0  0  0  0
  146.8434  136.2926  163.2544 H   0  0  0  0  0  0  0  0  0  0  0  0
  148.3204  135.3424  163.4321 H   0  0  0  0  0  0  0  0  0  0  0  0
  147.6501  133.9286  160.2073 H   0  0  0  0  0  0  0  0  0  0  0  0
  148.1912  136.1389  157.2354 H   0  0  0  0  0  0  0  0  0  0  0  0
  148.7090  135.0514  155.6610 H   0  0  0  0  0  0  0  0  0  0  0  0
  150.2322  133.4852  154.6556 H   0  0  0  0  0  0  0  0  0  0  0  0
  150.1323  132.4915  156.0898 H   0  0  0  0  0  0  0  0  0  0  0  0
  147.6070  132.1667  155.5036 H   0  0  0  0  0  0  0  0  0  0  0  0
  147.4336  133.9611  153.8043 H   0  0  0  0  0  0  0  0  0  0  0  0
  148.6387  133.1773  152.8007 H   0  0  0  0  0  0  0  0  0  0  0  0
  145.4860  133.5684  152.0411 H   0  0  0  0  0  0  0  0  0  0  0  0
  146.9180  133.2435  151.0993 H   0  0  0  0  0  0  0  0  0  0  0  0
  145.2564  130.8255  151.3858 H   0  0  0  0  0  0  0  0  0  0  0  0
  146.3186  132.3272  148.9393 H   0  0  0  0  0  0  0  0  0  0  0  0
  145.5962  130.7214  148.9217 H   0  0  0  0  0  0  0  0  0  0  0  0
  147.1239  130.9838  149.7459 H   0  0  0  0  0  0  0  0  0  0  0  0
  144.0233  133.2060  149.9392 H   0  0  0  0  0  0  0  0  0  0  0  0
  143.4121  132.4677  151.4177 H   0  0  0  0  0  0  0  0  0  0  0  0
  143.4187  131.5517  149.9173 H   0  0  0  0  0  0  0  0  0  0  0  0
  146.5189  130.1536  152.2423 H   0  0  0  0  0  0  0  0  0  0  0  0
  148.0764  130.8532  151.8336 H   0  0  0  0  0  0  0  0  0  0  0  0
  147.1525  129.9965  154.6405 H   0  0  0  0  0  0  0  0  0  0  0  0
  148.3666  129.2032  153.6566 H   0  0  0  0  0  0  0  0  0  0  0  0
  146.0623  132.0285  153.5915 H   0  0  0  0  0  0  0  0  0  0  0  0
  1  2  1  0  0  0  0
  1 22  1  0  0  0  0
  1 23  1  0  0  0  0
  1 24  1  0  0  0  0
  2 21  1  0  0  0  0
  2  3  2  0  0  0  0
  3  4  1  0  0  0  0
  3 25  1  0  0  0  0
  4  5  1  0  0  0  0
  4 20  2  0  0  0  0
  5  6  1  0  0  0  0
  5 26  1  0  0  0  0
  6  7  2  0  0  0  0
  6  8  1  0  0  0  0
  8  9  1  0  0  0  0
  8 27  1  0  0  0  0
  9 10  1  0  0  0  0
  9 28  1  0  0  0  0
  9 29  1  0  0  0  0
 10 19  1  0  0  0  0
 10 11  1  0  0  0  0
 10 30  1  0  0  0  0
 11 12  1  0  0  0  0
 11 31  1  0  0  0  0
 11 32  1  0  0  0  0
 12 13  1  0  0  0  0
 12 17  1  0  0  0  0
 12 46  1  0  0  0  0
 13 14  1  0  0  0  0
 13 33  1  0  0  0  0
 13 34  1  0  0  0  0
 14 15  1  0  0  0  0
 14 16  1  0  0  0  0
 14 35  1  0  0  0  0
 15 36  1  0  0  0  0
 15 37  1  0  0  0  0
 15 38  1  0  0  0  0
 16 39  1  0  0  0  0
 16 40  1  0  0  0  0
 16 41  1  0  0  0  0
 17 18  1  0  0  0  0
 17 42  1  0  0  0  0
 17 43  1  0  0  0  0
 18 19  1  0  0  0  0
 18 44  1  0  0  0  0
 18 45  1  0  0  0  0
 20 21  1  0  0  0  0
M  CHG  1  12   1
M  END
> <s_m_source_file>
AV-unprocessed.smi

> <i_m_source_file_index>
1254

> <i_lp_mmshare_version>
43012

> <i_f3d_flags>
0

> <s_epik_input>
W0NIM11jMVtjSF1jKG5vMSlbTkhdQyg9TylbTkhdW0NIMl1bQ0BASF0yW0NIMl1OKFtDSDJdW0NIMl1PMilbQ0gyXVtDSF0oW0NIM10pW0NIM10=

> <s_epik_cmdline>
J2VwaWtfcHl0aG9uJywgJy1waCcsICc3LjAnLCAnLXRuJywgJzgnLCAnLW1hJywgJzIwMCcsICctbWV0YWxfYmluZGluZycsICctaW1hZScsICc8aW5maWxlLm1hZT4nLCAnLW9tYWUnLCAnPG91dGZpbGUubWFlPic=

> <r_epik_Ionization_Penalty>
0.0986825

> <r_epik_Ionization_Penalty_Charging>
0.0986478

> <r_epik_Ionization_Penalty_Neutral>
3.46838e-05

> <r_epik_State_Penalty>
0.0887259

> <r_epik_Charging_Adjusted_Penalty>
0.187374

> <i_epik_Tot_Q>
1

> <i_epik_Tot_abs_Q>
1

> <r_epik_Metal_State_Penalty>
0.103424

> <b_epik_Metal_Only>
0

> <s_lp_Force_Field>
OPLS_2005

> <r_lp_Energy>
13.7393

> <b_lp_Chiralities_Consistent>
1

> <s_lp_Variant>
AV-unprocessed.smi:1254-4

> <Gold.Version>
5.8.1

> <Gold.Id.Protein>
6NUR|6NUR_protein|mol2

> <Gold.PLP.Fitness>
38.3167

> <Gold.PLP.PLP>
-34.6389

> <Gold.PLP.part.hbond>
-4.8197

> <Gold.PLP.part.metal>
0.0000

> <Gold.PLP.part.buried>
-2.7556

> <Gold.PLP.part.nonpolar>
-27.9575

> <Gold.PLP.part.repulsive>
0.1174

> <Gold.PLP.ligand.clash>
0.0000

> <Gold.PLP.ligand.torsion>
1.3812

> <Gold.PLP.Chemscore.Hbond>
2.1376

> <Gold.PLP.Chemscore.CHOScore>
0.0000

> <Gold.PLP.Chemscore.Metal>
0.0000

> <Gold.Chemscore.Hbonds>
donor molecule, donor type, donor heavy atom, donor atom, acceptor molecule, acceptor atom, score
      P1  H  6896  6907       L1     7  1.00
      P1  H  6931  6943       L1    21  1.00
      P1  H  6934  6947       L1    21  0.17

> <Gold.PLP.Chemscore.Internal.Correction>
0.0275

> <Gold.Rescore>
     Score         DG    S(hbond)    S(metal)    S(lipo)     H(rot)  DE(clash)    DE(int)     intcor
     14.39     -17.08       1.84        0.00      84.48       1.73       0.27       2.42       ----

> <Gold.Chemscore.Fitness>
14.3946

> <Gold.Chemscore.DG>
-17.0787

> <Gold.Chemscore.ZeroCoef>
-5.4800

> <Gold.Chemscore.Hbond>
1.8387

> <Gold.Chemscore.Metal>
0.0000

> <Gold.Chemscore.Lipo>
84.4781

> <Gold.Chemscore.Internal_Hbond>
0.0000

> <Gold.Chemscore.DEClash>
0.2668

> <Gold.Chemscore.DEInternal>
2.4173

> <Gold.Chemscore.Rot>
1.7291

> <Gold.Chemscore.Internal.Correction>
   9.000000E+99

> <Gold.Chemscore.Hbonds>
donor molecule, donor type, donor heavy atom, donor atom, acceptor molecule, acceptor atom, score
      P1  H  6896  6907       L1     7  0.91
      P1  H  6931  6943       L1    21  0.59

> <Gold.Chemscore.Hbond.Weighted>
-6.1413

> <Gold.Chemscore.Metal.Weighted>
-0.0000

> <Gold.Chemscore.Lipo.Weighted>
-9.8839

> <Gold.Chemscore.Internal_Hbond.Weighted>
0.0000

> <Gold.Chemscore.DEClash.Weighted>
0.2668

> <Gold.Chemscore.DEInternal.Weighted>
2.4173

> <Gold.Chemscore.Rot.Weighted>
4.4265

> <Gold.Chemscore.Internal.Correction.Weighted>
   9.000000E+99

> <Gold.Protein.RotatedTorsions>
[ 6907 6896 6895 6894 ] final -121.87 input  -60.11 | X-H torsion
[ 7974 7965 7964 7962 ] final  -11.36 input  175.53 | X-H torsion
[ 8008 7997 7996 7995 ] final    6.74 input   59.86 | X-H torsion
[ 10167 10162 10161 10158 ] final  101.05 input  -65.29 | X-H torsion
[ 10718 10713 10712 10709 ] final -165.99 input   66.30 | X-H torsion
[ 10763 10752 10751 10750 ] final   22.23 input  -60.55 | X-H torsion
[ 11005 11000 10999 10996 ] final  125.38 input  -57.11 | X-H torsion

> <Gold.Protein.ActiveResidues>
 VAL166  LYS551  ARG553  GLY616  TRP617  ASP618  TYR619  PRO620  LYS621  CYS622 
 ASP623  PHE694  ASN695  SER759  ASP760  ASP761  ALA762  ILE779  LEU786  VAL792 
 PHE793  MET794  SER795  GLU796  ALA797  LYS798  CYS799  TRP800  GLU811  SER814 

> <Gold.Protein.RotatedAtoms>
  150.8523  133.7769  159.3021 H   0  0  0  0  0  0  0  0  0  0  0  0  # atno 6907 bound_to 6896
  151.5437  135.1066  159.9942 H   0  0  0  0  0  0  0  0  0  0  0  0  # atno 6908 bound_to 6896
  152.4562  133.7685  159.6841 H   0  0  0  0  0  0  0  0  0  0  0  0  # atno 6909 bound_to 6896
  146.2190  140.2899  142.8368 H   0  0  0  0  0  0  0  0  0  0  0  0  # atno 7974 bound_to 7965
  154.7448  140.2756  155.6342 H   0  0  0  0  0  0  0  0  0  0  0  0  # atno 8008 bound_to 7997
  156.2882  140.2690  156.2112 H   0  0  0  0  0  0  0  0  0  0  0  0  # atno 8009 bound_to 7997
  155.0211  140.0371  157.2427 H   0  0  0  0  0  0  0  0  0  0  0  0  # atno 8010 bound_to 7997
  139.7472  144.6994  151.0486 H   0  0  0  0  0  0  0  0  0  0  0  0  # atno 10167 bound_to 10162
  156.6614  130.9047  151.3030 H   0  0  0  0  0  0  0  0  0  0  0  0  # atno 10718 bound_to 10713
  153.0932  135.6652  153.9814 H   0  0  0  0  0  0  0  0  0  0  0  0  # atno 10763 bound_to 10752
  153.9405  135.2994  155.3444 H   0  0  0  0  0  0  0  0  0  0  0  0  # atno 10764 bound_to 10752
  154.7348  135.5106  153.9097 H   0  0  0  0  0  0  0  0  0  0  0  0  # atno 10765 bound_to 10752
  139.9404  134.9636  156.8550 H   0  0  0  0  0  0  0  0  0  0  0  0  # atno 11005 bound_to 11000
  144.9135  140.7785  143.5793 LP  0  0  0  0  0  0  0  0  0  0  0  0  # atno 17320 bound_to 7965
  145.2831  139.1911  143.4780 LP  0  0  0  0  0  0  0  0  0  0  0  0  # atno 17321 bound_to 7965
  140.7793  143.4852  150.9965 LP  0  0  0  0  0  0  0  0  0  0  0  0  # atno 17342 bound_to 10162
  139.8540  143.7401  152.3177 LP  0  0  0  0  0  0  0  0  0  0  0  0  # atno 17343 bound_to 10162
  157.7108  130.9438  150.1083 LP  0  0  0  0  0  0  0  0  0  0  0  0  # atno 17370 bound_to 10713
  156.2008  130.3660  149.8791 LP  0  0  0  0  0  0  0  0  0  0  0  0  # atno 17371 bound_to 10713
  140.5967  134.0210  155.7521 LP  0  0  0  0  0  0  0  0  0  0  0  0  # atno 17394 bound_to 11000
  141.1036  133.9730  157.3037 LP  0  0  0  0  0  0  0  0  0  0  0  0  # atno 17395 bound_to 11000

$$$$
