AV-unprocessed.smi:1986|AV-procd|sdf|8050|dock2
  -GOLD-   2272010253D 1   1.00000     0.00000
 Structure written by MMmdl.
 47 48  0  0  0  0  0  0  0  0  1 V2000
  150.1795  132.4277  154.6006 C   0  0  0  0  0  0  0  0  0  0  0  0
  149.2169  133.0271  153.5594 C   0  0  0  0  0  0  0  0  0  0  0  0
  147.8352  133.5035  154.1118 C   0  0  1  0  0  0  0  0  0  0  0  0
  147.1729  132.2623  154.7693 C   0  0  0  0  0  0  0  0  0  0  0  0
  148.0969  134.5660  155.2253 C   0  0  0  0  0  0  0  0  0  0  0  0
  148.9900  135.6370  154.7877 N   0  0  0  0  0  0  0  0  0  0  0  0
  149.8584  136.2989  155.5655 C   0  0  0  0  0  0  0  0  0  0  0  0
  150.0379  136.0404  156.7562 O   0  0  0  0  0  0  0  0  0  0  0  0
  150.6595  137.4141  154.8787 C   0  0  0  0  0  0  0  0  0  0  0  0
  149.9409  138.6955  154.8329 N   0  0  0  0  0  0  0  0  0  0  0  0
  148.6779  138.6189  154.2659 N   0  0  0  0  0  0  0  0  0  0  0  0
  147.9519  139.6804  154.1641 C   0  0  0  0  0  0  0  0  0  0  0  0
  146.7085  139.5598  153.5941 O   0  0  0  0  0  0  0  0  0  0  0  0
  148.4288  140.9620  154.6353 C   0  0  0  0  0  0  0  0  0  0  0  0
  149.6586  141.0257  155.1910 C   0  0  0  0  0  0  0  0  0  0  0  0
  150.5076  139.8405  155.3242 C   0  0  0  0  0  0  0  0  0  0  0  0
  151.6289  139.8677  155.8317 O   0  0  0  0  0  0  0  0  0  0  0  0
  146.9733  134.0354  153.0181 N   0  0  0  0  0  0  0  0  0  0  0  0
  146.7896  133.1352  151.8734 C   0  0  0  0  0  0  0  0  0  0  0  0
  146.0135  133.8091  150.7290 C   0  0  0  0  0  0  0  0  0  0  0  0
  144.7570  134.2726  151.2086 O   0  0  0  0  0  0  0  0  0  0  0  0
  144.8925  135.1930  152.2847 C   0  0  0  0  0  0  0  0  0  0  0  0
  145.6562  134.5269  153.4415 C   0  0  0  0  0  0  0  0  0  0  0  0
  146.4069  140.4454  153.4619 H   0  0  0  0  0  0  0  0  0  0  0  0
  151.1093  132.1172  154.1240 H   0  0  0  0  0  0  0  0  0  0  0  0
  149.7560  131.5493  155.0876 H   0  0  0  0  0  0  0  0  0  0  0  0
  150.4386  133.1492  155.3749 H   0  0  0  0  0  0  0  0  0  0  0  0
  149.7355  133.8591  153.0818 H   0  0  0  0  0  0  0  0  0  0  0  0
  149.0733  132.3044  152.7562 H   0  0  0  0  0  0  0  0  0  0  0  0
  147.8717  131.7062  155.3952 H   0  0  0  0  0  0  0  0  0  0  0  0
  146.7914  131.5668  154.0213 H   0  0  0  0  0  0  0  0  0  0  0  0
  146.3369  132.5380  155.4124 H   0  0  0  0  0  0  0  0  0  0  0  0
  147.1525  134.9939  155.5627 H   0  0  0  0  0  0  0  0  0  0  0  0
  148.5584  134.1106  156.1010 H   0  0  0  0  0  0  0  0  0  0  0  0
  148.9191  135.9147  153.8196 H   0  0  0  0  0  0  0  0  0  0  0  0
  151.6050  137.5265  155.4122 H   0  0  0  0  0  0  0  0  0  0  0  0
  150.9293  137.1081  153.8659 H   0  0  0  0  0  0  0  0  0  0  0  0
  147.8090  141.8414  154.5410 H   0  0  0  0  0  0  0  0  0  0  0  0
  150.0275  141.9762  155.5471 H   0  0  0  0  0  0  0  0  0  0  0  0
  147.7486  132.8076  151.4761 H   0  0  0  0  0  0  0  0  0  0  0  0
  146.2500  132.2391  152.1792 H   0  0  0  0  0  0  0  0  0  0  0  0
  146.5829  134.6424  150.3140 H   0  0  0  0  0  0  0  0  0  0  0  0
  145.8449  133.1010  149.9176 H   0  0  0  0  0  0  0  0  0  0  0  0
  145.4130  136.0896  151.9444 H   0  0  0  0  0  0  0  0  0  0  0  0
  143.9011  135.5035  152.6145 H   0  0  0  0  0  0  0  0  0  0  0  0
  145.0528  133.7068  153.8304 H   0  0  0  0  0  0  0  0  0  0  0  0
  145.7494  135.2580  154.2423 H   0  0  0  0  0  0  0  0  0  0  0  0
  1  2  1  0  0  0  0
  1 25  1  0  0  0  0
  1 26  1  0  0  0  0
  1 27  1  0  0  0  0
  2  3  1  0  0  0  0
  2 28  1  0  0  0  0
  2 29  1  0  0  0  0
  3  4  1  0  0  0  0
  3  5  1  0  0  0  0
  3 18  1  0  0  0  0
  4 30  1  0  0  0  0
  4 31  1  0  0  0  0
  4 32  1  0  0  0  0
  5  6  1  0  0  0  0
  5 33  1  0  0  0  0
  5 34  1  0  0  0  0
  6  7  1  0  0  0  0
  6 35  1  0  0  0  0
  7  8  2  0  0  0  0
  7  9  1  0  0  0  0
  9 36  1  0  0  0  0
  9 37  1  0  0  0  0
  9 10  1  0  0  0  0
 10 11  1  0  0  0  0
 10 16  1  0  0  0  0
 11 12  2  0  0  0  0
 12 13  1  0  0  0  0
 12 14  1  0  0  0  0
 13 24  1  0  0  0  0
 14 38  1  0  0  0  0
 14 15  2  0  0  0  0
 15 39  1  0  0  0  0
 15 16  1  0  0  0  0
 16 17  2  0  0  0  0
 18 23  1  0  0  0  0
 18 19  1  0  0  0  0
 19 20  1  0  0  0  0
 19 40  1  0  0  0  0
 19 41  1  0  0  0  0
 20 21  1  0  0  0  0
 20 42  1  0  0  0  0
 20 43  1  0  0  0  0
 21 22  1  0  0  0  0
 22 23  1  0  0  0  0
 22 44  1  0  0  0  0
 22 45  1  0  0  0  0
 23 46  1  0  0  0  0
 23 47  1  0  0  0  0
M  END
> <s_m_source_file>
AV-unprocessed.smi

> <i_m_source_file_index>
1986

> <i_lp_mmshare_version>
43012

> <i_f3d_flags>
0

> <s_epik_input>
W0NIMl0xW0NIMl1PW0NIMl1bQ0gyXU4xW0NAQF0oW0NIM10pKFtDSDJdW0NIM10pW0NIMl1bTkhdQyg9TylbQ0gyXW4yW25IXWMoPU8pW2NIXVtjSF1jMj1P

> <s_epik_cmdline>
J2VwaWtfcHl0aG9uJywgJy1waCcsICc3LjAnLCAnLXRuJywgJzgnLCAnLW1hJywgJzIwMCcsICctbWV0YWxfYmluZGluZycsICctaW1hZScsICc8aW5maWxlLm1hZT4nLCAnLW9tYWUnLCAnPG91dGZpbGUubWFlPic=

> <r_epik_Ionization_Penalty>
2.44436

> <r_epik_Ionization_Penalty_Charging>
3.63754e-08

> <r_epik_Ionization_Penalty_Neutral>
2.44436

> <r_epik_State_Penalty>
2.04701

> <r_epik_Charging_Adjusted_Penalty>
2.04701

> <i_epik_Tot_Q>
0

> <i_epik_Tot_abs_Q>
0

> <r_epik_Metal_State_Penalty>
2.04701

> <b_epik_Metal_Only>
0

> <s_lp_Force_Field>
OPLS_2005

> <r_lp_Energy>
55.4417

> <b_lp_Chiralities_Consistent>
1

> <s_lp_Variant>
AV-unprocessed.smi:1986-5

> <Gold.Version>
5.8.1

> <Gold.Id.Protein>
6NUR|6NUR_protein|mol2

> <Gold.PLP.Fitness>
40.4295

> <Gold.PLP.PLP>
-33.9858

> <Gold.PLP.part.hbond>
-2.9719

> <Gold.PLP.part.metal>
0.0000

> <Gold.PLP.part.buried>
-3.6926

> <Gold.PLP.part.nonpolar>
-27.7622

> <Gold.PLP.part.repulsive>
0.5417

> <Gold.PLP.ligand.clash>
0.0000

> <Gold.PLP.ligand.torsion>
0.6871

> <Gold.PLP.Chemscore.Hbond>
2.5120

> <Gold.PLP.Chemscore.CHOScore>
0.0000

> <Gold.PLP.Chemscore.Metal>
0.0000

> <Gold.Chemscore.Hbonds>
donor molecule, donor type, donor heavy atom, donor atom, acceptor molecule, acceptor atom, score
      L1  H     6    35       P1  7948  1.00

> <Gold.PLP.Chemscore.Internal.Correction>
0.2819

> <Gold.Rescore>
     Score         DG    S(hbond)    S(metal)    S(lipo)     H(rot)  DE(clash)    DE(int)     intcor
      7.60      -8.37       0.99        0.00      63.59       3.06       0.03       0.74       ----

> <Gold.Chemscore.Fitness>
7.5976

> <Gold.Chemscore.DG>
-8.3716

> <Gold.Chemscore.ZeroCoef>
-5.4800

> <Gold.Chemscore.Hbond>
0.9850

> <Gold.Chemscore.Metal>
0.0000

> <Gold.Chemscore.Lipo>
63.5911

> <Gold.Chemscore.Internal_Hbond>
0.0000

> <Gold.Chemscore.DEClash>
0.0310

> <Gold.Chemscore.DEInternal>
0.7430

> <Gold.Chemscore.Rot>
3.0620

> <Gold.Chemscore.Internal.Correction>
   9.000000E+99

> <Gold.Chemscore.Hbonds>
donor molecule, donor type, donor heavy atom, donor atom, acceptor molecule, acceptor atom, score
      L1  H     6    35       P1  7948  0.95

> <Gold.Chemscore.Hbond.Weighted>
-3.2901

> <Gold.Chemscore.Metal.Weighted>
-0.0000

> <Gold.Chemscore.Lipo.Weighted>
-7.4402

> <Gold.Chemscore.Internal_Hbond.Weighted>
0.0000

> <Gold.Chemscore.DEClash.Weighted>
0.0310

> <Gold.Chemscore.DEInternal.Weighted>
0.7430

> <Gold.Chemscore.Rot.Weighted>
7.8387

> <Gold.Chemscore.Internal.Correction.Weighted>
   9.000000E+99

> <Gold.Protein.RotatedTorsions>
[ 6907 6896 6895 6894 ] final -152.62 input  -60.11 | X-H torsion
[ 7974 7965 7964 7962 ] final   82.88 input  175.53 | X-H torsion
[ 8008 7997 7996 7995 ] final  156.74 input   59.86 | X-H torsion
[ 10167 10162 10161 10158 ] final  -51.84 input  -65.29 | X-H torsion
[ 10718 10713 10712 10709 ] final  154.56 input   66.30 | X-H torsion
[ 10763 10752 10751 10750 ] final  137.97 input  -60.55 | X-H torsion
[ 11005 11000 10999 10996 ] final  -40.81 input  -57.11 | X-H torsion

> <Gold.Protein.ActiveResidues>
 VAL166  LYS551  ARG553  GLY616  TRP617  ASP618  TYR619  PRO620  LYS621  CYS622 
 ASP623  PHE694  ASN695  SER759  ASP760  ASP761  ALA762  ILE779  LEU786  VAL792 
 PHE793  MET794  SER795  GLU796  ALA797  LYS798  CYS799  TRP800  GLU811  SER814 

> <Gold.Protein.RotatedAtoms>
  151.2304  133.4453  159.2603 H   0  0  0  0  0  0  0  0  0  0  0  0  # atno 6907 bound_to 6896
  151.0800  134.9852  159.8361 H   0  0  0  0  0  0  0  0  0  0  0  0  # atno 6908 bound_to 6896
  152.5423  134.2244  159.8853 H   0  0  0  0  0  0  0  0  0  0  0  0  # atno 6909 bound_to 6896
  145.6193  139.2383  143.2147 H   0  0  0  0  0  0  0  0  0  0  0  0  # atno 7974 bound_to 7965
  156.2405  140.1904  156.7001 H   0  0  0  0  0  0  0  0  0  0  0  0  # atno 8008 bound_to 7997
  154.6188  140.0611  156.9615 H   0  0  0  0  0  0  0  0  0  0  0  0  # atno 8009 bound_to 7997
  155.1896  140.3283  155.4363 H   0  0  0  0  0  0  0  0  0  0  0  0  # atno 8010 bound_to 7997
  140.6568  143.2605  151.4562 H   0  0  0  0  0  0  0  0  0  0  0  0  # atno 10167 bound_to 10162
  157.2300  131.0737  151.1859 H   0  0  0  0  0  0  0  0  0  0  0  0  # atno 10718 bound_to 10713
  153.8819  135.3043  155.3445 H   0  0  0  0  0  0  0  0  0  0  0  0  # atno 10763 bound_to 10752
  154.7757  135.4862  153.9743 H   0  0  0  0  0  0  0  0  0  0  0  0  # atno 10764 bound_to 10752
  153.1346  135.6811  153.9220 H   0  0  0  0  0  0  0  0  0  0  0  0  # atno 10765 bound_to 10752
  141.0202  133.6866  156.2373 H   0  0  0  0  0  0  0  0  0  0  0  0  # atno 11005 bound_to 11000
  146.1443  140.7014  142.9352 LP  0  0  0  0  0  0  0  0  0  0  0  0  # atno 17320 bound_to 7965
  144.7237  140.4458  143.6989 LP  0  0  0  0  0  0  0  0  0  0  0  0  # atno 17321 bound_to 7965
  139.5792  144.1748  152.1945 LP  0  0  0  0  0  0  0  0  0  0  0  0  # atno 17342 bound_to 10162
  140.1068  144.5492  150.6951 LP  0  0  0  0  0  0  0  0  0  0  0  0  # atno 17343 bound_to 10162
  157.3487  130.7071  149.6427 LP  0  0  0  0  0  0  0  0  0  0  0  0  # atno 17370 bound_to 10713
  155.9676  130.4259  150.4673 LP  0  0  0  0  0  0  0  0  0  0  0  0  # atno 17371 bound_to 10713
  140.6587  134.4991  157.5582 LP  0  0  0  0  0  0  0  0  0  0  0  0  # atno 17394 bound_to 11000
  139.9141  134.8283  156.1426 LP  0  0  0  0  0  0  0  0  0  0  0  0  # atno 17395 bound_to 11000

$$$$
