AV-unprocessed.smi:651|AV-procd|sdf|3187|dock3
  -GOLD-   22720 0113D 1   1.00000     0.00000
 Structure written by MMmdl.
 38 39  0  0  0  0  0  0  0  0  1 V2000
  152.9402  142.7757  162.5491 C   0  0  0  0  0  0  0  0  0  0  0  0
  152.5748  142.9360  161.0881 C   0  0  0  0  0  0  0  0  0  0  0  0
  151.9125  144.0952  160.6320 C   0  0  0  0  0  0  0  0  0  0  0  0
  151.5983  144.1931  159.2632 C   0  0  0  0  0  0  0  0  0  0  0  0
  151.9585  143.1339  158.4044 C   0  0  0  0  0  0  0  0  0  0  0  0
  151.6445  143.1900  156.9196 C   0  0  0  0  0  0  0  0  0  0  0  0
  150.7492  142.0193  156.5102 C   0  0  0  0  0  0  0  0  0  0  0  0
  151.1837  140.8693  156.5631 O   0  0  0  0  0  0  0  0  0  0  0  0
  149.5030  142.3315  156.1126 N   0  0  0  0  0  0  0  0  0  0  0  0
  148.4480  141.4174  155.6651 C   0  0  1  0  0  0  0  0  0  0  0  0
  147.0183  141.9592  155.8770 C   0  0  0  0  0  0  0  0  0  0  0  0
  146.3932  142.0515  154.4841 C   0  0  0  0  0  0  0  0  0  0  0  0
  147.1153  140.9860  153.6620 C   0  0  0  0  0  0  0  0  0  0  0  0
  148.5649  141.0252  154.1685 C   0  0  2  0  0  0  0  0  0  0  0  0
  149.3171  139.7043  153.9473 C   0  0  0  0  0  0  0  0  0  0  0  0
  148.6597  138.7306  153.3124 N   0  0  0  0  0  0  0  0  0  0  0  0
  150.4732  139.5617  154.3418 O   0  0  0  0  0  0  0  0  0  0  0  0
  152.6191  142.0183  158.9622 C   0  0  0  0  0  0  0  0  0  0  0  0
  152.9242  141.9158  160.2738 N   0  0  0  0  0  0  0  0  0  0  0  0
  152.4213  143.5088  163.1672 H   0  0  0  0  0  0  0  0  0  0  0  0
  154.0134  142.9107  162.6859 H   0  0  0  0  0  0  0  0  0  0  0  0
  152.6701  141.7813  162.9061 H   0  0  0  0  0  0  0  0  0  0  0  0
  151.6508  144.8925  161.3122 H   0  0  0  0  0  0  0  0  0  0  0  0
  151.0931  145.0680  158.8812 H   0  0  0  0  0  0  0  0  0  0  0  0
  151.1507  144.1346  156.6865 H   0  0  0  0  0  0  0  0  0  0  0  0
  152.5671  143.1645  156.3386 H   0  0  0  0  0  0  0  0  0  0  0  0
  149.2610  143.3119  156.1094 H   0  0  0  0  0  0  0  0  0  0  0  0
  148.5501  140.5317  156.2945 H   0  0  0  0  0  0  0  0  0  0  0  0
  146.4510  141.2491  156.4800 H   0  0  0  0  0  0  0  0  0  0  0  0
  146.9840  142.9153  156.4006 H   0  0  0  0  0  0  0  0  0  0  0  0
  145.3125  141.9084  154.5003 H   0  0  0  0  0  0  0  0  0  0  0  0
  146.5901  143.0359  154.0577 H   0  0  0  0  0  0  0  0  0  0  0  0
  146.6579  140.0127  153.8470 H   0  0  0  0  0  0  0  0  0  0  0  0
  147.0467  141.1850  152.5922 H   0  0  0  0  0  0  0  0  0  0  0  0
  149.0746  141.8161  153.6161 H   0  0  0  0  0  0  0  0  0  0  0  0
  149.1126  137.8447  153.1402 H   0  0  0  0  0  0  0  0  0  0  0  0
  147.7110  138.8860  153.0033 H   0  0  0  0  0  0  0  0  0  0  0  0
  152.9121  141.1861  158.3392 H   0  0  0  0  0  0  0  0  0  0  0  0
  1  2  1  0  0  0  0
  1 20  1  0  0  0  0
  1 21  1  0  0  0  0
  1 22  1  0  0  0  0
  2 19  1  0  0  0  0
  2  3  2  0  0  0  0
  3  4  1  0  0  0  0
  3 23  1  0  0  0  0
  4  5  2  0  0  0  0
  4 24  1  0  0  0  0
  5  6  1  0  0  0  0
  5 18  1  0  0  0  0
  6  7  1  0  0  0  0
  6 25  1  0  0  0  0
  6 26  1  0  0  0  0
  7  8  2  0  0  0  0
  7  9  1  0  0  0  0
  9 10  1  0  0  0  0
  9 27  1  0  0  0  0
 10 14  1  0  0  0  0
 10 11  1  0  0  0  0
 10 28  1  0  0  0  0
 11 12  1  0  0  0  0
 11 29  1  0  0  0  0
 11 30  1  0  0  0  0
 12 13  1  0  0  0  0
 12 31  1  0  0  0  0
 12 32  1  0  0  0  0
 13 14  1  0  0  0  0
 13 33  1  0  0  0  0
 13 34  1  0  0  0  0
 14 15  1  0  0  0  0
 14 35  1  0  0  0  0
 15 16  1  0  0  0  0
 15 17  2  0  0  0  0
 16 36  1  0  0  0  0
 16 37  1  0  0  0  0
 18 19  2  0  0  0  0
 18 38  1  0  0  0  0
M  END
> <s_m_source_file>
AV-unprocessed.smi

> <i_m_source_file_index>
651

> <i_lp_mmshare_version>
43012

> <i_f3d_flags>
0

> <s_epik_input>
W0NIM11jMVtjSF1bY0hdYyhbY0hdbjEpW0NIMl1DKD1PKVtOSF1bQ0BASF0yW0NIMl1bQ0gyXVtDSDJdW0NASF0yQyg9TylbTkgyXQ==

> <s_epik_cmdline>
J2VwaWtfcHl0aG9uJywgJy1waCcsICc3LjAnLCAnLXRuJywgJzgnLCAnLW1hJywgJzIwMCcsICctbWV0YWxfYmluZGluZycsICctaW1hZScsICc8aW5maWxlLm1hZT4nLCAnLW9tYWUnLCAnPG91dGZpbGUubWFlPic=

> <r_epik_Ionization_Penalty>
0.0159502

> <r_epik_Ionization_Penalty_Charging>
0

> <r_epik_Ionization_Penalty_Neutral>
0.0159502

> <r_epik_State_Penalty>
0.012563

> <r_epik_Charging_Adjusted_Penalty>
0.012563

> <i_epik_Tot_Q>
0

> <i_epik_Tot_abs_Q>
0

> <r_epik_Metal_State_Penalty>
0.0122326

> <b_epik_Metal_Only>
0

> <s_lp_Force_Field>
OPLS_2005

> <r_lp_Energy>
14.6818

> <b_lp_Chiralities_Consistent>
1

> <s_lp_Variant>
AV-unprocessed.smi:651-4

> <Gold.Version>
5.8.1

> <Gold.Id.Protein>
6NUR|6NUR_protein|mol2

> <Gold.PLP.Fitness>
51.0723

> <Gold.PLP.PLP>
-43.3980

> <Gold.PLP.part.hbond>
-3.9429

> <Gold.PLP.part.metal>
0.0000

> <Gold.PLP.part.buried>
-5.8719

> <Gold.PLP.part.nonpolar>
-35.5845

> <Gold.PLP.part.repulsive>
0.3390

> <Gold.PLP.ligand.clash>
0.0000

> <Gold.PLP.ligand.torsion>
0.3928

> <Gold.PLP.Chemscore.Hbond>
2.8160

> <Gold.PLP.Chemscore.CHOScore>
0.0000

> <Gold.PLP.Chemscore.Metal>
0.0000

> <Gold.Chemscore.Hbonds>
donor molecule, donor type, donor heavy atom, donor atom, acceptor molecule, acceptor atom, score
      L1  H     9    27       P1  8028  0.99
      L1  H    16    36       P1  7948  0.76
      P1  H  7989  7998       L1    17  1.00

> <Gold.PLP.Chemscore.Internal.Correction>
0.0119

> <Gold.Rescore>
     Score         DG    S(hbond)    S(metal)    S(lipo)     H(rot)  DE(clash)    DE(int)     intcor
     18.25     -21.73       2.69        0.00     105.22       1.97       1.54       1.93       ----

> <Gold.Chemscore.Fitness>
18.2536

> <Gold.Chemscore.DG>
-21.7260

> <Gold.Chemscore.ZeroCoef>
-5.4800

> <Gold.Chemscore.Hbond>
2.6884

> <Gold.Chemscore.Metal>
0.0000

> <Gold.Chemscore.Lipo>
105.2215

> <Gold.Chemscore.Internal_Hbond>
0.0000

> <Gold.Chemscore.DEClash>
1.5436

> <Gold.Chemscore.DEInternal>
1.9288

> <Gold.Chemscore.Rot>
1.9704

> <Gold.Chemscore.Internal.Correction>
   9.000000E+99

> <Gold.Chemscore.Hbonds>
donor molecule, donor type, donor heavy atom, donor atom, acceptor molecule, acceptor atom, score
      L1  H     9    27       P1  8028  0.92
      L1  H    16    36       P1  7948  0.73
      P1  H  7989  7998       L1    17  0.74

> <Gold.Chemscore.Hbond.Weighted>
-8.9794

> <Gold.Chemscore.Metal.Weighted>
-0.0000

> <Gold.Chemscore.Lipo.Weighted>
-12.3109

> <Gold.Chemscore.Internal_Hbond.Weighted>
0.0000

> <Gold.Chemscore.DEClash.Weighted>
1.5436

> <Gold.Chemscore.DEInternal.Weighted>
1.9288

> <Gold.Chemscore.Rot.Weighted>
5.0443

> <Gold.Chemscore.Internal.Correction.Weighted>
   9.000000E+99

> <Gold.Protein.RotatedTorsions>
[ 6907 6896 6895 6894 ] final   19.36 input  -60.11 | X-H torsion
[ 7974 7965 7964 7962 ] final -167.07 input  175.53 | X-H torsion
[ 8008 7997 7996 7995 ] final   76.32 input   59.86 | X-H torsion
[ 10167 10162 10161 10158 ] final   -1.86 input  -65.29 | X-H torsion
[ 10718 10713 10712 10709 ] final  -49.37 input   66.30 | X-H torsion
[ 10763 10752 10751 10750 ] final -104.82 input  -60.55 | X-H torsion
[ 11005 11000 10999 10996 ] final   -5.85 input  -57.11 | X-H torsion

> <Gold.Protein.ActiveResidues>
 VAL166  LYS551  ARG553  GLY616  TRP617  ASP618  TYR619  PRO620  LYS621  CYS622 
 ASP623  PHE694  ASN695  SER759  ASP760  ASP761  ALA762  ILE779  LEU786  VAL792 
 PHE793  MET794  SER795  GLU796  ALA797  LYS798  CYS799  TRP800  GLU811  SER814 

> <Gold.Protein.RotatedAtoms>
  151.8797  135.0458  160.0487 H   0  0  0  0  0  0  0  0  0  0  0  0  # atno 6907 bound_to 6896
  152.2523  133.5221  159.5341 H   0  0  0  0  0  0  0  0  0  0  0  0  # atno 6908 bound_to 6896
  150.7088  134.0860  159.3957 H   0  0  0  0  0  0  0  0  0  0  0  0  # atno 6909 bound_to 6896
  144.7231  140.2572  143.6270 H   0  0  0  0  0  0  0  0  0  0  0  0  # atno 7974 bound_to 7965
  155.8256  140.3468  155.5541 H   0  0  0  0  0  0  0  0  0  0  0  0  # atno 8008 bound_to 7997
  155.8296  140.0925  157.1820 H   0  0  0  0  0  0  0  0  0  0  0  0  # atno 8009 bound_to 7997
  154.4004  140.1415  156.3585 H   0  0  0  0  0  0  0  0  0  0  0  0  # atno 8010 bound_to 7997
  140.6827  143.6726  150.8172 H   0  0  0  0  0  0  0  0  0  0  0  0  # atno 10167 bound_to 10162
  156.1900  130.4152  149.9385 H   0  0  0  0  0  0  0  0  0  0  0  0  # atno 10718 bound_to 10713
  154.7904  135.4772  154.0040 H   0  0  0  0  0  0  0  0  0  0  0  0  # atno 10763 bound_to 10752
  153.1623  135.6811  153.8732 H   0  0  0  0  0  0  0  0  0  0  0  0  # atno 10764 bound_to 10752
  153.8342  135.3188  155.3399 H   0  0  0  0  0  0  0  0  0  0  0  0  # atno 10765 bound_to 10752
  140.6956  133.9033  155.8648 H   0  0  0  0  0  0  0  0  0  0  0  0  # atno 11005 bound_to 11000
  145.8170  139.2027  143.1960 LP  0  0  0  0  0  0  0  0  0  0  0  0  # atno 17320 bound_to 7965
  146.0547  140.8033  142.9764 LP  0  0  0  0  0  0  0  0  0  0  0  0  # atno 17321 bound_to 7965
  140.0428  143.5328  152.2710 LP  0  0  0  0  0  0  0  0  0  0  0  0  # atno 17342 bound_to 10162
  139.6162  144.7620  151.2842 LP  0  0  0  0  0  0  0  0  0  0  0  0  # atno 17343 bound_to 10162
  156.7128  130.8977  151.3611 LP  0  0  0  0  0  0  0  0  0  0  0  0  # atno 17370 bound_to 10713
  157.6923  130.9246  150.0547 LP  0  0  0  0  0  0  0  0  0  0  0  0  # atno 17371 bound_to 10713
  141.0206  134.0895  157.4125 LP  0  0  0  0  0  0  0  0  0  0  0  0  # atno 17394 bound_to 11000
  139.8911  135.0116  156.6772 LP  0  0  0  0  0  0  0  0  0  0  0  0  # atno 17395 bound_to 11000

$$$$
