AV-unprocessed.smi:1867|AV-procd|sdf|7563|dock4
  -GOLD-   22720 9283D 1   1.00000     0.00000
 Structure written by MMmdl.
 52 55  0  0  0  0  0  0  0  0  2 V2000
  146.3513  136.8383  155.4482 O   0  0  0  0  0  0  0  0  0  0  0  0
  147.0503  136.5957  154.4677 C   0  0  0  0  0  0  0  0  0  0  0  0
  148.2232  137.1978  154.1890 N   0  0  0  0  0  0  0  0  0  0  0  0
  148.9041  138.2073  154.9214 C   0  0  0  0  0  0  0  0  0  0  0  0
  148.6902  138.4862  156.2925 C   0  0  0  0  0  0  0  0  0  0  0  0
  149.4449  139.5048  156.9051 C   0  0  0  0  0  0  0  0  0  0  0  0
  150.3949  140.2077  156.1362 C   0  0  0  0  0  0  0  0  0  0  0  0
  151.1452  141.2213  156.7513 N   0  0  0  0  0  0  0  0  0  0  0  0
  150.3691  142.2886  157.3612 C   0  0  0  0  0  0  0  0  0  0  0  0
  151.3502  143.0372  158.2657 C   0  0  0  0  0  0  0  0  0  0  0  0
  152.4596  142.0219  158.5655 C   0  0  0  0  0  0  0  0  0  0  0  0
  152.0723  140.7681  157.7755 C   0  0  0  0  0  0  0  0  0  0  0  0
  150.6124  139.9377  154.8268 N   0  0  0  0  0  0  0  0  0  0  0  0
  149.8859  138.9604  154.2455 C   0  0  0  0  0  0  0  0  0  0  0  0
  146.6682  135.6856  153.5537 N   0  0  0  0  0  0  0  0  0  0  0  0
  145.4593  134.8577  153.5491 C   0  0  1  0  0  0  0  0  0  0  0  0
  144.2112  135.6254  153.0920 C   0  0  0  0  0  0  0  0  0  0  0  0
  143.3298  134.5796  152.3863 C   0  0  0  0  0  0  0  0  0  0  0  0
  144.0871  133.3089  152.4250 N   0  3  1  0  0  0  0  0  0  0  0  0
  143.7746  132.3203  151.3613 C   0  0  0  0  0  0  0  0  0  0  0  0
  144.4413  132.6625  150.0184 C   0  0  0  0  0  0  0  0  0  0  0  0
  145.9498  132.8592  150.1998 C   0  0  0  0  0  0  0  0  0  0  0  0
  146.2043  133.9631  151.2315 C   0  0  0  0  0  0  0  0  0  0  0  0
  145.5164  133.6571  152.5871 C   0  0  1  0  0  0  0  0  0  0  0  0
  148.6547  136.9387  153.3143 H   0  0  0  0  0  0  0  0  0  0  0  0
  147.9792  137.9370  156.8889 H   0  0  0  0  0  0  0  0  0  0  0  0
  149.2984  139.7372  157.9499 H   0  0  0  0  0  0  0  0  0  0  0  0
  149.9395  142.9450  156.6039 H   0  0  0  0  0  0  0  0  0  0  0  0
  149.5512  141.8786  157.9555 H   0  0  0  0  0  0  0  0  0  0  0  0
  151.7680  143.8960  157.7390 H   0  0  0  0  0  0  0  0  0  0  0  0
  150.8648  143.4052  159.1701 H   0  0  0  0  0  0  0  0  0  0  0  0
  153.4204  142.4081  158.2226 H   0  0  0  0  0  0  0  0  0  0  0  0
  152.5486  141.8092  159.6312 H   0  0  0  0  0  0  0  0  0  0  0  0
  151.5916  140.0436  158.4344 H   0  0  0  0  0  0  0  0  0  0  0  0
  152.9452  140.2900  157.3303 H   0  0  0  0  0  0  0  0  0  0  0  0
  150.0946  138.7763  153.2017 H   0  0  0  0  0  0  0  0  0  0  0  0
  147.2973  135.5465  152.7759 H   0  0  0  0  0  0  0  0  0  0  0  0
  145.2647  134.4917  154.5594 H   0  0  0  0  0  0  0  0  0  0  0  0
  143.6989  136.0964  153.9314 H   0  0  0  0  0  0  0  0  0  0  0  0
  144.4755  136.4148  152.3866 H   0  0  0  0  0  0  0  0  0  0  0  0
  142.3676  134.4545  152.8835 H   0  0  0  0  0  0  0  0  0  0  0  0
  143.1358  134.8897  151.3589 H   0  0  0  0  0  0  0  0  0  0  0  0
  144.1298  131.3453  151.6972 H   0  0  0  0  0  0  0  0  0  0  0  0
  142.6937  132.2324  151.2452 H   0  0  0  0  0  0  0  0  0  0  0  0
  144.2538  131.8651  149.2989 H   0  0  0  0  0  0  0  0  0  0  0  0
  143.9981  133.5651  149.5962 H   0  0  0  0  0  0  0  0  0  0  0  0
  146.4123  131.9271  150.5272 H   0  0  0  0  0  0  0  0  0  0  0  0
  146.4115  133.1219  149.2476 H   0  0  0  0  0  0  0  0  0  0  0  0
  147.2786  134.0833  151.3744 H   0  0  0  0  0  0  0  0  0  0  0  0
  145.8425  134.9106  150.8299 H   0  0  0  0  0  0  0  0  0  0  0  0
  146.0286  132.8157  153.0563 H   0  0  0  0  0  0  0  0  0  0  0  0
  143.8160  132.8771  153.2969 H   0  0  0  0  0  0  0  0  0  0  0  0
  1  2  2  0  0  0  0
  2  3  1  0  0  0  0
  2 15  1  0  0  0  0
  3  4  1  0  0  0  0
  3 25  1  0  0  0  0
  4 14  1  0  0  0  0
  4  5  2  0  0  0  0
  5  6  1  0  0  0  0
  5 26  1  0  0  0  0
  6  7  2  0  0  0  0
  6 27  1  0  0  0  0
  7  8  1  0  0  0  0
  7 13  1  0  0  0  0
  8 12  1  0  0  0  0
  8  9  1  0  0  0  0
  9 10  1  0  0  0  0
  9 28  1  0  0  0  0
  9 29  1  0  0  0  0
 10 11  1  0  0  0  0
 10 30  1  0  0  0  0
 10 31  1  0  0  0  0
 11 12  1  0  0  0  0
 11 32  1  0  0  0  0
 11 33  1  0  0  0  0
 12 34  1  0  0  0  0
 12 35  1  0  0  0  0
 13 14  2  0  0  0  0
 14 36  1  0  0  0  0
 15 16  1  0  0  0  0
 15 37  1  0  0  0  0
 16 24  1  0  0  0  0
 16 17  1  0  0  0  0
 16 38  1  0  0  0  0
 17 18  1  0  0  0  0
 17 39  1  0  0  0  0
 17 40  1  0  0  0  0
 18 19  1  0  0  0  0
 18 41  1  0  0  0  0
 18 42  1  0  0  0  0
 19 24  1  0  0  0  0
 19 20  1  0  0  0  0
 19 52  1  0  0  0  0
 20 21  1  0  0  0  0
 20 43  1  0  0  0  0
 20 44  1  0  0  0  0
 21 22  1  0  0  0  0
 21 45  1  0  0  0  0
 21 46  1  0  0  0  0
 22 23  1  0  0  0  0
 22 47  1  0  0  0  0
 22 48  1  0  0  0  0
 23 24  1  0  0  0  0
 23 49  1  0  0  0  0
 23 50  1  0  0  0  0
 24 51  1  0  0  0  0
M  CHG  1  19   1
M  END
> <s_m_source_file>
AV-unprocessed.smi

> <i_m_source_file_index>
1867

> <i_lp_mmshare_version>
43012

> <i_f3d_flags>
0

> <s_epik_input>
W0NIMl0xW0NIMl1bQ0gyXVtDSDJdW0NASF0oTjEyKVtDQEBIXShbQ0gyXVtDSDJdMilbTkhdQyg9TylbTkhdYzNbY0hdW2NIXWMobltjSF0zKU40W0NIMl1bQ0gyXVtDSDJdW0NIMl00

> <s_epik_cmdline>
J2VwaWtfcHl0aG9uJywgJy1waCcsICc3LjAnLCAnLXRuJywgJzgnLCAnLW1hJywgJzIwMCcsICctbWV0YWxfYmluZGluZycsICctaW1hZScsICc8aW5maWxlLm1hZT4nLCAnLW9tYWUnLCAnPG91dGZpbGUubWFlPic=

> <r_lp_tautomer_probability>
1

> <r_epik_Ionization_Penalty>
0.0751123

> <r_epik_Ionization_Penalty_Charging>
0.000974069

> <r_epik_Ionization_Penalty_Neutral>
0.0741382

> <r_epik_State_Penalty>
0.0647261

> <r_epik_Charging_Adjusted_Penalty>
0.0657002

> <i_epik_Tot_Q>
1

> <i_epik_Tot_abs_Q>
1

> <r_epik_Metal_State_Penalty>
0.0580571

> <b_epik_Metal_Only>
0

> <s_lp_Force_Field>
OPLS_2005

> <r_lp_Energy>
77.3857

> <b_lp_Chiralities_Consistent>
1

> <s_lp_Variant>
AV-unprocessed.smi:1867-4

> <Gold.Version>
5.8.1

> <Gold.Id.Protein>
6NUR|6NUR_protein|mol2

> <Gold.PLP.Fitness>
48.6842

> <Gold.PLP.PLP>
-33.4799

> <Gold.PLP.part.hbond>
-3.6884

> <Gold.PLP.part.metal>
0.0000

> <Gold.PLP.part.buried>
-7.1485

> <Gold.PLP.part.nonpolar>
-24.8072

> <Gold.PLP.part.repulsive>
0.1180

> <Gold.PLP.ligand.clash>
0.0000

> <Gold.PLP.ligand.torsion>
0.3718

> <Gold.PLP.Chemscore.Hbond>
4.3095

> <Gold.PLP.Chemscore.CHOScore>
1.0000

> <Gold.PLP.Chemscore.Metal>
0.0000

> <Gold.Chemscore.Hbonds>
donor molecule, donor type, donor heavy atom, donor atom, acceptor molecule, acceptor atom, score
      L1  H     3    25       P1  7948  1.00
      L1  H    15    37       P1  7948  0.91
      L1  H    19    52       P1 10957  1.27
      P1  H  7989  7998       L1    13  1.00
      L1  C    14    36       P1  7957  1.00

> <Gold.PLP.Chemscore.Internal.Correction>
0.0195

> <Gold.Rescore>
     Score         DG    S(hbond)    S(metal)    S(lipo)     H(rot)  DE(clash)    DE(int)     intcor
     23.01     -24.49       3.38        0.00      91.96       1.18       0.06       1.41       ----

> <Gold.Chemscore.Fitness>
23.0149

> <Gold.Chemscore.DG>
-24.4850

> <Gold.Chemscore.ZeroCoef>
-5.4800

> <Gold.Chemscore.Hbond>
3.3767

> <Gold.Chemscore.Metal>
0.0000

> <Gold.Chemscore.Lipo>
91.9580

> <Gold.Chemscore.Internal_Hbond>
0.0000

> <Gold.Chemscore.DEClash>
0.0632

> <Gold.Chemscore.DEInternal>
1.4070

> <Gold.Chemscore.Rot>
1.1845

> <Gold.Chemscore.Internal.Correction>
   9.000000E+99

> <Gold.Chemscore.Hbonds>
donor molecule, donor type, donor heavy atom, donor atom, acceptor molecule, acceptor atom, score
      L1  H     3    25       P1  7948  0.99
      L1  H    15    37       P1  7948  0.87
      L1  H    19    52       P1 10957  0.39
      P1  H  7989  7998       L1    13  0.74

> <Gold.Chemscore.Hbond.Weighted>
-11.2783

> <Gold.Chemscore.Metal.Weighted>
-0.0000

> <Gold.Chemscore.Lipo.Weighted>
-10.7591

> <Gold.Chemscore.Internal_Hbond.Weighted>
0.0000

> <Gold.Chemscore.DEClash.Weighted>
0.0632

> <Gold.Chemscore.DEInternal.Weighted>
1.4070

> <Gold.Chemscore.Rot.Weighted>
3.0324

> <Gold.Chemscore.Internal.Correction.Weighted>
   9.000000E+99

> <Gold.Protein.RotatedTorsions>
[ 6907 6896 6895 6894 ] final -118.38 input  -60.11 | X-H torsion
[ 7974 7965 7964 7962 ] final  144.53 input  175.53 | X-H torsion
[ 8008 7997 7996 7995 ] final -149.24 input   59.86 | X-H torsion
[ 10167 10162 10161 10158 ] final  175.71 input  -65.29 | X-H torsion
[ 10718 10713 10712 10709 ] final -121.85 input   66.30 | X-H torsion
[ 10763 10752 10751 10750 ] final  150.15 input  -60.55 | X-H torsion
[ 11005 11000 10999 10996 ] final  179.49 input  -57.11 | X-H torsion

> <Gold.Protein.ActiveResidues>
 VAL166  LYS551  ARG553  GLY616  TRP617  ASP618  TYR619  PRO620  LYS621  CYS622 
 ASP623  PHE694  ASN695  SER759  ASP760  ASP761  ALA762  ILE779  LEU786  VAL792 
 PHE793  MET794  SER795  GLU796  ALA797  LYS798  CYS799  TRP800  GLU811  SER814 

> <Gold.Protein.RotatedAtoms>
  150.8215  133.8245  159.3136 H   0  0  0  0  0  0  0  0  0  0  0  0  # atno 6907 bound_to 6896
  151.6002  135.1046  160.0068 H   0  0  0  0  0  0  0  0  0  0  0  0  # atno 6908 bound_to 6896
  152.4303  133.7226  159.6598 H   0  0  0  0  0  0  0  0  0  0  0  0  # atno 6909 bound_to 6896
  144.8828  139.5674  143.5835 H   0  0  0  0  0  0  0  0  0  0  0  0  # atno 7974 bound_to 7965
  155.6045  140.0665  157.2724 H   0  0  0  0  0  0  0  0  0  0  0  0  # atno 8008 bound_to 7997
  154.4270  140.1812  156.1255 H   0  0  0  0  0  0  0  0  0  0  0  0  # atno 8009 bound_to 7997
  156.0133  140.3324  155.6967 H   0  0  0  0  0  0  0  0  0  0  0  0  # atno 8010 bound_to 7997
  139.5187  144.3000  152.0387 H   0  0  0  0  0  0  0  0  0  0  0  0  # atno 10167 bound_to 10162
  156.1370  130.6438  150.9712 H   0  0  0  0  0  0  0  0  0  0  0  0  # atno 10718 bound_to 10713
  154.0828  135.2858  155.3287 H   0  0  0  0  0  0  0  0  0  0  0  0  # atno 10763 bound_to 10752
  154.6672  135.5313  153.8095 H   0  0  0  0  0  0  0  0  0  0  0  0  # atno 10764 bound_to 10752
  153.0442  135.6548  154.1002 H   0  0  0  0  0  0  0  0  0  0  0  0  # atno 10765 bound_to 10752
  140.4068  134.6728  157.4592 H   0  0  0  0  0  0  0  0  0  0  0  0  # atno 11005 bound_to 11000
  146.3005  139.7412  142.9095 LP  0  0  0  0  0  0  0  0  0  0  0  0  # atno 17320 bound_to 7965
  145.3923  141.0374  143.3117 LP  0  0  0  0  0  0  0  0  0  0  0  0  # atno 17321 bound_to 7965
  140.2448  144.4231  150.6245 LP  0  0  0  0  0  0  0  0  0  0  0  0  # atno 17342 bound_to 10162
  140.6266  143.2182  151.6584 LP  0  0  0  0  0  0  0  0  0  0  0  0  # atno 17343 bound_to 10162
  157.6541  131.0892  150.7985 LP  0  0  0  0  0  0  0  0  0  0  0  0  # atno 17370 bound_to 10713
  156.8064  130.4938  149.5362 LP  0  0  0  0  0  0  0  0  0  0  0  0  # atno 17371 bound_to 10713
  140.0296  134.6425  155.9124 LP  0  0  0  0  0  0  0  0  0  0  0  0  # atno 17394 bound_to 11000
  141.1836  133.6551  156.5124 LP  0  0  0  0  0  0  0  0  0  0  0  0  # atno 17395 bound_to 11000

$$$$
