AV-unprocessed.smi:1576|AV-procd|sdf|6348|dock3
  -GOLD-   22720 6563D 1   1.00000     0.00000
 Structure written by MMmdl.
 45 47  0  0  0  0  0  0  0  0  3 V2000
  150.3904  140.6739  154.8707 O   0  0  0  0  0  0  0  0  0  0  0  0
  149.6897  141.0470  155.8183 C   0  0  0  0  0  0  0  0  0  0  0  0
  148.5526  140.3958  156.1214 N   0  0  0  0  0  0  0  0  0  0  0  0
  147.9413  139.3020  155.4523 C   0  0  0  0  0  0  0  0  0  0  0  0
  146.6989  138.8428  155.9389 C   0  0  0  0  0  0  0  0  0  0  0  0
  146.0461  137.7743  155.2910 C   0  0  0  0  0  0  0  0  0  0  0  0
  146.6442  137.1863  154.1532 C   0  0  0  0  0  0  0  0  0  0  0  0
  146.0708  136.1230  153.4441 N   0  0  0  0  0  0  0  0  0  0  0  0
  144.8770  135.5860  154.0922 C   0  0  0  0  0  0  0  0  0  0  0  0
  144.3965  134.3077  153.3829 C   0  0  0  0  0  0  0  0  0  0  0  0
  144.1880  134.5578  151.8805 C   0  0  0  0  0  0  0  0  0  0  0  0
  145.4633  135.1490  151.2585 C   0  0  0  0  0  0  0  0  0  0  0  0
  145.9127  136.4076  152.0204 C   0  0  0  0  0  0  0  0  0  0  0  0
  147.8261  137.6643  153.7072 N   0  3  0  0  0  0  0  0  0  0  0  0
  148.4839  138.6847  154.2994 C   0  0  0  0  0  0  0  0  0  0  0  0
  149.9312  142.0770  156.6733 N   0  5  0  0  0  0  0  0  0  0  0  0
  151.2580  142.4747  157.1529 C   0  0  1  0  0  0  0  0  0  0  0  0
  151.2684  143.9605  157.5641 C   0  0  0  0  0  0  0  0  0  0  0  0
  152.5416  144.2361  158.3763 C   0  0  0  0  0  0  0  0  0  0  0  0
  152.8986  142.6821  159.2837 S   0  0  0  0  0  0  0  0  0  0  0  0
  154.2639  142.2405  158.9579 O   0  0  0  0  0  0  0  0  0  0  0  0
  152.4665  142.8207  160.6833 O   0  0  0  0  0  0  0  0  0  0  0  0
  151.6792  141.6493  158.3794 C   0  0  0  0  0  0  0  0  0  0  0  0
  148.0969  140.6997  156.9694 H   0  0  0  0  0  0  0  0  0  0  0  0
  146.2489  139.3016  156.8073 H   0  0  0  0  0  0  0  0  0  0  0  0
  145.0986  137.4160  155.6653 H   0  0  0  0  0  0  0  0  0  0  0  0
  145.0922  135.3694  155.1396 H   0  0  0  0  0  0  0  0  0  0  0  0
  144.0846  136.3358  154.0769 H   0  0  0  0  0  0  0  0  0  0  0  0
  145.1319  133.5140  153.5220 H   0  0  0  0  0  0  0  0  0  0  0  0
  143.4702  133.9539  153.8362 H   0  0  0  0  0  0  0  0  0  0  0  0
  143.9173  133.6295  151.3768 H   0  0  0  0  0  0  0  0  0  0  0  0
  143.3553  135.2469  151.7352 H   0  0  0  0  0  0  0  0  0  0  0  0
  146.2600  134.4042  151.2820 H   0  0  0  0  0  0  0  0  0  0  0  0
  145.2933  135.3875  150.2084 H   0  0  0  0  0  0  0  0  0  0  0  0
  145.1777  137.2022  151.8853 H   0  0  0  0  0  0  0  0  0  0  0  0
  146.8561  136.7715  151.6109 H   0  0  0  0  0  0  0  0  0  0  0  0
  149.4072  138.9726  153.8191 H   0  0  0  0  0  0  0  0  0  0  0  0
  152.0231  142.3489  156.3851 H   0  0  0  0  0  0  0  0  0  0  0  0
  151.1984  144.6206  156.6989 H   0  0  0  0  0  0  0  0  0  0  0  0
  150.4024  144.1697  158.1942 H   0  0  0  0  0  0  0  0  0  0  0  0
  153.3888  144.4522  157.7238 H   0  0  0  0  0  0  0  0  0  0  0  0
  152.4245  145.0627  159.0767 H   0  0  0  0  0  0  0  0  0  0  0  0
  150.8364  141.4704  159.0480 H   0  0  0  0  0  0  0  0  0  0  0  0
  152.1218  140.6899  158.1117 H   0  0  0  0  0  0  0  0  0  0  0  0
  148.2418  137.2374  152.8793 H   0  0  0  0  0  0  0  0  0  0  0  0
  1  2  2  0  0  0  0
  2  3  1  0  0  0  0
  2 16  1  0  0  0  0
  3  4  1  0  0  0  0
  3 24  1  0  0  0  0
  4 15  1  0  0  0  0
  4  5  2  0  0  0  0
  5  6  1  0  0  0  0
  5 25  1  0  0  0  0
  6  7  2  0  0  0  0
  6 26  1  0  0  0  0
  7  8  1  0  0  0  0
  7 14  1  0  0  0  0
  8 13  1  0  0  0  0
  8  9  1  0  0  0  0
  9 10  1  0  0  0  0
  9 27  1  0  0  0  0
  9 28  1  0  0  0  0
 10 11  1  0  0  0  0
 10 29  1  0  0  0  0
 10 30  1  0  0  0  0
 11 12  1  0  0  0  0
 11 31  1  0  0  0  0
 11 32  1  0  0  0  0
 12 13  1  0  0  0  0
 12 33  1  0  0  0  0
 12 34  1  0  0  0  0
 13 35  1  0  0  0  0
 13 36  1  0  0  0  0
 14 15  2  0  0  0  0
 14 45  1  0  0  0  0
 15 37  1  0  0  0  0
 16 17  1  0  0  0  0
 17 23  1  0  0  0  0
 17 18  1  0  0  0  0
 17 38  1  0  0  0  0
 18 19  1  0  0  0  0
 18 39  1  0  0  0  0
 18 40  1  0  0  0  0
 19 20  1  0  0  0  0
 19 41  1  0  0  0  0
 19 42  1  0  0  0  0
 20 21  2  0  0  0  0
 20 22  2  0  0  0  0
 20 23  1  0  0  0  0
 23 43  1  0  0  0  0
 23 44  1  0  0  0  0
M  CHG  1  14   1
M  CHG  1  16  -1
M  END
> <s_m_source_file>
AV-unprocessed.smi

> <i_m_source_file_index>
1576

> <i_lp_mmshare_version>
43012

> <i_f3d_flags>
0

> <s_epik_input>
Tz1TMSg9TylbQ0gyXVtDSDJdW0NASF0oW0NIMl0xKVtOSF1DKD1PKVtOSF1jMltjSF1bY0hdYyhuW2NIXTIpTjNbQ0gyXVtDSDJdW0NIMl1bQ0gyXVtDSDJdMw==

> <s_epik_cmdline>
J2VwaWtfcHl0aG9uJywgJy1waCcsICc3LjAnLCAnLXRuJywgJzgnLCAnLW1hJywgJzIwMCcsICctbWV0YWxfYmluZGluZycsICctaW1hZScsICc8aW5maWxlLm1hZT4nLCAnLW9tYWUnLCAnPG91dGZpbGUubWFlPic=

> <r_lp_tautomer_probability>
0.999994

> <r_epik_Ionization_Penalty>
8.26491

> <r_epik_Ionization_Penalty_Charging>
8.26491

> <r_epik_Ionization_Penalty_Neutral>
3.15169e-06

> <r_epik_State_Penalty>
7.8977

> <r_epik_Charging_Adjusted_Penalty>
16.1626

> <i_epik_Tot_Q>
0

> <i_epik_Tot_abs_Q>
2

> <r_epik_Metal_State_Penalty>
3.88896

> <b_epik_Metal_Only>
1

> <s_lp_Force_Field>
OPLS_2005

> <r_lp_Energy>
27.2537

> <b_lp_Chiralities_Consistent>
1

> <s_lp_Variant>
AV-unprocessed.smi:1576-6

> <Gold.Version>
5.8.1

> <Gold.Id.Protein>
6NUR|6NUR_protein|mol2

> <Gold.PLP.Fitness>
42.4318

> <Gold.PLP.PLP>
-34.2649

> <Gold.PLP.part.hbond>
-3.0000

> <Gold.PLP.part.metal>
0.0000

> <Gold.PLP.part.buried>
-6.0677

> <Gold.PLP.part.nonpolar>
-28.0590

> <Gold.PLP.part.repulsive>
0.9160

> <Gold.PLP.ligand.clash>
0.0000

> <Gold.PLP.ligand.torsion>
0.6873

> <Gold.PLP.Chemscore.Hbond>
3.1310

> <Gold.PLP.Chemscore.CHOScore>
0.0000

> <Gold.PLP.Chemscore.Metal>
0.0000

> <Gold.Chemscore.Hbonds>
donor molecule, donor type, donor heavy atom, donor atom, acceptor molecule, acceptor atom, score
      L1  H    14    45       P1  7948  2.00
      P1  H  7989  7998       L1     1  0.90

> <Gold.PLP.Chemscore.Internal.Correction>
0.1484

> <Gold.Rescore>
     Score         DG    S(hbond)    S(metal)    S(lipo)     H(rot)  DE(clash)    DE(int)     intcor
     16.28     -19.16       2.41        0.00      75.24       1.24       0.67       2.21       ----

> <Gold.Chemscore.Fitness>
16.2816

> <Gold.Chemscore.DG>
-19.1556

> <Gold.Chemscore.ZeroCoef>
-5.4800

> <Gold.Chemscore.Hbond>
2.4065

> <Gold.Chemscore.Metal>
0.0000

> <Gold.Chemscore.Lipo>
75.2442

> <Gold.Chemscore.Internal_Hbond>
0.0000

> <Gold.Chemscore.DEClash>
0.6688

> <Gold.Chemscore.DEInternal>
2.2053

> <Gold.Chemscore.Rot>
1.2366

> <Gold.Chemscore.Internal.Correction>
   9.000000E+99

> <Gold.Chemscore.Hbonds>
donor molecule, donor type, donor heavy atom, donor atom, acceptor molecule, acceptor atom, score
      L1  H    14    45       P1  7948  0.98
      P1  H  7989  7998       L1     1  0.88

> <Gold.Chemscore.Hbond.Weighted>
-8.0378

> <Gold.Chemscore.Metal.Weighted>
-0.0000

> <Gold.Chemscore.Lipo.Weighted>
-8.8036

> <Gold.Chemscore.Internal_Hbond.Weighted>
0.0000

> <Gold.Chemscore.DEClash.Weighted>
0.6688

> <Gold.Chemscore.DEInternal.Weighted>
2.2053

> <Gold.Chemscore.Rot.Weighted>
3.1657

> <Gold.Chemscore.Internal.Correction.Weighted>
   9.000000E+99

> <Gold.Protein.RotatedTorsions>
[ 6907 6896 6895 6894 ] final -145.72 input  -60.11 | X-H torsion
[ 7974 7965 7964 7962 ] final  -19.29 input  175.53 | X-H torsion
[ 8008 7997 7996 7995 ] final -149.62 input   59.86 | X-H torsion
[ 10167 10162 10161 10158 ] final  138.73 input  -65.29 | X-H torsion
[ 10718 10713 10712 10709 ] final   57.35 input   66.30 | X-H torsion
[ 10763 10752 10751 10750 ] final  -45.39 input  -60.55 | X-H torsion
[ 11005 11000 10999 10996 ] final -119.32 input  -57.11 | X-H torsion

> <Gold.Protein.ActiveResidues>
 VAL166  LYS551  ARG553  GLY616  TRP617  ASP618  TYR619  PRO620  LYS621  CYS622 
 ASP623  PHE694  ASN695  SER759  ASP760  ASP761  ALA762  ILE779  LEU786  VAL792 
 PHE793  MET794  SER795  GLU796  ALA797  LYS798  CYS799  TRP800  GLU811  SER814 

> <Gold.Protein.RotatedAtoms>
  151.1316  133.5033  159.2598 H   0  0  0  0  0  0  0  0  0  0  0  0  # atno 6907 bound_to 6896
  151.1751  135.0335  159.8778 H   0  0  0  0  0  0  0  0  0  0  0  0  # atno 6908 bound_to 6896
  152.5460  134.1175  159.8438 H   0  0  0  0  0  0  0  0  0  0  0  0  # atno 6909 bound_to 6896
  146.1848  140.4042  142.8480 H   0  0  0  0  0  0  0  0  0  0  0  0  # atno 7974 bound_to 7965
  155.6105  140.0671  157.2707 H   0  0  0  0  0  0  0  0  0  0  0  0  # atno 8008 bound_to 7997
  154.4255  140.1802  156.1315 H   0  0  0  0  0  0  0  0  0  0  0  0  # atno 8009 bound_to 7997
  156.0088  140.3328  155.6923 H   0  0  0  0  0  0  0  0  0  0  0  0  # atno 8010 bound_to 7997
  139.5101  144.6336  151.5754 H   0  0  0  0  0  0  0  0  0  0  0  0  # atno 10167 bound_to 10162
  157.5507  130.8763  149.8959 H   0  0  0  0  0  0  0  0  0  0  0  0  # atno 10718 bound_to 10713
  154.0278  135.6661  153.4778 H   0  0  0  0  0  0  0  0  0  0  0  0  # atno 10763 bound_to 10752
  153.0553  135.5060  154.7962 H   0  0  0  0  0  0  0  0  0  0  0  0  # atno 10764 bound_to 10752
  154.6897  135.3059  154.9461 H   0  0  0  0  0  0  0  0  0  0  0  0  # atno 10765 bound_to 10752
  141.0223  134.0105  157.3264 H   0  0  0  0  0  0  0  0  0  0  0  0  # atno 11005 bound_to 11000
  144.8379  140.6810  143.6249 LP  0  0  0  0  0  0  0  0  0  0  0  0  # atno 17320 bound_to 7965
  145.3969  139.1605  143.4198 LP  0  0  0  0  0  0  0  0  0  0  0  0  # atno 17321 bound_to 7965
  140.6077  143.9493  150.6431 LP  0  0  0  0  0  0  0  0  0  0  0  0  # atno 17342 bound_to 10162
  140.2726  143.3445  152.1224 LP  0  0  0  0  0  0  0  0  0  0  0  0  # atno 17343 bound_to 10162
  156.0574  130.3706  150.1060 LP  0  0  0  0  0  0  0  0  0  0  0  0  # atno 17370 bound_to 10713
  156.9233  130.9690  151.3545 LP  0  0  0  0  0  0  0  0  0  0  0  0  # atno 17371 bound_to 10713
  139.9154  135.0196  156.7860 LP  0  0  0  0  0  0  0  0  0  0  0  0  # atno 17394 bound_to 11000
  140.6551  133.9696  155.7775 LP  0  0  0  0  0  0  0  0  0  0  0  0  # atno 17395 bound_to 11000

$$$$
