AV-unprocessed.smi:1622|AV-procd|sdf|6498|dock1
  -GOLD-   22720 7163D 1   1.00000     0.00000
 Structure written by MMmdl.
 41 42  0  0  0  0  0  0  0  0  2 V2000
  146.1427  131.9426  149.0871 C   0  0  0  0  0  0  0  0  0  0  0  0
  145.4616  132.8493  150.1233 C   0  0  0  0  0  0  0  0  0  0  0  0
  146.4206  133.4380  151.1936 C   0  0  1  0  0  0  0  0  0  0  0  0
  145.6640  134.2757  152.2631 C   0  0  0  0  0  0  0  0  0  0  0  0
  146.3793  135.4888  152.6576 N   0  0  0  0  0  0  0  0  0  0  0  0
  145.8173  136.6002  153.1536 C   0  0  0  0  0  0  0  0  0  0  0  0
  144.6082  136.7217  153.3448 O   0  0  0  0  0  0  0  0  0  0  0  0
  146.7430  137.5375  153.4122 N   0  0  0  0  0  0  0  0  0  0  0  0
  146.5419  138.8404  153.9324 C   0  0  0  0  0  0  0  0  0  0  0  0
  145.9877  138.9543  155.1425 N   0  0  0  0  0  0  0  0  0  0  0  0
  145.8548  140.2814  155.5287 N   0  0  0  0  0  0  0  0  0  0  0  0
  146.3110  141.1314  154.6000 C   0  0  0  0  0  0  0  0  0  0  0  0
  146.2870  142.6109  154.7789 C   0  0  0  0  0  0  0  0  0  0  0  0
  146.9511  140.3673  153.1505 S   0  0  0  0  0  0  0  0  0  0  0  0
  147.2470  132.3733  151.8407 N   0  3  0  0  0  0  0  0  0  0  0  0
  148.1498  132.8123  152.9276 C   0  0  0  0  0  0  0  0  0  0  0  0
  148.4776  131.5435  153.7056 C   0  0  0  0  0  0  0  0  0  0  0  0
  147.1659  130.7688  153.6702 C   0  0  0  0  0  0  0  0  0  0  0  0
  146.4791  131.2181  152.3732 C   0  0  0  0  0  0  0  0  0  0  0  0
  145.3991  131.4756  148.4411 H   0  0  0  0  0  0  0  0  0  0  0  0
  146.7060  131.1442  149.5709 H   0  0  0  0  0  0  0  0  0  0  0  0
  146.8242  132.4935  148.4409 H   0  0  0  0  0  0  0  0  0  0  0  0
  144.9225  133.6487  149.6146 H   0  0  0  0  0  0  0  0  0  0  0  0
  144.6992  132.2354  150.6011 H   0  0  0  0  0  0  0  0  0  0  0  0
  147.1081  134.1069  150.6733 H   0  0  0  0  0  0  0  0  0  0  0  0
  144.7018  134.5961  151.8643 H   0  0  0  0  0  0  0  0  0  0  0  0
  145.4065  133.6743  153.1346 H   0  0  0  0  0  0  0  0  0  0  0  0
  147.3800  135.4889  152.5232 H   0  0  0  0  0  0  0  0  0  0  0  0
  147.7021  137.2975  153.2090 H   0  0  0  0  0  0  0  0  0  0  0  0
  145.5397  142.8953  155.5203 H   0  0  0  0  0  0  0  0  0  0  0  0
  146.0445  143.0991  153.8350 H   0  0  0  0  0  0  0  0  0  0  0  0
  147.2640  142.9600  155.1134 H   0  0  0  0  0  0  0  0  0  0  0  0
  149.0507  133.2920  152.5441 H   0  0  0  0  0  0  0  0  0  0  0  0
  147.6306  133.5203  153.5759 H   0  0  0  0  0  0  0  0  0  0  0  0
  149.2548  130.9810  153.1863 H   0  0  0  0  0  0  0  0  0  0  0  0
  148.8267  131.7446  154.7189 H   0  0  0  0  0  0  0  0  0  0  0  0
  147.3203  129.6898  153.7108 H   0  0  0  0  0  0  0  0  0  0  0  0
  146.5508  131.0476  154.5271 H   0  0  0  0  0  0  0  0  0  0  0  0
  145.4433  131.4867  152.5858 H   0  0  0  0  0  0  0  0  0  0  0  0
  146.4695  130.4187  151.6315 H   0  0  0  0  0  0  0  0  0  0  0  0
  147.8510  131.9977  151.1235 H   0  0  0  0  0  0  0  0  0  0  0  0
  1  2  1  0  0  0  0
  1 20  1  0  0  0  0
  1 21  1  0  0  0  0
  1 22  1  0  0  0  0
  2  3  1  0  0  0  0
  2 23  1  0  0  0  0
  2 24  1  0  0  0  0
  3  4  1  0  0  0  0
  3 15  1  0  0  0  0
  3 25  1  0  0  0  0
  4  5  1  0  0  0  0
  4 26  1  0  0  0  0
  4 27  1  0  0  0  0
  5  6  1  0  0  0  0
  5 28  1  0  0  0  0
  6  7  2  0  0  0  0
  6  8  1  0  0  0  0
  8  9  1  0  0  0  0
  8 29  1  0  0  0  0
  9 14  1  0  0  0  0
  9 10  2  0  0  0  0
 10 11  1  0  0  0  0
 11 12  2  0  0  0  0
 12 13  1  0  0  0  0
 12 14  1  0  0  0  0
 13 30  1  0  0  0  0
 13 31  1  0  0  0  0
 13 32  1  0  0  0  0
 15 19  1  0  0  0  0
 15 16  1  0  0  0  0
 15 41  1  0  0  0  0
 16 17  1  0  0  0  0
 16 33  1  0  0  0  0
 16 34  1  0  0  0  0
 17 18  1  0  0  0  0
 17 35  1  0  0  0  0
 17 36  1  0  0  0  0
 18 19  1  0  0  0  0
 18 37  1  0  0  0  0
 18 38  1  0  0  0  0
 19 39  1  0  0  0  0
 19 40  1  0  0  0  0
M  CHG  1  15   1
M  END
> <s_m_source_file>
AV-unprocessed.smi

> <i_m_source_file_index>
1622

> <i_lp_mmshare_version>
43012

> <i_f3d_flags>
0

> <s_epik_input>
W0NIMl0xW0NIMl1bQ0gyXVtDSDJdTjFbQ0BIXShbQ0gyXVtDSDNdKVtDSDJdW05IXUMoPU8pW05IXWMybm5jKHMyKVtDSDNd

> <s_epik_cmdline>
J2VwaWtfcHl0aG9uJywgJy1waCcsICc3LjAnLCAnLXRuJywgJzgnLCAnLW1hJywgJzIwMCcsICctbWV0YWxfYmluZGluZycsICctaW1hZScsICc8aW5maWxlLm1hZT4nLCAnLW9tYWUnLCAnPG91dGZpbGUubWFlPic=

> <r_lp_tautomer_probability>
1

> <r_epik_Ionization_Penalty>
0.00164835

> <r_epik_Ionization_Penalty_Charging>
0.00115997

> <r_epik_Ionization_Penalty_Neutral>
0.00048838

> <r_epik_State_Penalty>
-0

> <r_epik_Charging_Adjusted_Penalty>
0.00115997

> <i_epik_Tot_Q>
1

> <i_epik_Tot_abs_Q>
1

> <r_epik_Metal_State_Penalty>
0.216651

> <b_epik_Metal_Only>
0

> <s_lp_Force_Field>
OPLS_2005

> <r_lp_Energy>
37.4677

> <b_lp_Chiralities_Consistent>
1

> <s_lp_Variant>
AV-unprocessed.smi:1622-2

> <Gold.Version>
5.8.1

> <Gold.Id.Protein>
6NUR|6NUR_protein|mol2

> <Gold.PLP.Fitness>
38.5784

> <Gold.PLP.PLP>
-32.1259

> <Gold.PLP.part.hbond>
-3.0000

> <Gold.PLP.part.metal>
0.0000

> <Gold.PLP.part.buried>
-3.9930

> <Gold.PLP.part.nonpolar>
-26.9410

> <Gold.PLP.part.repulsive>
0.3557

> <Gold.PLP.ligand.clash>
0.0000

> <Gold.PLP.ligand.torsion>
1.3643

> <Gold.PLP.Chemscore.Hbond>
2.9760

> <Gold.PLP.Chemscore.CHOScore>
0.0000

> <Gold.PLP.Chemscore.Metal>
0.0000

> <Gold.Chemscore.Hbonds>
donor molecule, donor type, donor heavy atom, donor atom, acceptor molecule, acceptor atom, score
      L1  H     5    28       P1  7948  1.00
      L1  H     8    29       P1  7948  0.67
      L1  H    15    41       P1 10747  1.00

> <Gold.PLP.Chemscore.Internal.Correction>
0.2532

> <Gold.Rescore>
     Score         DG    S(hbond)    S(metal)    S(lipo)     H(rot)  DE(clash)    DE(int)     intcor
     18.41     -20.06       2.91        0.00      80.21       1.77       0.21       1.44       ----

> <Gold.Chemscore.Fitness>
18.4120

> <Gold.Chemscore.DG>
-20.0580

> <Gold.Chemscore.ZeroCoef>
-5.4800

> <Gold.Chemscore.Hbond>
2.9144

> <Gold.Chemscore.Metal>
0.0000

> <Gold.Chemscore.Lipo>
80.2129

> <Gold.Chemscore.Internal_Hbond>
0.0000

> <Gold.Chemscore.DEClash>
0.2103

> <Gold.Chemscore.DEInternal>
1.4356

> <Gold.Chemscore.Rot>
1.7738

> <Gold.Chemscore.Internal.Correction>
   9.000000E+99

> <Gold.Chemscore.Hbonds>
donor molecule, donor type, donor heavy atom, donor atom, acceptor molecule, acceptor atom, score
      L1  H     5    28       P1  7948  0.97
      L1  H     8    29       P1  7948  0.66
      L1  H    15    41       P1 10747  1.00

> <Gold.Chemscore.Hbond.Weighted>
-9.7341

> <Gold.Chemscore.Metal.Weighted>
-0.0000

> <Gold.Chemscore.Lipo.Weighted>
-9.3849

> <Gold.Chemscore.Internal_Hbond.Weighted>
0.0000

> <Gold.Chemscore.DEClash.Weighted>
0.2103

> <Gold.Chemscore.DEInternal.Weighted>
1.4356

> <Gold.Chemscore.Rot.Weighted>
4.5411

> <Gold.Chemscore.Internal.Correction.Weighted>
   9.000000E+99

> <Gold.Protein.RotatedTorsions>
[ 6907 6896 6895 6894 ] final -161.49 input  -60.11 | X-H torsion
[ 7974 7965 7964 7962 ] final   -5.89 input  175.53 | X-H torsion
[ 8008 7997 7996 7995 ] final  -85.82 input   59.86 | X-H torsion
[ 10167 10162 10161 10158 ] final -155.58 input  -65.29 | X-H torsion
[ 10718 10713 10712 10709 ] final   15.77 input   66.30 | X-H torsion
[ 10763 10752 10751 10750 ] final  103.29 input  -60.55 | X-H torsion
[ 11005 11000 10999 10996 ] final   35.60 input  -57.11 | X-H torsion

> <Gold.Protein.ActiveResidues>
 VAL166  LYS551  ARG553  GLY616  TRP617  ASP618  TYR619  PRO620  LYS621  CYS622 
 ASP623  PHE694  ASN695  SER759  ASP760  ASP761  ALA762  ILE779  LEU786  VAL792 
 PHE793  MET794  SER795  GLU796  ALA797  LYS798  CYS799  TRP800  GLU811  SER814 

> <Gold.Protein.RotatedAtoms>
  151.3655  133.3874  159.2693 H   0  0  0  0  0  0  0  0  0  0  0  0  # atno 6907 bound_to 6896
  150.9692  134.9069  159.7788 H   0  0  0  0  0  0  0  0  0  0  0  0  # atno 6908 bound_to 6896
  152.5178  134.3616  159.9339 H   0  0  0  0  0  0  0  0  0  0  0  0  # atno 6909 bound_to 6896
  146.2343  140.2088  142.8335 H   0  0  0  0  0  0  0  0  0  0  0  0  # atno 7974 bound_to 7965
  154.6450  140.0586  156.9889 H   0  0  0  0  0  0  0  0  0  0  0  0  # atno 8008 bound_to 7997
  155.1459  140.3269  155.4423 H   0  0  0  0  0  0  0  0  0  0  0  0  # atno 8009 bound_to 7997
  156.2549  140.1956  156.6573 H   0  0  0  0  0  0  0  0  0  0  0  0  # atno 8010 bound_to 7997
  139.6919  143.9406  152.2389 H   0  0  0  0  0  0  0  0  0  0  0  0  # atno 10167 bound_to 10162
  157.0582  130.6298  149.5781 H   0  0  0  0  0  0  0  0  0  0  0  0  # atno 10718 bound_to 10713
  153.3507  135.3982  155.1644 H   0  0  0  0  0  0  0  0  0  0  0  0  # atno 10763 bound_to 10752
  154.8662  135.3656  154.5226 H   0  0  0  0  0  0  0  0  0  0  0  0  # atno 10764 bound_to 10752
  153.5677  135.7079  153.5578 H   0  0  0  0  0  0  0  0  0  0  0  0  # atno 10765 bound_to 10752
  140.2410  134.3414  155.7925 H   0  0  0  0  0  0  0  0  0  0  0  0  # atno 11005 bound_to 11000
  144.9723  140.8380  143.5448 LP  0  0  0  0  0  0  0  0  0  0  0  0  # atno 17320 bound_to 7965
  145.2071  139.2223  143.5162 LP  0  0  0  0  0  0  0  0  0  0  0  0  # atno 17321 bound_to 7965
  139.9224  144.6791  150.8447 LP  0  0  0  0  0  0  0  0  0  0  0  0  # atno 17342 bound_to 10162
  140.7685  143.3365  151.2297 LP  0  0  0  0  0  0  0  0  0  0  0  0  # atno 17343 bound_to 10162
  155.9986  130.5061  150.7578 LP  0  0  0  0  0  0  0  0  0  0  0  0  # atno 17370 bound_to 10713
  157.4975  131.0916  151.0353 LP  0  0  0  0  0  0  0  0  0  0  0  0  # atno 17371 bound_to 10713
  141.2210  133.7299  156.8886 LP  0  0  0  0  0  0  0  0  0  0  0  0  # atno 17394 bound_to 11000
  140.1653  134.9137  157.2766 LP  0  0  0  0  0  0  0  0  0  0  0  0  # atno 17395 bound_to 11000

$$$$
