AV-unprocessed.smi:309|AV-procd|sdf|2291|dock2
  -GOLD-   2262022193D 1   1.00000     0.00000
 Structure written by MMmdl.
 36 38  0  0  0  0  0  0  0  0  1 V2000
  152.3796  137.5549  154.1491 O   0  0  0  0  0  0  0  0  0  0  0  0
  152.2194  138.7773  154.8376 C   0  0  0  0  0  0  0  0  0  0  0  0
  150.8862  139.4214  154.5815 C   0  0  0  0  0  0  0  0  0  0  0  0
  150.0154  138.8753  153.7308 N   0  0  0  0  0  0  0  0  0  0  0  0
  148.9398  139.7366  153.7940 C   0  0  0  0  0  0  0  0  0  0  0  0
  147.6966  139.7016  153.1226 C   0  0  0  0  0  0  0  0  0  0  0  0
  146.7316  140.7029  153.3545 C   0  0  0  0  0  0  0  0  0  0  0  0
  146.9947  141.7499  154.2610 C   0  0  0  0  0  0  0  0  0  0  0  0
  148.2267  141.8020  154.9410 C   0  0  0  0  0  0  0  0  0  0  0  0
  149.1899  140.8023  154.7030 C   0  0  0  0  0  0  0  0  0  0  0  0
  150.4735  140.5661  155.1916 N   0  0  0  0  0  0  0  0  0  0  0  0
  151.1775  141.3960  156.1671 C   0  0  0  0  0  0  0  0  0  0  0  0
  151.8816  140.5910  157.2856 C   0  0  2  0  0  0  0  0  0  0  0  0
  151.0839  139.4822  157.6548 O   0  0  0  0  0  0  0  0  0  0  0  0
  152.2906  141.4552  158.4784 C   0  0  0  0  0  0  0  0  0  0  0  0
  151.8587  142.8003  158.5552 C   0  0  0  0  0  0  0  0  0  0  0  0
  152.2363  143.6159  159.6382 C   0  0  0  0  0  0  0  0  0  0  0  0
  151.7077  145.2565  159.7068 Cl  0  0  0  0  0  0  0  0  0  0  0  0
  153.0499  143.0947  160.6601 C   0  0  0  0  0  0  0  0  0  0  0  0
  153.4896  141.7600  160.5927 C   0  0  0  0  0  0  0  0  0  0  0  0
  153.1177  140.9400  159.5084 C   0  0  0  0  0  0  0  0  0  0  0  0
  153.7097  139.3161  159.4650 Cl  0  0  0  0  0  0  0  0  0  0  0  0
  151.6512  137.4458  153.5575 H   0  0  0  0  0  0  0  0  0  0  0  0
  152.3160  138.5915  155.9073 H   0  0  0  0  0  0  0  0  0  0  0  0
  153.0439  139.4265  154.5563 H   0  0  0  0  0  0  0  0  0  0  0  0
  147.4851  138.9015  152.4286 H   0  0  0  0  0  0  0  0  0  0  0  0
  145.7849  140.6668  152.8354 H   0  0  0  0  0  0  0  0  0  0  0  0
  146.2505  142.5133  154.4343 H   0  0  0  0  0  0  0  0  0  0  0  0
  148.4298  142.6040  155.6349 H   0  0  0  0  0  0  0  0  0  0  0  0
  151.9207  141.9847  155.6279 H   0  0  0  0  0  0  0  0  0  0  0  0
  150.4933  142.1305  156.5886 H   0  0  0  0  0  0  0  0  0  0  0  0
  152.7832  140.1481  156.8634 H   0  0  0  0  0  0  0  0  0  0  0  0
  151.1230  139.3845  158.5938 H   0  0  0  0  0  0  0  0  0  0  0  0
  151.2439  143.2222  157.7736 H   0  0  0  0  0  0  0  0  0  0  0  0
  153.3426  143.7182  161.4920 H   0  0  0  0  0  0  0  0  0  0  0  0
  154.1207  141.3656  161.3754 H   0  0  0  0  0  0  0  0  0  0  0  0
  1  2  1  0  0  0  0
  1 23  1  0  0  0  0
  2  3  1  0  0  0  0
  2 24  1  0  0  0  0
  2 25  1  0  0  0  0
  3 11  1  0  0  0  0
  3  4  2  0  0  0  0
  4  5  1  0  0  0  0
  5 10  2  0  0  0  0
  5  6  1  0  0  0  0
  6  7  2  0  0  0  0
  6 26  1  0  0  0  0
  7  8  1  0  0  0  0
  7 27  1  0  0  0  0
  8  9  2  0  0  0  0
  8 28  1  0  0  0  0
  9 10  1  0  0  0  0
  9 29  1  0  0  0  0
 10 11  1  0  0  0  0
 11 12  1  0  0  0  0
 12 13  1  0  0  0  0
 12 30  1  0  0  0  0
 12 31  1  0  0  0  0
 13 14  1  0  0  0  0
 13 15  1  0  0  0  0
 13 32  1  0  0  0  0
 14 33  1  0  0  0  0
 15 21  1  0  0  0  0
 15 16  2  0  0  0  0
 16 17  1  0  0  0  0
 16 34  1  0  0  0  0
 17 18  1  0  0  0  0
 17 19  2  0  0  0  0
 19 20  1  0  0  0  0
 19 35  1  0  0  0  0
 20 21  2  0  0  0  0
 20 36  1  0  0  0  0
 21 22  1  0  0  0  0
M  END
> <s_m_source_file>
AV-unprocessed.smi

> <i_m_source_file_index>
309

> <i_lp_mmshare_version>
43012

> <i_f3d_flags>
0

> <s_epik_input>
W2NIXTFbY0hdW2NIXVtjSF1jKGMxMiluKGMobjIpW0NIMl1bT0hdKVtDSDJdW0NASF0oW09IXSljM1tjSF1jKENsKVtjSF1bY0hdYzNDbA==

> <s_epik_cmdline>
J2VwaWtfcHl0aG9uJywgJy1waCcsICc3LjAnLCAnLXRuJywgJzgnLCAnLW1hJywgJzIwMCcsICctbWV0YWxfYmluZGluZycsICctaW1hZScsICc8aW5maWxlLm1hZT4nLCAnLW9tYWUnLCAnPG91dGZpbGUubWFlPic=

> <r_epik_Ionization_Penalty>
0.0634742

> <r_epik_Ionization_Penalty_Charging>
0

> <r_epik_Ionization_Penalty_Neutral>
0.0634742

> <r_epik_State_Penalty>
0.0551572

> <r_epik_Charging_Adjusted_Penalty>
0.0551572

> <i_epik_Tot_Q>
0

> <i_epik_Tot_abs_Q>
0

> <r_epik_Metal_State_Penalty>
5.78034e-05

> <b_epik_Metal_Only>
0

> <s_lp_Force_Field>
OPLS_2005

> <r_lp_Energy>
12.4446

> <b_lp_Chiralities_Consistent>
1

> <s_lp_Variant>
AV-unprocessed.smi:309-1

> <Gold.Version>
5.8.1

> <Gold.Id.Protein>
6NUR|6NUR_protein|mol2

> <Gold.PLP.Fitness>
52.1291

> <Gold.PLP.PLP>
-50.2580

> <Gold.PLP.part.hbond>
-1.0000

> <Gold.PLP.part.metal>
0.0000

> <Gold.PLP.part.buried>
1.2375

> <Gold.PLP.part.nonpolar>
-50.6541

> <Gold.PLP.part.repulsive>
0.5534

> <Gold.PLP.ligand.clash>
0.0000

> <Gold.PLP.ligand.torsion>
0.4579

> <Gold.PLP.Chemscore.Hbond>
0.9120

> <Gold.PLP.Chemscore.CHOScore>
0.0000

> <Gold.PLP.Chemscore.Metal>
0.0000

> <Gold.Chemscore.Hbonds>
donor molecule, donor type, donor heavy atom, donor atom, acceptor molecule, acceptor atom, score
      P1  H 10752 10765       L1     1  0.69

> <Gold.PLP.Chemscore.Internal.Correction>
0.0509

> <Gold.Rescore>
     Score         DG    S(hbond)    S(metal)    S(lipo)     H(rot)  DE(clash)    DE(int)     intcor
     16.07     -16.82       0.62        0.00     136.69       2.62       0.41       0.34       ----

> <Gold.Chemscore.Fitness>
16.0697

> <Gold.Chemscore.DG>
-16.8204

> <Gold.Chemscore.ZeroCoef>
-5.4800

> <Gold.Chemscore.Hbond>
0.6176

> <Gold.Chemscore.Metal>
0.0000

> <Gold.Chemscore.Lipo>
136.6924

> <Gold.Chemscore.Internal_Hbond>
0.0000

> <Gold.Chemscore.DEClash>
0.4074

> <Gold.Chemscore.DEInternal>
0.3434

> <Gold.Chemscore.Rot>
2.6232

> <Gold.Chemscore.Internal.Correction>
   9.000000E+99

> <Gold.Chemscore.Hbonds>
donor molecule, donor type, donor heavy atom, donor atom, acceptor molecule, acceptor atom, score
      P1  H 10752 10765       L1     1  0.17

> <Gold.Chemscore.Hbond.Weighted>
-2.0629

> <Gold.Chemscore.Metal.Weighted>
-0.0000

> <Gold.Chemscore.Lipo.Weighted>
-15.9930

> <Gold.Chemscore.Internal_Hbond.Weighted>
0.0000

> <Gold.Chemscore.DEClash.Weighted>
0.4074

> <Gold.Chemscore.DEInternal.Weighted>
0.3434

> <Gold.Chemscore.Rot.Weighted>
6.7154

> <Gold.Chemscore.Internal.Correction.Weighted>
   9.000000E+99

> <Gold.Protein.RotatedTorsions>
[ 6907 6896 6895 6894 ] final   22.92 input  -60.11 | X-H torsion
[ 7974 7965 7964 7962 ] final  -98.17 input  175.53 | X-H torsion
[ 8008 7997 7996 7995 ] final  -12.16 input   59.86 | X-H torsion
[ 10167 10162 10161 10158 ] final  -37.98 input  -65.29 | X-H torsion
[ 10718 10713 10712 10709 ] final  142.31 input   66.30 | X-H torsion
[ 10763 10752 10751 10750 ] final  163.23 input  -60.55 | X-H torsion
[ 11005 11000 10999 10996 ] final  142.64 input  -57.11 | X-H torsion

> <Gold.Protein.ActiveResidues>
 VAL166  LYS551  ARG553  GLY616  TRP617  ASP618  TYR619  PRO620  LYS621  CYS622 
 ASP623  PHE694  ASN695  SER759  ASP760  ASP761  ALA762  ILE779  LEU786  VAL792 
 PHE793  MET794  SER795  GLU796  ALA797  LYS798  CYS799  TRP800  GLU811  SER814 

> <Gold.Protein.RotatedAtoms>
  151.9344  135.0242  160.0531 H   0  0  0  0  0  0  0  0  0  0  0  0  # atno 6907 bound_to 6896
  152.2090  133.4892  159.5108 H   0  0  0  0  0  0  0  0  0  0  0  0  # atno 6908 bound_to 6896
  150.6972  134.1408  159.4147 H   0  0  0  0  0  0  0  0  0  0  0  0  # atno 6909 bound_to 6896
  145.3242  140.9428  143.2698 H   0  0  0  0  0  0  0  0  0  0  0  0  # atno 7974 bound_to 7965
  154.5401  140.2283  155.8656 H   0  0  0  0  0  0  0  0  0  0  0  0  # atno 8008 bound_to 7997
  156.1850  140.3091  155.9183 H   0  0  0  0  0  0  0  0  0  0  0  0  # atno 8009 bound_to 7997
  155.3275  140.0443  157.3032 H   0  0  0  0  0  0  0  0  0  0  0  0  # atno 8010 bound_to 7997
  140.7104  143.3306  151.2577 H   0  0  0  0  0  0  0  0  0  0  0  0  # atno 10167 bound_to 10162
  157.3820  131.0993  151.0729 H   0  0  0  0  0  0  0  0  0  0  0  0  # atno 10718 bound_to 10713
  154.2905  135.2761  155.2657 H   0  0  0  0  0  0  0  0  0  0  0  0  # atno 10763 bound_to 10752
  154.5138  135.5775  153.6629 H   0  0  0  0  0  0  0  0  0  0  0  0  # atno 10764 bound_to 10752
  152.9915  135.6187  154.3069 H   0  0  0  0  0  0  0  0  0  0  0  0  # atno 10765 bound_to 10752
  140.0492  134.9264  157.0986 H   0  0  0  0  0  0  0  0  0  0  0  0  # atno 11005 bound_to 11000
  144.8915  139.4768  143.6675 LP  0  0  0  0  0  0  0  0  0  0  0  0  # atno 17320 bound_to 7965
  146.3071  139.7616  142.9048 LP  0  0  0  0  0  0  0  0  0  0  0  0  # atno 17321 bound_to 7965
  139.6788  143.9891  152.2796 LP  0  0  0  0  0  0  0  0  0  0  0  0  # atno 17342 bound_to 10162
  139.9514  144.6618  150.8168 LP  0  0  0  0  0  0  0  0  0  0  0  0  # atno 17343 bound_to 10162
  157.1794  130.6303  149.5667 LP  0  0  0  0  0  0  0  0  0  0  0  0  # atno 17370 bound_to 10713
  155.9778  130.4758  150.6616 LP  0  0  0  0  0  0  0  0  0  0  0  0  # atno 17371 bound_to 10713
  140.3944  134.2150  155.7165 LP  0  0  0  0  0  0  0  0  0  0  0  0  # atno 17394 bound_to 11000
  141.1922  133.8178  157.0848 LP  0  0  0  0  0  0  0  0  0  0  0  0  # atno 17395 bound_to 11000

$$$$
