AV-unprocessed.smi:2753|AV-procd|sdf|10613|dock6
  -GOLD-   2272015 63D 1   1.00000     0.00000
 Structure written by MMmdl.
 27 28  0  0  0  0  0  0  0  0  3 V2000
  155.2595  139.9977  163.5023 F   0  0  0  0  0  0  0  0  0  0  0  0
  155.2908  139.1703  162.4576 C   0  0  0  0  0  0  0  0  0  0  0  0
  156.5595  138.8593  162.1928 F   0  0  0  0  0  0  0  0  0  0  0  0
  154.6291  138.0550  162.7654 F   0  0  0  0  0  0  0  0  0  0  0  0
  154.6552  139.8339  161.2519 C   0  0  0  0  0  0  0  0  0  0  0  0
  154.6200  139.1367  160.0081 C   0  0  0  0  0  0  0  0  0  0  0  0
  154.0076  139.9680  159.1578 N   0  5  0  0  0  0  0  0  0  0  0  0
  153.6747  141.1101  159.7954 C   0  0  0  0  0  0  0  0  0  0  0  0
  152.9619  142.2886  159.1650 C   0  0  2  0  0  0  0  0  0  0  0  0
  152.8737  143.4922  160.1207 C   0  0  0  0  0  0  0  0  0  0  0  0
  152.1258  144.6545  159.4496 C   0  0  0  0  0  0  0  0  0  0  0  0
  150.7548  144.1957  158.9243 C   0  0  0  0  0  0  0  0  0  0  0  0
  150.9044  143.0520  157.9980 N   0  3  0  0  0  0  0  0  0  0  0  0
  151.5785  141.8910  158.6184 C   0  0  0  0  0  0  0  0  0  0  0  0
  154.0669  141.0335  161.0811 N   0  0  0  0  0  0  0  0  0  0  0  0
  154.9699  138.1617  159.6929 H   0  0  0  0  0  0  0  0  0  0  0  0
  153.5724  142.5946  158.3136 H   0  0  0  0  0  0  0  0  0  0  0  0
  152.3511  143.2025  161.0335 H   0  0  0  0  0  0  0  0  0  0  0  0
  153.8726  143.8114  160.4204 H   0  0  0  0  0  0  0  0  0  0  0  0
  152.0003  145.4744  160.1572 H   0  0  0  0  0  0  0  0  0  0  0  0
  152.7224  145.0461  158.6246 H   0  0  0  0  0  0  0  0  0  0  0  0
  150.1085  143.9045  159.7534 H   0  0  0  0  0  0  0  0  0  0  0  0
  150.2567  145.0133  158.4026 H   0  0  0  0  0  0  0  0  0  0  0  0
  149.9909  142.7653  157.6769 H   0  0  0  0  0  0  0  0  0  0  0  0
  151.6766  141.0992  157.8752 H   0  0  0  0  0  0  0  0  0  0  0  0
  150.9491  141.5008  159.4196 H   0  0  0  0  0  0  0  0  0  0  0  0
  151.4519  143.3510  157.2037 H   0  0  0  0  0  0  0  0  0  0  0  0
  1  2  1  0  0  0  0
  2  3  1  0  0  0  0
  2  4  1  0  0  0  0
  2  5  1  0  0  0  0
  5 15  1  0  0  0  0
  5  6  2  0  0  0  0
  6  7  1  0  0  0  0
  6 16  1  0  0  0  0
  7  8  1  0  0  0  0
  8  9  1  0  0  0  0
  8 15  2  0  0  0  0
  9 14  1  0  0  0  0
  9 10  1  0  0  0  0
  9 17  1  0  0  0  0
 10 11  1  0  0  0  0
 10 18  1  0  0  0  0
 10 19  1  0  0  0  0
 11 12  1  0  0  0  0
 11 20  1  0  0  0  0
 11 21  1  0  0  0  0
 12 13  1  0  0  0  0
 12 22  1  0  0  0  0
 12 23  1  0  0  0  0
 13 14  1  0  0  0  0
 13 24  1  0  0  0  0
 13 27  1  0  0  0  0
 14 25  1  0  0  0  0
 14 26  1  0  0  0  0
M  CHG  1   7  -1
M  CHG  1  13   1
M  END
> <s_m_source_file>
AV-unprocessed.smi

> <i_m_source_file_index>
2753

> <i_lp_mmshare_version>
43012

> <i_f3d_flags>
0

> <s_epik_input>
RkMoRikoRiljMVtjSF1bbkhdYyhuMSlbQ0BASF0yW0NIMl1bQ0gyXVtDSDJdW05IXVtDSDJdMg==

> <s_epik_cmdline>
J2VwaWtfcHl0aG9uJywgJy1waCcsICc3LjAnLCAnLXRuJywgJzgnLCAnLW1hJywgJzIwMCcsICctbWV0YWxfYmluZGluZycsICctaW1hZScsICc8aW5maWxlLm1hZT4nLCAnLW9tYWUnLCAnPG91dGZpbGUubWFlPic=

> <r_lp_tautomer_probability>
0.5

> <r_epik_Ionization_Penalty>
6.42345

> <r_epik_Ionization_Penalty_Charging>
5.19935

> <r_epik_Ionization_Penalty_Neutral>
1.22411

> <r_epik_State_Penalty>
5.30226

> <r_epik_Charging_Adjusted_Penalty>
10.5016

> <i_epik_Tot_Q>
0

> <i_epik_Tot_abs_Q>
2

> <r_epik_Metal_State_Penalty>
1.35744

> <b_epik_Metal_Only>
1

> <s_lp_Force_Field>
OPLS_2005

> <r_lp_Energy>
18.3827

> <b_lp_Chiralities_Consistent>
1

> <s_lp_Variant>
AV-unprocessed.smi:2753-5

> <Gold.Version>
5.8.1

> <Gold.Id.Protein>
6NUR|6NUR_protein|mol2

> <Gold.PLP.Fitness>
35.4916

> <Gold.PLP.PLP>
-29.6110

> <Gold.PLP.part.hbond>
-1.0392

> <Gold.PLP.part.metal>
0.0000

> <Gold.PLP.part.buried>
-3.9866

> <Gold.PLP.part.nonpolar>
-24.5929

> <Gold.PLP.part.repulsive>
0.0303

> <Gold.PLP.ligand.clash>
0.0000

> <Gold.PLP.ligand.torsion>
0.0564

> <Gold.PLP.Chemscore.Hbond>
1.9840

> <Gold.PLP.Chemscore.CHOScore>
0.0000

> <Gold.PLP.Chemscore.Metal>
0.0000

> <Gold.Chemscore.Hbonds>
donor molecule, donor type, donor heavy atom, donor atom, acceptor molecule, acceptor atom, score
      P1  H  7997  8009       L1     7  1.58

> <Gold.PLP.Chemscore.Internal.Correction>
0.0414

> <Gold.Rescore>
     Score         DG    S(hbond)    S(metal)    S(lipo)     H(rot)  DE(clash)    DE(int)     intcor
     14.35     -14.43       0.92        0.00      72.09       1.00       0.01       0.07       ----

> <Gold.Chemscore.Fitness>
14.3540

> <Gold.Chemscore.DG>
-14.4304

> <Gold.Chemscore.ZeroCoef>
-5.4800

> <Gold.Chemscore.Hbond>
0.9208

> <Gold.Chemscore.Metal>
0.0000

> <Gold.Chemscore.Lipo>
72.0933

> <Gold.Chemscore.Internal_Hbond>
0.0000

> <Gold.Chemscore.DEClash>
0.0103

> <Gold.Chemscore.DEInternal>
0.0661

> <Gold.Chemscore.Rot>
1.0000

> <Gold.Chemscore.Internal.Correction>
   9.000000E+99

> <Gold.Chemscore.Hbonds>
donor molecule, donor type, donor heavy atom, donor atom, acceptor molecule, acceptor atom, score
      P1  H  7997  8009       L1     7  0.54

> <Gold.Chemscore.Hbond.Weighted>
-3.0755

> <Gold.Chemscore.Metal.Weighted>
-0.0000

> <Gold.Chemscore.Lipo.Weighted>
-8.4349

> <Gold.Chemscore.Internal_Hbond.Weighted>
0.0000

> <Gold.Chemscore.DEClash.Weighted>
0.0103

> <Gold.Chemscore.DEInternal.Weighted>
0.0661

> <Gold.Chemscore.Rot.Weighted>
2.5600

> <Gold.Chemscore.Internal.Correction.Weighted>
   9.000000E+99

> <Gold.Protein.RotatedTorsions>
[ 6907 6896 6895 6894 ] final   50.65 input  -60.11 | X-H torsion
[ 7974 7965 7964 7962 ] final -129.70 input  175.53 | X-H torsion
[ 8008 7997 7996 7995 ] final  121.74 input   59.86 | X-H torsion
[ 10167 10162 10161 10158 ] final  118.48 input  -65.29 | X-H torsion
[ 10718 10713 10712 10709 ] final -122.80 input   66.30 | X-H torsion
[ 10763 10752 10751 10750 ] final  101.32 input  -60.55 | X-H torsion
[ 11005 11000 10999 10996 ] final   27.92 input  -57.11 | X-H torsion

> <Gold.Protein.ActiveResidues>
 VAL166  LYS551  ARG553  GLY616  TRP617  ASP618  TYR619  PRO620  LYS621  CYS622 
 ASP623  PHE694  ASN695  SER759  ASP760  ASP761  ALA762  ILE779  LEU786  VAL792 
 PHE793  MET794  SER795  GLU796  ALA797  LYS798  CYS799  TRP800  GLU811  SER814 

> <Gold.Protein.RotatedAtoms>
  152.3041  134.7576  160.0351 H   0  0  0  0  0  0  0  0  0  0  0  0  # atno 6907 bound_to 6896
  151.8079  133.3373  159.3554 H   0  0  0  0  0  0  0  0  0  0  0  0  # atno 6908 bound_to 6896
  150.7288  134.5621  159.5892 H   0  0  0  0  0  0  0  0  0  0  0  0  # atno 6909 bound_to 6896
  144.9546  140.7382  143.4766 H   0  0  0  0  0  0  0  0  0  0  0  0  # atno 7974 bound_to 7965
  156.2699  140.2801  156.1356 H   0  0  0  0  0  0  0  0  0  0  0  0  # atno 8008 bound_to 7997
  155.1008  140.0389  157.2714 H   0  0  0  0  0  0  0  0  0  0  0  0  # atno 8009 bound_to 7997
  154.6817  140.2610  155.6908 H   0  0  0  0  0  0  0  0  0  0  0  0  # atno 8010 bound_to 7997
  139.6109  144.7081  151.2847 H   0  0  0  0  0  0  0  0  0  0  0  0  # atno 10167 bound_to 10162
  156.1449  130.6492  150.9827 H   0  0  0  0  0  0  0  0  0  0  0  0  # atno 10718 bound_to 10713
  153.3251  135.4048  155.1449 H   0  0  0  0  0  0  0  0  0  0  0  0  # atno 10763 bound_to 10752
  154.8610  135.3597  154.5544 H   0  0  0  0  0  0  0  0  0  0  0  0  # atno 10764 bound_to 10752
  153.5979  135.7072  153.5455 H   0  0  0  0  0  0  0  0  0  0  0  0  # atno 10765 bound_to 10752
  140.3211  134.2542  155.7717 H   0  0  0  0  0  0  0  0  0  0  0  0  # atno 11005 bound_to 11000
  145.2792  139.1925  143.4800 LP  0  0  0  0  0  0  0  0  0  0  0  0  # atno 17320 bound_to 7965
  146.3333  140.2751  142.8607 LP  0  0  0  0  0  0  0  0  0  0  0  0  # atno 17321 bound_to 7965
  140.7318  143.6842  150.7976 LP  0  0  0  0  0  0  0  0  0  0  0  0  # atno 17342 bound_to 10162
  140.0436  143.5321  152.2706 LP  0  0  0  0  0  0  0  0  0  0  0  0  # atno 17343 bound_to 10162
  157.6608  131.0881  150.7843 LP  0  0  0  0  0  0  0  0  0  0  0  0  # atno 17370 bound_to 10713
  156.7916  130.4892  149.5384 LP  0  0  0  0  0  0  0  0  0  0  0  0  # atno 17371 bound_to 10713
  141.2086  133.7772  157.0047 LP  0  0  0  0  0  0  0  0  0  0  0  0  # atno 17394 bound_to 11000
  140.0941  134.9575  157.1822 LP  0  0  0  0  0  0  0  0  0  0  0  0  # atno 17395 bound_to 11000

$$$$
