AV-unprocessed.smi:2159|AV-procd|sdf|8794|dock9
  -GOLD-   2272011573D 1   1.00000     0.00000
 Structure written by MMmdl.
 48 50  0  0  0  0  0  0  0  0  2 V2000
  154.7642  136.1582  161.3908 O   0  0  0  0  0  0  0  0  0  0  0  0
  154.4947  137.2778  161.8271 C   0  0  0  0  0  0  0  0  0  0  0  0
  154.0108  138.3848  160.8862 C   0  0  0  0  0  0  0  0  0  0  0  0
  154.7893  139.7040  161.0620 C   0  0  0  0  0  0  0  0  0  0  0  0
  153.9613  140.8611  160.7135 N   0  0  0  0  0  0  0  0  0  0  0  0
  153.3671  141.0361  159.5178 C   0  0  0  0  0  0  0  0  0  0  0  0
  153.3368  140.2421  158.5781 O   0  0  0  0  0  0  0  0  0  0  0  0
  152.7781  142.4379  159.4620 C   0  0  1  0  0  0  0  0  0  0  0  0
  151.4838  142.7588  158.7133 C   0  0  0  0  0  0  0  0  0  0  0  0
  151.2315  144.2803  158.8856 C   0  0  0  0  0  0  0  0  0  0  0  0
  151.3023  144.7714  160.3619 C   0  0  0  0  0  0  0  0  0  0  0  0
  152.5434  144.2576  161.1389 C   0  0  0  0  0  0  0  0  0  0  0  0
  152.5954  142.7427  160.9357 C   0  0  2  0  0  0  0  0  0  0  0  0
  153.6730  141.8686  161.5597 C   0  0  0  0  0  0  0  0  0  0  0  0
  154.1254  142.0439  162.6907 O   0  0  0  0  0  0  0  0  0  0  0  0
  154.6126  137.6061  163.1230 N   0  0  0  0  0  0  0  0  0  0  0  0
  155.0614  136.6998  164.1736 C   0  0  0  0  0  0  0  0  0  0  0  0
  154.0564  135.5582  164.4030 C   0  0  0  0  0  0  0  0  0  0  0  0
  154.7061  134.3355  165.0202 C   0  0  0  0  0  0  0  0  0  0  0  0
  154.0881  133.0660  165.0079 C   0  0  0  0  0  0  0  0  0  0  0  0
  154.7525  131.9712  165.5995 C   0  0  0  0  0  0  0  0  0  0  0  0
  156.0187  132.1681  166.1889 C   0  0  0  0  0  0  0  0  0  0  0  0
  156.5902  133.4569  166.1711 C   0  0  0  0  0  0  0  0  0  0  0  0
  155.9224  134.4805  165.5946 N   0  3  0  0  0  0  0  0  0  0  0  0
  154.0971  138.0436  159.8533 H   0  0  0  0  0  0  0  0  0  0  0  0
  152.9493  138.5498  161.0736 H   0  0  0  0  0  0  0  0  0  0  0  0
  155.1401  139.8051  162.0908 H   0  0  0  0  0  0  0  0  0  0  0  0
  155.6888  139.6934  160.4434 H   0  0  0  0  0  0  0  0  0  0  0  0
  153.5711  143.0632  159.0452 H   0  0  0  0  0  0  0  0  0  0  0  0
  151.5735  142.5055  157.6565 H   0  0  0  0  0  0  0  0  0  0  0  0
  150.6495  142.1809  159.1129 H   0  0  0  0  0  0  0  0  0  0  0  0
  151.9778  144.8244  158.3054 H   0  0  0  0  0  0  0  0  0  0  0  0
  150.2661  144.5459  158.4539 H   0  0  0  0  0  0  0  0  0  0  0  0
  151.2738  145.8609  160.3910 H   0  0  0  0  0  0  0  0  0  0  0  0
  150.4035  144.4357  160.8806 H   0  0  0  0  0  0  0  0  0  0  0  0
  153.4538  144.7311  160.7691 H   0  0  0  0  0  0  0  0  0  0  0  0
  152.4592  144.5054  162.1975 H   0  0  0  0  0  0  0  0  0  0  0  0
  151.6504  142.3243  161.2903 H   0  0  0  0  0  0  0  0  0  0  0  0
  154.3712  138.5471  163.3995 H   0  0  0  0  0  0  0  0  0  0  0  0
  156.0290  136.2905  163.8818 H   0  0  0  0  0  0  0  0  0  0  0  0
  155.2267  137.2584  165.0965 H   0  0  0  0  0  0  0  0  0  0  0  0
  153.2489  135.8880  165.0583 H   0  0  0  0  0  0  0  0  0  0  0  0
  153.5883  135.2775  163.4584 H   0  0  0  0  0  0  0  0  0  0  0  0
  153.1181  132.9303  164.5514 H   0  0  0  0  0  0  0  0  0  0  0  0
  154.2960  130.9922  165.6013 H   0  0  0  0  0  0  0  0  0  0  0  0
  156.5437  131.3426  166.6471 H   0  0  0  0  0  0  0  0  0  0  0  0
  157.5530  133.6986  166.5974 H   0  0  0  0  0  0  0  0  0  0  0  0
  156.3545  135.4050  165.5926 H   0  0  0  0  0  0  0  0  0  0  0  0
  1  2  2  0  0  0  0
  2  3  1  0  0  0  0
  2 16  1  0  0  0  0
  3  4  1  0  0  0  0
  3 25  1  0  0  0  0
  3 26  1  0  0  0  0
  4  5  1  0  0  0  0
  4 27  1  0  0  0  0
  4 28  1  0  0  0  0
  5 14  1  0  0  0  0
  5  6  1  0  0  0  0
  6  7  2  0  0  0  0
  6  8  1  0  0  0  0
  8 13  1  0  0  0  0
  8  9  1  0  0  0  0
  8 29  1  0  0  0  0
  9 10  1  0  0  0  0
  9 30  1  0  0  0  0
  9 31  1  0  0  0  0
 10 11  1  0  0  0  0
 10 32  1  0  0  0  0
 10 33  1  0  0  0  0
 11 12  1  0  0  0  0
 11 34  1  0  0  0  0
 11 35  1  0  0  0  0
 12 13  1  0  0  0  0
 12 36  1  0  0  0  0
 12 37  1  0  0  0  0
 13 14  1  0  0  0  0
 13 38  1  0  0  0  0
 14 15  2  0  0  0  0
 16 17  1  0  0  0  0
 16 39  1  0  0  0  0
 17 18  1  0  0  0  0
 17 40  1  0  0  0  0
 17 41  1  0  0  0  0
 18 19  1  0  0  0  0
 18 42  1  0  0  0  0
 18 43  1  0  0  0  0
 19 24  1  0  0  0  0
 19 20  2  0  0  0  0
 20 21  1  0  0  0  0
 20 44  1  0  0  0  0
 21 22  2  0  0  0  0
 21 45  1  0  0  0  0
 22 23  1  0  0  0  0
 22 46  1  0  0  0  0
 23 24  2  0  0  0  0
 23 47  1  0  0  0  0
 24 48  1  0  0  0  0
M  CHG  1  24   1
M  END
> <s_m_source_file>
AV-unprocessed.smi

> <i_m_source_file_index>
2159

> <i_lp_mmshare_version>
43012

> <i_f3d_flags>
0

> <s_epik_input>
bjFbY0hdW2NIXVtjSF1bY0hdYzFbQ0gyXVtDSDJdW05IXUMoPU8pW0NIMl1bQ0gyXU4oQzI9TylDKD1PKVtDQEhdKFtDQEBIXTIzKVtDSDJdW0NIMl1bQ0gyXVtDSDJdMw==

> <s_epik_cmdline>
J2VwaWtfcHl0aG9uJywgJy1waCcsICc3LjAnLCAnLXRuJywgJzgnLCAnLW1hJywgJzIwMCcsICctbWV0YWxfYmluZGluZycsICctaW1hZScsICc8aW5maWxlLm1hZT4nLCAnLW9tYWUnLCAnPG91dGZpbGUubWFlPic=

> <r_lp_tautomer_probability>
1

> <r_epik_Ionization_Penalty>
1.85146

> <r_epik_Ionization_Penalty_Charging>
1.85146

> <r_epik_Ionization_Penalty_Neutral>
2.95922e-08

> <r_epik_State_Penalty>
1.96899

> <r_epik_Charging_Adjusted_Penalty>
3.82044

> <i_epik_Tot_Q>
1

> <i_epik_Tot_abs_Q>
1

> <r_epik_Metal_State_Penalty>
1.99467

> <b_epik_Metal_Only>
0

> <s_lp_Force_Field>
OPLS_2005

> <r_lp_Energy>
36.2537

> <b_lp_Chiralities_Consistent>
1

> <s_lp_Variant>
AV-unprocessed.smi:2159-4

> <Gold.Version>
5.8.1

> <Gold.Id.Protein>
6NUR|6NUR_protein|mol2

> <Gold.PLP.Fitness>
54.5753

> <Gold.PLP.PLP>
-53.0693

> <Gold.PLP.part.hbond>
-3.0000

> <Gold.PLP.part.metal>
0.0000

> <Gold.PLP.part.buried>
-4.8993

> <Gold.PLP.part.nonpolar>
-44.0027

> <Gold.PLP.part.repulsive>
0.0561

> <Gold.PLP.ligand.clash>
0.0000

> <Gold.PLP.ligand.torsion>
0.6415

> <Gold.PLP.Chemscore.Hbond>
0.9120

> <Gold.PLP.Chemscore.CHOScore>
0.0000

> <Gold.PLP.Chemscore.Metal>
0.0000

> <Gold.Chemscore.Hbonds>
donor molecule, donor type, donor heavy atom, donor atom, acceptor molecule, acceptor atom, score
      P1  H  7997  8009       L1     7  0.93

> <Gold.PLP.Chemscore.Internal.Correction>
0.0530

> <Gold.Rescore>
     Score         DG    S(hbond)    S(metal)    S(lipo)     H(rot)  DE(clash)    DE(int)     intcor
     17.40     -18.06       0.88        0.00     128.22       2.10       0.05       0.61       ----

> <Gold.Chemscore.Fitness>
17.4016

> <Gold.Chemscore.DG>
-18.0571

> <Gold.Chemscore.ZeroCoef>
-5.4800

> <Gold.Chemscore.Hbond>
0.8804

> <Gold.Chemscore.Metal>
0.0000

> <Gold.Chemscore.Lipo>
128.2215

> <Gold.Chemscore.Internal_Hbond>
0.0000

> <Gold.Chemscore.DEClash>
0.0462

> <Gold.Chemscore.DEInternal>
0.6093

> <Gold.Chemscore.Rot>
2.0959

> <Gold.Chemscore.Internal.Correction>
   9.000000E+99

> <Gold.Chemscore.Hbonds>
donor molecule, donor type, donor heavy atom, donor atom, acceptor molecule, acceptor atom, score
      P1  H  7997  8009       L1     7  0.88

> <Gold.Chemscore.Hbond.Weighted>
-2.9407

> <Gold.Chemscore.Metal.Weighted>
-0.0000

> <Gold.Chemscore.Lipo.Weighted>
-15.0019

> <Gold.Chemscore.Internal_Hbond.Weighted>
0.0000

> <Gold.Chemscore.DEClash.Weighted>
0.0462

> <Gold.Chemscore.DEInternal.Weighted>
0.6093

> <Gold.Chemscore.Rot.Weighted>
5.3655

> <Gold.Chemscore.Internal.Correction.Weighted>
   9.000000E+99

> <Gold.Protein.RotatedTorsions>
[ 6907 6896 6895 6894 ] final  142.95 input  -60.11 | X-H torsion
[ 7974 7965 7964 7962 ] final -120.02 input  175.53 | X-H torsion
[ 8008 7997 7996 7995 ] final  149.35 input   59.86 | X-H torsion
[ 10167 10162 10161 10158 ] final  146.87 input  -65.29 | X-H torsion
[ 10718 10713 10712 10709 ] final -146.03 input   66.30 | X-H torsion
[ 10763 10752 10751 10750 ] final -105.59 input  -60.55 | X-H torsion
[ 11005 11000 10999 10996 ] final -167.44 input  -57.11 | X-H torsion

> <Gold.Protein.ActiveResidues>
 VAL166  LYS551  ARG553  GLY616  TRP617  ASP618  TYR619  PRO620  LYS621  CYS622 
 ASP623  PHE694  ASN695  SER759  ASP760  ASP761  ALA762  ILE779  LEU786  VAL792 
 PHE793  MET794  SER795  GLU796  ALA797  LYS798  CYS799  TRP800  GLU811  SER814 

> <Gold.Protein.RotatedAtoms>
  152.2123  133.4920  159.5116 H   0  0  0  0  0  0  0  0  0  0  0  0  # atno 6907 bound_to 6896
  150.6993  134.1450  159.4128 H   0  0  0  0  0  0  0  0  0  0  0  0  # atno 6908 bound_to 6896
  151.9370  135.0230  160.0584 H   0  0  0  0  0  0  0  0  0  0  0  0  # atno 6909 bound_to 6896
  145.0560  140.8254  143.4181 H   0  0  0  0  0  0  0  0  0  0  0  0  # atno 7974 bound_to 7965
  156.2758  140.2104  156.5845 H   0  0  0  0  0  0  0  0  0  0  0  0  # atno 8008 bound_to 7997
  154.7032  140.0519  157.0502 H   0  0  0  0  0  0  0  0  0  0  0  0  # atno 8009 bound_to 7997
  155.0706  140.3176  155.4634 H   0  0  0  0  0  0  0  0  0  0  0  0  # atno 8010 bound_to 7997
  139.4899  144.5797  151.6895 H   0  0  0  0  0  0  0  0  0  0  0  0  # atno 10167 bound_to 10162
  156.3899  130.7880  151.2081 H   0  0  0  0  0  0  0  0  0  0  0  0  # atno 10718 bound_to 10713
  154.7956  135.4743  154.0154 H   0  0  0  0  0  0  0  0  0  0  0  0  # atno 10763 bound_to 10752
  153.1699  135.6823  153.8629 H   0  0  0  0  0  0  0  0  0  0  0  0  # atno 10764 bound_to 10752
  153.8215  135.3203  155.3388 H   0  0  0  0  0  0  0  0  0  0  0  0  # atno 10765 bound_to 10752
  140.5532  134.5407  157.5127 H   0  0  0  0  0  0  0  0  0  0  0  0  # atno 11005 bound_to 11000
  145.1468  139.2539  143.5462 LP  0  0  0  0  0  0  0  0  0  0  0  0  # atno 17320 bound_to 7965
  146.3521  140.1160  142.8602 LP  0  0  0  0  0  0  0  0  0  0  0  0  # atno 17321 bound_to 7965
  140.5401  144.0593  150.6085 LP  0  0  0  0  0  0  0  0  0  0  0  0  # atno 17342 bound_to 10162
  140.3612  143.2907  152.0381 LP  0  0  0  0  0  0  0  0  0  0  0  0  # atno 17343 bound_to 10162
  157.7498  131.0319  150.4201 LP  0  0  0  0  0  0  0  0  0  0  0  0  # atno 17370 bound_to 10713
  156.4461  130.4001  149.6666 LP  0  0  0  0  0  0  0  0  0  0  0  0  # atno 17371 bound_to 10713
  139.9445  134.7727  156.0597 LP  0  0  0  0  0  0  0  0  0  0  0  0  # atno 17394 bound_to 11000
  141.1159  133.6628  156.3093 LP  0  0  0  0  0  0  0  0  0  0  0  0  # atno 17395 bound_to 11000

$$$$
