AV-unprocessed.smi:1517|AV-procd|sdf|6123|dock7
  -GOLD-   22720 6263D 1   1.00000     0.00000
 Structure written by MMmdl.
 41 43  0  0  0  0  0  0  0  0  1 V2000
  151.2424  137.5746  153.7383 O   0  0  0  0  0  0  0  0  0  0  0  0
  150.9807  136.9467  154.9740 C   0  0  0  0  0  0  0  0  0  0  0  0
  149.5002  136.5541  155.0479 C   0  0  0  0  0  0  0  0  0  0  0  0
  149.2389  135.3028  154.3618 N   0  0  0  0  0  0  0  0  0  0  0  0
  149.6397  133.9963  154.6157 C   0  0  0  0  0  0  0  0  0  0  0  0
  150.4117  133.6430  155.6419 N   0  0  0  0  0  0  0  0  0  0  0  0
  150.5202  132.2759  155.4707 C   0  0  0  0  0  0  0  0  0  0  0  0
  151.2115  131.3073  156.2334 C   0  0  0  0  0  0  0  0  0  0  0  0
  151.1784  129.9477  155.8599 C   0  0  0  0  0  0  0  0  0  0  0  0
  150.4542  129.5369  154.7218 C   0  0  0  0  0  0  0  0  0  0  0  0
  149.7582  130.4849  153.9473 C   0  0  0  0  0  0  0  0  0  0  0  0
  149.7956  131.8412  154.3228 C   0  0  0  0  0  0  0  0  0  0  0  0
  149.2382  132.9998  153.7907 N   0  0  0  0  0  0  0  0  0  0  0  0
  148.4069  133.0846  152.5963 C   0  0  0  0  0  0  0  0  0  0  0  0
  146.9824  133.5897  152.8969 C   0  0  1  0  0  0  0  0  0  0  0  0
  147.0189  134.9617  153.2426 O   0  0  0  0  0  0  0  0  0  0  0  0
  146.0448  133.3077  151.7299 C   0  0  0  0  0  0  0  0  0  0  0  0
  146.4926  132.5667  150.6126 C   0  0  0  0  0  0  0  0  0  0  0  0
  145.6206  132.2985  149.5398 C   0  0  0  0  0  0  0  0  0  0  0  0
  144.2931  132.7648  149.5778 C   0  0  0  0  0  0  0  0  0  0  0  0
  143.4543  132.5061  148.5469 F   0  0  0  0  0  0  0  0  0  0  0  0
  143.8377  133.4969  150.6905 C   0  0  0  0  0  0  0  0  0  0  0  0
  144.7081  133.7660  151.7651 C   0  0  0  0  0  0  0  0  0  0  0  0
  144.2498  134.4620  152.8334 F   0  0  0  0  0  0  0  0  0  0  0  0
  151.3754  136.9054  153.0845 H   0  0  0  0  0  0  0  0  0  0  0  0
  151.6187  136.0673  155.0670 H   0  0  0  0  0  0  0  0  0  0  0  0
  151.2430  137.6300  155.7823 H   0  0  0  0  0  0  0  0  0  0  0  0
  149.1849  136.4580  156.0875 H   0  0  0  0  0  0  0  0  0  0  0  0
  148.8812  137.3301  154.5973 H   0  0  0  0  0  0  0  0  0  0  0  0
  148.6488  135.4058  153.5489 H   0  0  0  0  0  0  0  0  0  0  0  0
  151.7686  131.6112  157.1073 H   0  0  0  0  0  0  0  0  0  0  0  0
  151.7111  129.2164  156.4499 H   0  0  0  0  0  0  0  0  0  0  0  0
  150.4339  128.4933  154.4437 H   0  0  0  0  0  0  0  0  0  0  0  0
  149.2026  130.1735  153.0752 H   0  0  0  0  0  0  0  0  0  0  0  0
  148.8947  133.7191  151.8557 H   0  0  0  0  0  0  0  0  0  0  0  0
  148.3586  132.0893  152.1525 H   0  0  0  0  0  0  0  0  0  0  0  0
  146.6043  133.0675  153.7766 H   0  0  0  0  0  0  0  0  0  0  0  0
  147.4426  135.4361  152.5436 H   0  0  0  0  0  0  0  0  0  0  0  0
  147.5068  132.1964  150.5739 H   0  0  0  0  0  0  0  0  0  0  0  0
  145.9700  131.7323  148.6887 H   0  0  0  0  0  0  0  0  0  0  0  0
  142.8177  133.8509  150.7217 H   0  0  0  0  0  0  0  0  0  0  0  0
  1  2  1  0  0  0  0
  1 25  1  0  0  0  0
  2  3  1  0  0  0  0
  2 26  1  0  0  0  0
  2 27  1  0  0  0  0
  3  4  1  0  0  0  0
  3 28  1  0  0  0  0
  3 29  1  0  0  0  0
  4  5  1  0  0  0  0
  4 30  1  0  0  0  0
  5 13  1  0  0  0  0
  5  6  2  0  0  0  0
  6  7  1  0  0  0  0
  7 12  2  0  0  0  0
  7  8  1  0  0  0  0
  8  9  2  0  0  0  0
  8 31  1  0  0  0  0
  9 10  1  0  0  0  0
  9 32  1  0  0  0  0
 10 11  2  0  0  0  0
 10 33  1  0  0  0  0
 11 12  1  0  0  0  0
 11 34  1  0  0  0  0
 12 13  1  0  0  0  0
 13 14  1  0  0  0  0
 14 15  1  0  0  0  0
 14 35  1  0  0  0  0
 14 36  1  0  0  0  0
 15 16  1  0  0  0  0
 15 17  1  0  0  0  0
 15 37  1  0  0  0  0
 16 38  1  0  0  0  0
 17 23  1  0  0  0  0
 17 18  2  0  0  0  0
 18 19  1  0  0  0  0
 18 39  1  0  0  0  0
 19 20  2  0  0  0  0
 19 40  1  0  0  0  0
 20 21  1  0  0  0  0
 20 22  1  0  0  0  0
 22 23  2  0  0  0  0
 22 41  1  0  0  0  0
 23 24  1  0  0  0  0
M  END
> <s_m_source_file>
AV-unprocessed.smi

> <i_m_source_file_index>
1517

> <i_lp_mmshare_version>
43012

> <i_f3d_flags>
0

> <s_epik_input>
W09IXVtDSDJdW0NIMl1bTkhdYyhuMSluKGMoYzEyKVtjSF1bY0hdW2NIXVtjSF0yKVtDSDJdW0NASF0oW09IXSljM1tjSF1bY0hdYyhGKVtjSF1jM0Y=

> <s_epik_cmdline>
J2VwaWtfcHl0aG9uJywgJy1waCcsICc3LjAnLCAnLXRuJywgJzgnLCAnLW1hJywgJzIwMCcsICctbWV0YWxfYmluZGluZycsICctaW1hZScsICc8aW5maWxlLm1hZT4nLCAnLW9tYWUnLCAnPG91dGZpbGUubWFlPic=

> <r_epik_Ionization_Penalty>
1.30972

> <r_epik_Ionization_Penalty_Charging>
0

> <r_epik_Ionization_Penalty_Neutral>
1.30972

> <r_epik_State_Penalty>
1.38438

> <r_epik_Charging_Adjusted_Penalty>
1.38438

> <i_epik_Tot_Q>
0

> <i_epik_Tot_abs_Q>
0

> <r_epik_Metal_State_Penalty>
0.00551145

> <b_epik_Metal_Only>
0

> <s_lp_Force_Field>
OPLS_2005

> <r_lp_Energy>
6.47828

> <b_lp_Chiralities_Consistent>
1

> <s_lp_Variant>
AV-unprocessed.smi:1517-4

> <Gold.Version>
5.8.1

> <Gold.Id.Protein>
6NUR|6NUR_protein|mol2

> <Gold.PLP.Fitness>
54.5643

> <Gold.PLP.PLP>
-47.1467

> <Gold.PLP.part.hbond>
-3.3329

> <Gold.PLP.part.metal>
0.0000

> <Gold.PLP.part.buried>
-2.1847

> <Gold.PLP.part.nonpolar>
-41.5076

> <Gold.PLP.part.repulsive>
0.0259

> <Gold.PLP.ligand.clash>
0.0000

> <Gold.PLP.ligand.torsion>
0.3102

> <Gold.PLP.Chemscore.Hbond>
2.6560

> <Gold.PLP.Chemscore.CHOScore>
0.0000

> <Gold.PLP.Chemscore.Metal>
0.0000

> <Gold.Chemscore.Hbonds>
donor molecule, donor type, donor heavy atom, donor atom, acceptor molecule, acceptor atom, score
      L1  H     1    25       P1  7949  1.00
      L1  H     4    30       P1  7948  0.62
      L1  H    16    38       P1  7948  0.99

> <Gold.PLP.Chemscore.Internal.Correction>
0.0700

> <Gold.Rescore>
     Score         DG    S(hbond)    S(metal)    S(lipo)     H(rot)  DE(clash)    DE(int)     intcor
     13.85     -17.36       2.61        0.00      97.53       3.22       0.29       3.23       ----

> <Gold.Chemscore.Fitness>
13.8512

> <Gold.Chemscore.DG>
-17.3635

> <Gold.Chemscore.ZeroCoef>
-5.4800

> <Gold.Chemscore.Hbond>
2.6091

> <Gold.Chemscore.Metal>
0.0000

> <Gold.Chemscore.Lipo>
97.5276

> <Gold.Chemscore.Internal_Hbond>
0.0000

> <Gold.Chemscore.DEClash>
0.2852

> <Gold.Chemscore.DEInternal>
3.2272

> <Gold.Chemscore.Rot>
3.2194

> <Gold.Chemscore.Internal.Correction>
   9.000000E+99

> <Gold.Chemscore.Hbonds>
donor molecule, donor type, donor heavy atom, donor atom, acceptor molecule, acceptor atom, score
      L1  H     1    25       P1  7949  0.78
      L1  H     4    30       P1  7948  0.58
      L1  H    16    38       P1  7948  0.94

> <Gold.Chemscore.Hbond.Weighted>
-8.7144

> <Gold.Chemscore.Metal.Weighted>
-0.0000

> <Gold.Chemscore.Lipo.Weighted>
-11.4107

> <Gold.Chemscore.Internal_Hbond.Weighted>
0.0000

> <Gold.Chemscore.DEClash.Weighted>
0.2852

> <Gold.Chemscore.DEInternal.Weighted>
3.2272

> <Gold.Chemscore.Rot.Weighted>
8.2416

> <Gold.Chemscore.Internal.Correction.Weighted>
   9.000000E+99

> <Gold.Protein.RotatedTorsions>
[ 6907 6896 6895 6894 ] final   34.34 input  -60.11 | X-H torsion
[ 7974 7965 7964 7962 ] final  125.52 input  175.53 | X-H torsion
[ 8008 7997 7996 7995 ] final  -47.03 input   59.86 | X-H torsion
[ 10167 10162 10161 10158 ] final   31.54 input  -65.29 | X-H torsion
[ 10718 10713 10712 10709 ] final   59.95 input   66.30 | X-H torsion
[ 10763 10752 10751 10750 ] final  -77.46 input  -60.55 | X-H torsion
[ 11005 11000 10999 10996 ] final   19.26 input  -57.11 | X-H torsion

> <Gold.Protein.ActiveResidues>
 VAL166  LYS551  ARG553  GLY616  TRP617  ASP618  TYR619  PRO620  LYS621  CYS622 
 ASP623  PHE694  ASN695  SER759  ASP760  ASP761  ALA762  ILE779  LEU786  VAL792 
 PHE793  MET794  SER795  GLU796  ALA797  LYS798  CYS799  TRP800  GLU811  SER814 

> <Gold.Protein.RotatedAtoms>
  152.1011  134.9341  160.0569 H   0  0  0  0  0  0  0  0  0  0  0  0  # atno 6907 bound_to 6896
  152.0555  133.4033  159.4403 H   0  0  0  0  0  0  0  0  0  0  0  0  # atno 6908 bound_to 6896
  150.6839  134.3180  159.4818 H   0  0  0  0  0  0  0  0  0  0  0  0  # atno 6909 bound_to 6896
  145.0721  139.3722  143.4952 H   0  0  0  0  0  0  0  0  0  0  0  0  # atno 7974 bound_to 7965
  154.4013  140.1356  156.4109 H   0  0  0  0  0  0  0  0  0  0  0  0  # atno 8008 bound_to 7997
  155.7734  140.3483  155.5239 H   0  0  0  0  0  0  0  0  0  0  0  0  # atno 8009 bound_to 7997
  155.8744  140.0977  157.1518 H   0  0  0  0  0  0  0  0  0  0  0  0  # atno 8010 bound_to 7997
  140.4579  144.0950  150.6206 H   0  0  0  0  0  0  0  0  0  0  0  0  # atno 10167 bound_to 10162
  157.5716  130.8911  149.9276 H   0  0  0  0  0  0  0  0  0  0  0  0  # atno 10718 bound_to 10713
  154.5132  135.5763  153.6621 H   0  0  0  0  0  0  0  0  0  0  0  0  # atno 10763 bound_to 10752
  152.9901  135.6164  154.2851 H   0  0  0  0  0  0  0  0  0  0  0  0  # atno 10764 bound_to 10752
  154.2767  135.2852  155.2694 H   0  0  0  0  0  0  0  0  0  0  0  0  # atno 10765 bound_to 10752
  140.4156  134.1572  155.7669 H   0  0  0  0  0  0  0  0  0  0  0  0  # atno 11005 bound_to 11000
  146.3529  140.0471  142.8638 LP  0  0  0  0  0  0  0  0  0  0  0  0  # atno 17320 bound_to 7965
  145.1280  140.9501  143.4561 LP  0  0  0  0  0  0  0  0  0  0  0  0  # atno 17321 bound_to 7965
  140.4128  143.2648  151.9811 LP  0  0  0  0  0  0  0  0  0  0  0  0  # atno 17342 bound_to 10162
  139.4803  144.5900  151.7788 LP  0  0  0  0  0  0  0  0  0  0  0  0  # atno 17343 bound_to 10162
  156.0761  130.3679  150.0675 LP  0  0  0  0  0  0  0  0  0  0  0  0  # atno 17370 bound_to 10713
  156.8827  130.9562  151.3597 LP  0  0  0  0  0  0  0  0  0  0  0  0  # atno 17371 bound_to 10713
  141.1804  133.8426  157.1277 LP  0  0  0  0  0  0  0  0  0  0  0  0  # atno 17394 bound_to 11000
  140.0236  134.9934  157.0641 LP  0  0  0  0  0  0  0  0  0  0  0  0  # atno 17395 bound_to 11000

$$$$
