AV-unprocessed.smi:2072|AV-procd|sdf|8447|dock5
  -GOLD-   2272011143D 1   1.00000     0.00000
 Structure written by MMmdl.
 40 42  0  0  0  0  0  0  0  0  2 V2000
  145.1158  137.6918  153.2257 O   0  0  0  0  0  0  0  0  0  0  0  0
  146.2304  137.2592  152.9362 C   0  0  0  0  0  0  0  0  0  0  0  0
  147.3965  137.9000  153.1298 N   0  0  0  0  0  0  0  0  0  0  0  0
  147.6418  139.1862  153.6875 C   0  0  0  0  0  0  0  0  0  0  0  0
  148.9248  139.7419  153.9193 C   0  0  0  0  0  0  0  0  0  0  0  0
  149.0174  141.0283  154.4848 C   0  0  0  0  0  0  0  0  0  0  0  0
  147.8284  141.7126  154.8014 C   0  0  0  0  0  0  0  0  0  0  0  0
  146.6001  141.1958  154.5908 N   0  0  0  0  0  0  0  0  0  0  0  0
  146.5191  139.9623  154.0482 C   0  0  0  0  0  0  0  0  0  0  0  0
  146.4280  136.0540  152.3832 N   0  0  0  0  0  0  0  0  0  0  0  0
  145.3726  135.1045  152.0399 C   0  0  1  0  0  0  0  0  0  0  0  0
  144.6751  135.4382  150.7093 C   0  0  0  0  0  0  0  0  0  0  0  0
  144.3726  134.0762  150.0537 C   0  0  0  0  0  0  0  0  0  0  0  0
  144.8187  133.0638  151.0300 N   0  3  1  0  0  0  0  0  0  0  0  0
  145.1781  131.7301  150.5013 C   0  0  0  0  0  0  0  0  0  0  0  0
  145.5274  130.7953  151.6764 C   0  0  0  0  0  0  0  0  0  0  0  0
  146.6084  131.4071  152.5902 C   0  0  0  0  0  0  0  0  0  0  0  0
  146.2230  132.8319  153.0329 C   0  0  0  0  0  0  0  0  0  0  0  0
  145.9073  133.6903  151.7959 C   0  0  2  0  0  0  0  0  0  0  0  0
  148.2251  137.3927  152.8555 H   0  0  0  0  0  0  0  0  0  0  0  0
  149.8382  139.2197  153.6859 H   0  0  0  0  0  0  0  0  0  0  0  0
  149.9799  141.4799  154.6733 H   0  0  0  0  0  0  0  0  0  0  0  0
  147.8658  142.7002  155.2368 H   0  0  0  0  0  0  0  0  0  0  0  0
  145.5193  139.5821  153.8960 H   0  0  0  0  0  0  0  0  0  0  0  0
  147.3768  135.7763  152.1781 H   0  0  0  0  0  0  0  0  0  0  0  0
  144.6143  135.0756  152.8255 H   0  0  0  0  0  0  0  0  0  0  0  0
  143.7684  136.0214  150.8746 H   0  0  0  0  0  0  0  0  0  0  0  0
  145.3244  136.0226  150.0553 H   0  0  0  0  0  0  0  0  0  0  0  0
  143.3140  133.9503  149.8251 H   0  0  0  0  0  0  0  0  0  0  0  0
  144.9346  133.9756  149.1238 H   0  0  0  0  0  0  0  0  0  0  0  0
  144.3412  131.3234  149.9327 H   0  0  0  0  0  0  0  0  0  0  0  0
  146.0233  131.8162  149.8166 H   0  0  0  0  0  0  0  0  0  0  0  0
  144.6284  130.6025  152.2636 H   0  0  0  0  0  0  0  0  0  0  0  0
  145.8605  129.8281  151.2987 H   0  0  0  0  0  0  0  0  0  0  0  0
  146.7667  130.7723  153.4626 H   0  0  0  0  0  0  0  0  0  0  0  0
  147.5585  131.4387  152.0552 H   0  0  0  0  0  0  0  0  0  0  0  0
  145.3583  132.7955  153.6967 H   0  0  0  0  0  0  0  0  0  0  0  0
  147.0395  133.2733  153.6046 H   0  0  0  0  0  0  0  0  0  0  0  0
  146.7931  133.7474  151.1586 H   0  0  0  0  0  0  0  0  0  0  0  0
  144.0543  132.9342  151.6776 H   0  0  0  0  0  0  0  0  0  0  0  0
  1  2  2  0  0  0  0
  2  3  1  0  0  0  0
  2 10  1  0  0  0  0
  3  4  1  0  0  0  0
  3 20  1  0  0  0  0
  4  9  1  0  0  0  0
  4  5  2  0  0  0  0
  5  6  1  0  0  0  0
  5 21  1  0  0  0  0
  6  7  2  0  0  0  0
  6 22  1  0  0  0  0
  7  8  1  0  0  0  0
  7 23  1  0  0  0  0
  8  9  2  0  0  0  0
  9 24  1  0  0  0  0
 10 11  1  0  0  0  0
 10 25  1  0  0  0  0
 11 19  1  0  0  0  0
 11 12  1  0  0  0  0
 11 26  1  0  0  0  0
 12 13  1  0  0  0  0
 12 27  1  0  0  0  0
 12 28  1  0  0  0  0
 13 14  1  0  0  0  0
 13 29  1  0  0  0  0
 13 30  1  0  0  0  0
 14 19  1  0  0  0  0
 14 15  1  0  0  0  0
 14 40  1  0  0  0  0
 15 16  1  0  0  0  0
 15 31  1  0  0  0  0
 15 32  1  0  0  0  0
 16 17  1  0  0  0  0
 16 33  1  0  0  0  0
 16 34  1  0  0  0  0
 17 18  1  0  0  0  0
 17 35  1  0  0  0  0
 17 36  1  0  0  0  0
 18 19  1  0  0  0  0
 18 37  1  0  0  0  0
 18 38  1  0  0  0  0
 19 39  1  0  0  0  0
M  CHG  1  14   1
M  END
> <s_m_source_file>
AV-unprocessed.smi

> <i_m_source_file_index>
2072

> <i_lp_mmshare_version>
43012

> <i_f3d_flags>
0

> <s_epik_input>
W0NIMl0xW0NIMl1bQ0gyXVtDSDJdW0NASF0oTjEyKVtDQEBIXShbQ0gyXVtDSDJdMilbTkhdQyg9TylbTkhdYzNbY0hdW2NIXVtjSF1uW2NIXTM=

> <s_epik_cmdline>
J2VwaWtfcHl0aG9uJywgJy1waCcsICc3LjAnLCAnLXRuJywgJzgnLCAnLW1hJywgJzIwMCcsICctbWV0YWxfYmluZGluZycsICctaW1hZScsICc8aW5maWxlLm1hZT4nLCAnLW9tYWUnLCAnPG91dGZpbGUubWFlPic=

> <r_lp_tautomer_probability>
1

> <r_epik_Ionization_Penalty>
0.00482425

> <r_epik_Ionization_Penalty_Charging>
0.000974069

> <r_epik_Ionization_Penalty_Neutral>
0.00385018

> <r_epik_State_Penalty>
-0

> <r_epik_Charging_Adjusted_Penalty>
0.000974069

> <i_epik_Tot_Q>
1

> <i_epik_Tot_abs_Q>
1

> <r_epik_Metal_State_Penalty>
-0

> <b_epik_Metal_Only>
0

> <s_lp_Force_Field>
OPLS_2005

> <r_lp_Energy>
37.8914

> <b_lp_Chiralities_Consistent>
1

> <s_lp_Variant>
AV-unprocessed.smi:2072-6

> <Gold.Version>
5.8.1

> <Gold.Id.Protein>
6NUR|6NUR_protein|mol2

> <Gold.PLP.Fitness>
40.6770

> <Gold.PLP.PLP>
-29.2139

> <Gold.PLP.part.hbond>
-2.0000

> <Gold.PLP.part.metal>
0.0000

> <Gold.PLP.part.buried>
-0.6816

> <Gold.PLP.part.nonpolar>
-27.3368

> <Gold.PLP.part.repulsive>
0.4011

> <Gold.PLP.ligand.clash>
0.0000

> <Gold.PLP.ligand.torsion>
0.2488

> <Gold.PLP.Chemscore.Hbond>
1.9840

> <Gold.PLP.Chemscore.CHOScore>
2.0000

> <Gold.PLP.Chemscore.Metal>
0.0000

> <Gold.Chemscore.Hbonds>
donor molecule, donor type, donor heavy atom, donor atom, acceptor molecule, acceptor atom, score
      L1  H     3    20       P1  7948  0.99
      L1  H    10    25       P1  7948  0.99
      L1  C     7    23       P1  8028  1.00
      L1  C     9    24       P1 10175  0.99

> <Gold.PLP.Chemscore.Internal.Correction>
0.0088

> <Gold.Rescore>
     Score         DG    S(hbond)    S(metal)    S(lipo)     H(rot)  DE(clash)    DE(int)     intcor
     17.12     -18.91       1.92        0.00      81.88       1.00       0.19       1.60       ----

> <Gold.Chemscore.Fitness>
17.1161

> <Gold.Chemscore.DG>
-18.9122

> <Gold.Chemscore.ZeroCoef>
-5.4800

> <Gold.Chemscore.Hbond>
1.9198

> <Gold.Chemscore.Metal>
0.0000

> <Gold.Chemscore.Lipo>
81.8812

> <Gold.Chemscore.Internal_Hbond>
0.0000

> <Gold.Chemscore.DEClash>
0.1911

> <Gold.Chemscore.DEInternal>
1.6050

> <Gold.Chemscore.Rot>
1.0000

> <Gold.Chemscore.Internal.Correction>
   9.000000E+99

> <Gold.Chemscore.Hbonds>
donor molecule, donor type, donor heavy atom, donor atom, acceptor molecule, acceptor atom, score
      L1  H     3    20       P1  7948  0.93
      L1  H    10    25       P1  7948  0.93

> <Gold.Chemscore.Hbond.Weighted>
-6.4121

> <Gold.Chemscore.Metal.Weighted>
-0.0000

> <Gold.Chemscore.Lipo.Weighted>
-9.5801

> <Gold.Chemscore.Internal_Hbond.Weighted>
0.0000

> <Gold.Chemscore.DEClash.Weighted>
0.1911

> <Gold.Chemscore.DEInternal.Weighted>
1.6050

> <Gold.Chemscore.Rot.Weighted>
2.5600

> <Gold.Chemscore.Internal.Correction.Weighted>
   9.000000E+99

> <Gold.Protein.RotatedTorsions>
[ 6907 6896 6895 6894 ] final    9.96 input  -60.11 | X-H torsion
[ 7974 7965 7964 7962 ] final  120.81 input  175.53 | X-H torsion
[ 8008 7997 7996 7995 ] final  -65.65 input   59.86 | X-H torsion
[ 10167 10162 10161 10158 ] final   82.67 input  -65.29 | X-H torsion
[ 10718 10713 10712 10709 ] final   46.81 input   66.30 | X-H torsion
[ 10763 10752 10751 10750 ] final  135.39 input  -60.55 | X-H torsion
[ 11005 11000 10999 10996 ] final  -32.19 input  -57.11 | X-H torsion

> <Gold.Protein.ActiveResidues>
 VAL166  LYS551  ARG553  GLY616  TRP617  ASP618  TYR619  PRO620  LYS621  CYS622 
 ASP623  PHE694  ASN695  SER759  ASP760  ASP761  ALA762  ILE779  LEU786  VAL792 
 PHE793  MET794  SER795  GLU796  ALA797  LYS798  CYS799  TRP800  GLU811  SER814 

> <Gold.Protein.RotatedAtoms>
  151.7306  135.0875  160.0299 H   0  0  0  0  0  0  0  0  0  0  0  0  # atno 6907 bound_to 6896
  152.3543  133.6214  159.5976 H   0  0  0  0  0  0  0  0  0  0  0  0  # atno 6908 bound_to 6896
  150.7561  133.9440  159.3506 H   0  0  0  0  0  0  0  0  0  0  0  0  # atno 6909 bound_to 6896
  145.1267  139.3353  143.4686 H   0  0  0  0  0  0  0  0  0  0  0  0  # atno 7974 bound_to 7965
  154.4685  140.0929  156.7082 H   0  0  0  0  0  0  0  0  0  0  0  0  # atno 8008 bound_to 7997
  155.4791  140.3467  155.4319 H   0  0  0  0  0  0  0  0  0  0  0  0  # atno 8009 bound_to 7997
  156.0998  140.1419  156.9471 H   0  0  0  0  0  0  0  0  0  0  0  0  # atno 8010 bound_to 7997
  139.9264  144.6180  150.8388 H   0  0  0  0  0  0  0  0  0  0  0  0  # atno 10167 bound_to 10162
  157.4520  130.8144  149.7798 H   0  0  0  0  0  0  0  0  0  0  0  0  # atno 10718 bound_to 10713
  153.8393  135.3093  155.3425 H   0  0  0  0  0  0  0  0  0  0  0  0  # atno 10763 bound_to 10752
  154.7939  135.4766  154.0120 H   0  0  0  0  0  0  0  0  0  0  0  0  # atno 10764 bound_to 10752
  153.1585  135.6856  153.8868 H   0  0  0  0  0  0  0  0  0  0  0  0  # atno 10765 bound_to 10752
  140.9531  133.7209  156.1252 H   0  0  0  0  0  0  0  0  0  0  0  0  # atno 11005 bound_to 11000
  146.3517  140.1249  142.8599 LP  0  0  0  0  0  0  0  0  0  0  0  0  # atno 17320 bound_to 7965
  145.0680  140.9135  143.4899 LP  0  0  0  0  0  0  0  0  0  0  0  0  # atno 17321 bound_to 7965
  140.7649  143.3261  151.2514 LP  0  0  0  0  0  0  0  0  0  0  0  0  # atno 17342 bound_to 10162
  139.6818  143.9841  152.2813 LP  0  0  0  0  0  0  0  0  0  0  0  0  # atno 17343 bound_to 10162
  155.9991  130.3890  150.2676 LP  0  0  0  0  0  0  0  0  0  0  0  0  # atno 17370 bound_to 10713
  157.0849  131.0153  151.3143 LP  0  0  0  0  0  0  0  0  0  0  0  0  # atno 17371 bound_to 10713
  140.7574  134.3977  157.5531 LP  0  0  0  0  0  0  0  0  0  0  0  0  # atno 17394 bound_to 11000
  139.8854  134.8939  156.2647 LP  0  0  0  0  0  0  0  0  0  0  0  0  # atno 17395 bound_to 11000

$$$$
