AV-unprocessed.smi:2557|AV-procd|sdf|10028|dock4
  -GOLD-   2272014 73D 1   1.00000     0.00000
 Structure written by MMmdl.
 39 41  0  0  0  0  0  0  0  0  3 V2000
  150.6439  138.8198  154.0362 O   0  5  0  0  0  0  0  0  0  0  0  0
  150.1644  139.7299  154.7524 C   0  0  0  0  0  0  0  0  0  0  0  0
  150.6747  140.4326  155.8461 C   0  0  0  0  0  0  0  0  0  0  0  0
  152.0337  140.1800  156.3518 C   0  0  0  0  0  0  0  0  0  0  0  0
  152.8261  139.3558  155.8982 O   0  0  0  0  0  0  0  0  0  0  0  0
  152.3858  140.9463  157.4022 N   0  0  0  0  0  0  0  0  0  0  0  0
  151.5493  141.9061  157.9759 C   0  0  0  0  0  0  0  0  0  0  0  0
  152.2245  142.6043  159.1578 C   0  0  0  0  0  0  0  0  0  0  0  0
  152.7030  141.5913  160.2225 C   0  0  0  0  0  0  0  0  0  0  0  0
  153.4222  142.2901  161.3886 C   0  0  0  0  0  0  0  0  0  0  0  0
  152.5386  143.3747  162.0232 C   0  0  0  0  0  0  0  0  0  0  0  0
  152.0687  144.3906  160.9712 C   0  0  0  0  0  0  0  0  0  0  0  0
  151.3395  143.6916  159.8126 C   0  0  0  0  0  0  0  0  0  0  0  0
  150.3415  142.1686  157.5773 N   0  0  0  0  0  0  0  0  0  0  0  0
  149.9128  141.4260  156.5022 N   0  0  0  0  0  0  0  0  0  0  0  0
  148.7831  139.9985  154.3121 C   0  0  0  0  0  0  0  0  0  0  0  0
  148.3923  141.2985  153.9165 C   0  0  0  0  0  0  0  0  0  0  0  0
  147.0630  141.5298  153.5100 C   0  0  0  0  0  0  0  0  0  0  0  0
  146.1745  140.5124  153.5064 N   0  3  0  0  0  0  0  0  0  0  0  0
  146.4999  139.2566  153.8827 C   0  0  0  0  0  0  0  0  0  0  0  0
  147.8151  138.9677  154.2983 C   0  0  0  0  0  0  0  0  0  0  0  0
  153.1098  143.1084  158.7660 H   0  0  0  0  0  0  0  0  0  0  0  0
  151.8497  141.0308  160.6077 H   0  0  0  0  0  0  0  0  0  0  0  0
  153.3770  140.8572  159.7788 H   0  0  0  0  0  0  0  0  0  0  0  0
  153.7074  141.5558  162.1425 H   0  0  0  0  0  0  0  0  0  0  0  0
  154.3491  142.7385  161.0287 H   0  0  0  0  0  0  0  0  0  0  0  0
  151.6718  142.9107  162.4958 H   0  0  0  0  0  0  0  0  0  0  0  0
  153.0871  143.8855  162.8153 H   0  0  0  0  0  0  0  0  0  0  0  0
  151.4106  145.1268  161.4334 H   0  0  0  0  0  0  0  0  0  0  0  0
  152.9267  144.9423  160.5848 H   0  0  0  0  0  0  0  0  0  0  0  0
  151.0455  144.4356  159.0708 H   0  0  0  0  0  0  0  0  0  0  0  0
  150.4167  143.2485  160.1909 H   0  0  0  0  0  0  0  0  0  0  0  0
  148.9728  141.6340  156.1849 H   0  0  0  0  0  0  0  0  0  0  0  0
  149.1091  142.1069  153.9260 H   0  0  0  0  0  0  0  0  0  0  0  0
  146.6866  142.4911  153.1923 H   0  0  0  0  0  0  0  0  0  0  0  0
  145.7049  138.5267  153.8415 H   0  0  0  0  0  0  0  0  0  0  0  0
  148.0835  137.9664  154.6029 H   0  0  0  0  0  0  0  0  0  0  0  0
  153.3079  140.8135  157.7901 H   0  0  0  0  0  0  0  0  0  0  0  0
  145.2169  140.7009  153.2098 H   0  0  0  0  0  0  0  0  0  0  0  0
  1  2  1  0  0  0  0
  2  3  2  0  0  0  0
  2 16  1  0  0  0  0
  3 15  1  0  0  0  0
  3  4  1  0  0  0  0
  4  5  2  0  0  0  0
  4  6  1  0  0  0  0
  6  7  1  0  0  0  0
  6 38  1  0  0  0  0
  7  8  1  0  0  0  0
  7 14  2  0  0  0  0
  8 13  1  0  0  0  0
  8  9  1  0  0  0  0
  8 22  1  0  0  0  0
  9 10  1  0  0  0  0
  9 23  1  0  0  0  0
  9 24  1  0  0  0  0
 10 11  1  0  0  0  0
 10 25  1  0  0  0  0
 10 26  1  0  0  0  0
 11 12  1  0  0  0  0
 11 27  1  0  0  0  0
 11 28  1  0  0  0  0
 12 13  1  0  0  0  0
 12 29  1  0  0  0  0
 12 30  1  0  0  0  0
 13 31  1  0  0  0  0
 13 32  1  0  0  0  0
 14 15  1  0  0  0  0
 15 33  1  0  0  0  0
 16 21  1  0  0  0  0
 16 17  2  0  0  0  0
 17 18  1  0  0  0  0
 17 34  1  0  0  0  0
 18 19  2  0  0  0  0
 18 35  1  0  0  0  0
 19 20  1  0  0  0  0
 19 39  1  0  0  0  0
 20 21  2  0  0  0  0
 20 36  1  0  0  0  0
 21 37  1  0  0  0  0
M  CHG  1   1  -1
M  CHG  1  19   1
M  END
> <s_m_source_file>
AV-unprocessed.smi

> <i_m_source_file_index>
2557

> <i_lp_mmshare_version>
43012

> <i_f3d_flags>
0

> <s_epik_input>
W2NIXTFbY0hdbltjSF1bY0hdYzFDKD1PKUMyPUMoW09IXSlOPUMoW05IXVtOSF0yKVtDSF0zW0NIMl1bQ0gyXVtDSDJdW0NIMl1bQ0gyXTM=

> <s_epik_cmdline>
J2VwaWtfcHl0aG9uJywgJy1waCcsICc3LjAnLCAnLXRuJywgJzgnLCAnLW1hJywgJzIwMCcsICctbWV0YWxfYmluZGluZycsICctaW1hZScsICc8aW5maWxlLm1hZT4nLCAnLW9tYWUnLCAnPG91dGZpbGUubWFlPic=

> <r_epik_Ionization_Penalty>
1.90808

> <r_epik_Ionization_Penalty_Charging>
1.90154

> <r_epik_Ionization_Penalty_Neutral>
0.00653609

> <r_epik_State_Penalty>
1.20174

> <r_epik_Charging_Adjusted_Penalty>
3.10328

> <i_epik_Tot_Q>
0

> <i_epik_Tot_abs_Q>
2

> <r_epik_Metal_State_Penalty>
5.22546

> <b_epik_Metal_Only>
0

> <s_epik_Chemistry_Notes>
This compound has an imine and may undergo hydrolysis.

> <s_lp_Force_Field>
OPLS_2005

> <r_lp_Energy>
32.353

> <b_lp_Chiralities_Consistent>
1

> <s_lp_Variant>
AV-unprocessed.smi:2557-2

> <Gold.Version>
5.8.1

> <Gold.Id.Protein>
6NUR|6NUR_protein|mol2

> <Gold.PLP.Fitness>
49.4951

> <Gold.PLP.PLP>
-40.5252

> <Gold.PLP.part.hbond>
-2.0000

> <Gold.PLP.part.metal>
0.0000

> <Gold.PLP.part.buried>
-3.2747

> <Gold.PLP.part.nonpolar>
-35.5462

> <Gold.PLP.part.repulsive>
0.6375

> <Gold.PLP.ligand.clash>
0.0000

> <Gold.PLP.ligand.torsion>
1.0983

> <Gold.PLP.Chemscore.Hbond>
3.0000

> <Gold.PLP.Chemscore.CHOScore>
0.0000

> <Gold.PLP.Chemscore.Metal>
0.0000

> <Gold.Chemscore.Hbonds>
donor molecule, donor type, donor heavy atom, donor atom, acceptor molecule, acceptor atom, score
      L1  H    19    39       P1 10175  2.00
      P1  H  7997  8010       L1     5  1.00

> <Gold.PLP.Chemscore.Internal.Correction>
2.1665

> <Gold.Rescore>
     Score         DG    S(hbond)    S(metal)    S(lipo)     H(rot)  DE(clash)    DE(int)     intcor
     18.36     -20.68       1.54        0.00     107.96       1.00       0.15       2.17       ----

> <Gold.Chemscore.Fitness>
18.3597

> <Gold.Chemscore.DG>
-20.6819

> <Gold.Chemscore.ZeroCoef>
-5.4800

> <Gold.Chemscore.Hbond>
1.5361

> <Gold.Chemscore.Metal>
0.0000

> <Gold.Chemscore.Lipo>
107.9604

> <Gold.Chemscore.Internal_Hbond>
0.0000

> <Gold.Chemscore.DEClash>
0.1475

> <Gold.Chemscore.DEInternal>
2.1748

> <Gold.Chemscore.Rot>
1.0000

> <Gold.Chemscore.Internal.Correction>
   9.000000E+99

> <Gold.Chemscore.Hbonds>
donor molecule, donor type, donor heavy atom, donor atom, acceptor molecule, acceptor atom, score
      L1  H    19    39       P1 10175  0.82
      P1  H  7997  8010       L1     5  0.30

> <Gold.Chemscore.Hbond.Weighted>
-5.1306

> <Gold.Chemscore.Metal.Weighted>
-0.0000

> <Gold.Chemscore.Lipo.Weighted>
-12.6314

> <Gold.Chemscore.Internal_Hbond.Weighted>
0.0000

> <Gold.Chemscore.DEClash.Weighted>
0.1475

> <Gold.Chemscore.DEInternal.Weighted>
2.1748

> <Gold.Chemscore.Rot.Weighted>
2.5600

> <Gold.Chemscore.Internal.Correction.Weighted>
   9.000000E+99

> <Gold.Protein.RotatedTorsions>
[ 6907 6896 6895 6894 ] final   24.10 input  -60.11 | X-H torsion
[ 7974 7965 7964 7962 ] final -117.67 input  175.53 | X-H torsion
[ 8008 7997 7996 7995 ] final   79.27 input   59.86 | X-H torsion
[ 10167 10162 10161 10158 ] final  -59.98 input  -65.29 | X-H torsion
[ 10718 10713 10712 10709 ] final -133.49 input   66.30 | X-H torsion
[ 10763 10752 10751 10750 ] final -118.35 input  -60.55 | X-H torsion
[ 11005 11000 10999 10996 ] final -177.19 input  -57.11 | X-H torsion

> <Gold.Protein.ActiveResidues>
 VAL166  LYS551  ARG553  GLY616  TRP617  ASP618  TYR619  PRO620  LYS621  CYS622 
 ASP623  PHE694  ASN695  SER759  ASP760  ASP761  ALA762  ILE779  LEU786  VAL792 
 PHE793  MET794  SER795  GLU796  ALA797  LYS798  CYS799  TRP800  GLU811  SER814 

> <Gold.Protein.RotatedAtoms>
  151.9524  135.0163  160.0542 H   0  0  0  0  0  0  0  0  0  0  0  0  # atno 6907 bound_to 6896
  152.1941  133.4789  159.5032 H   0  0  0  0  0  0  0  0  0  0  0  0  # atno 6908 bound_to 6896
  150.6941  134.1591  159.4212 H   0  0  0  0  0  0  0  0  0  0  0  0  # atno 6909 bound_to 6896
  145.0826  140.8436  143.4030 H   0  0  0  0  0  0  0  0  0  0  0  0  # atno 7974 bound_to 7965
  155.8673  140.3451  155.5797 H   0  0  0  0  0  0  0  0  0  0  0  0  # atno 8008 bound_to 7997
  155.7867  140.0866  157.2050 H   0  0  0  0  0  0  0  0  0  0  0  0  # atno 8009 bound_to 7997
  154.4015  140.1491  156.3102 H   0  0  0  0  0  0  0  0  0  0  0  0  # atno 8010 bound_to 7997
  140.6101  143.2384  151.5730 H   0  0  0  0  0  0  0  0  0  0  0  0  # atno 10167 bound_to 10162
  156.2454  130.7121  151.0999 H   0  0  0  0  0  0  0  0  0  0  0  0  # atno 10718 bound_to 10713
  154.8584  135.4277  154.2124 H   0  0  0  0  0  0  0  0  0  0  0  0  # atno 10763 bound_to 10752
  153.3147  135.6978  153.7090 H   0  0  0  0  0  0  0  0  0  0  0  0  # atno 10764 bound_to 10752
  153.6168  135.3509  155.2971 H   0  0  0  0  0  0  0  0  0  0  0  0  # atno 10765 bound_to 10752
  140.4437  134.6407  157.4769 H   0  0  0  0  0  0  0  0  0  0  0  0  # atno 11005 bound_to 11000
  145.1160  139.2725  143.5613 LP  0  0  0  0  0  0  0  0  0  0  0  0  # atno 17320 bound_to 7965
  146.3531  140.0770  142.8620 LP  0  0  0  0  0  0  0  0  0  0  0  0  # atno 17321 bound_to 7965
  139.5354  144.2795  152.1240 LP  0  0  0  0  0  0  0  0  0  0  0  0  # atno 17342 bound_to 10162
  140.1993  144.4674  150.6439 LP  0  0  0  0  0  0  0  0  0  0  0  0  # atno 17343 bound_to 10162
  157.7193  131.0691  150.6202 LP  0  0  0  0  0  0  0  0  0  0  0  0  # atno 17370 bound_to 10713
  156.6278  130.4423  149.5798 LP  0  0  0  0  0  0  0  0  0  0  0  0  # atno 17371 bound_to 10713
  140.0052  134.6774  155.9466 LP  0  0  0  0  0  0  0  0  0  0  0  0  # atno 17394 bound_to 11000
  141.1694  133.6537  156.4597 LP  0  0  0  0  0  0  0  0  0  0  0  0  # atno 17395 bound_to 11000

$$$$
