AV-unprocessed.smi:384|AV-procd|sdf|2465|dock1
  -GOLD-   2262022403D 1   1.00000     0.00000
 Structure written by MMmdl.
 32 33  0  0  0  0  0  0  0  0  2 V2000
  153.3982  142.2832  162.1212 C   0  0  0  0  0  0  0  0  0  0  0  0
  152.4631  142.6448  160.9627 C   0  0  2  0  0  0  0  0  0  0  0  0
  152.5554  141.6282  159.8110 C   0  0  0  0  0  0  0  0  0  0  0  0
  151.7306  142.0671  158.6945 N   0  0  0  0  0  0  0  0  0  0  0  0
  151.6293  141.1192  157.6670 C   0  0  0  0  0  0  0  0  0  0  0  0
  150.7956  141.3942  156.5642 C   0  0  0  0  0  0  0  0  0  0  0  0
  150.6923  140.4359  155.5377 C   0  0  0  0  0  0  0  0  0  0  0  0
  151.4250  139.2325  155.6427 C   0  0  0  0  0  0  0  0  0  0  0  0
  151.3452  138.1775  154.5754 C   0  0  0  0  0  0  0  0  0  0  0  0
  151.9728  137.1072  154.7364 O   0  0  0  0  0  0  0  0  0  0  0  0
  150.6525  138.4016  153.5579 O   0  5  0  0  0  0  0  0  0  0  0  0
  152.2345  139.0566  156.7882 C   0  0  0  0  0  0  0  0  0  0  0  0
  152.3382  139.9709  157.7774 N   0  0  0  0  0  0  0  0  0  0  0  0
  152.1004  143.3952  158.2230 C   0  0  0  0  0  0  0  0  0  0  0  0
  152.0568  144.4149  159.3786 C   0  0  1  0  0  0  0  0  0  0  0  0
  150.6290  144.8073  159.7983 C   0  0  0  0  0  0  0  0  0  0  0  0
  152.8304  143.9396  160.4843 O   0  0  0  0  0  0  0  0  0  0  0  0
  153.1568  141.3010  162.5281 H   0  0  0  0  0  0  0  0  0  0  0  0
  153.3133  143.0086  162.9306 H   0  0  0  0  0  0  0  0  0  0  0  0
  154.4393  142.2652  161.7974 H   0  0  0  0  0  0  0  0  0  0  0  0
  151.4432  142.6708  161.3469 H   0  0  0  0  0  0  0  0  0  0  0  0
  153.5915  141.5268  159.4843 H   0  0  0  0  0  0  0  0  0  0  0  0
  152.2255  140.6448  160.1491 H   0  0  0  0  0  0  0  0  0  0  0  0
  150.2428  142.3200  156.5041 H   0  0  0  0  0  0  0  0  0  0  0  0
  150.0556  140.6322  154.6874 H   0  0  0  0  0  0  0  0  0  0  0  0
  152.8200  138.1594  156.9272 H   0  0  0  0  0  0  0  0  0  0  0  0
  153.1094  143.3594  157.8094 H   0  0  0  0  0  0  0  0  0  0  0  0
  151.4365  143.7058  157.4152 H   0  0  0  0  0  0  0  0  0  0  0  0
  152.5457  145.3266  159.0344 H   0  0  0  0  0  0  0  0  0  0  0  0
  150.1002  145.2807  158.9709 H   0  0  0  0  0  0  0  0  0  0  0  0
  150.6492  145.5169  160.6254 H   0  0  0  0  0  0  0  0  0  0  0  0
  150.0373  143.9469  160.1093 H   0  0  0  0  0  0  0  0  0  0  0  0
  1  2  1  0  0  0  0
  1 18  1  0  0  0  0
  1 19  1  0  0  0  0
  1 20  1  0  0  0  0
  2 17  1  0  0  0  0
  2  3  1  0  0  0  0
  2 21  1  0  0  0  0
  3  4  1  0  0  0  0
  3 22  1  0  0  0  0
  3 23  1  0  0  0  0
  4  5  1  0  0  0  0
  4 14  1  0  0  0  0
  5 13  1  0  0  0  0
  5  6  2  0  0  0  0
  6  7  1  0  0  0  0
  6 24  1  0  0  0  0
  7  8  2  0  0  0  0
  7 25  1  0  0  0  0
  8  9  1  0  0  0  0
  8 12  1  0  0  0  0
  9 10  2  0  0  0  0
  9 11  1  0  0  0  0
 12 13  2  0  0  0  0
 12 26  1  0  0  0  0
 14 15  1  0  0  0  0
 14 27  1  0  0  0  0
 14 28  1  0  0  0  0
 15 16  1  0  0  0  0
 15 17  1  0  0  0  0
 15 29  1  0  0  0  0
 16 30  1  0  0  0  0
 16 31  1  0  0  0  0
 16 32  1  0  0  0  0
M  CHG  1  11  -1
M  END
> <s_m_source_file>
AV-unprocessed.smi

> <i_m_source_file_index>
384

> <i_lp_mmshare_version>
43012

> <i_f3d_flags>
0

> <s_epik_input>
W0NIM11bQ0BASF0xW0NIMl1OKFtDSDJdW0NASF0oTzEpW0NIM10pYzJbY0hdW2NIXWMoW2NIXW4yKUMoPU8pW09IXQ==

> <s_epik_cmdline>
J2VwaWtfcHl0aG9uJywgJy1waCcsICc3LjAnLCAnLXRuJywgJzgnLCAnLW1hJywgJzIwMCcsICctbWV0YWxfYmluZGluZycsICctaW1hZScsICc8aW5maWxlLm1hZT4nLCAnLW9tYWUnLCAnPG91dGZpbGUubWFlPic=

> <r_epik_Ionization_Penalty>
0.0114922

> <r_epik_Ionization_Penalty_Charging>
0.000195896

> <r_epik_Ionization_Penalty_Neutral>
0.0112963

> <r_epik_State_Penalty>
0.00868573

> <r_epik_Charging_Adjusted_Penalty>
0.00888162

> <i_epik_Tot_Q>
-1

> <i_epik_Tot_abs_Q>
1

> <r_epik_Metal_State_Penalty>
8.74964e-06

> <b_epik_Metal_Only>
0

> <s_lp_Force_Field>
OPLS_2005

> <r_lp_Energy>
19.6784

> <b_lp_Chiralities_Consistent>
1

> <s_lp_Variant>
AV-unprocessed.smi:384-1

> <Gold.Version>
5.8.1

> <Gold.Id.Protein>
6NUR|6NUR_protein|mol2

> <Gold.PLP.Fitness>
41.2278

> <Gold.PLP.PLP>
-35.4375

> <Gold.PLP.part.hbond>
-1.1892

> <Gold.PLP.part.metal>
0.0000

> <Gold.PLP.part.buried>
-1.5584

> <Gold.PLP.part.nonpolar>
-32.7114

> <Gold.PLP.part.repulsive>
0.9147

> <Gold.PLP.ligand.clash>
0.0000

> <Gold.PLP.ligand.torsion>
0.0538

> <Gold.PLP.Chemscore.Hbond>
1.9340

> <Gold.PLP.Chemscore.CHOScore>
0.0000

> <Gold.PLP.Chemscore.Metal>
0.0000

> <Gold.Chemscore.Hbonds>
donor molecule, donor type, donor heavy atom, donor atom, acceptor molecule, acceptor atom, score
      P1  H  7997  8008       L1    13  0.02
      P1  H 10752 10765       L1    10  1.89

> <Gold.PLP.Chemscore.Internal.Correction>
0.0957

> <Gold.Rescore>
     Score         DG    S(hbond)    S(metal)    S(lipo)     H(rot)  DE(clash)    DE(int)     intcor
     16.08     -16.53       0.96        0.00      88.89       1.00       0.29       0.17       ----

> <Gold.Chemscore.Fitness>
16.0817

> <Gold.Chemscore.DG>
-16.5344

> <Gold.Chemscore.ZeroCoef>
-5.4800

> <Gold.Chemscore.Hbond>
0.9623

> <Gold.Chemscore.Metal>
0.0000

> <Gold.Chemscore.Lipo>
88.8913

> <Gold.Chemscore.Internal_Hbond>
0.0000

> <Gold.Chemscore.DEClash>
0.2858

> <Gold.Chemscore.DEInternal>
0.1669

> <Gold.Chemscore.Rot>
1.0000

> <Gold.Chemscore.Internal.Correction>
   9.000000E+99

> <Gold.Chemscore.Hbonds>
donor molecule, donor type, donor heavy atom, donor atom, acceptor molecule, acceptor atom, score
      P1  H 10752 10765       L1    10  0.91

> <Gold.Chemscore.Hbond.Weighted>
-3.2142

> <Gold.Chemscore.Metal.Weighted>
-0.0000

> <Gold.Chemscore.Lipo.Weighted>
-10.4003

> <Gold.Chemscore.Internal_Hbond.Weighted>
0.0000

> <Gold.Chemscore.DEClash.Weighted>
0.2858

> <Gold.Chemscore.DEInternal.Weighted>
0.1669

> <Gold.Chemscore.Rot.Weighted>
2.5600

> <Gold.Chemscore.Internal.Correction.Weighted>
   9.000000E+99

> <Gold.Protein.RotatedTorsions>
[ 6907 6896 6895 6894 ] final  171.06 input  -60.11 | X-H torsion
[ 7974 7965 7964 7962 ] final   -1.94 input  175.53 | X-H torsion
[ 8008 7997 7996 7995 ] final  -84.76 input   59.86 | X-H torsion
[ 10167 10162 10161 10158 ] final   69.75 input  -65.29 | X-H torsion
[ 10718 10713 10712 10709 ] final   70.17 input   66.30 | X-H torsion
[ 10763 10752 10751 10750 ] final  162.25 input  -60.55 | X-H torsion
[ 11005 11000 10999 10996 ] final  140.34 input  -57.11 | X-H torsion

> <Gold.Protein.ActiveResidues>
 VAL166  LYS551  ARG553  GLY616  TRP617  ASP618  TYR619  PRO620  LYS621  CYS622 
 ASP623  PHE694  ASN695  SER759  ASP760  ASP761  ALA762  ILE779  LEU786  VAL792 
 PHE793  MET794  SER795  GLU796  ALA797  LYS798  CYS799  TRP800  GLU811  SER814 

> <Gold.Protein.RotatedAtoms>
  151.8062  133.3376  159.3541 H   0  0  0  0  0  0  0  0  0  0  0  0  # atno 6907 bound_to 6896
  150.7341  134.5707  159.5898 H   0  0  0  0  0  0  0  0  0  0  0  0  # atno 6908 bound_to 6896
  152.3107  134.7501  160.0388 H   0  0  0  0  0  0  0  0  0  0  0  0  # atno 6909 bound_to 6896
  146.2411  140.1496  142.8334 H   0  0  0  0  0  0  0  0  0  0  0  0  # atno 7974 bound_to 7965
  154.6333  140.0600  156.9759 H   0  0  0  0  0  0  0  0  0  0  0  0  # atno 8008 bound_to 7997
  155.1630  140.3284  155.4389 H   0  0  0  0  0  0  0  0  0  0  0  0  # atno 8009 bound_to 7997
  156.2494  140.1927  156.6737 H   0  0  0  0  0  0  0  0  0  0  0  0  # atno 8010 bound_to 7997
  140.0644  144.5206  150.7271 H   0  0  0  0  0  0  0  0  0  0  0  0  # atno 10167 bound_to 10162
  157.6386  130.9463  150.0614 H   0  0  0  0  0  0  0  0  0  0  0  0  # atno 10718 bound_to 10713
  154.2755  135.2764  155.2720 H   0  0  0  0  0  0  0  0  0  0  0  0  # atno 10763 bound_to 10752
  154.5264  135.5742  153.6726 H   0  0  0  0  0  0  0  0  0  0  0  0  # atno 10764 bound_to 10752
  152.9938  135.6217  154.2912 H   0  0  0  0  0  0  0  0  0  0  0  0  # atno 10765 bound_to 10752
  140.0320  134.9347  157.0680 H   0  0  0  0  0  0  0  0  0  0  0  0  # atno 11005 bound_to 11000
  145.0179  140.8769  143.5184 LP  0  0  0  0  0  0  0  0  0  0  0  0  # atno 17320 bound_to 7965
  145.1539  139.2498  143.5426 LP  0  0  0  0  0  0  0  0  0  0  0  0  # atno 17321 bound_to 7965
  140.7156  143.2542  151.4444 LP  0  0  0  0  0  0  0  0  0  0  0  0  # atno 17342 bound_to 10162
  139.5874  144.1574  152.2046 LP  0  0  0  0  0  0  0  0  0  0  0  0  # atno 17343 bound_to 10162
  156.1646  130.3644  149.9251 LP  0  0  0  0  0  0  0  0  0  0  0  0  # atno 17370 bound_to 10713
  156.7241  130.9018  151.3620 LP  0  0  0  0  0  0  0  0  0  0  0  0  # atno 17371 bound_to 10713
  140.4210  134.1880  155.7164 LP  0  0  0  0  0  0  0  0  0  0  0  0  # atno 17394 bound_to 11000
  141.1836  133.8361  157.1169 LP  0  0  0  0  0  0  0  0  0  0  0  0  # atno 17395 bound_to 11000

$$$$
