AV-unprocessed.smi:1947|AV-procd|sdf|7867|dock10
  -GOLD-   2272010 13D 1   1.00000     0.00000
 Structure written by MMmdl.
 39 40  0  0  0  0  0  0  0  0  1 V2000
  151.9166  138.4464  154.6951 C   0  0  0  0  0  0  0  0  0  0  0  0
  150.7699  139.4553  154.5195 C   0  0  2  0  0  0  0  0  0  0  0  0
  150.5526  140.3038  155.7879 C   0  0  0  0  0  0  0  0  0  0  0  0
  149.4223  141.3272  155.5927 C   0  0  0  0  0  0  0  0  0  0  0  0
  148.1157  140.6417  155.1646 C   0  0  0  0  0  0  0  0  0  0  0  0
  148.3188  139.7886  153.9009 C   0  0  0  0  0  0  0  0  0  0  0  0
  149.4589  138.7680  154.0780 C   0  0  2  0  0  0  0  0  0  0  0  0
  149.0782  137.8287  155.0753 O   0  0  0  0  0  0  0  0  0  0  0  0
  149.6117  136.5278  154.8882 C   0  0  0  0  0  0  0  0  0  0  0  0
  150.0606  135.9753  156.2503 C   0  0  0  0  0  0  0  0  0  0  0  0
  149.1448  136.3591  157.3200 N   0  0  0  0  0  0  0  0  0  0  0  0
  148.6501  135.5344  158.2533 C   0  0  0  0  0  0  0  0  0  0  0  0
  148.8604  134.3217  158.2695 O   0  0  0  0  0  0  0  0  0  0  0  0
  147.9164  136.2090  159.1526 N   0  0  0  0  0  0  0  0  0  0  0  0
  147.3159  135.7124  160.3358 C   0  0  0  0  0  0  0  0  0  0  0  0
  146.7339  136.5907  161.1609 N   0  0  0  0  0  0  0  0  0  0  0  0
  146.1953  135.9727  162.2830 N   0  0  0  0  0  0  0  0  0  0  0  0
  146.3945  134.6513  162.2605 C   0  0  0  0  0  0  0  0  0  0  0  0
  147.2606  134.0291  160.8669 S   0  0  0  0  0  0  0  0  0  0  0  0
  151.7093  137.7403  155.4995 H   0  0  0  0  0  0  0  0  0  0  0  0
  152.8517  138.9533  154.9341 H   0  0  0  0  0  0  0  0  0  0  0  0
  152.0770  137.8716  153.7826 H   0  0  0  0  0  0  0  0  0  0  0  0
  151.0657  140.1353  153.7192 H   0  0  0  0  0  0  0  0  0  0  0  0
  150.3163  139.6550  156.6325 H   0  0  0  0  0  0  0  0  0  0  0  0
  151.4741  140.8248  156.0499 H   0  0  0  0  0  0  0  0  0  0  0  0
  149.2635  141.8854  156.5158 H   0  0  0  0  0  0  0  0  0  0  0  0
  149.7167  142.0565  154.8372 H   0  0  0  0  0  0  0  0  0  0  0  0
  147.7510  140.0121  155.9773 H   0  0  0  0  0  0  0  0  0  0  0  0
  147.3440  141.3908  154.9864 H   0  0  0  0  0  0  0  0  0  0  0  0
  147.3918  139.2746  153.6456 H   0  0  0  0  0  0  0  0  0  0  0  0
  148.5483  140.4426  153.0589 H   0  0  0  0  0  0  0  0  0  0  0  0
  149.6383  138.2707  153.1226 H   0  0  0  0  0  0  0  0  0  0  0  0
  148.8594  135.8741  154.4448 H   0  0  0  0  0  0  0  0  0  0  0  0
  150.4576  136.5657  154.2003 H   0  0  0  0  0  0  0  0  0  0  0  0
  150.0942  134.8863  156.2113 H   0  0  0  0  0  0  0  0  0  0  0  0
  151.0716  136.3121  156.4843 H   0  0  0  0  0  0  0  0  0  0  0  0
  148.9148  137.3399  157.3847 H   0  0  0  0  0  0  0  0  0  0  0  0
  147.8074  137.2000  158.9941 H   0  0  0  0  0  0  0  0  0  0  0  0
  146.0297  134.0389  163.0718 H   0  0  0  0  0  0  0  0  0  0  0  0
  1  2  1  0  0  0  0
  1 20  1  0  0  0  0
  1 21  1  0  0  0  0
  1 22  1  0  0  0  0
  2  7  1  0  0  0  0
  2  3  1  0  0  0  0
  2 23  1  0  0  0  0
  3  4  1  0  0  0  0
  3 24  1  0  0  0  0
  3 25  1  0  0  0  0
  4  5  1  0  0  0  0
  4 26  1  0  0  0  0
  4 27  1  0  0  0  0
  5  6  1  0  0  0  0
  5 28  1  0  0  0  0
  5 29  1  0  0  0  0
  6  7  1  0  0  0  0
  6 30  1  0  0  0  0
  6 31  1  0  0  0  0
  7  8  1  0  0  0  0
  7 32  1  0  0  0  0
  8  9  1  0  0  0  0
  9 10  1  0  0  0  0
  9 33  1  0  0  0  0
  9 34  1  0  0  0  0
 10 11  1  0  0  0  0
 10 35  1  0  0  0  0
 10 36  1  0  0  0  0
 11 12  1  0  0  0  0
 11 37  1  0  0  0  0
 12 13  2  0  0  0  0
 12 14  1  0  0  0  0
 14 15  1  0  0  0  0
 14 38  1  0  0  0  0
 15 19  1  0  0  0  0
 15 16  2  0  0  0  0
 16 17  1  0  0  0  0
 17 18  2  0  0  0  0
 18 19  1  0  0  0  0
 18 39  1  0  0  0  0
M  END
> <s_m_source_file>
AV-unprocessed.smi

> <i_m_source_file_index>
1947

> <i_lp_mmshare_version>
43012

> <i_f3d_flags>
0

> <s_epik_input>
W0NIM11bQ0BASF0xW0NIMl1bQ0gyXVtDSDJdW0NIMl1bQ0BIXTFPW0NIMl1bQ0gyXVtOSF1DKD1PKVtOSF1jMm5uW2NIXXMy

> <s_epik_cmdline>
J2VwaWtfcHl0aG9uJywgJy1waCcsICc3LjAnLCAnLXRuJywgJzgnLCAnLW1hJywgJzIwMCcsICctbWV0YWxfYmluZGluZycsICctaW1hZScsICc8aW5maWxlLm1hZT4nLCAnLW9tYWUnLCAnPG91dGZpbGUubWFlPic=

> <r_lp_tautomer_probability>
1

> <r_epik_Ionization_Penalty>
0.00220897

> <r_epik_Ionization_Penalty_Charging>
0

> <r_epik_Ionization_Penalty_Neutral>
0.00220897

> <r_epik_State_Penalty>
-0

> <r_epik_Charging_Adjusted_Penalty>
0

> <i_epik_Tot_Q>
0

> <i_epik_Tot_abs_Q>
0

> <r_epik_Metal_State_Penalty>
0.345002

> <b_epik_Metal_Only>
0

> <s_lp_Force_Field>
OPLS_2005

> <r_lp_Energy>
8.93842

> <b_lp_Chiralities_Consistent>
1

> <s_lp_Variant>
AV-unprocessed.smi:1947-3

> <Gold.Version>
5.8.1

> <Gold.Id.Protein>
6NUR|6NUR_protein|mol2

> <Gold.PLP.Fitness>
38.3252

> <Gold.PLP.PLP>
-31.7121

> <Gold.PLP.part.hbond>
-3.0000

> <Gold.PLP.part.metal>
0.0000

> <Gold.PLP.part.buried>
-0.6282

> <Gold.PLP.part.nonpolar>
-27.1034

> <Gold.PLP.part.repulsive>
0.3243

> <Gold.PLP.ligand.clash>
0.0000

> <Gold.PLP.ligand.torsion>
0.8685

> <Gold.PLP.Chemscore.Hbond>
2.7760

> <Gold.PLP.Chemscore.CHOScore>
0.0000

> <Gold.PLP.Chemscore.Metal>
0.0000

> <Gold.Chemscore.Hbonds>
donor molecule, donor type, donor heavy atom, donor atom, acceptor molecule, acceptor atom, score
      P1  H  6896  6908       L1    13  0.81

> <Gold.PLP.Chemscore.Internal.Correction>
0.0221

> <Gold.Rescore>
     Score         DG    S(hbond)    S(metal)    S(lipo)     H(rot)  DE(clash)    DE(int)     intcor
     13.69     -15.61       2.02        0.00      71.42       1.94       0.22       1.69       ----

> <Gold.Chemscore.Fitness>
13.6922

> <Gold.Chemscore.DG>
-15.6073

> <Gold.Chemscore.ZeroCoef>
-5.4800

> <Gold.Chemscore.Hbond>
2.0159

> <Gold.Chemscore.Metal>
0.0000

> <Gold.Chemscore.Lipo>
71.4250

> <Gold.Chemscore.Internal_Hbond>
0.0000

> <Gold.Chemscore.DEClash>
0.2221

> <Gold.Chemscore.DEInternal>
1.6930

> <Gold.Chemscore.Rot>
1.9385

> <Gold.Chemscore.Internal.Correction>
   9.000000E+99

> <Gold.Chemscore.Hbonds>
donor molecule, donor type, donor heavy atom, donor atom, acceptor molecule, acceptor atom, score
      P1  H  6896  6908       L1    13  0.32
      P1  H  6934  6947       L1    16  0.03

> <Gold.Chemscore.Hbond.Weighted>
-6.7331

> <Gold.Chemscore.Metal.Weighted>
-0.0000

> <Gold.Chemscore.Lipo.Weighted>
-8.3567

> <Gold.Chemscore.Internal_Hbond.Weighted>
0.0000

> <Gold.Chemscore.DEClash.Weighted>
0.2221

> <Gold.Chemscore.DEInternal.Weighted>
1.6930

> <Gold.Chemscore.Rot.Weighted>
4.9625

> <Gold.Chemscore.Internal.Correction.Weighted>
   9.000000E+99

> <Gold.Protein.RotatedTorsions>
[ 6907 6896 6895 6894 ] final  144.32 input  -60.11 | X-H torsion
[ 7974 7965 7964 7962 ] final -153.90 input  175.53 | X-H torsion
[ 8008 7997 7996 7995 ] final -177.84 input   59.86 | X-H torsion
[ 10167 10162 10161 10158 ] final  102.85 input  -65.29 | X-H torsion
[ 10718 10713 10712 10709 ] final -171.39 input   66.30 | X-H torsion
[ 10763 10752 10751 10750 ] final  -40.25 input  -60.55 | X-H torsion
[ 11005 11000 10999 10996 ] final -107.48 input  -57.11 | X-H torsion

> <Gold.Protein.ActiveResidues>
 VAL166  LYS551  ARG553  GLY616  TRP617  ASP618  TYR619  PRO620  LYS621  CYS622 
 ASP623  PHE694  ASN695  SER759  ASP760  ASP761  ALA762  ILE779  LEU786  VAL792 
 PHE793  MET794  SER795  GLU796  ALA797  LYS798  CYS799  TRP800  GLU811  SER814 

> <Gold.Protein.RotatedAtoms>
  152.1952  133.4801  159.5028 H   0  0  0  0  0  0  0  0  0  0  0  0  # atno 6907 bound_to 6896
  150.6959  134.1661  159.4204 H   0  0  0  0  0  0  0  0  0  0  0  0  # atno 6908 bound_to 6896
  151.9577  135.0138  160.0596 H   0  0  0  0  0  0  0  0  0  0  0  0  # atno 6909 bound_to 6896
  144.7717  140.4462  143.5902 H   0  0  0  0  0  0  0  0  0  0  0  0  # atno 7974 bound_to 7965
  156.0118  140.1242  157.0446 H   0  0  0  0  0  0  0  0  0  0  0  0  # atno 8008 bound_to 7997
  154.4278  140.1086  156.5909 H   0  0  0  0  0  0  0  0  0  0  0  0  # atno 8009 bound_to 7997
  155.6069  140.3471  155.4613 H   0  0  0  0  0  0  0  0  0  0  0  0  # atno 8010 bound_to 7997
  139.7314  144.7035  151.0717 H   0  0  0  0  0  0  0  0  0  0  0  0  # atno 10167 bound_to 10162
  156.7402  130.9339  151.3109 H   0  0  0  0  0  0  0  0  0  0  0  0  # atno 10718 bound_to 10713
  153.9429  135.6759  153.4744 H   0  0  0  0  0  0  0  0  0  0  0  0  # atno 10763 bound_to 10752
  153.0922  135.4869  154.8709 H   0  0  0  0  0  0  0  0  0  0  0  0  # atno 10764 bound_to 10752
  154.7367  135.3151  154.8757 H   0  0  0  0  0  0  0  0  0  0  0  0  # atno 10765 bound_to 10752
  141.0951  133.8985  157.1981 H   0  0  0  0  0  0  0  0  0  0  0  0  # atno 11005 bound_to 11000
  145.6305  139.1536  143.2971 LP  0  0  0  0  0  0  0  0  0  0  0  0  # atno 17320 bound_to 7965
  146.1868  140.6409  142.9164 LP  0  0  0  0  0  0  0  0  0  0  0  0  # atno 17321 bound_to 7965
  140.7772  143.5039  150.9737 LP  0  0  0  0  0  0  0  0  0  0  0  0  # atno 17342 bound_to 10162
  139.8727  143.7172  152.3165 LP  0  0  0  0  0  0  0  0  0  0  0  0  # atno 17343 bound_to 10162
  157.6821  130.9150  150.0294 LP  0  0  0  0  0  0  0  0  0  0  0  0  # atno 17370 bound_to 10713
  156.1469  130.3642  149.9496 LP  0  0  0  0  0  0  0  0  0  0  0  0  # atno 17371 bound_to 10713
  139.9786  135.0105  156.9694 LP  0  0  0  0  0  0  0  0  0  0  0  0  # atno 17394 bound_to 11000
  140.5158  134.0956  155.7280 LP  0  0  0  0  0  0  0  0  0  0  0  0  # atno 17395 bound_to 11000

$$$$
