AV-unprocessed.smi:1644|AV-procd|sdf|6597|dock10
  -GOLD-   22720 7303D 1   1.00000     0.00000
 Structure written by MMmdl.
 49 51  0  0  0  0  0  0  0  0  3 V2000
  147.3461  134.9868  161.7773 C   0  0  0  0  0  0  0  0  0  0  0  0
  148.1938  136.1684  161.2930 C   0  0  0  0  0  0  0  0  0  0  0  0
  148.6315  136.0165  159.8271 C   0  0  0  0  0  0  0  0  0  0  0  0
  149.4868  137.1973  159.3200 C   0  0  1  0  0  0  0  0  0  0  0  0
  150.9021  136.8938  159.3831 N   0  5  0  0  0  0  0  0  0  0  0  0
  151.4222  136.9877  158.1374 C   0  0  0  0  0  0  0  0  0  0  0  0
  152.5927  136.7916  157.8127 O   0  0  0  0  0  0  0  0  0  0  0  0
  150.4744  137.3215  157.2414 N   0  0  0  0  0  0  0  0  0  0  0  0
  150.6887  137.4605  155.7968 C   0  0  0  0  0  0  0  0  0  0  0  0
  150.6973  138.9417  155.3653 C   0  0  2  0  0  0  0  0  0  0  0  0
  150.9908  139.0066  153.9834 O   0  0  0  0  0  0  0  0  0  0  0  0
  151.7563  139.7557  156.1341 C   0  0  0  0  0  0  0  0  0  0  0  0
  151.2339  141.0322  156.6428 N   0  0  0  0  0  0  0  0  0  0  0  0
  150.3251  141.8782  156.0873 C   0  0  0  0  0  0  0  0  0  0  0  0
  150.1678  142.9294  156.9387 N   0  3  0  0  0  0  0  0  0  0  0  0
  150.9922  142.7539  158.0521 C   0  0  0  0  0  0  0  0  0  0  0  0
  151.1831  143.5483  159.1763 C   0  0  0  0  0  0  0  0  0  0  0  0
  152.1075  143.0892  160.1416 C   0  0  0  0  0  0  0  0  0  0  0  0
  152.3409  143.9350  161.3817 C   0  0  0  0  0  0  0  0  0  0  0  0
  152.8053  141.8670  159.9604 C   0  0  0  0  0  0  0  0  0  0  0  0
  153.8003  141.3851  161.0023 C   0  0  0  0  0  0  0  0  0  0  0  0
  152.5950  141.0723  158.8108 C   0  0  0  0  0  0  0  0  0  0  0  0
  151.6803  141.5388  157.8693 C   0  0  0  0  0  0  0  0  0  0  0  0
  149.2864  137.4526  157.8400 C   0  0  0  0  0  0  0  0  0  0  0  0
  148.2042  137.7177  157.3144 O   0  0  0  0  0  0  0  0  0  0  0  0
  147.0475  135.1233  162.8169 H   0  0  0  0  0  0  0  0  0  0  0  0
  147.9014  134.0508  161.7105 H   0  0  0  0  0  0  0  0  0  0  0  0
  146.4393  134.8829  161.1809 H   0  0  0  0  0  0  0  0  0  0  0  0
  147.6238  137.0907  161.4105 H   0  0  0  0  0  0  0  0  0  0  0  0
  149.0716  136.2647  161.9328 H   0  0  0  0  0  0  0  0  0  0  0  0
  149.1738  135.0776  159.7013 H   0  0  0  0  0  0  0  0  0  0  0  0
  147.7359  135.9302  159.2102 H   0  0  0  0  0  0  0  0  0  0  0  0
  149.2288  138.1080  159.8622 H   0  0  0  0  0  0  0  0  0  0  0  0
  151.6503  137.0040  155.5555 H   0  0  0  0  0  0  0  0  0  0  0  0
  149.9537  136.8886  155.2272 H   0  0  0  0  0  0  0  0  0  0  0  0
  149.7178  139.3902  155.5376 H   0  0  0  0  0  0  0  0  0  0  0  0
  150.1796  138.9317  153.5030 H   0  0  0  0  0  0  0  0  0  0  0  0
  152.0994  139.1889  157.0004 H   0  0  0  0  0  0  0  0  0  0  0  0
  152.6397  139.9415  155.5224 H   0  0  0  0  0  0  0  0  0  0  0  0
  149.8208  141.7399  155.1416 H   0  0  0  0  0  0  0  0  0  0  0  0
  150.6494  144.4784  159.3066 H   0  0  0  0  0  0  0  0  0  0  0  0
  152.0585  143.3840  162.2791 H   0  0  0  0  0  0  0  0  0  0  0  0
  151.7530  144.8530  161.3548 H   0  0  0  0  0  0  0  0  0  0  0  0
  153.3913  144.2155  161.4628 H   0  0  0  0  0  0  0  0  0  0  0  0
  154.2342  140.4237  160.7256 H   0  0  0  0  0  0  0  0  0  0  0  0
  153.3143  141.2642  161.9708 H   0  0  0  0  0  0  0  0  0  0  0  0
  154.6167  142.0994  161.1108 H   0  0  0  0  0  0  0  0  0  0  0  0
  153.1321  140.1461  158.6688 H   0  0  0  0  0  0  0  0  0  0  0  0
  149.5451  143.7089  156.7691 H   0  0  0  0  0  0  0  0  0  0  0  0
  1  2  1  0  0  0  0
  1 26  1  0  0  0  0
  1 27  1  0  0  0  0
  1 28  1  0  0  0  0
  2  3  1  0  0  0  0
  2 29  1  0  0  0  0
  2 30  1  0  0  0  0
  3  4  1  0  0  0  0
  3 31  1  0  0  0  0
  3 32  1  0  0  0  0
  4 24  1  0  0  0  0
  4  5  1  0  0  0  0
  4 33  1  0  0  0  0
  5  6  1  0  0  0  0
  6  7  2  0  0  0  0
  6  8  1  0  0  0  0
  8  9  1  0  0  0  0
  8 24  1  0  0  0  0
  9 10  1  0  0  0  0
  9 34  1  0  0  0  0
  9 35  1  0  0  0  0
 10 11  1  0  0  0  0
 10 12  1  0  0  0  0
 10 36  1  0  0  0  0
 11 37  1  0  0  0  0
 12 13  1  0  0  0  0
 12 38  1  0  0  0  0
 12 39  1  0  0  0  0
 13 23  1  0  0  0  0
 13 14  1  0  0  0  0
 14 15  2  0  0  0  0
 14 40  1  0  0  0  0
 15 16  1  0  0  0  0
 15 49  1  0  0  0  0
 16 23  2  0  0  0  0
 16 17  1  0  0  0  0
 17 18  2  0  0  0  0
 17 41  1  0  0  0  0
 18 19  1  0  0  0  0
 18 20  1  0  0  0  0
 19 42  1  0  0  0  0
 19 43  1  0  0  0  0
 19 44  1  0  0  0  0
 20 21  1  0  0  0  0
 20 22  2  0  0  0  0
 21 45  1  0  0  0  0
 21 46  1  0  0  0  0
 21 47  1  0  0  0  0
 22 23  1  0  0  0  0
 22 48  1  0  0  0  0
 24 25  2  0  0  0  0
M  CHG  1   5  -1
M  CHG  1  15   1
M  END
> <s_m_source_file>
AV-unprocessed.smi

> <i_m_source_file_index>
1644

> <i_lp_mmshare_version>
43012

> <i_f3d_flags>
0

> <s_epik_input>
W0NIM11bQ0gyXVtDSDJdW0NAQEhdMVtOSF1DKD1PKU4oQzE9TylbQ0gyXVtDQEhdKFtPSF0pW0NIMl1uKFtjSF1uMiljKGMyMylbY0hdYyhbQ0gzXSljKFtjSF0zKVtDSDNd

> <s_epik_cmdline>
J2VwaWtfcHl0aG9uJywgJy1waCcsICc3LjAnLCAnLXRuJywgJzgnLCAnLW1hJywgJzIwMCcsICctbWV0YWxfYmluZGluZycsICctaW1hZScsICc8aW5maWxlLm1hZT4nLCAnLW9tYWUnLCAnPG91dGZpbGUubWFlPic=

> <r_lp_tautomer_probability>
1

> <r_epik_Ionization_Penalty>
6.86868

> <r_epik_Ionization_Penalty_Charging>
6.86868

> <r_epik_Ionization_Penalty_Neutral>
5.84798e-07

> <r_epik_State_Penalty>
6.92818

> <r_epik_Charging_Adjusted_Penalty>
13.7969

> <i_epik_Tot_Q>
0

> <i_epik_Tot_abs_Q>
2

> <r_epik_Metal_State_Penalty>
2.98017

> <b_epik_Metal_Only>
1

> <s_lp_Force_Field>
OPLS_2005

> <r_lp_Energy>
23.8384

> <b_lp_Chiralities_Consistent>
1

> <s_lp_Variant>
AV-unprocessed.smi:1644-14

> <Gold.Version>
5.8.1

> <Gold.Id.Protein>
6NUR|6NUR_protein|mol2

> <Gold.PLP.Fitness>
57.3773

> <Gold.PLP.PLP>
-45.6381

> <Gold.PLP.part.hbond>
-2.9723

> <Gold.PLP.part.metal>
0.0000

> <Gold.PLP.part.buried>
-4.2503

> <Gold.PLP.part.nonpolar>
-39.1312

> <Gold.PLP.part.repulsive>
0.0260

> <Gold.PLP.ligand.clash>
0.0000

> <Gold.PLP.ligand.torsion>
1.6743

> <Gold.PLP.Chemscore.Hbond>
5.0000

> <Gold.PLP.Chemscore.CHOScore>
0.0000

> <Gold.PLP.Chemscore.Metal>
0.0000

> <Gold.Chemscore.Hbonds>
donor molecule, donor type, donor heavy atom, donor atom, acceptor molecule, acceptor atom, score
      L1  H    15    49       P1  8028  1.92
      P1  H  6896  6908       L1     5  1.86
      P1  H  7989  7998       L1    11  1.00

> <Gold.PLP.Chemscore.Internal.Correction>
0.0879

> <Gold.Rescore>
     Score         DG    S(hbond)    S(metal)    S(lipo)     H(rot)  DE(clash)    DE(int)     intcor
     18.14     -21.37       2.74        0.00     117.29       2.72       1.62       1.60       ----

> <Gold.Chemscore.Fitness>
18.1423

> <Gold.Chemscore.DG>
-21.3688

> <Gold.Chemscore.ZeroCoef>
-5.4800

> <Gold.Chemscore.Hbond>
2.7367

> <Gold.Chemscore.Metal>
0.0000

> <Gold.Chemscore.Lipo>
117.2915

> <Gold.Chemscore.Internal_Hbond>
0.0000

> <Gold.Chemscore.DEClash>
1.6220

> <Gold.Chemscore.DEInternal>
1.6046

> <Gold.Chemscore.Rot>
2.7245

> <Gold.Chemscore.Internal.Correction>
   9.000000E+99

> <Gold.Chemscore.Hbonds>
donor molecule, donor type, donor heavy atom, donor atom, acceptor molecule, acceptor atom, score
      L1  H    15    49       P1  8028  0.90
      P1  H  6896  6908       L1     5  0.18
      P1  H  7989  7998       L1    11  0.29

> <Gold.Chemscore.Hbond.Weighted>
-9.1405

> <Gold.Chemscore.Metal.Weighted>
-0.0000

> <Gold.Chemscore.Lipo.Weighted>
-13.7231

> <Gold.Chemscore.Internal_Hbond.Weighted>
0.0000

> <Gold.Chemscore.DEClash.Weighted>
1.6220

> <Gold.Chemscore.DEInternal.Weighted>
1.6046

> <Gold.Chemscore.Rot.Weighted>
6.9748

> <Gold.Chemscore.Internal.Correction.Weighted>
   9.000000E+99

> <Gold.Protein.RotatedTorsions>
[ 6907 6896 6895 6894 ] final -161.97 input  -60.11 | X-H torsion
[ 7974 7965 7964 7962 ] final  -35.25 input  175.53 | X-H torsion
[ 8008 7997 7996 7995 ] final  116.80 input   59.86 | X-H torsion
[ 10167 10162 10161 10158 ] final  127.23 input  -65.29 | X-H torsion
[ 10718 10713 10712 10709 ] final   37.14 input   66.30 | X-H torsion
[ 10763 10752 10751 10750 ] final  110.98 input  -60.55 | X-H torsion
[ 11005 11000 10999 10996 ] final -174.55 input  -57.11 | X-H torsion

> <Gold.Protein.ActiveResidues>
 VAL166  LYS551  ARG553  GLY616  TRP617  ASP618  TYR619  PRO620  LYS621  CYS622 
 ASP623  PHE694  ASN695  SER759  ASP760  ASP761  ALA762  ILE779  LEU786  VAL792 
 PHE793  MET794  SER795  GLU796  ALA797  LYS798  CYS799  TRP800  GLU811  SER814 

> <Gold.Protein.RotatedAtoms>
  151.3730  133.3848  159.2701 H   0  0  0  0  0  0  0  0  0  0  0  0  # atno 6907 bound_to 6896
  150.9636  134.9021  159.7756 H   0  0  0  0  0  0  0  0  0  0  0  0  # atno 6908 bound_to 6896
  152.5159  134.3690  159.9363 H   0  0  0  0  0  0  0  0  0  0  0  0  # atno 6909 bound_to 6896
  146.0762  140.6136  142.8929 H   0  0  0  0  0  0  0  0  0  0  0  0  # atno 7974 bound_to 7965
  156.2459  140.2910  156.0580 H   0  0  0  0  0  0  0  0  0  0  0  0  # atno 8008 bound_to 7997
  155.1807  140.0404  157.2899 H   0  0  0  0  0  0  0  0  0  0  0  0  # atno 8009 bound_to 7997
  154.6261  140.2488  155.7497 H   0  0  0  0  0  0  0  0  0  0  0  0  # atno 8010 bound_to 7997
  139.5589  144.6868  151.4100 H   0  0  0  0  0  0  0  0  0  0  0  0  # atno 10167 bound_to 10162
  157.3434  130.7560  149.6927 H   0  0  0  0  0  0  0  0  0  0  0  0  # atno 10718 bound_to 10713
  153.4567  135.3731  155.2315 H   0  0  0  0  0  0  0  0  0  0  0  0  # atno 10763 bound_to 10752
  154.8757  135.3899  154.3974 H   0  0  0  0  0  0  0  0  0  0  0  0  # atno 10764 bound_to 10752
  153.4541  135.7086  153.6155 H   0  0  0  0  0  0  0  0  0  0  0  0  # atno 10765 bound_to 10752
  140.4733  134.6145  157.4890 H   0  0  0  0  0  0  0  0  0  0  0  0  # atno 11005 bound_to 11000
  144.7263  140.4535  143.6970 LP  0  0  0  0  0  0  0  0  0  0  0  0  # atno 17320 bound_to 7965
  145.6301  139.1535  143.2974 LP  0  0  0  0  0  0  0  0  0  0  0  0  # atno 17321 bound_to 7965
  140.6866  143.7958  150.7195 LP  0  0  0  0  0  0  0  0  0  0  0  0  # atno 17342 bound_to 10162
  140.1428  143.4426  152.2182 LP  0  0  0  0  0  0  0  0  0  0  0  0  # atno 17343 bound_to 10162
  155.9711  130.4161  150.4215 LP  0  0  0  0  0  0  0  0  0  0  0  0  # atno 17370 bound_to 10713
  157.2266  131.0494  151.2516 LP  0  0  0  0  0  0  0  0  0  0  0  0  # atno 17371 bound_to 10713
  139.9872  134.7043  155.9753 LP  0  0  0  0  0  0  0  0  0  0  0  0  # atno 17394 bound_to 11000
  141.1567  133.6542  156.4183 LP  0  0  0  0  0  0  0  0  0  0  0  0  # atno 17395 bound_to 11000

$$$$
