AV-unprocessed.smi:1480|AV-procd|sdf|5985|dock1
  -GOLD-   22720 6 73D 1   1.00000     0.00000
 Structure written by MMmdl.
 37 38  0  0  0  0  0  0  0  0  1 V2000
  152.8034  143.1438  160.7928 C   0  0  0  0  0  0  0  0  0  0  0  0
  152.2833  142.6316  159.5238 N   0  0  0  0  0  0  0  0  0  0  0  0
  152.0044  141.1887  159.5042 C   0  0  0  0  0  0  0  0  0  0  0  0
  151.0939  140.7549  158.3482 C   0  0  0  0  0  0  0  0  0  0  0  0
  151.5887  141.3657  157.0310 C   0  0  1  0  0  0  0  0  0  0  0  0
  150.7264  140.8892  155.8529 C   0  0  0  0  0  0  0  0  0  0  0  0
  151.1997  140.1062  155.0290 O   0  0  0  0  0  0  0  0  0  0  0  0
  149.4753  141.3826  155.8078 N   0  0  0  0  0  0  0  0  0  0  0  0
  148.4574  141.1331  154.8510 C   0  0  0  0  0  0  0  0  0  0  0  0
  147.5398  142.0925  154.3267 C   0  0  0  0  0  0  0  0  0  0  0  0
  146.7812  141.3583  153.4605 C   0  0  0  0  0  0  0  0  0  0  0  0
  147.2490  140.0595  153.4941 N   0  0  0  0  0  0  0  0  0  0  0  0
  146.7667  138.9078  152.7513 C   0  0  0  0  0  0  0  0  0  0  0  0
  146.2163  137.8287  153.6875 C   0  0  0  0  0  0  0  0  0  0  0  0
  146.8280  136.6416  153.6756 N   0  0  0  0  0  0  0  0  0  0  0  0
  145.2527  138.0621  154.4142 O   0  0  0  0  0  0  0  0  0  0  0  0
  148.2796  139.9198  154.3569 N   0  0  0  0  0  0  0  0  0  0  0  0
  151.5795  142.9041  157.1379 C   0  0  0  0  0  0  0  0  0  0  0  0
  152.1592  143.4527  158.4528 C   0  0  0  0  0  0  0  0  0  0  0  0
  152.4678  144.6440  158.4954 O   0  0  0  0  0  0  0  0  0  0  0  0
  153.7759  143.6174  160.6503 H   0  0  0  0  0  0  0  0  0  0  0  0
  152.9345  142.3543  161.5339 H   0  0  0  0  0  0  0  0  0  0  0  0
  152.1215  143.8836  161.2141 H   0  0  0  0  0  0  0  0  0  0  0  0
  152.9582  140.6644  159.4331 H   0  0  0  0  0  0  0  0  0  0  0  0
  151.5492  140.8817  160.4469 H   0  0  0  0  0  0  0  0  0  0  0  0
  151.0701  139.6659  158.2868 H   0  0  0  0  0  0  0  0  0  0  0  0
  150.0717  141.0776  158.5530 H   0  0  0  0  0  0  0  0  0  0  0  0
  152.6170  141.0372  156.8658 H   0  0  0  0  0  0  0  0  0  0  0  0
  149.2180  142.0113  156.5546 H   0  0  0  0  0  0  0  0  0  0  0  0
  147.4391  143.1462  154.5381 H   0  0  0  0  0  0  0  0  0  0  0  0
  145.9565  141.6494  152.8266 H   0  0  0  0  0  0  0  0  0  0  0  0
  145.9817  139.2194  152.0603 H   0  0  0  0  0  0  0  0  0  0  0  0
  147.5876  138.5166  152.1486 H   0  0  0  0  0  0  0  0  0  0  0  0
  146.5019  135.8983  154.2758 H   0  0  0  0  0  0  0  0  0  0  0  0
  147.6175  136.4923  153.0641 H   0  0  0  0  0  0  0  0  0  0  0  0
  152.1361  143.3333  156.3037 H   0  0  0  0  0  0  0  0  0  0  0  0
  150.5610  143.2875  157.0567 H   0  0  0  0  0  0  0  0  0  0  0  0
  1  2  1  0  0  0  0
  1 21  1  0  0  0  0
  1 22  1  0  0  0  0
  1 23  1  0  0  0  0
  2 19  1  0  0  0  0
  2  3  1  0  0  0  0
  3  4  1  0  0  0  0
  3 24  1  0  0  0  0
  3 25  1  0  0  0  0
  4  5  1  0  0  0  0
  4 26  1  0  0  0  0
  4 27  1  0  0  0  0
  5  6  1  0  0  0  0
  5 18  1  0  0  0  0
  5 28  1  0  0  0  0
  6  7  2  0  0  0  0
  6  8  1  0  0  0  0
  8  9  1  0  0  0  0
  8 29  1  0  0  0  0
  9 17  2  0  0  0  0
  9 10  1  0  0  0  0
 10 11  2  0  0  0  0
 10 30  1  0  0  0  0
 11 12  1  0  0  0  0
 11 31  1  0  0  0  0
 12 13  1  0  0  0  0
 12 17  1  0  0  0  0
 13 14  1  0  0  0  0
 13 32  1  0  0  0  0
 13 33  1  0  0  0  0
 14 15  1  0  0  0  0
 14 16  2  0  0  0  0
 15 34  1  0  0  0  0
 15 35  1  0  0  0  0
 18 19  1  0  0  0  0
 18 36  1  0  0  0  0
 18 37  1  0  0  0  0
 19 20  2  0  0  0  0
M  END
> <s_m_source_file>
AV-unprocessed.smi

> <i_m_source_file_index>
1480

> <i_lp_mmshare_version>
43012

> <i_f3d_flags>
0

> <s_epik_input>
W0NIM11OMVtDSDJdW0NIMl1bQ0BIXShbQ0gyXUMxPU8pQyg9TylbTkhdYzJbY0hdW2NIXW4objIpW0NIMl1DKD1PKVtOSDJd

> <s_epik_cmdline>
J2VwaWtfcHl0aG9uJywgJy1waCcsICc3LjAnLCAnLXRuJywgJzgnLCAnLW1hJywgJzIwMCcsICctbWV0YWxfYmluZGluZycsICctaW1hZScsICc8aW5maWxlLm1hZT4nLCAnLW9tYWUnLCAnPG91dGZpbGUubWFlPic=

> <r_lp_tautomer_probability>
1

> <r_epik_Ionization_Penalty>
3.93272e-06

> <r_epik_Ionization_Penalty_Charging>
0

> <r_epik_Ionization_Penalty_Neutral>
3.93272e-06

> <r_epik_State_Penalty>
-0

> <r_epik_Charging_Adjusted_Penalty>
0

> <i_epik_Tot_Q>
0

> <i_epik_Tot_abs_Q>
0

> <r_epik_Metal_State_Penalty>
-0

> <b_epik_Metal_Only>
0

> <s_lp_Force_Field>
OPLS_2005

> <r_lp_Energy>
17.1692

> <b_lp_Chiralities_Consistent>
1

> <s_lp_Variant>
AV-unprocessed.smi:1480-1

> <Gold.Version>
5.8.1

> <Gold.Id.Protein>
6NUR|6NUR_protein|mol2

> <Gold.PLP.Fitness>
44.5200

> <Gold.PLP.PLP>
-37.9652

> <Gold.PLP.part.hbond>
-2.0000

> <Gold.PLP.part.metal>
0.0000

> <Gold.PLP.part.buried>
-7.1005

> <Gold.PLP.part.nonpolar>
-29.7884

> <Gold.PLP.part.repulsive>
0.3794

> <Gold.PLP.ligand.clash>
0.0000

> <Gold.PLP.ligand.torsion>
0.4921

> <Gold.PLP.Chemscore.Hbond>
2.0000

> <Gold.PLP.Chemscore.CHOScore>
0.5059

> <Gold.PLP.Chemscore.Metal>
0.0000

> <Gold.Chemscore.Hbonds>
donor molecule, donor type, donor heavy atom, donor atom, acceptor molecule, acceptor atom, score
      L1  H    15    35       P1  7948  1.00
      P1  H  7989  7998       L1     7  1.00
      L1  C    11    31       P1 10175  0.35

> <Gold.PLP.Chemscore.Internal.Correction>
0.0212

> <Gold.Rescore>
     Score         DG    S(hbond)    S(metal)    S(lipo)     H(rot)  DE(clash)    DE(int)     intcor
     13.53     -14.19       1.93        0.00      63.55       2.03       0.05       0.60       ----

> <Gold.Chemscore.Fitness>
13.5300

> <Gold.Chemscore.DG>
-14.1882

> <Gold.Chemscore.ZeroCoef>
-5.4800

> <Gold.Chemscore.Hbond>
1.9347

> <Gold.Chemscore.Metal>
0.0000

> <Gold.Chemscore.Lipo>
63.5465

> <Gold.Chemscore.Internal_Hbond>
0.0000

> <Gold.Chemscore.DEClash>
0.0549

> <Gold.Chemscore.DEInternal>
0.6033

> <Gold.Chemscore.Rot>
2.0269

> <Gold.Chemscore.Internal.Correction>
   9.000000E+99

> <Gold.Chemscore.Hbonds>
donor molecule, donor type, donor heavy atom, donor atom, acceptor molecule, acceptor atom, score
      L1  H    15    35       P1  7948  1.00
      P1  H  7989  7998       L1     7  0.85

> <Gold.Chemscore.Hbond.Weighted>
-6.4621

> <Gold.Chemscore.Metal.Weighted>
-0.0000

> <Gold.Chemscore.Lipo.Weighted>
-7.4349

> <Gold.Chemscore.Internal_Hbond.Weighted>
0.0000

> <Gold.Chemscore.DEClash.Weighted>
0.0549

> <Gold.Chemscore.DEInternal.Weighted>
0.6033

> <Gold.Chemscore.Rot.Weighted>
5.1888

> <Gold.Chemscore.Internal.Correction.Weighted>
   9.000000E+99

> <Gold.Protein.RotatedTorsions>
[ 6907 6896 6895 6894 ] final -134.48 input  -60.11 | X-H torsion
[ 7974 7965 7964 7962 ] final   14.76 input  175.53 | X-H torsion
[ 8008 7997 7996 7995 ] final   88.90 input   59.86 | X-H torsion
[ 10167 10162 10161 10158 ] final   81.78 input  -65.29 | X-H torsion
[ 10718 10713 10712 10709 ] final   38.74 input   66.30 | X-H torsion
[ 10763 10752 10751 10750 ] final -100.69 input  -60.55 | X-H torsion
[ 11005 11000 10999 10996 ] final   13.56 input  -57.11 | X-H torsion

> <Gold.Protein.ActiveResidues>
 VAL166  LYS551  ARG553  GLY616  TRP617  ASP618  TYR619  PRO620  LYS621  CYS622 
 ASP623  PHE694  ASN695  SER759  ASP760  ASP761  ALA762  ILE779  LEU786  VAL792 
 PHE793  MET794  SER795  GLU796  ALA797  LYS798  CYS799  TRP800  GLU811  SER814 

> <Gold.Protein.RotatedAtoms>
  150.9864  133.6194  159.2714 H   0  0  0  0  0  0  0  0  0  0  0  0  # atno 6907 bound_to 6896
  151.3430  135.0867  159.9387 H   0  0  0  0  0  0  0  0  0  0  0  0  # atno 6908 bound_to 6896
  152.5232  133.9471  159.7708 H   0  0  0  0  0  0  0  0  0  0  0  0  # atno 6909 bound_to 6896
  146.2296  139.8994  142.8542 H   0  0  0  0  0  0  0  0  0  0  0  0  # atno 7974 bound_to 7965
  155.9934  140.3366  155.6775 H   0  0  0  0  0  0  0  0  0  0  0  0  # atno 8008 bound_to 7997
  155.6389  140.0693  157.2643 H   0  0  0  0  0  0  0  0  0  0  0  0  # atno 8009 bound_to 7997
  154.4226  140.1746  156.1540 H   0  0  0  0  0  0  0  0  0  0  0  0  # atno 8010 bound_to 7997
  139.9357  144.6123  150.8301 H   0  0  0  0  0  0  0  0  0  0  0  0  # atno 10167 bound_to 10162
  157.3624  130.7656  149.7057 H   0  0  0  0  0  0  0  0  0  0  0  0  # atno 10718 bound_to 10713
  154.7599  135.4925  153.9444 H   0  0  0  0  0  0  0  0  0  0  0  0  # atno 10763 bound_to 10752
  153.1239  135.6738  153.9297 H   0  0  0  0  0  0  0  0  0  0  0  0  # atno 10764 bound_to 10752
  153.9021  135.3108  155.3427 H   0  0  0  0  0  0  0  0  0  0  0  0  # atno 10765 bound_to 10752
  140.4794  134.0950  155.7748 H   0  0  0  0  0  0  0  0  0  0  0  0  # atno 11005 bound_to 11000
  145.2338  140.9983  143.3975 LP  0  0  0  0  0  0  0  0  0  0  0  0  # atno 17320 bound_to 7965
  144.9508  139.4085  143.6403 LP  0  0  0  0  0  0  0  0  0  0  0  0  # atno 17321 bound_to 7965
  140.7625  143.3200  151.2645 LP  0  0  0  0  0  0  0  0  0  0  0  0  # atno 17342 bound_to 10162
  139.6745  143.9961  152.2773 LP  0  0  0  0  0  0  0  0  0  0  0  0  # atno 17343 bound_to 10162
  155.9740  130.4110  150.3959 LP  0  0  0  0  0  0  0  0  0  0  0  0  # atno 17370 bound_to 10713
  157.2038  131.0444  151.2636 LP  0  0  0  0  0  0  0  0  0  0  0  0  # atno 17371 bound_to 10713
  141.1538  133.8919  157.2029 LP  0  0  0  0  0  0  0  0  0  0  0  0  # atno 17394 bound_to 11000
  139.9836  135.0090  156.9808 LP  0  0  0  0  0  0  0  0  0  0  0  0  # atno 17395 bound_to 11000

$$$$
