AV-unprocessed.smi:40|AV-procd|sdf|377|dock8
  -GOLD-   2262016233D 1   1.00000     0.00000
 Structure written by MMmdl.
 47 48  0  0  0  0  0  0  0  0  1 V2000
  151.8198  145.4617  159.7121 C   0  0  0  0  0  0  0  0  0  0  0  0
  151.7671  144.7813  158.3400 C   0  0  0  0  0  0  0  0  0  0  0  0
  151.6343  143.2551  158.4440 C   0  0  0  0  0  0  0  0  0  0  0  0
  152.8113  142.6097  159.1874 C   0  0  0  0  0  0  0  0  0  0  0  0
  152.5846  141.1123  159.4475 C   0  0  0  0  0  0  0  0  0  0  0  0
  152.1946  140.4442  158.2554 O   0  0  0  0  0  0  0  0  0  0  0  0
  151.5359  139.2656  158.3042 C   0  0  0  0  0  0  0  0  0  0  0  0
  151.0250  138.8021  159.3237 O   0  0  0  0  0  0  0  0  0  0  0  0
  151.5479  138.5926  157.0168 N   0  0  0  0  0  0  0  0  0  0  0  0
  150.9977  137.4025  156.6766 C   0  0  0  0  0  0  0  0  0  0  0  0
  150.3445  136.6483  157.5473 N   0  0  0  0  0  0  0  0  0  0  0  0
  149.7900  135.4338  157.2426 C   0  0  0  0  0  0  0  0  0  0  0  0
  149.1740  134.7936  158.0932 O   0  0  0  0  0  0  0  0  0  0  0  0
  149.9478  134.9642  155.9174 N   0  0  0  0  0  0  0  0  0  0  0  0
  149.3562  133.6301  155.5179 C   0  0  2  0  0  0  0  0  0  0  0  0
  150.3844  132.8471  154.9875 O   0  0  0  0  0  0  0  0  0  0  0  0
  149.9242  132.1633  153.8295 C   0  0  1  0  0  0  0  0  0  0  0  0
  149.3695  130.7924  154.2627 C   0  0  0  0  0  0  0  0  0  0  0  0
  148.8976  133.1326  153.2271 C   0  0  1  0  0  0  0  0  0  0  0  0
  147.9559  132.4743  152.4024 O   0  0  0  0  0  0  0  0  0  0  0  0
  148.2422  133.7570  154.4520 C   0  0  2  0  0  0  0  0  0  0  0  0
  147.8291  135.0862  154.1855 O   0  0  0  0  0  0  0  0  0  0  0  0
  150.6418  135.7312  154.9943 C   0  0  0  0  0  0  0  0  0  0  0  0
  151.1764  136.9266  155.3217 C   0  0  0  0  0  0  0  0  0  0  0  0
  151.8474  137.6516  154.4100 F   0  0  0  0  0  0  0  0  0  0  0  0
  149.0045  133.1481  156.4307 H   0  0  0  0  0  0  0  0  0  0  0  0
  150.7569  132.0077  153.1429 H   0  0  0  0  0  0  0  0  0  0  0  0
  149.4236  133.8939  152.6486 H   0  0  0  0  0  0  0  0  0  0  0  0
  147.3895  133.1634  154.7851 H   0  0  0  0  0  0  0  0  0  0  0  0
  151.9181  146.5424  159.6059 H   0  0  0  0  0  0  0  0  0  0  0  0
  152.6698  145.1060  160.2952 H   0  0  0  0  0  0  0  0  0  0  0  0
  150.9132  145.2645  160.2849 H   0  0  0  0  0  0  0  0  0  0  0  0
  150.9289  145.1846  157.7706 H   0  0  0  0  0  0  0  0  0  0  0  0
  152.6691  145.0330  157.7811 H   0  0  0  0  0  0  0  0  0  0  0  0
  150.7039  143.0067  158.9563 H   0  0  0  0  0  0  0  0  0  0  0  0
  151.5601  142.8272  157.4435 H   0  0  0  0  0  0  0  0  0  0  0  0
  153.7253  142.7416  158.6073 H   0  0  0  0  0  0  0  0  0  0  0  0
  152.9681  143.1281  160.1342 H   0  0  0  0  0  0  0  0  0  0  0  0
  153.4762  140.6521  159.8764 H   0  0  0  0  0  0  0  0  0  0  0  0
  151.7873  140.9856  160.1798 H   0  0  0  0  0  0  0  0  0  0  0  0
  151.9979  139.1169  156.2805 H   0  0  0  0  0  0  0  0  0  0  0  0
  149.0314  130.2120  153.4041 H   0  0  0  0  0  0  0  0  0  0  0  0
  148.5287  130.8926  154.9495 H   0  0  0  0  0  0  0  0  0  0  0  0
  150.1395  130.2077  154.7663 H   0  0  0  0  0  0  0  0  0  0  0  0
  148.3680  132.2754  151.5755 H   0  0  0  0  0  0  0  0  0  0  0  0
  148.1781  135.3456  153.3469 H   0  0  0  0  0  0  0  0  0  0  0  0
  150.7624  135.3746  153.9817 H   0  0  0  0  0  0  0  0  0  0  0  0
  1  2  1  0  0  0  0
  1 30  1  0  0  0  0
  1 31  1  0  0  0  0
  1 32  1  0  0  0  0
  2  3  1  0  0  0  0
  2 33  1  0  0  0  0
  2 34  1  0  0  0  0
  3  4  1  0  0  0  0
  3 35  1  0  0  0  0
  3 36  1  0  0  0  0
  4  5  1  0  0  0  0
  4 37  1  0  0  0  0
  4 38  1  0  0  0  0
  5  6  1  0  0  0  0
  5 39  1  0  0  0  0
  5 40  1  0  0  0  0
  6  7  1  0  0  0  0
  7  8  2  0  0  0  0
  7  9  1  0  0  0  0
  9 10  1  0  0  0  0
  9 41  1  0  0  0  0
 10 24  1  0  0  0  0
 10 11  2  0  0  0  0
 11 12  1  0  0  0  0
 12 13  2  0  0  0  0
 12 14  1  0  0  0  0
 14 15  1  0  0  0  0
 14 23  1  0  0  0  0
 15 26  1  0  0  0  0
 15 21  1  0  0  0  0
 15 16  1  0  0  0  0
 16 17  1  0  0  0  0
 17 27  1  0  0  0  0
 17 18  1  0  0  0  0
 17 19  1  0  0  0  0
 18 42  1  0  0  0  0
 18 43  1  0  0  0  0
 18 44  1  0  0  0  0
 19 28  1  0  0  0  0
 19 20  1  0  0  0  0
 19 21  1  0  0  0  0
 20 45  1  0  0  0  0
 21 29  1  0  0  0  0
 21 22  1  0  0  0  0
 22 46  1  0  0  0  0
 23 24  2  0  0  0  0
 23 47  1  0  0  0  0
 24 25  1  0  0  0  0
M  END
> <s_m_source_file>
AV-unprocessed.smi

> <i_m_source_file_index>
40

> <i_lp_mmshare_version>
43012

> <i_f3d_flags>
0

> <s_epik_input>
W0NIM11bQ0gyXVtDSDJdW0NIMl1bQ0gyXU9DKD1PKVtOSF1jMW5jKD1PKW4oW2NIXWMxRilbQ0BASF0yT1tDQEhdKFtDSDNdKVtDQEBIXShbT0hdKVtDQEhdMltPSF0=

> <s_epik_cmdline>
J2VwaWtfcHl0aG9uJywgJy1waCcsICc3LjAnLCAnLXRuJywgJzgnLCAnLW1hJywgJzIwMCcsICctbWV0YWxfYmluZGluZycsICctaW1hZScsICc8aW5maWxlLm1hZT4nLCAnLW9tYWUnLCAnPG91dGZpbGUubWFlPic=

> <r_lp_tautomer_probability>
1

> <r_epik_Ionization_Penalty>
2.29506e-06

> <r_epik_Ionization_Penalty_Charging>
8.26867e-09

> <r_epik_Ionization_Penalty_Neutral>
2.2868e-06

> <r_epik_State_Penalty>
-0

> <r_epik_Charging_Adjusted_Penalty>
8.26867e-09

> <i_epik_Tot_Q>
0

> <i_epik_Tot_abs_Q>
0

> <r_epik_Metal_State_Penalty>
-0

> <b_epik_Metal_Only>
0

> <s_epik_Chemistry_Notes>
This compound has an ester and may undergo hydrolysis at high or low pH. This compound contains an acetal/aminal-like group ( X-CH(R)-Y where X, Y are N, S, or O) that may be acid/base labile, releasing an aldehyde.

> <s_lp_Force_Field>
OPLS_2005

> <r_lp_Energy>
38.4453

> <b_lp_Chiralities_Consistent>
1

> <s_lp_Variant>
AV-unprocessed.smi:40-11

> <Gold.Version>
5.8.1

> <Gold.Id.Protein>
6NUR|6NUR_protein|mol2

> <Gold.PLP.Fitness>
48.4519

> <Gold.PLP.PLP>
-38.7351

> <Gold.PLP.part.hbond>
-3.5921

> <Gold.PLP.part.metal>
0.0000

> <Gold.PLP.part.buried>
-4.8085

> <Gold.PLP.part.nonpolar>
-30.1187

> <Gold.PLP.part.repulsive>
0.0662

> <Gold.PLP.ligand.clash>
0.1036

> <Gold.PLP.ligand.torsion>
0.3622

> <Gold.PLP.Chemscore.Hbond>
2.9825

> <Gold.PLP.Chemscore.CHOScore>
0.4827

> <Gold.PLP.Chemscore.Metal>
0.0000

> <Gold.Chemscore.Hbonds>
donor molecule, donor type, donor heavy atom, donor atom, acceptor molecule, acceptor atom, score
      L1  H    20    45       P1 10747  0.96
      L1  H    22    46       P1  7948  1.00
      P1  H  6896  6908       L1    13  0.99
      L1  C    23    47       P1  7949  0.50

> <Gold.PLP.Chemscore.Internal.Correction>
0.1495

> <Gold.Rescore>
     Score         DG    S(hbond)    S(metal)    S(lipo)     H(rot)  DE(clash)    DE(int)     intcor
     12.22     -15.61       2.66        0.00      91.53       3.70       0.58       2.81       ----

> <Gold.Chemscore.Fitness>
12.2175

> <Gold.Chemscore.DG>
-15.6078

> <Gold.Chemscore.ZeroCoef>
-5.4800

> <Gold.Chemscore.Hbond>
2.6587

> <Gold.Chemscore.Metal>
0.0000

> <Gold.Chemscore.Lipo>
91.5267

> <Gold.Chemscore.Internal_Hbond>
0.0000

> <Gold.Chemscore.DEClash>
0.5773

> <Gold.Chemscore.DEInternal>
2.8130

> <Gold.Chemscore.Rot>
3.6957

> <Gold.Chemscore.Internal.Correction>
   9.000000E+99

> <Gold.Chemscore.Hbonds>
donor molecule, donor type, donor heavy atom, donor atom, acceptor molecule, acceptor atom, score
      L1  H    20    45       P1 10747  0.88
      L1  H    22    46       P1  7948  1.00
      P1  H  6896  6908       L1    13  0.37

> <Gold.Chemscore.Hbond.Weighted>
-8.8801

> <Gold.Chemscore.Metal.Weighted>
-0.0000

> <Gold.Chemscore.Lipo.Weighted>
-10.7086

> <Gold.Chemscore.Internal_Hbond.Weighted>
0.0000

> <Gold.Chemscore.DEClash.Weighted>
0.5773

> <Gold.Chemscore.DEInternal.Weighted>
2.8130

> <Gold.Chemscore.Rot.Weighted>
9.4610

> <Gold.Chemscore.Internal.Correction.Weighted>
   9.000000E+99

> <Gold.Protein.RotatedTorsions>
[ 6907 6896 6895 6894 ] final  148.61 input  -60.11 | X-H torsion
[ 7974 7965 7964 7962 ] final  -28.33 input  175.53 | X-H torsion
[ 8008 7997 7996 7995 ] final   -1.95 input   59.86 | X-H torsion
[ 10167 10162 10161 10158 ] final  -45.68 input  -65.29 | X-H torsion
[ 10718 10713 10712 10709 ] final   92.96 input   66.30 | X-H torsion
[ 10763 10752 10751 10750 ] final   64.52 input  -60.55 | X-H torsion
[ 11005 11000 10999 10996 ] final  179.56 input  -57.11 | X-H torsion

> <Gold.Protein.ActiveResidues>
 VAL166  LYS551  ARG553  GLY616  TRP617  ASP618  TYR619  PRO620  LYS621  CYS622 
 ASP623  PHE694  ASN695  SER759  ASP760  ASP761  ALA762  ILE779  LEU786  VAL792 
 PHE793  MET794  SER795  GLU796  ALA797  LYS798  CYS799  TRP800  GLU811  SER814 

> <Gold.Protein.RotatedAtoms>
  152.1392  133.4453  159.4758 H   0  0  0  0  0  0  0  0  0  0  0  0  # atno 6907 bound_to 6896
  150.6884  134.2326  159.4450 H   0  0  0  0  0  0  0  0  0  0  0  0  # atno 6908 bound_to 6896
  152.0216  134.9819  160.0621 H   0  0  0  0  0  0  0  0  0  0  0  0  # atno 6909 bound_to 6896
  146.1296  140.5268  142.8699 H   0  0  0  0  0  0  0  0  0  0  0  0  # atno 7974 bound_to 7965
  154.6411  140.2546  155.7321 H   0  0  0  0  0  0  0  0  0  0  0  0  # atno 8008 bound_to 7997
  156.2529  140.2887  156.0726 H   0  0  0  0  0  0  0  0  0  0  0  0  # atno 8009 bound_to 7997
  155.1595  140.0384  157.2829 H   0  0  0  0  0  0  0  0  0  0  0  0  # atno 8010 bound_to 7997
  140.6848  143.2867  151.3674 H   0  0  0  0  0  0  0  0  0  0  0  0  # atno 10167 bound_to 10162
  157.6957  131.0461  150.3960 H   0  0  0  0  0  0  0  0  0  0  0  0  # atno 10718 bound_to 10713
  153.0059  135.5390  154.6523 H   0  0  0  0  0  0  0  0  0  0  0  0  # atno 10763 bound_to 10752
  154.5752  135.2845  155.0789 H   0  0  0  0  0  0  0  0  0  0  0  0  # atno 10764 bound_to 10752
  154.1940  135.6495  153.5120 H   0  0  0  0  0  0  0  0  0  0  0  0  # atno 10765 bound_to 10752
  140.4075  134.6722  157.4596 H   0  0  0  0  0  0  0  0  0  0  0  0  # atno 11005 bound_to 11000
  144.7676  140.5566  143.6692 LP  0  0  0  0  0  0  0  0  0  0  0  0  # atno 17320 bound_to 7965
  145.5291  139.1475  143.3510 LP  0  0  0  0  0  0  0  0  0  0  0  0  # atno 17321 bound_to 7965
  139.6198  144.0930  152.2380 LP  0  0  0  0  0  0  0  0  0  0  0  0  # atno 17342 bound_to 10162
  140.0371  144.6036  150.7441 LP  0  0  0  0  0  0  0  0  0  0  0  0  # atno 17343 bound_to 10162
  156.4359  130.3981  149.6729 LP  0  0  0  0  0  0  0  0  0  0  0  0  # atno 17370 bound_to 10713
  156.3930  130.7637  151.2639 LP  0  0  0  0  0  0  0  0  0  0  0  0  # atno 17371 bound_to 10713
  140.0291  134.6432  155.9131 LP  0  0  0  0  0  0  0  0  0  0  0  0  # atno 17394 bound_to 11000
  141.1834  133.6550  156.5114 LP  0  0  0  0  0  0  0  0  0  0  0  0  # atno 17395 bound_to 11000

$$$$
