AV-unprocessed.smi:1762|AV-procd|sdf|7099|dock6
  -GOLD-   22720 8313D 1   1.00000     0.00000
 Structure written by MMmdl.
 52 53  0  0  0  0  0  0  0  0  1 V2000
  149.3771  134.5305  154.6826 C   0  0  0  0  0  0  0  0  0  0  0  0
  149.8729  135.9007  155.1581 C   0  0  2  0  0  0  0  0  0  0  0  0
  149.1690  137.0592  154.4281 C   0  0  0  0  0  0  0  0  0  0  0  0
  149.6925  138.3737  154.8150 N   0  0  0  0  0  0  0  0  0  0  0  0
  148.9627  139.5027  154.1722 C   0  0  2  0  0  0  0  0  0  0  0  0
  149.4225  140.8914  154.6762 C   0  0  0  0  0  0  0  0  0  0  0  0
  149.1361  141.9098  154.0456 O   0  0  0  0  0  0  0  0  0  0  0  0
  150.1070  140.9162  155.8310 N   0  0  0  0  0  0  0  0  0  0  0  0
  150.5877  142.1233  156.4918 C   0  0  0  0  0  0  0  0  0  0  0  0
  151.5507  141.7876  157.6429 C   0  0  0  0  0  0  0  0  0  0  0  0
  151.7514  142.9587  158.5854 C   0  0  0  0  0  0  0  0  0  0  0  0
  151.9699  144.2584  158.0808 C   0  0  0  0  0  0  0  0  0  0  0  0
  152.1557  145.3115  158.9970 C   0  0  0  0  0  0  0  0  0  0  0  0
  152.1177  145.0255  160.3754 C   0  0  0  0  0  0  0  0  0  0  0  0
  151.8952  143.6934  160.7778 C   0  0  0  0  0  0  0  0  0  0  0  0
  151.7158  142.6762  159.9074 N   0  0  0  0  0  0  0  0  0  0  0  0
  147.4013  139.3865  154.2103 C   0  0  0  0  0  0  0  0  0  0  0  0
  146.8071  138.6521  152.9910 C   0  0  0  0  0  0  0  0  0  0  0  0
  146.6808  140.7313  154.4296 C   0  0  0  0  0  0  0  0  0  0  0  0
  151.1490  138.3798  154.5885 C   0  0  0  0  0  0  0  0  0  0  0  0
  151.8815  137.2089  155.2737 C   0  0  1  0  0  0  0  0  0  0  0  0
  152.0046  137.3762  156.7985 C   0  0  0  0  0  0  0  0  0  0  0  0
  151.2749  135.9681  154.9210 O   0  0  0  0  0  0  0  0  0  0  0  0
  148.3071  134.4179  154.8585 H   0  0  0  0  0  0  0  0  0  0  0  0
  149.8871  133.7263  155.2134 H   0  0  0  0  0  0  0  0  0  0  0  0
  149.5578  134.3932  153.6161 H   0  0  0  0  0  0  0  0  0  0  0  0
  149.6814  135.9769  156.2288 H   0  0  0  0  0  0  0  0  0  0  0  0
  149.2618  136.9259  153.3487 H   0  0  0  0  0  0  0  0  0  0  0  0
  148.1099  136.9787  154.6635 H   0  0  0  0  0  0  0  0  0  0  0  0
  149.2289  139.4782  153.1131 H   0  0  0  0  0  0  0  0  0  0  0  0
  150.2965  140.0370  156.2900 H   0  0  0  0  0  0  0  0  0  0  0  0
  151.0944  142.7381  155.7474 H   0  0  0  0  0  0  0  0  0  0  0  0
  149.7437  142.7111  156.8572 H   0  0  0  0  0  0  0  0  0  0  0  0
  151.1759  140.9357  158.2121 H   0  0  0  0  0  0  0  0  0  0  0  0
  152.5196  141.4842  157.2436 H   0  0  0  0  0  0  0  0  0  0  0  0
  151.9960  144.4454  157.0171 H   0  0  0  0  0  0  0  0  0  0  0  0
  152.3252  146.3198  158.6489 H   0  0  0  0  0  0  0  0  0  0  0  0
  152.2563  145.8079  161.1068 H   0  0  0  0  0  0  0  0  0  0  0  0
  151.8615  143.4381  161.8266 H   0  0  0  0  0  0  0  0  0  0  0  0
  147.1389  138.7474  155.0517 H   0  0  0  0  0  0  0  0  0  0  0  0
  146.8908  139.2398  152.0762 H   0  0  0  0  0  0  0  0  0  0  0  0
  145.7477  138.4431  153.1422 H   0  0  0  0  0  0  0  0  0  0  0  0
  147.3065  137.6973  152.8239 H   0  0  0  0  0  0  0  0  0  0  0  0
  146.8202  141.4107  153.5895 H   0  0  0  0  0  0  0  0  0  0  0  0
  147.0361  141.2358  155.3281 H   0  0  0  0  0  0  0  0  0  0  0  0
  145.6077  140.5797  154.5493 H   0  0  0  0  0  0  0  0  0  0  0  0
  151.3462  138.3394  153.5157 H   0  0  0  0  0  0  0  0  0  0  0  0
  151.6124  139.2976  154.9488 H   0  0  0  0  0  0  0  0  0  0  0  0
  152.8970  137.1732  154.8782 H   0  0  0  0  0  0  0  0  0  0  0  0
  152.5825  138.2672  157.0450 H   0  0  0  0  0  0  0  0  0  0  0  0
  152.5117  136.5202  157.2442 H   0  0  0  0  0  0  0  0  0  0  0  0
  151.0325  137.4780  157.2804 H   0  0  0  0  0  0  0  0  0  0  0  0
  1  2  1  0  0  0  0
  1 24  1  0  0  0  0
  1 25  1  0  0  0  0
  1 26  1  0  0  0  0
  2 23  1  0  0  0  0
  2  3  1  0  0  0  0
  2 27  1  0  0  0  0
  3  4  1  0  0  0  0
  3 28  1  0  0  0  0
  3 29  1  0  0  0  0
  4  5  1  0  0  0  0
  4 20  1  0  0  0  0
  5  6  1  0  0  0  0
  5 17  1  0  0  0  0
  5 30  1  0  0  0  0
  6  7  2  0  0  0  0
  6  8  1  0  0  0  0
  8  9  1  0  0  0  0
  8 31  1  0  0  0  0
  9 10  1  0  0  0  0
  9 32  1  0  0  0  0
  9 33  1  0  0  0  0
 10 11  1  0  0  0  0
 10 34  1  0  0  0  0
 10 35  1  0  0  0  0
 11 16  1  0  0  0  0
 11 12  2  0  0  0  0
 12 13  1  0  0  0  0
 12 36  1  0  0  0  0
 13 14  2  0  0  0  0
 13 37  1  0  0  0  0
 14 15  1  0  0  0  0
 14 38  1  0  0  0  0
 15 16  2  0  0  0  0
 15 39  1  0  0  0  0
 17 18  1  0  0  0  0
 17 19  1  0  0  0  0
 17 40  1  0  0  0  0
 18 41  1  0  0  0  0
 18 42  1  0  0  0  0
 18 43  1  0  0  0  0
 19 44  1  0  0  0  0
 19 45  1  0  0  0  0
 19 46  1  0  0  0  0
 20 21  1  0  0  0  0
 20 47  1  0  0  0  0
 20 48  1  0  0  0  0
 21 22  1  0  0  0  0
 21 23  1  0  0  0  0
 21 49  1  0  0  0  0
 22 50  1  0  0  0  0
 22 51  1  0  0  0  0
 22 52  1  0  0  0  0
M  END
> <s_m_source_file>
AV-unprocessed.smi

> <i_m_source_file_index>
1762

> <i_lp_mmshare_version>
43012

> <i_f3d_flags>
0

> <s_epik_input>
W0NIM11bQ0BASF0xW0NIMl1OKFtDSDJdW0NASF0oTzEpW0NIM10pW0NAQEhdKFtDSF0oW0NIM10pW0NIM10pQyg9TylbTkhdW0NIMl1bQ0gyXWMyW2NIXVtjSF1bY0hdW2NIXW4y

> <s_epik_cmdline>
J2VwaWtfcHl0aG9uJywgJy1waCcsICc3LjAnLCAnLXRuJywgJzgnLCAnLW1hJywgJzIwMCcsICctbWV0YWxfYmluZGluZycsICctaW1hZScsICc8aW5maWxlLm1hZT4nLCAnLW9tYWUnLCAnPG91dGZpbGUubWFlPic=

> <r_epik_Ionization_Penalty>
0.0399736

> <r_epik_Ionization_Penalty_Charging>
0

> <r_epik_Ionization_Penalty_Neutral>
0.0399736

> <r_epik_State_Penalty>
0.0317634

> <r_epik_Charging_Adjusted_Penalty>
0.0317634

> <i_epik_Tot_Q>
0

> <i_epik_Tot_abs_Q>
0

> <r_epik_Metal_State_Penalty>
0.0307795

> <b_epik_Metal_Only>
0

> <s_lp_Force_Field>
OPLS_2005

> <r_lp_Energy>
28.4472

> <b_lp_Chiralities_Consistent>
1

> <s_lp_Variant>
AV-unprocessed.smi:1762-1

> <Gold.Version>
5.8.1

> <Gold.Id.Protein>
6NUR|6NUR_protein|mol2

> <Gold.PLP.Fitness>
39.5593

> <Gold.PLP.PLP>
-41.1366

> <Gold.PLP.part.hbond>
-3.0091

> <Gold.PLP.part.metal>
0.0000

> <Gold.PLP.part.buried>
-0.3195

> <Gold.PLP.part.nonpolar>
-37.9882

> <Gold.PLP.part.repulsive>
0.5906

> <Gold.PLP.ligand.clash>
0.0000

> <Gold.PLP.ligand.torsion>
1.7105

> <Gold.PLP.Chemscore.Hbond>
0.4960

> <Gold.PLP.Chemscore.CHOScore>
0.0000

> <Gold.PLP.Chemscore.Metal>
0.0000

> <Gold.Chemscore.Hbonds>
donor molecule, donor type, donor heavy atom, donor atom, acceptor molecule, acceptor atom, score
      P1  H  8011  8017       L1     7  0.46

> <Gold.PLP.Chemscore.Internal.Correction>
0.3557

> <Gold.Rescore>
     Score         DG    S(hbond)    S(metal)    S(lipo)     H(rot)  DE(clash)    DE(int)     intcor
     14.03     -18.18       0.60        0.00     126.45       1.60       0.95       3.21       ----

> <Gold.Chemscore.Fitness>
14.0265

> <Gold.Chemscore.DG>
-18.1835

> <Gold.Chemscore.ZeroCoef>
-5.4800

> <Gold.Chemscore.Hbond>
0.5998

> <Gold.Chemscore.Metal>
0.0000

> <Gold.Chemscore.Lipo>
126.4458

> <Gold.Chemscore.Internal_Hbond>
0.0000

> <Gold.Chemscore.DEClash>
0.9492

> <Gold.Chemscore.DEInternal>
3.2079

> <Gold.Chemscore.Rot>
1.5993

> <Gold.Chemscore.Internal.Correction>
   9.000000E+99

> <Gold.Chemscore.Hbonds>
donor molecule, donor type, donor heavy atom, donor atom, acceptor molecule, acceptor atom, score
      P1  H  8011  8017       L1     7  0.46

> <Gold.Chemscore.Hbond.Weighted>
-2.0034

> <Gold.Chemscore.Metal.Weighted>
-0.0000

> <Gold.Chemscore.Lipo.Weighted>
-14.7942

> <Gold.Chemscore.Internal_Hbond.Weighted>
0.0000

> <Gold.Chemscore.DEClash.Weighted>
0.9492

> <Gold.Chemscore.DEInternal.Weighted>
3.2079

> <Gold.Chemscore.Rot.Weighted>
4.0941

> <Gold.Chemscore.Internal.Correction.Weighted>
   9.000000E+99

> <Gold.Protein.RotatedTorsions>
[ 6907 6896 6895 6894 ] final  144.14 input  -60.11 | X-H torsion
[ 7974 7965 7964 7962 ] final   89.56 input  175.53 | X-H torsion
[ 8008 7997 7996 7995 ] final  -79.33 input   59.86 | X-H torsion
[ 10167 10162 10161 10158 ] final -156.73 input  -65.29 | X-H torsion
[ 10718 10713 10712 10709 ] final  142.17 input   66.30 | X-H torsion
[ 10763 10752 10751 10750 ] final  -11.55 input  -60.55 | X-H torsion
[ 11005 11000 10999 10996 ] final   53.12 input  -57.11 | X-H torsion

> <Gold.Protein.ActiveResidues>
 VAL166  LYS551  ARG553  GLY616  TRP617  ASP618  TYR619  PRO620  LYS621  CYS622 
 ASP623  PHE694  ASN695  SER759  ASP760  ASP761  ALA762  ILE779  LEU786  VAL792 
 PHE793  MET794  SER795  GLU796  ALA797  LYS798  CYS799  TRP800  GLU811  SER814 

> <Gold.Protein.RotatedAtoms>
  152.1974  133.4816  159.5039 H   0  0  0  0  0  0  0  0  0  0  0  0  # atno 6907 bound_to 6896
  150.6963  134.1634  159.4194 H   0  0  0  0  0  0  0  0  0  0  0  0  # atno 6908 bound_to 6896
  151.9551  135.0150  160.0595 H   0  0  0  0  0  0  0  0  0  0  0  0  # atno 6909 bound_to 6896
  145.5307  139.2283  143.2620 H   0  0  0  0  0  0  0  0  0  0  0  0  # atno 7974 bound_to 7965
  154.5775  140.0680  156.9055 H   0  0  0  0  0  0  0  0  0  0  0  0  # atno 8008 bound_to 7997
  155.2523  140.3352  155.4263 H   0  0  0  0  0  0  0  0  0  0  0  0  # atno 8009 bound_to 7997
  156.2165  140.1780  156.7563 H   0  0  0  0  0  0  0  0  0  0  0  0  # atno 8010 bound_to 7997
  139.6826  143.9555  152.2345 H   0  0  0  0  0  0  0  0  0  0  0  0  # atno 10167 bound_to 10162
  157.3836  131.0995  151.0715 H   0  0  0  0  0  0  0  0  0  0  0  0  # atno 10718 bound_to 10713
  153.4855  135.7017  153.5914 H   0  0  0  0  0  0  0  0  0  0  0  0  # atno 10763 bound_to 10752
  153.4109  135.3849  155.2049 H   0  0  0  0  0  0  0  0  0  0  0  0  # atno 10764 bound_to 10752
  154.8719  135.3904  154.4309 H   0  0  0  0  0  0  0  0  0  0  0  0  # atno 10765 bound_to 10752
  140.0793  134.5360  155.8963 H   0  0  0  0  0  0  0  0  0  0  0  0  # atno 11005 bound_to 11000
  146.2046  140.6123  142.9087 LP  0  0  0  0  0  0  0  0  0  0  0  0  # atno 17320 bound_to 7965
  144.7627  140.5460  143.6724 LP  0  0  0  0  0  0  0  0  0  0  0  0  # atno 17321 bound_to 7965
  139.9349  144.6718  150.8325 LP  0  0  0  0  0  0  0  0  0  0  0  0  # atno 17342 bound_to 10162
  140.7657  143.3283  151.2466 LP  0  0  0  0  0  0  0  0  0  0  0  0  # atno 17343 bound_to 10162
  157.1775  130.6294  149.5660 LP  0  0  0  0  0  0  0  0  0  0  0  0  # atno 17370 bound_to 10713
  155.9781  130.4765  150.6637 LP  0  0  0  0  0  0  0  0  0  0  0  0  # atno 17371 bound_to 10713
  141.2041  133.6636  156.6101 LP  0  0  0  0  0  0  0  0  0  0  0  0  # atno 17394 bound_to 11000
  140.3511  134.7768  157.4467 LP  0  0  0  0  0  0  0  0  0  0  0  0  # atno 17395 bound_to 11000

$$$$
