AV-unprocessed.smi:2843|AV-procd|sdf|10938|dock9
  -GOLD-   2272015383D 1   1.00000     0.00000
 Structure written by MMmdl.
 28 28  0  0  0  0  0  0  0  0  2 V2000
  153.0760  142.6291  160.7534 C   0  0  0  0  0  0  0  0  0  0  0  0
  152.3081  142.3636  159.5040 C   0  0  0  0  0  0  0  0  0  0  0  0
  152.0006  143.1360  158.4209 C   0  0  0  0  0  0  0  0  0  0  0  0
  151.2548  142.2609  157.5831 C   0  0  0  0  0  0  0  0  0  0  0  0
  150.6427  142.5472  156.2391 C   0  0  0  0  0  0  0  0  0  0  0  0
  149.9860  140.9978  155.4761 S   0  0  0  0  0  0  0  0  0  0  0  0
  151.1658  140.1742  155.1654 O   0  0  0  0  0  0  0  0  0  0  0  0
  149.0121  140.4406  156.4297 O   0  0  0  0  0  0  0  0  0  0  0  0
  149.2866  141.5907  154.1393 N   0  5  0  0  0  0  0  0  0  0  0  0
  147.8690  141.9070  154.1536 C   0  0  0  0  0  0  0  0  0  0  0  0
  147.0408  140.6239  154.3702 C   0  0  0  0  0  0  0  0  0  0  0  0
  147.1914  139.5582  153.2632 C   0  0  0  0  0  0  0  0  0  0  0  0
  146.8079  140.1077  152.0195 O   0  0  0  0  0  0  0  0  0  0  0  0
  151.1115  141.0644  158.1314 N   0  0  0  0  0  0  0  0  0  0  0  0
  151.7866  141.1186  159.3558 O   0  0  0  0  0  0  0  0  0  0  0  0
  152.9203  143.6531  161.0930 H   0  0  0  0  0  0  0  0  0  0  0  0
  154.1435  142.4867  160.5858 H   0  0  0  0  0  0  0  0  0  0  0  0
  152.7662  141.9573  161.5543 H   0  0  0  0  0  0  0  0  0  0  0  0
  152.2758  144.1655  158.2465 H   0  0  0  0  0  0  0  0  0  0  0  0
  149.8346  143.2763  156.3016 H   0  0  0  0  0  0  0  0  0  0  0  0
  151.3957  142.9518  155.5638 H   0  0  0  0  0  0  0  0  0  0  0  0
  147.6320  142.6153  154.9479 H   0  0  0  0  0  0  0  0  0  0  0  0
  147.5450  142.3821  153.2270 H   0  0  0  0  0  0  0  0  0  0  0  0
  147.2910  140.1870  155.3384 H   0  0  0  0  0  0  0  0  0  0  0  0
  145.9897  140.9072  154.4355 H   0  0  0  0  0  0  0  0  0  0  0  0
  148.2218  139.2081  153.1786 H   0  0  0  0  0  0  0  0  0  0  0  0
  146.5646  138.6855  153.4563 H   0  0  0  0  0  0  0  0  0  0  0  0
  147.5899  140.3272  151.5368 H   0  0  0  0  0  0  0  0  0  0  0  0
  1  2  1  0  0  0  0
  1 16  1  0  0  0  0
  1 17  1  0  0  0  0
  1 18  1  0  0  0  0
  2 15  1  0  0  0  0
  2  3  2  0  0  0  0
  3  4  1  0  0  0  0
  3 19  1  0  0  0  0
  4  5  1  0  0  0  0
  4 14  2  0  0  0  0
  5  6  1  0  0  0  0
  5 20  1  0  0  0  0
  5 21  1  0  0  0  0
  6  7  2  0  0  0  0
  6  8  2  0  0  0  0
  6  9  1  0  0  0  0
  9 10  1  0  0  0  0
 10 11  1  0  0  0  0
 10 22  1  0  0  0  0
 10 23  1  0  0  0  0
 11 12  1  0  0  0  0
 11 24  1  0  0  0  0
 11 25  1  0  0  0  0
 12 13  1  0  0  0  0
 12 26  1  0  0  0  0
 12 27  1  0  0  0  0
 13 28  1  0  0  0  0
 14 15  1  0  0  0  0
M  CHG  1   9  -1
M  END
> <s_m_source_file>
AV-unprocessed.smi

> <i_m_source_file_index>
2843

> <i_lp_mmshare_version>
43012

> <i_f3d_flags>
0

> <s_epik_input>
W0NIM11jMVtjSF1jKG5vMSlbQ0gyXVMoPU8pKD1PKVtOSF1bQ0gyXVtDSDJdW0NIMl1bT0hd

> <s_epik_cmdline>
J2VwaWtfcHl0aG9uJywgJy1waCcsICc3LjAnLCAnLXRuJywgJzgnLCAnLW1hJywgJzIwMCcsICctbWV0YWxfYmluZGluZycsICctaW1hZScsICc8aW5maWxlLm1hZT4nLCAnLW9tYWUnLCAnPG91dGZpbGUubWFlPic=

> <r_lp_tautomer_probability>
1

> <r_epik_Ionization_Penalty>
4.89444

> <r_epik_Ionization_Penalty_Charging>
4.89444

> <r_epik_Ionization_Penalty_Neutral>
8.7324e-07

> <r_epik_State_Penalty>
4.89429

> <r_epik_Charging_Adjusted_Penalty>
9.78873

> <i_epik_Tot_Q>
-1

> <i_epik_Tot_abs_Q>
1

> <r_epik_Metal_State_Penalty>
1.04833

> <b_epik_Metal_Only>
1

> <s_lp_Force_Field>
OPLS_2005

> <r_lp_Energy>
1.63452

> <b_lp_Chiralities_Consistent>
1

> <s_lp_Variant>
AV-unprocessed.smi:2843-2

> <Gold.Version>
5.8.1

> <Gold.Id.Protein>
6NUR|6NUR_protein|mol2

> <Gold.PLP.Fitness>
37.2984

> <Gold.PLP.PLP>
-29.7849

> <Gold.PLP.part.hbond>
-4.5754

> <Gold.PLP.part.metal>
0.0000

> <Gold.PLP.part.buried>
-1.4180

> <Gold.PLP.part.nonpolar>
-22.4779

> <Gold.PLP.part.repulsive>
0.2695

> <Gold.PLP.ligand.clash>
0.0000

> <Gold.PLP.ligand.torsion>
0.6067

> <Gold.PLP.Chemscore.Hbond>
2.5776

> <Gold.PLP.Chemscore.CHOScore>
0.0000

> <Gold.PLP.Chemscore.Metal>
0.0000

> <Gold.Chemscore.Hbonds>
donor molecule, donor type, donor heavy atom, donor atom, acceptor molecule, acceptor atom, score
      L1  H    13    28       P1  7957  0.99
      P1  H  7989  7998       L1     7  1.00
      P1  H  8011  8017       L1     9  0.55

> <Gold.PLP.Chemscore.Internal.Correction>
0.9941

> <Gold.Rescore>
     Score         DG    S(hbond)    S(metal)    S(lipo)     H(rot)  DE(clash)    DE(int)     intcor
      9.62     -14.82       2.39        0.00      70.44       2.69       1.73       3.47       ----

> <Gold.Chemscore.Fitness>
9.6181

> <Gold.Chemscore.DG>
-14.8205

> <Gold.Chemscore.ZeroCoef>
-5.4800

> <Gold.Chemscore.Hbond>
2.3933

> <Gold.Chemscore.Metal>
0.0000

> <Gold.Chemscore.Lipo>
70.4388

> <Gold.Chemscore.Internal_Hbond>
0.0000

> <Gold.Chemscore.DEClash>
1.7287

> <Gold.Chemscore.DEInternal>
3.4738

> <Gold.Chemscore.Rot>
2.6932

> <Gold.Chemscore.Internal.Correction>
   9.000000E+99

> <Gold.Chemscore.Hbonds>
donor molecule, donor type, donor heavy atom, donor atom, acceptor molecule, acceptor atom, score
      L1  H    13    28       P1  7957  0.88
      P1  H  7989  7998       L1     7  0.30
      P1  H  8011  8017       L1     9  0.12

> <Gold.Chemscore.Hbond.Weighted>
-7.9937

> <Gold.Chemscore.Metal.Weighted>
-0.0000

> <Gold.Chemscore.Lipo.Weighted>
-8.2413

> <Gold.Chemscore.Internal_Hbond.Weighted>
0.0000

> <Gold.Chemscore.DEClash.Weighted>
1.7287

> <Gold.Chemscore.DEInternal.Weighted>
3.4738

> <Gold.Chemscore.Rot.Weighted>
6.8945

> <Gold.Chemscore.Internal.Correction.Weighted>
   9.000000E+99

> <Gold.Protein.RotatedTorsions>
[ 6907 6896 6895 6894 ] final   51.15 input  -60.11 | X-H torsion
[ 7974 7965 7964 7962 ] final   71.70 input  175.53 | X-H torsion
[ 8008 7997 7996 7995 ] final   64.88 input   59.86 | X-H torsion
[ 10167 10162 10161 10158 ] final  126.95 input  -65.29 | X-H torsion
[ 10718 10713 10712 10709 ] final   74.42 input   66.30 | X-H torsion
[ 10763 10752 10751 10750 ] final  116.72 input  -60.55 | X-H torsion
[ 11005 11000 10999 10996 ] final  130.56 input  -57.11 | X-H torsion

> <Gold.Protein.ActiveResidues>
 VAL166  LYS551  ARG553  GLY616  TRP617  ASP618  TYR619  PRO620  LYS621  CYS622 
 ASP623  PHE694  ASN695  SER759  ASP760  ASP761  ALA762  ILE779  LEU786  VAL792 
 PHE793  MET794  SER795  GLU796  ALA797  LYS798  CYS799  TRP800  GLU811  SER814 

> <Gold.Protein.RotatedAtoms>
  152.3095  134.7514  160.0339 H   0  0  0  0  0  0  0  0  0  0  0  0  # atno 6907 bound_to 6896
  151.7999  133.3363  159.3532 H   0  0  0  0  0  0  0  0  0  0  0  0  # atno 6908 bound_to 6896
  150.7313  134.5693  159.5926 H   0  0  0  0  0  0  0  0  0  0  0  0  # atno 6909 bound_to 6896
  145.7625  139.2807  143.1368 H   0  0  0  0  0  0  0  0  0  0  0  0  # atno 7974 bound_to 7965
  155.6529  140.3497  155.4755 H   0  0  0  0  0  0  0  0  0  0  0  0  # atno 8008 bound_to 7997
  155.9832  140.1179  157.0730 H   0  0  0  0  0  0  0  0  0  0  0  0  # atno 8009 bound_to 7997
  154.4197  140.1134  156.5450 H   0  0  0  0  0  0  0  0  0  0  0  0  # atno 8010 bound_to 7997
  139.5604  144.6877  151.4061 H   0  0  0  0  0  0  0  0  0  0  0  0  # atno 10167 bound_to 10162
  157.6591  130.9677  150.1208 H   0  0  0  0  0  0  0  0  0  0  0  0  # atno 10718 bound_to 10713
  153.5415  135.3558  155.2720 H   0  0  0  0  0  0  0  0  0  0  0  0  # atno 10763 bound_to 10752
  154.8717  135.4092  154.3038 H   0  0  0  0  0  0  0  0  0  0  0  0  # atno 10764 bound_to 10752
  153.3746  135.7065  153.6679 H   0  0  0  0  0  0  0  0  0  0  0  0  # atno 10765 bound_to 10752
  139.9679  134.9585  156.9312 H   0  0  0  0  0  0  0  0  0  0  0  0  # atno 11005 bound_to 11000
  146.0250  140.8312  142.9904 LP  0  0  0  0  0  0  0  0  0  0  0  0  # atno 17320 bound_to 7965
  144.6828  140.2684  143.7309 LP  0  0  0  0  0  0  0  0  0  0  0  0  # atno 17321 bound_to 7965
  140.6882  143.7923  150.7217 LP  0  0  0  0  0  0  0  0  0  0  0  0  # atno 17342 bound_to 10162
  140.1397  143.4452  152.2201 LP  0  0  0  0  0  0  0  0  0  0  0  0  # atno 17343 bound_to 10162
  156.2080  130.3664  149.8705 LP  0  0  0  0  0  0  0  0  0  0  0  0  # atno 17370 bound_to 10713
  156.6591  130.8775  151.3544 LP  0  0  0  0  0  0  0  0  0  0  0  0  # atno 17371 bound_to 10713
  140.5356  134.0770  155.7327 LP  0  0  0  0  0  0  0  0  0  0  0  0  # atno 17394 bound_to 11000
  141.1359  133.9222  157.2434 LP  0  0  0  0  0  0  0  0  0  0  0  0  # atno 17395 bound_to 11000

$$$$
