AV-unprocessed.smi:2166|AV-procd|sdf|8814|dock8
  -GOLD-   2272012 03D 1   1.00000     0.00000
 Structure written by MMmdl.
 38 39  0  0  0  0  0  0  0  0  1 V2000
  152.6227  142.8809  161.0281 C   0  0  0  0  0  0  0  0  0  0  0  0
  153.5504  143.1246  159.4882 S   0  0  0  0  0  0  0  0  0  0  0  0
  152.2650  143.8323  158.4144 C   0  0  2  0  0  0  0  0  0  0  0  0
  151.6681  145.0938  159.0591 C   0  0  0  0  0  0  0  0  0  0  0  0
  151.1720  142.8094  158.0780 C   0  0  0  0  0  0  0  0  0  0  0  0
  150.5675  142.2381  158.9863 O   0  0  0  0  0  0  0  0  0  0  0  0
  150.9545  142.5991  156.7657 N   0  0  0  0  0  0  0  0  0  0  0  0
  150.0331  141.7082  156.1552 C   0  0  0  0  0  0  0  0  0  0  0  0
  148.9347  141.3413  156.9637 C   0  0  0  0  0  0  0  0  0  0  0  0
  147.9581  140.4663  156.4510 C   0  0  0  0  0  0  0  0  0  0  0  0
  148.1004  139.9759  155.1391 C   0  0  0  0  0  0  0  0  0  0  0  0
  147.1351  139.1064  154.6119 N   0  0  0  0  0  0  0  0  0  0  0  0
  147.2857  138.8681  153.1817 C   0  0  0  0  0  0  0  0  0  0  0  0
  146.1217  138.0034  152.6664 C   0  0  0  0  0  0  0  0  0  0  0  0
  146.0586  136.7919  153.4140 O   0  0  0  0  0  0  0  0  0  0  0  0
  145.8377  137.0309  154.8013 C   0  0  0  0  0  0  0  0  0  0  0  0
  146.9945  137.8706  155.3716 C   0  0  0  0  0  0  0  0  0  0  0  0
  149.2320  140.3916  154.4027 C   0  0  0  0  0  0  0  0  0  0  0  0
  150.1686  141.2303  154.8936 N   0  0  0  0  0  0  0  0  0  0  0  0
  153.2588  142.4072  161.7758 H   0  0  0  0  0  0  0  0  0  0  0  0
  151.7573  142.2411  160.8562 H   0  0  0  0  0  0  0  0  0  0  0  0
  152.2792  143.8347  161.4282 H   0  0  0  0  0  0  0  0  0  0  0  0
  152.7539  144.1395  157.4886 H   0  0  0  0  0  0  0  0  0  0  0  0
  150.8886  145.5291  158.4325 H   0  0  0  0  0  0  0  0  0  0  0  0
  152.4346  145.8557  159.2027 H   0  0  0  0  0  0  0  0  0  0  0  0
  151.2310  144.8794  160.0353 H   0  0  0  0  0  0  0  0  0  0  0  0
  151.5260  143.1356  156.1298 H   0  0  0  0  0  0  0  0  0  0  0  0
  148.8349  141.7263  157.9682 H   0  0  0  0  0  0  0  0  0  0  0  0
  147.1119  140.1794  157.0581 H   0  0  0  0  0  0  0  0  0  0  0  0
  147.3090  139.8197  152.6492 H   0  0  0  0  0  0  0  0  0  0  0  0
  148.2330  138.3638  152.9862 H   0  0  0  0  0  0  0  0  0  0  0  0
  145.1745  138.5398  152.7430 H   0  0  0  0  0  0  0  0  0  0  0  0
  146.2682  137.7645  151.6130 H   0  0  0  0  0  0  0  0  0  0  0  0
  144.8815  137.5368  154.9458 H   0  0  0  0  0  0  0  0  0  0  0  0
  145.7741  136.0752  155.3216 H   0  0  0  0  0  0  0  0  0  0  0  0
  147.9225  137.2991  155.3257 H   0  0  0  0  0  0  0  0  0  0  0  0
  146.8073  138.1008  156.4212 H   0  0  0  0  0  0  0  0  0  0  0  0
  149.3941  140.0451  153.3927 H   0  0  0  0  0  0  0  0  0  0  0  0
  1  2  1  0  0  0  0
  1 20  1  0  0  0  0
  1 21  1  0  0  0  0
  1 22  1  0  0  0  0
  2  3  1  0  0  0  0
  3  4  1  0  0  0  0
  3  5  1  0  0  0  0
  3 23  1  0  0  0  0
  4 24  1  0  0  0  0
  4 25  1  0  0  0  0
  4 26  1  0  0  0  0
  5  6  2  0  0  0  0
  5  7  1  0  0  0  0
  7  8  1  0  0  0  0
  7 27  1  0  0  0  0
  8 19  1  0  0  0  0
  8  9  2  0  0  0  0
  9 10  1  0  0  0  0
  9 28  1  0  0  0  0
 10 11  2  0  0  0  0
 10 29  1  0  0  0  0
 11 12  1  0  0  0  0
 11 18  1  0  0  0  0
 12 17  1  0  0  0  0
 12 13  1  0  0  0  0
 13 14  1  0  0  0  0
 13 30  1  0  0  0  0
 13 31  1  0  0  0  0
 14 15  1  0  0  0  0
 14 32  1  0  0  0  0
 14 33  1  0  0  0  0
 15 16  1  0  0  0  0
 16 17  1  0  0  0  0
 16 34  1  0  0  0  0
 16 35  1  0  0  0  0
 17 36  1  0  0  0  0
 17 37  1  0  0  0  0
 18 19  2  0  0  0  0
 18 38  1  0  0  0  0
M  END
> <s_m_source_file>
AV-unprocessed.smi

> <i_m_source_file_index>
2166

> <i_lp_mmshare_version>
43012

> <i_f3d_flags>
0

> <s_epik_input>
W0NIM11TW0NASF0oW0NIM10pQyg9TylbTkhdYzFbY0hdW2NIXWMoW2NIXW4xKU4yW0NIMl1bQ0gyXU9bQ0gyXVtDSDJdMg==

> <s_epik_cmdline>
J2VwaWtfcHl0aG9uJywgJy1waCcsICc3LjAnLCAnLXRuJywgJzgnLCAnLW1hJywgJzIwMCcsICctbWV0YWxfYmluZGluZycsICctaW1hZScsICc8aW5maWxlLm1hZT4nLCAnLW9tYWUnLCAnPG91dGZpbGUubWFlPic=

> <r_lp_tautomer_probability>
1

> <r_epik_Ionization_Penalty>
0.0038652

> <r_epik_Ionization_Penalty_Charging>
0

> <r_epik_Ionization_Penalty_Neutral>
0.0038652

> <r_epik_State_Penalty>
0.00681294

> <r_epik_Charging_Adjusted_Penalty>
0.00681294

> <i_epik_Tot_Q>
0

> <i_epik_Tot_abs_Q>
0

> <r_epik_Metal_State_Penalty>
-0

> <b_epik_Metal_Only>
0

> <s_lp_Force_Field>
OPLS_2005

> <r_lp_Energy>
27.7309

> <b_lp_Chiralities_Consistent>
1

> <s_lp_Variant>
AV-unprocessed.smi:2166-1

> <Gold.Version>
5.8.1

> <Gold.Id.Protein>
6NUR|6NUR_protein|mol2

> <Gold.PLP.Fitness>
35.9326

> <Gold.PLP.PLP>
-31.8030

> <Gold.PLP.part.hbond>
-2.0524

> <Gold.PLP.part.metal>
0.0000

> <Gold.PLP.part.buried>
-3.5180

> <Gold.PLP.part.nonpolar>
-26.7537

> <Gold.PLP.part.repulsive>
0.4478

> <Gold.PLP.ligand.clash>
0.0069

> <Gold.PLP.ligand.torsion>
0.3109

> <Gold.PLP.Chemscore.Hbond>
0.5424

> <Gold.PLP.Chemscore.CHOScore>
1.0000

> <Gold.PLP.Chemscore.Metal>
0.0000

> <Gold.Chemscore.Hbonds>
donor molecule, donor type, donor heavy atom, donor atom, acceptor molecule, acceptor atom, score
      P1  H  7989  7998       L1    19  0.51
      L1  C    18    38       P1  7957  1.00

> <Gold.PLP.Chemscore.Internal.Correction>
0.1311

> <Gold.Rescore>
     Score         DG    S(hbond)    S(metal)    S(lipo)     H(rot)  DE(clash)    DE(int)     intcor
      8.07     -11.87       0.01        0.00      82.96       1.31       0.75       3.04       ----

> <Gold.Chemscore.Fitness>
8.0722

> <Gold.Chemscore.DG>
-11.8659

> <Gold.Chemscore.ZeroCoef>
-5.4800

> <Gold.Chemscore.Hbond>
0.0102

> <Gold.Chemscore.Metal>
0.0000

> <Gold.Chemscore.Lipo>
82.9630

> <Gold.Chemscore.Internal_Hbond>
0.0000

> <Gold.Chemscore.DEClash>
0.7491

> <Gold.Chemscore.DEInternal>
3.0447

> <Gold.Chemscore.Rot>
1.3105

> <Gold.Chemscore.Internal.Correction>
   9.000000E+99

> <Gold.Chemscore.Hbonds>
donor molecule, donor type, donor heavy atom, donor atom, acceptor molecule, acceptor atom, score
      P1  H  7989  7998       L1    19  0.09

> <Gold.Chemscore.Hbond.Weighted>
-0.0342

> <Gold.Chemscore.Metal.Weighted>
-0.0000

> <Gold.Chemscore.Lipo.Weighted>
-9.7067

> <Gold.Chemscore.Internal_Hbond.Weighted>
0.0000

> <Gold.Chemscore.DEClash.Weighted>
0.7491

> <Gold.Chemscore.DEInternal.Weighted>
3.0447

> <Gold.Chemscore.Rot.Weighted>
3.3549

> <Gold.Chemscore.Internal.Correction.Weighted>
   9.000000E+99

> <Gold.Protein.RotatedTorsions>
[ 6907 6896 6895 6894 ] final -147.07 input  -60.11 | X-H torsion
[ 7974 7965 7964 7962 ] final -120.12 input  175.53 | X-H torsion
[ 8008 7997 7996 7995 ] final  -67.95 input   59.86 | X-H torsion
[ 10167 10162 10161 10158 ] final -112.98 input  -65.29 | X-H torsion
[ 10718 10713 10712 10709 ] final  162.99 input   66.30 | X-H torsion
[ 10763 10752 10751 10750 ] final  172.03 input  -60.55 | X-H torsion
[ 11005 11000 10999 10996 ] final  -35.32 input  -57.11 | X-H torsion

> <Gold.Protein.ActiveResidues>
 VAL166  LYS551  ARG553  GLY616  TRP617  ASP618  TYR619  PRO620  LYS621  CYS622 
 ASP623  PHE694  ASN695  SER759  ASP760  ASP761  ALA762  ILE779  LEU786  VAL792 
 PHE793  MET794  SER795  GLU796  ALA797  LYS798  CYS799  TRP800  GLU811  SER814 

> <Gold.Protein.RotatedAtoms>
  151.1505  133.4910  159.2595 H   0  0  0  0  0  0  0  0  0  0  0  0  # atno 6907 bound_to 6896
  151.1559  135.0249  159.8699 H   0  0  0  0  0  0  0  0  0  0  0  0  # atno 6908 bound_to 6896
  152.5463  134.1384  159.8522 H   0  0  0  0  0  0  0  0  0  0  0  0  # atno 6909 bound_to 6896
  145.0549  140.8247  143.4187 H   0  0  0  0  0  0  0  0  0  0  0  0  # atno 7974 bound_to 7965
  154.4835  140.0882  156.7431 H   0  0  0  0  0  0  0  0  0  0  0  0  # atno 8008 bound_to 7997
  155.4411  140.3453  155.4272 H   0  0  0  0  0  0  0  0  0  0  0  0  # atno 8009 bound_to 7997
  156.1226  140.1478  156.9170 H   0  0  0  0  0  0  0  0  0  0  0  0  # atno 8010 bound_to 7997
  140.1168  143.4478  152.1717 H   0  0  0  0  0  0  0  0  0  0  0  0  # atno 10167 bound_to 10162
  157.1148  131.0477  151.2441 H   0  0  0  0  0  0  0  0  0  0  0  0  # atno 10718 bound_to 10713
  154.4203  135.2758  155.1980 H   0  0  0  0  0  0  0  0  0  0  0  0  # atno 10763 bound_to 10752
  154.3928  135.6062  153.5856 H   0  0  0  0  0  0  0  0  0  0  0  0  # atno 10764 bound_to 10752
  152.9833  135.5907  154.4498 H   0  0  0  0  0  0  0  0  0  0  0  0  # atno 10765 bound_to 10752
  140.9787  133.7069  156.1646 H   0  0  0  0  0  0  0  0  0  0  0  0  # atno 11005 bound_to 11000
  145.1480  139.2531  143.5455 LP  0  0  0  0  0  0  0  0  0  0  0  0  # atno 17320 bound_to 7965
  146.3520  140.1176  142.8601 LP  0  0  0  0  0  0  0  0  0  0  0  0  # atno 17321 bound_to 7965
  139.5590  144.7392  151.4211 LP  0  0  0  0  0  0  0  0  0  0  0  0  # atno 17342 bound_to 10162
  140.6894  143.7896  150.7234 LP  0  0  0  0  0  0  0  0  0  0  0  0  # atno 17343 bound_to 10162
  157.4527  130.7608  149.7166 LP  0  0  0  0  0  0  0  0  0  0  0  0  # atno 17370 bound_to 10713
  155.9842  130.3994  150.3325 LP  0  0  0  0  0  0  0  0  0  0  0  0  # atno 17371 bound_to 10713
  140.7220  134.4348  157.5574 LP  0  0  0  0  0  0  0  0  0  0  0  0  # atno 17394 bound_to 11000
  139.8941  134.8715  156.2193 LP  0  0  0  0  0  0  0  0  0  0  0  0  # atno 17395 bound_to 11000

$$$$
