AV-unprocessed.smi:703|AV-procd|sdf|3440|dock10
  -GOLD-   22720 0423D 1   1.00000     0.00000
 Structure written by MMmdl.
 37 38  0  0  0  0  0  0  0  0  3 V2000
  144.0601  136.9741  152.5988 C   0  0  0  0  0  0  0  0  0  0  0  0
  145.4108  136.4432  152.1002 C   0  0  0  0  0  0  0  0  0  0  0  0
  146.5480  137.2464  152.6075 N   0  3  1  0  0  0  0  0  0  0  0  0
  146.5070  138.6799  152.2301 C   0  0  0  0  0  0  0  0  0  0  0  0
  146.8206  139.4762  153.5081 C   0  0  2  0  0  0  0  0  0  0  0  0
  147.5166  140.8331  153.2718 C   0  0  0  0  0  0  0  0  0  0  0  0
  147.5202  138.4632  154.4344 C   0  0  2  0  0  0  0  0  0  0  0  0
  148.9377  138.3371  154.1039 N   0  5  0  0  0  0  0  0  0  0  0  0
  150.0534  139.0176  155.0652 S   0  0  0  0  0  0  0  0  0  0  0  0
  150.5072  140.3261  154.5665 O   0  0  0  0  0  0  0  0  0  0  0  0
  149.6950  138.9353  156.4903 O   0  0  0  0  0  0  0  0  0  0  0  0
  151.4678  137.8599  154.8240 C   0  0  0  0  0  0  0  0  0  0  0  0
  151.1229  136.5070  155.3801 C   0  0  0  0  0  0  0  0  0  0  0  0
  150.0469  135.6492  155.0191 C   0  0  0  0  0  0  0  0  0  0  0  0
  150.2159  134.5655  155.8315 C   0  0  0  0  0  0  0  0  0  0  0  0
  151.2958  134.7377  156.6347 O   0  0  0  0  0  0  0  0  0  0  0  0
  151.8663  135.9817  156.3418 N   0  0  0  0  0  0  0  0  0  0  0  0
  146.7697  137.1759  154.0702 C   0  0  0  0  0  0  0  0  0  0  0  0
  143.2461  136.3305  152.2646 H   0  0  0  0  0  0  0  0  0  0  0  0
  143.8585  137.9775  152.2229 H   0  0  0  0  0  0  0  0  0  0  0  0
  144.0284  137.0100  153.6882 H   0  0  0  0  0  0  0  0  0  0  0  0
  145.5300  135.4149  152.4442 H   0  0  0  0  0  0  0  0  0  0  0  0
  145.4314  136.4152  151.0097 H   0  0  0  0  0  0  0  0  0  0  0  0
  147.2534  138.8536  151.4526 H   0  0  0  0  0  0  0  0  0  0  0  0
  145.5380  138.9734  151.8231 H   0  0  0  0  0  0  0  0  0  0  0  0
  145.8613  139.7000  153.9783 H   0  0  0  0  0  0  0  0  0  0  0  0
  148.4686  140.7262  152.7492 H   0  0  0  0  0  0  0  0  0  0  0  0
  147.7055  141.3609  154.2082 H   0  0  0  0  0  0  0  0  0  0  0  0
  146.8878  141.4804  152.6599 H   0  0  0  0  0  0  0  0  0  0  0  0
  147.3632  138.7281  155.4801 H   0  0  0  0  0  0  0  0  0  0  0  0
  151.6884  137.8060  153.7577 H   0  0  0  0  0  0  0  0  0  0  0  0
  152.3417  138.2768  155.3237 H   0  0  0  0  0  0  0  0  0  0  0  0
  149.2792  135.8030  154.2753 H   0  0  0  0  0  0  0  0  0  0  0  0
  149.6768  133.6379  155.9528 H   0  0  0  0  0  0  0  0  0  0  0  0
  145.8060  137.1690  154.5824 H   0  0  0  0  0  0  0  0  0  0  0  0
  147.2917  136.2633  154.3563 H   0  0  0  0  0  0  0  0  0  0  0  0
  147.3889  136.8808  152.1837 H   0  0  0  0  0  0  0  0  0  0  0  0
  1  2  1  0  0  0  0
  1 19  1  0  0  0  0
  1 20  1  0  0  0  0
  1 21  1  0  0  0  0
  2  3  1  0  0  0  0
  2 22  1  0  0  0  0
  2 23  1  0  0  0  0
  3 18  1  0  0  0  0
  3  4  1  0  0  0  0
  3 37  1  0  0  0  0
  4  5  1  0  0  0  0
  4 24  1  0  0  0  0
  4 25  1  0  0  0  0
  5  6  1  0  0  0  0
  5  7  1  0  0  0  0
  5 26  1  0  0  0  0
  6 27  1  0  0  0  0
  6 28  1  0  0  0  0
  6 29  1  0  0  0  0
  7  8  1  0  0  0  0
  7 18  1  0  0  0  0
  7 30  1  0  0  0  0
  8  9  1  0  0  0  0
  9 10  2  0  0  0  0
  9 11  2  0  0  0  0
  9 12  1  0  0  0  0
 12 13  1  0  0  0  0
 12 31  1  0  0  0  0
 12 32  1  0  0  0  0
 13 17  2  0  0  0  0
 13 14  1  0  0  0  0
 14 15  2  0  0  0  0
 14 33  1  0  0  0  0
 15 16  1  0  0  0  0
 15 34  1  0  0  0  0
 16 17  1  0  0  0  0
 18 35  1  0  0  0  0
 18 36  1  0  0  0  0
M  CHG  1   3   1
M  CHG  1   8  -1
M  END
> <s_m_source_file>
AV-unprocessed.smi

> <i_m_source_file_index>
703

> <i_lp_mmshare_version>
43012

> <i_f3d_flags>
0

> <s_epik_input>
W0NIM11bQ0gyXU4xW0NIMl1bQ0BASF0oW0NIM10pW0NASF0oW0NIMl0xKVtOSF1TKD1PKSg9TylbQ0gyXWMyW2NIXVtjSF1vbjI=

> <s_epik_cmdline>
J2VwaWtfcHl0aG9uJywgJy1waCcsICc3LjAnLCAnLXRuJywgJzgnLCAnLW1hJywgJzIwMCcsICctbWV0YWxfYmluZGluZycsICctaW1hZScsICc8aW5maWxlLm1hZT4nLCAnLW9tYWUnLCAnPG91dGZpbGUubWFlPic=

> <r_epik_Ionization_Penalty>
3.62494

> <r_epik_Ionization_Penalty_Charging>
3.62494

> <r_epik_Ionization_Penalty_Neutral>
2.0321e-10

> <r_epik_State_Penalty>
3.62558

> <r_epik_Charging_Adjusted_Penalty>
7.25052

> <i_epik_Tot_Q>
0

> <i_epik_Tot_abs_Q>
2

> <r_epik_Metal_State_Penalty>
0.530836

> <b_epik_Metal_Only>
1

> <s_lp_Force_Field>
OPLS_2005

> <r_lp_Energy>
16.9152

> <b_lp_Chiralities_Consistent>
1

> <s_lp_Variant>
AV-unprocessed.smi:703-15

> <Gold.Version>
5.8.1

> <Gold.Id.Protein>
6NUR|6NUR_protein|mol2

> <Gold.PLP.Fitness>
36.4937

> <Gold.PLP.PLP>
-25.3163

> <Gold.PLP.part.hbond>
-3.0000

> <Gold.PLP.part.metal>
0.0000

> <Gold.PLP.part.buried>
-2.5288

> <Gold.PLP.part.nonpolar>
-20.6188

> <Gold.PLP.part.repulsive>
0.8263

> <Gold.PLP.ligand.clash>
0.0000

> <Gold.PLP.ligand.torsion>
0.9274

> <Gold.PLP.Chemscore.Hbond>
3.9920

> <Gold.PLP.Chemscore.CHOScore>
0.0000

> <Gold.PLP.Chemscore.Metal>
0.0000

> <Gold.Chemscore.Hbonds>
donor molecule, donor type, donor heavy atom, donor atom, acceptor molecule, acceptor atom, score
      L1  H     3    37       P1  7948  2.00
      P1  H  7989  7998       L1    10  1.00
      P1  H 10752 10763       L1    17  0.99

> <Gold.PLP.Chemscore.Internal.Correction>
1.0563

> <Gold.Rescore>
     Score         DG    S(hbond)    S(metal)    S(lipo)     H(rot)  DE(clash)    DE(int)     intcor
     13.72     -14.77       2.03        0.00      57.29       1.63       0.08       0.97       ----

> <Gold.Chemscore.Fitness>
13.7187

> <Gold.Chemscore.DG>
-14.7659

> <Gold.Chemscore.ZeroCoef>
-5.4800

> <Gold.Chemscore.Hbond>
2.0258

> <Gold.Chemscore.Metal>
0.0000

> <Gold.Chemscore.Lipo>
57.2855

> <Gold.Chemscore.Internal_Hbond>
0.0000

> <Gold.Chemscore.DEClash>
0.0774

> <Gold.Chemscore.DEInternal>
0.9699

> <Gold.Chemscore.Rot>
1.6338

> <Gold.Chemscore.Internal.Correction>
   9.000000E+99

> <Gold.Chemscore.Hbonds>
donor molecule, donor type, donor heavy atom, donor atom, acceptor molecule, acceptor atom, score
      L1  H     3    37       P1  7948  1.00
      P1  H  7989  7998       L1    10  0.98
      P1  H 10752 10763       L1    17  0.06

> <Gold.Chemscore.Hbond.Weighted>
-6.7660

> <Gold.Chemscore.Metal.Weighted>
-0.0000

> <Gold.Chemscore.Lipo.Weighted>
-6.7024

> <Gold.Chemscore.Internal_Hbond.Weighted>
0.0000

> <Gold.Chemscore.DEClash.Weighted>
0.0774

> <Gold.Chemscore.DEInternal.Weighted>
0.9699

> <Gold.Chemscore.Rot.Weighted>
4.1825

> <Gold.Chemscore.Internal.Correction.Weighted>
   9.000000E+99

> <Gold.Protein.RotatedTorsions>
[ 6907 6896 6895 6894 ] final  -39.86 input  -60.11 | X-H torsion
[ 7974 7965 7964 7962 ] final  -64.06 input  175.53 | X-H torsion
[ 8008 7997 7996 7995 ] final -109.08 input   59.86 | X-H torsion
[ 10167 10162 10161 10158 ] final   44.80 input  -65.29 | X-H torsion
[ 10718 10713 10712 10709 ] final   86.30 input   66.30 | X-H torsion
[ 10763 10752 10751 10750 ] final  112.46 input  -60.55 | X-H torsion
[ 11005 11000 10999 10996 ] final   -5.41 input  -57.11 | X-H torsion

> <Gold.Protein.ActiveResidues>
 VAL166  LYS551  ARG553  GLY616  TRP617  ASP618  TYR619  PRO620  LYS621  CYS622 
 ASP623  PHE694  ASN695  SER759  ASP760  ASP761  ALA762  ILE779  LEU786  VAL792 
 PHE793  MET794  SER795  GLU796  ALA797  LYS798  CYS799  TRP800  GLU811  SER814 

> <Gold.Protein.RotatedAtoms>
  150.9853  134.9199  159.7867 H   0  0  0  0  0  0  0  0  0  0  0  0  # atno 6907 bound_to 6896
  152.5234  134.3355  159.9208 H   0  0  0  0  0  0  0  0  0  0  0  0  # atno 6908 bound_to 6896
  151.3362  133.3939  159.2701 H   0  0  0  0  0  0  0  0  0  0  0  0  # atno 6909 bound_to 6896
  145.7714  140.8811  143.0378 H   0  0  0  0  0  0  0  0  0  0  0  0  # atno 7974 bound_to 7965
  154.9539  140.0400  157.2157 H   0  0  0  0  0  0  0  0  0  0  0  0  # atno 8008 bound_to 7997
  154.7952  140.2842  155.5939 H   0  0  0  0  0  0  0  0  0  0  0  0  # atno 8009 bound_to 7997
  156.2955  140.2565  156.2809 H   0  0  0  0  0  0  0  0  0  0  0  0  # atno 8010 bound_to 7997
  140.3306  144.2593  150.6168 H   0  0  0  0  0  0  0  0  0  0  0  0  # atno 10167 bound_to 10162
  157.6927  131.0210  150.2952 H   0  0  0  0  0  0  0  0  0  0  0  0  # atno 10718 bound_to 10713
  153.4782  135.3685  155.2428 H   0  0  0  0  0  0  0  0  0  0  0  0  # atno 10763 bound_to 10752
  154.8756  135.3948  154.3731 H   0  0  0  0  0  0  0  0  0  0  0  0  # atno 10764 bound_to 10752
  153.4330  135.7083  153.6283 H   0  0  0  0  0  0  0  0  0  0  0  0  # atno 10765 bound_to 10752
  140.6908  133.9073  155.8617 H   0  0  0  0  0  0  0  0  0  0  0  0  # atno 11005 bound_to 11000
  144.6812  139.9860  143.7484 LP  0  0  0  0  0  0  0  0  0  0  0  0  # atno 17320 bound_to 7965
  146.0166  139.3215  143.0838 LP  0  0  0  0  0  0  0  0  0  0  0  0  # atno 17321 bound_to 7965
  140.5400  143.2225  151.8100 LP  0  0  0  0  0  0  0  0  0  0  0  0  # atno 17342 bound_to 10162
  139.4857  144.4612  151.9539 LP  0  0  0  0  0  0  0  0  0  0  0  0  # atno 17343 bound_to 10162
  156.3477  130.3826  149.7355 LP  0  0  0  0  0  0  0  0  0  0  0  0  # atno 17370 bound_to 10713
  156.4843  130.8056  151.3068 LP  0  0  0  0  0  0  0  0  0  0  0  0  # atno 17371 bound_to 10713
  141.0243  134.0846  157.4086 LP  0  0  0  0  0  0  0  0  0  0  0  0  # atno 17394 bound_to 11000
  139.8924  135.0124  156.6843 LP  0  0  0  0  0  0  0  0  0  0  0  0  # atno 17395 bound_to 11000

$$$$
