AV-unprocessed.smi:16|AV-procd|sdf|87|dock10
  -GOLD-   2262015223D 1   1.00000     0.00000
 Structure written by MMmdl.
 60 64  0  0  0  0  0  0  0  0  2 V2000
  147.2362  140.4620  153.2931 C   0  0  0  0  0  0  0  0  0  0  0  0
  148.0666  139.2356  153.6943 C   0  0  0  0  0  0  0  0  0  0  0  0
  149.5107  139.5532  153.8503 N   0  3  1  0  0  0  0  0  0  0  0  0
  149.8040  140.7465  154.6883 C   0  0  0  0  0  0  0  0  0  0  0  0
  149.6536  140.4487  156.1886 C   0  0  0  0  0  0  0  0  0  0  0  0
  150.5464  139.2616  156.6014 C   0  0  1  0  0  0  0  0  0  0  0  0
  150.4431  138.9569  157.9924 O   0  0  0  0  0  0  0  0  0  0  0  0
  149.2049  138.3680  158.3788 C   0  0  0  0  0  0  0  0  0  0  0  0
  148.9632  137.0856  157.5727 C   0  0  0  0  0  0  0  0  0  0  0  0
  149.0307  137.3548  156.1406 N   0  0  0  0  0  0  0  0  0  0  0  0
  148.6332  136.2639  155.4436 C   0  0  0  0  0  0  0  0  0  0  0  0
  149.4016  135.1429  155.4204 N   0  0  0  0  0  0  0  0  0  0  0  0
  148.9949  134.0687  154.7373 C   0  0  0  0  0  0  0  0  0  0  0  0
  147.8766  133.9058  154.0266 N   0  0  0  0  0  0  0  0  0  0  0  0
  147.0982  135.0259  154.0585 C   0  0  0  0  0  0  0  0  0  0  0  0
  147.4004  136.2374  154.7401 C   0  0  0  0  0  0  0  0  0  0  0  0
  146.3845  137.1634  154.5454 N   0  0  0  0  0  0  0  0  0  0  0  0
  145.5262  136.5337  153.7898 C   0  0  0  0  0  0  0  0  0  0  0  0
  145.8718  135.2430  153.4535 N   0  0  0  0  0  0  0  0  0  0  0  0
  145.1193  134.3383  152.6313 C   0  0  0  0  0  0  0  0  0  0  0  0
  145.6006  132.9057  152.4002 C   0  0  0  0  0  0  0  0  0  0  0  0
  144.9857  132.9366  150.9826 C   0  0  0  0  0  0  0  0  0  0  0  0
  145.8467  132.2944  149.8824 C   0  0  0  0  0  0  0  0  0  0  0  0
  146.4765  131.1177  150.3472 O   0  0  0  0  0  0  0  0  0  0  0  0
  143.5464  132.3916  150.8810 C   0  0  0  0  0  0  0  0  0  0  0  0
  142.9702  132.6838  149.6239 O   0  0  0  0  0  0  0  0  0  0  0  0
  145.1013  134.4737  151.1073 C   0  0  0  0  0  0  0  0  0  0  0  0
  150.2815  138.0084  155.7335 C   0  0  1  0  0  0  0  0  0  0  0  0
  150.3533  138.3841  154.2250 C   0  0  0  0  0  0  0  0  0  0  0  0
  151.5812  139.5657  156.4385 H   0  0  0  0  0  0  0  0  0  0  0  0
  151.0843  137.2978  155.9369 H   0  0  0  0  0  0  0  0  0  0  0  0
  146.2041  140.1739  153.0924 H   0  0  0  0  0  0  0  0  0  0  0  0
  147.6301  140.9269  152.3889 H   0  0  0  0  0  0  0  0  0  0  0  0
  147.2130  141.2164  154.0787 H   0  0  0  0  0  0  0  0  0  0  0  0
  147.6635  138.7879  154.6022 H   0  0  0  0  0  0  0  0  0  0  0  0
  147.9506  138.4903  152.9066 H   0  0  0  0  0  0  0  0  0  0  0  0
  150.8292  141.0592  154.4858 H   0  0  0  0  0  0  0  0  0  0  0  0
  149.1736  141.5879  154.4029 H   0  0  0  0  0  0  0  0  0  0  0  0
  149.9275  141.3311  156.7672 H   0  0  0  0  0  0  0  0  0  0  0  0
  148.6057  140.2540  156.4114 H   0  0  0  0  0  0  0  0  0  0  0  0
  149.2490  138.1335  159.4424 H   0  0  0  0  0  0  0  0  0  0  0  0
  148.3800  139.0689  158.2545 H   0  0  0  0  0  0  0  0  0  0  0  0
  149.7137  136.3378  157.8344 H   0  0  0  0  0  0  0  0  0  0  0  0
  147.9906  136.6679  157.8372 H   0  0  0  0  0  0  0  0  0  0  0  0
  149.6598  133.2178  154.7643 H   0  0  0  0  0  0  0  0  0  0  0  0
  144.6112  136.9995  153.4534 H   0  0  0  0  0  0  0  0  0  0  0  0
  144.0979  134.3359  153.0153 H   0  0  0  0  0  0  0  0  0  0  0  0
  146.6892  132.8245  152.3891 H   0  0  0  0  0  0  0  0  0  0  0  0
  145.1623  132.1684  153.0734 H   0  0  0  0  0  0  0  0  0  0  0  0
  145.2577  132.0569  148.9964 H   0  0  0  0  0  0  0  0  0  0  0  0
  146.6282  132.9799  149.5537 H   0  0  0  0  0  0  0  0  0  0  0  0
  147.4108  131.2188  150.2486 H   0  0  0  0  0  0  0  0  0  0  0  0
  143.5155  131.3131  151.0383 H   0  0  0  0  0  0  0  0  0  0  0  0
  142.9058  132.8257  151.6487 H   0  0  0  0  0  0  0  0  0  0  0  0
  142.2865  133.3242  149.7489 H   0  0  0  0  0  0  0  0  0  0  0  0
  144.2507  135.0343  150.7183 H   0  0  0  0  0  0  0  0  0  0  0  0
  146.0369  134.8630  150.7027 H   0  0  0  0  0  0  0  0  0  0  0  0
  150.1350  137.5379  153.5738 H   0  0  0  0  0  0  0  0  0  0  0  0
  151.3847  138.6542  153.9951 H   0  0  0  0  0  0  0  0  0  0  0  0
  149.8116  139.7966  152.9173 H   0  0  0  0  0  0  0  0  0  0  0  0
  1  2  1  0  0  0  0
  1 32  1  0  0  0  0
  1 33  1  0  0  0  0
  1 34  1  0  0  0  0
  2  3  1  0  0  0  0
  2 35  1  0  0  0  0
  2 36  1  0  0  0  0
  3 29  1  0  0  0  0
  3  4  1  0  0  0  0
  3 60  1  0  0  0  0
  4  5  1  0  0  0  0
  4 37  1  0  0  0  0
  4 38  1  0  0  0  0
  5  6  1  0  0  0  0
  5 39  1  0  0  0  0
  5 40  1  0  0  0  0
  6 30  1  0  0  0  0
  6 28  1  0  0  0  0
  6  7  1  0  0  0  0
  7  8  1  0  0  0  0
  8  9  1  0  0  0  0
  8 41  1  0  0  0  0
  8 42  1  0  0  0  0
  9 10  1  0  0  0  0
  9 43  1  0  0  0  0
  9 44  1  0  0  0  0
 10 11  1  0  0  0  0
 10 28  1  0  0  0  0
 11 16  1  0  0  0  0
 11 12  2  0  0  0  0
 12 13  1  0  0  0  0
 13 14  2  0  0  0  0
 13 45  1  0  0  0  0
 14 15  1  0  0  0  0
 15 19  1  0  0  0  0
 15 16  2  0  0  0  0
 16 17  1  0  0  0  0
 17 18  2  0  0  0  0
 18 19  1  0  0  0  0
 18 46  1  0  0  0  0
 19 20  1  0  0  0  0
 20 27  1  0  0  0  0
 20 21  1  0  0  0  0
 20 47  1  0  0  0  0
 21 22  1  0  0  0  0
 21 48  1  0  0  0  0
 21 49  1  0  0  0  0
 22 23  1  0  0  0  0
 22 25  1  0  0  0  0
 22 27  1  0  0  0  0
 23 24  1  0  0  0  0
 23 50  1  0  0  0  0
 23 51  1  0  0  0  0
 24 52  1  0  0  0  0
 25 26  1  0  0  0  0
 25 53  1  0  0  0  0
 25 54  1  0  0  0  0
 26 55  1  0  0  0  0
 27 56  1  0  0  0  0
 27 57  1  0  0  0  0
 28 31  1  0  0  0  0
 28 29  1  0  0  0  0
 29 58  1  0  0  0  0
 29 59  1  0  0  0  0
M  CHG  1   3   1
M  END
> <s_m_source_file>
AV-unprocessed.smi

> <i_m_source_file_index>
16

> <i_lp_mmshare_version>
43012

> <i_f3d_flags>
0

> <s_epik_input>
W0NIM11bQ0gyXU4oW0NIMl1bQ0gyXTEpW0NIMl1bQ0BASF0oW0NAQEhdMTIpTihbQ0gyXVtDSDJdTzIpYyhuW2NIXW4zKWMoYzM0KW5bY0hdbjRbQ0hdKFtDSDJdNSlbQ0gyXUM1KFtDSDJdW09IXSlbQ0gyXVtPSF0=

> <s_epik_cmdline>
J2VwaWtfcHl0aG9uJywgJy1waCcsICc3LjAnLCAnLXRuJywgJzgnLCAnLW1hJywgJzIwMCcsICctbWV0YWxfYmluZGluZycsICctaW1hZScsICc8aW5maWxlLm1hZT4nLCAnLW9tYWUnLCAnPG91dGZpbGUubWFlPic=

> <r_lp_tautomer_probability>
1

> <r_epik_Ionization_Penalty>
0.0135603

> <r_epik_Ionization_Penalty_Charging>
0.0131385

> <r_epik_Ionization_Penalty_Neutral>
0.000421734

> <r_epik_State_Penalty>
0.0102091

> <r_epik_Charging_Adjusted_Penalty>
0.0233476

> <i_epik_Tot_Q>
1

> <i_epik_Tot_abs_Q>
1

> <r_epik_Metal_State_Penalty>
0.0103746

> <b_epik_Metal_Only>
0

> <s_lp_Force_Field>
OPLS_2005

> <r_lp_Energy>
65.3073

> <b_lp_Chiralities_Consistent>
1

> <s_lp_Variant>
AV-unprocessed.smi:16-1

> <Gold.Version>
5.8.1

> <Gold.Id.Protein>
6NUR|6NUR_protein|mol2

> <Gold.PLP.Fitness>
44.3340

> <Gold.PLP.PLP>
-36.7881

> <Gold.PLP.part.hbond>
-3.4660

> <Gold.PLP.part.metal>
0.0000

> <Gold.PLP.part.buried>
-5.1036

> <Gold.PLP.part.nonpolar>
-27.5221

> <Gold.PLP.part.repulsive>
0.4615

> <Gold.PLP.ligand.clash>
0.0000

> <Gold.PLP.ligand.torsion>
1.0509

> <Gold.PLP.Chemscore.Hbond>
3.0000

> <Gold.PLP.Chemscore.CHOScore>
0.0000

> <Gold.PLP.Chemscore.Metal>
0.0000

> <Gold.Chemscore.Hbonds>
donor molecule, donor type, donor heavy atom, donor atom, acceptor molecule, acceptor atom, score
      L1  H     3    60       P1  7957  1.00
      L1  H    24    52       P1 10747  1.00
      L1  H    26    55       P1 10186  1.00

> <Gold.PLP.Chemscore.Internal.Correction>
0.6477

> <Gold.Rescore>
     Score         DG    S(hbond)    S(metal)    S(lipo)     H(rot)  DE(clash)    DE(int)     intcor
     13.37     -17.04       2.99        0.00      86.15       3.33       0.02       3.66       ----

> <Gold.Chemscore.Fitness>
13.3701

> <Gold.Chemscore.DG>
-17.0442

> <Gold.Chemscore.ZeroCoef>
-5.4800

> <Gold.Chemscore.Hbond>
2.9929

> <Gold.Chemscore.Metal>
0.0000

> <Gold.Chemscore.Lipo>
86.1538

> <Gold.Chemscore.Internal_Hbond>
0.0000

> <Gold.Chemscore.DEClash>
0.0174

> <Gold.Chemscore.DEInternal>
3.6567

> <Gold.Chemscore.Rot>
3.3251

> <Gold.Chemscore.Internal.Correction>
   9.000000E+99

> <Gold.Chemscore.Hbonds>
donor molecule, donor type, donor heavy atom, donor atom, acceptor molecule, acceptor atom, score
      L1  H     3    60       P1  7957  0.99
      L1  H    24    52       P1 10747  0.98
      L1  H    26    55       P1 10186  1.00

> <Gold.Chemscore.Hbond.Weighted>
-9.9964

> <Gold.Chemscore.Metal.Weighted>
-0.0000

> <Gold.Chemscore.Lipo.Weighted>
-10.0800

> <Gold.Chemscore.Internal_Hbond.Weighted>
0.0000

> <Gold.Chemscore.DEClash.Weighted>
0.0174

> <Gold.Chemscore.DEInternal.Weighted>
3.6567

> <Gold.Chemscore.Rot.Weighted>
8.5122

> <Gold.Chemscore.Internal.Correction.Weighted>
   9.000000E+99

> <Gold.Protein.RotatedTorsions>
[ 6907 6896 6895 6894 ] final  105.65 input  -60.11 | X-H torsion
[ 7974 7965 7964 7962 ] final   86.24 input  175.53 | X-H torsion
[ 8008 7997 7996 7995 ] final -121.98 input   59.86 | X-H torsion
[ 10167 10162 10161 10158 ] final  151.79 input  -65.29 | X-H torsion
[ 10718 10713 10712 10709 ] final   19.26 input   66.30 | X-H torsion
[ 10763 10752 10751 10750 ] final  145.77 input  -60.55 | X-H torsion
[ 11005 11000 10999 10996 ] final  118.33 input  -57.11 | X-H torsion

> <Gold.Protein.ActiveResidues>
 VAL166  LYS551  ARG553  GLY616  TRP617  ASP618  TYR619  PRO620  LYS621  CYS622 
 ASP623  PHE694  ASN695  SER759  ASP760  ASP761  ALA762  ILE779  LEU786  VAL792 
 PHE793  MET794  SER795  GLU796  ALA797  LYS798  CYS799  TRP800  GLU811  SER814 

> <Gold.Protein.RotatedAtoms>
  152.5223  133.9497  159.7665 H   0  0  0  0  0  0  0  0  0  0  0  0  # atno 6907 bound_to 6896
  150.9810  133.6238  159.2729 H   0  0  0  0  0  0  0  0  0  0  0  0  # atno 6908 bound_to 6896
  151.3415  135.0870  159.9425 H   0  0  0  0  0  0  0  0  0  0  0  0  # atno 6909 bound_to 6896
  145.5749  139.2318  143.2385 H   0  0  0  0  0  0  0  0  0  0  0  0  # atno 7974 bound_to 7965
  155.1567  140.0405  157.2833 H   0  0  0  0  0  0  0  0  0  0  0  0  # atno 8008 bound_to 7997
  154.6365  140.2536  155.7345 H   0  0  0  0  0  0  0  0  0  0  0  0  # atno 8009 bound_to 7997
  156.2511  140.2864  156.0740 H   0  0  0  0  0  0  0  0  0  0  0  0  # atno 8010 bound_to 7997
  139.4838  144.5412  151.7562 H   0  0  0  0  0  0  0  0  0  0  0  0  # atno 10167 bound_to 10162
  157.1080  130.6496  149.5890 H   0  0  0  0  0  0  0  0  0  0  0  0  # atno 10718 bound_to 10713
  154.0109  135.2914  155.3392 H   0  0  0  0  0  0  0  0  0  0  0  0  # atno 10763 bound_to 10752
  154.7103  135.5152  153.8660 H   0  0  0  0  0  0  0  0  0  0  0  0  # atno 10764 bound_to 10752
  153.0723  135.6652  154.0341 H   0  0  0  0  0  0  0  0  0  0  0  0  # atno 10765 bound_to 10752
  139.9106  134.9619  156.7487 H   0  0  0  0  0  0  0  0  0  0  0  0  # atno 11005 bound_to 11000
  146.1758  140.6576  142.9212 LP  0  0  0  0  0  0  0  0  0  0  0  0  # atno 17320 bound_to 7965
  144.7420  140.4968  143.6862 LP  0  0  0  0  0  0  0  0  0  0  0  0  # atno 17321 bound_to 7965
  140.4951  144.1252  150.5958 LP  0  0  0  0  0  0  0  0  0  0  0  0  # atno 17342 bound_to 10162
  140.4126  143.2649  151.9814 LP  0  0  0  0  0  0  0  0  0  0  0  0  # atno 17343 bound_to 10162
  155.9857  130.4889  150.7045 LP  0  0  0  0  0  0  0  0  0  0  0  0  # atno 17370 bound_to 10713
  157.4584  131.0880  151.0772 LP  0  0  0  0  0  0  0  0  0  0  0  0  # atno 17371 bound_to 10713
  140.6791  133.9491  155.7900 LP  0  0  0  0  0  0  0  0  0  0  0  0  # atno 17394 bound_to 11000
  141.0523  134.0467  157.3767 LP  0  0  0  0  0  0  0  0  0  0  0  0  # atno 17395 bound_to 11000

$$$$
