AV-unprocessed.smi:4|AV-procd|sdf|34|dock6
  -GOLD-   2262015143D 1   1.00000     0.00000
 Structure written by MMmdl.
 43 44  0  0  0  0  0  0  0  0  1 V2000
  147.0511  141.5881  155.0225 C   0  0  0  0  0  0  0  0  0  0  0  0
  147.3657  140.1694  154.4804 C   0  0  0  0  0  0  0  0  0  0  0  0
  146.4105  139.2172  155.2468 C   0  0  0  0  0  0  0  0  0  0  0  0
  147.0069  140.2123  152.9729 C   0  0  0  0  0  0  0  0  0  0  0  0
  148.7799  139.7864  154.6784 N   0  0  0  0  0  0  0  0  0  0  0  0
  149.7055  140.5559  155.3889 C   0  0  0  0  0  0  0  0  0  0  0  0
  151.0058  140.2180  155.5840 C   0  0  0  0  0  0  0  0  0  0  0  0
  151.9675  141.1243  156.3402 C   0  0  0  0  0  0  0  0  0  0  0  0
  151.3316  141.7186  157.5128 N   0  0  0  0  0  0  0  0  0  0  0  0
  152.2838  142.3485  158.4236 C   0  0  0  0  0  0  0  0  0  0  0  0
  152.4259  141.5511  159.7231 C   0  0  0  0  0  0  0  0  0  0  0  0
  151.1032  141.2595  160.1305 O   0  0  0  0  0  0  0  0  0  0  0  0
  153.3444  140.3159  159.6883 C   0  0  0  0  0  0  0  0  0  0  0  0
  153.8788  140.6969  161.0696 C   0  0  0  0  0  0  0  0  0  0  0  0
  153.3428  142.1084  160.8285 C   0  0  0  0  0  0  0  0  0  0  0  0
  151.5191  138.9753  155.0065 C   0  0  0  0  0  0  0  0  0  0  0  0
  152.6755  138.5666  155.0983 O   0  0  0  0  0  0  0  0  0  0  0  0
  150.5793  138.2278  154.3006 N   0  0  0  0  0  0  0  0  0  0  0  0
  149.2420  138.5664  154.1066 C   0  0  0  0  0  0  0  0  0  0  0  0
  148.5407  137.7974  153.4513 O   0  0  0  0  0  0  0  0  0  0  0  0
  150.8972  137.3614  153.8912 H   0  0  0  0  0  0  0  0  0  0  0  0
  146.0015  141.8452  154.8746 H   0  0  0  0  0  0  0  0  0  0  0  0
  147.6294  142.3592  154.5113 H   0  0  0  0  0  0  0  0  0  0  0  0
  147.2397  141.6665  156.0941 H   0  0  0  0  0  0  0  0  0  0  0  0
  146.6992  139.1295  156.2949 H   0  0  0  0  0  0  0  0  0  0  0  0
  146.3693  138.2124  154.8308 H   0  0  0  0  0  0  0  0  0  0  0  0
  145.3850  139.5876  155.2245 H   0  0  0  0  0  0  0  0  0  0  0  0
  146.0082  140.6221  152.8181 H   0  0  0  0  0  0  0  0  0  0  0  0
  147.0046  139.2325  152.4989 H   0  0  0  0  0  0  0  0  0  0  0  0
  147.7038  140.8440  152.4208 H   0  0  0  0  0  0  0  0  0  0  0  0
  149.4131  141.4924  155.8333 H   0  0  0  0  0  0  0  0  0  0  0  0
  152.8415  140.5428  156.6363 H   0  0  0  0  0  0  0  0  0  0  0  0
  152.3291  141.9097  155.6755 H   0  0  0  0  0  0  0  0  0  0  0  0
  150.8266  140.9984  158.0205 H   0  0  0  0  0  0  0  0  0  0  0  0
  153.2544  142.4578  157.9371 H   0  0  0  0  0  0  0  0  0  0  0  0
  151.9459  143.3616  158.6450 H   0  0  0  0  0  0  0  0  0  0  0  0
  151.1571  140.5575  160.7608 H   0  0  0  0  0  0  0  0  0  0  0  0
  152.8250  139.3573  159.6592 H   0  0  0  0  0  0  0  0  0  0  0  0
  154.1105  140.3737  158.9135 H   0  0  0  0  0  0  0  0  0  0  0  0
  153.3607  140.1819  161.8798 H   0  0  0  0  0  0  0  0  0  0  0  0
  154.9623  140.6326  161.1736 H   0  0  0  0  0  0  0  0  0  0  0  0
  154.1069  142.7866  160.4446 H   0  0  0  0  0  0  0  0  0  0  0  0
  152.8201  142.5416  161.6818 H   0  0  0  0  0  0  0  0  0  0  0  0
  1  2  1  0  0  0  0
  1 22  1  0  0  0  0
  1 23  1  0  0  0  0
  1 24  1  0  0  0  0
  2  3  1  0  0  0  0
  2  4  1  0  0  0  0
  2  5  1  0  0  0  0
  3 25  1  0  0  0  0
  3 26  1  0  0  0  0
  3 27  1  0  0  0  0
  4 28  1  0  0  0  0
  4 29  1  0  0  0  0
  4 30  1  0  0  0  0
  5 19  1  0  0  0  0
  5  6  1  0  0  0  0
  6  7  2  0  0  0  0
  6 31  1  0  0  0  0
  7  8  1  0  0  0  0
  7 16  1  0  0  0  0
  8  9  1  0  0  0  0
  8 32  1  0  0  0  0
  8 33  1  0  0  0  0
  9 10  1  0  0  0  0
  9 34  1  0  0  0  0
 10 11  1  0  0  0  0
 10 35  1  0  0  0  0
 10 36  1  0  0  0  0
 11 15  1  0  0  0  0
 11 12  1  0  0  0  0
 11 13  1  0  0  0  0
 12 37  1  0  0  0  0
 13 14  1  0  0  0  0
 13 38  1  0  0  0  0
 13 39  1  0  0  0  0
 14 15  1  0  0  0  0
 14 40  1  0  0  0  0
 14 41  1  0  0  0  0
 15 42  1  0  0  0  0
 15 43  1  0  0  0  0
 16 17  2  0  0  0  0
 16 18  1  0  0  0  0
 18 21  1  0  0  0  0
 18 19  1  0  0  0  0
 19 20  2  0  0  0  0
M  END
> <s_m_source_file>
AV-unprocessed.smi

> <i_m_source_file_index>
4

> <i_lp_mmshare_version>
43012

> <i_f3d_flags>
0

> <s_epik_input>
W0NIM11DKFtDSDNdKShbQ0gzXSluMVtjSF1jKGMoPU8pW25IXWMxPU8pW0NIMl1bTkhdW0NIMl1DMihbT0hdKVtDSDJdW0NIMl1bQ0gyXTI=

> <s_epik_cmdline>
J2VwaWtfcHl0aG9uJywgJy1waCcsICc3LjAnLCAnLXRuJywgJzgnLCAnLW1hJywgJzIwMCcsICctbWV0YWxfYmluZGluZycsICctaW1hZScsICc8aW5maWxlLm1hZT4nLCAnLW9tYWUnLCAnPG91dGZpbGUubWFlPic=

> <r_lp_tautomer_probability>
0.999537

> <r_epik_Ionization_Penalty>
2.11381

> <r_epik_Ionization_Penalty_Charging>
0.000786845

> <r_epik_Ionization_Penalty_Neutral>
2.11303

> <r_epik_State_Penalty>
2.25008

> <r_epik_Charging_Adjusted_Penalty>
2.25087

> <i_epik_Tot_Q>
0

> <i_epik_Tot_abs_Q>
0

> <r_epik_Metal_State_Penalty>
2.75188

> <b_epik_Metal_Only>
0

> <s_lp_Force_Field>
OPLS_2005

> <r_lp_Energy>
31.2144

> <b_lp_Chiralities_Consistent>
1

> <s_lp_Variant>
AV-unprocessed.smi:4-2

> <Gold.Version>
5.8.1

> <Gold.Id.Protein>
6NUR|6NUR_protein|mol2

> <Gold.PLP.Fitness>
45.2283

> <Gold.PLP.PLP>
-40.9862

> <Gold.PLP.part.hbond>
-3.0000

> <Gold.PLP.part.metal>
0.0000

> <Gold.PLP.part.buried>
-3.7857

> <Gold.PLP.part.nonpolar>
-33.8285

> <Gold.PLP.part.repulsive>
0.2819

> <Gold.PLP.ligand.clash>
0.0000

> <Gold.PLP.ligand.torsion>
0.9394

> <Gold.PLP.Chemscore.Hbond>
1.0000

> <Gold.PLP.Chemscore.CHOScore>
1.0000

> <Gold.PLP.Chemscore.Metal>
0.0000

> <Gold.PLP.Chemscore.Internal.Correction>
0.1209

> <Gold.Rescore>
     Score         DG    S(hbond)    S(metal)    S(lipo)     H(rot)  DE(clash)    DE(int)     intcor
     10.47     -14.15       1.00        0.00      99.44       2.46       1.78       1.91       ----

> <Gold.Chemscore.Fitness>
10.4681

> <Gold.Chemscore.DG>
-14.1491

> <Gold.Chemscore.ZeroCoef>
-5.4800

> <Gold.Chemscore.Hbond>
0.9984

> <Gold.Chemscore.Metal>
0.0000

> <Gold.Chemscore.Lipo>
99.4448

> <Gold.Chemscore.Internal_Hbond>
0.0000

> <Gold.Chemscore.DEClash>
1.7753

> <Gold.Chemscore.DEInternal>
1.9058

> <Gold.Chemscore.Rot>
2.4612

> <Gold.Chemscore.Internal.Correction>
   9.000000E+99

> <Gold.Chemscore.Hbond.Weighted>
-3.3347

> <Gold.Chemscore.Metal.Weighted>
-0.0000

> <Gold.Chemscore.Lipo.Weighted>
-11.6350

> <Gold.Chemscore.Internal_Hbond.Weighted>
0.0000

> <Gold.Chemscore.DEClash.Weighted>
1.7753

> <Gold.Chemscore.DEInternal.Weighted>
1.9058

> <Gold.Chemscore.Rot.Weighted>
6.3006

> <Gold.Chemscore.Internal.Correction.Weighted>
   9.000000E+99

> <Gold.Protein.RotatedTorsions>
[ 6907 6896 6895 6894 ] final  -37.48 input  -60.11 | X-H torsion
[ 7974 7965 7964 7962 ] final  126.10 input  175.53 | X-H torsion
[ 8008 7997 7996 7995 ] final  -58.30 input   59.86 | X-H torsion
[ 10167 10162 10161 10158 ] final  -29.47 input  -65.29 | X-H torsion
[ 10718 10713 10712 10709 ] final -126.13 input   66.30 | X-H torsion
[ 10763 10752 10751 10750 ] final  -81.08 input  -60.55 | X-H torsion
[ 11005 11000 10999 10996 ] final -158.87 input  -57.11 | X-H torsion

> <Gold.Protein.ActiveResidues>
 VAL166  LYS551  ARG553  GLY616  TRP617  ASP618  TYR619  PRO620  LYS621  CYS622 
 ASP623  PHE694  ASN695  SER759  ASP760  ASP761  ALA762  ILE779  LEU786  VAL792 
 PHE793  MET794  SER795  GLU796  ALA797  LYS798  CYS799  TRP800  GLU811  SER814 

> <Gold.Protein.RotatedAtoms>
  151.0142  134.9420  159.8023 H   0  0  0  0  0  0  0  0  0  0  0  0  # atno 6907 bound_to 6896
  152.5310  134.2989  159.9081 H   0  0  0  0  0  0  0  0  0  0  0  0  # atno 6908 bound_to 6896
  151.2995  133.4087  159.2673 H   0  0  0  0  0  0  0  0  0  0  0  0  # atno 6909 bound_to 6896
  145.0655  139.3771  143.4984 H   0  0  0  0  0  0  0  0  0  0  0  0  # atno 7974 bound_to 7965
  154.4303  140.1087  156.5936 H   0  0  0  0  0  0  0  0  0  0  0  0  # atno 8008 bound_to 7997
  155.5986  140.3493  155.4568 H   0  0  0  0  0  0  0  0  0  0  0  0  # atno 8009 bound_to 7997
  156.0191  140.1235  157.0365 H   0  0  0  0  0  0  0  0  0  0  0  0  # atno 8010 bound_to 7997
  140.7260  143.3926  151.1403 H   0  0  0  0  0  0  0  0  0  0  0  0  # atno 10167 bound_to 10162
  156.1738  130.6685  151.0215 H   0  0  0  0  0  0  0  0  0  0  0  0  # atno 10718 bound_to 10713
  154.5592  135.5638  153.6992 H   0  0  0  0  0  0  0  0  0  0  0  0  # atno 10763 bound_to 10752
  153.0013  135.6270  154.2268 H   0  0  0  0  0  0  0  0  0  0  0  0  # atno 10764 bound_to 10752
  154.2205  135.2870  155.2906 H   0  0  0  0  0  0  0  0  0  0  0  0  # atno 10765 bound_to 10752
  140.6489  134.4472  157.5235 H   0  0  0  0  0  0  0  0  0  0  0  0  # atno 11005 bound_to 11000
  146.3526  140.0375  142.8645 LP  0  0  0  0  0  0  0  0  0  0  0  0  # atno 17320 bound_to 7965
  145.1356  140.9542  143.4519 LP  0  0  0  0  0  0  0  0  0  0  0  0  # atno 17321 bound_to 7965
  139.7533  143.8745  152.3082 LP  0  0  0  0  0  0  0  0  0  0  0  0  # atno 17342 bound_to 10162
  139.8606  144.7119  150.9104 LP  0  0  0  0  0  0  0  0  0  0  0  0  # atno 17343 bound_to 10162
  157.6821  131.0835  150.7341 LP  0  0  0  0  0  0  0  0  0  0  0  0  # atno 17370 bound_to 10713
  156.7400  130.4736  149.5480 LP  0  0  0  0  0  0  0  0  0  0  0  0  # atno 17371 bound_to 10713
  139.9053  134.8463  156.1731 LP  0  0  0  0  0  0  0  0  0  0  0  0  # atno 17394 bound_to 11000
  141.0552  133.6869  156.1846 LP  0  0  0  0  0  0  0  0  0  0  0  0  # atno 17395 bound_to 11000

$$$$
