AV-unprocessed.smi:1568|AV-procd|sdf|6310|dock6
  -GOLD-   22720 6513D 1   1.00000     0.00000
 Structure written by MMmdl.
 43 44  0  0  0  0  0  0  0  0  1 V2000
  152.2192  138.8527  155.1187 C   0  0  0  0  0  0  0  0  0  0  0  0
  151.0274  139.5060  154.7179 O   0  0  0  0  0  0  0  0  0  0  0  0
  150.0414  138.5944  154.2649 C   0  0  0  0  0  0  0  0  0  0  0  0
  149.8015  137.5313  155.3398 C   0  0  0  0  0  0  0  0  0  0  0  0
  148.7533  136.6776  154.8947 O   0  0  0  0  0  0  0  0  0  0  0  0
  148.9688  135.3137  154.8637 C   0  0  0  0  0  0  0  0  0  0  0  0
  150.1689  134.8409  155.2854 N   0  0  0  0  0  0  0  0  0  0  0  0
  150.3692  133.5064  155.2917 C   0  0  0  0  0  0  0  0  0  0  0  0
  149.3915  132.5773  154.8885 C   0  0  0  0  0  0  0  0  0  0  0  0
  148.1472  133.0654  154.4481 C   0  0  0  0  0  0  0  0  0  0  0  0
  147.9313  134.4588  154.4167 C   0  0  0  0  0  0  0  0  0  0  0  0
  146.6095  135.0022  153.9589 C   0  0  0  0  0  0  0  0  0  0  0  0
  145.9396  135.6608  154.7548 O   0  0  0  0  0  0  0  0  0  0  0  0
  146.2250  134.7592  152.6805 N   0  0  0  0  0  0  0  0  0  0  0  0
  146.9646  133.8433  151.8025 C   0  0  0  0  0  0  0  0  0  0  0  0
  146.0243  132.7175  151.3374 C   0  0  0  0  0  0  0  0  0  0  0  0
  144.7897  133.2932  150.6101 C   0  0  0  0  0  0  0  0  0  0  0  0
  143.8070  132.1813  150.2196 C   0  0  0  0  0  0  0  0  0  0  0  0
  142.6217  132.5600  149.7353 N   0  0  0  0  0  0  0  0  0  0  0  0
  144.1108  130.9969  150.3493 O   0  0  0  0  0  0  0  0  0  0  0  0
  144.1017  134.3639  151.4845 C   0  0  0  0  0  0  0  0  0  0  0  0
  145.1108  135.4169  151.9783 C   0  0  0  0  0  0  0  0  0  0  0  0
  152.9456  139.5906  155.4590 H   0  0  0  0  0  0  0  0  0  0  0  0
  152.6637  138.3005  154.2899 H   0  0  0  0  0  0  0  0  0  0  0  0
  152.0324  138.1596  155.9404 H   0  0  0  0  0  0  0  0  0  0  0  0
  149.1119  139.1236  154.0498 H   0  0  0  0  0  0  0  0  0  0  0  0
  150.3712  138.1197  153.3408 H   0  0  0  0  0  0  0  0  0  0  0  0
  150.7152  136.9576  155.5036 H   0  0  0  0  0  0  0  0  0  0  0  0
  149.5278  138.0131  156.2799 H   0  0  0  0  0  0  0  0  0  0  0  0
  151.3361  133.1685  155.6342 H   0  0  0  0  0  0  0  0  0  0  0  0
  149.5916  131.5165  154.9163 H   0  0  0  0  0  0  0  0  0  0  0  0
  147.3760  132.3783  154.1312 H   0  0  0  0  0  0  0  0  0  0  0  0
  147.3466  134.3966  150.9434 H   0  0  0  0  0  0  0  0  0  0  0  0
  147.8360  133.4019  152.2877 H   0  0  0  0  0  0  0  0  0  0  0  0
  146.5646  132.0373  150.6778 H   0  0  0  0  0  0  0  0  0  0  0  0
  145.7153  132.1294  152.2035 H   0  0  0  0  0  0  0  0  0  0  0  0
  145.1395  133.7807  149.6983 H   0  0  0  0  0  0  0  0  0  0  0  0
  141.9416  131.8649  149.4638 H   0  0  0  0  0  0  0  0  0  0  0  0
  142.4102  133.5430  149.6419 H   0  0  0  0  0  0  0  0  0  0  0  0
  143.3096  134.8555  150.9182 H   0  0  0  0  0  0  0  0  0  0  0  0
  143.6176  133.8979  152.3415 H   0  0  0  0  0  0  0  0  0  0  0  0
  144.5940  136.1633  152.5801 H   0  0  0  0  0  0  0  0  0  0  0  0
  145.5147  135.9646  151.1257 H   0  0  0  0  0  0  0  0  0  0  0  0
  1  2  1  0  0  0  0
  1 23  1  0  0  0  0
  1 24  1  0  0  0  0
  1 25  1  0  0  0  0
  2  3  1  0  0  0  0
  3  4  1  0  0  0  0
  3 26  1  0  0  0  0
  3 27  1  0  0  0  0
  4  5  1  0  0  0  0
  4 28  1  0  0  0  0
  4 29  1  0  0  0  0
  5  6  1  0  0  0  0
  6 11  1  0  0  0  0
  6  7  2  0  0  0  0
  7  8  1  0  0  0  0
  8  9  2  0  0  0  0
  8 30  1  0  0  0  0
  9 10  1  0  0  0  0
  9 31  1  0  0  0  0
 10 11  2  0  0  0  0
 10 32  1  0  0  0  0
 11 12  1  0  0  0  0
 12 13  2  0  0  0  0
 12 14  1  0  0  0  0
 14 22  1  0  0  0  0
 14 15  1  0  0  0  0
 15 16  1  0  0  0  0
 15 33  1  0  0  0  0
 15 34  1  0  0  0  0
 16 17  1  0  0  0  0
 16 35  1  0  0  0  0
 16 36  1  0  0  0  0
 17 18  1  0  0  0  0
 17 21  1  0  0  0  0
 17 37  1  0  0  0  0
 18 19  1  0  0  0  0
 18 20  2  0  0  0  0
 19 38  1  0  0  0  0
 19 39  1  0  0  0  0
 21 22  1  0  0  0  0
 21 40  1  0  0  0  0
 21 41  1  0  0  0  0
 22 42  1  0  0  0  0
 22 43  1  0  0  0  0
M  END
> <s_m_source_file>
AV-unprocessed.smi

> <i_m_source_file_index>
1568

> <i_lp_mmshare_version>
43012

> <i_f3d_flags>
0

> <s_epik_input>
W0NIM11PW0NIMl1bQ0gyXU9jMW5bY0hdW2NIXVtjSF1jMUMoPU8pTjJbQ0gyXVtDSDJdW0NIXShDKD1PKVtOSDJdKVtDSDJdW0NIMl0y

> <s_epik_cmdline>
J2VwaWtfcHl0aG9uJywgJy1waCcsICc3LjAnLCAnLXRuJywgJzgnLCAnLW1hJywgJzIwMCcsICctbWV0YWxfYmluZGluZycsICctaW1hZScsICc8aW5maWxlLm1hZT4nLCAnLW9tYWUnLCAnPG91dGZpbGUubWFlPic=

> <r_lp_tautomer_probability>
1

> <r_epik_Ionization_Penalty>
2.36279e-06

> <r_epik_Ionization_Penalty_Charging>
0

> <r_epik_Ionization_Penalty_Neutral>
2.36279e-06

> <r_epik_State_Penalty>
-0

> <r_epik_Charging_Adjusted_Penalty>
0

> <i_epik_Tot_Q>
0

> <i_epik_Tot_abs_Q>
0

> <r_epik_Metal_State_Penalty>
-0

> <b_epik_Metal_Only>
0

> <s_lp_Force_Field>
OPLS_2005

> <r_lp_Energy>
28.0257

> <b_lp_Chiralities_Consistent>
1

> <s_lp_Variant>
AV-unprocessed.smi:1568-1

> <Gold.Version>
5.8.1

> <Gold.Id.Protein>
6NUR|6NUR_protein|mol2

> <Gold.PLP.Fitness>
39.9552

> <Gold.PLP.PLP>
-31.7908

> <Gold.PLP.part.hbond>
-3.9465

> <Gold.PLP.part.metal>
0.0000

> <Gold.PLP.part.buried>
-1.1425

> <Gold.PLP.part.nonpolar>
-27.2871

> <Gold.PLP.part.repulsive>
1.3761

> <Gold.PLP.ligand.clash>
0.0000

> <Gold.PLP.ligand.torsion>
1.7690

> <Gold.PLP.Chemscore.Hbond>
3.2119

> <Gold.PLP.Chemscore.CHOScore>
0.0000

> <Gold.PLP.Chemscore.Metal>
0.0000

> <Gold.Chemscore.Hbonds>
donor molecule, donor type, donor heavy atom, donor atom, acceptor molecule, acceptor atom, score
      L1  H    19    38       P1 10952  1.00
      L1  H    19    39       P1 10186  0.69
      P1  H  7989  7998       L1     2  1.00
      P1  H 10785 10796       L1    20  0.48

> <Gold.PLP.Chemscore.Internal.Correction>
2.0667

> <Gold.Rescore>
     Score         DG    S(hbond)    S(metal)    S(lipo)     H(rot)  DE(clash)    DE(int)     intcor
     11.11     -15.81       2.51        0.00      65.11       2.21       0.60       4.09       ----

> <Gold.Chemscore.Fitness>
11.1147

> <Gold.Chemscore.DG>
-15.8113

> <Gold.Chemscore.ZeroCoef>
-5.4800

> <Gold.Chemscore.Hbond>
2.5098

> <Gold.Chemscore.Metal>
0.0000

> <Gold.Chemscore.Lipo>
65.1135

> <Gold.Chemscore.Internal_Hbond>
0.0000

> <Gold.Chemscore.DEClash>
0.6031

> <Gold.Chemscore.DEInternal>
4.0935

> <Gold.Chemscore.Rot>
2.2148

> <Gold.Chemscore.Internal.Correction>
   9.000000E+99

> <Gold.Chemscore.Hbonds>
donor molecule, donor type, donor heavy atom, donor atom, acceptor molecule, acceptor atom, score
      L1  H    19    38       P1 10952  0.99
      L1  H    19    39       P1 10186  0.68
      P1  H  7989  7998       L1     2  0.43
      P1  H 10785 10796       L1    20  0.20

> <Gold.Chemscore.Hbond.Weighted>
-8.3828

> <Gold.Chemscore.Metal.Weighted>
-0.0000

> <Gold.Chemscore.Lipo.Weighted>
-7.6183

> <Gold.Chemscore.Internal_Hbond.Weighted>
0.0000

> <Gold.Chemscore.DEClash.Weighted>
0.6031

> <Gold.Chemscore.DEInternal.Weighted>
4.0935

> <Gold.Chemscore.Rot.Weighted>
5.6698

> <Gold.Chemscore.Internal.Correction.Weighted>
   9.000000E+99

> <Gold.Protein.RotatedTorsions>
[ 6907 6896 6895 6894 ] final  148.08 input  -60.11 | X-H torsion
[ 7974 7965 7964 7962 ] final -123.19 input  175.53 | X-H torsion
[ 8008 7997 7996 7995 ] final   14.10 input   59.86 | X-H torsion
[ 10167 10162 10161 10158 ] final  -38.12 input  -65.29 | X-H torsion
[ 10718 10713 10712 10709 ] final -162.79 input   66.30 | X-H torsion
[ 10763 10752 10751 10750 ] final  -94.38 input  -60.55 | X-H torsion
[ 11005 11000 10999 10996 ] final    6.36 input  -57.11 | X-H torsion

> <Gold.Protein.ActiveResidues>
 VAL166  LYS551  ARG553  GLY616  TRP617  ASP618  TYR619  PRO620  LYS621  CYS622 
 ASP623  PHE694  ASN695  SER759  ASP760  ASP761  ALA762  ILE779  LEU786  VAL792 
 PHE793  MET794  SER795  GLU796  ALA797  LYS798  CYS799  TRP800  GLU811  SER814 

> <Gold.Protein.RotatedAtoms>
  152.1462  133.4494  159.4790 H   0  0  0  0  0  0  0  0  0  0  0  0  # atno 6907 bound_to 6896
  150.6891  134.2245  159.4419 H   0  0  0  0  0  0  0  0  0  0  0  0  # atno 6908 bound_to 6896
  152.0138  134.9861  160.0619 H   0  0  0  0  0  0  0  0  0  0  0  0  # atno 6909 bound_to 6896
  145.0213  140.7991  143.4379 H   0  0  0  0  0  0  0  0  0  0  0  0  # atno 7974 bound_to 7965
  154.8438  140.2919  155.5642 H   0  0  0  0  0  0  0  0  0  0  0  0  # atno 8008 bound_to 7997
  156.3013  140.2509  156.3317 H   0  0  0  0  0  0  0  0  0  0  0  0  # atno 8009 bound_to 7997
  154.9096  140.0389  157.1928 H   0  0  0  0  0  0  0  0  0  0  0  0  # atno 8010 bound_to 7997
  140.7100  143.3298  151.2596 H   0  0  0  0  0  0  0  0  0  0  0  0  # atno 10167 bound_to 10162
  156.6155  130.8868  151.2946 H   0  0  0  0  0  0  0  0  0  0  0  0  # atno 10718 bound_to 10713
  154.7050  135.5159  153.8582 H   0  0  0  0  0  0  0  0  0  0  0  0  # atno 10763 bound_to 10752
  153.0734  135.6608  154.0207 H   0  0  0  0  0  0  0  0  0  0  0  0  # atno 10764 bound_to 10752
  154.0060  135.3006  155.3377 H   0  0  0  0  0  0  0  0  0  0  0  0  # atno 10765 bound_to 10752
  140.5603  134.0198  155.7969 H   0  0  0  0  0  0  0  0  0  0  0  0  # atno 11005 bound_to 11000
  145.1891  139.2310  143.5252 LP  0  0  0  0  0  0  0  0  0  0  0  0  # atno 17320 bound_to 7965
  146.3486  140.1683  142.8590 LP  0  0  0  0  0  0  0  0  0  0  0  0  # atno 17321 bound_to 7965
  139.6776  143.9910  152.2790 LP  0  0  0  0  0  0  0  0  0  0  0  0  # atno 17342 bound_to 10162
  139.9529  144.6608  150.8154 LP  0  0  0  0  0  0  0  0  0  0  0  0  # atno 17343 bound_to 10162
  157.7242  130.9600  150.1565 LP  0  0  0  0  0  0  0  0  0  0  0  0  # atno 17370 bound_to 10713
  156.2355  130.3686  149.8396 LP  0  0  0  0  0  0  0  0  0  0  0  0  # atno 17371 bound_to 10713
  141.1118  133.9604  157.2896 LP  0  0  0  0  0  0  0  0  0  0  0  0  # atno 17394 bound_to 11000
  139.9411  135.0191  156.8710 LP  0  0  0  0  0  0  0  0  0  0  0  0  # atno 17395 bound_to 11000

$$$$
