AV-unprocessed.smi:86|AV-procd|sdf|815|dock6
  -GOLD-   2262017213D 1   1.00000     0.00000
 Structure written by MMmdl.
 51 55  0  0  0  0  0  0  0  0  1 V2000
  150.6432  136.6930  159.1046 O   0  0  0  0  0  0  0  0  0  0  0  0
  149.3738  137.2721  158.8788 C   0  0  0  0  0  0  0  0  0  0  0  0
  148.2430  136.3884  159.4339 C   0  0  0  0  0  0  0  0  0  0  0  0
  148.3106  134.9673  158.8357 C   0  0  0  0  0  0  0  0  0  0  0  0
  147.9734  134.8978  157.4215 N   0  0  0  0  0  0  0  0  0  0  0  0
  148.8402  134.6441  156.3838 C   0  0  0  0  0  0  0  0  0  0  0  0
  148.2979  134.6314  155.1980 N   0  0  0  0  0  0  0  0  0  0  0  0
  146.9487  134.8801  155.4291 C   0  0  0  0  0  0  0  0  0  0  0  0
  145.7926  134.9964  154.5991 C   0  0  0  0  0  0  0  0  0  0  0  0
  145.7922  134.8649  153.2470 N   0  0  0  0  0  0  0  0  0  0  0  0
  146.9054  134.2593  152.5201 C   0  0  0  0  0  0  0  0  0  0  0  0
  146.3007  133.7068  151.2202 C   0  0  1  0  0  0  0  0  0  0  0  0
  145.9330  132.2133  151.3660 C   0  0  0  0  0  0  0  0  0  0  0  0
  144.9905  131.7366  150.2531 C   0  0  0  0  0  0  0  0  0  0  0  0
  143.7042  132.5762  150.2473 C   0  0  2  0  0  0  0  0  0  0  0  0
  142.8476  132.1217  149.2211 O   0  0  0  0  0  0  0  0  0  0  0  0
  144.0245  134.0635  150.0243 C   0  0  0  0  0  0  0  0  0  0  0  0
  145.0685  134.6056  151.0199 C   0  0  1  0  0  0  0  0  0  0  0  0
  144.5770  134.8482  152.4482 C   0  0  0  0  0  0  0  0  0  0  0  0
  144.6077  135.2410  155.2186 N   0  0  0  0  0  0  0  0  0  0  0  0
  144.5472  135.3702  156.5462 C   0  0  0  0  0  0  0  0  0  0  0  0
  145.5363  135.2913  157.4364 N   0  0  0  0  0  0  0  0  0  0  0  0
  146.7309  135.0444  156.8287 C   0  0  0  0  0  0  0  0  0  0  0  0
  148.0560  136.4649  160.9555 C   0  0  0  0  0  0  0  0  0  0  0  0
  146.9520  137.3854  160.8287 O   0  0  0  0  0  0  0  0  0  0  0  0
  146.8608  137.0571  159.4263 C   0  0  0  0  0  0  0  0  0  0  0  0
  151.2380  137.3735  159.3811 H   0  0  0  0  0  0  0  0  0  0  0  0
  149.3652  138.2502  159.3612 H   0  0  0  0  0  0  0  0  0  0  0  0
  149.2501  137.4636  157.8130 H   0  0  0  0  0  0  0  0  0  0  0  0
  149.3074  134.5448  158.9676 H   0  0  0  0  0  0  0  0  0  0  0  0
  147.6387  134.2953  159.3710 H   0  0  0  0  0  0  0  0  0  0  0  0
  149.8968  134.4753  156.5344 H   0  0  0  0  0  0  0  0  0  0  0  0
  147.6389  135.0359  152.3014 H   0  0  0  0  0  0  0  0  0  0  0  0
  147.4047  133.4760  153.0921 H   0  0  0  0  0  0  0  0  0  0  0  0
  146.9955  133.8197  150.3869 H   0  0  0  0  0  0  0  0  0  0  0  0
  146.8404  131.6087  151.3686 H   0  0  0  0  0  0  0  0  0  0  0  0
  145.4517  132.0394  152.3296 H   0  0  0  0  0  0  0  0  0  0  0  0
  145.4940  131.8091  149.2880 H   0  0  0  0  0  0  0  0  0  0  0  0
  144.7500  130.6834  150.4026 H   0  0  0  0  0  0  0  0  0  0  0  0
  143.1815  132.4498  151.1959 H   0  0  0  0  0  0  0  0  0  0  0  0
  142.1608  132.7592  149.0985 H   0  0  0  0  0  0  0  0  0  0  0  0
  144.4148  134.1932  149.0137 H   0  0  0  0  0  0  0  0  0  0  0  0
  143.1138  134.6614  150.0769 H   0  0  0  0  0  0  0  0  0  0  0  0
  145.4183  135.5672  150.6401 H   0  0  0  0  0  0  0  0  0  0  0  0
  143.9281  134.0410  152.7898 H   0  0  0  0  0  0  0  0  0  0  0  0
  144.0322  135.7897  152.5225 H   0  0  0  0  0  0  0  0  0  0  0  0
  143.5656  135.5631  156.9533 H   0  0  0  0  0  0  0  0  0  0  0  0
  147.7468  135.5233  161.4128 H   0  0  0  0  0  0  0  0  0  0  0  0
  148.9038  136.8960  161.4892 H   0  0  0  0  0  0  0  0  0  0  0  0
  146.7956  137.9392  158.7883 H   0  0  0  0  0  0  0  0  0  0  0  0
  146.0327  136.3746  159.2320 H   0  0  0  0  0  0  0  0  0  0  0  0
  1  2  1  0  0  0  0
  1 27  1  0  0  0  0
  2  3  1  0  0  0  0
  2 28  1  0  0  0  0
  2 29  1  0  0  0  0
  3 26  1  0  0  0  0
  3  4  1  0  0  0  0
  3 24  1  0  0  0  0
  4  5  1  0  0  0  0
  4 30  1  0  0  0  0
  4 31  1  0  0  0  0
  5 23  1  0  0  0  0
  5  6  1  0  0  0  0
  6  7  2  0  0  0  0
  6 32  1  0  0  0  0
  7  8  1  0  0  0  0
  8 23  2  0  0  0  0
  8  9  1  0  0  0  0
  9 10  1  0  0  0  0
  9 20  2  0  0  0  0
 10 19  1  0  0  0  0
 10 11  1  0  0  0  0
 11 12  1  0  0  0  0
 11 33  1  0  0  0  0
 11 34  1  0  0  0  0
 12 18  1  0  0  0  0
 12 13  1  0  0  0  0
 12 35  1  0  0  0  0
 13 14  1  0  0  0  0
 13 36  1  0  0  0  0
 13 37  1  0  0  0  0
 14 15  1  0  0  0  0
 14 38  1  0  0  0  0
 14 39  1  0  0  0  0
 15 16  1  0  0  0  0
 15 17  1  0  0  0  0
 15 40  1  0  0  0  0
 16 41  1  0  0  0  0
 17 18  1  0  0  0  0
 17 42  1  0  0  0  0
 17 43  1  0  0  0  0
 18 19  1  0  0  0  0
 18 44  1  0  0  0  0
 19 45  1  0  0  0  0
 19 46  1  0  0  0  0
 20 21  1  0  0  0  0
 21 22  2  0  0  0  0
 21 47  1  0  0  0  0
 22 23  1  0  0  0  0
 24 25  1  0  0  0  0
 24 48  1  0  0  0  0
 24 49  1  0  0  0  0
 25 26  1  0  0  0  0
 26 50  1  0  0  0  0
 26 51  1  0  0  0  0
M  END
> <s_m_source_file>
AV-unprocessed.smi

> <i_m_source_file_index>
86

> <i_lp_mmshare_version>
43012

> <i_f3d_flags>
0

> <s_epik_input>
W0NIMl0xT1tDSDJdQzEoW0NIMl1bT0hdKVtDSDJdbihbY0hdbjIpYyhjMjMpbltjSF1uYzNOKFtDSDJdNClbQ0gyXVtDQEBIXShbQ0BIXTQ1KVtDSDJdW0NASF0oW09IXSlbQ0gyXVtDSDJdNQ==

> <s_epik_cmdline>
J2VwaWtfcHl0aG9uJywgJy1waCcsICc3LjAnLCAnLXRuJywgJzgnLCAnLW1hJywgJzIwMCcsICctbWV0YWxfYmluZGluZycsICctaW1hZScsICc8aW5maWxlLm1hZT4nLCAnLW9tYWUnLCAnPG91dGZpbGUubWFlPic=

> <r_lp_tautomer_probability>
1

> <r_epik_Ionization_Penalty>
0.00425795

> <r_epik_Ionization_Penalty_Charging>
0

> <r_epik_Ionization_Penalty_Neutral>
0.00425795

> <r_epik_State_Penalty>
0.00299946

> <r_epik_Charging_Adjusted_Penalty>
0.00299946

> <i_epik_Tot_Q>
0

> <i_epik_Tot_abs_Q>
0

> <r_epik_Metal_State_Penalty>
-0

> <b_epik_Metal_Only>
0

> <s_lp_Force_Field>
OPLS_2005

> <r_lp_Energy>
53.5729

> <b_lp_Chiralities_Consistent>
1

> <s_lp_Variant>
AV-unprocessed.smi:86-4

> <Gold.Version>
5.8.1

> <Gold.Id.Protein>
6NUR|6NUR_protein|mol2

> <Gold.PLP.Fitness>
42.8446

> <Gold.PLP.PLP>
-31.7091

> <Gold.PLP.part.hbond>
-5.0000

> <Gold.PLP.part.metal>
0.0000

> <Gold.PLP.part.buried>
-3.4916

> <Gold.PLP.part.nonpolar>
-23.6020

> <Gold.PLP.part.repulsive>
0.1236

> <Gold.PLP.ligand.clash>
0.0000

> <Gold.PLP.ligand.torsion>
0.4193

> <Gold.PLP.Chemscore.Hbond>
3.8363

> <Gold.PLP.Chemscore.CHOScore>
0.0000

> <Gold.PLP.Chemscore.Metal>
0.0000

> <Gold.Chemscore.Hbonds>
donor molecule, donor type, donor heavy atom, donor atom, acceptor molecule, acceptor atom, score
      L1  H    16    41       P1 10186  0.93
      P1  H  6896  6907       L1     1  0.96
      P1  H  6934  6947       L1    25  1.00
      P1  H 10785 10796       L1    16  0.91

> <Gold.PLP.Chemscore.Internal.Correction>
0.4652

> <Gold.Rescore>
     Score         DG    S(hbond)    S(metal)    S(lipo)     H(rot)  DE(clash)    DE(int)     intcor
     15.18     -17.67       3.15        0.00      74.70       2.76       0.98       1.51       ----

> <Gold.Chemscore.Fitness>
15.1801

> <Gold.Chemscore.DG>
-17.6707

> <Gold.Chemscore.ZeroCoef>
-5.4800

> <Gold.Chemscore.Hbond>
3.1509

> <Gold.Chemscore.Metal>
0.0000

> <Gold.Chemscore.Lipo>
74.7018

> <Gold.Chemscore.Internal_Hbond>
0.0000

> <Gold.Chemscore.DEClash>
0.9765

> <Gold.Chemscore.DEInternal>
1.5141

> <Gold.Chemscore.Rot>
2.7630

> <Gold.Chemscore.Internal.Correction>
   9.000000E+99

> <Gold.Chemscore.Hbonds>
donor molecule, donor type, donor heavy atom, donor atom, acceptor molecule, acceptor atom, score
      L1  H    16    41       P1 10186  0.88
      P1  H  6896  6907       L1     1  0.90
      P1  H  6934  6947       L1    25  0.60
      P1  H 10785 10796       L1    16  0.73

> <Gold.Chemscore.Hbond.Weighted>
-10.5240

> <Gold.Chemscore.Metal.Weighted>
-0.0000

> <Gold.Chemscore.Lipo.Weighted>
-8.7401

> <Gold.Chemscore.Internal_Hbond.Weighted>
0.0000

> <Gold.Chemscore.DEClash.Weighted>
0.9765

> <Gold.Chemscore.DEInternal.Weighted>
1.5141

> <Gold.Chemscore.Rot.Weighted>
7.0734

> <Gold.Chemscore.Internal.Correction.Weighted>
   9.000000E+99

> <Gold.Protein.RotatedTorsions>
[ 6907 6896 6895 6894 ] final  -47.37 input  -60.11 | X-H torsion
[ 7974 7965 7964 7962 ] final   91.40 input  175.53 | X-H torsion
[ 8008 7997 7996 7995 ] final  145.57 input   59.86 | X-H torsion
[ 10167 10162 10161 10158 ] final  -46.87 input  -65.29 | X-H torsion
[ 10718 10713 10712 10709 ] final   92.43 input   66.30 | X-H torsion
[ 10763 10752 10751 10750 ] final   82.71 input  -60.55 | X-H torsion
[ 11005 11000 10999 10996 ] final  121.04 input  -57.11 | X-H torsion

> <Gold.Protein.ActiveResidues>
 VAL166  LYS551  ARG553  GLY616  TRP617  ASP618  TYR619  PRO620  LYS621  CYS622 
 ASP623  PHE694  ASN695  SER759  ASP760  ASP761  ALA762  ILE779  LEU786  VAL792 
 PHE793  MET794  SER795  GLU796  ALA797  LYS798  CYS799  TRP800  GLU811  SER814 

> <Gold.Protein.RotatedAtoms>
  150.9014  134.8427  159.7362 H   0  0  0  0  0  0  0  0  0  0  0  0  # atno 6907 bound_to 6896
  152.4895  134.4496  159.9580 H   0  0  0  0  0  0  0  0  0  0  0  0  # atno 6908 bound_to 6896
  151.4547  133.3569  159.2835 H   0  0  0  0  0  0  0  0  0  0  0  0  # atno 6909 bound_to 6896
  145.5061  139.2276  143.2750 H   0  0  0  0  0  0  0  0  0  0  0  0  # atno 7974 bound_to 7965
  156.2879  140.2205  156.5236 H   0  0  0  0  0  0  0  0  0  0  0  0  # atno 8008 bound_to 7997
  154.7508  140.0480  157.0913 H   0  0  0  0  0  0  0  0  0  0  0  0  # atno 8009 bound_to 7997
  155.0112  140.3113  155.4832 H   0  0  0  0  0  0  0  0  0  0  0  0  # atno 8010 bound_to 7997
  140.6799  143.2810  151.3846 H   0  0  0  0  0  0  0  0  0  0  0  0  # atno 10167 bound_to 10162
  157.6958  131.0443  150.3880 H   0  0  0  0  0  0  0  0  0  0  0  0  # atno 10718 bound_to 10713
  153.1226  135.4718  154.9221 H   0  0  0  0  0  0  0  0  0  0  0  0  # atno 10763 bound_to 10752
  154.7590  135.3126  154.8417 H   0  0  0  0  0  0  0  0  0  0  0  0  # atno 10764 bound_to 10752
  153.8977  135.6878  153.4810 H   0  0  0  0  0  0  0  0  0  0  0  0  # atno 10765 bound_to 10752
  139.9209  134.9637  156.7897 H   0  0  0  0  0  0  0  0  0  0  0  0  # atno 11005 bound_to 11000
  146.2196  140.5865  142.9023 LP  0  0  0  0  0  0  0  0  0  0  0  0  # atno 17320 bound_to 7965
  144.7753  140.5726  143.6642 LP  0  0  0  0  0  0  0  0  0  0  0  0  # atno 17321 bound_to 7965
  139.6115  144.1090  152.2303 LP  0  0  0  0  0  0  0  0  0  0  0  0  # atno 17342 bound_to 10162
  140.0505  144.5936  150.7340 LP  0  0  0  0  0  0  0  0  0  0  0  0  # atno 17343 bound_to 10162
  156.4287  130.3967  149.6775 LP  0  0  0  0  0  0  0  0  0  0  0  0  # atno 17370 bound_to 10713
  156.4000  130.7670  151.2677 LP  0  0  0  0  0  0  0  0  0  0  0  0  # atno 17371 bound_to 10713
  140.6477  133.9760  155.7739 LP  0  0  0  0  0  0  0  0  0  0  0  0  # atno 17394 bound_to 11000
  141.0729  134.0178  157.3500 LP  0  0  0  0  0  0  0  0  0  0  0  0  # atno 17395 bound_to 11000

$$$$
