AV-unprocessed.smi:54|AV-procd|sdf|533|dock2
  -GOLD-   2262016413D 1   1.00000     0.00000
 Structure written by MMmdl.
 44 46  0  0  0  0  0  0  0  0  1 V2000
  147.4553  133.5280  159.4731 C   0  0  0  0  0  0  0  0  0  0  0  0
  148.4613  134.5651  159.9982 C   0  0  0  0  0  0  0  0  0  0  0  0
  148.1322  134.9817  161.4410 C   0  0  0  0  0  0  0  0  0  0  0  0
  148.5023  135.7907  159.0788 C   0  0  0  0  0  0  0  0  0  0  0  0
  147.5545  136.5704  158.9885 O   0  0  0  0  0  0  0  0  0  0  0  0
  149.7360  135.9741  158.3390 N   0  0  0  0  0  0  0  0  0  0  0  0
  150.0250  136.9645  157.4644 C   0  0  0  0  0  0  0  0  0  0  0  0
  149.1171  137.5302  156.6808 N   0  0  0  0  0  0  0  0  0  0  0  0
  149.6081  138.4951  155.8434 C   0  0  0  0  0  0  0  0  0  0  0  0
  150.9213  138.9126  155.7584 C   0  0  0  0  0  0  0  0  0  0  0  0
  151.0490  139.9139  154.8031 N   0  0  0  0  0  0  0  0  0  0  0  0
  149.8399  140.0646  154.3417 C   0  0  0  0  0  0  0  0  0  0  0  0
  148.9047  139.2359  154.9127 N   0  0  0  0  0  0  0  0  0  0  0  0
  147.4474  139.1598  154.5948 C   0  0  2  0  0  0  0  0  0  0  0  0
  147.1438  137.8526  154.2305 O   0  0  0  0  0  0  0  0  0  0  0  0
  146.0533  137.8932  153.3222 C   0  0  2  0  0  0  0  0  0  0  0  0
  145.8824  136.5533  152.5858 C   0  0  0  0  0  0  0  0  0  0  0  0
  144.8327  136.6476  151.6465 O   0  0  0  0  0  0  0  0  0  0  0  0
  146.3877  139.1093  152.4432 C   0  0  2  0  0  0  0  0  0  0  0  0
  147.2593  138.7636  151.3835 O   0  0  0  0  0  0  0  0  0  0  0  0
  147.0760  140.0719  153.4115 C   0  0  1  0  0  0  0  0  0  0  0  0
  146.1552  141.0686  153.8094 O   0  0  0  0  0  0  0  0  0  0  0  0
  151.9140  138.3085  156.5991 C   0  0  0  0  0  0  0  0  0  0  0  0
  153.1170  138.5540  156.6553 O   0  0  0  0  0  0  0  0  0  0  0  0
  151.3719  137.3222  157.4310 N   0  0  0  0  0  0  0  0  0  0  0  0
  146.9380  139.4194  155.5243 H   0  0  0  0  0  0  0  0  0  0  0  0
  145.1463  138.1254  153.8849 H   0  0  0  0  0  0  0  0  0  0  0  0
  145.4866  139.5330  151.9973 H   0  0  0  0  0  0  0  0  0  0  0  0
  147.9592  140.5430  152.9765 H   0  0  0  0  0  0  0  0  0  0  0  0
  147.6828  133.2386  158.4464 H   0  0  0  0  0  0  0  0  0  0  0  0
  146.4346  133.9124  159.4925 H   0  0  0  0  0  0  0  0  0  0  0  0
  147.4779  132.6226  160.0800 H   0  0  0  0  0  0  0  0  0  0  0  0
  149.4507  134.1052  159.9968 H   0  0  0  0  0  0  0  0  0  0  0  0
  148.8440  135.7199  161.8125 H   0  0  0  0  0  0  0  0  0  0  0  0
  148.1721  134.1235  162.1123 H   0  0  0  0  0  0  0  0  0  0  0  0
  147.1333  135.4134  161.5176 H   0  0  0  0  0  0  0  0  0  0  0  0
  150.4717  135.3114  158.5340 H   0  0  0  0  0  0  0  0  0  0  0  0
  149.5998  140.7789  153.5677 H   0  0  0  0  0  0  0  0  0  0  0  0
  146.7903  136.3053  152.0354 H   0  0  0  0  0  0  0  0  0  0  0  0
  145.6872  135.7388  153.2820 H   0  0  0  0  0  0  0  0  0  0  0  0
  145.2011  136.8730  150.8058 H   0  0  0  0  0  0  0  0  0  0  0  0
  147.7597  138.0038  151.6382 H   0  0  0  0  0  0  0  0  0  0  0  0
  145.2936  140.8154  153.5158 H   0  0  0  0  0  0  0  0  0  0  0  0
  152.0154  136.8492  158.0479 H   0  0  0  0  0  0  0  0  0  0  0  0
  1  2  1  0  0  0  0
  1 30  1  0  0  0  0
  1 31  1  0  0  0  0
  1 32  1  0  0  0  0
  2  3  1  0  0  0  0
  2  4  1  0  0  0  0
  2 33  1  0  0  0  0
  3 34  1  0  0  0  0
  3 35  1  0  0  0  0
  3 36  1  0  0  0  0
  4  5  2  0  0  0  0
  4  6  1  0  0  0  0
  6 37  1  0  0  0  0
  6  7  1  0  0  0  0
  7 25  1  0  0  0  0
  7  8  2  0  0  0  0
  8  9  1  0  0  0  0
  9 13  1  0  0  0  0
  9 10  2  0  0  0  0
 10 11  1  0  0  0  0
 10 23  1  0  0  0  0
 11 12  2  0  0  0  0
 12 13  1  0  0  0  0
 12 38  1  0  0  0  0
 13 14  1  0  0  0  0
 14 26  1  0  0  0  0
 14 21  1  0  0  0  0
 14 15  1  0  0  0  0
 15 16  1  0  0  0  0
 16 27  1  0  0  0  0
 16 17  1  0  0  0  0
 16 19  1  0  0  0  0
 17 18  1  0  0  0  0
 17 39  1  0  0  0  0
 17 40  1  0  0  0  0
 18 41  1  0  0  0  0
 19 28  1  0  0  0  0
 19 20  1  0  0  0  0
 19 21  1  0  0  0  0
 20 42  1  0  0  0  0
 21 29  1  0  0  0  0
 21 22  1  0  0  0  0
 22 43  1  0  0  0  0
 23 24  2  0  0  0  0
 23 25  1  0  0  0  0
 25 44  1  0  0  0  0
M  END
> <s_m_source_file>
AV-unprocessed.smi

> <i_m_source_file_index>
54

> <i_lp_mmshare_version>
43012

> <i_f3d_flags>
0

> <s_epik_input>
W0NIM11bQ0hdKFtDSDNdKUMoPU8pW05IXWMobjEpW25IXWMoPU8pYyhjMTIpbltjSF1uMltDQEBIXTNPW0NASF0oW0NIMl1bT0hdKVtDQEBIXShbT0hdKVtDQEhdM1tPSF0=

> <s_epik_cmdline>
J2VwaWtfcHl0aG9uJywgJy1waCcsICc3LjAnLCAnLXRuJywgJzgnLCAnLW1hJywgJzIwMCcsICctbWV0YWxfYmluZGluZycsICctaW1hZScsICc8aW5maWxlLm1hZT4nLCAnLW9tYWUnLCAnPG91dGZpbGUubWFlPic=

> <r_lp_tautomer_probability>
0.85571

> <r_epik_Ionization_Penalty>
0.0316551

> <r_epik_Ionization_Penalty_Charging>
0.0316043

> <r_epik_Ionization_Penalty_Neutral>
5.07097e-05

> <r_epik_State_Penalty>
3.15494e-07

> <r_epik_Charging_Adjusted_Penalty>
0.0316047

> <i_epik_Tot_Q>
0

> <i_epik_Tot_abs_Q>
0

> <r_epik_Metal_State_Penalty>
0.421206

> <b_epik_Metal_Only>
0

> <s_epik_Chemistry_Notes>
This compound contains an acetal/aminal-like group ( X-CH(R)-Y where X, Y are N, S, or O) that may be acid/base labile, releasing an aldehyde.

> <s_lp_Force_Field>
OPLS_2005

> <r_lp_Energy>
38.1022

> <b_lp_Chiralities_Consistent>
1

> <s_lp_Variant>
AV-unprocessed.smi:54-5

> <Gold.Version>
5.8.1

> <Gold.Id.Protein>
6NUR|6NUR_protein|mol2

> <Gold.PLP.Fitness>
46.5981

> <Gold.PLP.PLP>
-29.4938

> <Gold.PLP.part.hbond>
-6.6687

> <Gold.PLP.part.metal>
0.0000

> <Gold.PLP.part.buried>
-2.3213

> <Gold.PLP.part.nonpolar>
-20.9241

> <Gold.PLP.part.repulsive>
0.4000

> <Gold.PLP.ligand.clash>
0.0000

> <Gold.PLP.ligand.torsion>
0.3393

> <Gold.PLP.Chemscore.Hbond>
4.9140

> <Gold.PLP.Chemscore.CHOScore>
1.0000

> <Gold.PLP.Chemscore.Metal>
0.0000

> <Gold.Chemscore.Hbonds>
donor molecule, donor type, donor heavy atom, donor atom, acceptor molecule, acceptor atom, score
      L1  H    18    41       P1 10171  0.02
      L1  H    20    42       P1  7948  0.80
      L1  H    22    43       P1 10175  1.00
      P1  H  7989  7998       L1    11  0.45
      P1  H  7997  8010       L1    24  0.93
      L1  C    12    38       P1  7957  0.79

> <Gold.PLP.Chemscore.Internal.Correction>
0.0409

> <Gold.Rescore>
     Score         DG    S(hbond)    S(metal)    S(lipo)     H(rot)  DE(clash)    DE(int)     intcor
     10.97     -13.30       3.70        0.00      49.88       4.05       0.60       1.73       ----

> <Gold.Chemscore.Fitness>
10.9693

> <Gold.Chemscore.DG>
-13.3023

> <Gold.Chemscore.ZeroCoef>
-5.4800

> <Gold.Chemscore.Hbond>
3.6984

> <Gold.Chemscore.Metal>
0.0000

> <Gold.Chemscore.Lipo>
49.8797

> <Gold.Chemscore.Internal_Hbond>
0.0000

> <Gold.Chemscore.DEClash>
0.6024

> <Gold.Chemscore.DEInternal>
1.7306

> <Gold.Chemscore.Rot>
4.0493

> <Gold.Chemscore.Internal.Correction>
   9.000000E+99

> <Gold.Chemscore.Hbonds>
donor molecule, donor type, donor heavy atom, donor atom, acceptor molecule, acceptor atom, score
      L1  H    18    41       P1 10171  0.03
      L1  H    20    42       P1  7948  0.79
      L1  H    22    43       P1 10175  0.85
      P1  H  7989  7998       L1    11  0.02
      P1  H  7997  8010       L1    24  0.87

> <Gold.Chemscore.Hbond.Weighted>
-12.3526

> <Gold.Chemscore.Metal.Weighted>
-0.0000

> <Gold.Chemscore.Lipo.Weighted>
-5.8359

> <Gold.Chemscore.Internal_Hbond.Weighted>
0.0000

> <Gold.Chemscore.DEClash.Weighted>
0.6024

> <Gold.Chemscore.DEInternal.Weighted>
1.7306

> <Gold.Chemscore.Rot.Weighted>
10.3662

> <Gold.Chemscore.Internal.Correction.Weighted>
   9.000000E+99

> <Gold.Protein.RotatedTorsions>
[ 6907 6896 6895 6894 ] final  157.74 input  -60.11 | X-H torsion
[ 7974 7965 7964 7962 ] final  -48.99 input  175.53 | X-H torsion
[ 8008 7997 7996 7995 ] final   46.68 input   59.86 | X-H torsion
[ 10167 10162 10161 10158 ] final  -37.46 input  -65.29 | X-H torsion
[ 10718 10713 10712 10709 ] final -151.32 input   66.30 | X-H torsion
[ 10763 10752 10751 10750 ] final -170.35 input  -60.55 | X-H torsion
[ 11005 11000 10999 10996 ] final -123.52 input  -57.11 | X-H torsion

> <Gold.Protein.ActiveResidues>
 VAL166  LYS551  ARG553  GLY616  TRP617  ASP618  TYR619  PRO620  LYS621  CYS622 
 ASP623  PHE694  ASN695  SER759  ASP760  ASP761  ALA762  ILE779  LEU786  VAL792 
 PHE793  MET794  SER795  GLU796  ALA797  LYS798  CYS799  TRP800  GLU811  SER814 

> <Gold.Protein.RotatedAtoms>
  152.0106  133.3860  159.4218 H   0  0  0  0  0  0  0  0  0  0  0  0  # atno 6907 bound_to 6896
  150.6900  134.3734  159.5011 H   0  0  0  0  0  0  0  0  0  0  0  0  # atno 6908 bound_to 6896
  152.1494  134.9000  160.0599 H   0  0  0  0  0  0  0  0  0  0  0  0  # atno 6909 bound_to 6896
  145.9453  140.7623  142.9531 H   0  0  0  0  0  0  0  0  0  0  0  0  # atno 7974 bound_to 7965
  155.3565  140.3416  155.4240 H   0  0  0  0  0  0  0  0  0  0  0  0  # atno 8008 bound_to 7997
  156.1736  140.1640  156.8438 H   0  0  0  0  0  0  0  0  0  0  0  0  # atno 8009 bound_to 7997
  154.5259  140.0756  156.8239 H   0  0  0  0  0  0  0  0  0  0  0  0  # atno 8010 bound_to 7997
  140.7117  143.3340  151.2504 H   0  0  0  0  0  0  0  0  0  0  0  0  # atno 10167 bound_to 10162
  156.4577  130.8198  151.2429 H   0  0  0  0  0  0  0  0  0  0  0  0  # atno 10718 bound_to 10713
  154.6425  135.2900  155.0086 H   0  0  0  0  0  0  0  0  0  0  0  0  # atno 10763 bound_to 10752
  154.1208  135.6548  153.4906 H   0  0  0  0  0  0  0  0  0  0  0  0  # atno 10764 bound_to 10752
  153.0334  135.5287  154.7298 H   0  0  0  0  0  0  0  0  0  0  0  0  # atno 10765 bound_to 10752
  140.9912  134.0536  157.3652 H   0  0  0  0  0  0  0  0  0  0  0  0  # atno 11005 bound_to 11000
  144.6786  140.2347  143.7351 LP  0  0  0  0  0  0  0  0  0  0  0  0  # atno 17320 bound_to 7965
  145.8244  139.2058  143.1919 LP  0  0  0  0  0  0  0  0  0  0  0  0  # atno 17321 bound_to 7965
  139.6830  143.9821  152.2819 LP  0  0  0  0  0  0  0  0  0  0  0  0  # atno 17342 bound_to 10162
  139.9457  144.6653  150.8221 LP  0  0  0  0  0  0  0  0  0  0  0  0  # atno 17343 bound_to 10162
  157.7499  131.0117  150.3357 LP  0  0  0  0  0  0  0  0  0  0  0  0  # atno 17370 bound_to 10713
  156.3749  130.3870  149.7146 LP  0  0  0  0  0  0  0  0  0  0  0  0  # atno 17371 bound_to 10713
  139.8993  135.0158  156.7190 LP  0  0  0  0  0  0  0  0  0  0  0  0  # atno 17394 bound_to 11000
  140.7037  133.9284  155.8040 LP  0  0  0  0  0  0  0  0  0  0  0  0  # atno 17395 bound_to 11000

$$$$
