AV-unprocessed.smi:3029|AV-procd|sdf|11525|dock9
  -GOLD-   2272016463D 1   1.00000     0.00000
 Structure written by MMmdl.
 42 43  0  0  0  0  0  0  0  0  4 V2000
  150.7047  144.6113  160.1990 O   0  0  0  0  0  0  0  0  0  0  0  0
  151.5372  143.7051  160.1848 C   0  0  0  0  0  0  0  0  0  0  0  0
  152.5057  143.5191  161.2699 C   0  0  0  0  0  0  0  0  0  0  0  0
  153.4278  142.5370  161.2357 C   0  0  0  0  0  0  0  0  0  0  0  0
  153.4891  141.6252  160.1101 C   0  0  0  0  0  0  0  0  0  0  0  0
  154.4919  140.5852  160.0482 N   0  3  0  0  0  0  0  0  0  0  0  0
  154.5420  139.8666  159.0544 O   0  0  0  0  0  0  0  0  0  0  0  0
  155.2656  140.4574  160.9910 O   0  5  0  0  0  0  0  0  0  0  0  0
  152.5903  141.7908  159.1199 C   0  0  0  0  0  0  0  0  0  0  0  0
  151.6224  142.8139  159.1512 N   0  0  0  0  0  0  0  0  0  0  0  0
  150.7096  142.9131  158.0004 C   0  0  0  0  0  0  0  0  0  0  0  0
  149.2961  142.3881  158.3207 C   0  0  0  0  0  0  0  0  0  0  0  0
  148.3143  142.7996  157.2938 N   0  3  0  0  0  0  0  0  0  0  0  0
  147.9645  141.7695  156.2904 C   0  0  2  0  0  0  0  0  0  0  0  0
  149.2414  141.2932  155.5623 C   0  0  0  0  0  0  0  0  0  0  0  0
  148.9322  140.2668  154.4658 C   0  0  0  0  0  0  0  0  0  0  0  0
  147.9267  140.8365  153.4606 C   0  0  0  0  0  0  0  0  0  0  0  0
  146.6411  141.2800  154.1706 C   0  0  0  0  0  0  0  0  0  0  0  0
  146.9099  142.3180  155.2857 C   0  0  1  0  0  0  0  0  0  0  0  0
  145.5771  142.7311  155.9624 C   0  0  0  0  0  0  0  0  0  0  0  0
  144.8276  143.4466  155.1237 F   0  0  0  0  0  0  0  0  0  0  0  0
  144.8797  141.6648  156.3538 F   0  0  0  0  0  0  0  0  0  0  0  0
  145.8250  143.4650  157.0470 F   0  0  0  0  0  0  0  0  0  0  0  0
  152.4777  144.1870  162.1184 H   0  0  0  0  0  0  0  0  0  0  0  0
  154.1197  142.4386  162.0594 H   0  0  0  0  0  0  0  0  0  0  0  0
  152.5585  141.1684  158.2373 H   0  0  0  0  0  0  0  0  0  0  0  0
  150.6413  143.9481  157.6617 H   0  0  0  0  0  0  0  0  0  0  0  0
  151.1193  142.3685  157.1479 H   0  0  0  0  0  0  0  0  0  0  0  0
  149.3178  141.3010  158.3960 H   0  0  0  0  0  0  0  0  0  0  0  0
  148.9784  142.7656  159.2933 H   0  0  0  0  0  0  0  0  0  0  0  0
  147.4625  143.0363  157.7831 H   0  0  0  0  0  0  0  0  0  0  0  0
  147.5198  140.9191  156.8098 H   0  0  0  0  0  0  0  0  0  0  0  0
  149.7534  142.1487  155.1190 H   0  0  0  0  0  0  0  0  0  0  0  0
  149.9423  140.8492  156.2694 H   0  0  0  0  0  0  0  0  0  0  0  0
  149.8514  139.9821  153.9526 H   0  0  0  0  0  0  0  0  0  0  0  0
  148.5314  139.3566  154.9140 H   0  0  0  0  0  0  0  0  0  0  0  0
  148.3689  141.6836  152.9343 H   0  0  0  0  0  0  0  0  0  0  0  0
  147.6940  140.0879  152.7028 H   0  0  0  0  0  0  0  0  0  0  0  0
  145.9556  141.6926  153.4300 H   0  0  0  0  0  0  0  0  0  0  0  0
  146.1440  140.4055  154.5926 H   0  0  0  0  0  0  0  0  0  0  0  0
  147.3276  143.2067  154.8091 H   0  0  0  0  0  0  0  0  0  0  0  0
  148.6482  143.6267  156.8197 H   0  0  0  0  0  0  0  0  0  0  0  0
  1  2  2  0  0  0  0
  2 10  1  0  0  0  0
  2  3  1  0  0  0  0
  3  4  2  0  0  0  0
  3 24  1  0  0  0  0
  4  5  1  0  0  0  0
  4 25  1  0  0  0  0
  5  6  1  0  0  0  0
  5  9  2  0  0  0  0
  6  7  2  0  0  0  0
  6  8  1  0  0  0  0
  9 10  1  0  0  0  0
  9 26  1  0  0  0  0
 10 11  1  0  0  0  0
 11 12  1  0  0  0  0
 11 27  1  0  0  0  0
 11 28  1  0  0  0  0
 12 13  1  0  0  0  0
 12 29  1  0  0  0  0
 12 30  1  0  0  0  0
 13 14  1  0  0  0  0
 13 31  1  0  0  0  0
 13 42  1  0  0  0  0
 14 19  1  0  0  0  0
 14 15  1  0  0  0  0
 14 32  1  0  0  0  0
 15 16  1  0  0  0  0
 15 33  1  0  0  0  0
 15 34  1  0  0  0  0
 16 17  1  0  0  0  0
 16 35  1  0  0  0  0
 16 36  1  0  0  0  0
 17 18  1  0  0  0  0
 17 37  1  0  0  0  0
 17 38  1  0  0  0  0
 18 19  1  0  0  0  0
 18 39  1  0  0  0  0
 18 40  1  0  0  0  0
 19 20  1  0  0  0  0
 19 41  1  0  0  0  0
 20 21  1  0  0  0  0
 20 22  1  0  0  0  0
 20 23  1  0  0  0  0
M  CHG  1   6   1
M  CHG  1   8  -1
M  CHG  1  13   1
M  END
> <s_m_source_file>
AV-unprocessed.smi

> <i_m_source_file_index>
3029

> <i_lp_mmshare_version>
43012

> <i_f3d_flags>
0

> <s_epik_input>
Tz1jMVtjSF1bY0hdYyhbTitdKD1PKVtPLV0pW2NIXW4xW0NIMl1bQ0gyXVtOSF1bQ0BASF0yW0NIMl1bQ0gyXVtDSDJdW0NIMl1bQ0BIXTJDKEYpKEYpRg==

> <s_epik_cmdline>
J2VwaWtfcHl0aG9uJywgJy1waCcsICc3LjAnLCAnLXRuJywgJzgnLCAnLW1hJywgJzIwMCcsICctbWV0YWxfYmluZGluZycsICctaW1hZScsICc8aW5maWxlLm1hZT4nLCAnLW9tYWUnLCAnPG91dGZpbGUubWFlPic=

> <r_lp_tautomer_probability>
1

> <r_epik_Ionization_Penalty>
0.037386

> <r_epik_Ionization_Penalty_Charging>
0.037386

> <r_epik_Ionization_Penalty_Neutral>
0

> <r_epik_State_Penalty>
0.0312892

> <r_epik_Charging_Adjusted_Penalty>
0.0686752

> <i_epik_Tot_Q>
1

> <i_epik_Tot_abs_Q>
3

> <r_epik_Metal_State_Penalty>
0.0312892

> <b_epik_Metal_Only>
0

> <s_lp_Force_Field>
OPLS_2005

> <r_lp_Energy>
38.6527

> <b_lp_Chiralities_Consistent>
1

> <s_lp_Variant>
AV-unprocessed.smi:3029-1

> <Gold.Version>
5.8.1

> <Gold.Id.Protein>
6NUR|6NUR_protein|mol2

> <Gold.PLP.Fitness>
50.5929

> <Gold.PLP.PLP>
-43.1580

> <Gold.PLP.part.hbond>
-3.3350

> <Gold.PLP.part.metal>
0.0000

> <Gold.PLP.part.buried>
0.3294

> <Gold.PLP.part.nonpolar>
-39.4901

> <Gold.PLP.part.repulsive>
0.2010

> <Gold.PLP.ligand.clash>
0.0000

> <Gold.PLP.ligand.torsion>
0.7249

> <Gold.PLP.Chemscore.Hbond>
2.9440

> <Gold.PLP.Chemscore.CHOScore>
0.0000

> <Gold.PLP.Chemscore.Metal>
0.0000

> <Gold.Chemscore.Hbonds>
donor molecule, donor type, donor heavy atom, donor atom, acceptor molecule, acceptor atom, score
      L1  H    13    42       P1  8028  2.00
      P1  H  7997  8008       L1     7  1.00

> <Gold.PLP.Chemscore.Internal.Correction>
0.0528

> <Gold.Rescore>
     Score         DG    S(hbond)    S(metal)    S(lipo)     H(rot)  DE(clash)    DE(int)     intcor
     15.09     -17.39       1.91        0.00      89.02       1.90       0.07       2.23       ----

> <Gold.Chemscore.Fitness>
15.0902

> <Gold.Chemscore.DG>
-17.3862

> <Gold.Chemscore.ZeroCoef>
-5.4800

> <Gold.Chemscore.Hbond>
1.9056

> <Gold.Chemscore.Metal>
0.0000

> <Gold.Chemscore.Lipo>
89.0177

> <Gold.Chemscore.Internal_Hbond>
0.0000

> <Gold.Chemscore.DEClash>
0.0663

> <Gold.Chemscore.DEInternal>
2.2296

> <Gold.Chemscore.Rot>
1.9037

> <Gold.Chemscore.Internal.Correction>
   9.000000E+99

> <Gold.Chemscore.Hbonds>
donor molecule, donor type, donor heavy atom, donor atom, acceptor molecule, acceptor atom, score
      L1  H    13    42       P1  8028  0.29
      P1  H  7997  8008       L1     7  0.99

> <Gold.Chemscore.Hbond.Weighted>
-6.3647

> <Gold.Chemscore.Metal.Weighted>
-0.0000

> <Gold.Chemscore.Lipo.Weighted>
-10.4151

> <Gold.Chemscore.Internal_Hbond.Weighted>
0.0000

> <Gold.Chemscore.DEClash.Weighted>
0.0663

> <Gold.Chemscore.DEInternal.Weighted>
2.2296

> <Gold.Chemscore.Rot.Weighted>
4.8736

> <Gold.Chemscore.Internal.Correction.Weighted>
   9.000000E+99

> <Gold.Protein.RotatedTorsions>
[ 6907 6896 6895 6894 ] final -147.74 input  -60.11 | X-H torsion
[ 7974 7965 7964 7962 ] final  139.24 input  175.53 | X-H torsion
[ 8008 7997 7996 7995 ] final -118.56 input   59.86 | X-H torsion
[ 10167 10162 10161 10158 ] final -147.55 input  -65.29 | X-H torsion
[ 10718 10713 10712 10709 ] final  -67.84 input   66.30 | X-H torsion
[ 10763 10752 10751 10750 ] final -122.43 input  -60.55 | X-H torsion
[ 11005 11000 10999 10996 ] final  -17.44 input  -57.11 | X-H torsion

> <Gold.Protein.ActiveResidues>
 VAL166  LYS551  ARG553  GLY616  TRP617  ASP618  TYR619  PRO620  LYS621  CYS622 
 ASP623  PHE694  ASN695  SER759  ASP760  ASP761  ALA762  ILE779  LEU786  VAL792 
 PHE793  MET794  SER795  GLU796  ALA797  LYS798  CYS799  TRP800  GLU811  SER814 

> <Gold.Protein.RotatedAtoms>
  151.1600  133.4851  159.2594 H   0  0  0  0  0  0  0  0  0  0  0  0  # atno 6907 bound_to 6896
  151.1465  135.0205  159.8659 H   0  0  0  0  0  0  0  0  0  0  0  0  # atno 6908 bound_to 6896
  152.5463  134.1488  159.8563 H   0  0  0  0  0  0  0  0  0  0  0  0  # atno 6909 bound_to 6896
  144.9297  139.5062  143.5623 H   0  0  0  0  0  0  0  0  0  0  0  0  # atno 7974 bound_to 7965
  155.1016  140.0396  157.2698 H   0  0  0  0  0  0  0  0  0  0  0  0  # atno 8008 bound_to 7997
  154.6754  140.2621  155.6938 H   0  0  0  0  0  0  0  0  0  0  0  0  # atno 8009 bound_to 7997
  156.2674  140.2789  156.1278 H   0  0  0  0  0  0  0  0  0  0  0  0  # atno 8010 bound_to 7997
  139.7611  143.8375  152.2607 H   0  0  0  0  0  0  0  0  0  0  0  0  # atno 10167 bound_to 10162
  156.0536  130.4284  150.1913 H   0  0  0  0  0  0  0  0  0  0  0  0  # atno 10718 bound_to 10713
  154.8689  135.4133  154.2781 H   0  0  0  0  0  0  0  0  0  0  0  0  # atno 10763 bound_to 10752
  153.3679  135.7006  153.6666 H   0  0  0  0  0  0  0  0  0  0  0  0  # atno 10764 bound_to 10752
  153.5541  135.3623  155.2744 H   0  0  0  0  0  0  0  0  0  0  0  0  # atno 10765 bound_to 10752
  140.8168  133.8099  155.9619 H   0  0  0  0  0  0  0  0  0  0  0  0  # atno 11005 bound_to 11000
  146.3241  139.8238  142.8921 LP  0  0  0  0  0  0  0  0  0  0  0  0  # atno 17320 bound_to 7965
  145.3162  141.0232  143.3526 LP  0  0  0  0  0  0  0  0  0  0  0  0  # atno 17321 bound_to 7965
  139.8382  144.7222  150.9365 LP  0  0  0  0  0  0  0  0  0  0  0  0  # atno 17342 bound_to 10162
  140.7807  143.4008  151.1153 LP  0  0  0  0  0  0  0  0  0  0  0  0  # atno 17343 bound_to 10162
  156.9993  130.9917  151.3395 LP  0  0  0  0  0  0  0  0  0  0  0  0  # atno 17370 bound_to 10713
  157.5486  130.8167  149.8117 LP  0  0  0  0  0  0  0  0  0  0  0  0  # atno 17371 bound_to 10713
  140.9141  134.2224  157.4968 LP  0  0  0  0  0  0  0  0  0  0  0  0  # atno 17394 bound_to 11000
  139.8710  134.9763  156.4916 LP  0  0  0  0  0  0  0  0  0  0  0  0  # atno 17395 bound_to 11000

$$$$
