AV-unprocessed.smi:1213|AV-procd|sdf|5091|dock7
  -GOLD-   22720 4143D 1   1.00000     0.00000
 Structure written by MMmdl.
 36 37  0  0  0  0  0  0  0  0  3 V2000
  145.2918  138.6052  152.1932 N   0  0  0  0  0  0  0  0  0  0  0  0
  146.5990  138.6875  151.9344 C   0  0  0  0  0  0  0  0  0  0  0  0
  147.0601  138.4745  150.8143 O   0  0  0  0  0  0  0  0  0  0  0  0
  147.5107  139.0865  153.0996 C   0  0  0  0  0  0  0  0  0  0  0  0
  148.2397  137.9346  153.6906 N   0  3  2  0  0  0  0  0  0  0  0  0
  147.3578  137.0285  154.4746 C   0  0  0  0  0  0  0  0  0  0  0  0
  148.1274  135.7885  154.9624 C   0  0  0  0  0  0  0  0  0  0  0  0
  149.3715  136.1757  155.7861 C   0  0  2  0  0  0  0  0  0  0  0  0
  149.0058  136.7813  157.0661 N   0  0  0  0  0  0  0  0  0  0  0  0
  148.9541  136.1632  158.2541 C   0  0  0  0  0  0  0  0  0  0  0  0
  149.2480  134.9691  158.3415 O   0  0  0  0  0  0  0  0  0  0  0  0
  148.5561  136.9700  159.2630 N   0  5  0  0  0  0  0  0  0  0  0  0
  147.9072  136.4550  160.3199 C   0  0  0  0  0  0  0  0  0  0  0  0
  147.3524  137.2108  161.2741 N   0  0  0  0  0  0  0  0  0  0  0  0
  146.7199  136.4679  162.2725 C   0  0  0  0  0  0  0  0  0  0  0  0
  146.7885  135.1151  162.0700 C   0  0  0  0  0  0  0  0  0  0  0  0
  147.6534  134.7314  160.6092 S   0  0  0  0  0  0  0  0  0  0  0  0
  150.2384  137.1496  154.9706 C   0  0  0  0  0  0  0  0  0  0  0  0
  149.4275  138.3615  154.4744 C   0  0  0  0  0  0  0  0  0  0  0  0
  144.6503  138.3474  151.4567 H   0  0  0  0  0  0  0  0  0  0  0  0
  144.9446  138.8014  153.1211 H   0  0  0  0  0  0  0  0  0  0  0  0
  148.2255  139.8074  152.7006 H   0  0  0  0  0  0  0  0  0  0  0  0
  146.9419  139.6053  153.8731 H   0  0  0  0  0  0  0  0  0  0  0  0
  146.9376  137.5699  155.3237 H   0  0  0  0  0  0  0  0  0  0  0  0
  146.5150  136.7045  153.8636 H   0  0  0  0  0  0  0  0  0  0  0  0
  147.4667  135.1432  155.5422 H   0  0  0  0  0  0  0  0  0  0  0  0
  148.4389  135.1992  154.0990 H   0  0  0  0  0  0  0  0  0  0  0  0
  149.9600  135.2794  155.9895 H   0  0  0  0  0  0  0  0  0  0  0  0
  148.7683  137.7621  157.0547 H   0  0  0  0  0  0  0  0  0  0  0  0
  146.2439  136.9859  163.0917 H   0  0  0  0  0  0  0  0  0  0  0  0
  146.3842  134.3254  162.6847 H   0  0  0  0  0  0  0  0  0  0  0  0
  151.0891  137.4858  155.5648 H   0  0  0  0  0  0  0  0  0  0  0  0
  150.6580  136.6239  154.1117 H   0  0  0  0  0  0  0  0  0  0  0  0
  150.0703  138.9878  153.8549 H   0  0  0  0  0  0  0  0  0  0  0  0
  149.1060  138.9766  155.3166 H   0  0  0  0  0  0  0  0  0  0  0  0
  148.5935  137.3971  152.9118 H   0  0  0  0  0  0  0  0  0  0  0  0
  1  2  1  0  0  0  0
  1 20  1  0  0  0  0
  1 21  1  0  0  0  0
  2  3  2  0  0  0  0
  2  4  1  0  0  0  0
  4  5  1  0  0  0  0
  4 22  1  0  0  0  0
  4 23  1  0  0  0  0
  5 19  1  0  0  0  0
  5  6  1  0  0  0  0
  5 36  1  0  0  0  0
  6  7  1  0  0  0  0
  6 24  1  0  0  0  0
  6 25  1  0  0  0  0
  7  8  1  0  0  0  0
  7 26  1  0  0  0  0
  7 27  1  0  0  0  0
  8  9  1  0  0  0  0
  8 18  1  0  0  0  0
  8 28  1  0  0  0  0
  9 10  1  0  0  0  0
  9 29  1  0  0  0  0
 10 11  2  0  0  0  0
 10 12  1  0  0  0  0
 12 13  1  0  0  0  0
 13 17  1  0  0  0  0
 13 14  2  0  0  0  0
 14 15  1  0  0  0  0
 15 16  2  0  0  0  0
 15 30  1  0  0  0  0
 16 17  1  0  0  0  0
 16 31  1  0  0  0  0
 18 19  1  0  0  0  0
 18 32  1  0  0  0  0
 18 33  1  0  0  0  0
 19 34  1  0  0  0  0
 19 35  1  0  0  0  0
M  CHG  1   5   1
M  CHG  1  12  -1
M  END
> <s_m_source_file>
AV-unprocessed.smi

> <i_m_source_file_index>
1213

> <i_lp_mmshare_version>
43012

> <i_f3d_flags>
0

> <s_epik_input>
W05IMl1DKD1PKVtDSDJdTjFbQ0gyXVtDSDJdW0NIXShbQ0gyXVtDSDJdMSlbTkhdQyg9TylbTkhdYzJuW2NIXVtjSF1zMg==

> <s_epik_cmdline>
J2VwaWtfcHl0aG9uJywgJy1waCcsICc3LjAnLCAnLXRuJywgJzgnLCAnLW1hJywgJzIwMCcsICctbWV0YWxfYmluZGluZycsICctaW1hZScsICc8aW5maWxlLm1hZT4nLCAnLW9tYWUnLCAnPG91dGZpbGUubWFlPic=

> <r_lp_tautomer_probability>
0.999

> <r_epik_Ionization_Penalty>
7.1168

> <r_epik_Ionization_Penalty_Charging>
6.25003

> <r_epik_Ionization_Penalty_Neutral>
0.866763

> <r_epik_State_Penalty>
6.33484

> <r_epik_Charging_Adjusted_Penalty>
12.5849

> <i_epik_Tot_Q>
0

> <i_epik_Tot_abs_Q>
2

> <r_epik_Metal_State_Penalty>
2.3501

> <b_epik_Metal_Only>
1

> <s_lp_Force_Field>
OPLS_2005

> <r_lp_Energy>
4.12503

> <b_lp_Chiralities_Consistent>
1

> <s_lp_Variant>
AV-unprocessed.smi:1213-8

> <Gold.Version>
5.8.1

> <Gold.Id.Protein>
6NUR|6NUR_protein|mol2

> <Gold.PLP.Fitness>
49.1361

> <Gold.PLP.PLP>
-30.6889

> <Gold.PLP.part.hbond>
-6.8477

> <Gold.PLP.part.metal>
0.0000

> <Gold.PLP.part.buried>
-3.5530

> <Gold.PLP.part.nonpolar>
-20.9532

> <Gold.PLP.part.repulsive>
0.9906

> <Gold.PLP.ligand.clash>
0.0000

> <Gold.PLP.ligand.torsion>
0.8494

> <Gold.PLP.Chemscore.Hbond>
6.7040

> <Gold.PLP.Chemscore.CHOScore>
0.0000

> <Gold.PLP.Chemscore.Metal>
0.0000

> <Gold.Chemscore.Hbonds>
donor molecule, donor type, donor heavy atom, donor atom, acceptor molecule, acceptor atom, score
      L1  H     1    20       P1 10171  1.00
      L1  H     5    36       P1  7948  2.00
      P1  H  6896  6908       L1    11  1.00
      P1  H  6931  6943       L1    14  0.77
      P1  H  6934  6947       L1    14  0.99
      P1  H  7954  7966       L1     3  0.99

> <Gold.PLP.Chemscore.Internal.Correction>
0.0340

> <Gold.Rescore>
     Score         DG    S(hbond)    S(metal)    S(lipo)     H(rot)  DE(clash)    DE(int)     intcor
     21.19     -23.47       5.29        0.00      47.15       2.04       0.38       1.90       ----

> <Gold.Chemscore.Fitness>
21.1912

> <Gold.Chemscore.DG>
-23.4659

> <Gold.Chemscore.ZeroCoef>
-5.4800

> <Gold.Chemscore.Hbond>
5.2948

> <Gold.Chemscore.Metal>
0.0000

> <Gold.Chemscore.Lipo>
47.1512

> <Gold.Chemscore.Internal_Hbond>
0.0000

> <Gold.Chemscore.DEClash>
0.3768

> <Gold.Chemscore.DEInternal>
1.8978

> <Gold.Chemscore.Rot>
2.0373

> <Gold.Chemscore.Internal.Correction>
   9.000000E+99

> <Gold.Chemscore.Hbonds>
donor molecule, donor type, donor heavy atom, donor atom, acceptor molecule, acceptor atom, score
      L1  H     1    20       P1 10171  0.96
      L1  H     1    21       P1 10175  0.01
      L1  H     5    36       P1  7948  0.98
      P1  H  6896  6908       L1    11  0.87
      P1  H  6931  6943       L1    14  0.17
      P1  H  6934  6947       L1    14  0.90
      P1  H  7954  7966       L1     3  0.90

> <Gold.Chemscore.Hbond.Weighted>
-17.6845

> <Gold.Chemscore.Metal.Weighted>
-0.0000

> <Gold.Chemscore.Lipo.Weighted>
-5.5167

> <Gold.Chemscore.Internal_Hbond.Weighted>
0.0000

> <Gold.Chemscore.DEClash.Weighted>
0.3768

> <Gold.Chemscore.DEInternal.Weighted>
1.8978

> <Gold.Chemscore.Rot.Weighted>
5.2154

> <Gold.Chemscore.Internal.Correction.Weighted>
   9.000000E+99

> <Gold.Protein.RotatedTorsions>
[ 6907 6896 6895 6894 ] final  172.46 input  -60.11 | X-H torsion
[ 7974 7965 7964 7962 ] final  131.91 input  175.53 | X-H torsion
[ 8008 7997 7996 7995 ] final -153.87 input   59.86 | X-H torsion
[ 10167 10162 10161 10158 ] final -159.77 input  -65.29 | X-H torsion
[ 10718 10713 10712 10709 ] final  106.15 input   66.30 | X-H torsion
[ 10763 10752 10751 10750 ] final   86.53 input  -60.55 | X-H torsion
[ 11005 11000 10999 10996 ] final  -78.64 input  -57.11 | X-H torsion

> <Gold.Protein.ActiveResidues>
 VAL166  LYS551  ARG553  GLY616  TRP617  ASP618  TYR619  PRO620  LYS621  CYS622 
 ASP623  PHE694  ASN695  SER759  ASP760  ASP761  ALA762  ILE779  LEU786  VAL792 
 PHE793  MET794  SER795  GLU796  ALA797  LYS798  CYS799  TRP800  GLU811  SER814 

> <Gold.Protein.RotatedAtoms>
  151.7839  133.3352  159.3479 H   0  0  0  0  0  0  0  0  0  0  0  0  # atno 6907 bound_to 6896
  150.7416  134.5905  159.5994 H   0  0  0  0  0  0  0  0  0  0  0  0  # atno 6908 bound_to 6896
  152.3257  134.7325  160.0354 H   0  0  0  0  0  0  0  0  0  0  0  0  # atno 6909 bound_to 6896
  145.0024  139.4299  143.5285 H   0  0  0  0  0  0  0  0  0  0  0  0  # atno 7974 bound_to 7965
  155.6775  140.0740  157.2497 H   0  0  0  0  0  0  0  0  0  0  0  0  # atno 8008 bound_to 7997
  154.4111  140.1688  156.1998 H   0  0  0  0  0  0  0  0  0  0  0  0  # atno 8009 bound_to 7997
  155.9563  140.3373  155.6454 H   0  0  0  0  0  0  0  0  0  0  0  0  # atno 8010 bound_to 7997
  139.6590  143.9947  152.2213 H   0  0  0  0  0  0  0  0  0  0  0  0  # atno 10167 bound_to 10162
  157.6679  131.0844  150.5964 H   0  0  0  0  0  0  0  0  0  0  0  0  # atno 10718 bound_to 10713
  153.1579  135.4577  154.9731 H   0  0  0  0  0  0  0  0  0  0  0  0  # atno 10763 bound_to 10752
  154.7876  135.3209  154.7854 H   0  0  0  0  0  0  0  0  0  0  0  0  # atno 10764 bound_to 10752
  153.8349  135.6935  153.4864 H   0  0  0  0  0  0  0  0  0  0  0  0  # atno 10765 bound_to 10752
  141.1665  133.7072  156.8003 H   0  0  0  0  0  0  0  0  0  0  0  0  # atno 11005 bound_to 11000
  146.3454  139.9420  142.8740 LP  0  0  0  0  0  0  0  0  0  0  0  0  # atno 17320 bound_to 7965
  145.2135  140.9905  143.4087 LP  0  0  0  0  0  0  0  0  0  0  0  0  # atno 17321 bound_to 7965
  139.9681  144.6512  150.8015 LP  0  0  0  0  0  0  0  0  0  0  0  0  # atno 17342 bound_to 10162
  140.7572  143.3081  151.2913 LP  0  0  0  0  0  0  0  0  0  0  0  0  # atno 17343 bound_to 10162
  156.6264  130.4420  149.5803 LP  0  0  0  0  0  0  0  0  0  0  0  0  # atno 17370 bound_to 10713
  156.2316  130.6797  151.1468 LP  0  0  0  0  0  0  0  0  0  0  0  0  # atno 17371 bound_to 10713
  140.2261  134.8721  157.3428 LP  0  0  0  0  0  0  0  0  0  0  0  0  # atno 17394 bound_to 11000
  140.1938  134.4339  155.7700 LP  0  0  0  0  0  0  0  0  0  0  0  0  # atno 17395 bound_to 11000

$$$$
