AV-unprocessed.smi:2190|AV-procd|sdf|8890|dock6
  -GOLD-   2272012 93D 1   1.00000     0.00000
 Structure written by MMmdl.
 47 49  0  0  0  0  0  0  0  0  2 V2000
  147.4326  136.4820  162.7913 C   0  0  0  0  0  0  0  0  0  0  0  0
  147.6491  135.9550  161.3877 C   0  0  0  0  0  0  0  0  0  0  0  0
  147.4437  134.5919  161.0989 C   0  0  0  0  0  0  0  0  0  0  0  0
  147.6502  134.1118  159.7931 C   0  0  0  0  0  0  0  0  0  0  0  0
  148.0620  134.9896  158.7689 C   0  0  0  0  0  0  0  0  0  0  0  0
  148.2819  134.4555  157.3656 C   0  0  0  0  0  0  0  0  0  0  0  0
  148.2694  136.3608  159.0450 C   0  0  0  0  0  0  0  0  0  0  0  0
  148.6721  137.1637  157.9985 O   0  0  0  0  0  0  0  0  0  0  0  0
  149.4764  138.3002  158.2822 C   0  0  0  0  0  0  0  0  0  0  0  0
  150.2911  138.6427  157.0269 C   0  0  2  0  0  0  0  0  0  0  0  0
  150.7057  137.4389  156.4133 O   0  0  0  0  0  0  0  0  0  0  0  0
  151.5152  139.5253  157.3438 C   0  0  0  0  0  0  0  0  0  0  0  0
  151.1954  140.9611  157.3449 N   0  0  0  0  0  0  0  0  0  0  0  0
  150.4454  141.6877  156.4673 C   0  0  0  0  0  0  0  0  0  0  0  0
  149.7446  141.1769  155.2513 C   0  0  0  0  0  0  0  0  0  0  0  0
  149.0572  142.1963  154.5603 O   0  0  0  0  0  0  0  0  0  0  0  0
  150.4418  142.9766  156.9097 N   0  3  0  0  0  0  0  0  0  0  0  0
  151.1991  143.0773  158.0774 C   0  0  0  0  0  0  0  0  0  0  0  0
  151.4854  144.1740  158.8846 C   0  0  0  0  0  0  0  0  0  0  0  0
  152.2978  143.9351  160.0124 C   0  0  0  0  0  0  0  0  0  0  0  0
  152.7906  142.6463  160.3020 C   0  0  0  0  0  0  0  0  0  0  0  0
  152.4914  141.5415  159.4777 C   0  0  0  0  0  0  0  0  0  0  0  0
  151.6877  141.7856  158.3637 C   0  0  0  0  0  0  0  0  0  0  0  0
  148.0592  136.8342  160.3653 C   0  0  0  0  0  0  0  0  0  0  0  0
  147.1391  135.6855  163.4757 H   0  0  0  0  0  0  0  0  0  0  0  0
  146.6480  137.2391  162.7937 H   0  0  0  0  0  0  0  0  0  0  0  0
  148.3491  136.9355  163.1700 H   0  0  0  0  0  0  0  0  0  0  0  0
  147.1288  133.9099  161.8753 H   0  0  0  0  0  0  0  0  0  0  0  0
  147.4911  133.0646  159.5818 H   0  0  0  0  0  0  0  0  0  0  0  0
  147.6761  135.0100  156.6478 H   0  0  0  0  0  0  0  0  0  0  0  0
  148.0125  133.4013  157.2920 H   0  0  0  0  0  0  0  0  0  0  0  0
  149.3300  134.5591  157.0832 H   0  0  0  0  0  0  0  0  0  0  0  0
  148.8579  139.1516  158.5723 H   0  0  0  0  0  0  0  0  0  0  0  0
  150.1513  138.0710  159.1087 H   0  0  0  0  0  0  0  0  0  0  0  0
  149.6420  139.1600  156.3197 H   0  0  0  0  0  0  0  0  0  0  0  0
  150.5707  137.5153  155.4814 H   0  0  0  0  0  0  0  0  0  0  0  0
  151.8997  139.2870  158.3362 H   0  0  0  0  0  0  0  0  0  0  0  0
  152.3353  139.3338  156.6518 H   0  0  0  0  0  0  0  0  0  0  0  0
  150.4701  140.7172  154.5797 H   0  0  0  0  0  0  0  0  0  0  0  0
  149.0358  140.3999  155.5371 H   0  0  0  0  0  0  0  0  0  0  0  0
  149.1806  143.0104  155.0243 H   0  0  0  0  0  0  0  0  0  0  0  0
  151.1088  145.1622  158.6651 H   0  0  0  0  0  0  0  0  0  0  0  0
  152.5479  144.7565  160.6682 H   0  0  0  0  0  0  0  0  0  0  0  0
  153.4112  142.5013  161.1744 H   0  0  0  0  0  0  0  0  0  0  0  0
  152.8773  140.5602  159.7095 H   0  0  0  0  0  0  0  0  0  0  0  0
  148.2097  137.8724  160.6196 H   0  0  0  0  0  0  0  0  0  0  0  0
  149.9525  143.7304  156.4446 H   0  0  0  0  0  0  0  0  0  0  0  0
  1  2  1  0  0  0  0
  1 25  1  0  0  0  0
  1 26  1  0  0  0  0
  1 27  1  0  0  0  0
  2 24  1  0  0  0  0
  2  3  2  0  0  0  0
  3  4  1  0  0  0  0
  3 28  1  0  0  0  0
  4  5  2  0  0  0  0
  4 29  1  0  0  0  0
  5  6  1  0  0  0  0
  5  7  1  0  0  0  0
  6 30  1  0  0  0  0
  6 31  1  0  0  0  0
  6 32  1  0  0  0  0
  7  8  1  0  0  0  0
  7 24  2  0  0  0  0
  8  9  1  0  0  0  0
  9 10  1  0  0  0  0
  9 33  1  0  0  0  0
  9 34  1  0  0  0  0
 10 11  1  0  0  0  0
 10 12  1  0  0  0  0
 10 35  1  0  0  0  0
 11 36  1  0  0  0  0
 12 13  1  0  0  0  0
 12 37  1  0  0  0  0
 12 38  1  0  0  0  0
 13 23  1  0  0  0  0
 13 14  1  0  0  0  0
 14 15  1  0  0  0  0
 14 17  2  0  0  0  0
 15 16  1  0  0  0  0
 15 39  1  0  0  0  0
 15 40  1  0  0  0  0
 16 41  1  0  0  0  0
 17 18  1  0  0  0  0
 17 47  1  0  0  0  0
 18 23  2  0  0  0  0
 18 19  1  0  0  0  0
 19 20  2  0  0  0  0
 19 42  1  0  0  0  0
 20 21  1  0  0  0  0
 20 43  1  0  0  0  0
 21 22  2  0  0  0  0
 21 44  1  0  0  0  0
 22 23  1  0  0  0  0
 22 45  1  0  0  0  0
 24 46  1  0  0  0  0
M  CHG  1  17   1
M  END
> <s_m_source_file>
AV-unprocessed.smi

> <i_m_source_file_index>
2190

> <i_lp_mmshare_version>
43012

> <i_f3d_flags>
0

> <s_epik_input>
W0NIM11jMVtjSF1bY0hdYyhbQ0gzXSljKFtjSF0xKU9bQ0gyXVtDQEhdKFtPSF0pW0NIMl1uKGMobjIpW0NIMl1bT0hdKWMoYzIzKVtjSF1bY0hdW2NIXVtjSF0z

> <s_epik_cmdline>
J2VwaWtfcHl0aG9uJywgJy1waCcsICc3LjAnLCAnLXRuJywgJzgnLCAnLW1hJywgJzIwMCcsICctbWV0YWxfYmluZGluZycsICctaW1hZScsICc8aW5maWxlLm1hZT4nLCAnLW9tYWUnLCAnPG91dGZpbGUubWFlPic=

> <r_lp_tautomer_probability>
1

> <r_epik_Ionization_Penalty>
1.43125

> <r_epik_Ionization_Penalty_Charging>
1.43039

> <r_epik_Ionization_Penalty_Neutral>
0.000858184

> <r_epik_State_Penalty>
1.51493

> <r_epik_Charging_Adjusted_Penalty>
2.94531

> <i_epik_Tot_Q>
1

> <i_epik_Tot_abs_Q>
1

> <r_epik_Metal_State_Penalty>
5.5599

> <b_epik_Metal_Only>
0

> <s_lp_Force_Field>
OPLS_2005

> <r_lp_Energy>
17.5717

> <b_lp_Chiralities_Consistent>
1

> <s_lp_Variant>
AV-unprocessed.smi:2190-3

> <Gold.Version>
5.8.1

> <Gold.Id.Protein>
6NUR|6NUR_protein|mol2

> <Gold.PLP.Fitness>
55.0547

> <Gold.PLP.PLP>
-47.8390

> <Gold.PLP.part.hbond>
-3.0000

> <Gold.PLP.part.metal>
0.0000

> <Gold.PLP.part.buried>
-3.5655

> <Gold.PLP.part.nonpolar>
-40.5510

> <Gold.PLP.part.repulsive>
0.0483

> <Gold.PLP.ligand.clash>
0.0000

> <Gold.PLP.ligand.torsion>
1.2427

> <Gold.PLP.Chemscore.Hbond>
3.2002

> <Gold.PLP.Chemscore.CHOScore>
0.0000

> <Gold.PLP.Chemscore.Metal>
0.0000

> <Gold.Chemscore.Hbonds>
donor molecule, donor type, donor heavy atom, donor atom, acceptor molecule, acceptor atom, score
      L1  H    16    41       P1  8028  1.00
      L1  H    17    47       P1  8028  2.00
      P1  H  8011  8017       L1    16  0.05

> <Gold.PLP.Chemscore.Internal.Correction>
0.1006

> <Gold.Rescore>
     Score         DG    S(hbond)    S(metal)    S(lipo)     H(rot)  DE(clash)    DE(int)     intcor
     17.84     -18.90       2.10        0.00     121.40       3.05       0.03       1.03       ----

> <Gold.Chemscore.Fitness>
17.8369

> <Gold.Chemscore.DG>
-18.8989

> <Gold.Chemscore.ZeroCoef>
-5.4800

> <Gold.Chemscore.Hbond>
2.1009

> <Gold.Chemscore.Metal>
0.0000

> <Gold.Chemscore.Lipo>
121.3989

> <Gold.Chemscore.Internal_Hbond>
0.0000

> <Gold.Chemscore.DEClash>
0.0277

> <Gold.Chemscore.DEInternal>
1.0342

> <Gold.Chemscore.Rot>
3.0476

> <Gold.Chemscore.Internal.Correction>
   9.000000E+99

> <Gold.Chemscore.Hbonds>
donor molecule, donor type, donor heavy atom, donor atom, acceptor molecule, acceptor atom, score
      L1  H    16    41       P1  8028  1.00
      L1  H    17    47       P1  8028  1.00
      P1  H  8011  8017       L1    16  0.04

> <Gold.Chemscore.Hbond.Weighted>
-7.0170

> <Gold.Chemscore.Metal.Weighted>
-0.0000

> <Gold.Chemscore.Lipo.Weighted>
-14.2037

> <Gold.Chemscore.Internal_Hbond.Weighted>
0.0000

> <Gold.Chemscore.DEClash.Weighted>
0.0277

> <Gold.Chemscore.DEInternal.Weighted>
1.0342

> <Gold.Chemscore.Rot.Weighted>
7.8018

> <Gold.Chemscore.Internal.Correction.Weighted>
   9.000000E+99

> <Gold.Protein.RotatedTorsions>
[ 6907 6896 6895 6894 ] final -171.98 input  -60.11 | X-H torsion
[ 7974 7965 7964 7962 ] final  151.63 input  175.53 | X-H torsion
[ 8008 7997 7996 7995 ] final  109.71 input   59.86 | X-H torsion
[ 10167 10162 10161 10158 ] final -116.50 input  -65.29 | X-H torsion
[ 10718 10713 10712 10709 ] final -113.53 input   66.30 | X-H torsion
[ 10763 10752 10751 10750 ] final   -7.96 input  -60.55 | X-H torsion
[ 11005 11000 10999 10996 ] final  119.16 input  -57.11 | X-H torsion

> <Gold.Protein.ActiveResidues>
 VAL166  LYS551  ARG553  GLY616  TRP617  ASP618  TYR619  PRO620  LYS621  CYS622 
 ASP623  PHE694  ASN695  SER759  ASP760  ASP761  ALA762  ILE779  LEU786  VAL792 
 PHE793  MET794  SER795  GLU796  ALA797  LYS798  CYS799  TRP800  GLU811  SER814 

> <Gold.Protein.RotatedAtoms>
  151.5326  133.3446  159.2920 H   0  0  0  0  0  0  0  0  0  0  0  0  # atno 6907 bound_to 6896
  150.8584  134.7932  159.7075 H   0  0  0  0  0  0  0  0  0  0  0  0  # atno 6908 bound_to 6896
  152.4611  134.5190  159.9828 H   0  0  0  0  0  0  0  0  0  0  0  0  # atno 6909 bound_to 6896
  144.8279  139.6563  143.6072 H   0  0  0  0  0  0  0  0  0  0  0  0  # atno 7974 bound_to 7965
  156.1999  140.3052  155.9505 H   0  0  0  0  0  0  0  0  0  0  0  0  # atno 8008 bound_to 7997
  155.2978  140.0445  157.3044 H   0  0  0  0  0  0  0  0  0  0  0  0  # atno 8009 bound_to 7997
  154.5557  140.2305  155.8423 H   0  0  0  0  0  0  0  0  0  0  0  0  # atno 8010 bound_to 7997
  140.0785  143.4810  152.1939 H   0  0  0  0  0  0  0  0  0  0  0  0  # atno 10167 bound_to 10162
  156.0773  130.5978  150.8655 H   0  0  0  0  0  0  0  0  0  0  0  0  # atno 10718 bound_to 10713
  153.4337  135.7012  153.6214 H   0  0  0  0  0  0  0  0  0  0  0  0  # atno 10763 bound_to 10752
  153.4618  135.3734  155.2342 H   0  0  0  0  0  0  0  0  0  0  0  0  # atno 10764 bound_to 10752
  154.8726  135.4022  154.3725 H   0  0  0  0  0  0  0  0  0  0  0  0  # atno 10765 bound_to 10752
  139.9136  134.9626  156.7613 H   0  0  0  0  0  0  0  0  0  0  0  0  # atno 11005 bound_to 11000
  146.2583  139.6352  142.9379 LP  0  0  0  0  0  0  0  0  0  0  0  0  # atno 17320 bound_to 7965
  145.4960  141.0438  143.2566 LP  0  0  0  0  0  0  0  0  0  0  0  0  # atno 17321 bound_to 7965
  139.5793  144.7503  151.3681 LP  0  0  0  0  0  0  0  0  0  0  0  0  # atno 17342 bound_to 10162
  140.7090  143.7440  150.7532 LP  0  0  0  0  0  0  0  0  0  0  0  0  # atno 17343 bound_to 10162
  157.5874  131.0945  150.9174 LP  0  0  0  0  0  0  0  0  0  0  0  0  # atno 17370 bound_to 10713
  156.9357  130.5366  149.5279 LP  0  0  0  0  0  0  0  0  0  0  0  0  # atno 17371 bound_to 10713
  140.6695  133.9573  155.7848 LP  0  0  0  0  0  0  0  0  0  0  0  0  # atno 17394 bound_to 11000
  141.0588  134.0377  157.3687 LP  0  0  0  0  0  0  0  0  0  0  0  0  # atno 17395 bound_to 11000

$$$$
