AV-unprocessed.smi:1721|AV-procd|sdf|6940|dock1
  -GOLD-   22720 8143D 1   1.00000     0.00000
 Structure written by MMmdl.
 44 46  0  0  0  0  0  0  0  0  2 V2000
  146.2237  142.3094  153.8160 C   0  0  0  0  0  0  0  0  0  0  0  0
  147.4190  142.2071  154.5824 O   0  0  0  0  0  0  0  0  0  0  0  0
  148.1877  141.0651  154.4580 C   0  0  0  0  0  0  0  0  0  0  0  0
  147.7230  140.0595  153.6747 N   0  0  0  0  0  0  0  0  0  0  0  0
  148.4690  138.9432  153.5520 C   0  0  0  0  0  0  0  0  0  0  0  0
  149.7063  138.7704  154.1977 C   0  0  0  0  0  0  0  0  0  0  0  0
  150.1911  139.8119  155.0102 C   0  0  0  0  0  0  0  0  0  0  0  0
  149.4203  140.9932  155.1497 C   0  0  0  0  0  0  0  0  0  0  0  0
  149.7963  142.1156  155.9430 N   0  0  0  0  0  0  0  0  0  0  0  0
  150.8449  142.2765  156.7683 C   0  0  0  0  0  0  0  0  0  0  0  0
  151.7152  141.4385  156.9996 O   0  0  0  0  0  0  0  0  0  0  0  0
  150.8318  143.4939  157.3294 N   0  0  0  0  0  0  0  0  0  0  0  0
  151.8278  143.9955  158.2721 C   0  0  1  0  0  0  0  0  0  0  0  0
  151.5323  145.4274  158.7513 C   0  0  0  0  0  0  0  0  0  0  0  0
  151.9535  145.4572  160.2339 C   0  0  0  0  0  0  0  0  0  0  0  0
  152.5231  144.1237  160.5061 N   0  3  1  0  0  0  0  0  0  0  0  0
  152.4998  143.6535  161.9082 C   0  0  0  0  0  0  0  0  0  0  0  0
  153.2142  142.2901  161.9986 C   0  0  0  0  0  0  0  0  0  0  0  0
  152.6325  141.2719  160.9970 C   0  0  0  0  0  0  0  0  0  0  0  0
  152.5971  141.8529  159.5702 C   0  0  0  0  0  0  0  0  0  0  0  0
  151.8525  143.1990  159.5794 C   0  0  2  0  0  0  0  0  0  0  0  0
  145.7410  143.2632  154.0279 H   0  0  0  0  0  0  0  0  0  0  0  0
  145.5174  141.5178  154.0705 H   0  0  0  0  0  0  0  0  0  0  0  0
  146.4305  142.2749  152.7455 H   0  0  0  0  0  0  0  0  0  0  0  0
  148.0666  138.1639  152.9218 H   0  0  0  0  0  0  0  0  0  0  0  0
  150.2713  137.8584  154.0736 H   0  0  0  0  0  0  0  0  0  0  0  0
  151.1387  139.6710  155.5033 H   0  0  0  0  0  0  0  0  0  0  0  0
  149.1787  142.9104  155.8622 H   0  0  0  0  0  0  0  0  0  0  0  0
  150.0798  144.1210  157.0830 H   0  0  0  0  0  0  0  0  0  0  0  0
  152.8226  143.9847  157.8211 H   0  0  0  0  0  0  0  0  0  0  0  0
  152.0793  146.1613  158.1584 H   0  0  0  0  0  0  0  0  0  0  0  0
  150.4706  145.6641  158.6665 H   0  0  0  0  0  0  0  0  0  0  0  0
  152.6859  146.2376  160.4415 H   0  0  0  0  0  0  0  0  0  0  0  0
  151.0824  145.6321  160.8674 H   0  0  0  0  0  0  0  0  0  0  0  0
  152.9980  144.3828  162.5476 H   0  0  0  0  0  0  0  0  0  0  0  0
  151.4688  143.5690  162.2555 H   0  0  0  0  0  0  0  0  0  0  0  0
  154.2770  142.4265  161.7940 H   0  0  0  0  0  0  0  0  0  0  0  0
  153.1450  141.8978  163.0137 H   0  0  0  0  0  0  0  0  0  0  0  0
  153.2175  140.3519  161.0132 H   0  0  0  0  0  0  0  0  0  0  0  0
  151.6212  141.0005  161.3028 H   0  0  0  0  0  0  0  0  0  0  0  0
  153.6135  141.9872  159.1974 H   0  0  0  0  0  0  0  0  0  0  0  0
  152.1056  141.1501  158.8973 H   0  0  0  0  0  0  0  0  0  0  0  0
  150.8273  143.0437  159.9239 H   0  0  0  0  0  0  0  0  0  0  0  0
  153.4906  144.1622  160.2182 H   0  0  0  0  0  0  0  0  0  0  0  0
  1  2  1  0  0  0  0
  1 22  1  0  0  0  0
  1 23  1  0  0  0  0
  1 24  1  0  0  0  0
  2  3  1  0  0  0  0
  3  8  1  0  0  0  0
  3  4  2  0  0  0  0
  4  5  1  0  0  0  0
  5  6  2  0  0  0  0
  5 25  1  0  0  0  0
  6  7  1  0  0  0  0
  6 26  1  0  0  0  0
  7  8  2  0  0  0  0
  7 27  1  0  0  0  0
  8  9  1  0  0  0  0
  9 10  1  0  0  0  0
  9 28  1  0  0  0  0
 10 11  2  0  0  0  0
 10 12  1  0  0  0  0
 12 13  1  0  0  0  0
 12 29  1  0  0  0  0
 13 21  1  0  0  0  0
 13 14  1  0  0  0  0
 13 30  1  0  0  0  0
 14 15  1  0  0  0  0
 14 31  1  0  0  0  0
 14 32  1  0  0  0  0
 15 16  1  0  0  0  0
 15 33  1  0  0  0  0
 15 34  1  0  0  0  0
 16 21  1  0  0  0  0
 16 17  1  0  0  0  0
 16 44  1  0  0  0  0
 17 18  1  0  0  0  0
 17 35  1  0  0  0  0
 17 36  1  0  0  0  0
 18 19  1  0  0  0  0
 18 37  1  0  0  0  0
 18 38  1  0  0  0  0
 19 20  1  0  0  0  0
 19 39  1  0  0  0  0
 19 40  1  0  0  0  0
 20 21  1  0  0  0  0
 20 41  1  0  0  0  0
 20 42  1  0  0  0  0
 21 43  1  0  0  0  0
M  CHG  1  16   1
M  END
> <s_m_source_file>
AV-unprocessed.smi

> <i_m_source_file_index>
1721

> <i_lp_mmshare_version>
43012

> <i_f3d_flags>
0

> <s_epik_input>
W0NIM11PYzFuW2NIXVtjSF1bY0hdYzFbTkhdQyg9TylbTkhdW0NASF0oW0NIMl1bQ0gyXTIpW0NAQEhdKE4yMylbQ0gyXVtDSDJdW0NIMl1bQ0gyXTM=

> <s_epik_cmdline>
J2VwaWtfcHl0aG9uJywgJy1waCcsICc3LjAnLCAnLXRuJywgJzgnLCAnLW1hJywgJzIwMCcsICctbWV0YWxfYmluZGluZycsICctaW1hZScsICc8aW5maWxlLm1hZT4nLCAnLW9tYWUnLCAnPG91dGZpbGUubWFlPic=

> <r_lp_tautomer_probability>
1

> <r_epik_Ionization_Penalty>
0.00104793

> <r_epik_Ionization_Penalty_Charging>
0.000974069

> <r_epik_Ionization_Penalty_Neutral>
7.38649e-05

> <r_epik_State_Penalty>
0.000633842

> <r_epik_Charging_Adjusted_Penalty>
0.00160791

> <i_epik_Tot_Q>
1

> <i_epik_Tot_abs_Q>
1

> <r_epik_Metal_State_Penalty>
-0

> <b_epik_Metal_Only>
0

> <s_lp_Force_Field>
OPLS_2005

> <r_lp_Energy>
37.3569

> <b_lp_Chiralities_Consistent>
1

> <s_lp_Variant>
AV-unprocessed.smi:1721-6

> <Gold.Version>
5.8.1

> <Gold.Id.Protein>
6NUR|6NUR_protein|mol2

> <Gold.PLP.Fitness>
52.9363

> <Gold.PLP.PLP>
-44.1880

> <Gold.PLP.part.hbond>
-2.0000

> <Gold.PLP.part.metal>
0.0000

> <Gold.PLP.part.buried>
-1.5566

> <Gold.PLP.part.nonpolar>
-41.7539

> <Gold.PLP.part.repulsive>
0.9057

> <Gold.PLP.ligand.clash>
0.0359

> <Gold.PLP.ligand.torsion>
0.0295

> <Gold.PLP.Chemscore.Hbond>
1.9440

> <Gold.PLP.Chemscore.CHOScore>
1.0000

> <Gold.PLP.Chemscore.Metal>
0.0000

> <Gold.Chemscore.Hbonds>
donor molecule, donor type, donor heavy atom, donor atom, acceptor molecule, acceptor atom, score
      L1  H     9    28       P1  8028  1.00
      L1  H    12    29       P1  8028  0.93
      L1  C     5    25       P1  7948  1.00

> <Gold.PLP.Chemscore.Internal.Correction>
0.0113

> <Gold.Rescore>
     Score         DG    S(hbond)    S(metal)    S(lipo)     H(rot)  DE(clash)    DE(int)     intcor
     19.66     -22.55       1.77        0.00     122.61       1.25       0.34       2.55       ----

> <Gold.Chemscore.Fitness>
19.6644

> <Gold.Chemscore.DG>
-22.5540

> <Gold.Chemscore.ZeroCoef>
-5.4800

> <Gold.Chemscore.Hbond>
1.7732

> <Gold.Chemscore.Metal>
0.0000

> <Gold.Chemscore.Lipo>
122.6077

> <Gold.Chemscore.Internal_Hbond>
0.0000

> <Gold.Chemscore.DEClash>
0.3430

> <Gold.Chemscore.DEInternal>
2.5466

> <Gold.Chemscore.Rot>
1.2474

> <Gold.Chemscore.Internal.Correction>
   9.000000E+99

> <Gold.Chemscore.Hbonds>
donor molecule, donor type, donor heavy atom, donor atom, acceptor molecule, acceptor atom, score
      L1  H     9    28       P1  8028  0.96
      L1  H    12    29       P1  8028  0.80

> <Gold.Chemscore.Hbond.Weighted>
-5.9223

> <Gold.Chemscore.Metal.Weighted>
-0.0000

> <Gold.Chemscore.Lipo.Weighted>
-14.3451

> <Gold.Chemscore.Internal_Hbond.Weighted>
0.0000

> <Gold.Chemscore.DEClash.Weighted>
0.3430

> <Gold.Chemscore.DEInternal.Weighted>
2.5466

> <Gold.Chemscore.Rot.Weighted>
3.1934

> <Gold.Chemscore.Internal.Correction.Weighted>
   9.000000E+99

> <Gold.Protein.RotatedTorsions>
[ 6907 6896 6895 6894 ] final   64.42 input  -60.11 | X-H torsion
[ 7974 7965 7964 7962 ] final -124.04 input  175.53 | X-H torsion
[ 8008 7997 7996 7995 ] final  174.85 input   59.86 | X-H torsion
[ 10167 10162 10161 10158 ] final  -19.53 input  -65.29 | X-H torsion
[ 10718 10713 10712 10709 ] final -118.07 input   66.30 | X-H torsion
[ 10763 10752 10751 10750 ] final    6.58 input  -60.55 | X-H torsion
[ 11005 11000 10999 10996 ] final    9.09 input  -57.11 | X-H torsion

> <Gold.Protein.ActiveResidues>
 VAL166  LYS551  ARG553  GLY616  TRP617  ASP618  TYR619  PRO620  LYS621  CYS622 
 ASP623  PHE694  ASN695  SER759  ASP760  ASP761  ALA762  ILE779  LEU786  VAL792 
 PHE793  MET794  SER795  GLU796  ALA797  LYS798  CYS799  TRP800  GLU811  SER814 

> <Gold.Protein.RotatedAtoms>
  152.4330  134.5740  159.9929 H   0  0  0  0  0  0  0  0  0  0  0  0  # atno 6907 bound_to 6896
  151.5858  133.3366  159.3025 H   0  0  0  0  0  0  0  0  0  0  0  0  # atno 6908 bound_to 6896
  150.8225  134.7475  159.6849 H   0  0  0  0  0  0  0  0  0  0  0  0  # atno 6909 bound_to 6896
  145.0122  140.7916  143.4431 H   0  0  0  0  0  0  0  0  0  0  0  0  # atno 7974 bound_to 7965
  156.0932  140.1424  156.9565 H   0  0  0  0  0  0  0  0  0  0  0  0  # atno 8008 bound_to 7997
  154.4654  140.0928  156.7054 H   0  0  0  0  0  0  0  0  0  0  0  0  # atno 8009 bound_to 7997
  155.4885  140.3447  155.4353 H   0  0  0  0  0  0  0  0  0  0  0  0  # atno 8010 bound_to 7997
  140.7269  143.4810  151.0118 H   0  0  0  0  0  0  0  0  0  0  0  0  # atno 10167 bound_to 10162
  156.1079  130.6225  150.9244 H   0  0  0  0  0  0  0  0  0  0  0  0  # atno 10718 bound_to 10713
  153.2461  135.6908  153.7730 H   0  0  0  0  0  0  0  0  0  0  0  0  # atno 10763 bound_to 10752
  153.6842  135.3323  155.3187 H   0  0  0  0  0  0  0  0  0  0  0  0  # atno 10764 bound_to 10752
  154.8375  135.4529  154.1401 H   0  0  0  0  0  0  0  0  0  0  0  0  # atno 10765 bound_to 10752
  140.5297  134.0478  155.7869 H   0  0  0  0  0  0  0  0  0  0  0  0  # atno 11005 bound_to 11000
  145.2007  139.2253  143.5194 LP  0  0  0  0  0  0  0  0  0  0  0  0  # atno 17320 bound_to 7965
  146.3472  140.1824  142.8589 LP  0  0  0  0  0  0  0  0  0  0  0  0  # atno 17321 bound_to 7965
  139.8508  143.7441  152.3178 LP  0  0  0  0  0  0  0  0  0  0  0  0  # atno 17342 bound_to 10162
  139.7622  144.7503  151.0347 LP  0  0  0  0  0  0  0  0  0  0  0  0  # atno 17343 bound_to 10162
  157.6258  131.0926  150.8536 LP  0  0  0  0  0  0  0  0  0  0  0  0  # atno 17370 bound_to 10713
  156.8652  130.5127  149.5300 LP  0  0  0  0  0  0  0  0  0  0  0  0  # atno 17371 bound_to 10713
  141.1288  133.9337  157.2579 LP  0  0  0  0  0  0  0  0  0  0  0  0  # atno 17394 bound_to 11000
  139.9561  135.0165  156.9131 LP  0  0  0  0  0  0  0  0  0  0  0  0  # atno 17395 bound_to 11000

$$$$
