AV-unprocessed.smi:1922|AV-procd|sdf|7787|dock9
  -GOLD-   22720 9533D 1   1.00000     0.00000
 Structure written by MMmdl.
 34 35  0  0  0  0  0  0  0  0  2 V2000
  150.1072  136.3894  158.6021 O   0  0  0  0  0  0  0  0  0  0  0  0
  148.9614  136.5325  158.1722 C   0  0  0  0  0  0  0  0  0  0  0  0
  147.8423  137.0947  159.0628 C   0  0  0  0  0  0  0  0  0  0  0  0
  147.6306  136.3420  160.3080 N   0  0  0  0  0  0  0  0  0  0  0  0
  147.7970  137.1430  161.5177 N   0  5  0  0  0  0  0  0  0  0  0  0
  147.6085  136.5584  162.7305 C   0  0  0  0  0  0  0  0  0  0  0  0
  147.7117  137.1726  163.7897 O   0  0  0  0  0  0  0  0  0  0  0  0
  147.2767  135.1437  162.7639 C   0  0  0  0  0  0  0  0  0  0  0  0
  147.1556  134.4224  161.6320 C   0  0  0  0  0  0  0  0  0  0  0  0
  147.3417  135.0090  160.3103 C   0  0  0  0  0  0  0  0  0  0  0  0
  147.2435  134.3533  159.2726 O   0  0  0  0  0  0  0  0  0  0  0  0
  148.5997  136.2091  156.9212 N   0  0  0  0  0  0  0  0  0  0  0  0
  149.4854  135.6801  155.8893 C   0  0  0  0  0  0  0  0  0  0  0  0
  150.0174  136.7954  154.9700 C   0  0  0  0  0  0  0  0  0  0  0  0
  151.3903  137.3270  155.3862 C   0  0  0  0  0  0  0  0  0  0  0  0
  151.5220  138.6783  154.6761 C   0  0  0  0  0  0  0  0  0  0  0  0
  150.0890  139.1640  154.4083 C   0  0  0  0  0  0  0  0  0  0  0  0
  149.1565  138.0627  154.9258 C   0  0  0  0  0  0  0  0  0  0  0  0
  148.0658  138.1349  159.3068 H   0  0  0  0  0  0  0  0  0  0  0  0
  146.9256  137.1233  158.4710 H   0  0  0  0  0  0  0  0  0  0  0  0
  147.1267  134.6597  163.7175 H   0  0  0  0  0  0  0  0  0  0  0  0
  146.9102  133.3737  161.7045 H   0  0  0  0  0  0  0  0  0  0  0  0
  147.6354  136.3557  156.6604 H   0  0  0  0  0  0  0  0  0  0  0  0
  150.3103  135.1181  156.3307 H   0  0  0  0  0  0  0  0  0  0  0  0
  148.9123  134.9646  155.2992 H   0  0  0  0  0  0  0  0  0  0  0  0
  150.1021  136.4053  153.9541 H   0  0  0  0  0  0  0  0  0  0  0  0
  151.4167  137.4805  156.4662 H   0  0  0  0  0  0  0  0  0  0  0  0
  152.1991  136.6418  155.1306 H   0  0  0  0  0  0  0  0  0  0  0  0
  152.0914  139.3905  155.2741 H   0  0  0  0  0  0  0  0  0  0  0  0
  152.0496  138.5526  153.7299 H   0  0  0  0  0  0  0  0  0  0  0  0
  149.8840  140.1161  154.8985 H   0  0  0  0  0  0  0  0  0  0  0  0
  149.9425  139.3113  153.3375 H   0  0  0  0  0  0  0  0  0  0  0  0
  148.2680  137.9451  154.3045 H   0  0  0  0  0  0  0  0  0  0  0  0
  148.8210  138.3169  155.9324 H   0  0  0  0  0  0  0  0  0  0  0  0
  1  2  2  0  0  0  0
  2  3  1  0  0  0  0
  2 12  1  0  0  0  0
  3 19  1  0  0  0  0
  3 20  1  0  0  0  0
  3  4  1  0  0  0  0
  4  5  1  0  0  0  0
  4 10  1  0  0  0  0
  5  6  1  0  0  0  0
  6  7  2  0  0  0  0
  6  8  1  0  0  0  0
  8 21  1  0  0  0  0
  8  9  2  0  0  0  0
  9 22  1  0  0  0  0
  9 10  1  0  0  0  0
 10 11  2  0  0  0  0
 12 13  1  0  0  0  0
 12 23  1  0  0  0  0
 13 14  1  0  0  0  0
 13 24  1  0  0  0  0
 13 25  1  0  0  0  0
 14 18  1  0  0  0  0
 14 15  1  0  0  0  0
 14 26  1  0  0  0  0
 15 16  1  0  0  0  0
 15 27  1  0  0  0  0
 15 28  1  0  0  0  0
 16 17  1  0  0  0  0
 16 29  1  0  0  0  0
 16 30  1  0  0  0  0
 17 18  1  0  0  0  0
 17 31  1  0  0  0  0
 17 32  1  0  0  0  0
 18 33  1  0  0  0  0
 18 34  1  0  0  0  0
M  CHG  1   5  -1
M  END
> <s_m_source_file>
AV-unprocessed.smi

> <i_m_source_file_index>
1922

> <i_lp_mmshare_version>
43012

> <i_f3d_flags>
0

> <s_epik_input>
W0NIMl0xW0NIMl1bQ0gyXVtDSDJdW0NIXTFbQ0gyXVtOSF1DKD1PKVtDSDJdbjJbbkhdYyg9TylbY0hdW2NIXWMyPU8=

> <s_epik_cmdline>
J2VwaWtfcHl0aG9uJywgJy1waCcsICc3LjAnLCAnLXRuJywgJzgnLCAnLW1hJywgJzIwMCcsICctbWV0YWxfYmluZGluZycsICctaW1hZScsICc8aW5maWxlLm1hZT4nLCAnLW9tYWUnLCAnPG91dGZpbGUubWFlPic=

> <r_lp_tautomer_probability>
1

> <r_epik_Ionization_Penalty>
0.0984168

> <r_epik_Ionization_Penalty_Charging>
0.0984168

> <r_epik_Ionization_Penalty_Neutral>
1.97085e-08

> <r_epik_State_Penalty>
0.0346886

> <r_epik_Charging_Adjusted_Penalty>
0.133105

> <i_epik_Tot_Q>
-1

> <i_epik_Tot_abs_Q>
1

> <r_epik_Metal_State_Penalty>
0.0346886

> <b_epik_Metal_Only>
0

> <s_lp_Force_Field>
OPLS_2005

> <r_lp_Energy>
36.8816

> <b_lp_Chiralities_Consistent>
1

> <s_lp_Variant>
AV-unprocessed.smi:1922-1

> <Gold.Version>
5.8.1

> <Gold.Id.Protein>
6NUR|6NUR_protein|mol2

> <Gold.PLP.Fitness>
43.5392

> <Gold.PLP.PLP>
-31.6693

> <Gold.PLP.part.hbond>
-3.8020

> <Gold.PLP.part.metal>
0.0000

> <Gold.PLP.part.buried>
-3.0104

> <Gold.PLP.part.nonpolar>
-25.2605

> <Gold.PLP.part.repulsive>
0.0716

> <Gold.PLP.ligand.clash>
0.0000

> <Gold.PLP.ligand.torsion>
0.6822

> <Gold.PLP.Chemscore.Hbond>
4.4080

> <Gold.PLP.Chemscore.CHOScore>
0.0000

> <Gold.PLP.Chemscore.Metal>
0.0000

> <Gold.Chemscore.Hbonds>
donor molecule, donor type, donor heavy atom, donor atom, acceptor molecule, acceptor atom, score
      P1  H  6896  6907       L1     1  1.00
      P1  H  6931  6943       L1     5  2.00
      P1  H  6934  6947       L1     5  1.39

> <Gold.PLP.Chemscore.Internal.Correction>
0.0102

> <Gold.Rescore>
     Score         DG    S(hbond)    S(metal)    S(lipo)     H(rot)  DE(clash)    DE(int)     intcor
     11.10     -13.33       1.97        0.00      53.30       1.94       0.52       1.71       ----

> <Gold.Chemscore.Fitness>
11.1009

> <Gold.Chemscore.DG>
-13.3293

> <Gold.Chemscore.ZeroCoef>
-5.4800

> <Gold.Chemscore.Hbond>
1.9699

> <Gold.Chemscore.Metal>
0.0000

> <Gold.Chemscore.Lipo>
53.3028

> <Gold.Chemscore.Internal_Hbond>
0.0000

> <Gold.Chemscore.DEClash>
0.5233

> <Gold.Chemscore.DEInternal>
1.7051

> <Gold.Chemscore.Rot>
1.9401

> <Gold.Chemscore.Internal.Correction>
   9.000000E+99

> <Gold.Chemscore.Hbonds>
donor molecule, donor type, donor heavy atom, donor atom, acceptor molecule, acceptor atom, score
      P1  H  6896  6907       L1     1  0.94
      P1  H  6931  6943       L1     5  0.25
      P1  H  6934  6947       L1     5  0.30

> <Gold.Chemscore.Hbond.Weighted>
-6.5795

> <Gold.Chemscore.Metal.Weighted>
-0.0000

> <Gold.Chemscore.Lipo.Weighted>
-6.2364

> <Gold.Chemscore.Internal_Hbond.Weighted>
0.0000

> <Gold.Chemscore.DEClash.Weighted>
0.5233

> <Gold.Chemscore.DEInternal.Weighted>
1.7051

> <Gold.Chemscore.Rot.Weighted>
4.9666

> <Gold.Chemscore.Internal.Correction.Weighted>
   9.000000E+99

> <Gold.Protein.RotatedTorsions>
[ 6907 6896 6895 6894 ] final  -47.46 input  -60.11 | X-H torsion
[ 7974 7965 7964 7962 ] final  -63.11 input  175.53 | X-H torsion
[ 8008 7997 7996 7995 ] final   13.87 input   59.86 | X-H torsion
[ 10167 10162 10161 10158 ] final  -32.82 input  -65.29 | X-H torsion
[ 10718 10713 10712 10709 ] final  140.37 input   66.30 | X-H torsion
[ 10763 10752 10751 10750 ] final   24.93 input  -60.55 | X-H torsion
[ 11005 11000 10999 10996 ] final   95.41 input  -57.11 | X-H torsion

> <Gold.Protein.ActiveResidues>
 VAL166  LYS551  ARG553  GLY616  TRP617  ASP618  TYR619  PRO620  LYS621  CYS622 
 ASP623  PHE694  ASN695  SER759  ASP760  ASP761  ALA762  ILE779  LEU786  VAL792 
 PHE793  MET794  SER795  GLU796  ALA797  LYS798  CYS799  TRP800  GLU811  SER814 

> <Gold.Protein.RotatedAtoms>
  150.9006  134.8417  159.7356 H   0  0  0  0  0  0  0  0  0  0  0  0  # atno 6907 bound_to 6896
  152.4890  134.4509  159.9584 H   0  0  0  0  0  0  0  0  0  0  0  0  # atno 6908 bound_to 6896
  151.4561  133.3565  159.2837 H   0  0  0  0  0  0  0  0  0  0  0  0  # atno 6909 bound_to 6896
  145.7831  140.8751  143.0320 H   0  0  0  0  0  0  0  0  0  0  0  0  # atno 7974 bound_to 7965
  154.8405  140.2914  155.5662 H   0  0  0  0  0  0  0  0  0  0  0  0  # atno 8008 bound_to 7997
  156.3011  140.2515  156.3278 H   0  0  0  0  0  0  0  0  0  0  0  0  # atno 8009 bound_to 7997
  154.9131  140.0388  157.1946 H   0  0  0  0  0  0  0  0  0  0  0  0  # atno 8010 bound_to 7997
  140.7215  143.3666  151.1859 H   0  0  0  0  0  0  0  0  0  0  0  0  # atno 10167 bound_to 10162
  157.4040  131.1020  151.0523 H   0  0  0  0  0  0  0  0  0  0  0  0  # atno 10718 bound_to 10713
  153.0728  135.6594  154.0211 H   0  0  0  0  0  0  0  0  0  0  0  0  # atno 10763 bound_to 10752
  153.9852  135.2951  155.3418 H   0  0  0  0  0  0  0  0  0  0  0  0  # atno 10764 bound_to 10752
  154.7107  135.5206  153.8733 H   0  0  0  0  0  0  0  0  0  0  0  0  # atno 10765 bound_to 10752
  139.8789  134.8897  156.4007 H   0  0  0  0  0  0  0  0  0  0  0  0  # atno 11005 bound_to 11000
  144.6793  140.0017  143.7484 LP  0  0  0  0  0  0  0  0  0  0  0  0  # atno 17320 bound_to 7965
  146.0054  139.3125  143.0903 LP  0  0  0  0  0  0  0  0  0  0  0  0  # atno 17321 bound_to 7965
  139.7229  143.9195  152.2992 LP  0  0  0  0  0  0  0  0  0  0  0  0  # atno 17342 bound_to 10162
  139.8958  144.6940  150.8720 LP  0  0  0  0  0  0  0  0  0  0  0  0  # atno 17343 bound_to 10162
  157.1511  130.6185  149.5583 LP  0  0  0  0  0  0  0  0  0  0  0  0  # atno 17370 bound_to 10713
  155.9831  130.4849  150.6916 LP  0  0  0  0  0  0  0  0  0  0  0  0  # atno 17371 bound_to 10713
  140.9268  133.7606  155.9975 LP  0  0  0  0  0  0  0  0  0  0  0  0  # atno 17394 bound_to 11000
  140.8376  134.3105  157.5326 LP  0  0  0  0  0  0  0  0  0  0  0  0  # atno 17395 bound_to 11000

$$$$
