AV-unprocessed.smi:56|AV-procd|sdf|579|dock10
  -GOLD-   2262016483D 1   1.00000     0.00000
 Structure written by MMmdl.
 23 24  0  0  0  0  0  0  0  0  2 V2000
  146.6995  134.4046  152.0528 O   0  0  0  0  0  0  0  0  0  0  0  0
  145.5091  134.9173  151.4784 C   0  0  1  0  0  0  0  0  0  0  0  0
  144.7135  133.8010  150.8667 C   0  0  0  0  0  0  0  0  0  0  0  0
  144.0519  132.7374  151.4182 C   0  0  0  0  0  0  0  0  0  0  0  0
  143.4945  132.0513  150.3008 C   0  0  0  0  0  0  0  0  0  0  0  0
  143.7814  132.6325  149.1479 N   0  0  0  0  0  0  0  0  0  0  0  0
  144.5260  133.6950  149.5050 N   0  0  0  0  0  0  0  0  0  0  0  0
  144.7783  135.7398  152.5465 C   0  0  0  0  0  0  0  0  0  0  0  0
  145.5239  137.0813  152.5720 C   0  0  0  0  0  0  0  0  0  0  0  0
  146.1979  137.2122  151.2638 N   0  3  0  0  0  0  0  0  0  0  0  0
  145.8992  136.0055  150.4689 C   0  0  0  0  0  0  0  0  0  0  0  0
  144.9041  134.3297  148.8160 H   0  0  0  0  0  0  0  0  0  0  0  0
  147.3688  135.0706  152.0223 H   0  0  0  0  0  0  0  0  0  0  0  0
  143.9750  132.4809  152.4643 H   0  0  0  0  0  0  0  0  0  0  0  0
  142.8942  131.1534  150.2946 H   0  0  0  0  0  0  0  0  0  0  0  0
  143.7526  135.9316  152.2280 H   0  0  0  0  0  0  0  0  0  0  0  0
  144.7302  135.2490  153.5197 H   0  0  0  0  0  0  0  0  0  0  0  0
  144.8500  137.9188  152.7543 H   0  0  0  0  0  0  0  0  0  0  0  0
  146.2829  137.0844  153.3549 H   0  0  0  0  0  0  0  0  0  0  0  0
  145.8830  138.0391  150.7762 H   0  0  0  0  0  0  0  0  0  0  0  0
  146.7279  135.7219  149.8188 H   0  0  0  0  0  0  0  0  0  0  0  0
  145.0465  136.2424  149.8308 H   0  0  0  0  0  0  0  0  0  0  0  0
  147.1944  137.2687  151.4190 H   0  0  0  0  0  0  0  0  0  0  0  0
  1  2  1  0  0  0  0
  1 13  1  0  0  0  0
  2 11  1  0  0  0  0
  2  3  1  0  0  0  0
  2  8  1  0  0  0  0
  3  7  1  0  0  0  0
  3  4  2  0  0  0  0
  4  5  1  0  0  0  0
  4 14  1  0  0  0  0
  5  6  2  0  0  0  0
  5 15  1  0  0  0  0
  6  7  1  0  0  0  0
  7 12  1  0  0  0  0
  8  9  1  0  0  0  0
  8 16  1  0  0  0  0
  8 17  1  0  0  0  0
  9 10  1  0  0  0  0
  9 18  1  0  0  0  0
  9 19  1  0  0  0  0
 10 11  1  0  0  0  0
 10 20  1  0  0  0  0
 10 23  1  0  0  0  0
 11 21  1  0  0  0  0
 11 22  1  0  0  0  0
M  CHG  1  10   1
M  END
> <s_m_source_file>
AV-unprocessed.smi

> <i_m_source_file_index>
56

> <i_lp_mmshare_version>
43012

> <i_f3d_flags>
0

> <s_epik_input>
W0NIMl0xW05IXVtDSDJdW0NIMl1bQ0BAXTEoW09IXSljMltjSF1bY0hdbltuSF0y

> <s_epik_cmdline>
J2VwaWtfcHl0aG9uJywgJy1waCcsICc3LjAnLCAnLXRuJywgJzgnLCAnLW1hJywgJzIwMCcsICctbWV0YWxfYmluZGluZycsICctaW1hZScsICc8aW5maWxlLm1hZT4nLCAnLW9tYWUnLCAnPG91dGZpbGUubWFlPic=

> <r_lp_tautomer_probability>
0.5

> <r_epik_Ionization_Penalty>
0.00599842

> <r_epik_Ionization_Penalty_Charging>
0.00599115

> <r_epik_Ionization_Penalty_Neutral>
7.26593e-06

> <r_epik_State_Penalty>
0.41068

> <r_epik_Charging_Adjusted_Penalty>
0.416671

> <i_epik_Tot_Q>
1

> <i_epik_Tot_abs_Q>
1

> <r_epik_Metal_State_Penalty>
0.410678

> <b_epik_Metal_Only>
0

> <s_lp_Force_Field>
OPLS_2005

> <r_lp_Energy>
26.3948

> <b_lp_Chiralities_Consistent>
1

> <s_lp_Variant>
AV-unprocessed.smi:56-3

> <Gold.Version>
5.8.1

> <Gold.Id.Protein>
6NUR|6NUR_protein|mol2

> <Gold.PLP.Fitness>
34.0786

> <Gold.PLP.PLP>
-19.0478

> <Gold.PLP.part.hbond>
-3.8614

> <Gold.PLP.part.metal>
0.0000

> <Gold.PLP.part.buried>
-3.9378

> <Gold.PLP.part.nonpolar>
-12.3320

> <Gold.PLP.part.repulsive>
0.4878

> <Gold.PLP.ligand.clash>
0.0000

> <Gold.PLP.ligand.torsion>
0.1432

> <Gold.PLP.Chemscore.Hbond>
4.1008

> <Gold.PLP.Chemscore.CHOScore>
1.0000

> <Gold.PLP.Chemscore.Metal>
0.0000

> <Gold.Chemscore.Hbonds>
donor molecule, donor type, donor heavy atom, donor atom, acceptor molecule, acceptor atom, score
      L1  H     1    13       P1  7948  1.00
      L1  H     7    12       P1  7921  1.00
      L1  H    10    20       P1 10171  0.23
      L1  H    10    23       P1  7948  1.78
      L1  C     5    15       P1 10952  1.00

> <Gold.PLP.Chemscore.Internal.Correction>
0.0147

> <Gold.Rescore>
     Score         DG    S(hbond)    S(metal)    S(lipo)     H(rot)  DE(clash)    DE(int)     intcor
     16.87     -17.13       3.07        0.00      44.73       1.50       0.01       0.25       ----

> <Gold.Chemscore.Fitness>
16.8702

> <Gold.Chemscore.DG>
-17.1259

> <Gold.Chemscore.ZeroCoef>
-5.4800

> <Gold.Chemscore.Hbond>
3.0685

> <Gold.Chemscore.Metal>
0.0000

> <Gold.Chemscore.Lipo>
44.7290

> <Gold.Chemscore.Internal_Hbond>
0.0000

> <Gold.Chemscore.DEClash>
0.0089

> <Gold.Chemscore.DEInternal>
0.2468

> <Gold.Chemscore.Rot>
1.4985

> <Gold.Chemscore.Internal.Correction>
   9.000000E+99

> <Gold.Chemscore.Hbonds>
donor molecule, donor type, donor heavy atom, donor atom, acceptor molecule, acceptor atom, score
      L1  H     1    13       P1  7948  0.95
      L1  H     7    12       P1  7921  0.96
      L1  H    10    20       P1 10171  0.23
      L1  H    10    23       P1  7948  0.82

> <Gold.Chemscore.Hbond.Weighted>
-10.2487

> <Gold.Chemscore.Metal.Weighted>
-0.0000

> <Gold.Chemscore.Lipo.Weighted>
-5.2333

> <Gold.Chemscore.Internal_Hbond.Weighted>
0.0000

> <Gold.Chemscore.DEClash.Weighted>
0.0089

> <Gold.Chemscore.DEInternal.Weighted>
0.2468

> <Gold.Chemscore.Rot.Weighted>
3.8362

> <Gold.Chemscore.Internal.Correction.Weighted>
   9.000000E+99

> <Gold.Protein.RotatedTorsions>
[ 6907 6896 6895 6894 ] final  -49.25 input  -60.11 | X-H torsion
[ 7974 7965 7964 7962 ] final  174.37 input  175.53 | X-H torsion
[ 8008 7997 7996 7995 ] final  -73.01 input   59.86 | X-H torsion
[ 10167 10162 10161 10158 ] final   38.97 input  -65.29 | X-H torsion
[ 10718 10713 10712 10709 ] final   34.49 input   66.30 | X-H torsion
[ 10763 10752 10751 10750 ] final   94.92 input  -60.55 | X-H torsion
[ 11005 11000 10999 10996 ] final -117.46 input  -57.11 | X-H torsion

> <Gold.Protein.ActiveResidues>
 VAL166  LYS551  ARG553  GLY616  TRP617  ASP618  TYR619  PRO620  LYS621  CYS622 
 ASP623  PHE694  ASN695  SER759  ASP760  ASP761  ALA762  ILE779  LEU786  VAL792 
 PHE793  MET794  SER795  GLU796  ALA797  LYS798  CYS799  TRP800  GLU811  SER814 

> <Gold.Protein.RotatedAtoms>
  150.8824  134.8217  159.7234 H   0  0  0  0  0  0  0  0  0  0  0  0  # atno 6907 bound_to 6896
  152.4786  134.4775  159.9665 H   0  0  0  0  0  0  0  0  0  0  0  0  # atno 6908 bound_to 6896
  151.4848  133.3499  159.2879 H   0  0  0  0  0  0  0  0  0  0  0  0  # atno 6909 bound_to 6896
  144.7223  139.9787  143.6438 H   0  0  0  0  0  0  0  0  0  0  0  0  # atno 7974 bound_to 7965
  154.5213  140.0787  156.8176 H   0  0  0  0  0  0  0  0  0  0  0  0  # atno 8008 bound_to 7997
  155.3571  140.3416  155.4222 H   0  0  0  0  0  0  0  0  0  0  0  0  # atno 8009 bound_to 7997
  156.1683  140.1611  156.8479 H   0  0  0  0  0  0  0  0  0  0  0  0  # atno 8010 bound_to 7997
  140.3885  144.1884  150.6130 H   0  0  0  0  0  0  0  0  0  0  0  0  # atno 10167 bound_to 10162
  157.3110  130.7399  149.6725 H   0  0  0  0  0  0  0  0  0  0  0  0  # atno 10718 bound_to 10713
  153.2472  135.4272  155.0759 H   0  0  0  0  0  0  0  0  0  0  0  0  # atno 10763 bound_to 10752
  154.8366  135.3417  154.6565 H   0  0  0  0  0  0  0  0  0  0  0  0  # atno 10764 bound_to 10752
  153.6987  135.7029  153.5126 H   0  0  0  0  0  0  0  0  0  0  0  0  # atno 10765 bound_to 10752
  141.0353  133.9919  157.3080 H   0  0  0  0  0  0  0  0  0  0  0  0  # atno 11005 bound_to 11000
  146.0505  139.3506  143.0642 LP  0  0  0  0  0  0  0  0  0  0  0  0  # atno 17320 bound_to 7965
  145.8221  140.9674  143.0893 LP  0  0  0  0  0  0  0  0  0  0  0  0  # atno 17321 bound_to 7965
  140.4864  143.2362  151.8882 LP  0  0  0  0  0  0  0  0  0  0  0  0  # atno 17342 bound_to 10162
  139.4790  144.5214  151.8796 LP  0  0  0  0  0  0  0  0  0  0  0  0  # atno 17343 bound_to 10162
  155.9678  130.4251  150.4640 LP  0  0  0  0  0  0  0  0  0  0  0  0  # atno 17370 bound_to 10713
  157.2638  131.0572  151.2303 LP  0  0  0  0  0  0  0  0  0  0  0  0  # atno 17371 bound_to 10713
  139.9236  135.0201  156.8155 LP  0  0  0  0  0  0  0  0  0  0  0  0  # atno 17394 bound_to 11000
  140.6333  133.9885  155.7672 LP  0  0  0  0  0  0  0  0  0  0  0  0  # atno 17395 bound_to 11000

$$$$
