AV-unprocessed.smi:3322|AV-procd|sdf|12774|dock1
  -GOLD-   2272019113D 1   1.00000     0.00000
 Structure written by MMmdl.
 39 40  0  0  0  0  0  0  0  0  2 V2000
  149.5551  133.4654  155.7793 C   0  0  0  0  0  0  0  0  0  0  0  0
  149.5770  134.5939  154.7345 C   0  0  1  0  0  0  0  0  0  0  0  0
  148.8170  134.1606  153.5374 N   0  3  0  0  0  0  0  0  0  0  0  0
  147.4525  133.6584  153.8064 C   0  0  0  0  0  0  0  0  0  0  0  0
  146.9126  132.8674  152.6070 C   0  0  0  0  0  0  0  0  0  0  0  0
  145.8593  133.5896  151.9210 N   0  0  0  0  0  0  0  0  0  0  0  0
  145.9275  134.8147  151.2916 C   0  0  0  0  0  0  0  0  0  0  0  0
  144.6860  135.0825  150.7903 C   0  0  0  0  0  0  0  0  0  0  0  0
  143.9152  133.9485  151.1711 C   0  0  0  0  0  0  0  0  0  0  0  0
  144.6208  133.0566  151.8481 N   0  0  0  0  0  0  0  0  0  0  0  0
  149.0033  135.8947  155.3392 C   0  0  0  0  0  0  0  0  0  0  0  0
  147.8031  135.9208  155.6193 O   0  0  0  0  0  0  0  0  0  0  0  0
  149.8109  136.9634  155.5550 N   0  0  0  0  0  0  0  0  0  0  0  0
  149.4074  138.2901  156.0364 C   0  0  0  0  0  0  0  0  0  0  0  0
  149.7198  139.3267  154.9409 C   0  0  0  0  0  0  0  0  0  0  0  0
  151.1049  139.2805  154.6114 O   0  0  0  0  0  0  0  0  0  0  0  0
  151.5252  137.9981  154.1551 C   0  0  0  0  0  0  0  0  0  0  0  0
  151.2453  136.9498  155.2458 C   0  0  0  0  0  0  0  0  0  0  0  0
  150.1354  133.7206  156.6660 H   0  0  0  0  0  0  0  0  0  0  0  0
  149.9785  132.5474  155.3703 H   0  0  0  0  0  0  0  0  0  0  0  0
  148.5381  133.2429  156.1051 H   0  0  0  0  0  0  0  0  0  0  0  0
  150.6025  134.7522  154.4024 H   0  0  0  0  0  0  0  0  0  0  0  0
  148.7318  134.9532  152.9175 H   0  0  0  0  0  0  0  0  0  0  0  0
  147.4602  133.0209  154.6913 H   0  0  0  0  0  0  0  0  0  0  0  0
  146.7980  134.5034  154.0243 H   0  0  0  0  0  0  0  0  0  0  0  0
  147.7106  132.6558  151.8936 H   0  0  0  0  0  0  0  0  0  0  0  0
  146.5157  131.9055  152.9349 H   0  0  0  0  0  0  0  0  0  0  0  0
  146.8426  135.3875  151.2517 H   0  0  0  0  0  0  0  0  0  0  0  0
  144.3754  135.9561  150.2365 H   0  0  0  0  0  0  0  0  0  0  0  0
  142.8717  133.7484  150.9769 H   0  0  0  0  0  0  0  0  0  0  0  0
  148.3566  138.3698  156.3033 H   0  0  0  0  0  0  0  0  0  0  0  0
  149.9646  138.5258  156.9442 H   0  0  0  0  0  0  0  0  0  0  0  0
  149.1197  139.1431  154.0482 H   0  0  0  0  0  0  0  0  0  0  0  0
  149.4746  140.3299  155.2896 H   0  0  0  0  0  0  0  0  0  0  0  0
  151.0108  137.7431  153.2271 H   0  0  0  0  0  0  0  0  0  0  0  0
  152.5912  138.0353  153.9307 H   0  0  0  0  0  0  0  0  0  0  0  0
  151.8106  137.1877  156.1481 H   0  0  0  0  0  0  0  0  0  0  0  0
  151.6049  135.9746  154.9155 H   0  0  0  0  0  0  0  0  0  0  0  0
  149.3477  133.4400  153.0685 H   0  0  0  0  0  0  0  0  0  0  0  0
  1  2  1  0  0  0  0
  1 19  1  0  0  0  0
  1 20  1  0  0  0  0
  1 21  1  0  0  0  0
  2  3  1  0  0  0  0
  2 11  1  0  0  0  0
  2 22  1  0  0  0  0
  3  4  1  0  0  0  0
  3 23  1  0  0  0  0
  3 39  1  0  0  0  0
  4  5  1  0  0  0  0
  4 24  1  0  0  0  0
  4 25  1  0  0  0  0
  5  6  1  0  0  0  0
  5 26  1  0  0  0  0
  5 27  1  0  0  0  0
  6 10  1  0  0  0  0
  6  7  1  0  0  0  0
  7  8  2  0  0  0  0
  7 28  1  0  0  0  0
  8  9  1  0  0  0  0
  8 29  1  0  0  0  0
  9 10  2  0  0  0  0
  9 30  1  0  0  0  0
 11 12  2  0  0  0  0
 11 13  1  0  0  0  0
 13 18  1  0  0  0  0
 13 14  1  0  0  0  0
 14 15  1  0  0  0  0
 14 31  1  0  0  0  0
 14 32  1  0  0  0  0
 15 16  1  0  0  0  0
 15 33  1  0  0  0  0
 15 34  1  0  0  0  0
 16 17  1  0  0  0  0
 17 18  1  0  0  0  0
 17 35  1  0  0  0  0
 17 36  1  0  0  0  0
 18 37  1  0  0  0  0
 18 38  1  0  0  0  0
M  CHG  1   3   1
M  END
> <s_m_source_file>
AV-unprocessed.smi

> <i_m_source_file_index>
3322

> <i_lp_mmshare_version>
43012

> <i_f3d_flags>
0

> <s_epik_input>
W0NIMl0xW0NIMl1PW0NIMl1bQ0gyXU4xQyg9TylbQ0BIXShbQ0gzXSlbTkhdW0NIMl1bQ0gyXW4yW2NIXVtjSF1bY0hdbjI=

> <s_epik_cmdline>
J2VwaWtfcHl0aG9uJywgJy1waCcsICc3LjAnLCAnLXRuJywgJzgnLCAnLW1hJywgJzIwMCcsICctbWV0YWxfYmluZGluZycsICctaW1hZScsICc8aW5maWxlLm1hZT4nLCAnLW9tYWUnLCAnPG91dGZpbGUubWFlPic=

> <r_lp_tautomer_probability>
1

> <r_epik_Ionization_Penalty>
0.3254

> <r_epik_Ionization_Penalty_Charging>
0.325398

> <r_epik_Ionization_Penalty_Neutral>
2.29478e-06

> <r_epik_State_Penalty>
0.320187

> <r_epik_Charging_Adjusted_Penalty>
0.645585

> <i_epik_Tot_Q>
1

> <i_epik_Tot_abs_Q>
1

> <r_epik_Metal_State_Penalty>
0.320558

> <b_epik_Metal_Only>
0

> <s_lp_Force_Field>
OPLS_2005

> <r_lp_Energy>
25.7531

> <b_lp_Chiralities_Consistent>
1

> <s_lp_Variant>
AV-unprocessed.smi:3322-2

> <Gold.Version>
5.8.1

> <Gold.Id.Protein>
6NUR|6NUR_protein|mol2

> <Gold.PLP.Fitness>
40.0256

> <Gold.PLP.PLP>
-26.0911

> <Gold.PLP.part.hbond>
-2.0000

> <Gold.PLP.part.metal>
0.0000

> <Gold.PLP.part.buried>
-4.4519

> <Gold.PLP.part.nonpolar>
-20.6757

> <Gold.PLP.part.repulsive>
0.2856

> <Gold.PLP.ligand.clash>
0.0000

> <Gold.PLP.ligand.torsion>
0.5600

> <Gold.PLP.Chemscore.Hbond>
3.0000

> <Gold.PLP.Chemscore.CHOScore>
1.9956

> <Gold.PLP.Chemscore.Metal>
0.0000

> <Gold.Chemscore.Hbonds>
donor molecule, donor type, donor heavy atom, donor atom, acceptor molecule, acceptor atom, score
      L1  H     3    23       P1  7948  2.00
      P1  H  7989  7998       L1    16  1.00
      L1  C     7    28       P1  7948  1.00
      L1  C     9    30       P1 10186  1.00

> <Gold.PLP.Chemscore.Internal.Correction>
0.0677

> <Gold.Rescore>
     Score         DG    S(hbond)    S(metal)    S(lipo)     H(rot)  DE(clash)    DE(int)     intcor
     11.97     -12.92       1.48        0.00      63.17       1.91       0.17       0.77       ----

> <Gold.Chemscore.Fitness>
11.9692

> <Gold.Chemscore.DG>
-12.9154

> <Gold.Chemscore.ZeroCoef>
-5.4800

> <Gold.Chemscore.Hbond>
1.4770

> <Gold.Chemscore.Metal>
0.0000

> <Gold.Chemscore.Lipo>
63.1664

> <Gold.Chemscore.Internal_Hbond>
0.0000

> <Gold.Chemscore.DEClash>
0.1726

> <Gold.Chemscore.DEInternal>
0.7737

> <Gold.Chemscore.Rot>
1.9095

> <Gold.Chemscore.Internal.Correction>
   9.000000E+99

> <Gold.Chemscore.Hbonds>
donor molecule, donor type, donor heavy atom, donor atom, acceptor molecule, acceptor atom, score
      L1  H     3    23       P1  7948  0.30
      P1  H  7989  7998       L1    16  0.73

> <Gold.Chemscore.Hbond.Weighted>
-4.9333

> <Gold.Chemscore.Metal.Weighted>
-0.0000

> <Gold.Chemscore.Lipo.Weighted>
-7.3905

> <Gold.Chemscore.Internal_Hbond.Weighted>
0.0000

> <Gold.Chemscore.DEClash.Weighted>
0.1726

> <Gold.Chemscore.DEInternal.Weighted>
0.7737

> <Gold.Chemscore.Rot.Weighted>
4.8884

> <Gold.Chemscore.Internal.Correction.Weighted>
   9.000000E+99

> <Gold.Protein.RotatedTorsions>
[ 6907 6896 6895 6894 ] final  -79.78 input  -60.11 | X-H torsion
[ 7974 7965 7964 7962 ] final  112.65 input  175.53 | X-H torsion
[ 8008 7997 7996 7995 ] final  -30.28 input   59.86 | X-H torsion
[ 10167 10162 10161 10158 ] final  -88.01 input  -65.29 | X-H torsion
[ 10718 10713 10712 10709 ] final  -94.55 input   66.30 | X-H torsion
[ 10763 10752 10751 10750 ] final  146.46 input  -60.55 | X-H torsion
[ 11005 11000 10999 10996 ] final -167.76 input  -57.11 | X-H torsion

> <Gold.Protein.ActiveResidues>
 VAL166  LYS551  ARG553  GLY616  TRP617  ASP618  TYR619  PRO620  LYS621  CYS622 
 ASP623  PHE694  ASN695  SER759  ASP760  ASP761  ALA762  ILE779  LEU786  VAL792 
 PHE793  MET794  SER795  GLU796  ALA797  LYS798  CYS799  TRP800  GLU811  SER814 

> <Gold.Protein.RotatedAtoms>
  150.6943  134.4070  159.5144 H   0  0  0  0  0  0  0  0  0  0  0  0  # atno 6907 bound_to 6896
  152.1834  134.8731  160.0533 H   0  0  0  0  0  0  0  0  0  0  0  0  # atno 6908 bound_to 6896
  151.9713  133.3692  159.4109 H   0  0  0  0  0  0  0  0  0  0  0  0  # atno 6909 bound_to 6896
  145.2268  139.2837  143.4189 H   0  0  0  0  0  0  0  0  0  0  0  0  # atno 7974 bound_to 7965
  154.4257  140.1795  156.1381 H   0  0  0  0  0  0  0  0  0  0  0  0  # atno 8008 bound_to 7997
  156.0014  140.3359  155.6824 H   0  0  0  0  0  0  0  0  0  0  0  0  # atno 8009 bound_to 7997
  155.6238  140.0662  157.2661 H   0  0  0  0  0  0  0  0  0  0  0  0  # atno 8010 bound_to 7997
  140.3789  143.2758  151.9409 H   0  0  0  0  0  0  0  0  0  0  0  0  # atno 10167 bound_to 10162
  156.0029  130.5072  150.5943 H   0  0  0  0  0  0  0  0  0  0  0  0  # atno 10718 bound_to 10713
  154.0222  135.2905  155.3379 H   0  0  0  0  0  0  0  0  0  0  0  0  # atno 10763 bound_to 10752
  154.7039  135.5177  153.8570 H   0  0  0  0  0  0  0  0  0  0  0  0  # atno 10764 bound_to 10752
  153.0676  135.6636  154.0443 H   0  0  0  0  0  0  0  0  0  0  0  0  # atno 10765 bound_to 10752
  140.5496  134.5441  157.5119 H   0  0  0  0  0  0  0  0  0  0  0  0  # atno 11005 bound_to 11000
  146.3362  140.2591  142.8601 LP  0  0  0  0  0  0  0  0  0  0  0  0  # atno 17320 bound_to 7965
  144.9713  140.8371  143.5453 LP  0  0  0  0  0  0  0  0  0  0  0  0  # atno 17321 bound_to 7965
  139.4797  144.5837  151.7889 LP  0  0  0  0  0  0  0  0  0  0  0  0  # atno 17342 bound_to 10162
  140.4958  144.1243  150.5960 LP  0  0  0  0  0  0  0  0  0  0  0  0  # atno 17343 bound_to 10162
  157.3803  131.0780  151.1483 LP  0  0  0  0  0  0  0  0  0  0  0  0  # atno 17370 bound_to 10713
  157.2207  130.6480  149.5810 LP  0  0  0  0  0  0  0  0  0  0  0  0  # atno 17371 bound_to 10713
  139.9462  134.7698  156.0557 LP  0  0  0  0  0  0  0  0  0  0  0  0  # atno 17394 bound_to 11000
  141.1179  133.6622  156.3140 LP  0  0  0  0  0  0  0  0  0  0  0  0  # atno 17395 bound_to 11000

$$$$
