AV-unprocessed.smi:2227|AV-procd|sdf|9022|dock9
  -GOLD-   2272012223D 1   1.00000     0.00000
 Structure written by MMmdl.
 42 44  0  0  0  0  0  0  0  0  1 V2000
  149.8994  144.3609  159.7985 C   0  0  0  0  0  0  0  0  0  0  0  0
  151.1810  144.6516  160.5923 C   0  0  0  0  0  0  0  0  0  0  0  0
  151.9939  145.7984  159.9738 C   0  0  0  0  0  0  0  0  0  0  0  0
  152.0121  143.4090  160.7660 C   0  0  0  0  0  0  0  0  0  0  0  0
  152.4682  142.9994  161.9475 N   0  0  0  0  0  0  0  0  0  0  0  0
  153.2002  141.8504  161.6753 C   0  0  0  0  0  0  0  0  0  0  0  0
  153.1693  141.6031  160.3254 C   0  0  0  0  0  0  0  0  0  0  0  0
  152.4095  142.6134  159.7477 N   0  0  0  0  0  0  0  0  0  0  0  0
  152.1328  142.7391  158.3237 C   0  0  0  0  0  0  0  0  0  0  0  0
  151.0729  141.7339  157.8653 C   0  0  0  0  0  0  0  0  0  0  0  0
  150.1520  141.4210  158.6197 O   0  0  0  0  0  0  0  0  0  0  0  0
  151.2239  141.2315  156.6299 N   0  0  0  0  0  0  0  0  0  0  0  0
  150.3593  140.2399  156.0002 C   0  0  0  0  0  0  0  0  0  0  0  0
  151.0841  138.9206  155.8046 C   0  0  0  0  0  0  0  0  0  0  0  0
  152.2539  138.7946  154.8572 C   0  0  0  0  0  0  0  0  0  0  0  0
  150.9365  138.1303  154.5268 C   0  0  0  0  0  0  0  0  0  0  0  0
  149.7804  140.7227  154.6798 C   0  0  0  0  0  0  0  0  0  0  0  0
  148.5565  141.6073  154.6291 C   0  0  0  0  0  0  0  0  0  0  0  0
  148.4756  140.1776  154.1474 C   0  0  0  0  0  0  0  0  0  0  0  0
  149.3043  143.5891  160.2880 H   0  0  0  0  0  0  0  0  0  0  0  0
  150.1262  144.0156  158.7892 H   0  0  0  0  0  0  0  0  0  0  0  0
  149.2784  145.2528  159.7134 H   0  0  0  0  0  0  0  0  0  0  0  0
  150.8662  145.0023  161.5730 H   0  0  0  0  0  0  0  0  0  0  0  0
  152.8676  146.0314  160.5831 H   0  0  0  0  0  0  0  0  0  0  0  0
  151.3951  146.7062  159.8954 H   0  0  0  0  0  0  0  0  0  0  0  0
  152.3432  145.5447  158.9724 H   0  0  0  0  0  0  0  0  0  0  0  0
  153.6893  141.2974  162.4635 H   0  0  0  0  0  0  0  0  0  0  0  0
  153.6197  140.8143  159.7410 H   0  0  0  0  0  0  0  0  0  0  0  0
  151.7700  143.7476  158.1219 H   0  0  0  0  0  0  0  0  0  0  0  0
  153.0627  142.6254  157.7651 H   0  0  0  0  0  0  0  0  0  0  0  0
  152.0118  141.5515  156.0859 H   0  0  0  0  0  0  0  0  0  0  0  0
  149.5233  140.0440  156.6751 H   0  0  0  0  0  0  0  0  0  0  0  0
  151.1560  138.3291  156.7158 H   0  0  0  0  0  0  0  0  0  0  0  0
  152.5320  139.6654  154.2672 H   0  0  0  0  0  0  0  0  0  0  0  0
  153.0790  138.1537  155.1609 H   0  0  0  0  0  0  0  0  0  0  0  0
  150.8818  137.0468  154.6103 H   0  0  0  0  0  0  0  0  0  0  0  0
  150.3470  138.5668  153.7235 H   0  0  0  0  0  0  0  0  0  0  0  0
  150.5394  140.9265  153.9267 H   0  0  0  0  0  0  0  0  0  0  0  0
  148.0580  141.8454  155.5663 H   0  0  0  0  0  0  0  0  0  0  0  0
  148.5374  142.3946  153.8782 H   0  0  0  0  0  0  0  0  0  0  0  0
  148.4027  140.0099  153.0750 H   0  0  0  0  0  0  0  0  0  0  0  0
  147.9218  139.4764  154.7681 H   0  0  0  0  0  0  0  0  0  0  0  0
  1  2  1  0  0  0  0
  1 20  1  0  0  0  0
  1 21  1  0  0  0  0
  1 22  1  0  0  0  0
  2  3  1  0  0  0  0
  2  4  1  0  0  0  0
  2 23  1  0  0  0  0
  3 24  1  0  0  0  0
  3 25  1  0  0  0  0
  3 26  1  0  0  0  0
  4  8  1  0  0  0  0
  4  5  2  0  0  0  0
  5  6  1  0  0  0  0
  6  7  2  0  0  0  0
  6 27  1  0  0  0  0
  7  8  1  0  0  0  0
  7 28  1  0  0  0  0
  8  9  1  0  0  0  0
  9 10  1  0  0  0  0
  9 29  1  0  0  0  0
  9 30  1  0  0  0  0
 10 11  2  0  0  0  0
 10 12  1  0  0  0  0
 12 13  1  0  0  0  0
 12 31  1  0  0  0  0
 13 14  1  0  0  0  0
 13 17  1  0  0  0  0
 13 32  1  0  0  0  0
 14 16  1  0  0  0  0
 14 15  1  0  0  0  0
 14 33  1  0  0  0  0
 15 16  1  0  0  0  0
 15 34  1  0  0  0  0
 15 35  1  0  0  0  0
 16 36  1  0  0  0  0
 16 37  1  0  0  0  0
 17 19  1  0  0  0  0
 17 18  1  0  0  0  0
 17 38  1  0  0  0  0
 18 19  1  0  0  0  0
 18 39  1  0  0  0  0
 18 40  1  0  0  0  0
 19 41  1  0  0  0  0
 19 42  1  0  0  0  0
M  END
> <s_m_source_file>
AV-unprocessed.smi

> <i_m_source_file_index>
2227

> <i_lp_mmshare_version>
43012

> <i_f3d_flags>
0

> <s_epik_input>
W0NIM11bQ0hdKFtDSDNdKWMxbltjSF1bY0hdbjFbQ0gyXUMoPU8pW05IXVtDSF0oW0NIXTJbQ0gyXVtDSDJdMilbQ0hdM1tDSDJdW0NIMl0z

> <s_epik_cmdline>
J2VwaWtfcHl0aG9uJywgJy1waCcsICc3LjAnLCAnLXRuJywgJzgnLCAnLW1hJywgJzIwMCcsICctbWV0YWxfYmluZGluZycsICctaW1hZScsICc8aW5maWxlLm1hZT4nLCAnLW9tYWUnLCAnPG91dGZpbGUubWFlPic=

> <r_lp_tautomer_probability>
1

> <r_epik_Ionization_Penalty>
0.615412

> <r_epik_Ionization_Penalty_Charging>
0.615412

> <r_epik_Ionization_Penalty_Neutral>
4.7269e-08

> <r_epik_State_Penalty>
0.630977

> <r_epik_Charging_Adjusted_Penalty>
1.24639

> <i_epik_Tot_Q>
0

> <i_epik_Tot_abs_Q>
0

> <r_epik_Metal_State_Penalty>
0.305199

> <b_epik_Metal_Only>
0

> <s_lp_Force_Field>
OPLS_2005

> <r_lp_Energy>
23.5493

> <b_lp_Chiralities_Consistent>
1

> <s_lp_Variant>
AV-unprocessed.smi:2227-2

> <Gold.Version>
5.8.1

> <Gold.Id.Protein>
6NUR|6NUR_protein|mol2

> <Gold.PLP.Fitness>
45.2989

> <Gold.PLP.PLP>
-47.0783

> <Gold.PLP.part.hbond>
0.0000

> <Gold.PLP.part.metal>
0.0000

> <Gold.PLP.part.buried>
-2.0358

> <Gold.PLP.part.nonpolar>
-43.3958

> <Gold.PLP.part.repulsive>
0.2540

> <Gold.PLP.ligand.clash>
0.0000

> <Gold.PLP.ligand.torsion>
1.9850

> <Gold.PLP.Chemscore.Hbond>
0.0000

> <Gold.PLP.Chemscore.CHOScore>
0.0000

> <Gold.PLP.Chemscore.Metal>
0.0000

> <Gold.PLP.Chemscore.Internal.Correction>
2.1906

> <Gold.Rescore>
     Score         DG    S(hbond)    S(metal)    S(lipo)     H(rot)  DE(clash)    DE(int)     intcor
     12.49     -14.29       0.00        0.00     111.69       1.66       0.09       1.72       ----

> <Gold.Chemscore.Fitness>
12.4862

> <Gold.Chemscore.DG>
-14.2916

> <Gold.Chemscore.ZeroCoef>
-5.4800

> <Gold.Chemscore.Hbond>
0.0000

> <Gold.Chemscore.Metal>
0.0000

> <Gold.Chemscore.Lipo>
111.6928

> <Gold.Chemscore.Internal_Hbond>
0.0000

> <Gold.Chemscore.DEClash>
0.0892

> <Gold.Chemscore.DEInternal>
1.7161

> <Gold.Chemscore.Rot>
1.6627

> <Gold.Chemscore.Internal.Correction>
   9.000000E+99

> <Gold.Chemscore.Hbond.Weighted>
-0.0000

> <Gold.Chemscore.Metal.Weighted>
-0.0000

> <Gold.Chemscore.Lipo.Weighted>
-13.0681

> <Gold.Chemscore.Internal_Hbond.Weighted>
0.0000

> <Gold.Chemscore.DEClash.Weighted>
0.0892

> <Gold.Chemscore.DEInternal.Weighted>
1.7161

> <Gold.Chemscore.Rot.Weighted>
4.2565

> <Gold.Chemscore.Internal.Correction.Weighted>
   9.000000E+99

> <Gold.Protein.RotatedTorsions>
[ 6907 6896 6895 6894 ] final   35.71 input  -60.11 | X-H torsion
[ 7974 7965 7964 7962 ] final -133.78 input  175.53 | X-H torsion
[ 8008 7997 7996 7995 ] final   47.73 input   59.86 | X-H torsion
[ 10167 10162 10161 10158 ] final  -75.72 input  -65.29 | X-H torsion
[ 10718 10713 10712 10709 ] final   55.00 input   66.30 | X-H torsion
[ 10763 10752 10751 10750 ] final   51.38 input  -60.55 | X-H torsion
[ 11005 11000 10999 10996 ] final  -89.46 input  -57.11 | X-H torsion

> <Gold.Protein.ActiveResidues>
 VAL166  LYS551  ARG553  GLY616  TRP617  ASP618  TYR619  PRO620  LYS621  CYS622 
 ASP623  PHE694  ASN695  SER759  ASP760  ASP761  ALA762  ILE779  LEU786  VAL792 
 PHE793  MET794  SER795  GLU796  ALA797  LYS798  CYS799  TRP800  GLU811  SER814 

> <Gold.Protein.RotatedAtoms>
  152.1199  134.9213  160.0563 H   0  0  0  0  0  0  0  0  0  0  0  0  # atno 6907 bound_to 6896
  152.0358  133.3952  159.4324 H   0  0  0  0  0  0  0  0  0  0  0  0  # atno 6908 bound_to 6896
  150.6848  134.3390  159.4903 H   0  0  0  0  0  0  0  0  0  0  0  0  # atno 6909 bound_to 6896
  144.9162  140.6957  143.4994 H   0  0  0  0  0  0  0  0  0  0  0  0  # atno 7974 bound_to 7965
  155.3739  140.3425  155.4244 H   0  0  0  0  0  0  0  0  0  0  0  0  # atno 8008 bound_to 7997
  156.1648  140.1612  156.8585 H   0  0  0  0  0  0  0  0  0  0  0  0  # atno 8009 bound_to 7997
  154.5174  140.0775  156.8089 H   0  0  0  0  0  0  0  0  0  0  0  0  # atno 8010 bound_to 7997
  140.4918  143.2379  151.7895 H   0  0  0  0  0  0  0  0  0  0  0  0  # atno 10167 bound_to 10162
  157.5307  130.8628  149.8683 H   0  0  0  0  0  0  0  0  0  0  0  0  # atno 10718 bound_to 10713
  152.9785  135.5848  154.4405 H   0  0  0  0  0  0  0  0  0  0  0  0  # atno 10763 bound_to 10752
  154.4007  135.2769  155.2100 H   0  0  0  0  0  0  0  0  0  0  0  0  # atno 10764 bound_to 10752
  154.3932  135.6120  153.5909 H   0  0  0  0  0  0  0  0  0  0  0  0  # atno 10765 bound_to 10752
  141.1584  133.7632  156.9598 H   0  0  0  0  0  0  0  0  0  0  0  0  # atno 11005 bound_to 11000
  145.3372  139.1742  143.4505 LP  0  0  0  0  0  0  0  0  0  0  0  0  # atno 17320 bound_to 7965
  146.3183  140.3409  142.8648 LP  0  0  0  0  0  0  0  0  0  0  0  0  # atno 17321 bound_to 7965
  139.4853  144.4639  151.9508 LP  0  0  0  0  0  0  0  0  0  0  0  0  # atno 17342 bound_to 10162
  140.3726  144.2836  150.5918 LP  0  0  0  0  0  0  0  0  0  0  0  0  # atno 17343 bound_to 10162
  156.0420  130.3737  150.1412 LP  0  0  0  0  0  0  0  0  0  0  0  0  # atno 17370 bound_to 10713
  156.9596  130.9801  151.3482 LP  0  0  0  0  0  0  0  0  0  0  0  0  # atno 17371 bound_to 10713
  140.1201  134.9423  157.2190 LP  0  0  0  0  0  0  0  0  0  0  0  0  # atno 17394 bound_to 11000
  140.3083  134.3052  155.7273 LP  0  0  0  0  0  0  0  0  0  0  0  0  # atno 17395 bound_to 11000

$$$$
