AV-unprocessed.smi:2814|AV-procd|sdf|10839|dock2
  -GOLD-   2272015283D 1   1.00000     0.00000
 Structure written by MMmdl.
 37 38  0  0  0  0  0  0  0  0  1 V2000
  152.1994  139.7028  156.0300 C   0  0  0  0  0  0  0  0  0  0  0  0
  150.8596  139.9040  155.3533 C   0  0  0  0  0  0  0  0  0  0  0  0
  150.1975  138.8285  154.7235 C   0  0  0  0  0  0  0  0  0  0  0  0
  148.9457  139.0708  154.1078 C   0  0  0  0  0  0  0  0  0  0  0  0
  148.1882  138.0814  153.4245 N   0  0  0  0  0  0  0  0  0  0  0  0
  146.8533  137.9812  153.3037 C   0  0  0  0  0  0  0  0  0  0  0  0
  146.0344  138.7792  153.7594 O   0  0  0  0  0  0  0  0  0  0  0  0
  146.5136  136.8918  152.5995 N   0  0  0  0  0  0  0  0  0  0  0  0
  145.1515  136.4719  152.2765 C   0  0  0  0  0  0  0  0  0  0  0  0
  145.1122  135.3931  151.1703 C   0  0  0  0  0  0  0  0  0  0  0  0
  145.2022  136.0436  149.9149 O   0  0  0  0  0  0  0  0  0  0  0  0
  146.1948  134.3076  151.2654 C   0  0  0  0  0  0  0  0  0  0  0  0
  145.6487  133.1024  150.4894 C   0  0  0  0  0  0  0  0  0  0  0  0
  144.1252  133.2852  150.4189 C   0  0  0  0  0  0  0  0  0  0  0  0
  143.8101  134.5814  151.1765 C   0  0  0  0  0  0  0  0  0  0  0  0
  148.4361  140.3851  154.1344 C   0  0  0  0  0  0  0  0  0  0  0  0
  149.1764  141.3874  154.7915 C   0  0  0  0  0  0  0  0  0  0  0  0
  150.3622  141.1590  155.3936 N   0  0  0  0  0  0  0  0  0  0  0  0
  152.5401  138.6713  155.9367 H   0  0  0  0  0  0  0  0  0  0  0  0
  152.1273  139.9429  157.0911 H   0  0  0  0  0  0  0  0  0  0  0  0
  152.9523  140.3511  155.5809 H   0  0  0  0  0  0  0  0  0  0  0  0
  150.6594  137.8534  154.7120 H   0  0  0  0  0  0  0  0  0  0  0  0
  148.7306  137.3940  152.9223 H   0  0  0  0  0  0  0  0  0  0  0  0
  147.2555  136.2936  152.2665 H   0  0  0  0  0  0  0  0  0  0  0  0
  144.6551  136.1033  153.1759 H   0  0  0  0  0  0  0  0  0  0  0  0
  144.5844  137.3500  151.9653 H   0  0  0  0  0  0  0  0  0  0  0  0
  145.4734  135.4090  149.2693 H   0  0  0  0  0  0  0  0  0  0  0  0
  147.1671  134.6379  150.8971 H   0  0  0  0  0  0  0  0  0  0  0  0
  146.3261  134.0177  152.3087 H   0  0  0  0  0  0  0  0  0  0  0  0
  146.0655  133.0828  149.4817 H   0  0  0  0  0  0  0  0  0  0  0  0
  145.9234  132.1643  150.9730 H   0  0  0  0  0  0  0  0  0  0  0  0
  143.8139  133.3746  149.3774 H   0  0  0  0  0  0  0  0  0  0  0  0
  143.5917  132.4351  150.8454 H   0  0  0  0  0  0  0  0  0  0  0  0
  143.5425  134.3280  152.2035 H   0  0  0  0  0  0  0  0  0  0  0  0
  142.9641  135.1228  150.7502 H   0  0  0  0  0  0  0  0  0  0  0  0
  147.4921  140.6246  153.6670 H   0  0  0  0  0  0  0  0  0  0  0  0
  148.8060  142.4008  154.8336 H   0  0  0  0  0  0  0  0  0  0  0  0
  1  2  1  0  0  0  0
  1 19  1  0  0  0  0
  1 20  1  0  0  0  0
  1 21  1  0  0  0  0
  2 18  1  0  0  0  0
  2  3  2  0  0  0  0
  3  4  1  0  0  0  0
  3 22  1  0  0  0  0
  4  5  1  0  0  0  0
  4 16  2  0  0  0  0
  5  6  1  0  0  0  0
  5 23  1  0  0  0  0
  6  7  2  0  0  0  0
  6  8  1  0  0  0  0
  8  9  1  0  0  0  0
  8 24  1  0  0  0  0
  9 10  1  0  0  0  0
  9 25  1  0  0  0  0
  9 26  1  0  0  0  0
 10 15  1  0  0  0  0
 10 11  1  0  0  0  0
 10 12  1  0  0  0  0
 11 27  1  0  0  0  0
 12 13  1  0  0  0  0
 12 28  1  0  0  0  0
 12 29  1  0  0  0  0
 13 14  1  0  0  0  0
 13 30  1  0  0  0  0
 13 31  1  0  0  0  0
 14 15  1  0  0  0  0
 14 32  1  0  0  0  0
 14 33  1  0  0  0  0
 15 34  1  0  0  0  0
 15 35  1  0  0  0  0
 16 17  1  0  0  0  0
 16 36  1  0  0  0  0
 17 18  2  0  0  0  0
 17 37  1  0  0  0  0
M  END
> <s_m_source_file>
AV-unprocessed.smi

> <i_m_source_file_index>
2814

> <i_lp_mmshare_version>
43012

> <i_f3d_flags>
0

> <s_epik_input>
W0NIM11jMVtjSF1jKFtjSF1bY0hdbjEpW05IXUMoPU8pW05IXVtDSDJdQzIoW09IXSlbQ0gyXVtDSDJdW0NIMl1bQ0gyXTI=

> <s_epik_cmdline>
J2VwaWtfcHl0aG9uJywgJy1waCcsICc3LjAnLCAnLXRuJywgJzgnLCAnLW1hJywgJzIwMCcsICctbWV0YWxfYmluZGluZycsICctaW1hZScsICc8aW5maWxlLm1hZT4nLCAnLW9tYWUnLCAnPG91dGZpbGUubWFlPic=

> <r_epik_Ionization_Penalty>
0.405099

> <r_epik_Ionization_Penalty_Charging>
0

> <r_epik_Ionization_Penalty_Neutral>
0.405099

> <r_epik_State_Penalty>
0.404681

> <r_epik_Charging_Adjusted_Penalty>
0.404681

> <i_epik_Tot_Q>
0

> <i_epik_Tot_abs_Q>
0

> <r_epik_Metal_State_Penalty>
0.238286

> <b_epik_Metal_Only>
0

> <s_lp_Force_Field>
OPLS_2005

> <r_lp_Energy>
28.9703

> <b_lp_Chiralities_Consistent>
1

> <s_lp_Variant>
AV-unprocessed.smi:2814-1

> <Gold.Version>
5.8.1

> <Gold.Id.Protein>
6NUR|6NUR_protein|mol2

> <Gold.PLP.Fitness>
45.3159

> <Gold.PLP.PLP>
-34.8452

> <Gold.PLP.part.hbond>
-5.1168

> <Gold.PLP.part.metal>
0.0000

> <Gold.PLP.part.buried>
-1.5197

> <Gold.PLP.part.nonpolar>
-28.3616

> <Gold.PLP.part.repulsive>
0.3331

> <Gold.PLP.ligand.clash>
0.0000

> <Gold.PLP.ligand.torsion>
0.6108

> <Gold.PLP.Chemscore.Hbond>
2.8960

> <Gold.PLP.Chemscore.CHOScore>
1.0000

> <Gold.PLP.Chemscore.Metal>
0.0000

> <Gold.Chemscore.Hbonds>
donor molecule, donor type, donor heavy atom, donor atom, acceptor molecule, acceptor atom, score
      L1  H     5    23       P1  7948  1.00
      L1  H     8    24       P1  7948  0.90
      L1  H    11    27       P1  7921  1.00
      L1  C    17    37       P1  8028  1.00

> <Gold.PLP.Chemscore.Internal.Correction>
0.0043

> <Gold.Rescore>
     Score         DG    S(hbond)    S(metal)    S(lipo)     H(rot)  DE(clash)    DE(int)     intcor
     18.24     -19.95       2.89        0.00      78.50       1.71       0.02       1.70       ----

> <Gold.Chemscore.Fitness>
18.2357

> <Gold.Chemscore.DG>
-19.9525

> <Gold.Chemscore.ZeroCoef>
-5.4800

> <Gold.Chemscore.Hbond>
2.8942

> <Gold.Chemscore.Metal>
0.0000

> <Gold.Chemscore.Lipo>
78.4985

> <Gold.Chemscore.Internal_Hbond>
0.0000

> <Gold.Chemscore.DEClash>
0.0189

> <Gold.Chemscore.DEInternal>
1.6980

> <Gold.Chemscore.Rot>
1.7103

> <Gold.Chemscore.Internal.Correction>
   9.000000E+99

> <Gold.Chemscore.Hbonds>
donor molecule, donor type, donor heavy atom, donor atom, acceptor molecule, acceptor atom, score
      L1  H     5    23       P1  7948  0.96
      L1  H     8    24       P1  7948  0.88
      L1  H    11    27       P1  7921  0.98

> <Gold.Chemscore.Hbond.Weighted>
-9.6667

> <Gold.Chemscore.Metal.Weighted>
-0.0000

> <Gold.Chemscore.Lipo.Weighted>
-9.1843

> <Gold.Chemscore.Internal_Hbond.Weighted>
0.0000

> <Gold.Chemscore.DEClash.Weighted>
0.0189

> <Gold.Chemscore.DEInternal.Weighted>
1.6980

> <Gold.Chemscore.Rot.Weighted>
4.3785

> <Gold.Chemscore.Internal.Correction.Weighted>
   9.000000E+99

> <Gold.Protein.RotatedTorsions>
[ 6907 6896 6895 6894 ] final -100.96 input  -60.11 | X-H torsion
[ 7974 7965 7964 7962 ] final   98.88 input  175.53 | X-H torsion
[ 8008 7997 7996 7995 ] final   -9.28 input   59.86 | X-H torsion
[ 10167 10162 10161 10158 ] final   18.53 input  -65.29 | X-H torsion
[ 10718 10713 10712 10709 ] final -124.00 input   66.30 | X-H torsion
[ 10763 10752 10751 10750 ] final -118.39 input  -60.55 | X-H torsion
[ 11005 11000 10999 10996 ] final  -27.39 input  -57.11 | X-H torsion

> <Gold.Protein.ActiveResidues>
 VAL166  LYS551  ARG553  GLY616  TRP617  ASP618  TYR619  PRO620  LYS621  CYS622 
 ASP623  PHE694  ASN695  SER759  ASP760  ASP761  ALA762  ILE779  LEU786  VAL792 
 PHE793  MET794  SER795  GLU796  ALA797  LYS798  CYS799  TRP800  GLU811  SER814 

> <Gold.Protein.RotatedAtoms>
  150.7136  134.0807  159.3896 H   0  0  0  0  0  0  0  0  0  0  0  0  # atno 6907 bound_to 6896
  151.8791  135.0458  160.0496 H   0  0  0  0  0  0  0  0  0  0  0  0  # atno 6908 bound_to 6896
  152.2582  133.5238  159.5402 H   0  0  0  0  0  0  0  0  0  0  0  0  # atno 6909 bound_to 6896
  145.4063  139.2340  143.3272 H   0  0  0  0  0  0  0  0  0  0  0  0  # atno 7974 bound_to 7965
  154.5662  140.2359  155.8261 H   0  0  0  0  0  0  0  0  0  0  0  0  # atno 8008 bound_to 7997
  156.2070  140.3037  155.9606 H   0  0  0  0  0  0  0  0  0  0  0  0  # atno 8009 bound_to 7997
  155.2797  140.0422  157.3005 H   0  0  0  0  0  0  0  0  0  0  0  0  # atno 8010 bound_to 7997
  140.5647  143.9273  150.6667 H   0  0  0  0  0  0  0  0  0  0  0  0  # atno 10167 bound_to 10162
  156.1550  130.6561  150.9968 H   0  0  0  0  0  0  0  0  0  0  0  0  # atno 10718 bound_to 10713
  154.8586  135.4275  154.2132 H   0  0  0  0  0  0  0  0  0  0  0  0  # atno 10763 bound_to 10752
  153.3153  135.6978  153.7085 H   0  0  0  0  0  0  0  0  0  0  0  0  # atno 10764 bound_to 10752
  153.6161  135.3510  155.2969 H   0  0  0  0  0  0  0  0  0  0  0  0  # atno 10765 bound_to 10752
  140.9115  133.7458  156.0677 H   0  0  0  0  0  0  0  0  0  0  0  0  # atno 11005 bound_to 11000
  146.2727  140.4768  142.8808 LP  0  0  0  0  0  0  0  0  0  0  0  0  # atno 17320 bound_to 7965
  144.8339  140.6752  143.6273 LP  0  0  0  0  0  0  0  0  0  0  0  0  # atno 17321 bound_to 7965
  140.2733  143.3440  152.1218 LP  0  0  0  0  0  0  0  0  0  0  0  0  # atno 17342 bound_to 10162
  139.5087  144.6854  151.5901 LP  0  0  0  0  0  0  0  0  0  0  0  0  # atno 17343 bound_to 10162
  157.6687  131.0866  150.7664 LP  0  0  0  0  0  0  0  0  0  0  0  0  # atno 17370 bound_to 10713
  156.7730  130.4835  149.5415 LP  0  0  0  0  0  0  0  0  0  0  0  0  # atno 17371 bound_to 10713
  140.8104  134.3406  157.5413 LP  0  0  0  0  0  0  0  0  0  0  0  0  # atno 17394 bound_to 11000
  139.8758  134.9250  156.3365 LP  0  0  0  0  0  0  0  0  0  0  0  0  # atno 17395 bound_to 11000

$$$$
