AV-unprocessed.smi:1554|AV-procd|sdf|6261|dock7
  -GOLD-   22720 6443D 1   1.00000     0.00000
 Structure written by MMmdl.
 49 51  0  0  0  0  0  0  0  0  3 V2000
  143.8469  132.7016  149.2656 C   0  0  0  0  0  0  0  0  0  0  0  0
  144.4461  133.5540  150.3711 C   0  0  0  0  0  0  0  0  0  0  0  0
  144.2927  134.9571  150.2991 C   0  0  0  0  0  0  0  0  0  0  0  0
  144.8531  135.7099  151.3241 C   0  0  0  0  0  0  0  0  0  0  0  0
  144.8759  137.0894  151.5412 N   0  3  0  0  0  0  0  0  0  0  0  0
  145.5512  137.3578  152.6932 C   0  0  0  0  0  0  0  0  0  0  0  0
  145.9654  136.1692  153.2113 N   0  0  0  0  0  0  0  0  0  0  0  0
  146.7302  135.8831  154.4325 C   0  0  0  0  0  0  0  0  0  0  0  0
  146.9205  137.1255  155.3250 C   0  0  1  0  0  0  0  0  0  0  0  0
  146.3014  136.8950  156.5755 O   0  0  0  0  0  0  0  0  0  0  0  0
  148.4123  137.4388  155.5551 C   0  0  0  0  0  0  0  0  0  0  0  0
  149.1035  137.8871  154.3156 N   0  3  1  0  0  0  0  0  0  0  0  0
  148.7585  139.2719  153.9114 C   0  0  0  0  0  0  0  0  0  0  0  0
  149.5140  140.3049  154.7664 C   0  0  0  0  0  0  0  0  0  0  0  0
  150.9132  140.0741  154.6577 O   0  0  0  0  0  0  0  0  0  0  0  0
  151.2946  138.7909  155.1412 C   0  0  2  0  0  0  0  0  0  0  0  0
  152.8194  138.6770  155.0364 C   0  0  0  0  0  0  0  0  0  0  0  0
  150.5778  137.6996  154.3160 C   0  0  0  0  0  0  0  0  0  0  0  0
  145.5470  135.1135  152.3945 C   0  0  0  0  0  0  0  0  0  0  0  0
  145.7049  133.7328  152.4833 C   0  0  0  0  0  0  0  0  0  0  0  0
  145.1421  132.9495  151.4503 C   0  0  0  0  0  0  0  0  0  0  0  0
  145.2982  131.4399  151.5187 C   0  0  0  0  0  0  0  0  0  0  0  0
  143.3755  133.3165  148.4984 H   0  0  0  0  0  0  0  0  0  0  0  0
  143.0875  132.0313  149.6692 H   0  0  0  0  0  0  0  0  0  0  0  0
  144.6181  132.1014  148.7821 H   0  0  0  0  0  0  0  0  0  0  0  0
  143.7626  135.4237  149.4815 H   0  0  0  0  0  0  0  0  0  0  0  0
  145.7279  138.3365  153.1163 H   0  0  0  0  0  0  0  0  0  0  0  0
  146.1989  135.1008  154.9766 H   0  0  0  0  0  0  0  0  0  0  0  0
  147.6922  135.4587  154.1424 H   0  0  0  0  0  0  0  0  0  0  0  0
  146.4235  137.9727  154.8545 H   0  0  0  0  0  0  0  0  0  0  0  0
  146.7866  137.3585  157.2413 H   0  0  0  0  0  0  0  0  0  0  0  0
  148.4844  138.2184  156.3153 H   0  0  0  0  0  0  0  0  0  0  0  0
  148.9199  136.5687  155.9711 H   0  0  0  0  0  0  0  0  0  0  0  0
  149.0335  139.4023  152.8640 H   0  0  0  0  0  0  0  0  0  0  0  0
  147.6815  139.4343  153.9655 H   0  0  0  0  0  0  0  0  0  0  0  0
  149.2967  141.3131  154.4134 H   0  0  0  0  0  0  0  0  0  0  0  0
  149.2018  140.2608  155.8109 H   0  0  0  0  0  0  0  0  0  0  0  0
  151.0205  138.7108  156.1939 H   0  0  0  0  0  0  0  0  0  0  0  0
  153.1676  137.7133  155.4088 H   0  0  0  0  0  0  0  0  0  0  0  0
  153.3098  139.4557  155.6211 H   0  0  0  0  0  0  0  0  0  0  0  0
  153.1531  138.7768  154.0031 H   0  0  0  0  0  0  0  0  0  0  0  0
  150.8498  136.7077  154.6739 H   0  0  0  0  0  0  0  0  0  0  0  0
  150.9192  137.7496  153.2810 H   0  0  0  0  0  0  0  0  0  0  0  0
  146.2343  133.2733  153.3047 H   0  0  0  0  0  0  0  0  0  0  0  0
  145.8240  131.1333  152.4233 H   0  0  0  0  0  0  0  0  0  0  0  0
  145.8668  131.0752  150.6630 H   0  0  0  0  0  0  0  0  0  0  0  0
  144.3228  130.9531  151.5206 H   0  0  0  0  0  0  0  0  0  0  0  0
  148.7360  137.2902  153.5877 H   0  0  0  0  0  0  0  0  0  0  0  0
  144.4603  137.7977  150.9496 H   0  0  0  0  0  0  0  0  0  0  0  0
  1  2  1  0  0  0  0
  1 23  1  0  0  0  0
  1 24  1  0  0  0  0
  1 25  1  0  0  0  0
  2 21  1  0  0  0  0
  2  3  2  0  0  0  0
  3  4  1  0  0  0  0
  3 26  1  0  0  0  0
  4 19  2  0  0  0  0
  4  5  1  0  0  0  0
  5  6  2  0  0  0  0
  5 49  1  0  0  0  0
  6  7  1  0  0  0  0
  6 27  1  0  0  0  0
  7  8  1  0  0  0  0
  7 19  1  0  0  0  0
  8  9  1  0  0  0  0
  8 28  1  0  0  0  0
  8 29  1  0  0  0  0
  9 10  1  0  0  0  0
  9 11  1  0  0  0  0
  9 30  1  0  0  0  0
 10 31  1  0  0  0  0
 11 12  1  0  0  0  0
 11 32  1  0  0  0  0
 11 33  1  0  0  0  0
 12 18  1  0  0  0  0
 12 13  1  0  0  0  0
 12 48  1  0  0  0  0
 13 14  1  0  0  0  0
 13 34  1  0  0  0  0
 13 35  1  0  0  0  0
 14 15  1  0  0  0  0
 14 36  1  0  0  0  0
 14 37  1  0  0  0  0
 15 16  1  0  0  0  0
 16 17  1  0  0  0  0
 16 18  1  0  0  0  0
 16 38  1  0  0  0  0
 17 39  1  0  0  0  0
 17 40  1  0  0  0  0
 17 41  1  0  0  0  0
 18 42  1  0  0  0  0
 18 43  1  0  0  0  0
 19 20  1  0  0  0  0
 20 21  2  0  0  0  0
 20 44  1  0  0  0  0
 21 22  1  0  0  0  0
 22 45  1  0  0  0  0
 22 46  1  0  0  0  0
 22 47  1  0  0  0  0
M  CHG  1   5   1
M  CHG  1  12   1
M  END
> <s_m_source_file>
AV-unprocessed.smi

> <i_m_source_file_index>
1554

> <i_lp_mmshare_version>
43012

> <i_f3d_flags>
0

> <s_epik_input>
W0NIM11jKFtjSF0xKWMoW0NIM10pW2NIXWMoYzEyKW4oW2NIXW4yKVtDSDJdW0NASF0oW09IXSlbQ0gyXU4zW0NIMl1bQ0gyXU9bQ0BASF0oW0NIM10pW0NIMl0z

> <s_epik_cmdline>
J2VwaWtfcHl0aG9uJywgJy1waCcsICc3LjAnLCAnLXRuJywgJzgnLCAnLW1hJywgJzIwMCcsICctbWV0YWxfYmluZGluZycsICctaW1hZScsICc8aW5maWxlLm1hZT4nLCAnLW9tYWUnLCAnPG91dGZpbGUubWFlPic=

> <r_epik_Ionization_Penalty>
1.8848

> <r_epik_Ionization_Penalty_Charging>
1.88479

> <r_epik_Ionization_Penalty_Neutral>
1.42224e-05

> <r_epik_State_Penalty>
1.94551

> <r_epik_Charging_Adjusted_Penalty>
3.8303

> <i_epik_Tot_Q>
2

> <i_epik_Tot_abs_Q>
2

> <r_epik_Metal_State_Penalty>
5.95849

> <b_epik_Metal_Only>
0

> <s_lp_Force_Field>
OPLS_2005

> <r_lp_Energy>
31.3767

> <b_lp_Chiralities_Consistent>
1

> <s_lp_Variant>
AV-unprocessed.smi:1554-22

> <Gold.Version>
5.8.1

> <Gold.Id.Protein>
6NUR|6NUR_protein|mol2

> <Gold.PLP.Fitness>
48.4496

> <Gold.PLP.PLP>
-38.4690

> <Gold.PLP.part.hbond>
-3.0000

> <Gold.PLP.part.metal>
0.0000

> <Gold.PLP.part.buried>
-1.9739

> <Gold.PLP.part.nonpolar>
-33.5636

> <Gold.PLP.part.repulsive>
0.1303

> <Gold.PLP.ligand.clash>
0.0000

> <Gold.PLP.ligand.torsion>
1.0227

> <Gold.PLP.Chemscore.Hbond>
4.0000

> <Gold.PLP.Chemscore.CHOScore>
0.0000

> <Gold.PLP.Chemscore.Metal>
0.0000

> <Gold.Chemscore.Hbonds>
donor molecule, donor type, donor heavy atom, donor atom, acceptor molecule, acceptor atom, score
      L1  H     5    49       P1 10171  0.94
      L1  H    12    48       P1  7948  2.00
      P1  H  7989  7998       L1    15  1.00

> <Gold.PLP.Chemscore.Internal.Correction>
0.0260

> <Gold.Rescore>
     Score         DG    S(hbond)    S(metal)    S(lipo)     H(rot)  DE(clash)    DE(int)     intcor
     19.93     -21.11       2.92        0.00      96.58       2.11       0.23       0.96       ----

> <Gold.Chemscore.Fitness>
19.9251

> <Gold.Chemscore.DG>
-21.1129

> <Gold.Chemscore.ZeroCoef>
-5.4800

> <Gold.Chemscore.Hbond>
2.9163

> <Gold.Chemscore.Metal>
0.0000

> <Gold.Chemscore.Lipo>
96.5788

> <Gold.Chemscore.Internal_Hbond>
0.0000

> <Gold.Chemscore.DEClash>
0.2287

> <Gold.Chemscore.DEInternal>
0.9592

> <Gold.Chemscore.Rot>
2.1122

> <Gold.Chemscore.Internal.Correction>
   9.000000E+99

> <Gold.Chemscore.Hbonds>
donor molecule, donor type, donor heavy atom, donor atom, acceptor molecule, acceptor atom, score
      L1  H     5    49       P1 10171  0.90
      L1  H    12    48       P1  7948  0.88
      P1  H  7989  7998       L1    15  0.88

> <Gold.Chemscore.Hbond.Weighted>
-9.7405

> <Gold.Chemscore.Metal.Weighted>
-0.0000

> <Gold.Chemscore.Lipo.Weighted>
-11.2997

> <Gold.Chemscore.Internal_Hbond.Weighted>
0.0000

> <Gold.Chemscore.DEClash.Weighted>
0.2287

> <Gold.Chemscore.DEInternal.Weighted>
0.9592

> <Gold.Chemscore.Rot.Weighted>
5.4073

> <Gold.Chemscore.Internal.Correction.Weighted>
   9.000000E+99

> <Gold.Protein.RotatedTorsions>
[ 6907 6896 6895 6894 ] final   60.09 input  -60.11 | X-H torsion
[ 7974 7965 7964 7962 ] final  -29.40 input  175.53 | X-H torsion
[ 8008 7997 7996 7995 ] final   48.47 input   59.86 | X-H torsion
[ 10167 10162 10161 10158 ] final -136.76 input  -65.29 | X-H torsion
[ 10718 10713 10712 10709 ] final  147.32 input   66.30 | X-H torsion
[ 10763 10752 10751 10750 ] final  152.78 input  -60.55 | X-H torsion
[ 11005 11000 10999 10996 ] final  -22.17 input  -57.11 | X-H torsion

> <Gold.Protein.ActiveResidues>
 VAL166  LYS551  ARG553  GLY616  TRP617  ASP618  TYR619  PRO620  LYS621  CYS622 
 ASP623  PHE694  ASN695  SER759  ASP760  ASP761  ALA762  ILE779  LEU786  VAL792 
 PHE793  MET794  SER795  GLU796  ALA797  LYS798  CYS799  TRP800  GLU811  SER814 

> <Gold.Protein.RotatedAtoms>
  152.3973  134.6345  160.0083 H   0  0  0  0  0  0  0  0  0  0  0  0  # atno 6907 bound_to 6896
  151.6560  133.3313  159.3171 H   0  0  0  0  0  0  0  0  0  0  0  0  # atno 6908 bound_to 6896
  150.7878  134.6921  159.6547 H   0  0  0  0  0  0  0  0  0  0  0  0  # atno 6909 bound_to 6896
  146.1219  140.5407  142.8731 H   0  0  0  0  0  0  0  0  0  0  0  0  # atno 7974 bound_to 7965
  155.3861  140.3431  155.4249 H   0  0  0  0  0  0  0  0  0  0  0  0  # atno 8008 bound_to 7997
  156.1583  140.1593  156.8688 H   0  0  0  0  0  0  0  0  0  0  0  0  # atno 8009 bound_to 7997
  154.5116  140.0788  156.7982 H   0  0  0  0  0  0  0  0  0  0  0  0  # atno 8010 bound_to 7997
  139.8646  143.7034  152.2646 H   0  0  0  0  0  0  0  0  0  0  0  0  # atno 10167 bound_to 10162
  157.3224  131.0906  151.1229 H   0  0  0  0  0  0  0  0  0  0  0  0  # atno 10718 bound_to 10713
  154.1255  135.2830  155.3198 H   0  0  0  0  0  0  0  0  0  0  0  0  # atno 10763 bound_to 10752
  154.6393  135.5408  153.7773 H   0  0  0  0  0  0  0  0  0  0  0  0  # atno 10764 bound_to 10752
  153.0298  135.6482  154.1407 H   0  0  0  0  0  0  0  0  0  0  0  0  # atno 10765 bound_to 10752
  140.8632  133.7773  156.0099 H   0  0  0  0  0  0  0  0  0  0  0  0  # atno 11005 bound_to 11000
  144.7605  140.5411  143.6738 LP  0  0  0  0  0  0  0  0  0  0  0  0  # atno 17320 bound_to 7965
  145.5447  139.1476  143.3427 LP  0  0  0  0  0  0  0  0  0  0  0  0  # atno 17321 bound_to 7965
  139.7341  144.7575  151.0755 LP  0  0  0  0  0  0  0  0  0  0  0  0  # atno 17342 bound_to 10162
  140.7770  143.5051  150.9722 LP  0  0  0  0  0  0  0  0  0  0  0  0  # atno 17343 bound_to 10162
  157.2509  130.6613  149.5931 LP  0  0  0  0  0  0  0  0  0  0  0  0  # atno 17370 bound_to 10713
  155.9687  130.4538  150.5828 LP  0  0  0  0  0  0  0  0  0  0  0  0  # atno 17371 bound_to 10713
  140.8659  134.2785  157.5213 LP  0  0  0  0  0  0  0  0  0  0  0  0  # atno 17394 bound_to 11000
  139.8708  134.9542  156.4169 LP  0  0  0  0  0  0  0  0  0  0  0  0  # atno 17395 bound_to 11000

$$$$
