AV-unprocessed.smi:2395|AV-procd|sdf|9491|dock2
  -GOLD-   2272013123D 1   1.00000     0.00000
 Structure written by MMmdl.
 39 40  0  0  0  0  0  0  0  0  1 V2000
  149.8916  137.1914  154.9237 C   0  0  0  0  0  0  0  0  0  0  0  0
  149.5458  138.6529  154.9094 C   0  0  0  0  0  0  0  0  0  0  0  0
  150.4397  139.5330  155.3270 N   0  0  0  0  0  0  0  0  0  0  0  0
  149.8391  140.7324  155.1821 N   0  0  0  0  0  0  0  0  0  0  0  0
  150.5669  141.9385  155.5524 C   0  0  0  0  0  0  0  0  0  0  0  0
  150.6346  142.1471  157.0702 C   0  0  0  0  0  0  0  0  0  0  0  0
  151.2172  141.3406  157.7969 O   0  0  0  0  0  0  0  0  0  0  0  0
  150.0298  143.2499  157.5360 N   0  0  0  0  0  0  0  0  0  0  0  0
  149.9940  143.6564  158.9346 C   0  0  0  0  0  0  0  0  0  0  0  0
  151.3353  144.0618  159.5153 C   0  0  0  0  0  0  0  0  0  0  0  0
  152.0810  145.2514  158.9581 C   0  0  0  0  0  0  0  0  0  0  0  0
  152.6147  143.8556  158.7391 C   0  0  0  0  0  0  0  0  0  0  0  0
  148.5570  140.6056  154.6772 C   0  0  0  0  0  0  0  0  0  0  0  0
  147.6777  141.7869  154.4166 C   0  0  0  0  0  0  0  0  0  0  0  0
  148.3299  139.2682  154.4917 C   0  0  0  0  0  0  0  0  0  0  0  0
  147.0958  138.5872  153.9625 C   0  0  0  0  0  0  0  0  0  0  0  0
  146.8022  139.0050  152.5157 C   0  0  0  0  0  0  0  0  0  0  0  0
  147.7096  138.3735  151.6387 O   0  0  0  0  0  0  0  0  0  0  0  0
  149.4823  136.6836  154.0500 H   0  0  0  0  0  0  0  0  0  0  0  0
  149.4865  136.7048  155.8108 H   0  0  0  0  0  0  0  0  0  0  0  0
  150.9706  137.0332  154.9194 H   0  0  0  0  0  0  0  0  0  0  0  0
  151.5741  141.8754  155.1386 H   0  0  0  0  0  0  0  0  0  0  0  0
  150.0890  142.8060  155.0948 H   0  0  0  0  0  0  0  0  0  0  0  0
  149.5706  143.8568  156.8723 H   0  0  0  0  0  0  0  0  0  0  0  0
  149.2973  144.4902  159.0263 H   0  0  0  0  0  0  0  0  0  0  0  0
  149.5814  142.8478  159.5401 H   0  0  0  0  0  0  0  0  0  0  0  0
  151.4039  143.9341  160.5943 H   0  0  0  0  0  0  0  0  0  0  0  0
  151.6513  145.7637  158.0995 H   0  0  0  0  0  0  0  0  0  0  0  0
  152.6101  145.8881  159.6643 H   0  0  0  0  0  0  0  0  0  0  0  0
  153.4996  143.5612  159.2996 H   0  0  0  0  0  0  0  0  0  0  0  0
  152.5383  143.4399  157.7362 H   0  0  0  0  0  0  0  0  0  0  0  0
  146.7142  141.4815  154.0089 H   0  0  0  0  0  0  0  0  0  0  0  0
  148.1405  142.4641  153.6987 H   0  0  0  0  0  0  0  0  0  0  0  0
  147.4907  142.3427  155.3354 H   0  0  0  0  0  0  0  0  0  0  0  0
  147.2082  137.5032  154.0075 H   0  0  0  0  0  0  0  0  0  0  0  0
  146.2322  138.8162  154.5879 H   0  0  0  0  0  0  0  0  0  0  0  0
  145.7854  138.7297  152.2336 H   0  0  0  0  0  0  0  0  0  0  0  0
  146.8923  140.0858  152.4019 H   0  0  0  0  0  0  0  0  0  0  0  0
  148.1301  137.6649  152.1015 H   0  0  0  0  0  0  0  0  0  0  0  0
  1  2  1  0  0  0  0
  1 19  1  0  0  0  0
  1 20  1  0  0  0  0
  1 21  1  0  0  0  0
  2 15  1  0  0  0  0
  2  3  2  0  0  0  0
  3  4  1  0  0  0  0
  4  5  1  0  0  0  0
  4 13  1  0  0  0  0
  5  6  1  0  0  0  0
  5 22  1  0  0  0  0
  5 23  1  0  0  0  0
  6  7  2  0  0  0  0
  6  8  1  0  0  0  0
  8  9  1  0  0  0  0
  8 24  1  0  0  0  0
  9 10  1  0  0  0  0
  9 25  1  0  0  0  0
  9 26  1  0  0  0  0
 10 12  1  0  0  0  0
 10 11  1  0  0  0  0
 10 27  1  0  0  0  0
 11 12  1  0  0  0  0
 11 28  1  0  0  0  0
 11 29  1  0  0  0  0
 12 30  1  0  0  0  0
 12 31  1  0  0  0  0
 13 14  1  0  0  0  0
 13 15  2  0  0  0  0
 14 32  1  0  0  0  0
 14 33  1  0  0  0  0
 14 34  1  0  0  0  0
 15 16  1  0  0  0  0
 16 17  1  0  0  0  0
 16 35  1  0  0  0  0
 16 36  1  0  0  0  0
 17 18  1  0  0  0  0
 17 37  1  0  0  0  0
 17 38  1  0  0  0  0
 18 39  1  0  0  0  0
M  END
> <s_m_source_file>
AV-unprocessed.smi

> <i_m_source_file_index>
2395

> <i_lp_mmshare_version>
43012

> <i_f3d_flags>
0

> <s_epik_input>
W09IXVtDSDJdW0NIMl1jMWMoW0NIM10pbihuYzFbQ0gzXSlbQ0gyXUMoPU8pW05IXVtDSDJdW0NIXTJbQ0gyXVtDSDJdMg==

> <s_epik_cmdline>
J2VwaWtfcHl0aG9uJywgJy1waCcsICc3LjAnLCAnLXRuJywgJzgnLCAnLW1hJywgJzIwMCcsICctbWV0YWxfYmluZGluZycsICctaW1hZScsICc8aW5maWxlLm1hZT4nLCAnLW9tYWUnLCAnPG91dGZpbGUubWFlPic=

> <r_lp_tautomer_probability>
1

> <r_epik_Ionization_Penalty>
0.000725848

> <r_epik_Ionization_Penalty_Charging>
0

> <r_epik_Ionization_Penalty_Neutral>
0.000725848

> <r_epik_State_Penalty>
-0

> <r_epik_Charging_Adjusted_Penalty>
0

> <i_epik_Tot_Q>
0

> <i_epik_Tot_abs_Q>
0

> <r_epik_Metal_State_Penalty>
-0

> <b_epik_Metal_Only>
0

> <s_lp_Force_Field>
OPLS_2005

> <r_lp_Energy>
10.6696

> <b_lp_Chiralities_Consistent>
1

> <s_lp_Variant>
AV-unprocessed.smi:2395-1

> <Gold.Version>
5.8.1

> <Gold.Id.Protein>
6NUR|6NUR_protein|mol2

> <Gold.PLP.Fitness>
43.8559

> <Gold.PLP.PLP>
-36.3328

> <Gold.PLP.part.hbond>
-3.7030

> <Gold.PLP.part.metal>
0.0000

> <Gold.PLP.part.buried>
-4.0996

> <Gold.PLP.part.nonpolar>
-29.2087

> <Gold.PLP.part.repulsive>
0.0673

> <Gold.PLP.ligand.clash>
0.0000

> <Gold.PLP.ligand.torsion>
0.6644

> <Gold.PLP.Chemscore.Hbond>
2.7500

> <Gold.PLP.Chemscore.CHOScore>
0.0000

> <Gold.PLP.Chemscore.Metal>
0.0000

> <Gold.Chemscore.Hbonds>
donor molecule, donor type, donor heavy atom, donor atom, acceptor molecule, acceptor atom, score
      L1  H     8    24       P1  8028  1.00
      L1  H    18    39       P1  7948  0.82
      P1  H  7954  7966       L1    18  0.90

> <Gold.PLP.Chemscore.Internal.Correction>
0.6019

> <Gold.Rescore>
     Score         DG    S(hbond)    S(metal)    S(lipo)     H(rot)  DE(clash)    DE(int)     intcor
     15.21     -17.01       2.17        0.00      92.00       2.53       1.15       0.65       ----

> <Gold.Chemscore.Fitness>
15.2099

> <Gold.Chemscore.DG>
-17.0098

> <Gold.Chemscore.ZeroCoef>
-5.4800

> <Gold.Chemscore.Hbond>
2.1693

> <Gold.Chemscore.Metal>
0.0000

> <Gold.Chemscore.Lipo>
91.9952

> <Gold.Chemscore.Internal_Hbond>
0.0000

> <Gold.Chemscore.DEClash>
1.1513

> <Gold.Chemscore.DEInternal>
0.6486

> <Gold.Chemscore.Rot>
2.5309

> <Gold.Chemscore.Internal.Correction>
   9.000000E+99

> <Gold.Chemscore.Hbonds>
donor molecule, donor type, donor heavy atom, donor atom, acceptor molecule, acceptor atom, score
      L1  H     8    24       P1  8028  0.90
      L1  H    18    39       P1  7948  0.81
      P1  H  7954  7966       L1    18  0.17

> <Gold.Chemscore.Hbond.Weighted>
-7.2454

> <Gold.Chemscore.Metal.Weighted>
-0.0000

> <Gold.Chemscore.Lipo.Weighted>
-10.7634

> <Gold.Chemscore.Internal_Hbond.Weighted>
0.0000

> <Gold.Chemscore.DEClash.Weighted>
1.1513

> <Gold.Chemscore.DEInternal.Weighted>
0.6486

> <Gold.Chemscore.Rot.Weighted>
6.4790

> <Gold.Chemscore.Internal.Correction.Weighted>
   9.000000E+99

> <Gold.Protein.RotatedTorsions>
[ 6907 6896 6895 6894 ] final   75.10 input  -60.11 | X-H torsion
[ 7974 7965 7964 7962 ] final  -30.71 input  175.53 | X-H torsion
[ 8008 7997 7996 7995 ] final  -25.73 input   59.86 | X-H torsion
[ 10167 10162 10161 10158 ] final -104.83 input  -65.29 | X-H torsion
[ 10718 10713 10712 10709 ] final  -48.47 input   66.30 | X-H torsion
[ 10763 10752 10751 10750 ] final  -88.99 input  -60.55 | X-H torsion
[ 11005 11000 10999 10996 ] final    2.77 input  -57.11 | X-H torsion

> <Gold.Protein.ActiveResidues>
 VAL166  LYS551  ARG553  GLY616  TRP617  ASP618  TYR619  PRO620  LYS621  CYS622 
 ASP623  PHE694  ASN695  SER759  ASP760  ASP761  ALA762  ILE779  LEU786  VAL792 
 PHE793  MET794  SER795  GLU796  ALA797  LYS798  CYS799  TRP800  GLU811  SER814 

> <Gold.Protein.RotatedAtoms>
  152.5009  134.4171  159.9467 H   0  0  0  0  0  0  0  0  0  0  0  0  # atno 6907 bound_to 6896
  151.4142  133.3712  159.2755 H   0  0  0  0  0  0  0  0  0  0  0  0  # atno 6908 bound_to 6896
  150.9269  134.8708  159.7585 H   0  0  0  0  0  0  0  0  0  0  0  0  # atno 6909 bound_to 6896
  146.1123  140.5575  142.8772 H   0  0  0  0  0  0  0  0  0  0  0  0  # atno 7974 bound_to 7965
  154.4461  140.1918  156.0665 H   0  0  0  0  0  0  0  0  0  0  0  0  # atno 8008 bound_to 7997
  156.0543  140.3304  155.7361 H   0  0  0  0  0  0  0  0  0  0  0  0  # atno 8009 bound_to 7997
  155.5509  140.0595  157.2841 H   0  0  0  0  0  0  0  0  0  0  0  0  # atno 8010 bound_to 7997
  140.2051  143.3789  152.1097 H   0  0  0  0  0  0  0  0  0  0  0  0  # atno 10167 bound_to 10162
  156.1985  130.4155  149.9273 H   0  0  0  0  0  0  0  0  0  0  0  0  # atno 10718 bound_to 10713
  154.6505  135.5357  153.7896 H   0  0  0  0  0  0  0  0  0  0  0  0  # atno 10763 bound_to 10752
  153.0383  135.6481  154.1024 H   0  0  0  0  0  0  0  0  0  0  0  0  # atno 10764 bound_to 10752
  154.0942  135.2938  155.3245 H   0  0  0  0  0  0  0  0  0  0  0  0  # atno 10765 bound_to 10752
  140.6006  133.9839  155.8130 H   0  0  0  0  0  0  0  0  0  0  0  0  # atno 11005 bound_to 11000
  144.7522  140.5219  143.6794 LP  0  0  0  0  0  0  0  0  0  0  0  0  # atno 17320 bound_to 7965
  145.5639  139.1480  143.3326 LP  0  0  0  0  0  0  0  0  0  0  0  0  # atno 17321 bound_to 7965
  139.5202  144.7029  151.5440 LP  0  0  0  0  0  0  0  0  0  0  0  0  # atno 17342 bound_to 10162
  140.6363  143.8977  150.6650 LP  0  0  0  0  0  0  0  0  0  0  0  0  # atno 17343 bound_to 10162
  156.6991  130.8926  151.3597 LP  0  0  0  0  0  0  0  0  0  0  0  0  # atno 17370 bound_to 10713
  157.6972  130.9294  150.0678 LP  0  0  0  0  0  0  0  0  0  0  0  0  # atno 17371 bound_to 10713
  141.0874  133.9969  157.3291 LP  0  0  0  0  0  0  0  0  0  0  0  0  # atno 17394 bound_to 11000
  139.9234  135.0201  156.8147 LP  0  0  0  0  0  0  0  0  0  0  0  0  # atno 17395 bound_to 11000

$$$$
