AV-unprocessed.smi:1546|AV-procd|sdf|6219|dock7
  -GOLD-   22720 6393D 1   1.00000     0.00000
 Structure written by MMmdl.
 29 30  0  0  0  0  0  0  0  0  2 V2000
  151.4085  139.9571  158.0266 O   0  0  0  0  0  0  0  0  0  0  0  0
  151.4565  141.1768  157.8640 C   0  0  0  0  0  0  0  0  0  0  0  0
  150.7781  141.8188  156.6526 C   0  0  0  0  0  0  0  0  0  0  0  0
  150.0408  140.8381  155.9382 O   0  0  0  0  0  0  0  0  0  0  0  0
  149.4916  141.3420  154.7336 C   0  0  0  0  0  0  0  0  0  0  0  0
  148.5629  140.3039  154.1412 C   0  0  0  0  0  0  0  0  0  0  0  0
  147.3301  140.7276  153.3752 C   0  0  0  0  0  0  0  0  0  0  0  0
  147.1881  140.0758  154.7274 C   0  0  0  0  0  0  0  0  0  0  0  0
  152.0943  142.0354  158.6796 N   0  0  0  0  0  0  0  0  0  0  0  0
  152.8172  141.7668  159.8759 C   0  0  0  0  0  0  0  0  0  0  0  0
  152.7606  142.5896  161.0292 C   0  0  0  0  0  0  0  0  0  0  0  0
  153.4622  142.3451  162.1570 N   0  0  0  0  0  0  0  0  0  0  0  0
  154.2639  141.2602  162.1792 C   0  0  0  0  0  0  0  0  0  0  0  0
  154.4100  140.3837  161.0873 C   0  0  0  0  0  0  0  0  0  0  0  0
  153.6777  140.6439  159.9126 C   0  0  0  0  0  0  0  0  0  0  0  0
  153.8105  139.8088  158.8375 O   0  5  0  0  0  0  0  0  0  0  0  0
  150.1157  142.6164  156.9933 H   0  0  0  0  0  0  0  0  0  0  0  0
  151.5388  142.2636  156.0091 H   0  0  0  0  0  0  0  0  0  0  0  0
  148.9414  142.2655  154.9217 H   0  0  0  0  0  0  0  0  0  0  0  0
  150.2832  141.5611  154.0157 H   0  0  0  0  0  0  0  0  0  0  0  0
  149.0750  139.4193  153.7670 H   0  0  0  0  0  0  0  0  0  0  0  0
  147.1142  141.7922  153.3072 H   0  0  0  0  0  0  0  0  0  0  0  0
  147.0562  140.1401  152.5012 H   0  0  0  0  0  0  0  0  0  0  0  0
  146.8207  139.0520  154.7577 H   0  0  0  0  0  0  0  0  0  0  0  0
  146.8802  140.7061  155.5595 H   0  0  0  0  0  0  0  0  0  0  0  0
  152.1279  142.9974  158.3737 H   0  0  0  0  0  0  0  0  0  0  0  0
  152.1601  143.4849  161.0629 H   0  0  0  0  0  0  0  0  0  0  0  0
  154.8113  141.0887  163.0942 H   0  0  0  0  0  0  0  0  0  0  0  0
  155.0713  139.5322  161.1522 H   0  0  0  0  0  0  0  0  0  0  0  0
  1  2  2  0  0  0  0
  2  3  1  0  0  0  0
  2  9  1  0  0  0  0
  3  4  1  0  0  0  0
  3 17  1  0  0  0  0
  3 18  1  0  0  0  0
  4  5  1  0  0  0  0
  5  6  1  0  0  0  0
  5 19  1  0  0  0  0
  5 20  1  0  0  0  0
  6  8  1  0  0  0  0
  6  7  1  0  0  0  0
  6 21  1  0  0  0  0
  7  8  1  0  0  0  0
  7 22  1  0  0  0  0
  7 23  1  0  0  0  0
  8 24  1  0  0  0  0
  8 25  1  0  0  0  0
  9 26  1  0  0  0  0
  9 10  1  0  0  0  0
 10 15  1  0  0  0  0
 10 11  2  0  0  0  0
 11 27  1  0  0  0  0
 11 12  1  0  0  0  0
 12 13  2  0  0  0  0
 13 28  1  0  0  0  0
 13 14  1  0  0  0  0
 14 15  2  0  0  0  0
 14 29  1  0  0  0  0
 15 16  1  0  0  0  0
M  CHG  1  16  -1
M  END
> <s_m_source_file>
AV-unprocessed.smi

> <i_m_source_file_index>
1546

> <i_lp_mmshare_version>
43012

> <i_f3d_flags>
0

> <s_epik_input>
W0NIMl0xW0NIMl1bQ0hdMVtDSDJdT1tDSDJdQyg9TylbTkhdYzJbY0hdbltjSF1bY0hdYzJbT0hd

> <s_epik_cmdline>
J2VwaWtfcHl0aG9uJywgJy1waCcsICc3LjAnLCAnLXRuJywgJzgnLCAnLW1hJywgJzIwMCcsICctbWV0YWxfYmluZGluZycsICctaW1hZScsICc8aW5maWxlLm1hZT4nLCAnLW9tYWUnLCAnPG91dGZpbGUubWFlPic=

> <r_lp_tautomer_probability>
1

> <r_epik_Ionization_Penalty>
6.21828

> <r_epik_Ionization_Penalty_Charging>
1.1523

> <r_epik_Ionization_Penalty_Neutral>
5.06598

> <r_epik_State_Penalty>
5.06586

> <r_epik_Charging_Adjusted_Penalty>
6.21817

> <i_epik_Tot_Q>
-1

> <i_epik_Tot_abs_Q>
1

> <r_epik_Metal_State_Penalty>
1.16681

> <b_epik_Metal_Only>
1

> <s_lp_Force_Field>
OPLS_2005

> <r_lp_Energy>
16.9925

> <b_lp_Chiralities_Consistent>
1

> <s_lp_Variant>
AV-unprocessed.smi:1546-2

> <Gold.Version>
5.8.1

> <Gold.Id.Protein>
6NUR|6NUR_protein|mol2

> <Gold.PLP.Fitness>
36.9851

> <Gold.PLP.PLP>
-31.7475

> <Gold.PLP.part.hbond>
-1.0000

> <Gold.PLP.part.metal>
0.0000

> <Gold.PLP.part.buried>
-2.7246

> <Gold.PLP.part.nonpolar>
-27.4310

> <Gold.PLP.part.repulsive>
0.1784

> <Gold.PLP.ligand.clash>
0.0000

> <Gold.PLP.ligand.torsion>
0.6613

> <Gold.PLP.Chemscore.Hbond>
2.0000

> <Gold.PLP.Chemscore.CHOScore>
0.0000

> <Gold.PLP.Chemscore.Metal>
0.0000

> <Gold.Chemscore.Hbonds>
donor molecule, donor type, donor heavy atom, donor atom, acceptor molecule, acceptor atom, score
      P1  H  7997  8010       L1    16  2.00

> <Gold.PLP.Chemscore.Internal.Correction>
0.5603

> <Gold.Rescore>
     Score         DG    S(hbond)    S(metal)    S(lipo)     H(rot)  DE(clash)    DE(int)     intcor
      9.78     -14.35       0.99        0.00      83.04       1.62       0.04       4.53       ----

> <Gold.Chemscore.Fitness>
9.7760

> <Gold.Chemscore.DG>
-14.3486

> <Gold.Chemscore.ZeroCoef>
-5.4800

> <Gold.Chemscore.Hbond>
0.9883

> <Gold.Chemscore.Metal>
0.0000

> <Gold.Chemscore.Lipo>
83.0357

> <Gold.Chemscore.Internal_Hbond>
0.0000

> <Gold.Chemscore.DEClash>
0.0442

> <Gold.Chemscore.DEInternal>
4.5283

> <Gold.Chemscore.Rot>
1.6202

> <Gold.Chemscore.Internal.Correction>
   9.000000E+99

> <Gold.Chemscore.Hbonds>
donor molecule, donor type, donor heavy atom, donor atom, acceptor molecule, acceptor atom, score
      P1  H  7997  8010       L1    16  0.98

> <Gold.Chemscore.Hbond.Weighted>
-3.3010

> <Gold.Chemscore.Metal.Weighted>
-0.0000

> <Gold.Chemscore.Lipo.Weighted>
-9.7152

> <Gold.Chemscore.Internal_Hbond.Weighted>
0.0000

> <Gold.Chemscore.DEClash.Weighted>
0.0442

> <Gold.Chemscore.DEInternal.Weighted>
4.5283

> <Gold.Chemscore.Rot.Weighted>
4.1476

> <Gold.Chemscore.Internal.Correction.Weighted>
   9.000000E+99

> <Gold.Protein.RotatedTorsions>
[ 6907 6896 6895 6894 ] final  -89.70 input  -60.11 | X-H torsion
[ 7974 7965 7964 7962 ] final  123.31 input  175.53 | X-H torsion
[ 8008 7997 7996 7995 ] final   13.38 input   59.86 | X-H torsion
[ 10167 10162 10161 10158 ] final  124.04 input  -65.29 | X-H torsion
[ 10718 10713 10712 10709 ] final -103.88 input   66.30 | X-H torsion
[ 10763 10752 10751 10750 ] final -179.76 input  -60.55 | X-H torsion
[ 11005 11000 10999 10996 ] final -139.27 input  -57.11 | X-H torsion

> <Gold.Protein.ActiveResidues>
 VAL166  LYS551  ARG553  GLY616  TRP617  ASP618  TYR619  PRO620  LYS621  CYS622 
 ASP623  PHE694  ASN695  SER759  ASP760  ASP761  ALA762  ILE779  LEU786  VAL792 
 PHE793  MET794  SER795  GLU796  ALA797  LYS798  CYS799  TRP800  GLU811  SER814 

> <Gold.Protein.RotatedAtoms>
  150.6876  134.2546  159.4524 H   0  0  0  0  0  0  0  0  0  0  0  0  # atno 6907 bound_to 6896
  152.0480  134.9668  160.0584 H   0  0  0  0  0  0  0  0  0  0  0  0  # atno 6908 bound_to 6896
  152.1144  133.4283  159.4683 H   0  0  0  0  0  0  0  0  0  0  0  0  # atno 6909 bound_to 6896
  145.0974  139.3543  143.4829 H   0  0  0  0  0  0  0  0  0  0  0  0  # atno 7974 bound_to 7965
  154.8337  140.2903  155.5705 H   0  0  0  0  0  0  0  0  0  0  0  0  # atno 8008 bound_to 7997
  156.3007  140.2527  156.3198 H   0  0  0  0  0  0  0  0  0  0  0  0  # atno 8009 bound_to 7997
  154.9203  140.0386  157.1983 H   0  0  0  0  0  0  0  0  0  0  0  0  # atno 8010 bound_to 7997
  139.5765  144.6965  151.3641 H   0  0  0  0  0  0  0  0  0  0  0  0  # atno 10167 bound_to 10162
  156.0282  130.5488  150.7317 H   0  0  0  0  0  0  0  0  0  0  0  0  # atno 10718 bound_to 10713
  154.5310  135.2800  155.1180 H   0  0  0  0  0  0  0  0  0  0  0  0  # atno 10763 bound_to 10752
  154.2700  135.6305  153.5310 H   0  0  0  0  0  0  0  0  0  0  0  0  # atno 10764 bound_to 10752
  152.9957  135.5626  154.5823 H   0  0  0  0  0  0  0  0  0  0  0  0  # atno 10765 bound_to 10752
  140.8536  134.2255  157.4747 H   0  0  0  0  0  0  0  0  0  0  0  0  # atno 11005 bound_to 11000
  146.3530  140.0835  142.8616 LP  0  0  0  0  0  0  0  0  0  0  0  0  # atno 17320 bound_to 7965
  145.0995  140.9337  143.4721 LP  0  0  0  0  0  0  0  0  0  0  0  0  # atno 17321 bound_to 7965
  140.7047  143.7544  150.7461 LP  0  0  0  0  0  0  0  0  0  0  0  0  # atno 17342 bound_to 10162
  140.1065  143.4739  152.2395 LP  0  0  0  0  0  0  0  0  0  0  0  0  # atno 17343 bound_to 10162
  157.4907  131.0910  151.0429 LP  0  0  0  0  0  0  0  0  0  0  0  0  # atno 17370 bound_to 10713
  157.0837  130.5913  149.5425 LP  0  0  0  0  0  0  0  0  0  0  0  0  # atno 17371 bound_to 10713
  139.8704  134.9695  156.4669 LP  0  0  0  0  0  0  0  0  0  0  0  0  # atno 17394 bound_to 11000
  140.8762  133.7951  155.9417 LP  0  0  0  0  0  0  0  0  0  0  0  0  # atno 17395 bound_to 11000

$$$$
