AV-unprocessed.smi:2337|AV-procd|sdf|9333|dock6
  -GOLD-   2272012553D 1   1.00000     0.00000
 Structure written by MMmdl.
 45 46  0  0  0  0  0  0  0  0  1 V2000
  146.5970  130.3902  152.5103 C   0  0  0  0  0  0  0  0  0  0  0  0
  145.3006  130.6606  151.9932 O   0  0  0  0  0  0  0  0  0  0  0  0
  145.1174  131.9504  151.4082 C   0  0  0  0  0  0  0  0  0  0  0  0
  145.6650  133.0687  152.3058 C   0  0  0  0  0  0  0  0  0  0  0  0
  145.1714  132.9236  153.6687 N   0  0  0  0  0  0  0  0  0  0  0  0
  145.8832  133.2032  154.7678 C   0  0  0  0  0  0  0  0  0  0  0  0
  147.0445  133.6116  154.7370 O   0  0  0  0  0  0  0  0  0  0  0  0
  145.1638  132.9844  155.8819 N   0  0  0  0  0  0  0  0  0  0  0  0
  145.5743  133.1374  157.2322 C   0  0  0  0  0  0  0  0  0  0  0  0
  144.5647  132.9452  158.1965 C   0  0  0  0  0  0  0  0  0  0  0  0
  144.9005  133.0768  159.5542 C   0  0  0  0  0  0  0  0  0  0  0  0
  146.2403  133.3942  159.8730 C   0  0  0  0  0  0  0  0  0  0  0  0
  146.7463  133.5598  161.3173 C   0  0  0  0  0  0  0  0  0  0  0  0
  147.3298  134.9754  161.5075 C   0  0  0  0  0  0  0  0  0  0  0  0
  147.8301  132.5025  161.6127 C   0  0  0  0  0  0  0  0  0  0  0  0
  145.6216  133.3779  162.3616 C   0  0  0  0  0  0  0  0  0  0  0  0
  147.1679  133.5657  158.8996 N   0  0  0  0  0  0  0  0  0  0  0  0
  146.8414  133.4412  157.6098 N   0  0  0  0  0  0  0  0  0  0  0  0
  145.6216  131.8897  149.9538 C   0  0  0  0  0  0  0  0  0  0  0  0
  144.3459  132.6152  149.5216 C   0  0  0  0  0  0  0  0  0  0  0  0
  143.7036  132.1022  150.8115 C   0  0  0  0  0  0  0  0  0  0  0  0
  146.5858  129.4241  153.0145 H   0  0  0  0  0  0  0  0  0  0  0  0
  146.9105  131.1388  153.2380 H   0  0  0  0  0  0  0  0  0  0  0  0
  147.3450  130.3343  151.7200 H   0  0  0  0  0  0  0  0  0  0  0  0
  146.7557  133.0392  152.3169 H   0  0  0  0  0  0  0  0  0  0  0  0
  145.3959  134.0537  151.9242 H   0  0  0  0  0  0  0  0  0  0  0  0
  144.2226  132.5955  153.7767 H   0  0  0  0  0  0  0  0  0  0  0  0
  144.2154  132.6663  155.7489 H   0  0  0  0  0  0  0  0  0  0  0  0
  143.5530  132.7017  157.9061 H   0  0  0  0  0  0  0  0  0  0  0  0
  144.1390  132.9322  160.3045 H   0  0  0  0  0  0  0  0  0  0  0  0
  147.6804  135.1270  162.5290 H   0  0  0  0  0  0  0  0  0  0  0  0
  146.5826  135.7421  161.2990 H   0  0  0  0  0  0  0  0  0  0  0  0
  148.1791  135.1567  160.8477 H   0  0  0  0  0  0  0  0  0  0  0  0
  148.6940  132.6138  160.9564 H   0  0  0  0  0  0  0  0  0  0  0  0
  147.4430  131.4919  161.4773 H   0  0  0  0  0  0  0  0  0  0  0  0
  148.1941  132.5810  162.6376 H   0  0  0  0  0  0  0  0  0  0  0  0
  146.0011  133.5007  163.3768 H   0  0  0  0  0  0  0  0  0  0  0  0
  145.1775  132.3831  162.3073 H   0  0  0  0  0  0  0  0  0  0  0  0
  144.8253  134.1114  162.2286 H   0  0  0  0  0  0  0  0  0  0  0  0
  146.5411  132.4433  149.7607 H   0  0  0  0  0  0  0  0  0  0  0  0
  145.6779  130.8737  149.5589 H   0  0  0  0  0  0  0  0  0  0  0  0
  144.4587  133.7004  149.5055 H   0  0  0  0  0  0  0  0  0  0  0  0
  143.8936  132.2391  148.6036 H   0  0  0  0  0  0  0  0  0  0  0  0
  143.1891  131.1504  150.6669 H   0  0  0  0  0  0  0  0  0  0  0  0
  143.0677  132.8279  151.3195 H   0  0  0  0  0  0  0  0  0  0  0  0
  1  2  1  0  0  0  0
  1 22  1  0  0  0  0
  1 23  1  0  0  0  0
  1 24  1  0  0  0  0
  2  3  1  0  0  0  0
  3 21  1  0  0  0  0
  3  4  1  0  0  0  0
  3 19  1  0  0  0  0
  4  5  1  0  0  0  0
  4 25  1  0  0  0  0
  4 26  1  0  0  0  0
  5  6  1  0  0  0  0
  5 27  1  0  0  0  0
  6  7  2  0  0  0  0
  6  8  1  0  0  0  0
  8  9  1  0  0  0  0
  8 28  1  0  0  0  0
  9 18  1  0  0  0  0
  9 10  2  0  0  0  0
 10 11  1  0  0  0  0
 10 29  1  0  0  0  0
 11 12  2  0  0  0  0
 11 30  1  0  0  0  0
 12 13  1  0  0  0  0
 12 17  1  0  0  0  0
 13 14  1  0  0  0  0
 13 15  1  0  0  0  0
 13 16  1  0  0  0  0
 14 31  1  0  0  0  0
 14 32  1  0  0  0  0
 14 33  1  0  0  0  0
 15 34  1  0  0  0  0
 15 35  1  0  0  0  0
 15 36  1  0  0  0  0
 16 37  1  0  0  0  0
 16 38  1  0  0  0  0
 16 39  1  0  0  0  0
 17 18  2  0  0  0  0
 19 20  1  0  0  0  0
 19 40  1  0  0  0  0
 19 41  1  0  0  0  0
 20 21  1  0  0  0  0
 20 42  1  0  0  0  0
 20 43  1  0  0  0  0
 21 44  1  0  0  0  0
 21 45  1  0  0  0  0
M  END
> <s_m_source_file>
AV-unprocessed.smi

> <i_m_source_file_index>
2337

> <i_lp_mmshare_version>
43012

> <i_f3d_flags>
0

> <s_epik_input>
W0NIMl0xW0NIMl1bQ0gyXUMxKE9bQ0gzXSlbQ0gyXVtOSF1DKD1PKVtOSF1jMltjSF1bY0hdYyhubjIpQyhbQ0gzXSkoW0NIM10pW0NIM10=

> <s_epik_cmdline>
J2VwaWtfcHl0aG9uJywgJy1waCcsICc3LjAnLCAnLXRuJywgJzgnLCAnLW1hJywgJzIwMCcsICctbWV0YWxfYmluZGluZycsICctaW1hZScsICc8aW5maWxlLm1hZT4nLCAnLW9tYWUnLCAnPG91dGZpbGUubWFlPic=

> <r_lp_tautomer_probability>
1

> <r_epik_Ionization_Penalty>
0.00977348

> <r_epik_Ionization_Penalty_Charging>
0

> <r_epik_Ionization_Penalty_Neutral>
0.00977348

> <r_epik_State_Penalty>
-0

> <r_epik_Charging_Adjusted_Penalty>
0

> <i_epik_Tot_Q>
0

> <i_epik_Tot_abs_Q>
0

> <r_epik_Metal_State_Penalty>
-0

> <b_epik_Metal_Only>
0

> <s_lp_Force_Field>
OPLS_2005

> <r_lp_Energy>
23.2497

> <b_lp_Chiralities_Consistent>
1

> <s_lp_Variant>
AV-unprocessed.smi:2337-1

> <Gold.Version>
5.8.1

> <Gold.Id.Protein>
6NUR|6NUR_protein|mol2

> <Gold.PLP.Fitness>
35.6840

> <Gold.PLP.PLP>
-30.3896

> <Gold.PLP.part.hbond>
-2.0000

> <Gold.PLP.part.metal>
0.0000

> <Gold.PLP.part.buried>
-5.3751

> <Gold.PLP.part.nonpolar>
-23.6487

> <Gold.PLP.part.repulsive>
0.2228

> <Gold.PLP.ligand.clash>
0.0000

> <Gold.PLP.ligand.torsion>
0.4927

> <Gold.PLP.Chemscore.Hbond>
2.0000

> <Gold.PLP.Chemscore.CHOScore>
0.0000

> <Gold.PLP.Chemscore.Metal>
0.0000

> <Gold.Chemscore.Hbonds>
donor molecule, donor type, donor heavy atom, donor atom, acceptor molecule, acceptor atom, score
      L1  H     5    27       P1 10957  1.00
      L1  H     8    28       P1 10957  1.00

> <Gold.PLP.Chemscore.Internal.Correction>
0.2798

> <Gold.Rescore>
     Score         DG    S(hbond)    S(metal)    S(lipo)     H(rot)  DE(clash)    DE(int)     intcor
     15.37     -17.05       1.74        0.00      83.49       1.56       0.01       1.67       ----

> <Gold.Chemscore.Fitness>
15.3693

> <Gold.Chemscore.DG>
-17.0508

> <Gold.Chemscore.ZeroCoef>
-5.4800

> <Gold.Chemscore.Hbond>
1.7351

> <Gold.Chemscore.Metal>
0.0000

> <Gold.Chemscore.Lipo>
83.4940

> <Gold.Chemscore.Internal_Hbond>
0.0000

> <Gold.Chemscore.DEClash>
0.0127

> <Gold.Chemscore.DEInternal>
1.6689

> <Gold.Chemscore.Rot>
1.5599

> <Gold.Chemscore.Internal.Correction>
   9.000000E+99

> <Gold.Chemscore.Hbonds>
donor molecule, donor type, donor heavy atom, donor atom, acceptor molecule, acceptor atom, score
      L1  H     5    27       P1 10957  0.51
      L1  H     8    28       P1 10957  0.94

> <Gold.Chemscore.Hbond.Weighted>
-5.7954

> <Gold.Chemscore.Metal.Weighted>
-0.0000

> <Gold.Chemscore.Lipo.Weighted>
-9.7688

> <Gold.Chemscore.Internal_Hbond.Weighted>
0.0000

> <Gold.Chemscore.DEClash.Weighted>
0.0127

> <Gold.Chemscore.DEInternal.Weighted>
1.6689

> <Gold.Chemscore.Rot.Weighted>
3.9933

> <Gold.Chemscore.Internal.Correction.Weighted>
   9.000000E+99

> <Gold.Protein.RotatedTorsions>
[ 6907 6896 6895 6894 ] final   -9.55 input  -60.11 | X-H torsion
[ 7974 7965 7964 7962 ] final   62.35 input  175.53 | X-H torsion
[ 8008 7997 7996 7995 ] final  -94.04 input   59.86 | X-H torsion
[ 10167 10162 10161 10158 ] final  -96.97 input  -65.29 | X-H torsion
[ 10718 10713 10712 10709 ] final  101.42 input   66.30 | X-H torsion
[ 10763 10752 10751 10750 ] final -130.89 input  -60.55 | X-H torsion
[ 11005 11000 10999 10996 ] final  -78.89 input  -57.11 | X-H torsion

> <Gold.Protein.ActiveResidues>
 VAL166  LYS551  ARG553  GLY616  TRP617  ASP618  TYR619  PRO620  LYS621  CYS622 
 ASP623  PHE694  ASN695  SER759  ASP760  ASP761  ALA762  ILE779  LEU786  VAL792 
 PHE793  MET794  SER795  GLU796  ALA797  LYS798  CYS799  TRP800  GLU811  SER814 

> <Gold.Protein.RotatedAtoms>
  151.4160  135.0991  159.9599 H   0  0  0  0  0  0  0  0  0  0  0  0  # atno 6907 bound_to 6896
  152.5004  133.8753  159.7329 H   0  0  0  0  0  0  0  0  0  0  0  0  # atno 6908 bound_to 6896
  150.9258  133.6768  159.2850 H   0  0  0  0  0  0  0  0  0  0  0  0  # atno 6909 bound_to 6896
  145.8743  139.3399  143.0744 H   0  0  0  0  0  0  0  0  0  0  0  0  # atno 7974 bound_to 7965
  154.7434  140.0493  157.0830 H   0  0  0  0  0  0  0  0  0  0  0  0  # atno 8008 bound_to 7997
  155.0150  140.3140  155.4796 H   0  0  0  0  0  0  0  0  0  0  0  0  # atno 8009 bound_to 7997
  156.2869  140.2177  156.5265 H   0  0  0  0  0  0  0  0  0  0  0  0  # atno 8010 bound_to 7997
  140.2882  143.3238  152.0372 H   0  0  0  0  0  0  0  0  0  0  0  0  # atno 10167 bound_to 10162
  157.6829  131.0726  150.5250 H   0  0  0  0  0  0  0  0  0  0  0  0  # atno 10718 bound_to 10713
  154.8753  135.3848  154.4157 H   0  0  0  0  0  0  0  0  0  0  0  0  # atno 10763 bound_to 10752
  153.4866  135.7030  153.5913 H   0  0  0  0  0  0  0  0  0  0  0  0  # atno 10764 bound_to 10752
  153.4305  135.3880  155.2134 H   0  0  0  0  0  0  0  0  0  0  0  0  # atno 10765 bound_to 10752
  141.1666  133.7082  156.8040 H   0  0  0  0  0  0  0  0  0  0  0  0  # atno 11005 bound_to 11000
  145.9100  140.9186  143.0459 LP  0  0  0  0  0  0  0  0  0  0  0  0  # atno 17320 bound_to 7965
  144.6726  140.1147  143.7453 LP  0  0  0  0  0  0  0  0  0  0  0  0  # atno 17321 bound_to 7965
  139.4944  144.6543  151.6606 LP  0  0  0  0  0  0  0  0  0  0  0  0  # atno 17342 bound_to 10162
  140.5754  144.0037  150.6239 LP  0  0  0  0  0  0  0  0  0  0  0  0  # atno 17343 bound_to 10162
  156.5562  130.4244  149.6084 LP  0  0  0  0  0  0  0  0  0  0  0  0  # atno 17370 bound_to 10713
  156.2860  130.7097  151.1934 LP  0  0  0  0  0  0  0  0  0  0  0  0  # atno 17371 bound_to 10713
  140.2236  134.8739  157.3403 LP  0  0  0  0  0  0  0  0  0  0  0  0  # atno 17394 bound_to 11000
  140.1963  134.4310  155.7687 LP  0  0  0  0  0  0  0  0  0  0  0  0  # atno 17395 bound_to 11000

$$$$
