AV-unprocessed.smi:1753|AV-procd|sdf|7063|dock6
  -GOLD-   22720 8283D 1   1.00000     0.00000
 Structure written by MMmdl.
 37 38  0  0  0  0  0  0  0  0  1 V2000
  144.2217  131.7655  150.7581 C   0  0  0  0  0  0  0  0  0  0  0  0
  145.4416  132.1250  151.5540 C   0  0  0  0  0  0  0  0  0  0  0  0
  145.9911  133.4201  151.7809 C   0  0  0  0  0  0  0  0  0  0  0  0
  147.0815  133.1530  152.5633 C   0  0  0  0  0  0  0  0  0  0  0  0
  147.9890  134.0210  153.0850 N   0  0  0  0  0  0  0  0  0  0  0  0
  148.5514  134.0192  154.3064 C   0  0  0  0  0  0  0  0  0  0  0  0
  148.3396  133.1879  155.1894 O   0  0  0  0  0  0  0  0  0  0  0  0
  149.3943  135.0523  154.4500 N   0  0  0  0  0  0  0  0  0  0  0  0
  150.1725  135.3536  155.6481 C   0  0  0  0  0  0  0  0  0  0  0  0
  150.4115  136.8666  155.8139 C   0  0  1  0  0  0  0  0  0  0  0  0
  151.2818  137.1891  157.0440 C   0  0  0  0  0  0  0  0  0  0  0  0
  151.6793  138.6674  156.9887 C   0  0  0  0  0  0  0  0  0  0  0  0
  151.8813  139.0549  155.2109 S   0  0  0  0  0  0  0  0  0  0  0  0
  151.0536  140.2242  154.8789 O   0  0  0  0  0  0  0  0  0  0  0  0
  153.3085  139.0118  154.8586 O   0  0  0  0  0  0  0  0  0  0  0  0
  151.0695  137.5320  154.5922 C   0  0  0  0  0  0  0  0  0  0  0  0
  147.1561  131.7920  152.7715 N   0  0  0  0  0  0  0  0  0  0  0  0
  148.1182  131.0102  153.5242 C   0  0  0  0  0  0  0  0  0  0  0  0
  146.1381  131.1622  152.1469 N   0  0  0  0  0  0  0  0  0  0  0  0
  143.8529  132.6225  150.1941 H   0  0  0  0  0  0  0  0  0  0  0  0
  143.4163  131.4253  151.4092 H   0  0  0  0  0  0  0  0  0  0  0  0
  144.4358  130.9680  150.0460 H   0  0  0  0  0  0  0  0  0  0  0  0
  145.6292  134.3711  151.4203 H   0  0  0  0  0  0  0  0  0  0  0  0
  148.2726  134.7669  152.4672 H   0  0  0  0  0  0  0  0  0  0  0  0
  149.5060  135.6831  153.6696 H   0  0  0  0  0  0  0  0  0  0  0  0
  149.6134  134.9771  156.5052 H   0  0  0  0  0  0  0  0  0  0  0  0
  151.1212  134.8139  155.6456 H   0  0  0  0  0  0  0  0  0  0  0  0
  149.4467  137.3518  155.9701 H   0  0  0  0  0  0  0  0  0  0  0  0
  150.7694  136.9505  157.9765 H   0  0  0  0  0  0  0  0  0  0  0  0
  152.1865  136.5801  157.0129 H   0  0  0  0  0  0  0  0  0  0  0  0
  150.8821  139.2977  157.3833 H   0  0  0  0  0  0  0  0  0  0  0  0
  152.5992  138.8851  157.5314 H   0  0  0  0  0  0  0  0  0  0  0  0
  151.8444  136.8931  154.1674 H   0  0  0  0  0  0  0  0  0  0  0  0
  150.3566  137.7798  153.8057 H   0  0  0  0  0  0  0  0  0  0  0  0
  148.9166  131.6453  153.9078 H   0  0  0  0  0  0  0  0  0  0  0  0
  148.5566  130.2470  152.8802 H   0  0  0  0  0  0  0  0  0  0  0  0
  147.6196  130.5249  154.3636 H   0  0  0  0  0  0  0  0  0  0  0  0
  1  2  1  0  0  0  0
  1 20  1  0  0  0  0
  1 21  1  0  0  0  0
  1 22  1  0  0  0  0
  2 19  2  0  0  0  0
  2  3  1  0  0  0  0
  3  4  2  0  0  0  0
  3 23  1  0  0  0  0
  4  5  1  0  0  0  0
  4 17  1  0  0  0  0
  5  6  1  0  0  0  0
  5 24  1  0  0  0  0
  6  7  2  0  0  0  0
  6  8  1  0  0  0  0
  8  9  1  0  0  0  0
  8 25  1  0  0  0  0
  9 10  1  0  0  0  0
  9 26  1  0  0  0  0
  9 27  1  0  0  0  0
 10 16  1  0  0  0  0
 10 11  1  0  0  0  0
 10 28  1  0  0  0  0
 11 12  1  0  0  0  0
 11 29  1  0  0  0  0
 11 30  1  0  0  0  0
 12 13  1  0  0  0  0
 12 31  1  0  0  0  0
 12 32  1  0  0  0  0
 13 14  2  0  0  0  0
 13 15  2  0  0  0  0
 13 16  1  0  0  0  0
 16 33  1  0  0  0  0
 16 34  1  0  0  0  0
 17 18  1  0  0  0  0
 17 19  1  0  0  0  0
 18 35  1  0  0  0  0
 18 36  1  0  0  0  0
 18 37  1  0  0  0  0
M  END
> <s_m_source_file>
AV-unprocessed.smi

> <i_m_source_file_index>
1753

> <i_lp_mmshare_version>
43012

> <i_f3d_flags>
0

> <s_epik_input>
W0NIM11jMVtjSF1jKG4objEpW0NIM10pW05IXUMoPU8pW05IXVtDSDJdW0NAQEhdKFtDSDJdMilbQ0gyXVtDSDJdUzIoPU8pPU8=

> <s_epik_cmdline>
J2VwaWtfcHl0aG9uJywgJy1waCcsICc3LjAnLCAnLXRuJywgJzgnLCAnLW1hJywgJzIwMCcsICctbWV0YWxfYmluZGluZycsICctaW1hZScsICc8aW5maWxlLm1hZT4nLCAnLW9tYWUnLCAnPG91dGZpbGUubWFlPic=

> <r_lp_tautomer_probability>
1

> <r_epik_Ionization_Penalty>
9.06651e-05

> <r_epik_Ionization_Penalty_Charging>
0

> <r_epik_Ionization_Penalty_Neutral>
9.06651e-05

> <r_epik_State_Penalty>
-0

> <r_epik_Charging_Adjusted_Penalty>
0

> <i_epik_Tot_Q>
0

> <i_epik_Tot_abs_Q>
0

> <r_epik_Metal_State_Penalty>
-0

> <b_epik_Metal_Only>
0

> <s_lp_Force_Field>
OPLS_2005

> <r_lp_Energy>
6.63642

> <b_lp_Chiralities_Consistent>
1

> <s_lp_Variant>
AV-unprocessed.smi:1753-2

> <Gold.Version>
5.8.1

> <Gold.Id.Protein>
6NUR|6NUR_protein|mol2

> <Gold.PLP.Fitness>
41.8425

> <Gold.PLP.PLP>
-30.8924

> <Gold.PLP.part.hbond>
-3.9480

> <Gold.PLP.part.metal>
0.0000

> <Gold.PLP.part.buried>
-4.8896

> <Gold.PLP.part.nonpolar>
-22.0314

> <Gold.PLP.part.repulsive>
0.2904

> <Gold.PLP.ligand.clash>
0.0000

> <Gold.PLP.ligand.torsion>
0.5147

> <Gold.PLP.Chemscore.Hbond>
3.9920

> <Gold.PLP.Chemscore.CHOScore>
0.0000

> <Gold.PLP.Chemscore.Metal>
0.0000

> <Gold.Chemscore.Hbonds>
donor molecule, donor type, donor heavy atom, donor atom, acceptor molecule, acceptor atom, score
      L1  H     5    24       P1  7948  1.00
      L1  H     8    25       P1  7948  0.98
      P1  H  7989  7998       L1    14  1.00
      P1  H  7997  8008       L1    15  1.00

> <Gold.PLP.Chemscore.Internal.Correction>
0.0035

> <Gold.Rescore>
     Score         DG    S(hbond)    S(metal)    S(lipo)     H(rot)  DE(clash)    DE(int)     intcor
     18.46     -20.14       3.82        0.00      44.98       1.31       0.00       1.69       ----

> <Gold.Chemscore.Fitness>
18.4555

> <Gold.Chemscore.DG>
-20.1444

> <Gold.Chemscore.ZeroCoef>
-5.4800

> <Gold.Chemscore.Hbond>
3.8173

> <Gold.Chemscore.Metal>
0.0000

> <Gold.Chemscore.Lipo>
44.9846

> <Gold.Chemscore.Internal_Hbond>
0.0000

> <Gold.Chemscore.DEClash>
0.0000

> <Gold.Chemscore.DEInternal>
1.6889

> <Gold.Chemscore.Rot>
1.3080

> <Gold.Chemscore.Internal.Correction>
   9.000000E+99

> <Gold.Chemscore.Hbonds>
donor molecule, donor type, donor heavy atom, donor atom, acceptor molecule, acceptor atom, score
      L1  H     5    24       P1  7948  0.35
      L1  H     8    25       P1  7948  0.28
      P1  H  7989  7998       L1    14  0.65
      P1  H  7997  8008       L1    15  0.95

> <Gold.Chemscore.Hbond.Weighted>
-12.7497

> <Gold.Chemscore.Metal.Weighted>
-0.0000

> <Gold.Chemscore.Lipo.Weighted>
-5.2632

> <Gold.Chemscore.Internal_Hbond.Weighted>
0.0000

> <Gold.Chemscore.DEClash.Weighted>
0.0000

> <Gold.Chemscore.DEInternal.Weighted>
1.6889

> <Gold.Chemscore.Rot.Weighted>
3.3485

> <Gold.Chemscore.Internal.Correction.Weighted>
   9.000000E+99

> <Gold.Protein.RotatedTorsions>
[ 6907 6896 6895 6894 ] final   27.34 input  -60.11 | X-H torsion
[ 7974 7965 7964 7962 ] final -136.03 input  175.53 | X-H torsion
[ 8008 7997 7996 7995 ] final   -9.66 input   59.86 | X-H torsion
[ 10167 10162 10161 10158 ] final   22.10 input  -65.29 | X-H torsion
[ 10718 10713 10712 10709 ] final   24.33 input   66.30 | X-H torsion
[ 10763 10752 10751 10750 ] final   96.68 input  -60.55 | X-H torsion
[ 11005 11000 10999 10996 ] final -171.07 input  -57.11 | X-H torsion

> <Gold.Protein.ActiveResidues>
 VAL166  LYS551  ARG553  GLY616  TRP617  ASP618  TYR619  PRO620  LYS621  CYS622 
 ASP623  PHE694  ASN695  SER759  ASP760  ASP761  ALA762  ILE779  LEU786  VAL792 
 PHE793  MET794  SER795  GLU796  ALA797  LYS798  CYS799  TRP800  GLU811  SER814 

> <Gold.Protein.RotatedAtoms>
  152.0009  134.9929  160.0564 H   0  0  0  0  0  0  0  0  0  0  0  0  # atno 6907 bound_to 6896
  152.1520  133.4523  159.4826 H   0  0  0  0  0  0  0  0  0  0  0  0  # atno 6908 bound_to 6896
  150.6877  134.2095  159.4397 H   0  0  0  0  0  0  0  0  0  0  0  0  # atno 6909 bound_to 6896
  144.8962  140.6710  143.5114 H   0  0  0  0  0  0  0  0  0  0  0  0  # atno 7974 bound_to 7965
  154.5626  140.2349  155.8312 H   0  0  0  0  0  0  0  0  0  0  0  0  # atno 8008 bound_to 7997
  156.2042  140.3044  155.9550 H   0  0  0  0  0  0  0  0  0  0  0  0  # atno 8009 bound_to 7997
  155.2860  140.0424  157.3010 H   0  0  0  0  0  0  0  0  0  0  0  0  # atno 8010 bound_to 7997
  140.5375  143.9735  150.6500 H   0  0  0  0  0  0  0  0  0  0  0  0  # atno 10167 bound_to 10162
  157.1783  130.6791  149.6103 H   0  0  0  0  0  0  0  0  0  0  0  0  # atno 10718 bound_to 10713
  153.2679  135.4210  155.0958 H   0  0  0  0  0  0  0  0  0  0  0  0  # atno 10763 bound_to 10752
  154.8445  135.3465  154.6286 H   0  0  0  0  0  0  0  0  0  0  0  0  # atno 10764 bound_to 10752
  153.6706  135.7044  153.5206 H   0  0  0  0  0  0  0  0  0  0  0  0  # atno 10765 bound_to 10752
  140.5123  134.5789  157.5023 H   0  0  0  0  0  0  0  0  0  0  0  0  # atno 11005 bound_to 11000
  145.3695  139.1662  143.4339 LP  0  0  0  0  0  0  0  0  0  0  0  0  # atno 17320 bound_to 7965
  146.3083  140.3766  142.8679 LP  0  0  0  0  0  0  0  0  0  0  0  0  # atno 17321 bound_to 7965
  140.3127  143.3188  152.0863 LP  0  0  0  0  0  0  0  0  0  0  0  0  # atno 17342 bound_to 10162
  139.4976  144.6626  151.6431 LP  0  0  0  0  0  0  0  0  0  0  0  0  # atno 17343 bound_to 10162
  155.9728  130.4655  150.6257 LP  0  0  0  0  0  0  0  0  0  0  0  0  # atno 17370 bound_to 10713
  157.3977  131.0805  151.1336 LP  0  0  0  0  0  0  0  0  0  0  0  0  # atno 17371 bound_to 10713
  139.9652  134.7386  156.0154 LP  0  0  0  0  0  0  0  0  0  0  0  0  # atno 17394 bound_to 11000
  141.1379  133.6571  156.3644 LP  0  0  0  0  0  0  0  0  0  0  0  0  # atno 17395 bound_to 11000

$$$$
