AV-unprocessed.smi:1908|AV-procd|sdf|7733|dock7
  -GOLD-   22720 9473D 1   1.00000     0.00000
 Structure written by MMmdl.
 28 28  0  0  0  0  0  0  0  0  1 V2000
  152.2547  145.1601  158.9050 C   0  0  0  0  0  0  0  0  0  0  0  0
  151.8990  143.6864  159.1406 C   0  0  0  0  0  0  0  0  0  0  0  0
  153.0262  142.9386  159.8692 C   0  0  0  0  0  0  0  0  0  0  0  0
  151.6104  143.0445  157.8615 N   0  0  0  0  0  0  0  0  0  0  0  0
  151.3321  141.7428  157.6888 C   0  0  0  0  0  0  0  0  0  0  0  0
  151.3010  140.9302  158.6140 O   0  0  0  0  0  0  0  0  0  0  0  0
  151.0797  141.2894  156.2442 C   0  0  0  0  0  0  0  0  0  0  0  0
  151.1164  139.8278  156.0942 N   0  0  0  0  0  0  0  0  0  0  0  0
  150.1728  139.0333  156.7302 C   0  0  0  0  0  0  0  0  0  0  0  0
  150.1423  137.6836  156.6254 C   0  0  0  0  0  0  0  0  0  0  0  0
  151.1319  136.9832  155.8136 C   0  0  0  0  0  0  0  0  0  0  0  0
  151.1887  135.7654  155.6588 O   0  0  0  0  0  0  0  0  0  0  0  0
  152.0620  137.8174  155.1877 N   0  0  0  0  0  0  0  0  0  0  0  0
  152.0972  139.2088  155.2892 C   0  0  0  0  0  0  0  0  0  0  0  0
  152.9594  139.8508  154.6902 O   0  0  0  0  0  0  0  0  0  0  0  0
  152.7651  137.3773  154.6122 H   0  0  0  0  0  0  0  0  0  0  0  0
  152.4471  145.6717  159.8485 H   0  0  0  0  0  0  0  0  0  0  0  0
  151.4397  145.6860  158.4066 H   0  0  0  0  0  0  0  0  0  0  0  0
  153.1461  145.2607  158.2849 H   0  0  0  0  0  0  0  0  0  0  0  0
  151.0042  143.6590  159.7651 H   0  0  0  0  0  0  0  0  0  0  0  0
  153.2508  143.4074  160.8277 H   0  0  0  0  0  0  0  0  0  0  0  0
  153.9437  142.9311  159.2799 H   0  0  0  0  0  0  0  0  0  0  0  0
  152.7497  141.9026  160.0686 H   0  0  0  0  0  0  0  0  0  0  0  0
  151.6199  143.6371  157.0440 H   0  0  0  0  0  0  0  0  0  0  0  0
  150.1251  141.6818  155.8875 H   0  0  0  0  0  0  0  0  0  0  0  0
  151.8355  141.7532  155.6087 H   0  0  0  0  0  0  0  0  0  0  0  0
  149.4170  139.5099  157.3385 H   0  0  0  0  0  0  0  0  0  0  0  0
  149.3809  137.1188  157.1438 H   0  0  0  0  0  0  0  0  0  0  0  0
  1  2  1  0  0  0  0
  1 17  1  0  0  0  0
  1 18  1  0  0  0  0
  1 19  1  0  0  0  0
  2  3  1  0  0  0  0
  2  4  1  0  0  0  0
  2 20  1  0  0  0  0
  3 21  1  0  0  0  0
  3 22  1  0  0  0  0
  3 23  1  0  0  0  0
  4  5  1  0  0  0  0
  4 24  1  0  0  0  0
  5  6  2  0  0  0  0
  5  7  1  0  0  0  0
  7  8  1  0  0  0  0
  7 25  1  0  0  0  0
  7 26  1  0  0  0  0
  8 14  1  0  0  0  0
  8  9  1  0  0  0  0
  9 10  2  0  0  0  0
  9 27  1  0  0  0  0
 10 11  1  0  0  0  0
 10 28  1  0  0  0  0
 11 12  2  0  0  0  0
 11 13  1  0  0  0  0
 13 16  1  0  0  0  0
 13 14  1  0  0  0  0
 14 15  2  0  0  0  0
M  END
> <s_m_source_file>
AV-unprocessed.smi

> <i_m_source_file_index>
1908

> <i_lp_mmshare_version>
43012

> <i_f3d_flags>
0

> <s_epik_input>
W0NIM11bQ0hdKFtDSDNdKVtOSF1DKD1PKVtDSDJdbjFbY0hdW2NIXWMoPU8pW25IXWMxPU8=

> <s_epik_cmdline>
J2VwaWtfcHl0aG9uJywgJy1waCcsICc3LjAnLCAnLXRuJywgJzgnLCAnLW1hJywgJzIwMCcsICctbWV0YWxfYmluZGluZycsICctaW1hZScsICc8aW5maWxlLm1hZT4nLCAnLW9tYWUnLCAnPG91dGZpbGUubWFlPic=

> <r_lp_tautomer_probability>
0.999537

> <r_epik_Ionization_Penalty>
0.00328918

> <r_epik_Ionization_Penalty_Charging>
0.00328916

> <r_epik_Ionization_Penalty_Neutral>
2.06703e-08

> <r_epik_State_Penalty>
0.00232387

> <r_epik_Charging_Adjusted_Penalty>
0.00561303

> <i_epik_Tot_Q>
0

> <i_epik_Tot_abs_Q>
0

> <r_epik_Metal_State_Penalty>
0.365273

> <b_epik_Metal_Only>
0

> <s_lp_Force_Field>
OPLS_2005

> <r_lp_Energy>
1.74707

> <b_lp_Chiralities_Consistent>
1

> <s_lp_Variant>
AV-unprocessed.smi:1908-1

> <Gold.Version>
5.8.1

> <Gold.Id.Protein>
6NUR|6NUR_protein|mol2

> <Gold.PLP.Fitness>
34.7533

> <Gold.PLP.PLP>
-28.0498

> <Gold.PLP.part.hbond>
-3.0000

> <Gold.PLP.part.metal>
0.0000

> <Gold.PLP.part.buried>
-2.7228

> <Gold.PLP.part.nonpolar>
-21.9148

> <Gold.PLP.part.repulsive>
0.2769

> <Gold.PLP.ligand.clash>
0.0000

> <Gold.PLP.ligand.torsion>
0.2039

> <Gold.PLP.Chemscore.Hbond>
2.3680

> <Gold.PLP.Chemscore.CHOScore>
0.0000

> <Gold.PLP.Chemscore.Metal>
0.0000

> <Gold.Chemscore.Hbonds>
donor molecule, donor type, donor heavy atom, donor atom, acceptor molecule, acceptor atom, score
      P1  H  7989  7998       L1    15  0.30
      P1  H  7997  8009       L1    15  1.00
      P1  H 10752 10763       L1    12  1.00

> <Gold.PLP.Chemscore.Internal.Correction>
0.0073

> <Gold.Rescore>
     Score         DG    S(hbond)    S(metal)    S(lipo)     H(rot)  DE(clash)    DE(int)     intcor
      9.39     -11.82       1.48        0.00      50.26       1.76       0.15       2.29       ----

> <Gold.Chemscore.Fitness>
9.3872

> <Gold.Chemscore.DG>
-11.8243

> <Gold.Chemscore.ZeroCoef>
-5.4800

> <Gold.Chemscore.Hbond>
1.4849

> <Gold.Chemscore.Metal>
0.0000

> <Gold.Chemscore.Lipo>
50.2613

> <Gold.Chemscore.Internal_Hbond>
0.0000

> <Gold.Chemscore.DEClash>
0.1461

> <Gold.Chemscore.DEInternal>
2.2910

> <Gold.Chemscore.Rot>
1.7562

> <Gold.Chemscore.Internal.Correction>
   9.000000E+99

> <Gold.Chemscore.Hbonds>
donor molecule, donor type, donor heavy atom, donor atom, acceptor molecule, acceptor atom, score
      P1  H  7989  7998       L1    15  0.05
      P1  H  7997  8009       L1    15  0.59
      P1  H 10752 10763       L1    12  0.33

> <Gold.Chemscore.Hbond.Weighted>
-4.9595

> <Gold.Chemscore.Metal.Weighted>
-0.0000

> <Gold.Chemscore.Lipo.Weighted>
-5.8806

> <Gold.Chemscore.Internal_Hbond.Weighted>
0.0000

> <Gold.Chemscore.DEClash.Weighted>
0.1461

> <Gold.Chemscore.DEInternal.Weighted>
2.2910

> <Gold.Chemscore.Rot.Weighted>
4.4958

> <Gold.Chemscore.Internal.Correction.Weighted>
   9.000000E+99

> <Gold.Protein.RotatedTorsions>
[ 6907 6896 6895 6894 ] final  -36.98 input  -60.11 | X-H torsion
[ 7974 7965 7964 7962 ] final   12.50 input  175.53 | X-H torsion
[ 8008 7997 7996 7995 ] final -141.34 input   59.86 | X-H torsion
[ 10167 10162 10161 10158 ] final -145.37 input  -65.29 | X-H torsion
[ 10718 10713 10712 10709 ] final -157.09 input   66.30 | X-H torsion
[ 10763 10752 10751 10750 ] final   68.57 input  -60.55 | X-H torsion
[ 11005 11000 10999 10996 ] final  -84.30 input  -57.11 | X-H torsion

> <Gold.Protein.ActiveResidues>
 VAL166  LYS551  ARG553  GLY616  TRP617  ASP618  TYR619  PRO620  LYS621  CYS622 
 ASP623  PHE694  ASN695  SER759  ASP760  ASP761  ALA762  ILE779  LEU786  VAL792 
 PHE793  MET794  SER795  GLU796  ALA797  LYS798  CYS799  TRP800  GLU811  SER814 

> <Gold.Protein.RotatedAtoms>
  151.0204  134.9465  159.8056 H   0  0  0  0  0  0  0  0  0  0  0  0  # atno 6907 bound_to 6896
  152.5324  134.2910  159.9053 H   0  0  0  0  0  0  0  0  0  0  0  0  # atno 6908 bound_to 6896
  151.2918  133.4120  159.2667 H   0  0  0  0  0  0  0  0  0  0  0  0  # atno 6909 bound_to 6896
  146.2350  139.9327  142.8494 H   0  0  0  0  0  0  0  0  0  0  0  0  # atno 7974 bound_to 7965
  155.4763  140.0557  157.2973 H   0  0  0  0  0  0  0  0  0  0  0  0  # atno 8008 bound_to 7997
  154.4678  140.2026  156.0025 H   0  0  0  0  0  0  0  0  0  0  0  0  # atno 8009 bound_to 7997
  156.1005  140.3220  155.7939 H   0  0  0  0  0  0  0  0  0  0  0  0  # atno 8010 bound_to 7997
  139.7811  143.8099  152.2639 H   0  0  0  0  0  0  0  0  0  0  0  0  # atno 10167 bound_to 10162
  156.5355  130.8540  151.2731 H   0  0  0  0  0  0  0  0  0  0  0  0  # atno 10718 bound_to 10713
  153.0242  135.5242  154.7155 H   0  0  0  0  0  0  0  0  0  0  0  0  # atno 10763 bound_to 10752
  154.6225  135.2890  155.0312 H   0  0  0  0  0  0  0  0  0  0  0  0  # atno 10764 bound_to 10752
  154.1293  135.6595  153.4971 H   0  0  0  0  0  0  0  0  0  0  0  0  # atno 10765 bound_to 10752
  141.1651  133.7339  156.8847 H   0  0  0  0  0  0  0  0  0  0  0  0  # atno 11005 bound_to 11000
  145.2029  140.9862  143.4145 LP  0  0  0  0  0  0  0  0  0  0  0  0  # atno 17320 bound_to 7965
  144.9758  139.3833  143.6286 LP  0  0  0  0  0  0  0  0  0  0  0  0  # atno 17321 bound_to 7965
  139.8162  144.7315  150.9632 LP  0  0  0  0  0  0  0  0  0  0  0  0  # atno 17342 bound_to 10162
  140.7818  143.4203  151.0852 LP  0  0  0  0  0  0  0  0  0  0  0  0  # atno 17343 bound_to 10162
  157.7414  130.9870  150.2446 LP  0  0  0  0  0  0  0  0  0  0  0  0  # atno 17370 bound_to 10713
  156.3020  130.3760  149.7741 LP  0  0  0  0  0  0  0  0  0  0  0  0  # atno 17371 bound_to 10713
  140.1690  134.9113  157.2810 LP  0  0  0  0  0  0  0  0  0  0  0  0  # atno 17394 bound_to 11000
  140.2523  134.3668  155.7437 LP  0  0  0  0  0  0  0  0  0  0  0  0  # atno 17395 bound_to 11000

$$$$
