AV-unprocessed.smi:9|AV-procd|sdf|50|dock10
  -GOLD-   2262015163D 1   1.00000     0.00000
 Structure written by MMmdl.
 34 36  0  0  0  0  0  0  0  0  2 V2000
  152.9910  137.9372  154.3374 O   0  0  0  0  0  0  0  0  0  0  0  0
  152.8225  138.4255  155.4530 C   0  0  0  0  0  0  0  0  0  0  0  0
  153.5062  138.0666  156.5850 N   0  5  0  0  0  0  0  0  0  0  0  0
  153.2413  138.6901  157.8099 C   0  0  0  0  0  0  0  0  0  0  0  0
  154.0549  138.2100  159.0077 C   0  0  0  0  0  0  0  0  0  0  0  0
  153.7087  138.8622  160.1198 F   0  0  0  0  0  0  0  0  0  0  0  0
  153.8508  136.9083  159.2100 F   0  0  0  0  0  0  0  0  0  0  0  0
  155.3615  138.4037  158.8168 F   0  0  0  0  0  0  0  0  0  0  0  0
  152.3615  139.6194  158.0037 N   0  0  0  0  0  0  0  0  0  0  0  0
  151.6534  140.0010  156.8853 C   0  0  0  0  0  0  0  0  0  0  0  0
  151.8033  139.4941  155.6254 C   0  0  0  0  0  0  0  0  0  0  0  0
  150.9382  140.1104  154.7283 N   0  0  0  0  0  0  0  0  0  0  0  0
  150.2944  140.9762  155.5113 C   0  0  0  0  0  0  0  0  0  0  0  0
  150.6550  140.9635  156.8106 N   0  0  0  0  0  0  0  0  0  0  0  0
  150.1228  141.7909  157.8834 C   0  0  0  0  0  0  0  0  0  0  0  0
  150.8641  143.1390  158.0777 C   0  0  2  0  0  0  0  0  0  0  0  0
  150.9660  143.7502  156.8050 O   0  0  0  0  0  0  0  0  0  0  0  0
  152.2801  142.9476  158.6655 C   0  0  0  0  0  0  0  0  0  0  0  0
  152.8996  144.2787  159.1029 C   0  0  0  0  0  0  0  0  0  0  0  0
  151.9320  145.0356  160.0188 C   0  0  0  0  0  0  0  0  0  0  0  0
  150.7170  145.2677  159.3198 O   0  0  0  0  0  0  0  0  0  0  0  0
  150.0163  144.0767  158.9697 C   0  0  0  0  0  0  0  0  0  0  0  0
  149.5301  141.6369  155.1294 H   0  0  0  0  0  0  0  0  0  0  0  0
  149.0628  141.9639  157.6912 H   0  0  0  0  0  0  0  0  0  0  0  0
  150.1692  141.2075  158.8039 H   0  0  0  0  0  0  0  0  0  0  0  0
  150.1600  144.2110  156.6294 H   0  0  0  0  0  0  0  0  0  0  0  0
  152.2209  142.2909  159.5347 H   0  0  0  0  0  0  0  0  0  0  0  0
  152.9383  142.4530  157.9500 H   0  0  0  0  0  0  0  0  0  0  0  0
  153.8442  144.1006  159.6175 H   0  0  0  0  0  0  0  0  0  0  0  0
  153.1303  144.8882  158.2283 H   0  0  0  0  0  0  0  0  0  0  0  0
  151.7412  144.4795  160.9380 H   0  0  0  0  0  0  0  0  0  0  0  0
  152.3618  145.9950  160.3073 H   0  0  0  0  0  0  0  0  0  0  0  0
  149.0853  144.3474  158.4703 H   0  0  0  0  0  0  0  0  0  0  0  0
  149.7324  143.5640  159.8902 H   0  0  0  0  0  0  0  0  0  0  0  0
  1  2  2  0  0  0  0
  2 11  1  0  0  0  0
  2  3  1  0  0  0  0
  3  4  1  0  0  0  0
  4  5  1  0  0  0  0
  4  9  2  0  0  0  0
  5  6  1  0  0  0  0
  5  7  1  0  0  0  0
  5  8  1  0  0  0  0
  9 10  1  0  0  0  0
 10 14  1  0  0  0  0
 10 11  2  0  0  0  0
 11 12  1  0  0  0  0
 12 13  2  0  0  0  0
 13 14  1  0  0  0  0
 13 23  1  0  0  0  0
 14 15  1  0  0  0  0
 15 16  1  0  0  0  0
 15 24  1  0  0  0  0
 15 25  1  0  0  0  0
 16 22  1  0  0  0  0
 16 17  1  0  0  0  0
 16 18  1  0  0  0  0
 17 26  1  0  0  0  0
 18 19  1  0  0  0  0
 18 27  1  0  0  0  0
 18 28  1  0  0  0  0
 19 20  1  0  0  0  0
 19 29  1  0  0  0  0
 19 30  1  0  0  0  0
 20 21  1  0  0  0  0
 20 31  1  0  0  0  0
 20 32  1  0  0  0  0
 21 22  1  0  0  0  0
 22 33  1  0  0  0  0
 22 34  1  0  0  0  0
M  CHG  1   3  -1
M  END
> <s_m_source_file>
AV-unprocessed.smi

> <i_m_source_file_index>
9

> <i_lp_mmshare_version>
43012

> <i_f3d_flags>
0

> <s_epik_input>
RkMoRikoRiljKG4xKVtuSF1jKD1PKWMoYzEyKW5bY0hdbjJbQ0gyXVtDQEBdMyhbT0hdKVtDSDJdW0NIMl1bQ0gyXU9bQ0gyXTM=

> <s_epik_cmdline>
J2VwaWtfcHl0aG9uJywgJy1waCcsICc3LjAnLCAnLXRuJywgJzgnLCAnLW1hJywgJzIwMCcsICctbWV0YWxfYmluZGluZycsICctaW1hZScsICc8aW5maWxlLm1hZT4nLCAnLW9tYWUnLCAnPG91dGZpbGUubWFlPic=

> <r_lp_tautomer_probability>
1

> <r_epik_Ionization_Penalty>
0.188582

> <r_epik_Ionization_Penalty_Charging>
1.37005e-11

> <r_epik_Ionization_Penalty_Neutral>
0.188582

> <r_epik_State_Penalty>
0.012336

> <r_epik_Charging_Adjusted_Penalty>
0.012336

> <i_epik_Tot_Q>
-1

> <i_epik_Tot_abs_Q>
1

> <r_epik_Metal_State_Penalty>
0.0089237

> <b_epik_Metal_Only>
0

> <s_lp_Force_Field>
OPLS_2005

> <r_lp_Energy>
37.4202

> <b_lp_Chiralities_Consistent>
1

> <s_lp_Variant>
AV-unprocessed.smi:9-2

> <Gold.Version>
5.8.1

> <Gold.Id.Protein>
6NUR|6NUR_protein|mol2

> <Gold.PLP.Fitness>
44.1968

> <Gold.PLP.PLP>
-38.5472

> <Gold.PLP.part.hbond>
-3.9265

> <Gold.PLP.part.metal>
0.0000

> <Gold.PLP.part.buried>
-5.2188

> <Gold.PLP.part.nonpolar>
-29.3703

> <Gold.PLP.part.repulsive>
0.3055

> <Gold.PLP.ligand.clash>
0.0000

> <Gold.PLP.ligand.torsion>
0.4835

> <Gold.PLP.Chemscore.Hbond>
2.2033

> <Gold.PLP.Chemscore.CHOScore>
0.0000

> <Gold.PLP.Chemscore.Metal>
0.0000

> <Gold.Chemscore.Hbonds>
donor molecule, donor type, donor heavy atom, donor atom, acceptor molecule, acceptor atom, score
      L1  H    17    26       P1  8028  1.00
      P1  H  7989  7998       L1    12  1.00
      P1  H 10752 10765       L1     1  0.18

> <Gold.PLP.Chemscore.Internal.Correction>
0.0066

> <Gold.Rescore>
     Score         DG    S(hbond)    S(metal)    S(lipo)     H(rot)  DE(clash)    DE(int)     intcor
     14.59     -15.07       2.06        0.00      69.65       2.12       0.05       0.44       ----

> <Gold.Chemscore.Fitness>
14.5855

> <Gold.Chemscore.DG>
-15.0743

> <Gold.Chemscore.ZeroCoef>
-5.4800

> <Gold.Chemscore.Hbond>
2.0606

> <Gold.Chemscore.Metal>
0.0000

> <Gold.Chemscore.Lipo>
69.6500

> <Gold.Chemscore.Internal_Hbond>
0.0000

> <Gold.Chemscore.DEClash>
0.0464

> <Gold.Chemscore.DEInternal>
0.4424

> <Gold.Chemscore.Rot>
2.1239

> <Gold.Chemscore.Internal.Correction>
   9.000000E+99

> <Gold.Chemscore.Hbonds>
donor molecule, donor type, donor heavy atom, donor atom, acceptor molecule, acceptor atom, score
      L1  H    17    26       P1  8028  0.97
      P1  H  7989  7998       L1    12  0.72
      P1  H 10752 10765       L1     1  0.17

> <Gold.Chemscore.Hbond.Weighted>
-6.8825

> <Gold.Chemscore.Metal.Weighted>
-0.0000

> <Gold.Chemscore.Lipo.Weighted>
-8.1491

> <Gold.Chemscore.Internal_Hbond.Weighted>
0.0000

> <Gold.Chemscore.DEClash.Weighted>
0.0464

> <Gold.Chemscore.DEInternal.Weighted>
0.4424

> <Gold.Chemscore.Rot.Weighted>
5.4373

> <Gold.Chemscore.Internal.Correction.Weighted>
   9.000000E+99

> <Gold.Protein.RotatedTorsions>
[ 6907 6896 6895 6894 ] final  108.75 input  -60.11 | X-H torsion
[ 7974 7965 7964 7962 ] final   42.87 input  175.53 | X-H torsion
[ 8008 7997 7996 7995 ] final   -1.26 input   59.86 | X-H torsion
[ 10167 10162 10161 10158 ] final -155.81 input  -65.29 | X-H torsion
[ 10718 10713 10712 10709 ] final -152.05 input   66.30 | X-H torsion
[ 10763 10752 10751 10750 ] final  155.72 input  -60.55 | X-H torsion
[ 11005 11000 10999 10996 ] final -115.55 input  -57.11 | X-H torsion

> <Gold.Protein.ActiveResidues>
 VAL166  LYS551  ARG553  GLY616  TRP617  ASP618  TYR619  PRO620  LYS621  CYS622 
 ASP623  PHE694  ASN695  SER759  ASP760  ASP761  ALA762  ILE779  LEU786  VAL792 
 PHE793  MET794  SER795  GLU796  ALA797  LYS798  CYS799  TRP800  GLU811  SER814 

> <Gold.Protein.RotatedAtoms>
  152.5098  133.9043  159.7456 H   0  0  0  0  0  0  0  0  0  0  0  0  # atno 6907 bound_to 6896
  150.9451  133.6603  159.2789 H   0  0  0  0  0  0  0  0  0  0  0  0  # atno 6908 bound_to 6896
  151.3901  135.0959  159.9576 H   0  0  0  0  0  0  0  0  0  0  0  0  # atno 6909 bound_to 6896
  146.0704  139.5251  142.9601 H   0  0  0  0  0  0  0  0  0  0  0  0  # atno 7974 bound_to 7965
  154.6488  140.2564  155.7238 H   0  0  0  0  0  0  0  0  0  0  0  0  # atno 8008 bound_to 7997
  156.2565  140.2872  156.0833 H   0  0  0  0  0  0  0  0  0  0  0  0  # atno 8009 bound_to 7997
  155.1483  140.0381  157.2805 H   0  0  0  0  0  0  0  0  0  0  0  0  # atno 8010 bound_to 7997
  139.6901  143.9435  152.2380 H   0  0  0  0  0  0  0  0  0  0  0  0  # atno 10167 bound_to 10162
  156.4673  130.8242  151.2472 H   0  0  0  0  0  0  0  0  0  0  0  0  # atno 10718 bound_to 10713
  154.1728  135.2803  155.3076 H   0  0  0  0  0  0  0  0  0  0  0  0  # atno 10763 bound_to 10752
  154.6062  135.5513  153.7429 H   0  0  0  0  0  0  0  0  0  0  0  0  # atno 10764 bound_to 10752
  153.0160  135.6404  154.1868 H   0  0  0  0  0  0  0  0  0  0  0  0  # atno 10765 bound_to 10752
  141.0480  133.9731  157.2884 H   0  0  0  0  0  0  0  0  0  0  0  0  # atno 11005 bound_to 11000
  145.6401  141.0286  143.1816 LP  0  0  0  0  0  0  0  0  0  0  0  0  # atno 17320 bound_to 7965
  144.7228  139.7973  143.7376 LP  0  0  0  0  0  0  0  0  0  0  0  0  # atno 17321 bound_to 7965
  139.9249  144.6777  150.8423 LP  0  0  0  0  0  0  0  0  0  0  0  0  # atno 17342 bound_to 10162
  140.7680  143.3349  151.2331 LP  0  0  0  0  0  0  0  0  0  0  0  0  # atno 17343 bound_to 10162
  157.7494  131.0087  150.3241 LP  0  0  0  0  0  0  0  0  0  0  0  0  # atno 17370 bound_to 10713
  156.3654  130.3854  149.7217 LP  0  0  0  0  0  0  0  0  0  0  0  0  # atno 17371 bound_to 10713
  139.9327  135.0199  156.8455 LP  0  0  0  0  0  0  0  0  0  0  0  0  # atno 17394 bound_to 11000
  140.6109  134.0083  155.7576 LP  0  0  0  0  0  0  0  0  0  0  0  0  # atno 17395 bound_to 11000

$$$$
