AV-unprocessed.smi:196|AV-procd|sdf|1530|dock3
  -GOLD-   2262019383D 1   1.00000     0.00000
 Structure written by MMmdl.
 47 50  0  0  0  0  0  0  0  0  1 V2000
  149.0556  140.4953  154.4059 C   0  0  0  0  0  0  0  0  0  0  0  0
  150.1415  139.6627  155.1071 C   0  0  2  0  0  0  0  0  0  0  0  0
  151.4020  140.3115  155.0170 O   0  0  0  0  0  0  0  0  0  0  0  0
  152.3924  139.3379  155.2925 C   0  0  0  0  0  0  0  0  0  0  0  0
  151.9114  138.1379  154.4869 C   0  0  0  0  0  0  0  0  0  0  0  0
  150.3847  138.2259  154.5719 C   0  0  2  0  0  0  0  0  0  0  0  0
  149.8597  138.0553  153.2657 O   0  0  0  0  0  0  0  0  0  0  0  0
  149.7902  137.1255  155.4867 C   0  0  0  0  0  0  0  0  0  0  0  0
  148.5470  136.5593  154.9846 N   0  0  0  0  0  0  0  0  0  0  0  0
  147.3572  137.2230  154.7883 C   0  0  0  0  0  0  0  0  0  0  0  0
  146.3861  136.4941  154.3113 N   0  0  0  0  0  0  0  0  0  0  0  0
  146.9392  135.2243  154.1874 C   0  0  0  0  0  0  0  0  0  0  0  0
  146.4491  133.9657  153.7317 C   0  0  0  0  0  0  0  0  0  0  0  0
  145.1777  133.7765  153.2844 N   0  0  0  0  0  0  0  0  0  0  0  0
  144.9487  132.7914  152.2323 C   0  0  0  0  0  0  0  0  0  0  0  0
  143.8551  133.3797  151.3416 C   0  0  2  0  0  0  0  0  0  0  0  0
  144.4149  134.0917  150.3620 F   0  0  0  0  0  0  0  0  0  0  0  0
  143.1026  134.3133  152.2831 C   0  0  0  0  0  0  0  0  0  0  0  0
  144.2005  134.8716  153.2033 C   0  0  1  0  0  0  0  0  0  0  0  0
  143.6087  135.3216  154.5542 C   0  0  0  0  0  0  0  0  0  0  0  0
  142.9885  134.4186  155.3212 N   0  0  0  0  0  0  0  0  0  0  0  0
  143.7178  136.4949  154.9039 O   0  0  0  0  0  0  0  0  0  0  0  0
  147.3198  132.9216  153.7395 N   0  0  0  0  0  0  0  0  0  0  0  0
  148.5729  133.0848  154.1725 C   0  0  0  0  0  0  0  0  0  0  0  0
  149.1598  134.1925  154.6277 N   0  0  0  0  0  0  0  0  0  0  0  0
  148.2989  135.2497  154.6109 C   0  0  0  0  0  0  0  0  0  0  0  0
  143.2212  132.6234  150.8782 H   0  0  0  0  0  0  0  0  0  0  0  0
  144.6610  135.7317  152.7140 H   0  0  0  0  0  0  0  0  0  0  0  0
  148.0861  139.9992  154.4555 H   0  0  0  0  0  0  0  0  0  0  0  0
  149.2953  140.6648  153.3558 H   0  0  0  0  0  0  0  0  0  0  0  0
  148.9518  141.4717  154.8793 H   0  0  0  0  0  0  0  0  0  0  0  0
  149.9073  139.6162  156.1714 H   0  0  0  0  0  0  0  0  0  0  0  0
  153.3855  139.6753  154.9956 H   0  0  0  0  0  0  0  0  0  0  0  0
  152.4061  139.1149  156.3606 H   0  0  0  0  0  0  0  0  0  0  0  0
  152.2532  138.2517  153.4565 H   0  0  0  0  0  0  0  0  0  0  0  0
  152.3166  137.1972  154.8613 H   0  0  0  0  0  0  0  0  0  0  0  0
  150.1413  138.7813  152.7305 H   0  0  0  0  0  0  0  0  0  0  0  0
  150.5069  136.3137  155.6195 H   0  0  0  0  0  0  0  0  0  0  0  0
  149.6010  137.5285  156.4827 H   0  0  0  0  0  0  0  0  0  0  0  0
  147.2320  138.2745  155.0013 H   0  0  0  0  0  0  0  0  0  0  0  0
  145.8454  132.5642  151.6530 H   0  0  0  0  0  0  0  0  0  0  0  0
  144.6036  131.8669  152.6966 H   0  0  0  0  0  0  0  0  0  0  0  0
  142.5589  135.0957  151.7524 H   0  0  0  0  0  0  0  0  0  0  0  0
  142.3752  133.7339  152.8549 H   0  0  0  0  0  0  0  0  0  0  0  0
  142.5901  134.6988  156.2054 H   0  0  0  0  0  0  0  0  0  0  0  0
  142.9155  133.4612  155.0098 H   0  0  0  0  0  0  0  0  0  0  0  0
  149.1937  132.2013  154.1497 H   0  0  0  0  0  0  0  0  0  0  0  0
  1  2  1  0  0  0  0
  1 29  1  0  0  0  0
  1 30  1  0  0  0  0
  1 31  1  0  0  0  0
  2  6  1  0  0  0  0
  2  3  1  0  0  0  0
  2 32  1  0  0  0  0
  3  4  1  0  0  0  0
  4  5  1  0  0  0  0
  4 33  1  0  0  0  0
  4 34  1  0  0  0  0
  5  6  1  0  0  0  0
  5 35  1  0  0  0  0
  5 36  1  0  0  0  0
  6  7  1  0  0  0  0
  6  8  1  0  0  0  0
  7 37  1  0  0  0  0
  8  9  1  0  0  0  0
  8 38  1  0  0  0  0
  8 39  1  0  0  0  0
  9 26  1  0  0  0  0
  9 10  1  0  0  0  0
 10 11  2  0  0  0  0
 10 40  1  0  0  0  0
 11 12  1  0  0  0  0
 12 26  2  0  0  0  0
 12 13  1  0  0  0  0
 13 14  1  0  0  0  0
 13 23  2  0  0  0  0
 14 19  1  0  0  0  0
 14 15  1  0  0  0  0
 15 16  1  0  0  0  0
 15 41  1  0  0  0  0
 15 42  1  0  0  0  0
 16 27  1  0  0  0  0
 16 17  1  0  0  0  0
 16 18  1  0  0  0  0
 18 19  1  0  0  0  0
 18 43  1  0  0  0  0
 18 44  1  0  0  0  0
 19 28  1  0  0  0  0
 19 20  1  0  0  0  0
 20 21  1  0  0  0  0
 20 22  2  0  0  0  0
 21 45  1  0  0  0  0
 21 46  1  0  0  0  0
 23 24  1  0  0  0  0
 24 25  2  0  0  0  0
 24 47  1  0  0  0  0
 25 26  1  0  0  0  0
M  END
> <s_m_source_file>
AV-unprocessed.smi

> <i_m_source_file_index>
196

> <i_lp_mmshare_version>
43012

> <i_f3d_flags>
0

> <s_epik_input>
W0NIMl0xW0NIMl1PW0NAQEhdKFtDSDNdKVtDQEBdMShbT0hdKVtDSDJdbihbY0hdbjIpYyhjMjMpbltjSF1uYzNONFtDSDJdW0NASF0oRilbQ0gyXVtDQEhdNEMoPU8pW05IMl0=

> <s_epik_cmdline>
J2VwaWtfcHl0aG9uJywgJy1waCcsICc3LjAnLCAnLXRuJywgJzgnLCAnLW1hJywgJzIwMCcsICctbWV0YWxfYmluZGluZycsICctaW1hZScsICc8aW5maWxlLm1hZT4nLCAnLW9tYWUnLCAnPG91dGZpbGUubWFlPic=

> <r_lp_tautomer_probability>
1

> <r_epik_Ionization_Penalty>
0.000857933

> <r_epik_Ionization_Penalty_Charging>
0

> <r_epik_Ionization_Penalty_Neutral>
0.000857933

> <r_epik_State_Penalty>
0.000462053

> <r_epik_Charging_Adjusted_Penalty>
0.000462053

> <i_epik_Tot_Q>
0

> <i_epik_Tot_abs_Q>
0

> <r_epik_Metal_State_Penalty>
-0

> <b_epik_Metal_Only>
0

> <s_lp_Force_Field>
OPLS_2005

> <r_lp_Energy>
46.3924

> <b_lp_Chiralities_Consistent>
1

> <s_lp_Variant>
AV-unprocessed.smi:196-3

> <Gold.Version>
5.8.1

> <Gold.Id.Protein>
6NUR|6NUR_protein|mol2

> <Gold.PLP.Fitness>
41.9133

> <Gold.PLP.PLP>
-34.7380

> <Gold.PLP.part.hbond>
-5.6442

> <Gold.PLP.part.metal>
0.0000

> <Gold.PLP.part.buried>
-1.4803

> <Gold.PLP.part.nonpolar>
-27.7567

> <Gold.PLP.part.repulsive>
0.3718

> <Gold.PLP.ligand.clash>
0.0000

> <Gold.PLP.ligand.torsion>
1.0752

> <Gold.PLP.Chemscore.Hbond>
3.0056

> <Gold.PLP.Chemscore.CHOScore>
0.0000

> <Gold.PLP.Chemscore.Metal>
0.0000

> <Gold.Chemscore.Hbonds>
donor molecule, donor type, donor heavy atom, donor atom, acceptor molecule, acceptor atom, score
      L1  H     7    37       P1  7957  0.83
      L1  H    21    45       P1 11000  0.09
      L1  H    21    46       P1 10957  1.00
      P1  H  7989  7998       L1     3  1.00

> <Gold.PLP.Chemscore.Internal.Correction>
0.3090

> <Gold.Rescore>
     Score         DG    S(hbond)    S(metal)    S(lipo)     H(rot)  DE(clash)    DE(int)     intcor
      8.64     -13.40       2.22        0.00      61.07       2.60       0.11       4.66       ----

> <Gold.Chemscore.Fitness>
8.6378

> <Gold.Chemscore.DG>
-13.3993

> <Gold.Chemscore.ZeroCoef>
-5.4800

> <Gold.Chemscore.Hbond>
2.2221

> <Gold.Chemscore.Metal>
0.0000

> <Gold.Chemscore.Lipo>
61.0696

> <Gold.Chemscore.Internal_Hbond>
0.0000

> <Gold.Chemscore.DEClash>
0.1058

> <Gold.Chemscore.DEInternal>
4.6558

> <Gold.Chemscore.Rot>
2.5968

> <Gold.Chemscore.Internal.Correction>
   9.000000E+99

> <Gold.Chemscore.Hbonds>
donor molecule, donor type, donor heavy atom, donor atom, acceptor molecule, acceptor atom, score
      L1  H     7    37       P1  7957  0.35
      L1  H    21    45       P1 11000  0.03
      L1  H    21    46       P1 10957  1.00
      P1  H  7989  7998       L1     3  0.49

> <Gold.Chemscore.Hbond.Weighted>
-7.4219

> <Gold.Chemscore.Metal.Weighted>
-0.0000

> <Gold.Chemscore.Lipo.Weighted>
-7.1451

> <Gold.Chemscore.Internal_Hbond.Weighted>
0.0000

> <Gold.Chemscore.DEClash.Weighted>
0.1058

> <Gold.Chemscore.DEInternal.Weighted>
4.6558

> <Gold.Chemscore.Rot.Weighted>
6.6477

> <Gold.Chemscore.Internal.Correction.Weighted>
   9.000000E+99

> <Gold.Protein.RotatedTorsions>
[ 6907 6896 6895 6894 ] final   39.87 input  -60.11 | X-H torsion
[ 7974 7965 7964 7962 ] final  -27.48 input  175.53 | X-H torsion
[ 8008 7997 7996 7995 ] final -174.77 input   59.86 | X-H torsion
[ 10167 10162 10161 10158 ] final   89.35 input  -65.29 | X-H torsion
[ 10718 10713 10712 10709 ] final  -95.61 input   66.30 | X-H torsion
[ 10763 10752 10751 10750 ] final  155.50 input  -60.55 | X-H torsion
[ 11005 11000 10999 10996 ] final  121.14 input  -57.11 | X-H torsion

> <Gold.Protein.ActiveResidues>
 VAL166  LYS551  ARG553  GLY616  TRP617  ASP618  TYR619  PRO620  LYS621  CYS622 
 ASP623  PHE694  ASN695  SER759  ASP760  ASP761  ALA762  ILE779  LEU786  VAL792 
 PHE793  MET794  SER795  GLU796  ALA797  LYS798  CYS799  TRP800  GLU811  SER814 

> <Gold.Protein.RotatedAtoms>
  152.1752  134.8800  160.0530 H   0  0  0  0  0  0  0  0  0  0  0  0  # atno 6907 bound_to 6896
  151.9745  133.3732  159.4092 H   0  0  0  0  0  0  0  0  0  0  0  0  # atno 6908 bound_to 6896
  150.6908  134.4027  159.5170 H   0  0  0  0  0  0  0  0  0  0  0  0  # atno 6909 bound_to 6896
  146.1355  140.5157  142.8675 H   0  0  0  0  0  0  0  0  0  0  0  0  # atno 7974 bound_to 7965
  155.9742  140.1169  157.0785 H   0  0  0  0  0  0  0  0  0  0  0  0  # atno 8008 bound_to 7997
  154.4165  140.1157  156.5415 H   0  0  0  0  0  0  0  0  0  0  0  0  # atno 8009 bound_to 7997
  155.6556  140.3473  155.4766 H   0  0  0  0  0  0  0  0  0  0  0  0  # atno 8010 bound_to 7997
  139.8582  144.6558  150.9090 H   0  0  0  0  0  0  0  0  0  0  0  0  # atno 10167 bound_to 10162
  156.0046  130.5116  150.6101 H   0  0  0  0  0  0  0  0  0  0  0  0  # atno 10718 bound_to 10713
  154.1693  135.2805  155.3085 H   0  0  0  0  0  0  0  0  0  0  0  0  # atno 10763 bound_to 10752
  154.6087  135.5506  153.7454 H   0  0  0  0  0  0  0  0  0  0  0  0  # atno 10764 bound_to 10752
  153.0169  135.6410  154.1834 H   0  0  0  0  0  0  0  0  0  0  0  0  # atno 10765 bound_to 10752
  139.9213  134.9638  156.7913 H   0  0  0  0  0  0  0  0  0  0  0  0  # atno 11005 bound_to 11000
  144.7735  140.5689  143.6654 LP  0  0  0  0  0  0  0  0  0  0  0  0  # atno 17320 bound_to 7965
  145.5166  139.1477  143.3575 LP  0  0  0  0  0  0  0  0  0  0  0  0  # atno 17321 bound_to 7965
  140.7779  143.3768  151.1549 LP  0  0  0  0  0  0  0  0  0  0  0  0  # atno 17342 bound_to 10162
  139.7400  143.8940  152.3047 LP  0  0  0  0  0  0  0  0  0  0  0  0  # atno 17343 bound_to 10162
  157.3935  131.0799  151.1372 LP  0  0  0  0  0  0  0  0  0  0  0  0  # atno 17370 bound_to 10713
  157.2056  130.6414  149.5755 LP  0  0  0  0  0  0  0  0  0  0  0  0  # atno 17371 bound_to 10713
  140.6465  133.9771  155.7733 LP  0  0  0  0  0  0  0  0  0  0  0  0  # atno 17394 bound_to 11000
  141.0737  134.0167  157.3489 LP  0  0  0  0  0  0  0  0  0  0  0  0  # atno 17395 bound_to 11000

$$$$
