AV-unprocessed.smi:2404|AV-procd|sdf|9511|dock10
  -GOLD-   2272013143D 1   1.00000     0.00000
 Structure written by MMmdl.
 42 42  0  0  0  0  0  0  0  0  2 V2000
  147.9063  136.6948  157.8084 C   0  0  0  0  0  0  0  0  0  0  0  0
  148.4283  137.3726  156.5275 C   0  0  0  0  0  0  0  0  0  0  0  0
  149.9730  137.3623  156.3198 C   0  0  0  0  0  0  0  0  0  0  0  0
  150.3723  138.0660  154.9803 C   0  0  0  0  0  0  0  0  0  0  0  0
  151.8750  138.1050  154.6527 C   0  0  0  0  0  0  0  0  0  0  0  0
  150.6303  138.0814  157.5391 C   0  0  0  0  0  0  0  0  0  0  0  0
  150.3240  139.5096  157.5969 N   0  0  0  0  0  0  0  0  0  0  0  0
  151.2153  140.5122  157.5768 C   0  0  0  0  0  0  0  0  0  0  0  0
  152.4147  140.3588  157.3477 O   0  0  0  0  0  0  0  0  0  0  0  0
  150.6707  141.9048  157.9012 C   0  0  0  0  0  0  0  0  0  0  0  0
  151.5092  142.5728  158.8865 N   0  0  0  0  0  0  0  0  0  0  0  0
  151.7308  141.9726  160.0764 N   0  0  0  0  0  0  0  0  0  0  0  0
  152.5580  142.7820  160.7163 C   0  0  0  0  0  0  0  0  0  0  0  0
  153.0476  142.4050  162.0829 C   0  0  0  0  0  0  0  0  0  0  0  0
  152.8726  143.9427  159.9558 C   0  0  0  0  0  0  0  0  0  0  0  0
  152.1868  143.7756  158.7860 C   0  0  0  0  0  0  0  0  0  0  0  0
  152.1260  144.6441  157.5725 C   0  0  0  0  0  0  0  0  0  0  0  0
  150.4706  135.8859  156.3007 C   0  0  0  0  0  0  0  0  0  0  0  0
  151.0949  135.4694  155.2985 O   0  0  0  0  0  0  0  0  0  0  0  0
  150.2304  135.1906  157.3133 O   0  5  0  0  0  0  0  0  0  0  0  0
  146.8212  136.7798  157.8673 H   0  0  0  0  0  0  0  0  0  0  0  0
  148.3157  137.1532  158.7088 H   0  0  0  0  0  0  0  0  0  0  0  0
  148.1479  135.6327  157.8304 H   0  0  0  0  0  0  0  0  0  0  0  0
  147.9421  136.9083  155.6695 H   0  0  0  0  0  0  0  0  0  0  0  0
  148.0661  138.4018  156.5206 H   0  0  0  0  0  0  0  0  0  0  0  0
  149.8646  137.5850  154.1438 H   0  0  0  0  0  0  0  0  0  0  0  0
  150.0060  139.0933  154.9765 H   0  0  0  0  0  0  0  0  0  0  0  0
  152.0385  138.5988  153.6948 H   0  0  0  0  0  0  0  0  0  0  0  0
  152.3031  137.1066  154.5749 H   0  0  0  0  0  0  0  0  0  0  0  0
  152.4396  138.6600  155.4009 H   0  0  0  0  0  0  0  0  0  0  0  0
  150.3647  137.5832  158.4718 H   0  0  0  0  0  0  0  0  0  0  0  0
  151.7162  137.9968  157.4777 H   0  0  0  0  0  0  0  0  0  0  0  0
  149.3614  139.7488  157.7913 H   0  0  0  0  0  0  0  0  0  0  0  0
  150.6289  142.5157  156.9988 H   0  0  0  0  0  0  0  0  0  0  0  0
  149.6513  141.8212  158.2810 H   0  0  0  0  0  0  0  0  0  0  0  0
  153.6978  143.1767  162.4951 H   0  0  0  0  0  0  0  0  0  0  0  0
  153.6166  141.4754  162.0503 H   0  0  0  0  0  0  0  0  0  0  0  0
  152.2165  142.2659  162.7746 H   0  0  0  0  0  0  0  0  0  0  0  0
  153.5174  144.7664  160.2231 H   0  0  0  0  0  0  0  0  0  0  0  0
  152.6643  145.5779  157.7355 H   0  0  0  0  0  0  0  0  0  0  0  0
  151.0948  144.8912  157.3203 H   0  0  0  0  0  0  0  0  0  0  0  0
  152.5758  144.1444  156.7142 H   0  0  0  0  0  0  0  0  0  0  0  0
  1  2  1  0  0  0  0
  1 21  1  0  0  0  0
  1 22  1  0  0  0  0
  1 23  1  0  0  0  0
  2  3  1  0  0  0  0
  2 24  1  0  0  0  0
  2 25  1  0  0  0  0
  3  4  1  0  0  0  0
  3  6  1  0  0  0  0
  3 18  1  0  0  0  0
  4  5  1  0  0  0  0
  4 26  1  0  0  0  0
  4 27  1  0  0  0  0
  5 28  1  0  0  0  0
  5 29  1  0  0  0  0
  5 30  1  0  0  0  0
  6  7  1  0  0  0  0
  6 31  1  0  0  0  0
  6 32  1  0  0  0  0
  7  8  1  0  0  0  0
  7 33  1  0  0  0  0
  8  9  2  0  0  0  0
  8 10  1  0  0  0  0
 10 11  1  0  0  0  0
 10 34  1  0  0  0  0
 10 35  1  0  0  0  0
 11 16  1  0  0  0  0
 11 12  1  0  0  0  0
 12 13  2  0  0  0  0
 13 14  1  0  0  0  0
 13 15  1  0  0  0  0
 14 36  1  0  0  0  0
 14 37  1  0  0  0  0
 14 38  1  0  0  0  0
 15 16  2  0  0  0  0
 15 39  1  0  0  0  0
 16 17  1  0  0  0  0
 17 40  1  0  0  0  0
 17 41  1  0  0  0  0
 17 42  1  0  0  0  0
 18 19  2  0  0  0  0
 18 20  1  0  0  0  0
M  CHG  1  20  -1
M  END
> <s_m_source_file>
AV-unprocessed.smi

> <i_m_source_file_index>
2404

> <i_lp_mmshare_version>
43012

> <i_f3d_flags>
0

> <s_epik_input>
W0NIM11bQ0gyXUMoW0NIMl1bQ0gzXSkoQyg9TylbT0hdKVtDSDJdW05IXUMoPU8pW0NIMl1uMW5jKFtDSDNdKVtjSF1jMVtDSDNd

> <s_epik_cmdline>
J2VwaWtfcHl0aG9uJywgJy1waCcsICc3LjAnLCAnLXRuJywgJzgnLCAnLW1hJywgJzIwMCcsICctbWV0YWxfYmluZGluZycsICctaW1hZScsICc8aW5maWxlLm1hZT4nLCAnLW9tYWUnLCAnPG91dGZpbGUubWFlPic=

> <r_lp_tautomer_probability>
1

> <r_epik_Ionization_Penalty>
0.00271888

> <r_epik_Ionization_Penalty_Charging>
0.00235221

> <r_epik_Ionization_Penalty_Neutral>
0.000366676

> <r_epik_State_Penalty>
-0

> <r_epik_Charging_Adjusted_Penalty>
0.00235221

> <i_epik_Tot_Q>
-1

> <i_epik_Tot_abs_Q>
1

> <r_epik_Metal_State_Penalty>
-0

> <b_epik_Metal_Only>
0

> <s_lp_Force_Field>
OPLS_2005

> <r_lp_Energy>
2.14996

> <b_lp_Chiralities_Consistent>
1

> <s_lp_Variant>
AV-unprocessed.smi:2404-1

> <Gold.Version>
5.8.1

> <Gold.Id.Protein>
6NUR|6NUR_protein|mol2

> <Gold.PLP.Fitness>
47.4791

> <Gold.PLP.PLP>
-35.5148

> <Gold.PLP.part.hbond>
-4.0000

> <Gold.PLP.part.metal>
0.0000

> <Gold.PLP.part.buried>
-4.9469

> <Gold.PLP.part.nonpolar>
-26.7061

> <Gold.PLP.part.repulsive>
0.1621

> <Gold.PLP.ligand.clash>
0.0000

> <Gold.PLP.ligand.torsion>
0.1764

> <Gold.PLP.Chemscore.Hbond>
4.0722

> <Gold.PLP.Chemscore.CHOScore>
0.0000

> <Gold.PLP.Chemscore.Metal>
0.0000

> <Gold.Chemscore.Hbonds>
donor molecule, donor type, donor heavy atom, donor atom, acceptor molecule, acceptor atom, score
      P1  H  6896  6907       L1    20  0.41
      P1  H  7997  8009       L1     9  0.81
      P1  H 10752 10765       L1    19  1.89

> <Gold.PLP.Chemscore.Internal.Correction>
0.1006

> <Gold.Rescore>
     Score         DG    S(hbond)    S(metal)    S(lipo)     H(rot)  DE(clash)    DE(int)     intcor
     14.96     -17.84       2.33        0.00      91.86       2.42       0.13       2.75       ----

> <Gold.Chemscore.Fitness>
14.9622

> <Gold.Chemscore.DG>
-17.8407

> <Gold.Chemscore.ZeroCoef>
-5.4800

> <Gold.Chemscore.Hbond>
2.3346

> <Gold.Chemscore.Metal>
0.0000

> <Gold.Chemscore.Lipo>
91.8624

> <Gold.Chemscore.Internal_Hbond>
0.0000

> <Gold.Chemscore.DEClash>
0.1299

> <Gold.Chemscore.DEInternal>
2.7486

> <Gold.Chemscore.Rot>
2.4159

> <Gold.Chemscore.Internal.Correction>
   9.000000E+99

> <Gold.Chemscore.Hbonds>
donor molecule, donor type, donor heavy atom, donor atom, acceptor molecule, acceptor atom, score
      P1  H  6896  6907       L1    20  0.20
      P1  H  7997  8009       L1     9  0.76
      P1  H 10752 10765       L1    19  0.89

> <Gold.Chemscore.Hbond.Weighted>
-7.7976

> <Gold.Chemscore.Metal.Weighted>
-0.0000

> <Gold.Chemscore.Lipo.Weighted>
-10.7479

> <Gold.Chemscore.Internal_Hbond.Weighted>
0.0000

> <Gold.Chemscore.DEClash.Weighted>
0.1299

> <Gold.Chemscore.DEInternal.Weighted>
2.7486

> <Gold.Chemscore.Rot.Weighted>
6.1848

> <Gold.Chemscore.Internal.Correction.Weighted>
   9.000000E+99

> <Gold.Protein.RotatedTorsions>
[ 6907 6896 6895 6894 ] final  -88.00 input  -60.11 | X-H torsion
[ 7974 7965 7964 7962 ] final   69.57 input  175.53 | X-H torsion
[ 8008 7997 7996 7995 ] final  176.92 input   59.86 | X-H torsion
[ 10167 10162 10161 10158 ] final   46.47 input  -65.29 | X-H torsion
[ 10718 10713 10712 10709 ] final  125.32 input   66.30 | X-H torsion
[ 10763 10752 10751 10750 ] final -156.66 input  -60.55 | X-H torsion
[ 11005 11000 10999 10996 ] final  130.56 input  -57.11 | X-H torsion

> <Gold.Protein.ActiveResidues>
 VAL166  LYS551  ARG553  GLY616  TRP617  ASP618  TYR619  PRO620  LYS621  CYS622 
 ASP623  PHE694  ASN695  SER759  ASP760  ASP761  ALA762  ILE779  LEU786  VAL792 
 PHE793  MET794  SER795  GLU796  ALA797  LYS798  CYS799  TRP800  GLU811  SER814 

> <Gold.Protein.RotatedAtoms>
  150.6867  134.2809  159.4626 H   0  0  0  0  0  0  0  0  0  0  0  0  # atno 6907 bound_to 6896
  152.0723  134.9523  160.0583 H   0  0  0  0  0  0  0  0  0  0  0  0  # atno 6908 bound_to 6896
  152.0907  133.4164  159.4579 H   0  0  0  0  0  0  0  0  0  0  0  0  # atno 6909 bound_to 6896
  145.7888  139.2924  143.1222 H   0  0  0  0  0  0  0  0  0  0  0  0  # atno 7974 bound_to 7965
  156.0713  140.1371  156.9825 H   0  0  0  0  0  0  0  0  0  0  0  0  # atno 8008 bound_to 7997
  154.4533  140.0971  156.6734 H   0  0  0  0  0  0  0  0  0  0  0  0  # atno 8009 bound_to 7997
  155.5224  140.3456  155.4411 H   0  0  0  0  0  0  0  0  0  0  0  0  # atno 8010 bound_to 7997
  140.3136  144.2790  150.6195 H   0  0  0  0  0  0  0  0  0  0  0  0  # atno 10167 bound_to 10162
  157.5513  131.1094  150.8697 H   0  0  0  0  0  0  0  0  0  0  0  0  # atno 10718 bound_to 10713
  154.7696  135.3141  154.8217 H   0  0  0  0  0  0  0  0  0  0  0  0  # atno 10763 bound_to 10752
  153.8956  135.6821  153.4762 H   0  0  0  0  0  0  0  0  0  0  0  0  # atno 10764 bound_to 10752
  153.1307  135.4781  154.9278 H   0  0  0  0  0  0  0  0  0  0  0  0  # atno 10765 bound_to 10752
  139.9679  134.9585  156.9311 H   0  0  0  0  0  0  0  0  0  0  0  0  # atno 11005 bound_to 11000
  145.9998  140.8530  143.0024 LP  0  0  0  0  0  0  0  0  0  0  0  0  # atno 17320 bound_to 7965
  144.6785  140.2335  143.7352 LP  0  0  0  0  0  0  0  0  0  0  0  0  # atno 17321 bound_to 7965
  140.5546  143.2201  151.7869 LP  0  0  0  0  0  0  0  0  0  0  0  0  # atno 17342 bound_to 10162
  139.4888  144.4431  151.9742 LP  0  0  0  0  0  0  0  0  0  0  0  0  # atno 17343 bound_to 10162
  156.9221  130.5319  149.5279 LP  0  0  0  0  0  0  0  0  0  0  0  0  # atno 17370 bound_to 10713
  156.0579  130.5637  150.9131 LP  0  0  0  0  0  0  0  0  0  0  0  0  # atno 17371 bound_to 10713
  140.5357  134.0770  155.7327 LP  0  0  0  0  0  0  0  0  0  0  0  0  # atno 17394 bound_to 11000
  141.1359  133.9223  157.2435 LP  0  0  0  0  0  0  0  0  0  0  0  0  # atno 17395 bound_to 11000

$$$$
