AV-unprocessed.smi:199|AV-procd|sdf|1574|dock4
  -GOLD-   2262019453D 1   1.00000     0.00000
 Structure written by MMmdl.
 51 55  0  0  0  0  0  0  0  0  1 V2000
  145.3533  133.6696  162.6900 C   0  0  0  0  0  0  0  0  0  0  0  0
  146.7165  134.1842  162.1948 C   0  0  2  0  0  0  0  0  0  0  0  0
  147.3455  134.8106  163.3146 O   0  0  0  0  0  0  0  0  0  0  0  0
  147.7055  136.1502  163.0052 C   0  0  0  0  0  0  0  0  0  0  0  0
  146.7555  136.5437  161.8841 C   0  0  0  0  0  0  0  0  0  0  0  0
  146.6624  135.2547  161.0763 C   0  0  2  0  0  0  0  0  0  0  0  0
  145.4365  135.2423  160.3663 O   0  0  0  0  0  0  0  0  0  0  0  0
  147.8200  135.0598  160.0602 C   0  0  0  0  0  0  0  0  0  0  0  0
  148.0425  136.1978  159.1807 N   0  0  0  0  0  0  0  0  0  0  0  0
  147.0986  136.8462  158.4174 C   0  0  0  0  0  0  0  0  0  0  0  0
  147.5472  137.8473  157.7114 N   0  0  0  0  0  0  0  0  0  0  0  0
  148.9019  137.9050  158.0178 C   0  0  0  0  0  0  0  0  0  0  0  0
  149.9815  138.7435  157.6149 C   0  0  0  0  0  0  0  0  0  0  0  0
  149.8503  139.7651  156.7270 N   0  0  0  0  0  0  0  0  0  0  0  0
  150.9643  140.6442  156.4077 C   0  0  2  0  0  0  0  0  0  0  0  0
  150.2790  141.7445  155.5790 C   0  0  0  0  0  0  0  0  0  0  0  0
  149.2025  140.9353  154.8351 C   0  0  0  0  0  0  0  0  0  0  0  0
  149.4921  139.5099  155.3394 C   0  0  1  0  0  0  0  0  0  0  0  0
  150.7976  139.0103  154.6696 C   0  0  2  0  0  0  0  0  0  0  0  0
  150.9795  137.4806  154.7047 C   0  0  0  0  0  0  0  0  0  0  0  0
  151.8389  137.0718  153.6621 O   0  0  0  0  0  0  0  0  0  0  0  0
  151.8533  139.7912  155.4794 C   0  0  0  0  0  0  0  0  0  0  0  0
  151.1966  138.5065  158.1772 N   0  0  0  0  0  0  0  0  0  0  0  0
  151.3584  137.5063  159.0472 C   0  0  0  0  0  0  0  0  0  0  0  0
  150.4513  136.6378  159.4959 N   0  0  0  0  0  0  0  0  0  0  0  0
  149.2249  136.8793  158.9522 C   0  0  0  0  0  0  0  0  0  0  0  0
  144.8220  133.1325  161.9039 H   0  0  0  0  0  0  0  0  0  0  0  0
  144.7172  134.4876  163.0299 H   0  0  0  0  0  0  0  0  0  0  0  0
  145.4804  132.9807  163.5253 H   0  0  0  0  0  0  0  0  0  0  0  0
  147.3171  133.3290  161.8818 H   0  0  0  0  0  0  0  0  0  0  0  0
  147.6185  136.7981  163.8774 H   0  0  0  0  0  0  0  0  0  0  0  0
  148.7413  136.1764  162.6648 H   0  0  0  0  0  0  0  0  0  0  0  0
  145.7844  136.7920  162.3157 H   0  0  0  0  0  0  0  0  0  0  0  0
  147.0915  137.4135  161.3215 H   0  0  0  0  0  0  0  0  0  0  0  0
  144.7327  135.3876  160.9801 H   0  0  0  0  0  0  0  0  0  0  0  0
  148.7546  134.8545  160.5830 H   0  0  0  0  0  0  0  0  0  0  0  0
  147.6283  134.1833  159.4394 H   0  0  0  0  0  0  0  0  0  0  0  0
  146.0604  136.5471  158.3958 H   0  0  0  0  0  0  0  0  0  0  0  0
  151.4964  141.0432  157.2721 H   0  0  0  0  0  0  0  0  0  0  0  0
  149.8177  142.4923  156.2254 H   0  0  0  0  0  0  0  0  0  0  0  0
  150.9689  142.2551  154.9061 H   0  0  0  0  0  0  0  0  0  0  0  0
  148.2060  141.2574  155.1399 H   0  0  0  0  0  0  0  0  0  0  0  0
  149.2701  141.0291  153.7508 H   0  0  0  0  0  0  0  0  0  0  0  0
  148.6435  138.8462  155.1825 H   0  0  0  0  0  0  0  0  0  0  0  0
  150.8126  139.3248  153.6246 H   0  0  0  0  0  0  0  0  0  0  0  0
  151.3919  137.1418  155.6542 H   0  0  0  0  0  0  0  0  0  0  0  0
  150.0181  136.9831  154.5753 H   0  0  0  0  0  0  0  0  0  0  0  0
  151.3271  136.9622  152.8752 H   0  0  0  0  0  0  0  0  0  0  0  0
  152.5048  140.3970  154.8489 H   0  0  0  0  0  0  0  0  0  0  0  0
  152.4874  139.1199  156.0601 H   0  0  0  0  0  0  0  0  0  0  0  0
  152.3570  137.3851  159.4400 H   0  0  0  0  0  0  0  0  0  0  0  0
  1  2  1  0  0  0  0
  1 27  1  0  0  0  0
  1 28  1  0  0  0  0
  1 29  1  0  0  0  0
  2  6  1  0  0  0  0
  2  3  1  0  0  0  0
  2 30  1  0  0  0  0
  3  4  1  0  0  0  0
  4  5  1  0  0  0  0
  4 31  1  0  0  0  0
  4 32  1  0  0  0  0
  5  6  1  0  0  0  0
  5 33  1  0  0  0  0
  5 34  1  0  0  0  0
  6  7  1  0  0  0  0
  6  8  1  0  0  0  0
  7 35  1  0  0  0  0
  8  9  1  0  0  0  0
  8 36  1  0  0  0  0
  8 37  1  0  0  0  0
  9 26  1  0  0  0  0
  9 10  1  0  0  0  0
 10 11  2  0  0  0  0
 10 38  1  0  0  0  0
 11 12  1  0  0  0  0
 12 26  2  0  0  0  0
 12 13  1  0  0  0  0
 13 14  1  0  0  0  0
 13 23  2  0  0  0  0
 14 18  1  0  0  0  0
 14 15  1  0  0  0  0
 15 22  1  0  0  0  0
 15 16  1  0  0  0  0
 15 39  1  0  0  0  0
 16 17  1  0  0  0  0
 16 40  1  0  0  0  0
 16 41  1  0  0  0  0
 17 18  1  0  0  0  0
 17 42  1  0  0  0  0
 17 43  1  0  0  0  0
 18 19  1  0  0  0  0
 18 44  1  0  0  0  0
 19 20  1  0  0  0  0
 19 22  1  0  0  0  0
 19 45  1  0  0  0  0
 20 21  1  0  0  0  0
 20 46  1  0  0  0  0
 20 47  1  0  0  0  0
 21 48  1  0  0  0  0
 22 49  1  0  0  0  0
 22 50  1  0  0  0  0
 23 24  1  0  0  0  0
 24 25  2  0  0  0  0
 24 51  1  0  0  0  0
 25 26  1  0  0  0  0
M  END
> <s_m_source_file>
AV-unprocessed.smi

> <i_m_source_file_index>
199

> <i_lp_mmshare_version>
43012

> <i_f3d_flags>
0

> <s_epik_input>
W0NIMl0xW0NIMl1PW0NAQEhdKFtDSDNdKVtDQEBdMShbT0hdKVtDSDJdbihbY0hdbjIpYyhjMjMpbltjSF1uYzNOKFtDQEBIXTQ1KVtDQEhdKFtDSDJdW0NIMl00KVtDQEhdKFtDSDJdNSlbQ0gyXVtPSF0=

> <s_epik_cmdline>
J2VwaWtfcHl0aG9uJywgJy1waCcsICc3LjAnLCAnLXRuJywgJzgnLCAnLW1hJywgJzIwMCcsICctbWV0YWxfYmluZGluZycsICctaW1hZScsICc8aW5maWxlLm1hZT4nLCAnLW9tYWUnLCAnPG91dGZpbGUubWFlPic=

> <r_lp_tautomer_probability>
1

> <r_epik_Ionization_Penalty>
0.00583903

> <r_epik_Ionization_Penalty_Charging>
0

> <r_epik_Ionization_Penalty_Neutral>
0.00583903

> <r_epik_State_Penalty>
-0

> <r_epik_Charging_Adjusted_Penalty>
0

> <i_epik_Tot_Q>
0

> <i_epik_Tot_abs_Q>
0

> <r_epik_Metal_State_Penalty>
-0

> <b_epik_Metal_Only>
0

> <s_lp_Force_Field>
OPLS_2005

> <r_lp_Energy>
84.8674

> <b_lp_Chiralities_Consistent>
1

> <s_lp_Variant>
AV-unprocessed.smi:199-15

> <Gold.Version>
5.8.1

> <Gold.Id.Protein>
6NUR|6NUR_protein|mol2

> <Gold.PLP.Fitness>
54.5102

> <Gold.PLP.PLP>
-46.6415

> <Gold.PLP.part.hbond>
-3.7857

> <Gold.PLP.part.metal>
0.0000

> <Gold.PLP.part.buried>
-5.8675

> <Gold.PLP.part.nonpolar>
-37.0127

> <Gold.PLP.part.repulsive>
0.0157

> <Gold.PLP.ligand.clash>
0.0000

> <Gold.PLP.ligand.torsion>
0.4832

> <Gold.PLP.Chemscore.Hbond>
2.9280

> <Gold.PLP.Chemscore.CHOScore>
0.0000

> <Gold.PLP.Chemscore.Metal>
0.0000

> <Gold.Chemscore.Hbonds>
donor molecule, donor type, donor heavy atom, donor atom, acceptor molecule, acceptor atom, score
      L1  H    21    48       P1  7949  0.85
      P1  H  6896  6907       L1    25  1.00
      P1  H 10752 10763       L1    21  1.00

> <Gold.PLP.Chemscore.Internal.Correction>
0.0511

> <Gold.Rescore>
     Score         DG    S(hbond)    S(metal)    S(lipo)     H(rot)  DE(clash)    DE(int)     intcor
     16.53     -17.15       2.43        0.00      97.48       3.07       0.12       0.50       ----

> <Gold.Chemscore.Fitness>
16.5300

> <Gold.Chemscore.DG>
-17.1512

> <Gold.Chemscore.ZeroCoef>
-5.4800

> <Gold.Chemscore.Hbond>
2.4348

> <Gold.Chemscore.Metal>
0.0000

> <Gold.Chemscore.Lipo>
97.4839

> <Gold.Chemscore.Internal_Hbond>
0.0000

> <Gold.Chemscore.DEClash>
0.1200

> <Gold.Chemscore.DEInternal>
0.5012

> <Gold.Chemscore.Rot>
3.0729

> <Gold.Chemscore.Internal.Correction>
   9.000000E+99

> <Gold.Chemscore.Hbonds>
donor molecule, donor type, donor heavy atom, donor atom, acceptor molecule, acceptor atom, score
      L1  H    21    48       P1  7949  0.67
      P1  H  6896  6907       L1    25  0.90
      P1  H 10752 10763       L1    21  0.76

> <Gold.Chemscore.Hbond.Weighted>
-8.1323

> <Gold.Chemscore.Metal.Weighted>
-0.0000

> <Gold.Chemscore.Lipo.Weighted>
-11.4056

> <Gold.Chemscore.Internal_Hbond.Weighted>
0.0000

> <Gold.Chemscore.DEClash.Weighted>
0.1200

> <Gold.Chemscore.DEInternal.Weighted>
0.5012

> <Gold.Chemscore.Rot.Weighted>
7.8667

> <Gold.Chemscore.Internal.Correction.Weighted>
   9.000000E+99

> <Gold.Protein.RotatedTorsions>
[ 6907 6896 6895 6894 ] final  -46.05 input  -60.11 | X-H torsion
[ 7974 7965 7964 7962 ] final   30.54 input  175.53 | X-H torsion
[ 8008 7997 7996 7995 ] final   13.24 input   59.86 | X-H torsion
[ 10167 10162 10161 10158 ] final  -34.23 input  -65.29 | X-H torsion
[ 10718 10713 10712 10709 ] final  107.92 input   66.30 | X-H torsion
[ 10763 10752 10751 10750 ] final   11.20 input  -60.55 | X-H torsion
[ 11005 11000 10999 10996 ] final  163.56 input  -57.11 | X-H torsion

> <Gold.Protein.ActiveResidues>
 VAL166  LYS551  ARG553  GLY616  TRP617  ASP618  TYR619  PRO620  LYS621  CYS622 
 ASP623  PHE694  ASN695  SER759  ASP760  ASP761  ALA762  ILE779  LEU786  VAL792 
 PHE793  MET794  SER795  GLU796  ALA797  LYS798  CYS799  TRP800  GLU811  SER814 

> <Gold.Protein.RotatedAtoms>
  150.9153  134.8571  159.7452 H   0  0  0  0  0  0  0  0  0  0  0  0  # atno 6907 bound_to 6896
  152.4965  134.4298  159.9518 H   0  0  0  0  0  0  0  0  0  0  0  0  # atno 6908 bound_to 6896
  151.4336  133.3623  159.2807 H   0  0  0  0  0  0  0  0  0  0  0  0  # atno 6909 bound_to 6896
  146.1605  139.6774  142.9037 H   0  0  0  0  0  0  0  0  0  0  0  0  # atno 7974 bound_to 7965
  154.8318  140.2900  155.5717 H   0  0  0  0  0  0  0  0  0  0  0  0  # atno 8008 bound_to 7997
  156.3006  140.2530  156.3175 H   0  0  0  0  0  0  0  0  0  0  0  0  # atno 8009 bound_to 7997
  154.9223  140.0385  157.1993 H   0  0  0  0  0  0  0  0  0  0  0  0  # atno 8010 bound_to 7997
  140.7189  143.3563  151.2053 H   0  0  0  0  0  0  0  0  0  0  0  0  # atno 10167 bound_to 10162
  157.6608  131.0883  150.6228 H   0  0  0  0  0  0  0  0  0  0  0  0  # atno 10718 bound_to 10713
  153.1951  135.6848  153.8302 H   0  0  0  0  0  0  0  0  0  0  0  0  # atno 10763 bound_to 10752
  153.7588  135.3213  155.3334 H   0  0  0  0  0  0  0  0  0  0  0  0  # atno 10764 bound_to 10752
  154.8140  135.4698  154.0692 H   0  0  0  0  0  0  0  0  0  0  0  0  # atno 10765 bound_to 10752
  140.2370  134.8080  157.3373 H   0  0  0  0  0  0  0  0  0  0  0  0  # atno 11005 bound_to 11000
  145.4600  141.0432  143.2757 LP  0  0  0  0  0  0  0  0  0  0  0  0  # atno 17320 bound_to 7965
  144.8021  139.6121  143.7067 LP  0  0  0  0  0  0  0  0  0  0  0  0  # atno 17321 bound_to 7965
  139.7105  143.9385  152.2945 LP  0  0  0  0  0  0  0  0  0  0  0  0  # atno 17342 bound_to 10162
  139.9108  144.6857  150.8564 LP  0  0  0  0  0  0  0  0  0  0  0  0  # atno 17343 bound_to 10162
  156.6531  130.4491  149.5712 LP  0  0  0  0  0  0  0  0  0  0  0  0  # atno 17370 bound_to 10713
  156.2123  130.6686  151.1282 LP  0  0  0  0  0  0  0  0  0  0  0  0  # atno 17371 bound_to 10713
  140.1692  134.4630  155.7843 LP  0  0  0  0  0  0  0  0  0  0  0  0  # atno 17394 bound_to 11000
  141.2213  133.6934  156.7678 LP  0  0  0  0  0  0  0  0  0  0  0  0  # atno 17395 bound_to 11000

$$$$
