AV-unprocessed.smi:38|AV-procd|sdf|338|dock6
  -GOLD-   2262016173D 1   1.00000     0.00000
 Structure written by MMmdl.
 28 29  0  0  0  0  0  0  0  0  1 V2000
  155.7706  140.0029  163.1370 O   0  0  0  0  0  0  0  0  0  0  0  0
  155.0084  140.5662  162.3539 C   0  0  0  0  0  0  0  0  0  0  0  0
  154.6924  139.9705  161.1292 N   0  0  0  0  0  0  0  0  0  0  0  0
  153.8418  140.5075  160.1608 C   0  0  0  0  0  0  0  0  0  0  0  0
  153.6506  139.8991  159.1089 O   0  0  0  0  0  0  0  0  0  0  0  0
  153.2424  141.7539  160.4498 N   0  0  0  0  0  0  0  0  0  0  0  0
  152.3068  142.3846  159.4442 C   0  0  2  0  0  0  0  0  0  0  0  0
  152.9502  143.6151  158.7964 C   0  0  0  0  0  0  0  0  0  0  0  0
  151.7835  144.5790  158.7109 C   0  0  1  0  0  0  0  0  0  0  0  0
  151.0610  144.3815  157.5101 O   0  0  0  0  0  0  0  0  0  0  0  0
  150.9644  144.2041  159.9545 C   0  0  1  0  0  0  0  0  0  0  0  0
  149.4699  144.5690  159.9410 C   0  0  0  0  0  0  0  0  0  0  0  0
  148.7896  143.8126  158.9622 O   0  0  0  0  0  0  0  0  0  0  0  0
  151.1450  142.7977  160.1031 O   0  0  0  0  0  0  0  0  0  0  0  0
  153.5389  142.3888  161.6484 C   0  0  0  0  0  0  0  0  0  0  0  0
  154.3691  141.8594  162.5776 C   0  0  0  0  0  0  0  0  0  0  0  0
  154.6099  142.5350  163.7142 F   0  0  0  0  0  0  0  0  0  0  0  0
  155.1192  139.0781  160.9264 H   0  0  0  0  0  0  0  0  0  0  0  0
  152.0163  141.6197  158.7225 H   0  0  0  0  0  0  0  0  0  0  0  0
  152.1140  145.6179  158.7439 H   0  0  0  0  0  0  0  0  0  0  0  0
  151.4315  144.6730  160.8217 H   0  0  0  0  0  0  0  0  0  0  0  0
  153.7176  144.0203  159.4578 H   0  0  0  0  0  0  0  0  0  0  0  0
  153.4078  143.3689  157.8375 H   0  0  0  0  0  0  0  0  0  0  0  0
  150.5450  145.1553  157.3411 H   0  0  0  0  0  0  0  0  0  0  0  0
  149.0085  144.4123  160.9161 H   0  0  0  0  0  0  0  0  0  0  0  0
  149.3492  145.6255  159.7002 H   0  0  0  0  0  0  0  0  0  0  0  0
  148.3134  144.4062  158.4017 H   0  0  0  0  0  0  0  0  0  0  0  0
  153.0983  143.3511  161.8604 H   0  0  0  0  0  0  0  0  0  0  0  0
  1  2  2  0  0  0  0
  2 16  1  0  0  0  0
  2  3  1  0  0  0  0
  3 18  1  0  0  0  0
  3  4  1  0  0  0  0
  4  5  2  0  0  0  0
  4  6  1  0  0  0  0
  6  7  1  0  0  0  0
  6 15  1  0  0  0  0
  7 19  1  0  0  0  0
  7 14  1  0  0  0  0
  7  8  1  0  0  0  0
  8  9  1  0  0  0  0
  8 22  1  0  0  0  0
  8 23  1  0  0  0  0
  9 20  1  0  0  0  0
  9 10  1  0  0  0  0
  9 11  1  0  0  0  0
 10 24  1  0  0  0  0
 11 21  1  0  0  0  0
 11 12  1  0  0  0  0
 11 14  1  0  0  0  0
 12 13  1  0  0  0  0
 12 25  1  0  0  0  0
 12 26  1  0  0  0  0
 13 27  1  0  0  0  0
 15 16  2  0  0  0  0
 15 28  1  0  0  0  0
 16 17  1  0  0  0  0
M  END
> <s_m_source_file>
AV-unprocessed.smi

> <i_m_source_file_index>
38

> <i_lp_mmshare_version>
43012

> <i_f3d_flags>
0

> <s_epik_input>
Tz1jMVtuSF1jKD1PKW4oW2NIXWMxRilbQ0BIXTJbQ0gyXVtDQEhdKFtPSF0pW0NASF0oTzIpW0NIMl1bT0hd

> <s_epik_cmdline>
J2VwaWtfcHl0aG9uJywgJy1waCcsICc3LjAnLCAnLXRuJywgJzgnLCAnLW1hJywgJzIwMCcsICctbWV0YWxfYmluZGluZycsICctaW1hZScsICc8aW5maWxlLm1hZT4nLCAnLW9tYWUnLCAnPG91dGZpbGUubWFlPic=

> <r_lp_tautomer_probability>
0.999537

> <r_epik_Ionization_Penalty>
0.0357432

> <r_epik_Ionization_Penalty_Charging>
0.0357431

> <r_epik_Ionization_Penalty_Neutral>
1.19946e-07

> <r_epik_State_Penalty>
0.0298169

> <r_epik_Charging_Adjusted_Penalty>
0.06556

> <i_epik_Tot_Q>
0

> <i_epik_Tot_abs_Q>
0

> <r_epik_Metal_State_Penalty>
2.348

> <b_epik_Metal_Only>
0

> <s_epik_Chemistry_Notes>
This compound contains an acetal/aminal-like group ( X-CH(R)-Y where X, Y are N, S, or O) that may be acid/base labile, releasing an aldehyde.

> <s_lp_Force_Field>
OPLS_2005

> <r_lp_Energy>
29.3981

> <b_lp_Chiralities_Consistent>
1

> <s_lp_Variant>
AV-unprocessed.smi:38-4

> <Gold.Version>
5.8.1

> <Gold.Id.Protein>
6NUR|6NUR_protein|mol2

> <Gold.PLP.Fitness>
44.8421

> <Gold.PLP.PLP>
-39.3208

> <Gold.PLP.part.hbond>
-4.6615

> <Gold.PLP.part.metal>
0.0000

> <Gold.PLP.part.buried>
-0.5280

> <Gold.PLP.part.nonpolar>
-33.2310

> <Gold.PLP.part.repulsive>
0.0328

> <Gold.PLP.ligand.clash>
0.0000

> <Gold.PLP.ligand.torsion>
0.2405

> <Gold.PLP.Chemscore.Hbond>
2.0000

> <Gold.PLP.Chemscore.CHOScore>
0.0000

> <Gold.PLP.Chemscore.Metal>
0.0000

> <Gold.Chemscore.Hbonds>
donor molecule, donor type, donor heavy atom, donor atom, acceptor molecule, acceptor atom, score
      L1  H    10    24       P1  8028  0.04
      L1  H    13    27       P1  8029  1.00
      P1  H  7997  8008       L1     5  0.52

> <Gold.PLP.Chemscore.Internal.Correction>
0.0023

> <Gold.Rescore>
     Score         DG    S(hbond)    S(metal)    S(lipo)     H(rot)  DE(clash)    DE(int)     intcor
     11.54     -11.80       1.91        0.00      63.15       2.91       0.16       0.10       ----

> <Gold.Chemscore.Fitness>
11.5384

> <Gold.Chemscore.DG>
-11.8011

> <Gold.Chemscore.ZeroCoef>
-5.4800

> <Gold.Chemscore.Hbond>
1.9139

> <Gold.Chemscore.Metal>
0.0000

> <Gold.Chemscore.Lipo>
63.1511

> <Gold.Chemscore.Internal_Hbond>
0.0000

> <Gold.Chemscore.DEClash>
0.1604

> <Gold.Chemscore.DEInternal>
0.1023

> <Gold.Chemscore.Rot>
2.9141

> <Gold.Chemscore.Internal.Correction>
   9.000000E+99

> <Gold.Chemscore.Hbonds>
donor molecule, donor type, donor heavy atom, donor atom, acceptor molecule, acceptor atom, score
      L1  H    10    24       P1  8028  0.01
      L1  H    13    27       P1  8029  0.69
      P1  H  7997  8008       L1     5  0.51

> <Gold.Chemscore.Hbond.Weighted>
-6.3925

> <Gold.Chemscore.Metal.Weighted>
-0.0000

> <Gold.Chemscore.Lipo.Weighted>
-7.3887

> <Gold.Chemscore.Internal_Hbond.Weighted>
0.0000

> <Gold.Chemscore.DEClash.Weighted>
0.1604

> <Gold.Chemscore.DEInternal.Weighted>
0.1023

> <Gold.Chemscore.Rot.Weighted>
7.4601

> <Gold.Chemscore.Internal.Correction.Weighted>
   9.000000E+99

> <Gold.Protein.RotatedTorsions>
[ 6907 6896 6895 6894 ] final  101.33 input  -60.11 | X-H torsion
[ 7974 7965 7964 7962 ] final -139.74 input  175.53 | X-H torsion
[ 8008 7997 7996 7995 ] final -105.34 input   59.86 | X-H torsion
[ 10167 10162 10161 10158 ] final   70.79 input  -65.29 | X-H torsion
[ 10718 10713 10712 10709 ] final  114.82 input   66.30 | X-H torsion
[ 10763 10752 10751 10750 ] final  103.60 input  -60.55 | X-H torsion
[ 11005 11000 10999 10996 ] final  127.79 input  -57.11 | X-H torsion

> <Gold.Protein.ActiveResidues>
 VAL166  LYS551  ARG553  GLY616  TRP617  ASP618  TYR619  PRO620  LYS621  CYS622 
 ASP623  PHE694  ASN695  SER759  ASP760  ASP761  ALA762  ILE779  LEU786  VAL792 
 PHE793  MET794  SER795  GLU796  ALA797  LYS798  CYS799  TRP800  GLU811  SER814 

> <Gold.Protein.RotatedAtoms>
  152.5352  134.0142  159.7952 H   0  0  0  0  0  0  0  0  0  0  0  0  # atno 6907 bound_to 6896
  151.0340  133.5757  159.2665 H   0  0  0  0  0  0  0  0  0  0  0  0  # atno 6908 bound_to 6896
  151.2752  135.0704  159.9202 H   0  0  0  0  0  0  0  0  0  0  0  0  # atno 6909 bound_to 6896
  144.8652  140.6282  143.5302 H   0  0  0  0  0  0  0  0  0  0  0  0  # atno 7974 bound_to 7965
  154.8985  140.0413  157.1879 H   0  0  0  0  0  0  0  0  0  0  0  0  # atno 8008 bound_to 7997
  154.8468  140.2923  155.5603 H   0  0  0  0  0  0  0  0  0  0  0  0  # atno 8009 bound_to 7997
  156.2994  140.2472  156.3420 H   0  0  0  0  0  0  0  0  0  0  0  0  # atno 8010 bound_to 7997
  140.0531  144.5295  150.7349 H   0  0  0  0  0  0  0  0  0  0  0  0  # atno 10167 bound_to 10162
  157.6259  131.1004  150.7241 H   0  0  0  0  0  0  0  0  0  0  0  0  # atno 10718 bound_to 10713
  153.3548  135.3971  155.1673 H   0  0  0  0  0  0  0  0  0  0  0  0  # atno 10763 bound_to 10752
  154.8669  135.3665  154.5176 H   0  0  0  0  0  0  0  0  0  0  0  0  # atno 10764 bound_to 10752
  153.5630  135.7080  153.5599 H   0  0  0  0  0  0  0  0  0  0  0  0  # atno 10765 bound_to 10752
  139.9526  134.9619  156.8907 H   0  0  0  0  0  0  0  0  0  0  0  0  # atno 11005 bound_to 11000
  145.4235  139.1560  143.4061 LP  0  0  0  0  0  0  0  0  0  0  0  0  # atno 17320 bound_to 7965
  146.2890  140.4346  142.8746 LP  0  0  0  0  0  0  0  0  0  0  0  0  # atno 17321 bound_to 7965
  140.7207  143.2586  151.4287 LP  0  0  0  0  0  0  0  0  0  0  0  0  # atno 17342 bound_to 10162
  139.5940  144.1436  152.2122 LP  0  0  0  0  0  0  0  0  0  0  0  0  # atno 17343 bound_to 10162
  156.7589  130.4792  149.5441 LP  0  0  0  0  0  0  0  0  0  0  0  0  # atno 17370 bound_to 10713
  156.1430  130.6258  151.0494 LP  0  0  0  0  0  0  0  0  0  0  0  0  # atno 17371 bound_to 10713
  140.5683  134.0468  155.7422 LP  0  0  0  0  0  0  0  0  0  0  0  0  # atno 17394 bound_to 11000
  141.1192  133.9490  157.2763 LP  0  0  0  0  0  0  0  0  0  0  0  0  # atno 17395 bound_to 11000

$$$$
