AV-unprocessed.smi:1272|AV-procd|sdf|5337|dock2
  -GOLD-   22720 4463D 1   1.00000     0.00000
 Structure written by MMmdl.
 46 48  0  0  0  0  0  0  0  0  2 V2000
  155.3102  140.8373  160.0120 C   0  0  0  0  0  0  0  0  0  0  0  0
  154.0315  141.1752  160.7884 C   0  0  0  0  0  0  0  0  0  0  0  0
  152.9183  141.4459  159.8823 N   0  0  0  0  0  0  0  0  0  0  0  0
  152.3556  140.5744  159.0127 C   0  0  0  0  0  0  0  0  0  0  0  0
  152.6883  139.4013  158.8438 O   0  0  0  0  0  0  0  0  0  0  0  0
  151.3453  141.2104  158.3740 N   0  0  0  0  0  0  0  0  0  0  0  0
  150.4620  140.6354  157.3612 C   0  0  0  0  0  0  0  0  0  0  0  0
  150.6373  141.3286  155.9945 C   0  0  1  0  0  0  0  0  0  0  0  0
  151.8234  140.8370  155.4009 O   0  0  0  0  0  0  0  0  0  0  0  0
  149.4698  141.0104  155.0380 C   0  0  0  0  0  0  0  0  0  0  0  0
  148.2226  141.7351  155.3942 N   0  3  0  0  0  0  0  0  0  0  0  0
  147.2436  141.7613  154.2813 C   0  0  0  0  0  0  0  0  0  0  0  0
  146.0019  142.5792  154.6758 C   0  0  0  0  0  0  0  0  0  0  0  0
  145.4271  142.0347  155.8571 O   0  0  0  0  0  0  0  0  0  0  0  0
  146.3273  142.0811  156.9570 C   0  0  0  0  0  0  0  0  0  0  0  0
  147.5762  141.2427  156.6364 C   0  0  0  0  0  0  0  0  0  0  0  0
  151.2386  142.5173  158.8710 C   0  0  0  0  0  0  0  0  0  0  0  0
  150.3438  143.5563  158.5607 C   0  0  0  0  0  0  0  0  0  0  0  0
  150.4969  144.7735  159.2649 C   0  0  0  0  0  0  0  0  0  0  0  0
  151.5149  144.9255  160.2417 C   0  0  0  0  0  0  0  0  0  0  0  0
  152.4013  143.8631  160.5357 C   0  0  0  0  0  0  0  0  0  0  0  0
  152.2281  142.6651  159.8206 C   0  0  0  0  0  0  0  0  0  0  0  0
  156.1361  140.6369  160.6946 H   0  0  0  0  0  0  0  0  0  0  0  0
  155.6078  141.6617  159.3634 H   0  0  0  0  0  0  0  0  0  0  0  0
  155.1715  139.9532  159.3890 H   0  0  0  0  0  0  0  0  0  0  0  0
  153.7692  140.3525  161.4538 H   0  0  0  0  0  0  0  0  0  0  0  0
  154.2054  142.0394  161.4313 H   0  0  0  0  0  0  0  0  0  0  0  0
  150.6037  139.5566  157.2840 H   0  0  0  0  0  0  0  0  0  0  0  0
  149.4365  140.7676  157.7104 H   0  0  0  0  0  0  0  0  0  0  0  0
  150.7259  142.4054  156.1353 H   0  0  0  0  0  0  0  0  0  0  0  0
  151.9988  139.9743  155.7449 H   0  0  0  0  0  0  0  0  0  0  0  0
  149.7704  141.2733  154.0222 H   0  0  0  0  0  0  0  0  0  0  0  0
  149.2656  139.9386  155.0259 H   0  0  0  0  0  0  0  0  0  0  0  0
  147.7012  142.1985  153.3930 H   0  0  0  0  0  0  0  0  0  0  0  0
  146.9531  140.7411  154.0246 H   0  0  0  0  0  0  0  0  0  0  0  0
  146.2591  143.6281  154.8317 H   0  0  0  0  0  0  0  0  0  0  0  0
  145.2618  142.5483  153.8760 H   0  0  0  0  0  0  0  0  0  0  0  0
  146.5981  143.1147  157.1792 H   0  0  0  0  0  0  0  0  0  0  0  0
  145.8263  141.6866  157.8411 H   0  0  0  0  0  0  0  0  0  0  0  0
  147.2991  140.1941  156.5158 H   0  0  0  0  0  0  0  0  0  0  0  0
  148.2659  141.2950  157.4779 H   0  0  0  0  0  0  0  0  0  0  0  0
  149.5667  143.4349  157.8209 H   0  0  0  0  0  0  0  0  0  0  0  0
  149.8295  145.5969  159.0580 H   0  0  0  0  0  0  0  0  0  0  0  0
  151.6129  145.8630  160.7689 H   0  0  0  0  0  0  0  0  0  0  0  0
  153.1743  143.9714  161.2819 H   0  0  0  0  0  0  0  0  0  0  0  0
  148.4897  142.6954  155.5599 H   0  0  0  0  0  0  0  0  0  0  0  0
  1  2  1  0  0  0  0
  1 23  1  0  0  0  0
  1 24  1  0  0  0  0
  1 25  1  0  0  0  0
  2  3  1  0  0  0  0
  2 26  1  0  0  0  0
  2 27  1  0  0  0  0
  3 22  1  0  0  0  0
  3  4  1  0  0  0  0
  4  5  2  0  0  0  0
  4  6  1  0  0  0  0
  6  7  1  0  0  0  0
  6 17  1  0  0  0  0
  7  8  1  0  0  0  0
  7 28  1  0  0  0  0
  7 29  1  0  0  0  0
  8  9  1  0  0  0  0
  8 10  1  0  0  0  0
  8 30  1  0  0  0  0
  9 31  1  0  0  0  0
 10 11  1  0  0  0  0
 10 32  1  0  0  0  0
 10 33  1  0  0  0  0
 11 16  1  0  0  0  0
 11 12  1  0  0  0  0
 11 46  1  0  0  0  0
 12 13  1  0  0  0  0
 12 34  1  0  0  0  0
 12 35  1  0  0  0  0
 13 14  1  0  0  0  0
 13 36  1  0  0  0  0
 13 37  1  0  0  0  0
 14 15  1  0  0  0  0
 15 16  1  0  0  0  0
 15 38  1  0  0  0  0
 15 39  1  0  0  0  0
 16 40  1  0  0  0  0
 16 41  1  0  0  0  0
 17 22  2  0  0  0  0
 17 18  1  0  0  0  0
 18 19  2  0  0  0  0
 18 42  1  0  0  0  0
 19 20  1  0  0  0  0
 19 43  1  0  0  0  0
 20 21  2  0  0  0  0
 20 44  1  0  0  0  0
 21 22  1  0  0  0  0
 21 45  1  0  0  0  0
M  CHG  1  11   1
M  END
> <s_m_source_file>
AV-unprocessed.smi

> <i_m_source_file_index>
1272

> <i_lp_mmshare_version>
43012

> <i_f3d_flags>
0

> <s_epik_input>
W2NIXTFbY0hdW2NIXVtjSF1jKGMxMiluKFtDSDJdW0NIM10pYyg9TyluMltDSDJdW0NASF0oW09IXSlbQ0gyXU4zW0NIMl1bQ0gyXU9bQ0gyXVtDSDJdMw==

> <s_epik_cmdline>
J2VwaWtfcHl0aG9uJywgJy1waCcsICc3LjAnLCAnLXRuJywgJzgnLCAnLW1hJywgJzIwMCcsICctbWV0YWxfYmluZGluZycsICctaW1hZScsICc8aW5maWxlLm1hZT4nLCAnLW9tYWUnLCAnPG91dGZpbGUubWFlPic=

> <r_epik_Ionization_Penalty>
0.706332

> <r_epik_Ionization_Penalty_Charging>
0.706318

> <r_epik_Ionization_Penalty_Neutral>
1.42224e-05

> <r_epik_State_Penalty>
0.729493

> <r_epik_Charging_Adjusted_Penalty>
1.43581

> <i_epik_Tot_Q>
1

> <i_epik_Tot_abs_Q>
1

> <r_epik_Metal_State_Penalty>
0.729493

> <b_epik_Metal_Only>
0

> <s_lp_Force_Field>
OPLS_2005

> <r_lp_Energy>
52.83

> <b_lp_Chiralities_Consistent>
1

> <s_lp_Variant>
AV-unprocessed.smi:1272-4

> <Gold.Version>
5.8.1

> <Gold.Id.Protein>
6NUR|6NUR_protein|mol2

> <Gold.PLP.Fitness>
57.2838

> <Gold.PLP.PLP>
-49.6216

> <Gold.PLP.part.hbond>
-2.0000

> <Gold.PLP.part.metal>
0.0000

> <Gold.PLP.part.buried>
-7.1737

> <Gold.PLP.part.nonpolar>
-41.5972

> <Gold.PLP.part.repulsive>
0.2824

> <Gold.PLP.ligand.clash>
0.0000

> <Gold.PLP.ligand.torsion>
0.3606

> <Gold.PLP.Chemscore.Hbond>
2.7360

> <Gold.PLP.Chemscore.CHOScore>
0.0000

> <Gold.PLP.Chemscore.Metal>
0.0000

> <Gold.Chemscore.Hbonds>
donor molecule, donor type, donor heavy atom, donor atom, acceptor molecule, acceptor atom, score
      L1  H    11    46       P1  8028  1.89
      P1  H  7989  7998       L1     9  0.56

> <Gold.PLP.Chemscore.Internal.Correction>
0.1755

> <Gold.Rescore>
     Score         DG    S(hbond)    S(metal)    S(lipo)     H(rot)  DE(clash)    DE(int)     intcor
     18.94     -19.43       1.82        0.00     116.15       2.23       0.05       0.44       ----

> <Gold.Chemscore.Fitness>
18.9358

> <Gold.Chemscore.DG>
-19.4268

> <Gold.Chemscore.ZeroCoef>
-5.4800

> <Gold.Chemscore.Hbond>
1.8151

> <Gold.Chemscore.Metal>
0.0000

> <Gold.Chemscore.Lipo>
116.1510

> <Gold.Chemscore.Internal_Hbond>
0.0000

> <Gold.Chemscore.DEClash>
0.0505

> <Gold.Chemscore.DEInternal>
0.4406

> <Gold.Chemscore.Rot>
2.2287

> <Gold.Chemscore.Internal.Correction>
   9.000000E+99

> <Gold.Chemscore.Hbonds>
donor molecule, donor type, donor heavy atom, donor atom, acceptor molecule, acceptor atom, score
      L1  H    11    46       P1  8028  0.90
      P1  H  7989  7998       L1     9  0.37

> <Gold.Chemscore.Hbond.Weighted>
-6.0625

> <Gold.Chemscore.Metal.Weighted>
-0.0000

> <Gold.Chemscore.Lipo.Weighted>
-13.5897

> <Gold.Chemscore.Internal_Hbond.Weighted>
0.0000

> <Gold.Chemscore.DEClash.Weighted>
0.0505

> <Gold.Chemscore.DEInternal.Weighted>
0.4406

> <Gold.Chemscore.Rot.Weighted>
5.7054

> <Gold.Chemscore.Internal.Correction.Weighted>
   9.000000E+99

> <Gold.Protein.RotatedTorsions>
[ 6907 6896 6895 6894 ] final  -51.55 input  -60.11 | X-H torsion
[ 7974 7965 7964 7962 ] final   87.52 input  175.53 | X-H torsion
[ 8008 7997 7996 7995 ] final  -56.23 input   59.86 | X-H torsion
[ 10167 10162 10161 10158 ] final   -3.48 input  -65.29 | X-H torsion
[ 10718 10713 10712 10709 ] final   -3.93 input   66.30 | X-H torsion
[ 10763 10752 10751 10750 ] final   31.45 input  -60.55 | X-H torsion
[ 11005 11000 10999 10996 ] final -175.28 input  -57.11 | X-H torsion

> <Gold.Protein.ActiveResidues>
 VAL166  LYS551  ARG553  GLY616  TRP617  ASP618  TYR619  PRO620  LYS621  CYS622 
 ASP623  PHE694  ASN695  SER759  ASP760  ASP761  ALA762  ILE779  LEU786  VAL792 
 PHE793  MET794  SER795  GLU796  ALA797  LYS798  CYS799  TRP800  GLU811  SER814 

> <Gold.Protein.RotatedAtoms>
  150.8601  134.7950  159.7075 H   0  0  0  0  0  0  0  0  0  0  0  0  # atno 6907 bound_to 6896
  152.4641  134.5114  159.9765 H   0  0  0  0  0  0  0  0  0  0  0  0  # atno 6908 bound_to 6896
  151.5219  133.3426  159.2938 H   0  0  0  0  0  0  0  0  0  0  0  0  # atno 6909 bound_to 6896
  145.5579  139.2301  143.2476 H   0  0  0  0  0  0  0  0  0  0  0  0  # atno 7974 bound_to 7965
  154.4222  140.1134  156.5603 H   0  0  0  0  0  0  0  0  0  0  0  0  # atno 8008 bound_to 7997
  155.6318  140.3495  155.4666 H   0  0  0  0  0  0  0  0  0  0  0  0  # atno 8009 bound_to 7997
  155.9942  140.1185  157.0599 H   0  0  0  0  0  0  0  0  0  0  0  0  # atno 8010 bound_to 7997
  140.6892  143.6535  150.8329 H   0  0  0  0  0  0  0  0  0  0  0  0  # atno 10167 bound_to 10162
  156.7688  130.5293  149.5771 H   0  0  0  0  0  0  0  0  0  0  0  0  # atno 10718 bound_to 10713
  153.0315  135.6438  154.1201 H   0  0  0  0  0  0  0  0  0  0  0  0  # atno 10763 bound_to 10752
  154.0922  135.2865  155.3270 H   0  0  0  0  0  0  0  0  0  0  0  0  # atno 10764 bound_to 10752
  154.6457  135.5444  153.7905 H   0  0  0  0  0  0  0  0  0  0  0  0  # atno 10765 bound_to 10752
  140.4650  134.6219  157.4859 H   0  0  0  0  0  0  0  0  0  0  0  0  # atno 11005 bound_to 11000
  146.1871  140.6404  142.9162 LP  0  0  0  0  0  0  0  0  0  0  0  0  # atno 17320 bound_to 7965
  144.7497  140.5159  143.6810 LP  0  0  0  0  0  0  0  0  0  0  0  0  # atno 17321 bound_to 7965
  140.0246  143.5507  152.2786 LP  0  0  0  0  0  0  0  0  0  0  0  0  # atno 17342 bound_to 10162
  139.6278  144.7640  151.2602 LP  0  0  0  0  0  0  0  0  0  0  0  0  # atno 17343 bound_to 10162
  156.1291  130.6165  151.0308 LP  0  0  0  0  0  0  0  0  0  0  0  0  # atno 17370 bound_to 10713
  157.6701  131.0863  150.7634 LP  0  0  0  0  0  0  0  0  0  0  0  0  # atno 17371 bound_to 10713
  139.9921  134.6969  155.9672 LP  0  0  0  0  0  0  0  0  0  0  0  0  # atno 17394 bound_to 11000
  141.1603  133.6539  156.4298 LP  0  0  0  0  0  0  0  0  0  0  0  0  # atno 17395 bound_to 11000

$$$$
