AV-unprocessed.smi:582|AV-procd|sdf|2996|dock4
  -GOLD-   2262023503D 1   1.00000     0.00000
 Structure written by MMmdl.
 27 28  0  0  0  0  0  0  0  0  3 V2000
  154.7813  137.2402  160.9529 O   0  0  0  0  0  0  0  0  0  0  0  0
  153.6967  137.5304  160.4013 C   0  0  0  0  0  0  0  0  0  0  0  0
  152.9050  136.6620  159.9729 O   0  5  0  0  0  0  0  0  0  0  0  0
  153.3296  138.9790  160.2471 C   0  0  0  0  0  0  0  0  0  0  0  0
  154.0957  139.9934  160.8675 C   0  0  0  0  0  0  0  0  0  0  0  0
  153.7264  141.3445  160.7054 C   0  0  0  0  0  0  0  0  0  0  0  0
  152.5933  141.6644  159.9228 C   0  0  0  0  0  0  0  0  0  0  0  0
  152.1496  142.9752  159.7065 N   0  0  0  0  0  0  0  0  0  0  0  0
  152.8577  143.9588  160.5154 C   0  0  0  0  0  0  0  0  0  0  0  0
  152.2459  145.3539  160.3014 C   0  0  0  0  0  0  0  0  0  0  0  0
  152.2654  145.6739  158.9133 O   0  0  0  0  0  0  0  0  0  0  0  0
  151.5057  144.7500  158.1393 C   0  0  0  0  0  0  0  0  0  0  0  0
  152.0991  143.3396  158.2964 C   0  0  0  0  0  0  0  0  0  0  0  0
  151.8867  140.6684  159.3463 N   0  3  0  0  0  0  0  0  0  0  0  0
  152.2077  139.3623  159.4773 C   0  0  0  0  0  0  0  0  0  0  0  0
  154.9614  139.7471  161.4653 H   0  0  0  0  0  0  0  0  0  0  0  0
  154.3094  142.1205  161.1790 H   0  0  0  0  0  0  0  0  0  0  0  0
  152.7993  143.6823  161.5691 H   0  0  0  0  0  0  0  0  0  0  0  0
  153.9137  143.9730  160.2421 H   0  0  0  0  0  0  0  0  0  0  0  0
  151.2236  145.3934  160.6810 H   0  0  0  0  0  0  0  0  0  0  0  0
  152.8179  146.1040  160.8476 H   0  0  0  0  0  0  0  0  0  0  0  0
  150.4603  144.7702  158.4512 H   0  0  0  0  0  0  0  0  0  0  0  0
  151.5324  145.0558  157.0933 H   0  0  0  0  0  0  0  0  0  0  0  0
  153.1023  143.3121  157.8692 H   0  0  0  0  0  0  0  0  0  0  0  0
  151.4936  142.6158  157.7491 H   0  0  0  0  0  0  0  0  0  0  0  0
  151.5577  138.6684  158.9633 H   0  0  0  0  0  0  0  0  0  0  0  0
  151.0711  140.9120  158.7844 H   0  0  0  0  0  0  0  0  0  0  0  0
  1  2  2  0  0  0  0
  2  3  1  0  0  0  0
  2  4  1  0  0  0  0
  4 15  1  0  0  0  0
  4  5  2  0  0  0  0
  5  6  1  0  0  0  0
  5 16  1  0  0  0  0
  6  7  2  0  0  0  0
  6 17  1  0  0  0  0
  7  8  1  0  0  0  0
  7 14  1  0  0  0  0
  8 13  1  0  0  0  0
  8  9  1  0  0  0  0
  9 10  1  0  0  0  0
  9 18  1  0  0  0  0
  9 19  1  0  0  0  0
 10 11  1  0  0  0  0
 10 20  1  0  0  0  0
 10 21  1  0  0  0  0
 11 12  1  0  0  0  0
 12 13  1  0  0  0  0
 12 22  1  0  0  0  0
 12 23  1  0  0  0  0
 13 24  1  0  0  0  0
 13 25  1  0  0  0  0
 14 15  2  0  0  0  0
 14 27  1  0  0  0  0
 15 26  1  0  0  0  0
M  CHG  1   3  -1
M  CHG  1  14   1
M  END
> <s_m_source_file>
AV-unprocessed.smi

> <i_m_source_file_index>
582

> <i_lp_mmshare_version>
43012

> <i_f3d_flags>
0

> <s_epik_input>
Tz1DKFtPSF0pYzFbY0hdW2NIXWMobltjSF0xKU4yW0NIMl1bQ0gyXU9bQ0gyXVtDSDJdMg==

> <s_epik_cmdline>
J2VwaWtfcHl0aG9uJywgJy1waCcsICc3LjAnLCAnLXRuJywgJzgnLCAnLW1hJywgJzIwMCcsICctbWV0YWxfYmluZGluZycsICctaW1hZScsICc8aW5maWxlLm1hZT4nLCAnLW9tYWUnLCAnPG91dGZpbGUubWFlPic=

> <r_epik_Ionization_Penalty>
2.51473

> <r_epik_Ionization_Penalty_Charging>
2.51473

> <r_epik_Ionization_Penalty_Neutral>
3.18713e-12

> <r_epik_State_Penalty>
2.68069

> <r_epik_Charging_Adjusted_Penalty>
5.19543

> <i_epik_Tot_Q>
0

> <i_epik_Tot_abs_Q>
2

> <r_epik_Metal_State_Penalty>
6.76699

> <b_epik_Metal_Only>
0

> <s_lp_Force_Field>
OPLS_2005

> <r_lp_Energy>
18.1108

> <b_lp_Chiralities_Consistent>
1

> <s_lp_Variant>
AV-unprocessed.smi:582-2

> <Gold.Version>
5.8.1

> <Gold.Id.Protein>
6NUR|6NUR_protein|mol2

> <Gold.PLP.Fitness>
37.3520

> <Gold.PLP.PLP>
-31.4540

> <Gold.PLP.part.hbond>
-1.8128

> <Gold.PLP.part.metal>
0.0000

> <Gold.PLP.part.buried>
-5.5820

> <Gold.PLP.part.nonpolar>
-24.7462

> <Gold.PLP.part.repulsive>
0.2389

> <Gold.PLP.ligand.clash>
0.0000

> <Gold.PLP.ligand.torsion>
0.0982

> <Gold.PLP.Chemscore.Hbond>
2.0000

> <Gold.PLP.Chemscore.CHOScore>
0.0000

> <Gold.PLP.Chemscore.Metal>
0.0000

> <Gold.Chemscore.Hbonds>
donor molecule, donor type, donor heavy atom, donor atom, acceptor molecule, acceptor atom, score
      P1  H  6896  6907       L1     3  2.00

> <Gold.PLP.Chemscore.Internal.Correction>
0.0944

> <Gold.Rescore>
     Score         DG    S(hbond)    S(metal)    S(lipo)     H(rot)  DE(clash)    DE(int)     intcor
     15.31     -15.59       1.00        0.00      79.80       1.00       0.03       0.26       ----

> <Gold.Chemscore.Fitness>
15.3111

> <Gold.Chemscore.DG>
-15.5923

> <Gold.Chemscore.ZeroCoef>
-5.4800

> <Gold.Chemscore.Hbond>
0.9988

> <Gold.Chemscore.Metal>
0.0000

> <Gold.Chemscore.Lipo>
79.7967

> <Gold.Chemscore.Internal_Hbond>
0.0000

> <Gold.Chemscore.DEClash>
0.0258

> <Gold.Chemscore.DEInternal>
0.2554

> <Gold.Chemscore.Rot>
1.0000

> <Gold.Chemscore.Internal.Correction>
   9.000000E+99

> <Gold.Chemscore.Hbonds>
donor molecule, donor type, donor heavy atom, donor atom, acceptor molecule, acceptor atom, score
      P1  H  6896  6907       L1     3  1.00

> <Gold.Chemscore.Hbond.Weighted>
-3.3361

> <Gold.Chemscore.Metal.Weighted>
-0.0000

> <Gold.Chemscore.Lipo.Weighted>
-9.3362

> <Gold.Chemscore.Internal_Hbond.Weighted>
0.0000

> <Gold.Chemscore.DEClash.Weighted>
0.0258

> <Gold.Chemscore.DEInternal.Weighted>
0.2554

> <Gold.Chemscore.Rot.Weighted>
2.5600

> <Gold.Chemscore.Internal.Correction.Weighted>
   9.000000E+99

> <Gold.Protein.RotatedTorsions>
[ 6907 6896 6895 6894 ] final   35.58 input  -60.11 | X-H torsion
[ 7974 7965 7964 7962 ] final  -19.38 input  175.53 | X-H torsion
[ 8008 7997 7996 7995 ] final   35.12 input   59.86 | X-H torsion
[ 10167 10162 10161 10158 ] final  -34.18 input  -65.29 | X-H torsion
[ 10718 10713 10712 10709 ] final -167.55 input   66.30 | X-H torsion
[ 10763 10752 10751 10750 ] final   70.66 input  -60.55 | X-H torsion
[ 11005 11000 10999 10996 ] final  -52.12 input  -57.11 | X-H torsion

> <Gold.Protein.ActiveResidues>
 VAL166  LYS551  ARG553  GLY616  TRP617  ASP618  TYR619  PRO620  LYS621  CYS622 
 ASP623  PHE694  ASN695  SER759  ASP760  ASP761  ALA762  ILE779  LEU786  VAL792 
 PHE793  MET794  SER795  GLU796  ALA797  LYS798  CYS799  TRP800  GLU811  SER814 

> <Gold.Protein.RotatedAtoms>
  152.1181  134.9225  160.0563 H   0  0  0  0  0  0  0  0  0  0  0  0  # atno 6907 bound_to 6896
  152.0377  133.3959  159.4332 H   0  0  0  0  0  0  0  0  0  0  0  0  # atno 6908 bound_to 6896
  150.6847  134.3371  159.4895 H   0  0  0  0  0  0  0  0  0  0  0  0  # atno 6909 bound_to 6896
  146.1844  140.4054  142.8482 H   0  0  0  0  0  0  0  0  0  0  0  0  # atno 7974 bound_to 7965
  155.1659  140.3287  155.4402 H   0  0  0  0  0  0  0  0  0  0  0  0  # atno 8008 bound_to 7997
  156.2527  140.1952  156.6715 H   0  0  0  0  0  0  0  0  0  0  0  0  # atno 8009 bound_to 7997
  154.6372  140.0575  156.9788 H   0  0  0  0  0  0  0  0  0  0  0  0  # atno 8010 bound_to 7997
  140.7190  143.3567  151.2046 H   0  0  0  0  0  0  0  0  0  0  0  0  # atno 10167 bound_to 10162
  156.6840  130.9133  151.3061 H   0  0  0  0  0  0  0  0  0  0  0  0  # atno 10718 bound_to 10713
  153.0354  135.5165  154.7475 H   0  0  0  0  0  0  0  0  0  0  0  0  # atno 10763 bound_to 10752
  154.6456  135.2918  155.0052 H   0  0  0  0  0  0  0  0  0  0  0  0  # atno 10764 bound_to 10752
  154.0955  135.6644  153.4912 H   0  0  0  0  0  0  0  0  0  0  0  0  # atno 10765 bound_to 10752
  141.0907  133.6633  156.3978 H   0  0  0  0  0  0  0  0  0  0  0  0  # atno 11005 bound_to 11000
  144.8371  140.6799  143.6253 LP  0  0  0  0  0  0  0  0  0  0  0  0  # atno 17320 bound_to 7965
  145.3982  139.1603  143.4192 LP  0  0  0  0  0  0  0  0  0  0  0  0  # atno 17321 bound_to 7965
  139.7110  143.9377  152.2947 LP  0  0  0  0  0  0  0  0  0  0  0  0  # atno 17342 bound_to 10162
  139.9102  144.6861  150.8570 LP  0  0  0  0  0  0  0  0  0  0  0  0  # atno 17343 bound_to 10162
  157.7033  130.9357  150.0852 LP  0  0  0  0  0  0  0  0  0  0  0  0  # atno 17370 bound_to 10713
  156.1846  130.3651  149.8990 LP  0  0  0  0  0  0  0  0  0  0  0  0  # atno 17371 bound_to 10713
  140.5257  134.6261  157.5333 LP  0  0  0  0  0  0  0  0  0  0  0  0  # atno 17394 bound_to 11000
  139.9733  134.7257  155.9998 LP  0  0  0  0  0  0  0  0  0  0  0  0  # atno 17395 bound_to 11000

$$$$
