AV-unprocessed.smi:2718|AV-procd|sdf|10489|dock3
  -GOLD-   2272014533D 1   1.00000     0.00000
 Structure written by MMmdl.
 47 48  0  0  0  0  0  0  0  0  1 V2000
  152.2188  144.1769  160.0637 C   0  0  0  0  0  0  0  0  0  0  0  0
  152.3107  142.7276  159.6289 C   0  0  0  0  0  0  0  0  0  0  0  0
  153.1516  141.8452  160.5348 C   0  0  0  0  0  0  0  0  0  0  0  0
  151.6897  142.2809  158.5206 C   0  0  0  0  0  0  0  0  0  0  0  0
  151.7118  140.8934  157.9872 C   0  0  1  0  0  0  0  0  0  0  0  0
  150.4619  140.0343  158.0233 C   0  0  2  0  0  0  0  0  0  0  0  0
  150.5943  138.5845  158.3708 C   0  0  0  0  0  0  0  0  0  0  0  0
  151.6656  137.9774  158.3775 O   0  0  0  0  0  0  0  0  0  0  0  0
  149.4307  138.0074  158.7044 N   0  0  0  0  0  0  0  0  0  0  0  0
  149.2693  136.6254  159.1468 C   0  0  0  0  0  0  0  0  0  0  0  0
  147.7896  136.2298  159.3512 C   0  0  2  0  0  0  0  0  0  0  0  0
  146.8527  137.0412  158.4442 C   0  0  0  0  0  0  0  0  0  0  0  0
  147.3642  136.3004  160.7944 C   0  0  0  0  0  0  0  0  0  0  0  0
  147.2768  137.4468  161.4826 N   0  0  0  0  0  0  0  0  0  0  0  0
  146.8820  137.0907  162.7561 N   0  0  0  0  0  0  0  0  0  0  0  0
  146.7702  135.7640  162.7129 C   0  0  0  0  0  0  0  0  0  0  0  0
  147.0545  135.2079  161.5258 N   0  0  0  0  0  0  0  0  0  0  0  0
  147.0292  133.8045  161.1627 C   0  0  0  0  0  0  0  0  0  0  0  0
  151.0046  140.5351  156.6896 C   0  0  0  0  0  0  0  0  0  0  0  0
  150.1626  141.5537  155.9357 C   0  0  0  0  0  0  0  0  0  0  0  0
  151.7257  139.6386  155.6898 C   0  0  0  0  0  0  0  0  0  0  0  0
  151.7786  144.2464  161.0587 H   0  0  0  0  0  0  0  0  0  0  0  0
  151.6049  144.7638  159.3797 H   0  0  0  0  0  0  0  0  0  0  0  0
  153.2124  144.6245  160.0962 H   0  0  0  0  0  0  0  0  0  0  0  0
  154.1829  142.1980  160.5490 H   0  0  0  0  0  0  0  0  0  0  0  0
  153.1577  140.8037  160.2151 H   0  0  0  0  0  0  0  0  0  0  0  0
  152.7660  141.8782  161.5538 H   0  0  0  0  0  0  0  0  0  0  0  0
  151.1063  142.9821  157.9418 H   0  0  0  0  0  0  0  0  0  0  0  0
  152.6608  140.4015  158.1944 H   0  0  0  0  0  0  0  0  0  0  0  0
  149.5485  140.5132  158.3748 H   0  0  0  0  0  0  0  0  0  0  0  0
  148.5964  138.5758  158.6770 H   0  0  0  0  0  0  0  0  0  0  0  0
  149.7148  135.9903  158.3806 H   0  0  0  0  0  0  0  0  0  0  0  0
  149.8435  136.4539  160.0588 H   0  0  0  0  0  0  0  0  0  0  0  0
  147.6970  135.1944  159.0251 H   0  0  0  0  0  0  0  0  0  0  0  0
  145.8224  136.6969  158.5382 H   0  0  0  0  0  0  0  0  0  0  0  0
  147.1394  136.9435  157.3968 H   0  0  0  0  0  0  0  0  0  0  0  0
  146.8743  138.1021  158.6963 H   0  0  0  0  0  0  0  0  0  0  0  0
  146.4739  135.1821  163.5732 H   0  0  0  0  0  0  0  0  0  0  0  0
  146.6762  133.2060  162.0029 H   0  0  0  0  0  0  0  0  0  0  0  0
  148.0320  133.4746  160.8916 H   0  0  0  0  0  0  0  0  0  0  0  0
  146.3583  133.6537  160.3168 H   0  0  0  0  0  0  0  0  0  0  0  0
  149.4470  141.0467  155.2876 H   0  0  0  0  0  0  0  0  0  0  0  0
  150.7969  142.1932  155.3214 H   0  0  0  0  0  0  0  0  0  0  0  0
  149.6041  142.1885  156.6241 H   0  0  0  0  0  0  0  0  0  0  0  0
  151.0181  138.9631  155.2089 H   0  0  0  0  0  0  0  0  0  0  0  0
  152.5033  139.0451  156.1690 H   0  0  0  0  0  0  0  0  0  0  0  0
  152.2075  140.2407  154.9188 H   0  0  0  0  0  0  0  0  0  0  0  0
  1  2  1  0  0  0  0
  1 22  1  0  0  0  0
  1 23  1  0  0  0  0
  1 24  1  0  0  0  0
  2  3  1  0  0  0  0
  2  4  2  0  0  0  0
  3 25  1  0  0  0  0
  3 26  1  0  0  0  0
  3 27  1  0  0  0  0
  4  5  1  0  0  0  0
  4 28  1  0  0  0  0
  5 19  1  0  0  0  0
  5  6  1  0  0  0  0
  5 29  1  0  0  0  0
  6  7  1  0  0  0  0
  6 19  1  0  0  0  0
  6 30  1  0  0  0  0
  7  8  2  0  0  0  0
  7  9  1  0  0  0  0
  9 10  1  0  0  0  0
  9 31  1  0  0  0  0
 10 11  1  0  0  0  0
 10 32  1  0  0  0  0
 10 33  1  0  0  0  0
 11 12  1  0  0  0  0
 11 13  1  0  0  0  0
 11 34  1  0  0  0  0
 12 35  1  0  0  0  0
 12 36  1  0  0  0  0
 12 37  1  0  0  0  0
 13 17  1  0  0  0  0
 13 14  2  0  0  0  0
 14 15  1  0  0  0  0
 15 16  2  0  0  0  0
 16 17  1  0  0  0  0
 16 38  1  0  0  0  0
 17 18  1  0  0  0  0
 18 39  1  0  0  0  0
 18 40  1  0  0  0  0
 18 41  1  0  0  0  0
 19 20  1  0  0  0  0
 19 21  1  0  0  0  0
 20 42  1  0  0  0  0
 20 43  1  0  0  0  0
 20 44  1  0  0  0  0
 21 45  1  0  0  0  0
 21 46  1  0  0  0  0
 21 47  1  0  0  0  0
M  END
> <s_m_source_file>
AV-unprocessed.smi

> <i_m_source_file_index>
2718

> <i_lp_mmshare_version>
43012

> <i_f3d_flags>
0

> <s_epik_input>
W0NIM11DKFtDSDNdKT1bQ0hdW0NAQEhdKEMxKFtDSDNdKVtDSDNdKVtDQEhdMUMoPU8pW05IXVtDSDJdW0NASF0oW0NIM10pYzJubltjSF1uMltDSDNd

> <s_epik_cmdline>
J2VwaWtfcHl0aG9uJywgJy1waCcsICc3LjAnLCAnLXRuJywgJzgnLCAnLW1hJywgJzIwMCcsICctbWV0YWxfYmluZGluZycsICctaW1hZScsICc8aW5maWxlLm1hZT4nLCAnLW9tYWUnLCAnPG91dGZpbGUubWFlPic=

> <r_lp_tautomer_probability>
1

> <r_epik_Ionization_Penalty>
0.000449586

> <r_epik_Ionization_Penalty_Charging>
0

> <r_epik_Ionization_Penalty_Neutral>
0.000449586

> <r_epik_State_Penalty>
0.000243372

> <r_epik_Charging_Adjusted_Penalty>
0.000243372

> <i_epik_Tot_Q>
0

> <i_epik_Tot_abs_Q>
0

> <r_epik_Metal_State_Penalty>
-0

> <b_epik_Metal_Only>
0

> <s_lp_Force_Field>
OPLS_2005

> <r_lp_Energy>
15.8619

> <b_lp_Chiralities_Consistent>
1

> <s_lp_Variant>
AV-unprocessed.smi:2718-4

> <Gold.Version>
5.8.1

> <Gold.Id.Protein>
6NUR|6NUR_protein|mol2

> <Gold.PLP.Fitness>
47.3979

> <Gold.PLP.PLP>
-43.6114

> <Gold.PLP.part.hbond>
-2.4907

> <Gold.PLP.part.metal>
0.0000

> <Gold.PLP.part.buried>
-4.6990

> <Gold.PLP.part.nonpolar>
-37.2562

> <Gold.PLP.part.repulsive>
0.1894

> <Gold.PLP.ligand.clash>
0.0000

> <Gold.PLP.ligand.torsion>
0.8111

> <Gold.PLP.Chemscore.Hbond>
1.7200

> <Gold.PLP.Chemscore.CHOScore>
0.0000

> <Gold.PLP.Chemscore.Metal>
0.0000

> <Gold.Chemscore.Hbonds>
donor molecule, donor type, donor heavy atom, donor atom, acceptor molecule, acceptor atom, score
      P1  H  6931  6943       L1    14  0.71
      P1  H  6934  6947       L1    14  0.91

> <Gold.PLP.Chemscore.Internal.Correction>
0.2486

> <Gold.Rescore>
     Score         DG    S(hbond)    S(metal)    S(lipo)     H(rot)  DE(clash)    DE(int)     intcor
     14.42     -15.32       1.33        0.00      88.96       1.95       0.15       0.76       ----

> <Gold.Chemscore.Fitness>
14.4184

> <Gold.Chemscore.DG>
-15.3222

> <Gold.Chemscore.ZeroCoef>
-5.4800

> <Gold.Chemscore.Hbond>
1.3276

> <Gold.Chemscore.Metal>
0.0000

> <Gold.Chemscore.Lipo>
88.9616

> <Gold.Chemscore.Internal_Hbond>
0.0000

> <Gold.Chemscore.DEClash>
0.1484

> <Gold.Chemscore.DEInternal>
0.7554

> <Gold.Chemscore.Rot>
1.9533

> <Gold.Chemscore.Internal.Correction>
   9.000000E+99

> <Gold.Chemscore.Hbonds>
donor molecule, donor type, donor heavy atom, donor atom, acceptor molecule, acceptor atom, score
      P1  H  6931  6943       L1    14  0.14
      P1  H  6934  6947       L1    14  0.88

> <Gold.Chemscore.Hbond.Weighted>
-4.4343

> <Gold.Chemscore.Metal.Weighted>
-0.0000

> <Gold.Chemscore.Lipo.Weighted>
-10.4085

> <Gold.Chemscore.Internal_Hbond.Weighted>
0.0000

> <Gold.Chemscore.DEClash.Weighted>
0.1484

> <Gold.Chemscore.DEInternal.Weighted>
0.7554

> <Gold.Chemscore.Rot.Weighted>
5.0005

> <Gold.Chemscore.Internal.Correction.Weighted>
   9.000000E+99

> <Gold.Protein.RotatedTorsions>
[ 6907 6896 6895 6894 ] final  141.62 input  -60.11 | X-H torsion
[ 7974 7965 7964 7962 ] final  -99.60 input  175.53 | X-H torsion
[ 8008 7997 7996 7995 ] final   83.02 input   59.86 | X-H torsion
[ 10167 10162 10161 10158 ] final  -16.31 input  -65.29 | X-H torsion
[ 10718 10713 10712 10709 ] final  -62.02 input   66.30 | X-H torsion
[ 10763 10752 10751 10750 ] final  116.38 input  -60.55 | X-H torsion
[ 11005 11000 10999 10996 ] final   94.91 input  -57.11 | X-H torsion

> <Gold.Protein.ActiveResidues>
 VAL166  LYS551  ARG553  GLY616  TRP617  ASP618  TYR619  PRO620  LYS621  CYS622 
 ASP623  PHE694  ASN695  SER759  ASP760  ASP761  ALA762  ILE779  LEU786  VAL792 
 PHE793  MET794  SER795  GLU796  ALA797  LYS798  CYS799  TRP800  GLU811  SER814 

> <Gold.Protein.RotatedAtoms>
  152.2287  133.5041  159.5203 H   0  0  0  0  0  0  0  0  0  0  0  0  # atno 6907 bound_to 6896
  150.7031  134.1245  159.4056 H   0  0  0  0  0  0  0  0  0  0  0  0  # atno 6908 bound_to 6896
  151.9166  135.0316  160.0569 H   0  0  0  0  0  0  0  0  0  0  0  0  # atno 6909 bound_to 6896
  145.3055  140.9388  143.2799 H   0  0  0  0  0  0  0  0  0  0  0  0  # atno 7974 bound_to 7965
  155.9184  140.3423  155.6153 H   0  0  0  0  0  0  0  0  0  0  0  0  # atno 8008 bound_to 7997
  155.7303  140.0794  157.2310 H   0  0  0  0  0  0  0  0  0  0  0  0  # atno 8009 bound_to 7997
  154.4066  140.1589  156.2489 H   0  0  0  0  0  0  0  0  0  0  0  0  # atno 8010 bound_to 7997
  140.7232  143.5129  150.9728 H   0  0  0  0  0  0  0  0  0  0  0  0  # atno 10167 bound_to 10162
  156.0883  130.4204  150.1076 H   0  0  0  0  0  0  0  0  0  0  0  0  # atno 10718 bound_to 10713
  153.5364  135.3568  155.2699 H   0  0  0  0  0  0  0  0  0  0  0  0  # atno 10763 bound_to 10752
  154.8722  135.4080  154.3093 H   0  0  0  0  0  0  0  0  0  0  0  0  # atno 10764 bound_to 10752
  153.3792  135.7067  153.6646 H   0  0  0  0  0  0  0  0  0  0  0  0  # atno 10765 bound_to 10752
  139.8794  134.8871  156.3933 H   0  0  0  0  0  0  0  0  0  0  0  0  # atno 11005 bound_to 11000
  144.9058  139.4590  143.6610 LP  0  0  0  0  0  0  0  0  0  0  0  0  # atno 17320 bound_to 7965
  146.3137  139.7839  142.9000 LP  0  0  0  0  0  0  0  0  0  0  0  0  # atno 17321 bound_to 7965
  139.8843  143.7032  152.3153 LP  0  0  0  0  0  0  0  0  0  0  0  0  # atno 17342 bound_to 10162
  139.7326  144.7579  151.0778 LP  0  0  0  0  0  0  0  0  0  0  0  0  # atno 17343 bound_to 10162
  156.9092  130.9646  151.3565 LP  0  0  0  0  0  0  0  0  0  0  0  0  # atno 17370 bound_to 10713
  157.6024  130.8522  149.8822 LP  0  0  0  0  0  0  0  0  0  0  0  0  # atno 17371 bound_to 10713
  140.9318  133.7574  156.0034 LP  0  0  0  0  0  0  0  0  0  0  0  0  # atno 17394 bound_to 11000
  140.8322  134.3165  157.5344 LP  0  0  0  0  0  0  0  0  0  0  0  0  # atno 17395 bound_to 11000

$$$$
