AV-unprocessed.smi:2735|AV-procd|sdf|10542|dock8
  -GOLD-   2272014593D 1   1.00000     0.00000
 Structure written by MMmdl.
 42 42  0  0  0  0  0  0  0  0  2 V2000
  153.7805  140.5813  161.0280 C   0  0  0  0  0  0  0  0  0  0  0  0
  153.0963  141.8082  160.5014 C   0  0  0  0  0  0  0  0  0  0  0  0
  153.0654  143.1110  161.0698 C   0  0  0  0  0  0  0  0  0  0  0  0
  152.2995  143.8396  160.2041 C   0  0  0  0  0  0  0  0  0  0  0  0
  151.8830  145.2727  160.2736 C   0  0  0  0  0  0  0  0  0  0  0  0
  151.9262  142.9886  159.1755 N   0  0  0  0  0  0  0  0  0  0  0  0
  151.0499  143.2547  158.0326 C   0  0  1  0  0  0  0  0  0  0  0  0
  151.7842  144.0083  156.9040 C   0  0  0  0  0  0  0  0  0  0  0  0
  150.3897  141.9488  157.5559 C   0  0  0  0  0  0  0  0  0  0  0  0
  149.5931  141.3405  158.2716 O   0  0  0  0  0  0  0  0  0  0  0  0
  150.7308  141.5406  156.3239 N   0  0  0  0  0  0  0  0  0  0  0  0
  150.1865  140.3869  155.6139 C   0  0  1  0  0  0  0  0  0  0  0  0
  149.3533  140.8958  154.4121 C   0  0  0  0  0  0  0  0  0  0  0  0
  147.8537  141.1436  154.7056 C   0  0  0  0  0  0  0  0  0  0  0  0
  147.1897  142.0615  153.6663 C   0  0  0  0  0  0  0  0  0  0  0  0
  147.6664  141.7087  156.1214 C   0  0  0  0  0  0  0  0  0  0  0  0
  151.3371  139.5203  155.0776 C   0  0  0  0  0  0  0  0  0  0  0  0
  152.4999  139.9020  155.3341 O   0  0  0  0  0  0  0  0  0  0  0  0
  151.0413  138.4908  154.4290 O   0  5  0  0  0  0  0  0  0  0  0  0
  152.4125  141.7404  159.3722 N   0  0  0  0  0  0  0  0  0  0  0  0
  149.5620  139.7858  156.2768 H   0  0  0  0  0  0  0  0  0  0  0  0
  153.9149  140.6414  162.1080 H   0  0  0  0  0  0  0  0  0  0  0  0
  154.7648  140.4585  160.5765 H   0  0  0  0  0  0  0  0  0  0  0  0
  153.2013  139.6813  160.8186 H   0  0  0  0  0  0  0  0  0  0  0  0
  153.5263  143.4564  161.9834 H   0  0  0  0  0  0  0  0  0  0  0  0
  152.2801  145.7501  161.1695 H   0  0  0  0  0  0  0  0  0  0  0  0
  150.7970  145.3627  160.3026 H   0  0  0  0  0  0  0  0  0  0  0  0
  152.2490  145.8269  159.4092 H   0  0  0  0  0  0  0  0  0  0  0  0
  150.2440  143.9046  158.3740 H   0  0  0  0  0  0  0  0  0  0  0  0
  151.0982  144.2772  156.1001 H   0  0  0  0  0  0  0  0  0  0  0  0
  152.5868  143.4118  156.4678 H   0  0  0  0  0  0  0  0  0  0  0  0
  152.2252  144.9328  157.2780 H   0  0  0  0  0  0  0  0  0  0  0  0
  151.4082  142.0924  155.8193 H   0  0  0  0  0  0  0  0  0  0  0  0
  149.7848  141.8277  154.0415 H   0  0  0  0  0  0  0  0  0  0  0  0
  149.4398  140.1824  153.5909 H   0  0  0  0  0  0  0  0  0  0  0  0
  147.3304  140.1872  154.6805 H   0  0  0  0  0  0  0  0  0  0  0  0
  147.6984  143.0239  153.6044 H   0  0  0  0  0  0  0  0  0  0  0  0
  146.1468  142.2515  153.9220 H   0  0  0  0  0  0  0  0  0  0  0  0
  147.1967  141.6125  152.6732 H   0  0  0  0  0  0  0  0  0  0  0  0
  148.1546  142.6777  156.2296 H   0  0  0  0  0  0  0  0  0  0  0  0
  148.0872  141.0382  156.8713 H   0  0  0  0  0  0  0  0  0  0  0  0
  146.6099  141.8398  156.3565 H   0  0  0  0  0  0  0  0  0  0  0  0
  1  2  1  0  0  0  0
  1 22  1  0  0  0  0
  1 23  1  0  0  0  0
  1 24  1  0  0  0  0
  2 20  2  0  0  0  0
  2  3  1  0  0  0  0
  3  4  2  0  0  0  0
  3 25  1  0  0  0  0
  4  5  1  0  0  0  0
  4  6  1  0  0  0  0
  5 26  1  0  0  0  0
  5 27  1  0  0  0  0
  5 28  1  0  0  0  0
  6  7  1  0  0  0  0
  6 20  1  0  0  0  0
  7  8  1  0  0  0  0
  7  9  1  0  0  0  0
  7 29  1  0  0  0  0
  8 30  1  0  0  0  0
  8 31  1  0  0  0  0
  8 32  1  0  0  0  0
  9 10  2  0  0  0  0
  9 11  1  0  0  0  0
 11 12  1  0  0  0  0
 11 33  1  0  0  0  0
 12 21  1  0  0  0  0
 12 13  1  0  0  0  0
 12 17  1  0  0  0  0
 13 14  1  0  0  0  0
 13 34  1  0  0  0  0
 13 35  1  0  0  0  0
 14 15  1  0  0  0  0
 14 16  1  0  0  0  0
 14 36  1  0  0  0  0
 15 37  1  0  0  0  0
 15 38  1  0  0  0  0
 15 39  1  0  0  0  0
 16 40  1  0  0  0  0
 16 41  1  0  0  0  0
 16 42  1  0  0  0  0
 17 18  2  0  0  0  0
 17 19  1  0  0  0  0
M  CHG  1  19  -1
M  END
> <s_m_source_file>
AV-unprocessed.smi

> <i_m_source_file_index>
2735

> <i_lp_mmshare_version>
43012

> <i_f3d_flags>
0

> <s_epik_input>
W0NIM11jMVtjSF1jKFtDSDNdKW4objEpW0NASF0oW0NIM10pQyg9TylbTkhdW0NASF0oQyg9TylbT0hdKVtDSDJdW0NIXShbQ0gzXSlbQ0gzXQ==

> <s_epik_cmdline>
J2VwaWtfcHl0aG9uJywgJy1waCcsICc3LjAnLCAnLXRuJywgJzgnLCAnLW1hJywgJzIwMCcsICctbWV0YWxfYmluZGluZycsICctaW1hZScsICc8aW5maWxlLm1hZT4nLCAnLW9tYWUnLCAnPG91dGZpbGUubWFlPic=

> <r_lp_tautomer_probability>
1

> <r_epik_Ionization_Penalty>
0.0012303

> <r_epik_Ionization_Penalty_Charging>
0.000186407

> <r_epik_Ionization_Penalty_Neutral>
0.0010439

> <r_epik_State_Penalty>
-0

> <r_epik_Charging_Adjusted_Penalty>
0.000186407

> <i_epik_Tot_Q>
-1

> <i_epik_Tot_abs_Q>
1

> <r_epik_Metal_State_Penalty>
-0

> <b_epik_Metal_Only>
0

> <s_lp_Force_Field>
OPLS_2005

> <r_lp_Energy>
6.48876

> <b_lp_Chiralities_Consistent>
1

> <s_lp_Variant>
AV-unprocessed.smi:2735-2

> <Gold.Version>
5.8.1

> <Gold.Id.Protein>
6NUR|6NUR_protein|mol2

> <Gold.PLP.Fitness>
46.5901

> <Gold.PLP.PLP>
-43.3998

> <Gold.PLP.part.hbond>
-2.0000

> <Gold.PLP.part.metal>
0.0000

> <Gold.PLP.part.buried>
-4.0082

> <Gold.PLP.part.nonpolar>
-36.5421

> <Gold.PLP.part.repulsive>
0.2977

> <Gold.PLP.ligand.clash>
0.1765

> <Gold.PLP.ligand.torsion>
1.3913

> <Gold.PLP.Chemscore.Hbond>
2.0000

> <Gold.PLP.Chemscore.CHOScore>
0.0000

> <Gold.PLP.Chemscore.Metal>
0.0000

> <Gold.Chemscore.Hbonds>
donor molecule, donor type, donor heavy atom, donor atom, acceptor molecule, acceptor atom, score
      P1  H  7997  8010       L1    18  1.98

> <Gold.PLP.Chemscore.Internal.Correction>
0.1494

> <Gold.Rescore>
     Score         DG    S(hbond)    S(metal)    S(lipo)     H(rot)  DE(clash)    DE(int)     intcor
     13.53     -15.78       1.00        0.00     108.45       2.24       0.28       1.96       ----

> <Gold.Chemscore.Fitness>
13.5347

> <Gold.Chemscore.DG>
-15.7756

> <Gold.Chemscore.ZeroCoef>
-5.4800

> <Gold.Chemscore.Hbond>
0.9997

> <Gold.Chemscore.Metal>
0.0000

> <Gold.Chemscore.Lipo>
108.4451

> <Gold.Chemscore.Internal_Hbond>
0.0000

> <Gold.Chemscore.DEClash>
0.2844

> <Gold.Chemscore.DEInternal>
1.9564

> <Gold.Chemscore.Rot>
2.2388

> <Gold.Chemscore.Internal.Correction>
   9.000000E+99

> <Gold.Chemscore.Hbonds>
donor molecule, donor type, donor heavy atom, donor atom, acceptor molecule, acceptor atom, score
      P1  H  7997  8010       L1    18  0.92

> <Gold.Chemscore.Hbond.Weighted>
-3.3389

> <Gold.Chemscore.Metal.Weighted>
-0.0000

> <Gold.Chemscore.Lipo.Weighted>
-12.6881

> <Gold.Chemscore.Internal_Hbond.Weighted>
0.0000

> <Gold.Chemscore.DEClash.Weighted>
0.2844

> <Gold.Chemscore.DEInternal.Weighted>
1.9564

> <Gold.Chemscore.Rot.Weighted>
5.7314

> <Gold.Chemscore.Internal.Correction.Weighted>
   9.000000E+99

> <Gold.Protein.RotatedTorsions>
[ 6907 6896 6895 6894 ] final  -53.14 input  -60.11 | X-H torsion
[ 7974 7965 7964 7962 ] final  115.03 input  175.53 | X-H torsion
[ 8008 7997 7996 7995 ] final   92.82 input   59.86 | X-H torsion
[ 10167 10162 10161 10158 ] final  137.35 input  -65.29 | X-H torsion
[ 10718 10713 10712 10709 ] final  -14.72 input   66.30 | X-H torsion
[ 10763 10752 10751 10750 ] final  -65.01 input  -60.55 | X-H torsion
[ 11005 11000 10999 10996 ] final -137.17 input  -57.11 | X-H torsion

> <Gold.Protein.ActiveResidues>
 VAL166  LYS551  ARG553  GLY616  TRP617  ASP618  TYR619  PRO620  LYS621  CYS622 
 ASP623  PHE694  ASN695  SER759  ASP760  ASP761  ALA762  ILE779  LEU786  VAL792 
 PHE793  MET794  SER795  GLU796  ALA797  LYS798  CYS799  TRP800  GLU811  SER814 

> <Gold.Protein.RotatedAtoms>
  150.8454  134.7761  159.6965 H   0  0  0  0  0  0  0  0  0  0  0  0  # atno 6907 bound_to 6896
  152.4532  134.5346  159.9831 H   0  0  0  0  0  0  0  0  0  0  0  0  # atno 6908 bound_to 6896
  151.5477  133.3384  159.2983 H   0  0  0  0  0  0  0  0  0  0  0  0  # atno 6909 bound_to 6896
  145.1971  139.2971  143.4338 H   0  0  0  0  0  0  0  0  0  0  0  0  # atno 7974 bound_to 7965
  156.0397  140.3320  155.7230 H   0  0  0  0  0  0  0  0  0  0  0  0  # atno 8008 bound_to 7997
  155.5762  140.0632  157.2812 H   0  0  0  0  0  0  0  0  0  0  0  0  # atno 8009 bound_to 7997
  154.4388  140.1852  156.0918 H   0  0  0  0  0  0  0  0  0  0  0  0  # atno 8010 bound_to 7997
  139.5147  144.6415  151.5557 H   0  0  0  0  0  0  0  0  0  0  0  0  # atno 10167 bound_to 10162
  156.6119  130.4852  149.6198 H   0  0  0  0  0  0  0  0  0  0  0  0  # atno 10718 bound_to 10713
  154.3387  135.6161  153.5586 H   0  0  0  0  0  0  0  0  0  0  0  0  # atno 10763 bound_to 10752
  152.9806  135.5764  154.4878 H   0  0  0  0  0  0  0  0  0  0  0  0  # atno 10764 bound_to 10752
  154.4578  135.2855  155.1712 H   0  0  0  0  0  0  0  0  0  0  0  0  # atno 10765 bound_to 10752
  140.8736  134.2020  157.4635 H   0  0  0  0  0  0  0  0  0  0  0  0  # atno 11005 bound_to 11000
  146.3425  140.2203  142.8591 LP  0  0  0  0  0  0  0  0  0  0  0  0  # atno 17320 bound_to 7965
  144.9984  140.8610  143.5296 LP  0  0  0  0  0  0  0  0  0  0  0  0  # atno 17321 bound_to 7965
  140.6183  143.9306  150.6506 LP  0  0  0  0  0  0  0  0  0  0  0  0  # atno 17342 bound_to 10162
  140.2572  143.3550  152.1355 LP  0  0  0  0  0  0  0  0  0  0  0  0  # atno 17343 bound_to 10162
  156.2383  130.6836  151.1531 LP  0  0  0  0  0  0  0  0  0  0  0  0  # atno 17370 bound_to 10713
  157.7252  131.0655  150.5964 LP  0  0  0  0  0  0  0  0  0  0  0  0  # atno 17371 bound_to 10713
  139.8714  134.9785  156.5002 LP  0  0  0  0  0  0  0  0  0  0  0  0  # atno 17394 bound_to 11000
  140.8544  133.8107  155.9201 LP  0  0  0  0  0  0  0  0  0  0  0  0  # atno 17395 bound_to 11000

$$$$
