AV-unprocessed.smi:662|AV-procd|sdf|3246|dock1
  -GOLD-   22720 0193D 1   1.00000     0.00000
 Structure written by MMmdl.
 33 34  0  0  0  0  0  0  0  0  1 V2000
  150.6262  140.0558  154.3182 O   0  0  0  0  0  0  0  0  0  0  0  0
  150.0152  139.1461  154.8803 C   0  0  0  0  0  0  0  0  0  0  0  0
  150.5744  138.3319  155.7897 N   0  0  0  0  0  0  0  0  0  0  0  0
  151.9557  138.4037  156.2593 C   0  0  0  0  0  0  0  0  0  0  0  0
  152.0519  138.6457  157.7782 C   0  0  0  0  0  0  0  0  0  0  0  0
  151.4955  139.9596  158.2244 C   0  0  0  0  0  0  0  0  0  0  0  0
  152.2141  140.8754  158.8785 N   0  0  0  0  0  0  0  0  0  0  0  0
  151.4914  142.0437  159.1439 C   0  0  0  0  0  0  0  0  0  0  0  0
  152.1522  143.1811  159.8679 C   0  0  0  0  0  0  0  0  0  0  0  0
  151.2874  144.1592  160.1380 F   0  0  0  0  0  0  0  0  0  0  0  0
  152.6740  142.7764  161.0254 F   0  0  0  0  0  0  0  0  0  0  0  0
  153.1369  143.7065  159.1397 F   0  0  0  0  0  0  0  0  0  0  0  0
  150.2002  141.9938  158.6772 C   0  0  0  0  0  0  0  0  0  0  0  0
  149.8494  140.4829  157.8850 S   0  0  0  0  0  0  0  0  0  0  0  0
  148.5361  138.8980  154.5645 C   0  0  1  0  0  0  0  0  0  0  0  0
  147.6135  139.9881  155.1359 C   0  0  0  0  0  0  0  0  0  0  0  0
  146.7496  140.4022  153.9510 C   0  0  0  0  0  0  0  0  0  0  0  0
  146.9009  139.2471  152.9640 C   0  0  0  0  0  0  0  0  0  0  0  0
  148.2908  138.8518  153.1176 N   0  0  0  0  0  0  0  0  0  0  0  0
  149.9941  137.6127  156.1964 H   0  0  0  0  0  0  0  0  0  0  0  0
  152.4420  137.4599  156.0124 H   0  0  0  0  0  0  0  0  0  0  0  0
  152.5071  139.1767  155.7214 H   0  0  0  0  0  0  0  0  0  0  0  0
  151.5277  137.8517  158.3111 H   0  0  0  0  0  0  0  0  0  0  0  0
  153.0944  138.5868  158.0928 H   0  0  0  0  0  0  0  0  0  0  0  0
  149.4376  142.7548  158.7487 H   0  0  0  0  0  0  0  0  0  0  0  0
  148.2319  137.9366  154.9829 H   0  0  0  0  0  0  0  0  0  0  0  0
  146.9976  139.5743  155.9351 H   0  0  0  0  0  0  0  0  0  0  0  0
  148.1480  140.8462  155.5471 H   0  0  0  0  0  0  0  0  0  0  0  0
  145.7110  140.5823  154.2296 H   0  0  0  0  0  0  0  0  0  0  0  0
  147.1412  141.3198  153.5096 H   0  0  0  0  0  0  0  0  0  0  0  0
  146.2520  138.4144  153.2403 H   0  0  0  0  0  0  0  0  0  0  0  0
  146.6747  139.5350  151.9371 H   0  0  0  0  0  0  0  0  0  0  0  0
  148.4682  137.9421  152.7164 H   0  0  0  0  0  0  0  0  0  0  0  0
  1  2  2  0  0  0  0
  2  3  1  0  0  0  0
  2 15  1  0  0  0  0
  3  4  1  0  0  0  0
  3 20  1  0  0  0  0
  4  5  1  0  0  0  0
  4 21  1  0  0  0  0
  4 22  1  0  0  0  0
  5  6  1  0  0  0  0
  5 23  1  0  0  0  0
  5 24  1  0  0  0  0
  6 14  1  0  0  0  0
  6  7  2  0  0  0  0
  7  8  1  0  0  0  0
  8  9  1  0  0  0  0
  8 13  2  0  0  0  0
  9 10  1  0  0  0  0
  9 11  1  0  0  0  0
  9 12  1  0  0  0  0
 13 14  1  0  0  0  0
 13 25  1  0  0  0  0
 15 19  1  0  0  0  0
 15 16  1  0  0  0  0
 15 26  1  0  0  0  0
 16 17  1  0  0  0  0
 16 27  1  0  0  0  0
 16 28  1  0  0  0  0
 17 18  1  0  0  0  0
 17 29  1  0  0  0  0
 17 30  1  0  0  0  0
 18 19  1  0  0  0  0
 18 31  1  0  0  0  0
 18 32  1  0  0  0  0
 19 33  1  0  0  0  0
M  END
> <s_m_source_file>
AV-unprocessed.smi

> <i_m_source_file_index>
662

> <i_lp_mmshare_version>
43012

> <i_f3d_flags>
0

> <s_epik_input>
W05IXTFbQ0gyXVtDSDJdW0NIMl1bQ0BIXTFDKD1PKVtOSF1bQ0gyXVtDSDJdYzJuYyhDKEYpKEYpRilbY0hdczI=

> <s_epik_cmdline>
J2VwaWtfcHl0aG9uJywgJy1waCcsICc3LjAnLCAnLXRuJywgJzgnLCAnLW1hJywgJzIwMCcsICctbWV0YWxfYmluZGluZycsICctaW1hZScsICc8aW5maWxlLm1hZT4nLCAnLW9tYWUnLCAnPG91dGZpbGUubWFlPic=

> <r_epik_Ionization_Penalty>
1.64272

> <r_epik_Ionization_Penalty_Charging>
0

> <r_epik_Ionization_Penalty_Neutral>
1.64272

> <r_epik_State_Penalty>
1.74416

> <r_epik_Charging_Adjusted_Penalty>
1.74416

> <i_epik_Tot_Q>
0

> <i_epik_Tot_abs_Q>
0

> <r_epik_Metal_State_Penalty>
1.74416

> <b_epik_Metal_Only>
0

> <s_lp_Force_Field>
OPLS_2005

> <r_lp_Energy>
17.8155

> <b_lp_Chiralities_Consistent>
1

> <s_lp_Variant>
AV-unprocessed.smi:662-4

> <Gold.Version>
5.8.1

> <Gold.Id.Protein>
6NUR|6NUR_protein|mol2

> <Gold.PLP.Fitness>
44.1430

> <Gold.PLP.PLP>
-35.9199

> <Gold.PLP.part.hbond>
-2.9346

> <Gold.PLP.part.metal>
0.0000

> <Gold.PLP.part.buried>
-5.7563

> <Gold.PLP.part.nonpolar>
-28.7655

> <Gold.PLP.part.repulsive>
0.1555

> <Gold.PLP.ligand.clash>
0.0000

> <Gold.PLP.ligand.torsion>
0.3570

> <Gold.PLP.Chemscore.Hbond>
1.9913

> <Gold.PLP.Chemscore.CHOScore>
0.9806

> <Gold.PLP.Chemscore.Metal>
0.0000

> <Gold.Chemscore.Hbonds>
donor molecule, donor type, donor heavy atom, donor atom, acceptor molecule, acceptor atom, score
      L1  H    19    33       P1  7948  1.00
      P1  H  7989  7998       L1     1  0.99

> <Gold.PLP.Chemscore.Internal.Correction>
0.0217

> <Gold.Rescore>
     Score         DG    S(hbond)    S(metal)    S(lipo)     H(rot)  DE(clash)    DE(int)     intcor
     14.60     -15.06       1.96        0.00      67.73       1.91       0.02       0.44       ----

> <Gold.Chemscore.Fitness>
14.6006

> <Gold.Chemscore.DG>
-15.0558

> <Gold.Chemscore.ZeroCoef>
-5.4800

> <Gold.Chemscore.Hbond>
1.9581

> <Gold.Chemscore.Metal>
0.0000

> <Gold.Chemscore.Lipo>
67.7285

> <Gold.Chemscore.Internal_Hbond>
0.0000

> <Gold.Chemscore.DEClash>
0.0169

> <Gold.Chemscore.DEInternal>
0.4383

> <Gold.Chemscore.Rot>
1.9095

> <Gold.Chemscore.Internal.Correction>
   9.000000E+99

> <Gold.Chemscore.Hbonds>
donor molecule, donor type, donor heavy atom, donor atom, acceptor molecule, acceptor atom, score
      L1  H    19    33       P1  7948  0.99
      P1  H  7989  7998       L1     1  0.92

> <Gold.Chemscore.Hbond.Weighted>
-6.5399

> <Gold.Chemscore.Metal.Weighted>
-0.0000

> <Gold.Chemscore.Lipo.Weighted>
-7.9242

> <Gold.Chemscore.Internal_Hbond.Weighted>
0.0000

> <Gold.Chemscore.DEClash.Weighted>
0.0169

> <Gold.Chemscore.DEInternal.Weighted>
0.4383

> <Gold.Chemscore.Rot.Weighted>
4.8883

> <Gold.Chemscore.Internal.Correction.Weighted>
   9.000000E+99

> <Gold.Protein.RotatedTorsions>
[ 6907 6896 6895 6894 ] final -109.26 input  -60.11 | X-H torsion
[ 7974 7965 7964 7962 ] final  128.10 input  175.53 | X-H torsion
[ 8008 7997 7996 7995 ] final  117.81 input   59.86 | X-H torsion
[ 10167 10162 10161 10158 ] final   33.31 input  -65.29 | X-H torsion
[ 10718 10713 10712 10709 ] final  -11.14 input   66.30 | X-H torsion
[ 10763 10752 10751 10750 ] final  -17.45 input  -60.55 | X-H torsion
[ 11005 11000 10999 10996 ] final   65.03 input  -57.11 | X-H torsion

> <Gold.Protein.ActiveResidues>
 VAL166  LYS551  ARG553  GLY616  TRP617  ASP618  TYR619  PRO620  LYS621  CYS622 
 ASP623  PHE694  ASN695  SER759  ASP760  ASP761  ALA762  ILE779  LEU786  VAL792 
 PHE793  MET794  SER795  GLU796  ALA797  LYS798  CYS799  TRP800  GLU811  SER814 

> <Gold.Protein.RotatedAtoms>
  150.7551  133.9556  159.3499 H   0  0  0  0  0  0  0  0  0  0  0  0  # atno 6907 bound_to 6896
  151.7477  135.0838  160.0335 H   0  0  0  0  0  0  0  0  0  0  0  0  # atno 6908 bound_to 6896
  152.3487  133.6116  159.5965 H   0  0  0  0  0  0  0  0  0  0  0  0  # atno 6909 bound_to 6896
  145.0432  139.3945  143.5091 H   0  0  0  0  0  0  0  0  0  0  0  0  # atno 7974 bound_to 7965
  156.2514  140.2888  156.0736 H   0  0  0  0  0  0  0  0  0  0  0  0  # atno 8008 bound_to 7997
  155.1643  140.0400  157.2866 H   0  0  0  0  0  0  0  0  0  0  0  0  # atno 8009 bound_to 7997
  154.6370  140.2513  155.7373 H   0  0  0  0  0  0  0  0  0  0  0  0  # atno 8010 bound_to 7997
  140.4419  144.1175  150.6175 H   0  0  0  0  0  0  0  0  0  0  0  0  # atno 10167 bound_to 10162
  156.6633  130.4988  149.6023 H   0  0  0  0  0  0  0  0  0  0  0  0  # atno 10718 bound_to 10713
  153.5740  135.7007  153.5492 H   0  0  0  0  0  0  0  0  0  0  0  0  # atno 10763 bound_to 10752
  153.3319  135.4045  155.1502 H   0  0  0  0  0  0  0  0  0  0  0  0  # atno 10764 bound_to 10752
  154.8628  135.3721  154.5264 H   0  0  0  0  0  0  0  0  0  0  0  0  # atno 10765 bound_to 10752
  139.9921  134.6576  156.0074 H   0  0  0  0  0  0  0  0  0  0  0  0  # atno 11005 bound_to 11000
  146.3511  140.0044  142.8673 LP  0  0  0  0  0  0  0  0  0  0  0  0  # atno 17320 bound_to 7965
  145.1620  140.9678  143.4371 LP  0  0  0  0  0  0  0  0  0  0  0  0  # atno 17321 bound_to 7965
  140.4308  143.2569  151.9598 LP  0  0  0  0  0  0  0  0  0  0  0  0  # atno 17342 bound_to 10162
  139.4790  144.5745  151.8033 LP  0  0  0  0  0  0  0  0  0  0  0  0  # atno 17343 bound_to 10162
  156.1994  130.6610  151.1150 LP  0  0  0  0  0  0  0  0  0  0  0  0  # atno 17370 bound_to 10713
  157.7102  131.0738  150.6527 LP  0  0  0  0  0  0  0  0  0  0  0  0  # atno 17371 bound_to 10713
  141.1574  133.6541  156.4206 LP  0  0  0  0  0  0  0  0  0  0  0  0  # atno 17394 bound_to 11000
  140.4889  134.6594  157.5202 LP  0  0  0  0  0  0  0  0  0  0  0  0  # atno 17395 bound_to 11000

$$$$
