AV-unprocessed.smi:609|AV-procd|sdf|3046|dock1
  -GOLD-   2262023563D 1   1.00000     0.00000
 Structure written by MMmdl.
 43 45  0  0  0  0  0  0  0  0  2 V2000
  152.7276  143.8915  161.9324 C   0  0  0  0  0  0  0  0  0  0  0  0
  152.4190  143.1217  160.6604 C   0  0  0  0  0  0  0  0  0  0  0  0
  152.4905  141.7105  160.6772 C   0  0  0  0  0  0  0  0  0  0  0  0
  152.2096  140.9569  159.5166 C   0  0  0  0  0  0  0  0  0  0  0  0
  152.2226  139.5885  159.3077 N   0  0  0  0  0  0  0  0  0  0  0  0
  151.8796  139.5090  158.0252 C   0  0  0  0  0  0  0  0  0  0  0  0
  151.6496  140.6665  157.3764 N   0  0  0  0  0  0  0  0  0  0  0  0
  151.2769  140.8262  155.9823 C   0  0  0  0  0  0  0  0  0  0  0  0
  149.7504  140.8977  155.7771 C   0  0  1  0  0  0  0  0  0  0  0  0
  149.3863  142.2617  155.7187 O   0  0  0  0  0  0  0  0  0  0  0  0
  149.2639  140.1859  154.5002 C   0  0  0  0  0  0  0  0  0  0  0  0
  147.5667  140.6431  154.0492 S   0  0  0  0  0  0  0  0  0  0  0  0
  146.9317  139.2548  153.1594 C   0  0  0  0  0  0  0  0  0  0  0  0
  147.3193  138.8623  151.9418 N   0  3  0  0  0  0  0  0  0  0  0  0
  146.6157  137.7493  151.5667 C   0  0  0  0  0  0  0  0  0  0  0  0
  145.7652  137.4566  152.6037 C   0  0  0  0  0  0  0  0  0  0  0  0
  145.9834  138.4028  153.5729 N   0  0  0  0  0  0  0  0  0  0  0  0
  145.3139  138.5087  154.8702 C   0  0  0  0  0  0  0  0  0  0  0  0
  151.8516  141.6595  158.3294 C   0  0  0  0  0  0  0  0  0  0  0  0
  151.7765  143.0635  158.3000 C   0  0  0  0  0  0  0  0  0  0  0  0
  152.0616  143.8010  159.4681 C   0  0  0  0  0  0  0  0  0  0  0  0
  151.9772  145.3164  159.4267 C   0  0  0  0  0  0  0  0  0  0  0  0
  152.9562  143.2188  162.7595 H   0  0  0  0  0  0  0  0  0  0  0  0
  151.8739  144.5026  162.2264 H   0  0  0  0  0  0  0  0  0  0  0  0
  153.5876  144.5450  161.7847 H   0  0  0  0  0  0  0  0  0  0  0  0
  152.7628  141.1927  161.5853 H   0  0  0  0  0  0  0  0  0  0  0  0
  151.7954  138.5545  157.5263 H   0  0  0  0  0  0  0  0  0  0  0  0
  151.7518  141.7323  155.6031 H   0  0  0  0  0  0  0  0  0  0  0  0
  151.6988  139.9951  155.4155 H   0  0  0  0  0  0  0  0  0  0  0  0
  149.2556  140.4556  156.6429 H   0  0  0  0  0  0  0  0  0  0  0  0
  149.0574  142.5215  156.5659 H   0  0  0  0  0  0  0  0  0  0  0  0
  149.9268  140.4086  153.6632 H   0  0  0  0  0  0  0  0  0  0  0  0
  149.2780  139.1054  154.6411 H   0  0  0  0  0  0  0  0  0  0  0  0
  146.7685  137.2613  150.6151 H   0  0  0  0  0  0  0  0  0  0  0  0
  145.0400  136.6641  152.7196 H   0  0  0  0  0  0  0  0  0  0  0  0
  144.5968  137.6947  154.9793 H   0  0  0  0  0  0  0  0  0  0  0  0
  144.7899  139.4631  154.9290 H   0  0  0  0  0  0  0  0  0  0  0  0
  146.0570  138.4448  155.6655 H   0  0  0  0  0  0  0  0  0  0  0  0
  151.5021  143.5680  157.3854 H   0  0  0  0  0  0  0  0  0  0  0  0
  151.7006  145.6730  158.4340 H   0  0  0  0  0  0  0  0  0  0  0  0
  152.9381  145.7606  159.6864 H   0  0  0  0  0  0  0  0  0  0  0  0
  151.2271  145.6760  160.1315 H   0  0  0  0  0  0  0  0  0  0  0  0
  148.0278  139.3211  151.3836 H   0  0  0  0  0  0  0  0  0  0  0  0
  1  2  1  0  0  0  0
  1 23  1  0  0  0  0
  1 24  1  0  0  0  0
  1 25  1  0  0  0  0
  2 21  1  0  0  0  0
  2  3  2  0  0  0  0
  3  4  1  0  0  0  0
  3 26  1  0  0  0  0
  4 19  2  0  0  0  0
  4  5  1  0  0  0  0
  5  6  2  0  0  0  0
  6  7  1  0  0  0  0
  6 27  1  0  0  0  0
  7  8  1  0  0  0  0
  7 19  1  0  0  0  0
  8  9  1  0  0  0  0
  8 28  1  0  0  0  0
  8 29  1  0  0  0  0
  9 10  1  0  0  0  0
  9 11  1  0  0  0  0
  9 30  1  0  0  0  0
 10 31  1  0  0  0  0
 11 12  1  0  0  0  0
 11 32  1  0  0  0  0
 11 33  1  0  0  0  0
 12 13  1  0  0  0  0
 13 17  1  0  0  0  0
 13 14  2  0  0  0  0
 14 15  1  0  0  0  0
 14 43  1  0  0  0  0
 15 16  2  0  0  0  0
 15 34  1  0  0  0  0
 16 17  1  0  0  0  0
 16 35  1  0  0  0  0
 17 18  1  0  0  0  0
 18 36  1  0  0  0  0
 18 37  1  0  0  0  0
 18 38  1  0  0  0  0
 19 20  1  0  0  0  0
 20 21  2  0  0  0  0
 20 39  1  0  0  0  0
 21 22  1  0  0  0  0
 22 40  1  0  0  0  0
 22 41  1  0  0  0  0
 22 42  1  0  0  0  0
M  CHG  1  14   1
M  END
> <s_m_source_file>
AV-unprocessed.smi

> <i_m_source_file_index>
609

> <i_lp_mmshare_version>
43012

> <i_f3d_flags>
0

> <s_epik_input>
W0NIM11jKFtjSF0xKWMoW0NIM10pW2NIXWMoYzEyKW4oW2NIXW4yKVtDSDJdW0NASF0oW09IXSlbQ0gyXVNjM25bY0hdW2NIXW4zW0NIM10=

> <s_epik_cmdline>
J2VwaWtfcHl0aG9uJywgJy1waCcsICc3LjAnLCAnLXRuJywgJzgnLCAnLW1hJywgJzIwMCcsICctbWV0YWxfYmluZGluZycsICctaW1hZScsICc8aW5maWxlLm1hZT4nLCAnLW9tYWUnLCAnPG91dGZpbGUubWFlPic=

> <r_lp_tautomer_probability>
1

> <r_epik_Ionization_Penalty>
0.215713

> <r_epik_Ionization_Penalty_Charging>
0

> <r_epik_Ionization_Penalty_Neutral>
0.215713

> <r_epik_State_Penalty>
0.19579

> <r_epik_Charging_Adjusted_Penalty>
0.19579

> <i_epik_Tot_Q>
1

> <i_epik_Tot_abs_Q>
1

> <r_epik_Metal_State_Penalty>
0.429751

> <b_epik_Metal_Only>
0

> <s_lp_Force_Field>
OPLS_2005

> <r_lp_Energy>
9.84341

> <b_lp_Chiralities_Consistent>
1

> <s_lp_Variant>
AV-unprocessed.smi:609-2

> <Gold.Version>
5.8.1

> <Gold.Id.Protein>
6NUR|6NUR_protein|mol2

> <Gold.PLP.Fitness>
48.2917

> <Gold.PLP.PLP>
-47.7378

> <Gold.PLP.part.hbond>
-2.0152

> <Gold.PLP.part.metal>
0.0000

> <Gold.PLP.part.buried>
-2.2916

> <Gold.PLP.part.nonpolar>
-43.0706

> <Gold.PLP.part.repulsive>
0.0940

> <Gold.PLP.ligand.clash>
0.0000

> <Gold.PLP.ligand.torsion>
1.2294

> <Gold.PLP.Chemscore.Hbond>
0.9760

> <Gold.PLP.Chemscore.CHOScore>
0.0000

> <Gold.PLP.Chemscore.Metal>
0.0000

> <Gold.Chemscore.Hbonds>
donor molecule, donor type, donor heavy atom, donor atom, acceptor molecule, acceptor atom, score
      L1  H    14    43       P1  7957  1.00

> <Gold.PLP.Chemscore.Internal.Correction>
0.0848

> <Gold.Rescore>
     Score         DG    S(hbond)    S(metal)    S(lipo)     H(rot)  DE(clash)    DE(int)     intcor
     15.72     -17.40       0.91        0.00     130.88       2.52       0.46       1.22       ----

> <Gold.Chemscore.Fitness>
15.7202

> <Gold.Chemscore.DG>
-17.4028

> <Gold.Chemscore.ZeroCoef>
-5.4800

> <Gold.Chemscore.Hbond>
0.9127

> <Gold.Chemscore.Metal>
0.0000

> <Gold.Chemscore.Lipo>
130.8842

> <Gold.Chemscore.Internal_Hbond>
0.0000

> <Gold.Chemscore.DEClash>
0.4618

> <Gold.Chemscore.DEInternal>
1.2208

> <Gold.Chemscore.Rot>
2.5153

> <Gold.Chemscore.Internal.Correction>
   9.000000E+99

> <Gold.Chemscore.Hbonds>
donor molecule, donor type, donor heavy atom, donor atom, acceptor molecule, acceptor atom, score
      L1  H    14    43       P1  7957  0.89

> <Gold.Chemscore.Hbond.Weighted>
-3.0485

> <Gold.Chemscore.Metal.Weighted>
-0.0000

> <Gold.Chemscore.Lipo.Weighted>
-15.3135

> <Gold.Chemscore.Internal_Hbond.Weighted>
0.0000

> <Gold.Chemscore.DEClash.Weighted>
0.4618

> <Gold.Chemscore.DEInternal.Weighted>
1.2208

> <Gold.Chemscore.Rot.Weighted>
6.4391

> <Gold.Chemscore.Internal.Correction.Weighted>
   9.000000E+99

> <Gold.Protein.RotatedTorsions>
[ 6907 6896 6895 6894 ] final  165.10 input  -60.11 | X-H torsion
[ 7974 7965 7964 7962 ] final -178.45 input  175.53 | X-H torsion
[ 8008 7997 7996 7995 ] final -111.42 input   59.86 | X-H torsion
[ 10167 10162 10161 10158 ] final   36.08 input  -65.29 | X-H torsion
[ 10718 10713 10712 10709 ] final   -4.62 input   66.30 | X-H torsion
[ 10763 10752 10751 10750 ] final  -45.60 input  -60.55 | X-H torsion
[ 11005 11000 10999 10996 ] final  133.36 input  -57.11 | X-H torsion

> <Gold.Protein.ActiveResidues>
 VAL166  LYS551  ARG553  GLY616  TRP617  ASP618  TYR619  PRO620  LYS621  CYS622 
 ASP623  PHE694  ASN695  SER759  ASP760  ASP761  ALA762  ILE779  LEU786  VAL792 
 PHE793  MET794  SER795  GLU796  ALA797  LYS798  CYS799  TRP800  GLU811  SER814 

> <Gold.Protein.RotatedAtoms>
  151.8996  133.3535  159.3825 H   0  0  0  0  0  0  0  0  0  0  0  0  # atno 6907 bound_to 6896
  150.7083  134.4841  159.5494 H   0  0  0  0  0  0  0  0  0  0  0  0  # atno 6908 bound_to 6896
  152.2427  134.8212  160.0509 H   0  0  0  0  0  0  0  0  0  0  0  0  # atno 6909 bound_to 6896
  144.7131  140.0867  143.6423 H   0  0  0  0  0  0  0  0  0  0  0  0  # atno 7974 bound_to 7965
  154.9895  140.0395  157.2313 H   0  0  0  0  0  0  0  0  0  0  0  0  # atno 8008 bound_to 7997
  154.7641  140.2790  155.6168 H   0  0  0  0  0  0  0  0  0  0  0  0  # atno 8009 bound_to 7997
  156.2909  140.2623  156.2427 H   0  0  0  0  0  0  0  0  0  0  0  0  # atno 8010 bound_to 7997
  140.4162  144.1524  150.6143 H   0  0  0  0  0  0  0  0  0  0  0  0  # atno 10167 bound_to 10162
  156.7587  130.5262  149.5789 H   0  0  0  0  0  0  0  0  0  0  0  0  # atno 10718 bound_to 10713
  154.0311  135.6656  153.4781 H   0  0  0  0  0  0  0  0  0  0  0  0  # atno 10763 bound_to 10752
  153.0540  135.5067  154.7932 H   0  0  0  0  0  0  0  0  0  0  0  0  # atno 10764 bound_to 10752
  154.6877  135.3056  154.9489 H   0  0  0  0  0  0  0  0  0  0  0  0  # atno 10765 bound_to 10752
  139.9847  134.9536  156.9713 H   0  0  0  0  0  0  0  0  0  0  0  0  # atno 11005 bound_to 11000
  145.9655  139.2831  143.1130 LP  0  0  0  0  0  0  0  0  0  0  0  0  # atno 17320 bound_to 7965
  145.9174  140.9139  143.0423 LP  0  0  0  0  0  0  0  0  0  0  0  0  # atno 17321 bound_to 7965
  140.4584  143.2458  151.9253 LP  0  0  0  0  0  0  0  0  0  0  0  0  # atno 17342 bound_to 10162
  139.4782  144.5492  151.8412 LP  0  0  0  0  0  0  0  0  0  0  0  0  # atno 17343 bound_to 10162
  156.1353  130.6207  151.0392 LP  0  0  0  0  0  0  0  0  0  0  0  0  # atno 17370 bound_to 10713
  157.6744  131.0854  150.7530 LP  0  0  0  0  0  0  0  0  0  0  0  0  # atno 17371 bound_to 10713
  140.5027  134.1081  155.7253 LP  0  0  0  0  0  0  0  0  0  0  0  0  # atno 17394 bound_to 11000
  141.1514  133.8962  157.2089 LP  0  0  0  0  0  0  0  0  0  0  0  0  # atno 17395 bound_to 11000

$$$$
