AV-unprocessed.smi:3111|AV-procd|sdf|11833|dock3
  -GOLD-   2272017203D 1   1.00000     0.00000
 Structure written by MMmdl.
 29 29  0  0  0  0  0  0  0  0  1 V2000
  152.7216  138.5199  155.0838 C   0  0  0  0  0  0  0  0  0  0  0  0
  151.9995  139.4058  155.9839 N   0  0  0  0  0  0  0  0  0  0  0  0
  150.9505  140.1569  155.6210 C   0  0  0  0  0  0  0  0  0  0  0  0
  150.4873  140.1578  154.4792 O   0  0  0  0  0  0  0  0  0  0  0  0
  150.3255  141.0195  156.7252 C   0  0  0  0  0  0  0  0  0  0  0  0
  151.2851  141.9343  157.3376 N   0  0  0  0  0  0  0  0  0  0  0  0
  151.0305  142.7377  158.3832 C   0  0  0  0  0  0  0  0  0  0  0  0
  149.9202  142.8244  158.9094 O   0  0  0  0  0  0  0  0  0  0  0  0
  152.2205  143.5520  158.9150 C   0  0  1  0  0  0  0  0  0  0  0  0
  151.9919  145.0735  158.8386 C   0  0  0  0  0  0  0  0  0  0  0  0
  152.5516  143.1359  160.2709 N   0  0  0  0  0  0  0  0  0  0  0  0
  152.3630  143.8695  161.4361 C   0  0  0  0  0  0  0  0  0  0  0  0
  152.8262  143.0920  162.4731 C   0  0  0  0  0  0  0  0  0  0  0  0
  153.3046  141.8829  161.9754 N   0  0  0  0  0  0  0  0  0  0  0  0
  153.1105  141.9811  160.6667 C   0  0  0  0  0  0  0  0  0  0  0  0
  153.5257  138.0180  155.6219 H   0  0  0  0  0  0  0  0  0  0  0  0
  153.1619  139.0804  154.2581 H   0  0  0  0  0  0  0  0  0  0  0  0
  152.0581  137.7579  154.6731 H   0  0  0  0  0  0  0  0  0  0  0  0
  152.3197  139.4554  156.9403 H   0  0  0  0  0  0  0  0  0  0  0  0
  149.5194  141.6099  156.2892 H   0  0  0  0  0  0  0  0  0  0  0  0
  149.8719  140.3825  157.4870 H   0  0  0  0  0  0  0  0  0  0  0  0
  152.2257  141.9184  156.9707 H   0  0  0  0  0  0  0  0  0  0  0  0
  153.0774  143.3180  158.2811 H   0  0  0  0  0  0  0  0  0  0  0  0
  151.7689  145.3888  157.8187 H   0  0  0  0  0  0  0  0  0  0  0  0
  152.8818  145.6156  159.1600 H   0  0  0  0  0  0  0  0  0  0  0  0
  151.1649  145.3930  159.4741 H   0  0  0  0  0  0  0  0  0  0  0  0
  151.9275  144.8579  161.4322 H   0  0  0  0  0  0  0  0  0  0  0  0
  152.8533  143.3090  163.5307 H   0  0  0  0  0  0  0  0  0  0  0  0
  153.3844  141.1951  159.9783 H   0  0  0  0  0  0  0  0  0  0  0  0
  1  2  1  0  0  0  0
  1 16  1  0  0  0  0
  1 17  1  0  0  0  0
  1 18  1  0  0  0  0
  2  3  1  0  0  0  0
  2 19  1  0  0  0  0
  3  4  2  0  0  0  0
  3  5  1  0  0  0  0
  5  6  1  0  0  0  0
  5 20  1  0  0  0  0
  5 21  1  0  0  0  0
  6  7  1  0  0  0  0
  6 22  1  0  0  0  0
  7  8  2  0  0  0  0
  7  9  1  0  0  0  0
  9 10  1  0  0  0  0
  9 11  1  0  0  0  0
  9 23  1  0  0  0  0
 10 24  1  0  0  0  0
 10 25  1  0  0  0  0
 10 26  1  0  0  0  0
 11 15  1  0  0  0  0
 11 12  1  0  0  0  0
 12 13  2  0  0  0  0
 12 27  1  0  0  0  0
 13 14  1  0  0  0  0
 13 28  1  0  0  0  0
 14 15  2  0  0  0  0
 15 29  1  0  0  0  0
M  END
> <s_m_source_file>
AV-unprocessed.smi

> <i_m_source_file_index>
3111

> <i_lp_mmshare_version>
43012

> <i_f3d_flags>
0

> <s_epik_input>
W0NIM11bTkhdQyg9TylbQ0gyXVtOSF1DKD1PKVtDQEhdKFtDSDNdKW4xW2NIXVtjSF1uW2NIXTE=

> <s_epik_cmdline>
J2VwaWtfcHl0aG9uJywgJy1waCcsICc3LjAnLCAnLXRuJywgJzgnLCAnLW1hJywgJzIwMCcsICctbWV0YWxfYmluZGluZycsICctaW1hZScsICc8aW5maWxlLm1hZT4nLCAnLW9tYWUnLCAnPG91dGZpbGUubWFlPic=

> <r_lp_tautomer_probability>
1

> <r_epik_Ionization_Penalty>
0.278299

> <r_epik_Ionization_Penalty_Charging>
0.278299

> <r_epik_Ionization_Penalty_Neutral>
1.78617e-07

> <r_epik_State_Penalty>
0.270759

> <r_epik_Charging_Adjusted_Penalty>
0.549058

> <i_epik_Tot_Q>
0

> <i_epik_Tot_abs_Q>
0

> <r_epik_Metal_State_Penalty>
0.183212

> <b_epik_Metal_Only>
0

> <s_lp_Force_Field>
OPLS_2005

> <r_lp_Energy>
4.73549

> <b_lp_Chiralities_Consistent>
1

> <s_lp_Variant>
AV-unprocessed.smi:3111-2

> <Gold.Version>
5.8.1

> <Gold.Id.Protein>
6NUR|6NUR_protein|mol2

> <Gold.PLP.Fitness>
42.6727

> <Gold.PLP.PLP>
-40.3045

> <Gold.PLP.part.hbond>
-2.0000

> <Gold.PLP.part.metal>
0.0000

> <Gold.PLP.part.buried>
-5.9137

> <Gold.PLP.part.nonpolar>
-31.6141

> <Gold.PLP.part.repulsive>
0.4262

> <Gold.PLP.ligand.clash>
0.0000

> <Gold.PLP.ligand.torsion>
0.3565

> <Gold.PLP.Chemscore.Hbond>
1.0000

> <Gold.PLP.Chemscore.CHOScore>
0.0000

> <Gold.PLP.Chemscore.Metal>
0.0000

> <Gold.Chemscore.Hbonds>
donor molecule, donor type, donor heavy atom, donor atom, acceptor molecule, acceptor atom, score
      P1  H  7989  7998       L1     4  1.00

> <Gold.PLP.Chemscore.Internal.Correction>
0.0812

> <Gold.Rescore>
     Score         DG    S(hbond)    S(metal)    S(lipo)     H(rot)  DE(clash)    DE(int)     intcor
     10.24     -10.61       0.99        0.00      65.25       2.27       0.02       0.34       ----

> <Gold.Chemscore.Fitness>
10.2423

> <Gold.Chemscore.DG>
-10.6087

> <Gold.Chemscore.ZeroCoef>
-5.4800

> <Gold.Chemscore.Hbond>
0.9903

> <Gold.Chemscore.Metal>
0.0000

> <Gold.Chemscore.Lipo>
65.2515

> <Gold.Chemscore.Internal_Hbond>
0.0000

> <Gold.Chemscore.DEClash>
0.0230

> <Gold.Chemscore.DEInternal>
0.3435

> <Gold.Chemscore.Rot>
2.2709

> <Gold.Chemscore.Internal.Correction>
   9.000000E+99

> <Gold.Chemscore.Hbonds>
donor molecule, donor type, donor heavy atom, donor atom, acceptor molecule, acceptor atom, score
      P1  H  7989  7998       L1     4  0.60

> <Gold.Chemscore.Hbond.Weighted>
-3.3078

> <Gold.Chemscore.Metal.Weighted>
-0.0000

> <Gold.Chemscore.Lipo.Weighted>
-7.6344

> <Gold.Chemscore.Internal_Hbond.Weighted>
0.0000

> <Gold.Chemscore.DEClash.Weighted>
0.0230

> <Gold.Chemscore.DEInternal.Weighted>
0.3435

> <Gold.Chemscore.Rot.Weighted>
5.8135

> <Gold.Chemscore.Internal.Correction.Weighted>
   9.000000E+99

> <Gold.Protein.RotatedTorsions>
[ 6907 6896 6895 6894 ] final   65.12 input  -60.11 | X-H torsion
[ 7974 7965 7964 7962 ] final  142.81 input  175.53 | X-H torsion
[ 8008 7997 7996 7995 ] final  -85.70 input   59.86 | X-H torsion
[ 10167 10162 10161 10158 ] final   40.87 input  -65.29 | X-H torsion
[ 10718 10713 10712 10709 ] final -127.10 input   66.30 | X-H torsion
[ 10763 10752 10751 10750 ] final   98.71 input  -60.55 | X-H torsion
[ 11005 11000 10999 10996 ] final  -73.13 input  -57.11 | X-H torsion

> <Gold.Protein.ActiveResidues>
 VAL166  LYS551  ARG553  GLY616  TRP617  ASP618  TYR619  PRO620  LYS621  CYS622 
 ASP623  PHE694  ASN695  SER759  ASP760  ASP761  ALA762  ILE779  LEU786  VAL792 
 PHE793  MET794  SER795  GLU796  ALA797  LYS798  CYS799  TRP800  GLU811  SER814 

> <Gold.Protein.RotatedAtoms>
  152.4383  134.5642  159.9902 H   0  0  0  0  0  0  0  0  0  0  0  0  # atno 6907 bound_to 6896
  151.5746  133.3380  159.3004 H   0  0  0  0  0  0  0  0  0  0  0  0  # atno 6908 bound_to 6896
  150.8285  134.7562  159.6898 H   0  0  0  0  0  0  0  0  0  0  0  0  # atno 6909 bound_to 6896
  144.8975  139.5470  143.5769 H   0  0  0  0  0  0  0  0  0  0  0  0  # atno 7974 bound_to 7965
  154.6437  140.0588  156.9875 H   0  0  0  0  0  0  0  0  0  0  0  0  # atno 8008 bound_to 7997
  155.1478  140.3271  155.4419 H   0  0  0  0  0  0  0  0  0  0  0  0  # atno 8009 bound_to 7997
  156.2543  140.1953  156.6591 H   0  0  0  0  0  0  0  0  0  0  0  0  # atno 8010 bound_to 7997
  140.3699  144.2118  150.6133 H   0  0  0  0  0  0  0  0  0  0  0  0  # atno 10167 bound_to 10162
  156.1826  130.6742  151.0323 H   0  0  0  0  0  0  0  0  0  0  0  0  # atno 10718 bound_to 10713
  153.2924  135.4139  155.1179 H   0  0  0  0  0  0  0  0  0  0  0  0  # atno 10763 bound_to 10752
  154.8524  135.3521  154.5963 H   0  0  0  0  0  0  0  0  0  0  0  0  # atno 10764 bound_to 10752
  153.6385  135.7058  153.5308 H   0  0  0  0  0  0  0  0  0  0  0  0  # atno 10765 bound_to 10752
  141.1618  133.6868  156.7165 H   0  0  0  0  0  0  0  0  0  0  0  0  # atno 11005 bound_to 11000
  146.3090  139.7678  142.9034 LP  0  0  0  0  0  0  0  0  0  0  0  0  # atno 17320 bound_to 7965
  145.3674  141.0337  143.3250 LP  0  0  0  0  0  0  0  0  0  0  0  0  # atno 17321 bound_to 7965
  140.5043  143.2308  151.8631 LP  0  0  0  0  0  0  0  0  0  0  0  0  # atno 17342 bound_to 10162
  139.4805  144.5023  151.9044 LP  0  0  0  0  0  0  0  0  0  0  0  0  # atno 17343 bound_to 10162
  157.6878  131.0819  150.7194 LP  0  0  0  0  0  0  0  0  0  0  0  0  # atno 17370 bound_to 10713
  156.7251  130.4692  149.5513 LP  0  0  0  0  0  0  0  0  0  0  0  0  # atno 17371 bound_to 10713
  140.2848  134.8288  157.3965 LP  0  0  0  0  0  0  0  0  0  0  0  0  # atno 17394 bound_to 11000
  140.1400  134.4984  155.8038 LP  0  0  0  0  0  0  0  0  0  0  0  0  # atno 17395 bound_to 11000

$$$$
