AV-unprocessed.smi:1381|AV-procd|sdf|5610|dock6
  -GOLD-   22720 5223D 1   1.00000     0.00000
 Structure written by MMmdl.
 41 42  0  0  0  0  0  0  0  0  2 V2000
  150.6566  139.8398  154.9029 C   0  0  0  0  0  0  0  0  0  0  0  0
  151.0490  138.4260  154.6430 C   0  0  0  0  0  0  0  0  0  0  0  0
  150.4325  137.2308  154.8825 C   0  0  0  0  0  0  0  0  0  0  0  0
  151.3618  136.2795  154.3799 C   0  0  0  0  0  0  0  0  0  0  0  0
  151.2119  134.9461  154.4002 N   0  5  0  0  0  0  0  0  0  0  0  0
  149.9773  134.3982  154.3180 C   0  0  0  0  0  0  0  0  0  0  0  0
  148.9656  134.7841  154.9084 O   0  0  0  0  0  0  0  0  0  0  0  0
  149.9129  133.3331  153.5061 N   0  0  0  0  0  0  0  0  0  0  0  0
  148.7232  132.5330  153.2380 C   0  0  0  0  0  0  0  0  0  0  0  0
  147.8139  133.2157  152.1987 C   0  0  0  0  0  0  0  0  0  0  0  0
  146.5781  132.4971  151.8920 N   0  0  0  0  0  0  0  0  0  0  0  0
  146.7855  131.0563  151.9548 C   0  0  0  0  0  0  0  0  0  0  0  0
  145.4876  130.2758  151.6818 C   0  0  2  0  0  0  0  0  0  0  0  0
  145.7178  128.7611  151.6705 C   0  0  0  0  0  0  0  0  0  0  0  0
  144.9661  130.6562  150.4099 O   0  0  0  0  0  0  0  0  0  0  0  0
  144.7577  132.0586  150.2330 C   0  0  1  0  0  0  0  0  0  0  0  0
  143.5192  132.5520  151.0001 C   0  0  0  0  0  0  0  0  0  0  0  0
  146.0409  132.8419  150.5776 C   0  0  0  0  0  0  0  0  0  0  0  0
  152.4535  136.8467  153.8943 N   0  0  0  0  0  0  0  0  0  0  0  0
  152.2577  138.2240  154.0535 O   0  0  0  0  0  0  0  0  0  0  0  0
  151.2588  140.2652  155.7055 H   0  0  0  0  0  0  0  0  0  0  0  0
  149.6084  139.9049  155.1950 H   0  0  0  0  0  0  0  0  0  0  0  0
  150.7972  140.4513  154.0114 H   0  0  0  0  0  0  0  0  0  0  0  0
  149.4698  137.0622  155.3408 H   0  0  0  0  0  0  0  0  0  0  0  0
  150.7645  133.0534  153.0417 H   0  0  0  0  0  0  0  0  0  0  0  0
  149.0095  131.5352  152.9018 H   0  0  0  0  0  0  0  0  0  0  0  0
  148.2025  132.4059  154.1861 H   0  0  0  0  0  0  0  0  0  0  0  0
  147.5797  134.2292  152.5282 H   0  0  0  0  0  0  0  0  0  0  0  0
  148.3871  133.3279  151.2774 H   0  0  0  0  0  0  0  0  0  0  0  0
  147.5492  130.7616  151.2331 H   0  0  0  0  0  0  0  0  0  0  0  0
  147.1665  130.7823  152.9395 H   0  0  0  0  0  0  0  0  0  0  0  0
  144.7557  130.5044  152.4570 H   0  0  0  0  0  0  0  0  0  0  0  0
  146.1070  128.4167  152.6288 H   0  0  0  0  0  0  0  0  0  0  0  0
  146.4309  128.4754  150.8968 H   0  0  0  0  0  0  0  0  0  0  0  0
  144.7868  128.2271  151.4790 H   0  0  0  0  0  0  0  0  0  0  0  0
  144.5519  132.2053  149.1724 H   0  0  0  0  0  0  0  0  0  0  0  0
  143.3104  133.5960  150.7659 H   0  0  0  0  0  0  0  0  0  0  0  0
  143.6506  132.4812  152.0795 H   0  0  0  0  0  0  0  0  0  0  0  0
  142.6375  131.9701  150.7314 H   0  0  0  0  0  0  0  0  0  0  0  0
  145.8283  133.9087  150.5185 H   0  0  0  0  0  0  0  0  0  0  0  0
  146.7937  132.6357  149.8151 H   0  0  0  0  0  0  0  0  0  0  0  0
  1  2  1  0  0  0  0
  1 21  1  0  0  0  0
  1 22  1  0  0  0  0
  1 23  1  0  0  0  0
  2 20  1  0  0  0  0
  2  3  2  0  0  0  0
  3  4  1  0  0  0  0
  3 24  1  0  0  0  0
  4  5  1  0  0  0  0
  4 19  2  0  0  0  0
  5  6  1  0  0  0  0
  6  7  2  0  0  0  0
  6  8  1  0  0  0  0
  8  9  1  0  0  0  0
  8 25  1  0  0  0  0
  9 10  1  0  0  0  0
  9 26  1  0  0  0  0
  9 27  1  0  0  0  0
 10 11  1  0  0  0  0
 10 28  1  0  0  0  0
 10 29  1  0  0  0  0
 11 18  1  0  0  0  0
 11 12  1  0  0  0  0
 12 13  1  0  0  0  0
 12 30  1  0  0  0  0
 12 31  1  0  0  0  0
 13 14  1  0  0  0  0
 13 15  1  0  0  0  0
 13 32  1  0  0  0  0
 14 33  1  0  0  0  0
 14 34  1  0  0  0  0
 14 35  1  0  0  0  0
 15 16  1  0  0  0  0
 16 17  1  0  0  0  0
 16 18  1  0  0  0  0
 16 36  1  0  0  0  0
 17 37  1  0  0  0  0
 17 38  1  0  0  0  0
 17 39  1  0  0  0  0
 18 40  1  0  0  0  0
 18 41  1  0  0  0  0
 19 20  1  0  0  0  0
M  CHG  1   5  -1
M  END
> <s_m_source_file>
AV-unprocessed.smi

> <i_m_source_file_index>
1381

> <i_lp_mmshare_version>
43012

> <i_f3d_flags>
0

> <s_epik_input>
W0NIM11jMVtjSF1jKG5vMSlbTkhdQyg9TylbTkhdW0NIMl1bQ0gyXU4yW0NIMl1bQ0BASF0oW0NIM10pT1tDQEBIXShbQ0gzXSlbQ0gyXTI=

> <s_epik_cmdline>
J2VwaWtfcHl0aG9uJywgJy1waCcsICc3LjAnLCAnLXRuJywgJzgnLCAnLW1hJywgJzIwMCcsICctbWV0YWxfYmluZGluZycsICctaW1hZScsICc8aW5maWxlLm1hZT4nLCAnLW9tYWUnLCAnPG91dGZpbGUubWFlPic=

> <r_epik_Ionization_Penalty>
6.88366

> <r_epik_Ionization_Penalty_Charging>
6.57198

> <r_epik_Ionization_Penalty_Neutral>
0.311678

> <r_epik_State_Penalty>
6.77619

> <r_epik_Charging_Adjusted_Penalty>
13.3482

> <i_epik_Tot_Q>
-1

> <i_epik_Tot_abs_Q>
1

> <r_epik_Metal_State_Penalty>
2.70524

> <b_epik_Metal_Only>
1

> <s_lp_Force_Field>
OPLS_2005

> <r_lp_Energy>
15.7401

> <b_lp_Chiralities_Consistent>
1

> <s_lp_Variant>
AV-unprocessed.smi:1381-9

> <Gold.Version>
5.8.1

> <Gold.Id.Protein>
6NUR|6NUR_protein|mol2

> <Gold.PLP.Fitness>
34.1260

> <Gold.PLP.PLP>
-33.0135

> <Gold.PLP.part.hbond>
-2.3365

> <Gold.PLP.part.metal>
0.0000

> <Gold.PLP.part.buried>
-0.2317

> <Gold.PLP.part.nonpolar>
-30.8262

> <Gold.PLP.part.repulsive>
0.7654

> <Gold.PLP.ligand.clash>
0.0000

> <Gold.PLP.ligand.torsion>
0.9550

> <Gold.PLP.Chemscore.Hbond>
0.9920

> <Gold.PLP.Chemscore.CHOScore>
0.0000

> <Gold.PLP.Chemscore.Metal>
0.0000

> <Gold.PLP.Chemscore.Internal.Correction>
0.0465

> <Gold.Rescore>
     Score         DG    S(hbond)    S(metal)    S(lipo)     H(rot)  DE(clash)    DE(int)     intcor
      9.72     -12.46       0.55        0.00      77.71       1.54       0.55       2.19       ----

> <Gold.Chemscore.Fitness>
9.7229

> <Gold.Chemscore.DG>
-12.4623

> <Gold.Chemscore.ZeroCoef>
-5.4800

> <Gold.Chemscore.Hbond>
0.5494

> <Gold.Chemscore.Metal>
0.0000

> <Gold.Chemscore.Lipo>
77.7078

> <Gold.Chemscore.Internal_Hbond>
0.0000

> <Gold.Chemscore.DEClash>
0.5516

> <Gold.Chemscore.DEInternal>
2.1878

> <Gold.Chemscore.Rot>
1.5409

> <Gold.Chemscore.Internal.Correction>
   9.000000E+99

> <Gold.Chemscore.Hbond.Weighted>
-1.8351

> <Gold.Chemscore.Metal.Weighted>
-0.0000

> <Gold.Chemscore.Lipo.Weighted>
-9.0918

> <Gold.Chemscore.Internal_Hbond.Weighted>
0.0000

> <Gold.Chemscore.DEClash.Weighted>
0.5516

> <Gold.Chemscore.DEInternal.Weighted>
2.1878

> <Gold.Chemscore.Rot.Weighted>
3.9446

> <Gold.Chemscore.Internal.Correction.Weighted>
   9.000000E+99

> <Gold.Protein.RotatedTorsions>
[ 6907 6896 6895 6894 ] final    2.05 input  -60.11 | X-H torsion
[ 7974 7965 7964 7962 ] final  -45.26 input  175.53 | X-H torsion
[ 8008 7997 7996 7995 ] final  -86.05 input   59.86 | X-H torsion
[ 10167 10162 10161 10158 ] final   65.08 input  -65.29 | X-H torsion
[ 10718 10713 10712 10709 ] final -170.35 input   66.30 | X-H torsion
[ 10763 10752 10751 10750 ] final   43.32 input  -60.55 | X-H torsion
[ 11005 11000 10999 10996 ] final  -43.20 input  -57.11 | X-H torsion

> <Gold.Protein.ActiveResidues>
 VAL166  LYS551  ARG553  GLY616  TRP617  ASP618  TYR619  PRO620  LYS621  CYS622 
 ASP623  PHE694  ASN695  SER759  ASP760  ASP761  ALA762  ILE779  LEU786  VAL792 
 PHE793  MET794  SER795  GLU796  ALA797  LYS798  CYS799  TRP800  GLU811  SER814 

> <Gold.Protein.RotatedAtoms>
  151.6026  135.1046  160.0063 H   0  0  0  0  0  0  0  0  0  0  0  0  # atno 6907 bound_to 6896
  152.4250  133.7175  159.6525 H   0  0  0  0  0  0  0  0  0  0  0  0  # atno 6908 bound_to 6896
  150.8138  133.8301  159.3192 H   0  0  0  0  0  0  0  0  0  0  0  0  # atno 6909 bound_to 6896
  145.9838  140.7254  142.9350 H   0  0  0  0  0  0  0  0  0  0  0  0  # atno 7974 bound_to 7965
  154.6476  140.0583  156.9918 H   0  0  0  0  0  0  0  0  0  0  0  0  # atno 8008 bound_to 7997
  155.1421  140.3266  155.4431 H   0  0  0  0  0  0  0  0  0  0  0  0  # atno 8009 bound_to 7997
  156.2561  140.1962  156.6536 H   0  0  0  0  0  0  0  0  0  0  0  0  # atno 8010 bound_to 7997
  140.1152  144.4782  150.6953 H   0  0  0  0  0  0  0  0  0  0  0  0  # atno 10167 bound_to 10162
  156.7248  130.9284  151.3100 H   0  0  0  0  0  0  0  0  0  0  0  0  # atno 10718 bound_to 10713
  152.9863  135.6105  154.3092 H   0  0  0  0  0  0  0  0  0  0  0  0  # atno 10763 bound_to 10752
  154.2808  135.2777  155.2700 H   0  0  0  0  0  0  0  0  0  0  0  0  # atno 10764 bound_to 10752
  154.5039  135.5859  153.6609 H   0  0  0  0  0  0  0  0  0  0  0  0  # atno 10765 bound_to 10752
  141.0368  133.6796  156.2700 H   0  0  0  0  0  0  0  0  0  0  0  0  # atno 11005 bound_to 11000
  144.6869  140.2954  143.7271 LP  0  0  0  0  0  0  0  0  0  0  0  0  # atno 17320 bound_to 7965
  145.7730  139.1864  143.2201 LP  0  0  0  0  0  0  0  0  0  0  0  0  # atno 17321 bound_to 7965
  140.6903  143.2372  151.5149 LP  0  0  0  0  0  0  0  0  0  0  0  0  # atno 17342 bound_to 10162
  139.5598  144.2185  152.1672 LP  0  0  0  0  0  0  0  0  0  0  0  0  # atno 17343 bound_to 10162
  157.6883  130.9207  150.0445 LP  0  0  0  0  0  0  0  0  0  0  0  0  # atno 17370 bound_to 10713
  156.1569  130.3643  149.9356 LP  0  0  0  0  0  0  0  0  0  0  0  0  # atno 17371 bound_to 10713
  140.6308  134.5266  157.5559 LP  0  0  0  0  0  0  0  0  0  0  0  0  # atno 17394 bound_to 11000
  139.9246  134.8081  156.1107 LP  0  0  0  0  0  0  0  0  0  0  0  0  # atno 17395 bound_to 11000

$$$$
