AV-unprocessed.smi:1|AV-procd|sdf|13|dock8
  -GOLD-   2262015103D 1   1.00000     0.00000
 Structure written by MMmdl.
 57 62  0  0  0  0  0  0  0  0  1 V2000
  153.3524  142.3074  162.3477 O   0  0  0  0  0  0  0  0  0  0  0  0
  153.5567  142.2828  161.1309 C   0  0  0  0  0  0  0  0  0  0  0  0
  154.3821  141.4354  160.4034 N   0  0  0  0  0  0  0  0  0  0  0  0
  155.0553  140.5037  161.0078 C   0  0  0  0  0  0  0  0  0  0  0  0
  155.1424  140.1206  162.3521 N   0  0  0  0  0  0  0  0  0  0  0  0
  155.9320  139.0787  162.8609 C   0  0  0  0  0  0  0  0  0  0  0  0
  156.7067  138.3107  162.1427 N   0  0  0  0  0  0  0  0  0  0  0  0
  156.6569  138.6436  160.7965 C   0  0  0  0  0  0  0  0  0  0  0  0
  155.9241  139.6371  160.1816 C   0  0  0  0  0  0  0  0  0  0  0  0
  156.1499  139.6428  158.8100 N   0  0  0  0  0  0  0  0  0  0  0  0
  157.0157  138.6455  158.6543 C   0  0  0  0  0  0  0  0  0  0  0  0
  157.3735  138.0055  159.7834 N   0  0  0  0  0  0  0  0  0  0  0  0
  158.3211  136.8493  159.8674 C   0  0  2  0  0  0  0  0  0  0  0  0
  158.5805  136.3716  158.5801 O   0  0  0  0  0  0  0  0  0  0  0  0
  158.1294  135.0270  158.4385 C   0  0  1  0  0  0  0  0  0  0  0  0
  159.0111  134.2508  157.4535 C   0  0  0  0  0  0  0  0  0  0  0  0
  159.0700  134.9625  156.2287 O   0  0  0  0  0  0  0  0  0  0  0  0
  159.9975  134.6429  155.3064 C   0  0  0  0  0  0  0  0  0  0  0  0
  161.0730  134.1051  155.5782 O   0  0  0  0  0  0  0  0  0  0  0  0
  159.5872  135.0104  153.9204 C   0  0  0  0  0  0  0  0  0  0  0  0
  160.4150  134.6455  152.8328 C   0  0  0  0  0  0  0  0  0  0  0  0
  160.0560  134.9826  151.5132 C   0  0  0  0  0  0  0  0  0  0  0  0
  158.8647  135.6888  151.2650 C   0  0  0  0  0  0  0  0  0  0  0  0
  158.0326  136.0575  152.3381 C   0  0  0  0  0  0  0  0  0  0  0  0
  158.3896  135.7211  153.6585 C   0  0  0  0  0  0  0  0  0  0  0  0
  158.1355  134.4766  159.8636 C   0  0  1  0  0  0  0  0  0  0  0  0
  159.4364  134.0691  160.2553 O   0  0  0  0  0  0  0  0  0  0  0  0
  159.7083  134.6019  161.8150 S   0  0  0  0  0  0  0  0  0  0  0  0
  159.5265  133.4651  162.7304 O   0  0  0  0  0  0  0  0  0  0  0  0
  160.9224  135.4322  161.8125 O   0  0  0  0  0  0  0  0  0  0  0  0
  158.3818  135.6089  161.9622 O   0  0  0  0  0  0  0  0  0  0  0  0
  157.7415  135.6966  160.7011 C   0  0  1  0  0  0  0  0  0  0  0  0
  152.8193  143.2633  160.2786 C   0  0  0  0  0  0  0  0  0  0  0  0
  152.0772  144.3036  160.8770 C   0  0  0  0  0  0  0  0  0  0  0  0
  151.3765  145.2240  160.0730 C   0  0  0  0  0  0  0  0  0  0  0  0
  151.4140  145.1059  158.6700 C   0  0  0  0  0  0  0  0  0  0  0  0
  152.1515  144.0665  158.0704 C   0  0  0  0  0  0  0  0  0  0  0  0
  152.8528  143.1456  158.8730 C   0  0  0  0  0  0  0  0  0  0  0  0
  155.8525  138.9482  163.9409 H   0  0  0  0  0  0  0  0  0  0  0  0
  157.4040  138.3722  157.6841 H   0  0  0  0  0  0  0  0  0  0  0  0
  159.2391  137.2653  160.2849 H   0  0  0  0  0  0  0  0  0  0  0  0
  157.1019  135.0348  158.0765 H   0  0  0  0  0  0  0  0  0  0  0  0
  160.0121  134.1075  157.8626 H   0  0  0  0  0  0  0  0  0  0  0  0
  158.5828  133.2642  157.2715 H   0  0  0  0  0  0  0  0  0  0  0  0
  161.3351  134.1041  152.9991 H   0  0  0  0  0  0  0  0  0  0  0  0
  160.6965  134.6994  150.6910 H   0  0  0  0  0  0  0  0  0  0  0  0
  158.5900  135.9479  150.2531 H   0  0  0  0  0  0  0  0  0  0  0  0
  157.1183  136.6005  152.1490 H   0  0  0  0  0  0  0  0  0  0  0  0
  157.7286  136.0207  154.4587 H   0  0  0  0  0  0  0  0  0  0  0  0
  157.4461  133.6415  159.9920 H   0  0  0  0  0  0  0  0  0  0  0  0
  156.6589  135.7823  160.7978 H   0  0  0  0  0  0  0  0  0  0  0  0
  152.0414  144.3988  161.9526 H   0  0  0  0  0  0  0  0  0  0  0  0
  150.8086  146.0191  160.5329 H   0  0  0  0  0  0  0  0  0  0  0  0
  150.8756  145.8109  158.0540 H   0  0  0  0  0  0  0  0  0  0  0  0
  152.1779  143.9746  156.9946 H   0  0  0  0  0  0  0  0  0  0  0  0
  153.4140  142.3491  158.4060 H   0  0  0  0  0  0  0  0  0  0  0  0
  154.5860  140.6436  163.0135 H   0  0  0  0  0  0  0  0  0  0  0  0
  1  2  2  0  0  0  0
  2  3  1  0  0  0  0
  2 33  1  0  0  0  0
  3  4  2  0  0  0  0
  4  9  1  0  0  0  0
  4  5  1  0  0  0  0
  5  6  1  0  0  0  0
  5 57  1  0  0  0  0
  6  7  2  0  0  0  0
  6 39  1  0  0  0  0
  7  8  1  0  0  0  0
  8 12  1  0  0  0  0
  8  9  2  0  0  0  0
  9 10  1  0  0  0  0
 10 11  2  0  0  0  0
 11 12  1  0  0  0  0
 11 40  1  0  0  0  0
 12 13  1  0  0  0  0
 13 32  1  0  0  0  0
 13 14  1  0  0  0  0
 13 41  1  0  0  0  0
 14 15  1  0  0  0  0
 15 16  1  0  0  0  0
 15 26  1  0  0  0  0
 15 42  1  0  0  0  0
 16 17  1  0  0  0  0
 16 43  1  0  0  0  0
 16 44  1  0  0  0  0
 17 18  1  0  0  0  0
 18 19  2  0  0  0  0
 18 20  1  0  0  0  0
 20 25  1  0  0  0  0
 20 21  2  0  0  0  0
 21 22  1  0  0  0  0
 21 45  1  0  0  0  0
 22 23  2  0  0  0  0
 22 46  1  0  0  0  0
 23 24  1  0  0  0  0
 23 47  1  0  0  0  0
 24 25  2  0  0  0  0
 24 48  1  0  0  0  0
 25 49  1  0  0  0  0
 26 32  1  0  0  0  0
 26 27  1  0  0  0  0
 26 50  1  0  0  0  0
 27 28  1  0  0  0  0
 28 29  2  0  0  0  0
 28 30  2  0  0  0  0
 28 31  1  0  0  0  0
 31 32  1  0  0  0  0
 32 51  1  0  0  0  0
 33 38  1  0  0  0  0
 33 34  2  0  0  0  0
 34 35  1  0  0  0  0
 34 52  1  0  0  0  0
 35 36  2  0  0  0  0
 35 53  1  0  0  0  0
 36 37  1  0  0  0  0
 36 54  1  0  0  0  0
 37 38  2  0  0  0  0
 37 55  1  0  0  0  0
 38 56  1  0  0  0  0
M  END
> <s_m_source_file>
AV-unprocessed.smi

> <i_m_source_file_index>
1

> <i_lp_mmshare_version>
43012

> <i_f3d_flags>
0

> <s_epik_input>
W2NIXTFbY0hdW2NIXVtjSF1bY0hdYzFDKD1PKVtOSF1jKG5bY0hdbjIpYyhjMjMpbltjSF1uM1tDQEBIXShbQ0BIXShbQ0BIXTQ1KU9TKE81KSg9Tyk9TylPW0NASF00W0NIMl1PQyg9TyljNltjSF1bY0hdW2NIXVtjSF1bY0hdNg==

> <s_epik_cmdline>
J2VwaWtfcHl0aG9uJywgJy1waCcsICc3LjAnLCAnLXRuJywgJzgnLCAnLW1hJywgJzIwMCcsICctbWV0YWxfYmluZGluZycsICctaW1hZScsICc8aW5maWxlLm1hZT4nLCAnLW9tYWUnLCAnPG91dGZpbGUubWFlPic=

> <r_epik_Ionization_Penalty>
0.122545

> <r_epik_Ionization_Penalty_Charging>
0.122545

> <r_epik_Ionization_Penalty_Neutral>
7.8935e-16

> <r_epik_State_Penalty>
2.69178

> <r_epik_Charging_Adjusted_Penalty>
2.81433

> <i_epik_Tot_Q>
0

> <i_epik_Tot_abs_Q>
0

> <r_epik_Metal_State_Penalty>
3.02665

> <b_epik_Metal_Only>
0

> <s_epik_Chemistry_Notes>
This compound has an ester and may undergo hydrolysis at high or low pH. This compound contains an acetal/aminal-like group ( X-CH(R)-Y where X, Y are N, S, or O) that may be acid/base labile, releasing an aldehyde.

> <s_lp_Force_Field>
OPLS_2005

> <r_lp_Energy>
62.4827

> <b_lp_Chiralities_Consistent>
1

> <s_lp_Variant>
AV-unprocessed.smi:1-13

> <Gold.Version>
5.8.1

> <Gold.Id.Protein>
6NUR|6NUR_protein|mol2

> <Gold.PLP.Fitness>
56.5223

> <Gold.PLP.PLP>
-54.8383

> <Gold.PLP.part.hbond>
-1.0000

> <Gold.PLP.part.metal>
0.0000

> <Gold.PLP.part.buried>
-8.4325

> <Gold.PLP.part.nonpolar>
-46.4682

> <Gold.PLP.part.repulsive>
0.8781

> <Gold.PLP.ligand.clash>
0.0000

> <Gold.PLP.ligand.torsion>
0.7259

> <Gold.PLP.Chemscore.Hbond>
1.0000

> <Gold.PLP.Chemscore.CHOScore>
0.0000

> <Gold.PLP.Chemscore.Metal>
0.0000

> <Gold.Chemscore.Hbonds>
donor molecule, donor type, donor heavy atom, donor atom, acceptor molecule, acceptor atom, score
      P1  H  7997  8010       L1    10  1.00

> <Gold.PLP.Chemscore.Internal.Correction>
0.1359

> <Gold.Rescore>
     Score         DG    S(hbond)    S(metal)    S(lipo)     H(rot)  DE(clash)    DE(int)     intcor
     19.65     -20.48       0.88        0.00     149.72       2.13       0.17       0.66       ----

> <Gold.Chemscore.Fitness>
19.6495

> <Gold.Chemscore.DG>
-20.4795

> <Gold.Chemscore.ZeroCoef>
-5.4800

> <Gold.Chemscore.Hbond>
0.8813

> <Gold.Chemscore.Metal>
0.0000

> <Gold.Chemscore.Lipo>
149.7212

> <Gold.Chemscore.Internal_Hbond>
0.0000

> <Gold.Chemscore.DEClash>
0.1660

> <Gold.Chemscore.DEInternal>
0.6639

> <Gold.Chemscore.Rot>
2.1333

> <Gold.Chemscore.Internal.Correction>
   9.000000E+99

> <Gold.Chemscore.Hbonds>
donor molecule, donor type, donor heavy atom, donor atom, acceptor molecule, acceptor atom, score
      P1  H  7997  8010       L1    10  0.60

> <Gold.Chemscore.Hbond.Weighted>
-2.9435

> <Gold.Chemscore.Metal.Weighted>
-0.0000

> <Gold.Chemscore.Lipo.Weighted>
-17.5174

> <Gold.Chemscore.Internal_Hbond.Weighted>
0.0000

> <Gold.Chemscore.DEClash.Weighted>
0.1660

> <Gold.Chemscore.DEInternal.Weighted>
0.6639

> <Gold.Chemscore.Rot.Weighted>
5.4614

> <Gold.Chemscore.Internal.Correction.Weighted>
   9.000000E+99

> <Gold.Protein.RotatedTorsions>
[ 6907 6896 6895 6894 ] final   85.27 input  -60.11 | X-H torsion
[ 7974 7965 7964 7962 ] final  -56.58 input  175.53 | X-H torsion
[ 8008 7997 7996 7995 ] final  -30.06 input   59.86 | X-H torsion
[ 10167 10162 10161 10158 ] final  108.08 input  -65.29 | X-H torsion
[ 10718 10713 10712 10709 ] final  125.56 input   66.30 | X-H torsion
[ 10763 10752 10751 10750 ] final  114.07 input  -60.55 | X-H torsion
[ 11005 11000 10999 10996 ] final -102.15 input  -57.11 | X-H torsion

> <Gold.Protein.ActiveResidues>
 VAL166  LYS551  ARG553  GLY616  TRP617  ASP618  TYR619  PRO620  LYS621  CYS622 
 ASP623  PHE694  ASN695  SER759  ASP760  ASP761  ALA762  ILE779  LEU786  VAL792 
 PHE793  MET794  SER795  GLU796  ALA797  LYS798  CYS799  TRP800  GLU811  SER814 

> <Gold.Protein.RotatedAtoms>
  152.5371  134.2612  159.8935 H   0  0  0  0  0  0  0  0  0  0  0  0  # atno 6907 bound_to 6896
  151.2572  133.4313  159.2622 H   0  0  0  0  0  0  0  0  0  0  0  0  # atno 6908 bound_to 6896
  151.0485  134.9671  159.8255 H   0  0  0  0  0  0  0  0  0  0  0  0  # atno 6909 bound_to 6896
  145.8610  140.8285  142.9937 H   0  0  0  0  0  0  0  0  0  0  0  0  # atno 7974 bound_to 7965
  154.4265  140.1801  156.1346 H   0  0  0  0  0  0  0  0  0  0  0  0  # atno 8008 bound_to 7997
  156.0040  140.3357  155.6849 H   0  0  0  0  0  0  0  0  0  0  0  0  # atno 8009 bound_to 7997
  155.6203  140.0659  157.2671 H   0  0  0  0  0  0  0  0  0  0  0  0  # atno 8010 bound_to 7997
  139.6875  144.7112  151.1406 H   0  0  0  0  0  0  0  0  0  0  0  0  # atno 10167 bound_to 10162
  157.5493  131.1094  150.8729 H   0  0  0  0  0  0  0  0  0  0  0  0  # atno 10718 bound_to 10713
  153.5018  135.3636  155.2544 H   0  0  0  0  0  0  0  0  0  0  0  0  # atno 10763 bound_to 10752
  154.8747  135.4002  154.3469 H   0  0  0  0  0  0  0  0  0  0  0  0  # atno 10764 bound_to 10752
  153.4107  135.7077  153.6427 H   0  0  0  0  0  0  0  0  0  0  0  0  # atno 10765 bound_to 10752
  141.1201  133.8535  157.1323 H   0  0  0  0  0  0  0  0  0  0  0  0  # atno 11005 bound_to 11000
  144.6726  140.1095  143.7456 LP  0  0  0  0  0  0  0  0  0  0  0  0  # atno 17320 bound_to 7965
  145.9248  139.2568  143.1360 LP  0  0  0  0  0  0  0  0  0  0  0  0  # atno 17321 bound_to 7965
  140.7672  143.5607  150.9102 LP  0  0  0  0  0  0  0  0  0  0  0  0  # atno 17342 bound_to 10162
  139.9283  143.6523  152.3082 LP  0  0  0  0  0  0  0  0  0  0  0  0  # atno 17343 bound_to 10162
  156.9259  130.5332  149.5279 LP  0  0  0  0  0  0  0  0  0  0  0  0  # atno 17370 bound_to 10713
  156.0562  130.5623  150.9097 LP  0  0  0  0  0  0  0  0  0  0  0  0  # atno 17371 bound_to 10713
  140.0152  134.9970  157.0479 LP  0  0  0  0  0  0  0  0  0  0  0  0  # atno 17394 bound_to 11000
  140.4531  134.1561  155.7183 LP  0  0  0  0  0  0  0  0  0  0  0  0  # atno 17395 bound_to 11000

$$$$
