AV-unprocessed.smi:2446|AV-procd|sdf|9644|dock9
  -GOLD-   2272013273D 1   1.00000     0.00000
 Structure written by MMmdl.
 39 40  0  0  0  0  0  0  0  0  1 V2000
  151.5457  137.5960  154.3481 C   0  0  0  0  0  0  0  0  0  0  0  0
  150.8815  138.8936  154.7752 C   0  0  0  0  0  0  0  0  0  0  0  0
  151.6444  139.9012  155.4035 C   0  0  0  0  0  0  0  0  0  0  0  0
  151.1305  141.0782  155.8159 N   0  0  0  0  0  0  0  0  0  0  0  0
  149.8140  141.2935  155.6175 C   0  0  0  0  0  0  0  0  0  0  0  0
  148.9598  140.3589  155.0004 C   0  0  0  0  0  0  0  0  0  0  0  0
  149.5029  139.1301  154.5535 C   0  0  0  0  0  0  0  0  0  0  0  0
  148.7303  138.1093  153.9320 N   0  0  0  0  0  0  0  0  0  0  0  0
  147.4889  137.6775  154.2293 C   0  0  0  0  0  0  0  0  0  0  0  0
  146.7983  138.1024  155.1527 O   0  0  0  0  0  0  0  0  0  0  0  0
  147.0279  136.7201  153.4035 N   0  0  0  0  0  0  0  0  0  0  0  0
  145.7336  136.0294  153.4310 C   0  0  1  0  0  0  0  0  0  0  0  0
  144.8294  136.5582  152.3015 C   0  0  0  0  0  0  0  0  0  0  0  0
  145.3116  136.1089  150.9119 C   0  0  0  0  0  0  0  0  0  0  0  0
  145.4560  134.5812  150.8356 C   0  0  0  0  0  0  0  0  0  0  0  0
  146.3960  134.0419  151.9341 C   0  0  2  0  0  0  0  0  0  0  0  0
  146.5606  132.5103  151.8533 C   0  0  0  0  0  0  0  0  0  0  0  0
  147.4550  132.0810  152.7441 F   0  0  0  0  0  0  0  0  0  0  0  0
  145.3935  131.9121  152.0918 F   0  0  0  0  0  0  0  0  0  0  0  0
  146.9661  132.1594  150.6328 F   0  0  0  0  0  0  0  0  0  0  0  0
  145.9011  134.4964  153.3259 C   0  0  0  0  0  0  0  0  0  0  0  0
  152.5984  137.5784  154.6314 H   0  0  0  0  0  0  0  0  0  0  0  0
  151.4851  137.4759  153.2662 H   0  0  0  0  0  0  0  0  0  0  0  0
  151.0565  136.7430  154.8194 H   0  0  0  0  0  0  0  0  0  0  0  0
  152.7000  139.7602  155.5841 H   0  0  0  0  0  0  0  0  0  0  0  0
  149.4262  142.2385  155.9678 H   0  0  0  0  0  0  0  0  0  0  0  0
  147.9133  140.5994  154.8960 H   0  0  0  0  0  0  0  0  0  0  0  0
  149.1424  137.7071  153.1032 H   0  0  0  0  0  0  0  0  0  0  0  0
  147.6557  136.4314  152.6673 H   0  0  0  0  0  0  0  0  0  0  0  0
  145.2385  136.2638  154.3748 H   0  0  0  0  0  0  0  0  0  0  0  0
  143.8131  136.1945  152.4585 H   0  0  0  0  0  0  0  0  0  0  0  0
  144.7701  137.6465  152.3425 H   0  0  0  0  0  0  0  0  0  0  0  0
  144.6115  136.4518  150.1497 H   0  0  0  0  0  0  0  0  0  0  0  0
  146.2684  136.5789  150.6818 H   0  0  0  0  0  0  0  0  0  0  0  0
  144.4726  134.1190  150.9304 H   0  0  0  0  0  0  0  0  0  0  0  0
  145.8319  134.3039  149.8505 H   0  0  0  0  0  0  0  0  0  0  0  0
  147.3818  134.4795  151.7699 H   0  0  0  0  0  0  0  0  0  0  0  0
  146.5811  134.1383  154.0986 H   0  0  0  0  0  0  0  0  0  0  0  0
  144.9407  134.0239  153.5356 H   0  0  0  0  0  0  0  0  0  0  0  0
  1  2  1  0  0  0  0
  1 22  1  0  0  0  0
  1 23  1  0  0  0  0
  1 24  1  0  0  0  0
  2  7  1  0  0  0  0
  2  3  2  0  0  0  0
  3  4  1  0  0  0  0
  3 25  1  0  0  0  0
  4  5  2  0  0  0  0
  5  6  1  0  0  0  0
  5 26  1  0  0  0  0
  6  7  2  0  0  0  0
  6 27  1  0  0  0  0
  7  8  1  0  0  0  0
  8  9  1  0  0  0  0
  8 28  1  0  0  0  0
  9 10  2  0  0  0  0
  9 11  1  0  0  0  0
 11 12  1  0  0  0  0
 11 29  1  0  0  0  0
 12 21  1  0  0  0  0
 12 13  1  0  0  0  0
 12 30  1  0  0  0  0
 13 14  1  0  0  0  0
 13 31  1  0  0  0  0
 13 32  1  0  0  0  0
 14 15  1  0  0  0  0
 14 33  1  0  0  0  0
 14 34  1  0  0  0  0
 15 16  1  0  0  0  0
 15 35  1  0  0  0  0
 15 36  1  0  0  0  0
 16 17  1  0  0  0  0
 16 21  1  0  0  0  0
 16 37  1  0  0  0  0
 17 18  1  0  0  0  0
 17 19  1  0  0  0  0
 17 20  1  0  0  0  0
 21 38  1  0  0  0  0
 21 39  1  0  0  0  0
M  END
> <s_m_source_file>
AV-unprocessed.smi

> <i_m_source_file_index>
2446

> <i_lp_mmshare_version>
43012

> <i_f3d_flags>
0

> <s_epik_input>
W0NIM11jMVtjSF1uW2NIXVtjSF1jMVtOSF1DKD1PKVtOSF1bQ0BASF0yW0NIMl1bQ0gyXVtDSDJdW0NAQEhdKEMoRikoRilGKVtDSDJdMg==

> <s_epik_cmdline>
J2VwaWtfcHl0aG9uJywgJy1waCcsICc3LjAnLCAnLXRuJywgJzgnLCAnLW1hJywgJzIwMCcsICctbWV0YWxfYmluZGluZycsICctaW1hZScsICc8aW5maWxlLm1hZT4nLCAnLW9tYWUnLCAnPG91dGZpbGUubWFlPic=

> <r_epik_Ionization_Penalty>
0.20168

> <r_epik_Ionization_Penalty_Charging>
0

> <r_epik_Ionization_Penalty_Neutral>
0.20168

> <r_epik_State_Penalty>
0.191514

> <r_epik_Charging_Adjusted_Penalty>
0.191514

> <i_epik_Tot_Q>
0

> <i_epik_Tot_abs_Q>
0

> <r_epik_Metal_State_Penalty>
0.142371

> <b_epik_Metal_Only>
0

> <s_lp_Force_Field>
OPLS_2005

> <r_lp_Energy>
25.5489

> <b_lp_Chiralities_Consistent>
1

> <s_lp_Variant>
AV-unprocessed.smi:2446-4

> <Gold.Version>
5.8.1

> <Gold.Id.Protein>
6NUR|6NUR_protein|mol2

> <Gold.PLP.Fitness>
39.8632

> <Gold.PLP.PLP>
-32.0860

> <Gold.PLP.part.hbond>
-2.9294

> <Gold.PLP.part.metal>
0.0000

> <Gold.PLP.part.buried>
3.3003

> <Gold.PLP.part.nonpolar>
-34.1189

> <Gold.PLP.part.repulsive>
0.1002

> <Gold.PLP.ligand.clash>
0.0000

> <Gold.PLP.ligand.torsion>
0.4900

> <Gold.PLP.Chemscore.Hbond>
1.9120

> <Gold.PLP.Chemscore.CHOScore>
1.0000

> <Gold.PLP.Chemscore.Metal>
0.0000

> <Gold.Chemscore.Hbonds>
donor molecule, donor type, donor heavy atom, donor atom, acceptor molecule, acceptor atom, score
      L1  H     8    28       P1  7948  0.88
      L1  H    11    29       P1  7948  1.00
      L1  C     5    26       P1  8028  0.93

> <Gold.PLP.Chemscore.Internal.Correction>
0.0212

> <Gold.Rescore>
     Score         DG    S(hbond)    S(metal)    S(lipo)     H(rot)  DE(clash)    DE(int)     intcor
     16.62     -17.76       1.91        0.00      72.40       1.00       0.79       0.35       ----

> <Gold.Chemscore.Fitness>
16.6195

> <Gold.Chemscore.DG>
-17.7571

> <Gold.Chemscore.ZeroCoef>
-5.4800

> <Gold.Chemscore.Hbond>
1.9060

> <Gold.Chemscore.Metal>
0.0000

> <Gold.Chemscore.Lipo>
72.4011

> <Gold.Chemscore.Internal_Hbond>
0.0000

> <Gold.Chemscore.DEClash>
0.7906

> <Gold.Chemscore.DEInternal>
0.3469

> <Gold.Chemscore.Rot>
1.0000

> <Gold.Chemscore.Internal.Correction>
   9.000000E+99

> <Gold.Chemscore.Hbonds>
donor molecule, donor type, donor heavy atom, donor atom, acceptor molecule, acceptor atom, score
      L1  H     8    28       P1  7948  0.86
      L1  H    11    29       P1  7948  0.93

> <Gold.Chemscore.Hbond.Weighted>
-6.3661

> <Gold.Chemscore.Metal.Weighted>
-0.0000

> <Gold.Chemscore.Lipo.Weighted>
-8.4709

> <Gold.Chemscore.Internal_Hbond.Weighted>
0.0000

> <Gold.Chemscore.DEClash.Weighted>
0.7906

> <Gold.Chemscore.DEInternal.Weighted>
0.3469

> <Gold.Chemscore.Rot.Weighted>
2.5600

> <Gold.Chemscore.Internal.Correction.Weighted>
   9.000000E+99

> <Gold.Protein.RotatedTorsions>
[ 6907 6896 6895 6894 ] final -111.66 input  -60.11 | X-H torsion
[ 7974 7965 7964 7962 ] final  164.54 input  175.53 | X-H torsion
[ 8008 7997 7996 7995 ] final  -13.37 input   59.86 | X-H torsion
[ 10167 10162 10161 10158 ] final -156.47 input  -65.29 | X-H torsion
[ 10718 10713 10712 10709 ] final   -5.24 input   66.30 | X-H torsion
[ 10763 10752 10751 10750 ] final -143.67 input  -60.55 | X-H torsion
[ 11005 11000 10999 10996 ] final    6.21 input  -57.11 | X-H torsion

> <Gold.Protein.ActiveResidues>
 VAL166  LYS551  ARG553  GLY616  TRP617  ASP618  TYR619  PRO620  LYS621  CYS622 
 ASP623  PHE694  ASN695  SER759  ASP760  ASP761  ALA762  ILE779  LEU786  VAL792 
 PHE793  MET794  SER795  GLU796  ALA797  LYS798  CYS799  TRP800  GLU811  SER814 

> <Gold.Protein.RotatedAtoms>
  150.7705  133.9202  159.3395 H   0  0  0  0  0  0  0  0  0  0  0  0  # atno 6907 bound_to 6896
  151.7090  135.0914  160.0273 H   0  0  0  0  0  0  0  0  0  0  0  0  # atno 6908 bound_to 6896
  152.3721  133.6395  159.6131 H   0  0  0  0  0  0  0  0  0  0  0  0  # atno 6909 bound_to 6896
  144.7540  139.8341  143.6356 H   0  0  0  0  0  0  0  0  0  0  0  0  # atno 7974 bound_to 7965
  154.5298  140.2251  155.8824 H   0  0  0  0  0  0  0  0  0  0  0  0  # atno 8008 bound_to 7997
  156.1752  140.3113  155.9010 H   0  0  0  0  0  0  0  0  0  0  0  0  # atno 8009 bound_to 7997
  155.3475  140.0454  157.3036 H   0  0  0  0  0  0  0  0  0  0  0  0  # atno 8010 bound_to 7997
  139.6847  143.9521  152.2355 H   0  0  0  0  0  0  0  0  0  0  0  0  # atno 10167 bound_to 10162
  156.7494  130.5235  149.5807 H   0  0  0  0  0  0  0  0  0  0  0  0  # atno 10718 bound_to 10713
  154.8460  135.3461  154.6224 H   0  0  0  0  0  0  0  0  0  0  0  0  # atno 10763 bound_to 10752
  153.6833  135.6979  153.5116 H   0  0  0  0  0  0  0  0  0  0  0  0  # atno 10764 bound_to 10752
  153.2651  135.4310  155.0889 H   0  0  0  0  0  0  0  0  0  0  0  0  # atno 10765 bound_to 10752
  140.5620  134.0183  155.7975 H   0  0  0  0  0  0  0  0  0  0  0  0  # atno 11005 bound_to 11000
  146.1528  139.4617  143.0038 LP  0  0  0  0  0  0  0  0  0  0  0  0  # atno 17320 bound_to 7965
  145.6842  141.0182  143.1590 LP  0  0  0  0  0  0  0  0  0  0  0  0  # atno 17321 bound_to 7965
  139.9320  144.6735  150.8353 LP  0  0  0  0  0  0  0  0  0  0  0  0  # atno 17342 bound_to 10162
  140.7664  143.3302  151.2427 LP  0  0  0  0  0  0  0  0  0  0  0  0  # atno 17343 bound_to 10162
  156.1411  130.6245  151.0468 LP  0  0  0  0  0  0  0  0  0  0  0  0  # atno 17370 bound_to 10713
  157.6783  131.0844  150.7436 LP  0  0  0  0  0  0  0  0  0  0  0  0  # atno 17371 bound_to 10713
  141.1109  133.9618  157.2912 LP  0  0  0  0  0  0  0  0  0  0  0  0  # atno 17394 bound_to 11000
  139.9403  135.0192  156.8687 LP  0  0  0  0  0  0  0  0  0  0  0  0  # atno 17395 bound_to 11000

$$$$
