AV-unprocessed.smi:212|AV-procd|sdf|1625|dock10
  -GOLD-   2262019573D 1   1.00000     0.00000
 Structure written by MMmdl.
 65 68  0  0  0  0  0  0  0  0  2 V2000
  144.9452  136.2936  155.3651 C   0  0  0  0  0  0  0  0  0  0  0  0
  144.9735  136.4391  153.8306 C   0  0  2  0  0  0  0  0  0  0  0  0
  145.4887  135.1662  153.1284 C   0  0  0  0  0  0  0  0  0  0  0  0
  145.4438  135.3202  151.6517 N   0  3  2  0  0  0  0  0  0  0  0  0
  145.8115  134.0800  150.9192 C   0  0  0  0  0  0  0  0  0  0  0  0
  144.5826  133.3821  150.2934 C   0  0  0  0  0  0  0  0  0  0  0  0
  145.0343  132.2104  149.4057 C   0  0  0  0  0  0  0  0  0  0  0  0
  143.5761  132.8913  151.3504 C   0  0  0  0  0  0  0  0  0  0  0  0
  143.9254  134.3058  149.4472 O   0  0  0  0  0  0  0  0  0  0  0  0
  146.1846  136.5183  151.1824 C   0  0  0  0  0  0  0  0  0  0  0  0
  145.7104  137.7939  151.9082 C   0  0  0  0  0  0  0  0  0  0  0  0
  145.6920  137.6280  153.3595 N   0  0  0  0  0  0  0  0  0  0  0  0
  146.8443  137.9592  153.9885 C   0  0  0  0  0  0  0  0  0  0  0  0
  147.5904  137.0044  154.6019 N   0  0  0  0  0  0  0  0  0  0  0  0
  148.7169  137.3437  155.2364 C   0  0  0  0  0  0  0  0  0  0  0  0
  149.2626  138.5535  155.3785 N   0  0  0  0  0  0  0  0  0  0  0  0
  148.5119  139.5127  154.7649 C   0  0  0  0  0  0  0  0  0  0  0  0
  147.3013  139.3012  154.0490 C   0  0  0  0  0  0  0  0  0  0  0  0
  146.8179  140.5062  153.5566 N   0  0  0  0  0  0  0  0  0  0  0  0
  147.6942  141.3853  153.9610 C   0  0  0  0  0  0  0  0  0  0  0  0
  148.7317  140.8785  154.7119 N   0  0  0  0  0  0  0  0  0  0  0  0
  149.8299  141.6328  155.2867 C   0  0  0  0  0  0  0  0  0  0  0  0
  150.2690  141.1541  156.6994 C   0  0  2  0  0  0  0  0  0  0  0  0
  149.0634  141.1879  157.6648 C   0  0  0  0  0  0  0  0  0  0  0  0
  148.3362  142.3923  157.5326 O   0  0  0  0  0  0  0  0  0  0  0  0
  151.4774  141.8982  157.3429 C   0  0  1  0  0  0  0  0  0  0  0  0
  151.3627  143.3965  157.5624 C   0  0  0  0  0  0  0  0  0  0  0  0
  152.5653  143.6619  158.4629 C   0  0  0  0  0  0  0  0  0  0  0  0
  152.7405  142.4800  159.2412 O   0  0  0  0  0  0  0  0  0  0  0  0
  151.9431  141.4198  158.7199 C   0  0  0  0  0  0  0  0  0  0  0  0
  144.3074  135.4614  155.6636 H   0  0  0  0  0  0  0  0  0  0  0  0
  144.5503  137.1931  155.8383 H   0  0  0  0  0  0  0  0  0  0  0  0
  145.9377  136.1054  155.7765 H   0  0  0  0  0  0  0  0  0  0  0  0
  143.9383  136.5829  153.5179 H   0  0  0  0  0  0  0  0  0  0  0  0
  146.5084  134.9385  153.4422 H   0  0  0  0  0  0  0  0  0  0  0  0
  144.8728  134.3144  153.4197 H   0  0  0  0  0  0  0  0  0  0  0  0
  146.5367  134.3087  150.1359 H   0  0  0  0  0  0  0  0  0  0  0  0
  146.3237  133.3869  151.5888 H   0  0  0  0  0  0  0  0  0  0  0  0
  145.5526  131.4500  149.9909 H   0  0  0  0  0  0  0  0  0  0  0  0
  145.7163  132.5428  148.6219 H   0  0  0  0  0  0  0  0  0  0  0  0
  144.1860  131.7274  148.9189 H   0  0  0  0  0  0  0  0  0  0  0  0
  144.0438  132.1907  152.0429 H   0  0  0  0  0  0  0  0  0  0  0  0
  142.7329  132.3789  150.8854 H   0  0  0  0  0  0  0  0  0  0  0  0
  143.1681  133.7140  151.9385 H   0  0  0  0  0  0  0  0  0  0  0  0
  144.3915  134.3473  148.6255 H   0  0  0  0  0  0  0  0  0  0  0  0
  147.2530  136.3653  151.3375 H   0  0  0  0  0  0  0  0  0  0  0  0
  146.0401  136.6385  150.1082 H   0  0  0  0  0  0  0  0  0  0  0  0
  146.3379  138.6422  151.6301 H   0  0  0  0  0  0  0  0  0  0  0  0
  144.6986  138.0427  151.5863 H   0  0  0  0  0  0  0  0  0  0  0  0
  149.2573  136.5311  155.6994 H   0  0  0  0  0  0  0  0  0  0  0  0
  147.6011  142.4372  153.7327 H   0  0  0  0  0  0  0  0  0  0  0  0
  150.6726  141.6231  154.5957 H   0  0  0  0  0  0  0  0  0  0  0  0
  149.5020  142.6718  155.3303 H   0  0  0  0  0  0  0  0  0  0  0  0
  150.5668  140.1080  156.6164 H   0  0  0  0  0  0  0  0  0  0  0  0
  148.3736  140.3697  157.4558 H   0  0  0  0  0  0  0  0  0  0  0  0
  149.3901  141.0736  158.6988 H   0  0  0  0  0  0  0  0  0  0  0  0
  148.7906  142.9532  156.9223 H   0  0  0  0  0  0  0  0  0  0  0  0
  152.3247  141.7787  156.6653 H   0  0  0  0  0  0  0  0  0  0  0  0
  151.3946  143.9687  156.6349 H   0  0  0  0  0  0  0  0  0  0  0  0
  150.4592  143.6724  158.0980 H   0  0  0  0  0  0  0  0  0  0  0  0
  153.4625  143.8171  157.8626 H   0  0  0  0  0  0  0  0  0  0  0  0
  152.4258  144.5391  159.0952 H   0  0  0  0  0  0  0  0  0  0  0  0
  151.1085  141.2704  159.4022 H   0  0  0  0  0  0  0  0  0  0  0  0
  152.5070  140.4883  158.6686 H   0  0  0  0  0  0  0  0  0  0  0  0
  144.4760  135.4931  151.4196 H   0  0  0  0  0  0  0  0  0  0  0  0
  1  2  1  0  0  0  0
  1 31  1  0  0  0  0
  1 32  1  0  0  0  0
  1 33  1  0  0  0  0
  2 12  1  0  0  0  0
  2  3  1  0  0  0  0
  2 34  1  0  0  0  0
  3  4  1  0  0  0  0
  3 35  1  0  0  0  0
  3 36  1  0  0  0  0
  4  5  1  0  0  0  0
  4 10  1  0  0  0  0
  4 65  1  0  0  0  0
  5  6  1  0  0  0  0
  5 37  1  0  0  0  0
  5 38  1  0  0  0  0
  6  7  1  0  0  0  0
  6  8  1  0  0  0  0
  6  9  1  0  0  0  0
  7 39  1  0  0  0  0
  7 40  1  0  0  0  0
  7 41  1  0  0  0  0
  8 42  1  0  0  0  0
  8 43  1  0  0  0  0
  8 44  1  0  0  0  0
  9 45  1  0  0  0  0
 10 11  1  0  0  0  0
 10 46  1  0  0  0  0
 10 47  1  0  0  0  0
 11 12  1  0  0  0  0
 11 48  1  0  0  0  0
 11 49  1  0  0  0  0
 12 13  1  0  0  0  0
 13 18  1  0  0  0  0
 13 14  2  0  0  0  0
 14 15  1  0  0  0  0
 15 16  2  0  0  0  0
 15 50  1  0  0  0  0
 16 17  1  0  0  0  0
 17 21  1  0  0  0  0
 17 18  2  0  0  0  0
 18 19  1  0  0  0  0
 19 20  2  0  0  0  0
 20 21  1  0  0  0  0
 20 51  1  0  0  0  0
 21 22  1  0  0  0  0
 22 23  1  0  0  0  0
 22 52  1  0  0  0  0
 22 53  1  0  0  0  0
 23 24  1  0  0  0  0
 23 26  1  0  0  0  0
 23 54  1  0  0  0  0
 24 25  1  0  0  0  0
 24 55  1  0  0  0  0
 24 56  1  0  0  0  0
 25 57  1  0  0  0  0
 26 30  1  0  0  0  0
 26 27  1  0  0  0  0
 26 58  1  0  0  0  0
 27 28  1  0  0  0  0
 27 59  1  0  0  0  0
 27 60  1  0  0  0  0
 28 29  1  0  0  0  0
 28 61  1  0  0  0  0
 28 62  1  0  0  0  0
 29 30  1  0  0  0  0
 30 63  1  0  0  0  0
 30 64  1  0  0  0  0
M  CHG  1   4   1
M  END
> <s_m_source_file>
AV-unprocessed.smi

> <i_m_source_file_index>
212

> <i_lp_mmshare_version>
43012

> <i_f3d_flags>
0

> <s_epik_input>
W0NIM11bQ0BASF0xW0NIMl1OKFtDSDJdQyhbQ0gzXSkoW0NIM10pW09IXSlbQ0gyXVtDSDJdTjFjKG5bY0hdbjIpYyhjMjMpbltjSF1uM1tDSDJdW0NASF0oW0NIMl1bT0hdKVtDQEBIXTRbQ0gyXVtDSDJdT1tDSDJdNA==

> <s_epik_cmdline>
J2VwaWtfcHl0aG9uJywgJy1waCcsICc3LjAnLCAnLXRuJywgJzgnLCAnLW1hJywgJzIwMCcsICctbWV0YWxfYmluZGluZycsICctaW1hZScsICc8aW5maWxlLm1hZT4nLCAnLW9tYWUnLCAnPG91dGZpbGUubWFlPic=

> <r_lp_tautomer_probability>
1

> <r_epik_Ionization_Penalty>
0.00182193

> <r_epik_Ionization_Penalty_Charging>
0.00173996

> <r_epik_Ionization_Penalty_Neutral>
8.19718e-05

> <r_epik_State_Penalty>
-0

> <r_epik_Charging_Adjusted_Penalty>
0.00173996

> <i_epik_Tot_Q>
1

> <i_epik_Tot_abs_Q>
1

> <r_epik_Metal_State_Penalty>
-0

> <b_epik_Metal_Only>
0

> <s_lp_Force_Field>
OPLS_2005

> <r_lp_Energy>
61.8926

> <b_lp_Chiralities_Consistent>
1

> <s_lp_Variant>
AV-unprocessed.smi:212-9

> <Gold.Version>
5.8.1

> <Gold.Id.Protein>
6NUR|6NUR_protein|mol2

> <Gold.PLP.Fitness>
46.5656

> <Gold.PLP.PLP>
-42.8456

> <Gold.PLP.part.hbond>
-3.0000

> <Gold.PLP.part.metal>
0.0000

> <Gold.PLP.part.buried>
-2.7709

> <Gold.PLP.part.nonpolar>
-38.2839

> <Gold.PLP.part.repulsive>
0.5454

> <Gold.PLP.ligand.clash>
0.0000

> <Gold.PLP.ligand.torsion>
1.6322

> <Gold.PLP.Chemscore.Hbond>
1.9760

> <Gold.PLP.Chemscore.CHOScore>
0.0000

> <Gold.PLP.Chemscore.Metal>
0.0000

> <Gold.Chemscore.Hbonds>
donor molecule, donor type, donor heavy atom, donor atom, acceptor molecule, acceptor atom, score
      L1  H     9    45       P1  7921  0.94
      L1  H    25    57       P1  8028  0.67

> <Gold.PLP.Chemscore.Internal.Correction>
1.0565

> <Gold.Rescore>
     Score         DG    S(hbond)    S(metal)    S(lipo)     H(rot)  DE(clash)    DE(int)     intcor
      9.89     -15.35       1.70        0.00     116.34       3.68       2.47       2.98       ----

> <Gold.Chemscore.Fitness>
9.8926

> <Gold.Chemscore.DG>
-15.3480

> <Gold.Chemscore.ZeroCoef>
-5.4800

> <Gold.Chemscore.Hbond>
1.7006

> <Gold.Chemscore.Metal>
0.0000

> <Gold.Chemscore.Lipo>
116.3423

> <Gold.Chemscore.Internal_Hbond>
0.0000

> <Gold.Chemscore.DEClash>
2.4711

> <Gold.Chemscore.DEInternal>
2.9843

> <Gold.Chemscore.Rot>
3.6812

> <Gold.Chemscore.Internal.Correction>
   9.000000E+99

> <Gold.Chemscore.Hbonds>
donor molecule, donor type, donor heavy atom, donor atom, acceptor molecule, acceptor atom, score
      L1  H     9    45       P1  7921  0.84
      L1  H    25    57       P1  8028  0.52

> <Gold.Chemscore.Hbond.Weighted>
-5.6799

> <Gold.Chemscore.Metal.Weighted>
-0.0000

> <Gold.Chemscore.Lipo.Weighted>
-13.6120

> <Gold.Chemscore.Internal_Hbond.Weighted>
0.0000

> <Gold.Chemscore.DEClash.Weighted>
2.4711

> <Gold.Chemscore.DEInternal.Weighted>
2.9843

> <Gold.Chemscore.Rot.Weighted>
9.4239

> <Gold.Chemscore.Internal.Correction.Weighted>
   9.000000E+99

> <Gold.Protein.RotatedTorsions>
[ 6907 6896 6895 6894 ] final  -64.48 input  -60.11 | X-H torsion
[ 7974 7965 7964 7962 ] final  154.72 input  175.53 | X-H torsion
[ 8008 7997 7996 7995 ] final -147.48 input   59.86 | X-H torsion
[ 10167 10162 10161 10158 ] final -137.44 input  -65.29 | X-H torsion
[ 10718 10713 10712 10709 ] final -155.52 input   66.30 | X-H torsion
[ 10763 10752 10751 10750 ] final  162.05 input  -60.55 | X-H torsion
[ 11005 11000 10999 10996 ] final   85.21 input  -57.11 | X-H torsion

> <Gold.Protein.ActiveResidues>
 VAL166  LYS551  ARG553  GLY616  TRP617  ASP618  TYR619  PRO620  LYS621  CYS622 
 ASP623  PHE694  ASN695  SER759  ASP760  ASP761  ALA762  ILE779  LEU786  VAL792 
 PHE793  MET794  SER795  GLU796  ALA797  LYS798  CYS799  TRP800  GLU811  SER814 

> <Gold.Protein.RotatedAtoms>
  150.7582  134.6292  159.6176 H   0  0  0  0  0  0  0  0  0  0  0  0  # atno 6907 bound_to 6896
  152.3575  134.6916  160.0226 H   0  0  0  0  0  0  0  0  0  0  0  0  # atno 6908 bound_to 6896
  151.7317  133.3282  159.3378 H   0  0  0  0  0  0  0  0  0  0  0  0  # atno 6909 bound_to 6896
  144.8070  139.6972  143.6157 H   0  0  0  0  0  0  0  0  0  0  0  0  # atno 7974 bound_to 7965
  155.5763  140.0639  157.2794 H   0  0  0  0  0  0  0  0  0  0  0  0  # atno 8008 bound_to 7997
  154.4346  140.1860  156.0977 H   0  0  0  0  0  0  0  0  0  0  0  0  # atno 8009 bound_to 7997
  156.0339  140.3303  155.7173 H   0  0  0  0  0  0  0  0  0  0  0  0  # atno 8010 bound_to 7997
  139.8577  143.7116  152.2653 H   0  0  0  0  0  0  0  0  0  0  0  0  # atno 10167 bound_to 10162
  156.5140  130.8447  151.2657 H   0  0  0  0  0  0  0  0  0  0  0  0  # atno 10718 bound_to 10713
  154.2725  135.2765  155.2732 H   0  0  0  0  0  0  0  0  0  0  0  0  # atno 10763 bound_to 10752
  154.5289  135.5735  153.6746 H   0  0  0  0  0  0  0  0  0  0  0  0  # atno 10764 bound_to 10752
  152.9943  135.6223  154.2880 H   0  0  0  0  0  0  0  0  0  0  0  0  # atno 10765 bound_to 10752
  139.8978  134.8271  156.2551 H   0  0  0  0  0  0  0  0  0  0  0  0  # atno 11005 bound_to 11000
  146.2363  139.5912  142.9521 LP  0  0  0  0  0  0  0  0  0  0  0  0  # atno 17320 bound_to 7965
  145.5414  141.0420  143.2328 LP  0  0  0  0  0  0  0  0  0  0  0  0  # atno 17321 bound_to 7965
  139.7403  144.7561  151.0662 LP  0  0  0  0  0  0  0  0  0  0  0  0  # atno 17342 bound_to 10162
  140.7779  143.4980  150.9808 LP  0  0  0  0  0  0  0  0  0  0  0  0  # atno 17343 bound_to 10162
  157.7446  130.9940  150.2692 LP  0  0  0  0  0  0  0  0  0  0  0  0  # atno 17370 bound_to 10713
  156.3213  130.3786  149.7572 LP  0  0  0  0  0  0  0  0  0  0  0  0  # atno 17371 bound_to 10713
  141.0199  133.7047  156.1250 LP  0  0  0  0  0  0  0  0  0  0  0  0  # atno 17394 bound_to 11000
  140.7249  134.4318  157.5571 LP  0  0  0  0  0  0  0  0  0  0  0  0  # atno 17395 bound_to 11000

$$$$
