AV-unprocessed.smi:157|AV-procd|sdf|1301|dock7
  -GOLD-   2262018593D 1   1.00000     0.00000
 Structure written by MMmdl.
 35 37  0  0  0  0  0  0  0  0  1 V2000
  149.6251  126.5757  150.9823 O   0  0  0  0  0  0  0  0  0  0  0  0
  148.4326  127.2343  150.6120 C   0  0  0  0  0  0  0  0  0  0  0  0
  148.0258  128.2481  151.6949 C   0  0  1  0  0  0  0  0  0  0  0  0
  146.7140  128.7464  151.4656 O   0  0  0  0  0  0  0  0  0  0  0  0
  146.2156  129.3139  152.6417 C   0  0  2  0  0  0  0  0  0  0  0  0
  146.3686  130.8064  152.5684 N   0  0  0  0  0  0  0  0  0  0  0  0
  147.2391  131.5678  153.2471 C   0  0  0  0  0  0  0  0  0  0  0  0
  147.1612  132.8612  152.9844 N   0  0  0  0  0  0  0  0  0  0  0  0
  146.1422  132.9512  152.0385 C   0  0  0  0  0  0  0  0  0  0  0  0
  145.6404  131.6876  151.7632 C   0  0  0  0  0  0  0  0  0  0  0  0
  144.6699  131.1613  150.9318 N   0  0  0  0  0  0  0  0  0  0  0  0
  143.7638  131.9649  150.4711 C   0  0  0  0  0  0  0  0  0  0  0  0
  143.6408  133.3412  150.5965 N   0  0  0  0  0  0  0  0  0  0  0  0
  144.7347  134.2643  150.3464 C   0  0  0  0  0  0  0  0  0  0  0  0
  145.7820  134.2918  151.4666 C   0  0  1  0  0  0  0  0  0  0  0  0
  145.3003  135.0799  152.5359 O   0  0  0  0  0  0  0  0  0  0  0  0
  147.0498  128.7552  153.8083 C   0  0  0  0  0  0  0  0  0  0  0  0
  147.9547  127.7349  153.1382 C   0  0  1  0  0  0  0  0  0  0  0  0
  147.3898  126.4399  153.2167 O   0  0  0  0  0  0  0  0  0  0  0  0
  148.7100  129.0980  151.6604 H   0  0  0  0  0  0  0  0  0  0  0  0
  145.1422  129.1445  152.7328 H   0  0  0  0  0  0  0  0  0  0  0  0
  146.6780  134.7857  151.0893 H   0  0  0  0  0  0  0  0  0  0  0  0
  148.9411  127.7054  153.6019 H   0  0  0  0  0  0  0  0  0  0  0  0
  150.2759  127.2288  151.1905 H   0  0  0  0  0  0  0  0  0  0  0  0
  148.6061  127.7517  149.6682 H   0  0  0  0  0  0  0  0  0  0  0  0
  147.6467  126.5010  150.4305 H   0  0  0  0  0  0  0  0  0  0  0  0
  147.9534  131.1698  153.9524 H   0  0  0  0  0  0  0  0  0  0  0  0
  142.9505  131.5432  149.8787 H   0  0  0  0  0  0  0  0  0  0  0  0
  142.7492  133.7655  150.3849 H   0  0  0  0  0  0  0  0  0  0  0  0
  145.2191  133.9478  149.4214 H   0  0  0  0  0  0  0  0  0  0  0  0
  144.3418  135.2637  150.1572 H   0  0  0  0  0  0  0  0  0  0  0  0
  145.5071  134.6365  153.3447 H   0  0  0  0  0  0  0  0  0  0  0  0
  147.6448  129.5515  154.2585 H   0  0  0  0  0  0  0  0  0  0  0  0
  146.4057  128.3300  154.5792 H   0  0  0  0  0  0  0  0  0  0  0  0
  147.9222  125.9174  153.7970 H   0  0  0  0  0  0  0  0  0  0  0  0
  1  2  1  0  0  0  0
  1 24  1  0  0  0  0
  2  3  1  0  0  0  0
  2 25  1  0  0  0  0
  2 26  1  0  0  0  0
  3 20  1  0  0  0  0
  3 18  1  0  0  0  0
  3  4  1  0  0  0  0
  4  5  1  0  0  0  0
  5 21  1  0  0  0  0
  5  6  1  0  0  0  0
  5 17  1  0  0  0  0
  6 10  1  0  0  0  0
  6  7  1  0  0  0  0
  7  8  2  0  0  0  0
  7 27  1  0  0  0  0
  8  9  1  0  0  0  0
  9 15  1  0  0  0  0
  9 10  2  0  0  0  0
 10 11  1  0  0  0  0
 11 12  2  0  0  0  0
 12 13  1  0  0  0  0
 12 28  1  0  0  0  0
 13 14  1  0  0  0  0
 13 29  1  0  0  0  0
 14 15  1  0  0  0  0
 14 30  1  0  0  0  0
 14 31  1  0  0  0  0
 15 22  1  0  0  0  0
 15 16  1  0  0  0  0
 16 32  1  0  0  0  0
 17 18  1  0  0  0  0
 17 33  1  0  0  0  0
 17 34  1  0  0  0  0
 18 23  1  0  0  0  0
 18 19  1  0  0  0  0
 19 35  1  0  0  0  0
M  END
> <s_m_source_file>
AV-unprocessed.smi

> <i_m_source_file_index>
157

> <i_lp_mmshare_version>
43012

> <i_f3d_flags>
0

> <s_epik_input>
W09IXVtDSDJdW0NASF0xT1tDQEhdKFtDSDJdW0NAQEhdMVtPSF0pbihbY0hdbjIpYyhjMjMpTj1bQ0hdW05IXVtDSDJdW0NASF0zW09IXQ==

> <s_epik_cmdline>
J2VwaWtfcHl0aG9uJywgJy1waCcsICc3LjAnLCAnLXRuJywgJzgnLCAnLW1hJywgJzIwMCcsICctbWV0YWxfYmluZGluZycsICctaW1hZScsICc8aW5maWxlLm1hZT4nLCAnLW9tYWUnLCAnPG91dGZpbGUubWFlPic=

> <r_lp_tautomer_probability>
1

> <r_epik_Ionization_Penalty>
0.0357149

> <r_epik_Ionization_Penalty_Charging>
0.0355056

> <r_epik_Ionization_Penalty_Neutral>
0.000209255

> <r_epik_State_Penalty>
0.0296046

> <r_epik_Charging_Adjusted_Penalty>
0.0651102

> <i_epik_Tot_Q>
0

> <i_epik_Tot_abs_Q>
0

> <r_epik_Metal_State_Penalty>
3.03559e-05

> <b_epik_Metal_Only>
0

> <s_epik_Chemistry_Notes>
This compound has an imine and may undergo hydrolysis. This compound contains an acetal/aminal-like group ( X-CH(R)-Y where X, Y are N, S, or O) that may be acid/base labile, releasing an aldehyde.

> <s_lp_Force_Field>
OPLS_2005

> <r_lp_Energy>
44.137

> <b_lp_Chiralities_Consistent>
1

> <s_lp_Variant>
AV-unprocessed.smi:157-11

> <Gold.Version>
5.8.1

> <Gold.Id.Protein>
6NUR|6NUR_protein|mol2

> <Gold.PLP.Fitness>
41.4567

> <Gold.PLP.PLP>
-32.9861

> <Gold.PLP.part.hbond>
-3.0000

> <Gold.PLP.part.metal>
0.0000

> <Gold.PLP.part.buried>
-5.8453

> <Gold.PLP.part.nonpolar>
-24.8657

> <Gold.PLP.part.repulsive>
0.3714

> <Gold.PLP.ligand.clash>
0.0000

> <Gold.PLP.ligand.torsion>
0.2560

> <Gold.PLP.Chemscore.Hbond>
1.9913

> <Gold.PLP.Chemscore.CHOScore>
1.0000

> <Gold.PLP.Chemscore.Metal>
0.0000

> <Gold.Chemscore.Hbonds>
donor molecule, donor type, donor heavy atom, donor atom, acceptor molecule, acceptor atom, score
      L1  H     1    24       P1 10737  1.00
      L1  H    13    29       P1 10186  0.98
      L1  C    12    28       P1 10952  1.00

> <Gold.PLP.Chemscore.Internal.Correction>
0.0089

> <Gold.Rescore>
     Score         DG    S(hbond)    S(metal)    S(lipo)     H(rot)  DE(clash)    DE(int)     intcor
      7.61      -7.94       1.94        0.00      45.23       3.64       0.04       0.29       ----

> <Gold.Chemscore.Fitness>
7.6072

> <Gold.Chemscore.DG>
-7.9415

> <Gold.Chemscore.ZeroCoef>
-5.4800

> <Gold.Chemscore.Hbond>
1.9398

> <Gold.Chemscore.Metal>
0.0000

> <Gold.Chemscore.Lipo>
45.2258

> <Gold.Chemscore.Internal_Hbond>
0.0000

> <Gold.Chemscore.DEClash>
0.0447

> <Gold.Chemscore.DEInternal>
0.2896

> <Gold.Chemscore.Rot>
3.6362

> <Gold.Chemscore.Internal.Correction>
   9.000000E+99

> <Gold.Chemscore.Hbonds>
donor molecule, donor type, donor heavy atom, donor atom, acceptor molecule, acceptor atom, score
      L1  H     1    24       P1 10737  0.94
      L1  H    13    29       P1 10186  0.91

> <Gold.Chemscore.Hbond.Weighted>
-6.4788

> <Gold.Chemscore.Metal.Weighted>
-0.0000

> <Gold.Chemscore.Lipo.Weighted>
-5.2914

> <Gold.Chemscore.Internal_Hbond.Weighted>
0.0000

> <Gold.Chemscore.DEClash.Weighted>
0.0447

> <Gold.Chemscore.DEInternal.Weighted>
0.2896

> <Gold.Chemscore.Rot.Weighted>
9.3087

> <Gold.Chemscore.Internal.Correction.Weighted>
   9.000000E+99

> <Gold.Protein.RotatedTorsions>
[ 6907 6896 6895 6894 ] final   63.91 input  -60.11 | X-H torsion
[ 7974 7965 7964 7962 ] final  -10.79 input  175.53 | X-H torsion
[ 8008 7997 7996 7995 ] final  177.29 input   59.86 | X-H torsion
[ 10167 10162 10161 10158 ] final   37.69 input  -65.29 | X-H torsion
[ 10718 10713 10712 10709 ] final -134.49 input   66.30 | X-H torsion
[ 10763 10752 10751 10750 ] final -177.17 input  -60.55 | X-H torsion
[ 11005 11000 10999 10996 ] final  -49.43 input  -57.11 | X-H torsion

> <Gold.Protein.ActiveResidues>
 VAL166  LYS551  ARG553  GLY616  TRP617  ASP618  TYR619  PRO620  LYS621  CYS622 
 ASP623  PHE694  ASN695  SER759  ASP760  ASP761  ALA762  ILE779  LEU786  VAL792 
 PHE793  MET794  SER795  GLU796  ALA797  LYS798  CYS799  TRP800  GLU811  SER814 

> <Gold.Protein.RotatedAtoms>
  152.4290  134.5813  159.9948 H   0  0  0  0  0  0  0  0  0  0  0  0  # atno 6907 bound_to 6896
  151.5941  133.3357  159.3042 H   0  0  0  0  0  0  0  0  0  0  0  0  # atno 6908 bound_to 6896
  150.8182  134.7411  159.6813 H   0  0  0  0  0  0  0  0  0  0  0  0  # atno 6909 bound_to 6896
  146.2209  140.2816  142.8362 H   0  0  0  0  0  0  0  0  0  0  0  0  # atno 7974 bound_to 7965
  156.0673  140.1362  156.9871 H   0  0  0  0  0  0  0  0  0  0  0  0  # atno 8008 bound_to 7997
  154.4513  140.0979  156.6677 H   0  0  0  0  0  0  0  0  0  0  0  0  # atno 8009 bound_to 7997
  155.5284  140.3458  155.4423 H   0  0  0  0  0  0  0  0  0  0  0  0  # atno 8010 bound_to 7997
  140.4008  144.1726  150.6133 H   0  0  0  0  0  0  0  0  0  0  0  0  # atno 10167 bound_to 10162
  156.2560  130.7181  151.1098 H   0  0  0  0  0  0  0  0  0  0  0  0  # atno 10718 bound_to 10713
  154.5634  135.2822  155.0897 H   0  0  0  0  0  0  0  0  0  0  0  0  # atno 10763 bound_to 10752
  154.2297  135.6376  153.5175 H   0  0  0  0  0  0  0  0  0  0  0  0  # atno 10764 bound_to 10752
  153.0036  135.5534  154.6236 H   0  0  0  0  0  0  0  0  0  0  0  0  # atno 10765 bound_to 10752
  141.0759  133.6666  156.3584 H   0  0  0  0  0  0  0  0  0  0  0  0  # atno 11005 bound_to 11000
  144.9193  140.7849  143.5758 LP  0  0  0  0  0  0  0  0  0  0  0  0  # atno 17320 bound_to 7965
  145.2752  139.1939  143.4820 LP  0  0  0  0  0  0  0  0  0  0  0  0  # atno 17321 bound_to 7965
  140.4742  143.2402  151.9047 LP  0  0  0  0  0  0  0  0  0  0  0  0  # atno 17342 bound_to 10162
  139.4785  144.5338  151.8628 LP  0  0  0  0  0  0  0  0  0  0  0  0  # atno 17343 bound_to 10162
  157.7233  131.0667  150.6044 LP  0  0  0  0  0  0  0  0  0  0  0  0  # atno 17370 bound_to 10713
  156.6128  130.4384  149.5852 LP  0  0  0  0  0  0  0  0  0  0  0  0  # atno 17371 bound_to 10713
  140.5575  134.5967  157.5425 LP  0  0  0  0  0  0  0  0  0  0  0  0  # atno 17394 bound_to 11000
  139.9571  134.7516  156.0318 LP  0  0  0  0  0  0  0  0  0  0  0  0  # atno 17395 bound_to 11000

$$$$
