AV-unprocessed.smi:952|AV-procd|sdf|4256|dock5
  -GOLD-   22720 2163D 1   1.00000     0.00000
 Structure written by MMmdl.
 35 35  0  0  0  0  0  0  0  0  1 V2000
  155.2618  138.0271  164.6232 C   0  0  0  0  0  0  0  0  0  0  0  0
  155.0645  136.5603  164.2266 C   0  0  0  0  0  0  0  0  0  0  0  0
  154.0625  136.3940  163.0726 C   0  0  0  0  0  0  0  0  0  0  0  0
  154.1667  137.4853  162.1111 N   0  0  0  0  0  0  0  0  0  0  0  0
  153.9518  137.3733  160.7915 C   0  0  0  0  0  0  0  0  0  0  0  0
  153.6551  136.3104  160.2436 O   0  0  0  0  0  0  0  0  0  0  0  0
  154.1193  138.6585  159.9714 C   0  0  0  0  0  0  0  0  0  0  0  0
  153.3724  139.7872  160.5206 N   0  0  0  0  0  0  0  0  0  0  0  0
  153.8474  141.0352  160.6635 C   0  0  0  0  0  0  0  0  0  0  0  0
  154.9859  141.3637  160.3265 O   0  0  0  0  0  0  0  0  0  0  0  0
  152.8825  142.0613  161.2775 C   0  0  1  0  0  0  0  0  0  0  0  0
  153.3822  142.6208  162.6222 C   0  0  0  0  0  0  0  0  0  0  0  0
  152.6155  143.1367  160.3311 N   0  0  0  0  0  0  0  0  0  0  0  0
  151.8451  144.2710  160.5013 C   0  0  0  0  0  0  0  0  0  0  0  0
  151.8930  144.9775  159.3340 C   0  0  0  0  0  0  0  0  0  0  0  0
  152.7250  144.1858  158.4947 C   0  0  0  0  0  0  0  0  0  0  0  0
  153.1536  143.0858  159.0924 N   0  0  0  0  0  0  0  0  0  0  0  0
  155.9693  138.1142  165.4482 H   0  0  0  0  0  0  0  0  0  0  0  0
  154.3220  138.4797  164.9410 H   0  0  0  0  0  0  0  0  0  0  0  0
  155.6508  138.6109  163.7884 H   0  0  0  0  0  0  0  0  0  0  0  0
  156.0289  136.1358  163.9453 H   0  0  0  0  0  0  0  0  0  0  0  0
  154.7209  135.9965  165.0947 H   0  0  0  0  0  0  0  0  0  0  0  0
  154.2564  135.4596  162.5449 H   0  0  0  0  0  0  0  0  0  0  0  0
  153.0430  136.3274  163.4565 H   0  0  0  0  0  0  0  0  0  0  0  0
  154.4114  138.3942  162.4769 H   0  0  0  0  0  0  0  0  0  0  0  0
  155.1768  138.9161  159.8875 H   0  0  0  0  0  0  0  0  0  0  0  0
  153.7615  138.4716  158.9589 H   0  0  0  0  0  0  0  0  0  0  0  0
  152.4274  139.6032  160.8252 H   0  0  0  0  0  0  0  0  0  0  0  0
  151.9428  141.5403  161.4733 H   0  0  0  0  0  0  0  0  0  0  0  0
  153.5743  141.8195  163.3367 H   0  0  0  0  0  0  0  0  0  0  0  0
  152.6382  143.2824  163.0666 H   0  0  0  0  0  0  0  0  0  0  0  0
  154.3038  143.1927  162.5065 H   0  0  0  0  0  0  0  0  0  0  0  0
  151.3336  144.4786  161.4296 H   0  0  0  0  0  0  0  0  0  0  0  0
  151.4069  145.9161  159.1130 H   0  0  0  0  0  0  0  0  0  0  0  0
  153.0278  144.3759  157.4755 H   0  0  0  0  0  0  0  0  0  0  0  0
  1  2  1  0  0  0  0
  1 18  1  0  0  0  0
  1 19  1  0  0  0  0
  1 20  1  0  0  0  0
  2  3  1  0  0  0  0
  2 21  1  0  0  0  0
  2 22  1  0  0  0  0
  3  4  1  0  0  0  0
  3 23  1  0  0  0  0
  3 24  1  0  0  0  0
  4  5  1  0  0  0  0
  4 25  1  0  0  0  0
  5  6  2  0  0  0  0
  5  7  1  0  0  0  0
  7  8  1  0  0  0  0
  7 26  1  0  0  0  0
  7 27  1  0  0  0  0
  8  9  1  0  0  0  0
  8 28  1  0  0  0  0
  9 10  2  0  0  0  0
  9 11  1  0  0  0  0
 11 12  1  0  0  0  0
 11 13  1  0  0  0  0
 11 29  1  0  0  0  0
 12 30  1  0  0  0  0
 12 31  1  0  0  0  0
 12 32  1  0  0  0  0
 13 17  1  0  0  0  0
 13 14  1  0  0  0  0
 14 15  2  0  0  0  0
 14 33  1  0  0  0  0
 15 16  1  0  0  0  0
 15 34  1  0  0  0  0
 16 17  2  0  0  0  0
 16 35  1  0  0  0  0
M  END
> <s_m_source_file>
AV-unprocessed.smi

> <i_m_source_file_index>
952

> <i_lp_mmshare_version>
43012

> <i_f3d_flags>
0

> <s_epik_input>
W0NIM11bQ0gyXVtDSDJdW05IXUMoPU8pW0NIMl1bTkhdQyg9TylbQ0BIXShbQ0gzXSluMVtjSF1bY0hdW2NIXW4x

> <s_epik_cmdline>
J2VwaWtfcHl0aG9uJywgJy1waCcsICc3LjAnLCAnLXRuJywgJzgnLCAnLW1hJywgJzIwMCcsICctbWV0YWxfYmluZGluZycsICctaW1hZScsICc8aW5maWxlLm1hZT4nLCAnLW9tYWUnLCAnPG91dGZpbGUubWFlPic=

> <r_lp_tautomer_probability>
1

> <r_epik_Ionization_Penalty>
2.62173e-05

> <r_epik_Ionization_Penalty_Charging>
0

> <r_epik_Ionization_Penalty_Neutral>
2.62173e-05

> <r_epik_State_Penalty>
-0

> <r_epik_Charging_Adjusted_Penalty>
0

> <i_epik_Tot_Q>
0

> <i_epik_Tot_abs_Q>
0

> <r_epik_Metal_State_Penalty>
-0

> <b_epik_Metal_Only>
0

> <s_lp_Force_Field>
OPLS_2005

> <r_lp_Energy>
2.421

> <b_lp_Chiralities_Consistent>
1

> <s_lp_Variant>
AV-unprocessed.smi:952-2

> <Gold.Version>
5.8.1

> <Gold.Id.Protein>
6NUR|6NUR_protein|mol2

> <Gold.PLP.Fitness>
44.0407

> <Gold.PLP.PLP>
-42.1171

> <Gold.PLP.part.hbond>
-2.0000

> <Gold.PLP.part.metal>
0.0000

> <Gold.PLP.part.buried>
-4.3349

> <Gold.PLP.part.nonpolar>
-35.6335

> <Gold.PLP.part.repulsive>
0.0862

> <Gold.PLP.ligand.clash>
0.0000

> <Gold.PLP.ligand.torsion>
0.5909

> <Gold.PLP.Chemscore.Hbond>
1.0000

> <Gold.PLP.Chemscore.CHOScore>
0.0000

> <Gold.PLP.Chemscore.Metal>
0.0000

> <Gold.Chemscore.Hbonds>
donor molecule, donor type, donor heavy atom, donor atom, acceptor molecule, acceptor atom, score
      P1  H  6896  6907       L1     6  1.00

> <Gold.PLP.Chemscore.Internal.Correction>
0.1054

> <Gold.Rescore>
     Score         DG    S(hbond)    S(metal)    S(lipo)     H(rot)  DE(clash)    DE(int)     intcor
     11.75     -13.78       1.00        0.00      91.33       2.24       0.11       1.92       ----

> <Gold.Chemscore.Fitness>
11.7542

> <Gold.Chemscore.DG>
-13.7801

> <Gold.Chemscore.ZeroCoef>
-5.4800

> <Gold.Chemscore.Hbond>
1.0000

> <Gold.Chemscore.Metal>
0.0000

> <Gold.Chemscore.Lipo>
91.3265

> <Gold.Chemscore.Internal_Hbond>
0.0000

> <Gold.Chemscore.DEClash>
0.1061

> <Gold.Chemscore.DEInternal>
1.9198

> <Gold.Chemscore.Rot>
2.2364

> <Gold.Chemscore.Internal.Correction>
   9.000000E+99

> <Gold.Chemscore.Hbonds>
donor molecule, donor type, donor heavy atom, donor atom, acceptor molecule, acceptor atom, score
      P1  H  6896  6907       L1     6  0.97

> <Gold.Chemscore.Hbond.Weighted>
-3.3400

> <Gold.Chemscore.Metal.Weighted>
-0.0000

> <Gold.Chemscore.Lipo.Weighted>
-10.6852

> <Gold.Chemscore.Internal_Hbond.Weighted>
0.0000

> <Gold.Chemscore.DEClash.Weighted>
0.1061

> <Gold.Chemscore.DEInternal.Weighted>
1.9198

> <Gold.Chemscore.Rot.Weighted>
5.7251

> <Gold.Chemscore.Internal.Correction.Weighted>
   9.000000E+99

> <Gold.Protein.RotatedTorsions>
[ 6907 6896 6895 6894 ] final   45.36 input  -60.11 | X-H torsion
[ 7974 7965 7964 7962 ] final -171.04 input  175.53 | X-H torsion
[ 8008 7997 7996 7995 ] final  -13.39 input   59.86 | X-H torsion
[ 10167 10162 10161 10158 ] final   23.73 input  -65.29 | X-H torsion
[ 10718 10713 10712 10709 ] final   28.32 input   66.30 | X-H torsion
[ 10763 10752 10751 10750 ] final   93.79 input  -60.55 | X-H torsion
[ 11005 11000 10999 10996 ] final   13.87 input  -57.11 | X-H torsion

> <Gold.Protein.ActiveResidues>
 VAL166  LYS551  ARG553  GLY616  TRP617  ASP618  TYR619  PRO620  LYS621  CYS622 
 ASP623  PHE694  ASN695  SER759  ASP760  ASP761  ALA762  ILE779  LEU786  VAL792 
 PHE793  MET794  SER795  GLU796  ALA797  LYS798  CYS799  TRP800  GLU811  SER814 

> <Gold.Protein.RotatedAtoms>
  152.2436  134.8204  160.0456 H   0  0  0  0  0  0  0  0  0  0  0  0  # atno 6907 bound_to 6896
  151.8910  133.3511  159.3806 H   0  0  0  0  0  0  0  0  0  0  0  0  # atno 6908 bound_to 6896
  150.7061  134.4850  159.5533 H   0  0  0  0  0  0  0  0  0  0  0  0  # atno 6909 bound_to 6896
  144.7162  140.1981  143.6341 H   0  0  0  0  0  0  0  0  0  0  0  0  # atno 7974 bound_to 7965
  154.5297  140.2251  155.8827 H   0  0  0  0  0  0  0  0  0  0  0  0  # atno 8008 bound_to 7997
  156.1750  140.3113  155.9007 H   0  0  0  0  0  0  0  0  0  0  0  0  # atno 8009 bound_to 7997
  155.3478  140.0454  157.3036 H   0  0  0  0  0  0  0  0  0  0  0  0  # atno 8010 bound_to 7997
  140.5245  143.9946  150.6433 H   0  0  0  0  0  0  0  0  0  0  0  0  # atno 10167 bound_to 10162
  157.2318  130.7027  149.6317 H   0  0  0  0  0  0  0  0  0  0  0  0  # atno 10718 bound_to 10713
  153.2343  135.4313  155.0629 H   0  0  0  0  0  0  0  0  0  0  0  0  # atno 10763 bound_to 10752
  154.8311  135.3387  154.6742 H   0  0  0  0  0  0  0  0  0  0  0  0  # atno 10764 bound_to 10752
  153.7168  135.7019  153.5079 H   0  0  0  0  0  0  0  0  0  0  0  0  # atno 10765 bound_to 10752
  140.4759  134.0984  155.7741 H   0  0  0  0  0  0  0  0  0  0  0  0  # atno 11005 bound_to 11000
  145.8706  139.2270  143.1663 LP  0  0  0  0  0  0  0  0  0  0  0  0  # atno 17320 bound_to 7965
  146.0089  140.8454  142.9981 LP  0  0  0  0  0  0  0  0  0  0  0  0  # atno 17321 bound_to 7965
  140.3304  143.3081  152.0693 LP  0  0  0  0  0  0  0  0  0  0  0  0  # atno 17342 bound_to 10162
  139.4934  144.6513  151.6670 LP  0  0  0  0  0  0  0  0  0  0  0  0  # atno 17343 bound_to 10162
  155.9675  130.4486  150.5626 LP  0  0  0  0  0  0  0  0  0  0  0  0  # atno 17370 bound_to 10713
  157.3470  131.0727  151.1743 LP  0  0  0  0  0  0  0  0  0  0  0  0  # atno 17371 bound_to 10713
  141.1555  133.8891  157.1989 LP  0  0  0  0  0  0  0  0  0  0  0  0  # atno 17394 bound_to 11000
  139.9856  135.0083  156.9855 LP  0  0  0  0  0  0  0  0  0  0  0  0  # atno 17395 bound_to 11000

$$$$
