AV-unprocessed.smi:399|AV-procd|sdf|2491|dock5
  -GOLD-   2262022433D 1   1.00000     0.00000
 Structure written by MMmdl.
 47 48  0  0  0  0  0  0  0  0  4 V2000
  144.0996  136.6677  152.3377 C   0  0  0  0  0  0  0  0  0  0  0  0
  145.6409  136.8191  152.2858 C   0  0  0  0  0  0  0  0  0  0  0  0
  145.9629  137.4991  150.9317 C   0  0  0  0  0  0  0  0  0  0  0  0
  146.1232  137.7245  153.4553 C   0  0  0  0  0  0  0  0  0  0  0  0
  147.5713  137.6877  153.6366 N   0  0  0  0  0  0  0  0  0  0  0  0
  148.2176  138.2172  154.6847 C   0  0  0  0  0  0  0  0  0  0  0  0
  147.6385  138.7770  155.6167 O   0  0  0  0  0  0  0  0  0  0  0  0
  149.7467  138.0753  154.6732 C   0  0  0  0  0  0  0  0  0  0  0  0
  150.4159  138.8532  155.7301 N   0  0  0  0  0  0  0  0  0  0  0  0
  150.9045  138.1368  156.8407 C   0  0  0  0  0  0  0  0  0  0  0  0
  151.5266  138.7467  157.8687 C   0  0  0  0  0  0  0  0  0  0  0  0
  152.0212  137.9958  159.0017 N   0  3  0  0  0  0  0  0  0  0  0  0
  152.7884  138.5478  159.7836 O   0  0  0  0  0  0  0  0  0  0  0  0
  151.6618  136.8313  159.1472 O   0  5  0  0  0  0  0  0  0  0  0  0
  151.6839  140.1866  157.8029 C   0  0  0  0  0  0  0  0  0  0  0  0
  151.2179  140.8778  156.7442 C   0  0  0  0  0  0  0  0  0  0  0  0
  150.5404  140.2121  155.6269 C   0  0  0  0  0  0  0  0  0  0  0  0
  150.1098  140.8375  154.6578 O   0  0  0  0  0  0  0  0  0  0  0  0
  146.2921  135.4599  152.3374 N   0  3  0  0  0  0  0  0  0  0  0  0
  146.1707  134.7312  153.6325 C   0  0  0  0  0  0  0  0  0  0  0  0
  147.0240  133.4521  153.6181 C   0  0  0  0  0  0  0  0  0  0  0  0
  146.6225  132.6228  152.5374 O   0  0  0  0  0  0  0  0  0  0  0  0
  146.8180  133.2638  151.2852 C   0  0  0  0  0  0  0  0  0  0  0  0
  145.9593  134.5377  151.2140 C   0  0  0  0  0  0  0  0  0  0  0  0
  143.5921  137.6026  152.0971 H   0  0  0  0  0  0  0  0  0  0  0  0
  143.7450  136.3793  153.3272 H   0  0  0  0  0  0  0  0  0  0  0  0
  143.7488  135.9224  151.6228 H   0  0  0  0  0  0  0  0  0  0  0  0
  145.3578  138.3925  150.7732 H   0  0  0  0  0  0  0  0  0  0  0  0
  145.7674  136.8285  150.0940 H   0  0  0  0  0  0  0  0  0  0  0  0
  147.0009  137.8245  150.8670 H   0  0  0  0  0  0  0  0  0  0  0  0
  145.8394  138.7632  153.2858 H   0  0  0  0  0  0  0  0  0  0  0  0
  145.6551  137.4185  154.3914 H   0  0  0  0  0  0  0  0  0  0  0  0
  148.1167  137.2411  152.9133 H   0  0  0  0  0  0  0  0  0  0  0  0
  149.9905  137.0160  154.7652 H   0  0  0  0  0  0  0  0  0  0  0  0
  150.1266  138.3706  153.6932 H   0  0  0  0  0  0  0  0  0  0  0  0
  150.7330  137.0707  156.7981 H   0  0  0  0  0  0  0  0  0  0  0  0
  152.1767  140.7214  158.6015 H   0  0  0  0  0  0  0  0  0  0  0  0
  151.3453  141.9500  156.7163 H   0  0  0  0  0  0  0  0  0  0  0  0
  146.5024  135.3426  154.4691 H   0  0  0  0  0  0  0  0  0  0  0  0
  145.1310  134.4632  153.8206 H   0  0  0  0  0  0  0  0  0  0  0  0
  148.0858  133.6907  153.5384 H   0  0  0  0  0  0  0  0  0  0  0  0
  146.8910  132.9029  154.5503 H   0  0  0  0  0  0  0  0  0  0  0  0
  147.8744  133.4966  151.1410 H   0  0  0  0  0  0  0  0  0  0  0  0
  146.5333  132.5755  150.4893 H   0  0  0  0  0  0  0  0  0  0  0  0
  144.9048  134.2636  151.2493 H   0  0  0  0  0  0  0  0  0  0  0  0
  146.1397  135.0024  150.2467 H   0  0  0  0  0  0  0  0  0  0  0  0
  147.2790  135.6488  152.2350 H   0  0  0  0  0  0  0  0  0  0  0  0
  1  2  1  0  0  0  0
  1 25  1  0  0  0  0
  1 26  1  0  0  0  0
  1 27  1  0  0  0  0
  2  3  1  0  0  0  0
  2  4  1  0  0  0  0
  2 19  1  0  0  0  0
  3 28  1  0  0  0  0
  3 29  1  0  0  0  0
  3 30  1  0  0  0  0
  4  5  1  0  0  0  0
  4 31  1  0  0  0  0
  4 32  1  0  0  0  0
  5  6  1  0  0  0  0
  5 33  1  0  0  0  0
  6  7  2  0  0  0  0
  6  8  1  0  0  0  0
  8  9  1  0  0  0  0
  8 34  1  0  0  0  0
  8 35  1  0  0  0  0
  9 17  1  0  0  0  0
  9 10  1  0  0  0  0
 10 11  2  0  0  0  0
 10 36  1  0  0  0  0
 11 12  1  0  0  0  0
 11 15  1  0  0  0  0
 12 13  2  0  0  0  0
 12 14  1  0  0  0  0
 15 16  2  0  0  0  0
 15 37  1  0  0  0  0
 16 17  1  0  0  0  0
 16 38  1  0  0  0  0
 17 18  2  0  0  0  0
 19 24  1  0  0  0  0
 19 20  1  0  0  0  0
 19 47  1  0  0  0  0
 20 21  1  0  0  0  0
 20 39  1  0  0  0  0
 20 40  1  0  0  0  0
 21 22  1  0  0  0  0
 21 41  1  0  0  0  0
 21 42  1  0  0  0  0
 22 23  1  0  0  0  0
 23 24  1  0  0  0  0
 23 43  1  0  0  0  0
 23 44  1  0  0  0  0
 24 45  1  0  0  0  0
 24 46  1  0  0  0  0
M  CHG  1  12   1
M  CHG  1  14  -1
M  CHG  1  19   1
M  END
> <s_m_source_file>
AV-unprocessed.smi

> <i_m_source_file_index>
399

> <i_lp_mmshare_version>
43012

> <i_f3d_flags>
0

> <s_epik_input>
W0NIMl0xW0NIMl1PW0NIMl1bQ0gyXU4xQyhbQ0gzXSkoW0NIM10pW0NIMl1bTkhdQyg9TylbQ0gyXW4yW2NIXWMoW04rXSg9TylbTy1dKVtjSF1bY0hdYzI9Tw==

> <s_epik_cmdline>
J2VwaWtfcHl0aG9uJywgJy1waCcsICc3LjAnLCAnLXRuJywgJzgnLCAnLW1hJywgJzIwMCcsICctbWV0YWxfYmluZGluZycsICctaW1hZScsICc8aW5maWxlLm1hZT4nLCAnLW9tYWUnLCAnPG91dGZpbGUubWFlPic=

> <r_lp_tautomer_probability>
1

> <r_epik_Ionization_Penalty>
0.656654

> <r_epik_Ionization_Penalty_Charging>
0.656653

> <r_epik_Ionization_Penalty_Neutral>
9.12373e-08

> <r_epik_State_Penalty>
0.675641

> <r_epik_Charging_Adjusted_Penalty>
1.33229

> <i_epik_Tot_Q>
1

> <i_epik_Tot_abs_Q>
3

> <r_epik_Metal_State_Penalty>
0.675694

> <b_epik_Metal_Only>
0

> <s_lp_Force_Field>
OPLS_2005

> <r_lp_Energy>
37.786

> <b_lp_Chiralities_Consistent>
1

> <s_lp_Variant>
AV-unprocessed.smi:399-2

> <Gold.Version>
5.8.1

> <Gold.Id.Protein>
6NUR|6NUR_protein|mol2

> <Gold.PLP.Fitness>
42.5225

> <Gold.PLP.PLP>
-29.4496

> <Gold.PLP.part.hbond>
-4.0000

> <Gold.PLP.part.metal>
0.0000

> <Gold.PLP.part.buried>
-1.5239

> <Gold.PLP.part.nonpolar>
-25.6519

> <Gold.PLP.part.repulsive>
0.2855

> <Gold.PLP.ligand.clash>
0.0000

> <Gold.PLP.ligand.torsion>
0.5941

> <Gold.PLP.Chemscore.Hbond>
4.6960

> <Gold.PLP.Chemscore.CHOScore>
0.0000

> <Gold.PLP.Chemscore.Metal>
0.0000

> <Gold.Chemscore.Hbonds>
donor molecule, donor type, donor heavy atom, donor atom, acceptor molecule, acceptor atom, score
      L1  H     5    33       P1  7948  1.00
      L1  H    19    47       P1  7948  2.00
      P1  H  6896  6908       L1    14  1.00
      P1  H  7989  7998       L1    18  0.74

> <Gold.PLP.Chemscore.Internal.Correction>
0.1730

> <Gold.Rescore>
     Score         DG    S(hbond)    S(metal)    S(lipo)     H(rot)  DE(clash)    DE(int)     intcor
     17.82     -19.81       3.70        0.00      64.44       2.18       1.38       0.61       ----

> <Gold.Chemscore.Fitness>
17.8171

> <Gold.Chemscore.DG>
-19.8098

> <Gold.Chemscore.ZeroCoef>
-5.4800

> <Gold.Chemscore.Hbond>
3.7045

> <Gold.Chemscore.Metal>
0.0000

> <Gold.Chemscore.Lipo>
64.4375

> <Gold.Chemscore.Internal_Hbond>
0.0000

> <Gold.Chemscore.DEClash>
1.3780

> <Gold.Chemscore.DEInternal>
0.6147

> <Gold.Chemscore.Rot>
2.1806

> <Gold.Chemscore.Internal.Correction>
   9.000000E+99

> <Gold.Chemscore.Hbonds>
donor molecule, donor type, donor heavy atom, donor atom, acceptor molecule, acceptor atom, score
      L1  H     5    33       P1  7948  1.00
      L1  H    19    47       P1  7948  1.00
      P1  H  6896  6908       L1    14  0.96
      P1  H  7989  7998       L1    18  0.29

> <Gold.Chemscore.Hbond.Weighted>
-12.3731

> <Gold.Chemscore.Metal.Weighted>
-0.0000

> <Gold.Chemscore.Lipo.Weighted>
-7.5392

> <Gold.Chemscore.Internal_Hbond.Weighted>
0.0000

> <Gold.Chemscore.DEClash.Weighted>
1.3780

> <Gold.Chemscore.DEInternal.Weighted>
0.6147

> <Gold.Chemscore.Rot.Weighted>
5.5825

> <Gold.Chemscore.Internal.Correction.Weighted>
   9.000000E+99

> <Gold.Protein.RotatedTorsions>
[ 6907 6896 6895 6894 ] final -125.48 input  -60.11 | X-H torsion
[ 7974 7965 7964 7962 ] final -125.10 input  175.53 | X-H torsion
[ 8008 7997 7996 7995 ] final  -62.08 input   59.86 | X-H torsion
[ 10167 10162 10161 10158 ] final   -4.04 input  -65.29 | X-H torsion
[ 10718 10713 10712 10709 ] final  -25.64 input   66.30 | X-H torsion
[ 10763 10752 10751 10750 ] final  -86.40 input  -60.55 | X-H torsion
[ 11005 11000 10999 10996 ] final -148.64 input  -57.11 | X-H torsion

> <Gold.Protein.ActiveResidues>
 VAL166  LYS551  ARG553  GLY616  TRP617  ASP618  TYR619  PRO620  LYS621  CYS622 
 ASP623  PHE694  ASN695  SER759  ASP760  ASP761  ALA762  ILE779  LEU786  VAL792 
 PHE793  MET794  SER795  GLU796  ALA797  LYS798  CYS799  TRP800  GLU811  SER814 

> <Gold.Protein.RotatedAtoms>
  150.8871  133.7292  159.2914 H   0  0  0  0  0  0  0  0  0  0  0  0  # atno 6907 bound_to 6896
  151.4854  135.1053  159.9799 H   0  0  0  0  0  0  0  0  0  0  0  0  # atno 6908 bound_to 6896
  152.4797  133.8178  159.7093 H   0  0  0  0  0  0  0  0  0  0  0  0  # atno 6909 bound_to 6896
  145.0011  140.7821  143.4495 H   0  0  0  0  0  0  0  0  0  0  0  0  # atno 7974 bound_to 7965
  154.4481  140.1004  156.6531 H   0  0  0  0  0  0  0  0  0  0  0  0  # atno 8008 bound_to 7997
  155.5375  140.3483  155.4421 H   0  0  0  0  0  0  0  0  0  0  0  0  # atno 8009 bound_to 7997
  156.0620  140.1329  156.9918 H   0  0  0  0  0  0  0  0  0  0  0  0  # atno 8010 bound_to 7997
  140.6913  143.6469  150.8384 H   0  0  0  0  0  0  0  0  0  0  0  0  # atno 10167 bound_to 10162
  156.4617  130.4505  149.6925 H   0  0  0  0  0  0  0  0  0  0  0  0  # atno 10718 bound_to 10713
  154.6220  135.5450  153.7585 H   0  0  0  0  0  0  0  0  0  0  0  0  # atno 10763 bound_to 10752
  153.0243  135.6415  154.1427 H   0  0  0  0  0  0  0  0  0  0  0  0  # atno 10764 bound_to 10752
  154.1361  135.2911  155.3153 H   0  0  0  0  0  0  0  0  0  0  0  0  # atno 10765 bound_to 10752
  140.7591  134.3318  157.5106 H   0  0  0  0  0  0  0  0  0  0  0  0  # atno 11005 bound_to 11000
  145.2151  139.2186  143.5122 LP  0  0  0  0  0  0  0  0  0  0  0  0  # atno 17320 bound_to 7965
  146.3452  140.1998  142.8589 LP  0  0  0  0  0  0  0  0  0  0  0  0  # atno 17321 bound_to 7965
  140.0183  143.5570  152.2811 LP  0  0  0  0  0  0  0  0  0  0  0  0  # atno 17342 bound_to 10162
  139.6318  144.7645  151.2519 LP  0  0  0  0  0  0  0  0  0  0  0  0  # atno 17343 bound_to 10162
  156.3710  130.7530  151.2513 LP  0  0  0  0  0  0  0  0  0  0  0  0  # atno 17370 bound_to 10713
  157.7497  131.0323  150.4221 LP  0  0  0  0  0  0  0  0  0  0  0  0  # atno 17371 bound_to 10713
  139.8774  134.9191  156.3218 LP  0  0  0  0  0  0  0  0  0  0  0  0  # atno 17394 bound_to 11000
  140.9679  133.7346  156.0493 LP  0  0  0  0  0  0  0  0  0  0  0  0  # atno 17395 bound_to 11000

$$$$
