AV-unprocessed.smi:3290|AV-procd|sdf|12614|dock7
  -GOLD-   2272018543D 1   1.00000     0.00000
 Structure written by MMmdl.
 43 44  0  0  0  0  0  0  0  0  2 V2000
  142.9156  134.3262  152.3803 C   0  0  0  0  0  0  0  0  0  0  0  0
  144.1042  133.4493  151.9471 C   0  0  1  0  0  0  0  0  0  0  0  0
  143.6597  132.5103  150.8054 C   0  0  0  0  0  0  0  0  0  0  0  0
  144.7872  131.5717  150.3563 C   0  0  0  0  0  0  0  0  0  0  0  0
  146.0262  132.3713  149.9397 C   0  0  0  0  0  0  0  0  0  0  0  0
  146.4846  133.2980  151.0739 C   0  0  0  0  0  0  0  0  0  0  0  0
  145.3669  134.2617  151.5321 C   0  0  2  0  0  0  0  0  0  0  0  0
  145.9103  135.1805  152.6501 C   0  0  0  0  0  0  0  0  0  0  0  0
  146.3228  136.5018  152.1353 N   0  3  0  0  0  0  0  0  0  0  0  0
  146.0493  137.6226  153.0571 C   0  0  0  0  0  0  0  0  0  0  0  0
  146.6996  138.9285  152.5675 C   0  0  2  0  0  0  0  0  0  0  0  0
  147.7060  138.6124  151.6250 O   0  0  0  0  0  0  0  0  0  0  0  0
  147.2524  139.7358  153.7314 C   0  0  0  0  0  0  0  0  0  0  0  0
  147.2182  139.2330  155.0503 C   0  0  0  0  0  0  0  0  0  0  0  0
  147.7403  140.0292  156.0891 C   0  0  0  0  0  0  0  0  0  0  0  0
  148.2719  141.2539  155.8882 N   0  0  0  0  0  0  0  0  0  0  0  0
  148.2998  141.7311  154.6257 C   0  0  0  0  0  0  0  0  0  0  0  0
  147.8041  141.0162  153.5166 C   0  0  0  0  0  0  0  0  0  0  0  0
  142.6586  135.0558  151.6117 H   0  0  0  0  0  0  0  0  0  0  0  0
  143.1245  134.8629  153.3051 H   0  0  0  0  0  0  0  0  0  0  0  0
  142.0297  133.7183  152.5667 H   0  0  0  0  0  0  0  0  0  0  0  0
  144.3707  132.8224  152.7996 H   0  0  0  0  0  0  0  0  0  0  0  0
  142.8045  131.9128  151.1237 H   0  0  0  0  0  0  0  0  0  0  0  0
  143.3201  133.1014  149.9536 H   0  0  0  0  0  0  0  0  0  0  0  0
  145.0445  130.8899  151.1679 H   0  0  0  0  0  0  0  0  0  0  0  0
  144.4473  130.9517  149.5262 H   0  0  0  0  0  0  0  0  0  0  0  0
  146.8330  131.6911  149.6652 H   0  0  0  0  0  0  0  0  0  0  0  0
  145.8019  132.9614  149.0501 H   0  0  0  0  0  0  0  0  0  0  0  0
  146.8221  132.6964  151.9192 H   0  0  0  0  0  0  0  0  0  0  0  0
  147.3525  133.8653  150.7356 H   0  0  0  0  0  0  0  0  0  0  0  0
  145.1115  134.8845  150.6727 H   0  0  0  0  0  0  0  0  0  0  0  0
  145.1697  135.2980  153.4424 H   0  0  0  0  0  0  0  0  0  0  0  0
  146.7900  134.7273  153.1094 H   0  0  0  0  0  0  0  0  0  0  0  0
  147.3160  136.4798  151.9514 H   0  0  0  0  0  0  0  0  0  0  0  0
  144.9688  137.7561  153.1292 H   0  0  0  0  0  0  0  0  0  0  0  0
  146.4077  137.3697  154.0563 H   0  0  0  0  0  0  0  0  0  0  0  0
  145.9508  139.5327  152.0530 H   0  0  0  0  0  0  0  0  0  0  0  0
  148.4255  139.2150  151.7420 H   0  0  0  0  0  0  0  0  0  0  0  0
  146.8016  138.2599  155.2665 H   0  0  0  0  0  0  0  0  0  0  0  0
  147.7295  139.6728  157.1085 H   0  0  0  0  0  0  0  0  0  0  0  0
  148.7291  142.7133  154.4945 H   0  0  0  0  0  0  0  0  0  0  0  0
  147.8502  141.4463  152.5269 H   0  0  0  0  0  0  0  0  0  0  0  0
  145.8383  136.6734  151.2661 H   0  0  0  0  0  0  0  0  0  0  0  0
  1  2  1  0  0  0  0
  1 19  1  0  0  0  0
  1 20  1  0  0  0  0
  1 21  1  0  0  0  0
  2  7  1  0  0  0  0
  2  3  1  0  0  0  0
  2 22  1  0  0  0  0
  3  4  1  0  0  0  0
  3 23  1  0  0  0  0
  3 24  1  0  0  0  0
  4  5  1  0  0  0  0
  4 25  1  0  0  0  0
  4 26  1  0  0  0  0
  5  6  1  0  0  0  0
  5 27  1  0  0  0  0
  5 28  1  0  0  0  0
  6  7  1  0  0  0  0
  6 29  1  0  0  0  0
  6 30  1  0  0  0  0
  7  8  1  0  0  0  0
  7 31  1  0  0  0  0
  8  9  1  0  0  0  0
  8 32  1  0  0  0  0
  8 33  1  0  0  0  0
  9 10  1  0  0  0  0
  9 34  1  0  0  0  0
  9 43  1  0  0  0  0
 10 11  1  0  0  0  0
 10 35  1  0  0  0  0
 10 36  1  0  0  0  0
 11 12  1  0  0  0  0
 11 13  1  0  0  0  0
 11 37  1  0  0  0  0
 12 38  1  0  0  0  0
 13 18  1  0  0  0  0
 13 14  2  0  0  0  0
 14 15  1  0  0  0  0
 14 39  1  0  0  0  0
 15 16  2  0  0  0  0
 15 40  1  0  0  0  0
 16 17  1  0  0  0  0
 17 18  2  0  0  0  0
 17 41  1  0  0  0  0
 18 42  1  0  0  0  0
M  CHG  1   9   1
M  END
> <s_m_source_file>
AV-unprocessed.smi

> <i_m_source_file_index>
3290

> <i_lp_mmshare_version>
43012

> <i_f3d_flags>
0

> <s_epik_input>
W0NIM11bQ0BASF0xW0NIMl1bQ0gyXVtDSDJdW0NIMl1bQ0BIXTFbQ0gyXVtOSF1bQ0gyXVtDQEhdKFtPSF0pYzJbY0hdW2NIXW5bY0hdW2NIXTI=

> <s_epik_cmdline>
J2VwaWtfcHl0aG9uJywgJy1waCcsICc3LjAnLCAnLXRuJywgJzgnLCAnLW1hJywgJzIwMCcsICctbWV0YWxfYmluZGluZycsICctaW1hZScsICc8aW5maWxlLm1hZT4nLCAnLW9tYWUnLCAnPG91dGZpbGUubWFlPic=

> <r_lp_tautomer_probability>
1

> <r_epik_Ionization_Penalty>
0.00420552

> <r_epik_Ionization_Penalty_Charging>
0.00207255

> <r_epik_Ionization_Penalty_Neutral>
0.00213297

> <r_epik_State_Penalty>
-0

> <r_epik_Charging_Adjusted_Penalty>
0.00207255

> <i_epik_Tot_Q>
1

> <i_epik_Tot_abs_Q>
1

> <r_epik_Metal_State_Penalty>
-0

> <b_epik_Metal_Only>
0

> <s_lp_Force_Field>
OPLS_2005

> <r_lp_Energy>
17.7323

> <b_lp_Chiralities_Consistent>
1

> <s_lp_Variant>
AV-unprocessed.smi:3290-4

> <Gold.Version>
5.8.1

> <Gold.Id.Protein>
6NUR|6NUR_protein|mol2

> <Gold.PLP.Fitness>
45.8334

> <Gold.PLP.PLP>
-33.9843

> <Gold.PLP.part.hbond>
-3.5244

> <Gold.PLP.part.metal>
0.0000

> <Gold.PLP.part.buried>
-3.0033

> <Gold.PLP.part.nonpolar>
-27.6998

> <Gold.PLP.part.repulsive>
0.1305

> <Gold.PLP.ligand.clash>
0.0000

> <Gold.PLP.ligand.torsion>
1.4168

> <Gold.PLP.Chemscore.Hbond>
3.8720

> <Gold.PLP.Chemscore.CHOScore>
1.0000

> <Gold.PLP.Chemscore.Metal>
0.0000

> <Gold.Chemscore.Hbonds>
donor molecule, donor type, donor heavy atom, donor atom, acceptor molecule, acceptor atom, score
      L1  H     9    34       P1  7948  2.00
      L1  H    12    38       P1  7957  0.95
      P1  H  7954  7966       L1    12  0.88
      L1  C    17    41       P1  8028  1.00

> <Gold.PLP.Chemscore.Internal.Correction>
0.0667

> <Gold.Rescore>
     Score         DG    S(hbond)    S(metal)    S(lipo)     H(rot)  DE(clash)    DE(int)     intcor
     16.93     -18.47       2.14        0.00      94.70       2.05       0.24       1.30       ----

> <Gold.Chemscore.Fitness>
16.9251

> <Gold.Chemscore.DG>
-18.4684

> <Gold.Chemscore.ZeroCoef>
-5.4800

> <Gold.Chemscore.Hbond>
2.1425

> <Gold.Chemscore.Metal>
0.0000

> <Gold.Chemscore.Lipo>
94.6993

> <Gold.Chemscore.Internal_Hbond>
0.0000

> <Gold.Chemscore.DEClash>
0.2390

> <Gold.Chemscore.DEInternal>
1.3042

> <Gold.Chemscore.Rot>
2.0498

> <Gold.Chemscore.Internal.Correction>
   9.000000E+99

> <Gold.Chemscore.Hbonds>
donor molecule, donor type, donor heavy atom, donor atom, acceptor molecule, acceptor atom, score
      L1  H     9    34       P1  7948  1.00
      L1  H    12    38       P1  7957  0.83
      P1  H  7954  7966       L1    12  0.19

> <Gold.Chemscore.Hbond.Weighted>
-7.1561

> <Gold.Chemscore.Metal.Weighted>
-0.0000

> <Gold.Chemscore.Lipo.Weighted>
-11.0798

> <Gold.Chemscore.Internal_Hbond.Weighted>
0.0000

> <Gold.Chemscore.DEClash.Weighted>
0.2390

> <Gold.Chemscore.DEInternal.Weighted>
1.3042

> <Gold.Chemscore.Rot.Weighted>
5.2475

> <Gold.Chemscore.Internal.Correction.Weighted>
   9.000000E+99

> <Gold.Protein.RotatedTorsions>
[ 6907 6896 6895 6894 ] final  125.91 input  -60.11 | X-H torsion
[ 7974 7965 7964 7962 ] final   19.28 input  175.53 | X-H torsion
[ 8008 7997 7996 7995 ] final  -69.42 input   59.86 | X-H torsion
[ 10167 10162 10161 10158 ] final  -13.59 input  -65.29 | X-H torsion
[ 10718 10713 10712 10709 ] final  -40.79 input   66.30 | X-H torsion
[ 10763 10752 10751 10750 ] final   88.43 input  -60.55 | X-H torsion
[ 11005 11000 10999 10996 ] final   41.56 input  -57.11 | X-H torsion

> <Gold.Protein.ActiveResidues>
 VAL166  LYS551  ARG553  GLY616  TRP617  ASP618  TYR619  PRO620  LYS621  CYS622 
 ASP623  PHE694  ASN695  SER759  ASP760  ASP761  ALA762  ILE779  LEU786  VAL792 
 PHE793  MET794  SER795  GLU796  ALA797  LYS798  CYS799  TRP800  GLU811  SER814 

> <Gold.Protein.RotatedAtoms>
  152.3950  133.6734  159.6268 H   0  0  0  0  0  0  0  0  0  0  0  0  # atno 6907 bound_to 6896
  150.7851  133.8889  159.3316 H   0  0  0  0  0  0  0  0  0  0  0  0  # atno 6908 bound_to 6896
  151.6667  135.0983  160.0241 H   0  0  0  0  0  0  0  0  0  0  0  0  # atno 6909 bound_to 6896
  146.2155  139.8335  142.8655 H   0  0  0  0  0  0  0  0  0  0  0  0  # atno 7974 bound_to 7965
  154.4938  140.0854  156.7651 H   0  0  0  0  0  0  0  0  0  0  0  0  # atno 8008 bound_to 7997
  155.4167  140.3444  155.4250 H   0  0  0  0  0  0  0  0  0  0  0  0  # atno 8009 bound_to 7997
  156.1366  140.1517  156.8973 H   0  0  0  0  0  0  0  0  0  0  0  0  # atno 8010 bound_to 7997
  140.7185  143.5410  150.9409 H   0  0  0  0  0  0  0  0  0  0  0  0  # atno 10167 bound_to 10162
  156.2774  130.4213  149.8373 H   0  0  0  0  0  0  0  0  0  0  0  0  # atno 10718 bound_to 10713
  153.1768  135.4507  154.9975 H   0  0  0  0  0  0  0  0  0  0  0  0  # atno 10763 bound_to 10752
  154.8003  135.3253  154.7568 H   0  0  0  0  0  0  0  0  0  0  0  0  # atno 10764 bound_to 10752
  153.8038  135.6960  153.4906 H   0  0  0  0  0  0  0  0  0  0  0  0  # atno 10765 bound_to 10752
  140.1822  134.4089  155.8193 H   0  0  0  0  0  0  0  0  0  0  0  0  # atno 11005 bound_to 11000
  145.2973  141.0184  143.3629 LP  0  0  0  0  0  0  0  0  0  0  0  0  # atno 17320 bound_to 7965
  144.9032  139.4622  143.6622 LP  0  0  0  0  0  0  0  0  0  0  0  0  # atno 17321 bound_to 7965
  139.9132  143.6695  152.3111 LP  0  0  0  0  0  0  0  0  0  0  0  0  # atno 17342 bound_to 10162
  139.7085  144.7624  151.1152 LP  0  0  0  0  0  0  0  0  0  0  0  0  # atno 17343 bound_to 10162
  156.5832  130.8475  151.3388 LP  0  0  0  0  0  0  0  0  0  0  0  0  # atno 17370 bound_to 10713
  157.7304  130.9684  150.1830 LP  0  0  0  0  0  0  0  0  0  0  0  0  # atno 17371 bound_to 10713
  141.2223  133.7006  156.7951 LP  0  0  0  0  0  0  0  0  0  0  0  0  # atno 17394 bound_to 11000
  140.2254  134.8726  157.3421 LP  0  0  0  0  0  0  0  0  0  0  0  0  # atno 17395 bound_to 11000

$$$$
