AV-unprocessed.smi:546|AV-procd|sdf|2886|dock2
  -GOLD-   2262023383D 1   1.00000     0.00000
 Structure written by MMmdl.
 51 53  0  0  0  0  0  0  0  0  2 V2000
  149.1778  141.4755  155.2424 C   0  0  0  0  0  0  0  0  0  0  0  0
  149.7393  141.3349  156.6592 C   0  0  0  0  0  0  0  0  0  0  0  0
  150.1726  139.9999  156.8579 O   0  0  0  0  0  0  0  0  0  0  0  0
  150.6763  139.7797  158.1664 C   0  0  0  0  0  0  0  0  0  0  0  0
  152.1404  140.2345  158.2426 C   0  0  0  0  0  0  0  0  0  0  0  0
  152.7792  139.8094  159.4876 N   0  0  0  0  0  0  0  0  0  0  0  0
  153.2547  140.5727  160.5114 C   0  0  0  0  0  0  0  0  0  0  0  0
  153.1431  141.9649  160.5349 N   0  0  0  0  0  0  0  0  0  0  0  0
  153.2343  142.7953  159.3352 C   0  0  0  0  0  0  0  0  0  0  0  0
  152.0878  143.8221  159.2654 C   0  0  2  0  0  0  0  0  0  0  0  0
  152.1534  144.6536  157.9780 C   0  0  0  0  0  0  0  0  0  0  0  0
  152.1005  144.7121  160.5192 C   0  0  0  0  0  0  0  0  0  0  0  0
  152.0989  143.8458  161.7898 C   0  0  2  0  0  0  0  0  0  0  0  0
  152.1912  144.7036  163.0585 C   0  0  0  0  0  0  0  0  0  0  0  0
  153.2466  142.8182  161.7191 C   0  0  0  0  0  0  0  0  0  0  0  0
  153.8689  139.8844  161.4761 N   0  0  0  0  0  0  0  0  0  0  0  0
  153.7489  138.5713  161.0512 C   0  0  0  0  0  0  0  0  0  0  0  0
  153.1005  138.4985  159.8586 C   0  0  0  0  0  0  0  0  0  0  0  0
  152.8467  137.2302  159.1382 C   0  0  0  0  0  0  0  0  0  0  0  0
  152.2612  137.2187  158.0572 O   0  0  0  0  0  0  0  0  0  0  0  0
  153.3357  136.1436  159.8155 N   0  5  0  0  0  0  0  0  0  0  0  0
  153.9969  136.1725  161.0245 C   0  0  0  0  0  0  0  0  0  0  0  0
  154.4120  135.1453  161.5631 O   0  0  0  0  0  0  0  0  0  0  0  0
  154.2077  137.3697  161.6566 N   0  0  0  0  0  0  0  0  0  0  0  0
  154.9081  137.4324  162.9425 C   0  0  0  0  0  0  0  0  0  0  0  0
  148.8063  142.4856  155.0692 H   0  0  0  0  0  0  0  0  0  0  0  0
  148.3529  140.7817  155.0775 H   0  0  0  0  0  0  0  0  0  0  0  0
  149.9452  141.2710  154.4956 H   0  0  0  0  0  0  0  0  0  0  0  0
  150.5709  142.0272  156.7989 H   0  0  0  0  0  0  0  0  0  0  0  0
  148.9701  141.5902  157.3899 H   0  0  0  0  0  0  0  0  0  0  0  0
  150.0788  140.3351  158.8904 H   0  0  0  0  0  0  0  0  0  0  0  0
  150.5992  138.7226  158.4250 H   0  0  0  0  0  0  0  0  0  0  0  0
  152.6781  139.8512  157.3831 H   0  0  0  0  0  0  0  0  0  0  0  0
  152.2118  141.3176  158.1567 H   0  0  0  0  0  0  0  0  0  0  0  0
  154.2017  143.2990  159.3171 H   0  0  0  0  0  0  0  0  0  0  0  0
  153.2013  142.1556  158.4522 H   0  0  0  0  0  0  0  0  0  0  0  0
  151.1475  143.2716  159.2544 H   0  0  0  0  0  0  0  0  0  0  0  0
  153.0835  145.2197  157.9179 H   0  0  0  0  0  0  0  0  0  0  0  0
  151.3263  145.3622  157.9261 H   0  0  0  0  0  0  0  0  0  0  0  0
  152.0944  144.0142  157.0966 H   0  0  0  0  0  0  0  0  0  0  0  0
  152.9858  145.3495  160.5088 H   0  0  0  0  0  0  0  0  0  0  0  0
  151.2358  145.3766  160.5171 H   0  0  0  0  0  0  0  0  0  0  0  0
  151.1521  143.3052  161.8256 H   0  0  0  0  0  0  0  0  0  0  0  0
  153.1190  145.2758  163.0838 H   0  0  0  0  0  0  0  0  0  0  0  0
  152.1580  144.0821  163.9538 H   0  0  0  0  0  0  0  0  0  0  0  0
  151.3619  145.4092  163.1159 H   0  0  0  0  0  0  0  0  0  0  0  0
  153.2773  142.2067  162.6205 H   0  0  0  0  0  0  0  0  0  0  0  0
  154.2055  143.3377  161.6893 H   0  0  0  0  0  0  0  0  0  0  0  0
  155.9444  137.1135  162.8249 H   0  0  0  0  0  0  0  0  0  0  0  0
  154.4308  136.7800  163.6748 H   0  0  0  0  0  0  0  0  0  0  0  0
  154.9194  138.4361  163.3664 H   0  0  0  0  0  0  0  0  0  0  0  0
  1  2  1  0  0  0  0
  1 26  1  0  0  0  0
  1 27  1  0  0  0  0
  1 28  1  0  0  0  0
  2  3  1  0  0  0  0
  2 29  1  0  0  0  0
  2 30  1  0  0  0  0
  3  4  1  0  0  0  0
  4  5  1  0  0  0  0
  4 31  1  0  0  0  0
  4 32  1  0  0  0  0
  5  6  1  0  0  0  0
  5 33  1  0  0  0  0
  5 34  1  0  0  0  0
  6 18  1  0  0  0  0
  6  7  1  0  0  0  0
  7  8  1  0  0  0  0
  7 16  2  0  0  0  0
  8 15  1  0  0  0  0
  8  9  1  0  0  0  0
  9 10  1  0  0  0  0
  9 35  1  0  0  0  0
  9 36  1  0  0  0  0
 10 11  1  0  0  0  0
 10 12  1  0  0  0  0
 10 37  1  0  0  0  0
 11 38  1  0  0  0  0
 11 39  1  0  0  0  0
 11 40  1  0  0  0  0
 12 13  1  0  0  0  0
 12 41  1  0  0  0  0
 12 42  1  0  0  0  0
 13 14  1  0  0  0  0
 13 15  1  0  0  0  0
 13 43  1  0  0  0  0
 14 44  1  0  0  0  0
 14 45  1  0  0  0  0
 14 46  1  0  0  0  0
 15 47  1  0  0  0  0
 15 48  1  0  0  0  0
 16 17  1  0  0  0  0
 17 24  1  0  0  0  0
 17 18  2  0  0  0  0
 18 19  1  0  0  0  0
 19 20  2  0  0  0  0
 19 21  1  0  0  0  0
 21 22  1  0  0  0  0
 22 23  2  0  0  0  0
 22 24  1  0  0  0  0
 24 25  1  0  0  0  0
 25 49  1  0  0  0  0
 25 50  1  0  0  0  0
 25 51  1  0  0  0  0
M  CHG  1  21  -1
M  END
> <s_m_source_file>
AV-unprocessed.smi

> <i_m_source_file_index>
546

> <i_lp_mmshare_version>
43012

> <i_f3d_flags>
0

> <s_epik_input>
W0NIM11uMWMoPU8pW25IXWMoPU8pYyhjMTIpbihbQ0gyXVtDSDJdT1tDSDJdW0NIM10pYyhuMilOM1tDSDJdW0NAQEhdKFtDSDNdKVtDSDJdW0NAQEhdKFtDSDNdKVtDSDJdMw==

> <s_epik_cmdline>
J2VwaWtfcHl0aG9uJywgJy1waCcsICc3LjAnLCAnLXRuJywgJzgnLCAnLW1hJywgJzIwMCcsICctbWV0YWxfYmluZGluZycsICctaW1hZScsICc8aW5maWxlLm1hZT4nLCAnLW9tYWUnLCAnPG91dGZpbGUubWFlPic=

> <r_lp_tautomer_probability>
1

> <r_epik_Ionization_Penalty>
5.12825

> <r_epik_Ionization_Penalty_Charging>
0.0743105

> <r_epik_Ionization_Penalty_Neutral>
5.05394

> <r_epik_State_Penalty>
5.04406

> <r_epik_Charging_Adjusted_Penalty>
5.11837

> <i_epik_Tot_Q>
-1

> <i_epik_Tot_abs_Q>
1

> <r_epik_Metal_State_Penalty>
1.15122

> <b_epik_Metal_Only>
1

> <s_lp_Force_Field>
OPLS_2005

> <r_lp_Energy>
39.602

> <b_lp_Chiralities_Consistent>
1

> <s_lp_Variant>
AV-unprocessed.smi:546-4

> <Gold.Version>
5.8.1

> <Gold.Id.Protein>
6NUR|6NUR_protein|mol2

> <Gold.PLP.Fitness>
50.3362

> <Gold.PLP.PLP>
-45.0643

> <Gold.PLP.part.hbond>
-1.0000

> <Gold.PLP.part.metal>
0.0000

> <Gold.PLP.part.buried>
0.8793

> <Gold.PLP.part.nonpolar>
-45.5846

> <Gold.PLP.part.repulsive>
0.0000

> <Gold.PLP.ligand.clash>
0.2861

> <Gold.PLP.ligand.torsion>
0.5500

> <Gold.PLP.Chemscore.Hbond>
2.0000

> <Gold.PLP.Chemscore.CHOScore>
0.0000

> <Gold.PLP.Chemscore.Metal>
0.0000

> <Gold.Chemscore.Hbonds>
donor molecule, donor type, donor heavy atom, donor atom, acceptor molecule, acceptor atom, score
      P1  H  6896  6908       L1    21  2.00

> <Gold.PLP.Chemscore.Internal.Correction>
0.6581

> <Gold.Rescore>
     Score         DG    S(hbond)    S(metal)    S(lipo)     H(rot)  DE(clash)    DE(int)     intcor
     12.63     -17.62       0.52        0.00     122.16       1.52       2.10       2.89       ----

> <Gold.Chemscore.Fitness>
12.6277

> <Gold.Chemscore.DG>
-17.6195

> <Gold.Chemscore.ZeroCoef>
-5.4800

> <Gold.Chemscore.Hbond>
0.5206

> <Gold.Chemscore.Metal>
0.0000

> <Gold.Chemscore.Lipo>
122.1646

> <Gold.Chemscore.Internal_Hbond>
0.0000

> <Gold.Chemscore.DEClash>
2.1048

> <Gold.Chemscore.DEInternal>
2.8870

> <Gold.Chemscore.Rot>
1.5206

> <Gold.Chemscore.Internal.Correction>
   9.000000E+99

> <Gold.Chemscore.Hbonds>
donor molecule, donor type, donor heavy atom, donor atom, acceptor molecule, acceptor atom, score
      P1  H  6896  6908       L1    21  0.35

> <Gold.Chemscore.Hbond.Weighted>
-1.7389

> <Gold.Chemscore.Metal.Weighted>
-0.0000

> <Gold.Chemscore.Lipo.Weighted>
-14.2933

> <Gold.Chemscore.Internal_Hbond.Weighted>
0.0000

> <Gold.Chemscore.DEClash.Weighted>
2.1048

> <Gold.Chemscore.DEInternal.Weighted>
2.8870

> <Gold.Chemscore.Rot.Weighted>
3.8926

> <Gold.Chemscore.Internal.Correction.Weighted>
   9.000000E+99

> <Gold.Protein.RotatedTorsions>
[ 6907 6896 6895 6894 ] final  -80.69 input  -60.11 | X-H torsion
[ 7974 7965 7964 7962 ] final   82.05 input  175.53 | X-H torsion
[ 8008 7997 7996 7995 ] final   39.24 input   59.86 | X-H torsion
[ 10167 10162 10161 10158 ] final   65.58 input  -65.29 | X-H torsion
[ 10718 10713 10712 10709 ] final  -32.53 input   66.30 | X-H torsion
[ 10763 10752 10751 10750 ] final -156.77 input  -60.55 | X-H torsion
[ 11005 11000 10999 10996 ] final -176.21 input  -57.11 | X-H torsion

> <Gold.Protein.ActiveResidues>
 VAL166  LYS551  ARG553  GLY616  TRP617  ASP618  TYR619  PRO620  LYS621  CYS622 
 ASP623  PHE694  ASN695  SER759  ASP760  ASP761  ALA762  ILE779  LEU786  VAL792 
 PHE793  MET794  SER795  GLU796  ALA797  LYS798  CYS799  TRP800  GLU811  SER814 

> <Gold.Protein.RotatedAtoms>
  150.6925  134.3931  159.5084 H   0  0  0  0  0  0  0  0  0  0  0  0  # atno 6907 bound_to 6896
  152.1716  134.8827  160.0543 H   0  0  0  0  0  0  0  0  0  0  0  0  # atno 6908 bound_to 6896
  151.9851  133.3736  159.4159 H   0  0  0  0  0  0  0  0  0  0  0  0  # atno 6909 bound_to 6896
  145.6302  139.2403  143.2089 H   0  0  0  0  0  0  0  0  0  0  0  0  # atno 7974 bound_to 7965
  155.2334  140.3340  155.4300 H   0  0  0  0  0  0  0  0  0  0  0  0  # atno 8008 bound_to 7997
  156.2286  140.1840  156.7347 H   0  0  0  0  0  0  0  0  0  0  0  0  # atno 8009 bound_to 7997
  154.5939  140.0633  156.9262 H   0  0  0  0  0  0  0  0  0  0  0  0  # atno 8010 bound_to 7997
  140.1097  144.4829  150.6985 H   0  0  0  0  0  0  0  0  0  0  0  0  # atno 10167 bound_to 10162
  156.3737  130.4344  149.7524 H   0  0  0  0  0  0  0  0  0  0  0  0  # atno 10718 bound_to 10713
  154.7687  135.3139  154.8233 H   0  0  0  0  0  0  0  0  0  0  0  0  # atno 10763 bound_to 10752
  153.8974  135.6819  153.4761 H   0  0  0  0  0  0  0  0  0  0  0  0  # atno 10764 bound_to 10752
  153.1298  135.4785  154.9264 H   0  0  0  0  0  0  0  0  0  0  0  0  # atno 10765 bound_to 10752
  140.4547  134.6311  157.4816 H   0  0  0  0  0  0  0  0  0  0  0  0  # atno 11005 bound_to 11000
  146.1363  140.7119  142.9388 LP  0  0  0  0  0  0  0  0  0  0  0  0  # atno 17320 bound_to 7965
  144.7196  140.4330  143.7018 LP  0  0  0  0  0  0  0  0  0  0  0  0  # atno 17321 bound_to 7965
  140.6932  143.2388  151.5073 LP  0  0  0  0  0  0  0  0  0  0  0  0  # atno 17342 bound_to 10162
  139.5626  144.2120  152.1715 LP  0  0  0  0  0  0  0  0  0  0  0  0  # atno 17343 bound_to 10162
  156.4642  130.7966  151.2985 LP  0  0  0  0  0  0  0  0  0  0  0  0  # atno 17370 bound_to 10713
  157.7486  131.0056  150.3121 LP  0  0  0  0  0  0  0  0  0  0  0  0  # atno 17371 bound_to 10713
  139.9984  134.6875  155.9571 LP  0  0  0  0  0  0  0  0  0  0  0  0  # atno 17394 bound_to 11000
  141.1648  133.6537  156.4443 LP  0  0  0  0  0  0  0  0  0  0  0  0  # atno 17395 bound_to 11000

$$$$
