AV-unprocessed.smi:3234|AV-procd|sdf|12349|dock1
  -GOLD-   2272018213D 1   1.00000     0.00000
 Structure written by MMmdl.
 37 39  0  0  0  0  0  0  0  0  2 V2000
  151.6413  140.3127  156.6809 O   0  0  0  0  0  0  0  0  0  0  0  0
  150.9083  141.1422  156.1437 C   0  0  0  0  0  0  0  0  0  0  0  0
  150.7413  142.4173  156.5369 N   0  0  0  0  0  0  0  0  0  0  0  0
  151.3211  143.1095  157.6365 C   0  0  0  0  0  0  0  0  0  0  0  0
  151.8443  142.3287  158.6881 C   0  0  0  0  0  0  0  0  0  0  0  0
  152.4361  142.9776  159.7900 C   0  0  0  0  0  0  0  0  0  0  0  0
  152.5348  144.3190  159.8946 N   0  0  0  0  0  0  0  0  0  0  0  0
  152.0412  145.0659  158.8847 C   0  0  0  0  0  0  0  0  0  0  0  0
  151.4307  144.5180  157.7385 C   0  0  0  0  0  0  0  0  0  0  0  0
  150.1703  140.8714  155.0573 N   0  0  0  0  0  0  0  0  0  0  0  0
  150.1083  139.5737  154.3923 C   0  0  1  0  0  0  0  0  0  0  0  0
  151.4484  138.8385  154.3660 C   0  0  0  0  0  0  0  0  0  0  0  0
  151.0712  137.3470  154.3449 C   0  0  0  0  0  0  0  0  0  0  0  0
  149.6088  137.2695  154.5712 N   0  3  1  0  0  0  0  0  0  0  0  0
  149.1778  136.1165  155.3894 C   0  0  0  0  0  0  0  0  0  0  0  0
  150.2465  135.6088  156.3275 C   0  0  0  0  0  0  0  0  0  0  0  0
  149.9157  134.8391  155.0672 C   0  0  0  0  0  0  0  0  0  0  0  0
  149.1961  138.5773  155.1082 C   0  0  0  0  0  0  0  0  0  0  0  0
  150.1333  142.9774  155.9578 H   0  0  0  0  0  0  0  0  0  0  0  0
  151.7946  141.2500  158.6576 H   0  0  0  0  0  0  0  0  0  0  0  0
  152.8422  142.4022  160.6087 H   0  0  0  0  0  0  0  0  0  0  0  0
  152.1389  146.1362  158.9908 H   0  0  0  0  0  0  0  0  0  0  0  0
  151.0746  145.1880  156.9726 H   0  0  0  0  0  0  0  0  0  0  0  0
  149.5972  141.6096  154.6750 H   0  0  0  0  0  0  0  0  0  0  0  0
  149.7610  139.7069  153.3655 H   0  0  0  0  0  0  0  0  0  0  0  0
  152.0614  139.1266  153.5113 H   0  0  0  0  0  0  0  0  0  0  0  0
  152.0198  139.0544  155.2702 H   0  0  0  0  0  0  0  0  0  0  0  0
  151.3126  136.8853  153.3873 H   0  0  0  0  0  0  0  0  0  0  0  0
  151.6211  136.8101  155.1195 H   0  0  0  0  0  0  0  0  0  0  0  0
  148.1295  136.0922  155.6821 H   0  0  0  0  0  0  0  0  0  0  0  0
  151.1979  136.1367  156.3597 H   0  0  0  0  0  0  0  0  0  0  0  0
  149.9218  135.1789  157.2730 H   0  0  0  0  0  0  0  0  0  0  0  0
  149.3736  133.9027  155.1831 H   0  0  0  0  0  0  0  0  0  0  0  0
  150.6475  134.8557  154.2613 H   0  0  0  0  0  0  0  0  0  0  0  0
  149.3676  138.6066  156.1861 H   0  0  0  0  0  0  0  0  0  0  0  0
  148.1375  138.7656  154.9254 H   0  0  0  0  0  0  0  0  0  0  0  0
  149.1789  137.1831  153.6612 H   0  0  0  0  0  0  0  0  0  0  0  0
  1  2  2  0  0  0  0
  2  3  1  0  0  0  0
  2 10  1  0  0  0  0
  3  4  1  0  0  0  0
  3 19  1  0  0  0  0
  4  9  1  0  0  0  0
  4  5  2  0  0  0  0
  5  6  1  0  0  0  0
  5 20  1  0  0  0  0
  6  7  2  0  0  0  0
  6 21  1  0  0  0  0
  7  8  1  0  0  0  0
  8  9  2  0  0  0  0
  8 22  1  0  0  0  0
  9 23  1  0  0  0  0
 10 11  1  0  0  0  0
 10 24  1  0  0  0  0
 11 18  1  0  0  0  0
 11 12  1  0  0  0  0
 11 25  1  0  0  0  0
 12 13  1  0  0  0  0
 12 26  1  0  0  0  0
 12 27  1  0  0  0  0
 13 14  1  0  0  0  0
 13 28  1  0  0  0  0
 13 29  1  0  0  0  0
 14 15  1  0  0  0  0
 14 18  1  0  0  0  0
 14 37  1  0  0  0  0
 15 17  1  0  0  0  0
 15 16  1  0  0  0  0
 15 30  1  0  0  0  0
 16 17  1  0  0  0  0
 16 31  1  0  0  0  0
 16 32  1  0  0  0  0
 17 33  1  0  0  0  0
 17 34  1  0  0  0  0
 18 35  1  0  0  0  0
 18 36  1  0  0  0  0
M  CHG  1  14   1
M  END
> <s_m_source_file>
AV-unprocessed.smi

> <i_m_source_file_index>
3234

> <i_lp_mmshare_version>
43012

> <i_f3d_flags>
0

> <s_epik_input>
W2NIXTFbY0hdbltjSF1bY0hdYzFbTkhdQyg9TylbTkhdW0NAQEhdMltDSDJdW0NIMl1OKFtDSDJdMilbQ0hdM1tDSDJdW0NIMl0z

> <s_epik_cmdline>
J2VwaWtfcHl0aG9uJywgJy1waCcsICc3LjAnLCAnLXRuJywgJzgnLCAnLW1hJywgJzIwMCcsICctbWV0YWxfYmluZGluZycsICctaW1hZScsICc8aW5maWxlLm1hZT4nLCAnLW9tYWUnLCAnPG91dGZpbGUubWFlPic=

> <r_epik_Ionization_Penalty>
0.0934328

> <r_epik_Ionization_Penalty_Charging>
0.000606352

> <r_epik_Ionization_Penalty_Neutral>
0.0928265

> <r_epik_State_Penalty>
0.0830811

> <r_epik_Charging_Adjusted_Penalty>
0.0836875

> <i_epik_Tot_Q>
1

> <i_epik_Tot_abs_Q>
1

> <r_epik_Metal_State_Penalty>
0.0724491

> <b_epik_Metal_Only>
0

> <s_lp_Force_Field>
OPLS_2005

> <r_lp_Energy>
41.3186

> <b_lp_Chiralities_Consistent>
1

> <s_lp_Variant>
AV-unprocessed.smi:3234-2

> <Gold.Version>
5.8.1

> <Gold.Id.Protein>
6NUR|6NUR_protein|mol2

> <Gold.PLP.Fitness>
42.9859

> <Gold.PLP.PLP>
-35.7790

> <Gold.PLP.part.hbond>
-1.8198

> <Gold.PLP.part.metal>
0.0000

> <Gold.PLP.part.buried>
-3.5891

> <Gold.PLP.part.nonpolar>
-30.4533

> <Gold.PLP.part.repulsive>
1.2629

> <Gold.PLP.ligand.clash>
0.0000

> <Gold.PLP.ligand.torsion>
1.0277

> <Gold.PLP.Chemscore.Hbond>
2.6663

> <Gold.PLP.Chemscore.CHOScore>
0.0000

> <Gold.PLP.Chemscore.Metal>
0.0000

> <Gold.Chemscore.Hbonds>
donor molecule, donor type, donor heavy atom, donor atom, acceptor molecule, acceptor atom, score
      L1  H     3    19       P1  8028  0.67
      L1  H    14    37       P1  7948  2.00

> <Gold.PLP.Chemscore.Internal.Correction>
1.2634

> <Gold.Rescore>
     Score         DG    S(hbond)    S(metal)    S(lipo)     H(rot)  DE(clash)    DE(int)     intcor
     15.26     -19.24       1.61        0.00      98.11       1.21       0.16       3.82       ----

> <Gold.Chemscore.Fitness>
15.2579

> <Gold.Chemscore.DG>
-19.2380

> <Gold.Chemscore.ZeroCoef>
-5.4800

> <Gold.Chemscore.Hbond>
1.6102

> <Gold.Chemscore.Metal>
0.0000

> <Gold.Chemscore.Lipo>
98.1141

> <Gold.Chemscore.Internal_Hbond>
0.0000

> <Gold.Chemscore.DEClash>
0.1581

> <Gold.Chemscore.DEInternal>
3.8220

> <Gold.Chemscore.Rot>
1.2108

> <Gold.Chemscore.Internal.Correction>
   9.000000E+99

> <Gold.Chemscore.Hbonds>
donor molecule, donor type, donor heavy atom, donor atom, acceptor molecule, acceptor atom, score
      L1  H     3    19       P1  8028  0.64
      L1  H    14    37       P1  7948  0.89

> <Gold.Chemscore.Hbond.Weighted>
-5.3782

> <Gold.Chemscore.Metal.Weighted>
-0.0000

> <Gold.Chemscore.Lipo.Weighted>
-11.4793

> <Gold.Chemscore.Internal_Hbond.Weighted>
0.0000

> <Gold.Chemscore.DEClash.Weighted>
0.1581

> <Gold.Chemscore.DEInternal.Weighted>
3.8220

> <Gold.Chemscore.Rot.Weighted>
3.0996

> <Gold.Chemscore.Internal.Correction.Weighted>
   9.000000E+99

> <Gold.Protein.RotatedTorsions>
[ 6907 6896 6895 6894 ] final -137.24 input  -60.11 | X-H torsion
[ 7974 7965 7964 7962 ] final  135.55 input  175.53 | X-H torsion
[ 8008 7997 7996 7995 ] final    0.61 input   59.86 | X-H torsion
[ 10167 10162 10161 10158 ] final   72.09 input  -65.29 | X-H torsion
[ 10718 10713 10712 10709 ] final -121.38 input   66.30 | X-H torsion
[ 10763 10752 10751 10750 ] final   -9.78 input  -60.55 | X-H torsion
[ 11005 11000 10999 10996 ] final   61.67 input  -57.11 | X-H torsion

> <Gold.Protein.ActiveResidues>
 VAL166  LYS551  ARG553  GLY616  TRP617  ASP618  TYR619  PRO620  LYS621  CYS622 
 ASP623  PHE694  ASN695  SER759  ASP760  ASP761  ALA762  ILE779  LEU786  VAL792 
 PHE793  MET794  SER795  GLU796  ALA797  LYS798  CYS799  TRP800  GLU811  SER814 

> <Gold.Protein.RotatedAtoms>
  151.0200  133.5885  159.2672 H   0  0  0  0  0  0  0  0  0  0  0  0  # atno 6907 bound_to 6896
  151.3005  135.0766  159.9246 H   0  0  0  0  0  0  0  0  0  0  0  0  # atno 6908 bound_to 6896
  152.5321  133.9883  159.7893 H   0  0  0  0  0  0  0  0  0  0  0  0  # atno 6909 bound_to 6896
  144.9653  139.4665  143.5460 H   0  0  0  0  0  0  0  0  0  0  0  0  # atno 7974 bound_to 7965
  154.6700  140.2610  155.7017 H   0  0  0  0  0  0  0  0  0  0  0  0  # atno 8008 bound_to 7997
  156.2655  140.2831  156.1128 H   0  0  0  0  0  0  0  0  0  0  0  0  # atno 8009 bound_to 7997
  155.1182  140.0376  157.2733 H   0  0  0  0  0  0  0  0  0  0  0  0  # atno 8010 bound_to 7997
  140.0391  144.5404  150.7448 H   0  0  0  0  0  0  0  0  0  0  0  0  # atno 10167 bound_to 10162
  156.1332  130.6411  150.9655 H   0  0  0  0  0  0  0  0  0  0  0  0  # atno 10718 bound_to 10713
  153.4598  135.7016  153.6057 H   0  0  0  0  0  0  0  0  0  0  0  0  # atno 10763 bound_to 10752
  153.4357  135.3792  155.2198 H   0  0  0  0  0  0  0  0  0  0  0  0  # atno 10764 bound_to 10752
  154.8727  135.3961  154.4021 H   0  0  0  0  0  0  0  0  0  0  0  0  # atno 10765 bound_to 10752
  140.0145  134.6246  155.9730 H   0  0  0  0  0  0  0  0  0  0  0  0  # atno 11005 bound_to 11000
  146.3365  139.8829  142.8821 LP  0  0  0  0  0  0  0  0  0  0  0  0  # atno 17320 bound_to 7965
  145.2640  141.0086  143.3810 LP  0  0  0  0  0  0  0  0  0  0  0  0  # atno 17321 bound_to 7965
  140.7268  143.2645  151.4092 LP  0  0  0  0  0  0  0  0  0  0  0  0  # atno 17342 bound_to 10162
  139.6026  144.1265  152.2214 LP  0  0  0  0  0  0  0  0  0  0  0  0  # atno 17343 bound_to 10162
  157.6508  131.0897  150.8055 LP  0  0  0  0  0  0  0  0  0  0  0  0  # atno 17370 bound_to 10713
  156.8137  130.4961  149.5352 LP  0  0  0  0  0  0  0  0  0  0  0  0  # atno 17371 bound_to 10713
  141.1733  133.6538  156.4734 LP  0  0  0  0  0  0  0  0  0  0  0  0  # atno 17394 bound_to 11000
  140.4495  134.6941  157.5032 LP  0  0  0  0  0  0  0  0  0  0  0  0  # atno 17395 bound_to 11000

$$$$
