AV-unprocessed.smi:2025|AV-procd|sdf|8199|dock7
  -GOLD-   2272010453D 1   1.00000     0.00000
 Structure written by MMmdl.
 39 40  0  0  0  0  0  0  0  0  1 V2000
  148.3692  141.0753  154.5275 C   0  0  0  0  0  0  0  0  0  0  0  0
  149.0731  140.4979  155.7642 C   0  0  2  0  0  0  0  0  0  0  0  0
  150.0386  141.4797  156.2544 N   0  0  0  0  0  0  0  0  0  0  0  0
  150.7000  141.4201  157.4206 C   0  0  0  0  0  0  0  0  0  0  0  0
  150.5407  140.5213  158.2471 O   0  0  0  0  0  0  0  0  0  0  0  0
  151.6860  142.5620  157.6959 C   0  0  0  0  0  0  0  0  0  0  0  0
  152.2663  142.4887  159.0427 N   0  0  0  0  0  0  0  0  0  0  0  0
  152.0313  143.5085  159.9471 C   0  0  0  0  0  0  0  0  0  0  0  0
  152.5106  143.5089  161.2099 C   0  0  0  0  0  0  0  0  0  0  0  0
  153.3282  142.4058  161.6990 C   0  0  0  0  0  0  0  0  0  0  0  0
  153.7734  142.3513  162.8462 O   0  0  0  0  0  0  0  0  0  0  0  0
  153.5665  141.3839  160.7510 N   0  0  0  0  0  0  0  0  0  0  0  0
  154.3623  140.2553  161.1870 C   0  0  0  0  0  0  0  0  0  0  0  0
  153.0457  141.3788  159.4363 C   0  0  0  0  0  0  0  0  0  0  0  0
  153.2466  140.4485  158.6514 O   0  0  0  0  0  0  0  0  0  0  0  0
  149.7738  139.1582  155.4518 C   0  0  1  0  0  0  0  0  0  0  0  0
  151.1530  139.2784  154.8014 C   0  0  0  0  0  0  0  0  0  0  0  0
  151.7548  137.9272  155.1123 C   0  0  0  0  0  0  0  0  0  0  0  0
  151.2051  137.6383  156.5081 C   0  0  0  0  0  0  0  0  0  0  0  0
  150.0310  138.4353  156.6517 O   0  0  0  0  0  0  0  0  0  0  0  0
  147.6116  140.3888  154.1488 H   0  0  0  0  0  0  0  0  0  0  0  0
  149.0767  141.2671  153.7201 H   0  0  0  0  0  0  0  0  0  0  0  0
  147.8689  142.0151  154.7633 H   0  0  0  0  0  0  0  0  0  0  0  0
  148.3094  140.3218  156.5239 H   0  0  0  0  0  0  0  0  0  0  0  0
  150.2347  142.2604  155.6451 H   0  0  0  0  0  0  0  0  0  0  0  0
  152.4803  142.5646  156.9466 H   0  0  0  0  0  0  0  0  0  0  0  0
  151.1565  143.5066  157.5668 H   0  0  0  0  0  0  0  0  0  0  0  0
  151.4268  144.3468  159.6326 H   0  0  0  0  0  0  0  0  0  0  0  0
  152.2839  144.3347  161.8681 H   0  0  0  0  0  0  0  0  0  0  0  0
  154.7631  139.7140  160.3299 H   0  0  0  0  0  0  0  0  0  0  0  0
  153.7084  139.6187  161.7846 H   0  0  0  0  0  0  0  0  0  0  0  0
  155.2017  140.6304  161.7749 H   0  0  0  0  0  0  0  0  0  0  0  0
  149.1355  138.5396  154.8179 H   0  0  0  0  0  0  0  0  0  0  0  0
  151.1061  139.4872  153.7321 H   0  0  0  0  0  0  0  0  0  0  0  0
  151.7368  140.0657  155.2804 H   0  0  0  0  0  0  0  0  0  0  0  0
  151.3854  137.1851  154.4034 H   0  0  0  0  0  0  0  0  0  0  0  0
  152.8444  137.9233  155.0734 H   0  0  0  0  0  0  0  0  0  0  0  0
  150.9808  136.5801  156.6444 H   0  0  0  0  0  0  0  0  0  0  0  0
  151.9207  137.9339  157.2761 H   0  0  0  0  0  0  0  0  0  0  0  0
  1  2  1  0  0  0  0
  1 21  1  0  0  0  0
  1 22  1  0  0  0  0
  1 23  1  0  0  0  0
  2  3  1  0  0  0  0
  2 16  1  0  0  0  0
  2 24  1  0  0  0  0
  3  4  1  0  0  0  0
  3 25  1  0  0  0  0
  4  5  2  0  0  0  0
  4  6  1  0  0  0  0
  6  7  1  0  0  0  0
  6 26  1  0  0  0  0
  6 27  1  0  0  0  0
  7 14  1  0  0  0  0
  7  8  1  0  0  0  0
  8  9  2  0  0  0  0
  8 28  1  0  0  0  0
  9 10  1  0  0  0  0
  9 29  1  0  0  0  0
 10 11  2  0  0  0  0
 10 12  1  0  0  0  0
 12 13  1  0  0  0  0
 12 14  1  0  0  0  0
 13 30  1  0  0  0  0
 13 31  1  0  0  0  0
 13 32  1  0  0  0  0
 14 15  2  0  0  0  0
 16 20  1  0  0  0  0
 16 17  1  0  0  0  0
 16 33  1  0  0  0  0
 17 18  1  0  0  0  0
 17 34  1  0  0  0  0
 17 35  1  0  0  0  0
 18 19  1  0  0  0  0
 18 36  1  0  0  0  0
 18 37  1  0  0  0  0
 19 20  1  0  0  0  0
 19 38  1  0  0  0  0
 19 39  1  0  0  0  0
M  END
> <s_m_source_file>
AV-unprocessed.smi

> <i_m_source_file_index>
2025

> <i_lp_mmshare_version>
43012

> <i_f3d_flags>
0

> <s_epik_input>
TzFbQ0gyXVtDSDJdW0NIMl1bQ0BIXTFbQ0BIXShbQ0gzXSlbTkhdQyg9TylbQ0gyXW4yW2NIXVtjSF1jKD1PKW4oW0NIM10pYzI9Tw==

> <s_epik_cmdline>
J2VwaWtfcHl0aG9uJywgJy1waCcsICc3LjAnLCAnLXRuJywgJzgnLCAnLW1hJywgJzIwMCcsICctbWV0YWxfYmluZGluZycsICctaW1hZScsICc8aW5maWxlLm1hZT4nLCAnLW9tYWUnLCAnPG91dGZpbGUubWFlPic=

> <r_lp_tautomer_probability>
1

> <r_epik_Ionization_Penalty>
3.54787e-08

> <r_epik_Ionization_Penalty_Charging>
1.24654e-08

> <r_epik_Ionization_Penalty_Neutral>
2.30132e-08

> <r_epik_State_Penalty>
-0

> <r_epik_Charging_Adjusted_Penalty>
1.24654e-08

> <i_epik_Tot_Q>
0

> <i_epik_Tot_abs_Q>
0

> <r_epik_Metal_State_Penalty>
-0

> <b_epik_Metal_Only>
0

> <s_lp_Force_Field>
OPLS_2005

> <r_lp_Energy>
25.1152

> <b_lp_Chiralities_Consistent>
1

> <s_lp_Variant>
AV-unprocessed.smi:2025-3

> <Gold.Version>
5.8.1

> <Gold.Id.Protein>
6NUR|6NUR_protein|mol2

> <Gold.PLP.Fitness>
39.8390

> <Gold.PLP.PLP>
-38.3898

> <Gold.PLP.part.hbond>
-1.5915

> <Gold.PLP.part.metal>
0.0000

> <Gold.PLP.part.buried>
-3.2534

> <Gold.PLP.part.nonpolar>
-32.9881

> <Gold.PLP.part.repulsive>
0.1224

> <Gold.PLP.ligand.clash>
0.0000

> <Gold.PLP.ligand.torsion>
0.4811

> <Gold.PLP.Chemscore.Hbond>
0.8000

> <Gold.PLP.Chemscore.CHOScore>
0.0000

> <Gold.PLP.Chemscore.Metal>
0.0000

> <Gold.Chemscore.Hbonds>
donor molecule, donor type, donor heavy atom, donor atom, acceptor molecule, acceptor atom, score
      P1  H  7997  8010       L1    15  0.62

> <Gold.PLP.Chemscore.Internal.Correction>
0.0114

> <Gold.Rescore>
     Score         DG    S(hbond)    S(metal)    S(lipo)     H(rot)  DE(clash)    DE(int)     intcor
      6.68     -12.70       0.92        0.00      75.36       1.82       0.15       5.88       ----

> <Gold.Chemscore.Fitness>
6.6810

> <Gold.Chemscore.DG>
-12.7028

> <Gold.Chemscore.ZeroCoef>
-5.4800

> <Gold.Chemscore.Hbond>
0.9198

> <Gold.Chemscore.Metal>
0.0000

> <Gold.Chemscore.Lipo>
75.3605

> <Gold.Chemscore.Internal_Hbond>
0.0000

> <Gold.Chemscore.DEClash>
0.1454

> <Gold.Chemscore.DEInternal>
5.8764

> <Gold.Chemscore.Rot>
1.8228

> <Gold.Chemscore.Internal.Correction>
   9.000000E+99

> <Gold.Chemscore.Hbonds>
donor molecule, donor type, donor heavy atom, donor atom, acceptor molecule, acceptor atom, score
      P1  H  7997  8010       L1    15  0.59

> <Gold.Chemscore.Hbond.Weighted>
-3.0721

> <Gold.Chemscore.Metal.Weighted>
-0.0000

> <Gold.Chemscore.Lipo.Weighted>
-8.8172

> <Gold.Chemscore.Internal_Hbond.Weighted>
0.0000

> <Gold.Chemscore.DEClash.Weighted>
0.1454

> <Gold.Chemscore.DEInternal.Weighted>
5.8764

> <Gold.Chemscore.Rot.Weighted>
4.6665

> <Gold.Chemscore.Internal.Correction.Weighted>
   9.000000E+99

> <Gold.Protein.RotatedTorsions>
[ 6907 6896 6895 6894 ] final   52.41 input  -60.11 | X-H torsion
[ 7974 7965 7964 7962 ] final  -51.94 input  175.53 | X-H torsion
[ 8008 7997 7996 7995 ] final   29.54 input   59.86 | X-H torsion
[ 10167 10162 10161 10158 ] final -116.53 input  -65.29 | X-H torsion
[ 10718 10713 10712 10709 ] final -175.40 input   66.30 | X-H torsion
[ 10763 10752 10751 10750 ] final   -1.34 input  -60.55 | X-H torsion
[ 11005 11000 10999 10996 ] final  -88.78 input  -57.11 | X-H torsion

> <Gold.Protein.ActiveResidues>
 VAL166  LYS551  ARG553  GLY616  TRP617  ASP618  TYR619  PRO620  LYS621  CYS622 
 ASP623  PHE694  ASN695  SER759  ASP760  ASP761  ALA762  ILE779  LEU786  VAL792 
 PHE793  MET794  SER795  GLU796  ALA797  LYS798  CYS799  TRP800  GLU811  SER814 

> <Gold.Protein.RotatedAtoms>
  152.3230  134.7356  160.0308 H   0  0  0  0  0  0  0  0  0  0  0  0  # atno 6907 bound_to 6896
  151.7798  133.3343  159.3476 H   0  0  0  0  0  0  0  0  0  0  0  0  # atno 6908 bound_to 6896
  150.7380  134.5872  159.6013 H   0  0  0  0  0  0  0  0  0  0  0  0  # atno 6909 bound_to 6896
  145.9134  140.7895  142.9683 H   0  0  0  0  0  0  0  0  0  0  0  0  # atno 7974 bound_to 7965
  155.0761  140.3205  155.4616 H   0  0  0  0  0  0  0  0  0  0  0  0  # atno 8008 bound_to 7997
  156.2779  140.2103  156.5834 H   0  0  0  0  0  0  0  0  0  0  0  0  # atno 8009 bound_to 7997
  154.7016  140.0506  157.0451 H   0  0  0  0  0  0  0  0  0  0  0  0  # atno 8010 bound_to 7997
  140.0782  143.4813  152.1941 H   0  0  0  0  0  0  0  0  0  0  0  0  # atno 10167 bound_to 10162
  156.7994  130.9546  151.3119 H   0  0  0  0  0  0  0  0  0  0  0  0  # atno 10718 bound_to 10713
  153.3436  135.6982  153.6847 H   0  0  0  0  0  0  0  0  0  0  0  0  # atno 10763 bound_to 10752
  153.5602  135.3536  155.2796 H   0  0  0  0  0  0  0  0  0  0  0  0  # atno 10764 bound_to 10752
  154.8641  135.4247  154.2654 H   0  0  0  0  0  0  0  0  0  0  0  0  # atno 10765 bound_to 10752
  141.1596  133.7590  156.9500 H   0  0  0  0  0  0  0  0  0  0  0  0  # atno 11005 bound_to 11000
  144.6745  140.1862  143.7401 LP  0  0  0  0  0  0  0  0  0  0  0  0  # atno 17320 bound_to 7965
  145.8642  139.2238  143.1699 LP  0  0  0  0  0  0  0  0  0  0  0  0  # atno 17321 bound_to 7965
  139.5795  144.7504  151.3676 LP  0  0  0  0  0  0  0  0  0  0  0  0  # atno 17342 bound_to 10162
  140.7091  143.7437  150.7535 LP  0  0  0  0  0  0  0  0  0  0  0  0  # atno 17343 bound_to 10162
  157.6561  130.8926  149.9732 LP  0  0  0  0  0  0  0  0  0  0  0  0  # atno 17370 bound_to 10713
  156.1110  130.3650  150.0048 LP  0  0  0  0  0  0  0  0  0  0  0  0  # atno 17371 bound_to 10713
  140.1264  134.9384  157.2275 LP  0  0  0  0  0  0  0  0  0  0  0  0  # atno 17394 bound_to 11000
  140.3008  134.3134  155.7290 LP  0  0  0  0  0  0  0  0  0  0  0  0  # atno 17395 bound_to 11000

$$$$
