AV-unprocessed.smi:2158|AV-procd|sdf|8789|dock7
  -GOLD-   2272011573D 1   1.00000     0.00000
 Structure written by MMmdl.
 30 30  0  0  0  0  0  0  0  0  2 V2000
  151.1012  145.2725  159.1706 C   0  0  0  0  0  0  0  0  0  0  0  0
  152.2378  144.3925  159.7115 C   0  0  0  0  0  0  0  0  0  0  0  0
  151.9768  142.8823  159.5578 C   0  0  2  0  0  0  0  0  0  0  0  0
  153.1663  142.0460  160.0544 C   0  0  0  0  0  0  0  0  0  0  0  0
  151.6898  142.5606  158.1620 N   0  0  0  0  0  0  0  0  0  0  0  0
  150.7219  141.7355  157.7345 C   0  0  0  0  0  0  0  0  0  0  0  0
  149.9764  141.1144  158.4933 O   0  0  0  0  0  0  0  0  0  0  0  0
  150.6006  141.5667  156.2148 C   0  0  0  0  0  0  0  0  0  0  0  0
  150.6895  140.1589  155.7965 N   0  0  0  0  0  0  0  0  0  0  0  0
  149.7206  139.6795  154.8973 C   0  0  0  0  0  0  0  0  0  0  0  0
  149.7293  138.4072  154.4560 C   0  0  0  0  0  0  0  0  0  0  0  0
  150.7795  137.5172  154.9354 C   0  0  0  0  0  0  0  0  0  0  0  0
  150.7999  136.3509  154.5464 O   0  0  0  0  0  0  0  0  0  0  0  0
  151.6990  138.0306  155.8043 N   0  5  0  0  0  0  0  0  0  0  0  0
  151.6798  139.3277  156.2421 C   0  0  0  0  0  0  0  0  0  0  0  0
  152.5218  139.7721  157.0238 O   0  0  0  0  0  0  0  0  0  0  0  0
  151.3133  146.3275  159.3441 H   0  0  0  0  0  0  0  0  0  0  0  0
  150.1561  145.0386  159.6610 H   0  0  0  0  0  0  0  0  0  0  0  0
  150.9631  145.1369  158.0975 H   0  0  0  0  0  0  0  0  0  0  0  0
  153.1693  144.6602  159.2111 H   0  0  0  0  0  0  0  0  0  0  0  0
  152.3840  144.6245  160.7671 H   0  0  0  0  0  0  0  0  0  0  0  0
  151.1078  142.6330  160.1698 H   0  0  0  0  0  0  0  0  0  0  0  0
  153.3831  142.2563  161.1020 H   0  0  0  0  0  0  0  0  0  0  0  0
  154.0681  142.2577  159.4789 H   0  0  0  0  0  0  0  0  0  0  0  0
  152.9604  140.9783  159.9713 H   0  0  0  0  0  0  0  0  0  0  0  0
  152.2539  143.0240  157.4643 H   0  0  0  0  0  0  0  0  0  0  0  0
  149.6658  142.0056  155.8601 H   0  0  0  0  0  0  0  0  0  0  0  0
  151.3890  142.1553  155.7446 H   0  0  0  0  0  0  0  0  0  0  0  0
  148.9829  140.4044  154.5862 H   0  0  0  0  0  0  0  0  0  0  0  0
  148.9801  138.0552  153.7624 H   0  0  0  0  0  0  0  0  0  0  0  0
  1  2  1  0  0  0  0
  1 17  1  0  0  0  0
  1 18  1  0  0  0  0
  1 19  1  0  0  0  0
  2  3  1  0  0  0  0
  2 20  1  0  0  0  0
  2 21  1  0  0  0  0
  3  4  1  0  0  0  0
  3  5  1  0  0  0  0
  3 22  1  0  0  0  0
  4 23  1  0  0  0  0
  4 24  1  0  0  0  0
  4 25  1  0  0  0  0
  5  6  1  0  0  0  0
  5 26  1  0  0  0  0
  6  7  2  0  0  0  0
  6  8  1  0  0  0  0
  8  9  1  0  0  0  0
  8 27  1  0  0  0  0
  8 28  1  0  0  0  0
  9 15  1  0  0  0  0
  9 10  1  0  0  0  0
 10 11  2  0  0  0  0
 10 29  1  0  0  0  0
 11 12  1  0  0  0  0
 11 30  1  0  0  0  0
 12 13  2  0  0  0  0
 12 14  1  0  0  0  0
 14 15  1  0  0  0  0
 15 16  2  0  0  0  0
M  CHG  1  14  -1
M  END
> <s_m_source_file>
AV-unprocessed.smi

> <i_m_source_file_index>
2158

> <i_lp_mmshare_version>
43012

> <i_f3d_flags>
0

> <s_epik_input>
W0NIM11bQ0gyXVtDQEhdKFtDSDNdKVtOSF1DKD1PKVtDSDJdbjFbY0hdW2NIXWMoPU8pW25IXWMxPU8=

> <s_epik_cmdline>
J2VwaWtfcHl0aG9uJywgJy1waCcsICc3LjAnLCAnLXRuJywgJzgnLCAnLW1hJywgJzIwMCcsICctbWV0YWxfYmluZGluZycsICctaW1hZScsICc8aW5maWxlLm1hZT4nLCAnLW9tYWUnLCAnPG91dGZpbGUubWFlPic=

> <r_lp_tautomer_probability>
0.999537

> <r_epik_Ionization_Penalty>
3.08395

> <r_epik_Ionization_Penalty_Charging>
2.76809e-08

> <r_epik_Ionization_Penalty_Neutral>
3.08395

> <r_epik_State_Penalty>
3.08299

> <r_epik_Charging_Adjusted_Penalty>
3.08299

> <i_epik_Tot_Q>
-1

> <i_epik_Tot_abs_Q>
1

> <r_epik_Metal_State_Penalty>
0.460296

> <b_epik_Metal_Only>
1

> <s_lp_Force_Field>
OPLS_2005

> <r_lp_Energy>
12.2606

> <b_lp_Chiralities_Consistent>
1

> <s_lp_Variant>
AV-unprocessed.smi:2158-3

> <Gold.Version>
5.8.1

> <Gold.Id.Protein>
6NUR|6NUR_protein|mol2

> <Gold.PLP.Fitness>
41.0718

> <Gold.PLP.PLP>
-35.8762

> <Gold.PLP.part.hbond>
-2.0000

> <Gold.PLP.part.metal>
0.0000

> <Gold.PLP.part.buried>
-3.2275

> <Gold.PLP.part.nonpolar>
-30.7815

> <Gold.PLP.part.repulsive>
0.9611

> <Gold.PLP.ligand.clash>
0.0000

> <Gold.PLP.ligand.torsion>
0.4092

> <Gold.PLP.Chemscore.Hbond>
2.0000

> <Gold.PLP.Chemscore.CHOScore>
0.0000

> <Gold.PLP.Chemscore.Metal>
0.0000

> <Gold.Chemscore.Hbonds>
donor molecule, donor type, donor heavy atom, donor atom, acceptor molecule, acceptor atom, score
      P1  H  7997  8009       L1    16  0.96
      P1  H 10752 10765       L1    13  0.47

> <Gold.PLP.Chemscore.Internal.Correction>
0.0140

> <Gold.Rescore>
     Score         DG    S(hbond)    S(metal)    S(lipo)     H(rot)  DE(clash)    DE(int)     intcor
     12.83     -14.45       1.94        0.00      63.86       1.94       0.00       1.61       ----

> <Gold.Chemscore.Fitness>
12.8343

> <Gold.Chemscore.DG>
-14.4458

> <Gold.Chemscore.ZeroCoef>
-5.4800

> <Gold.Chemscore.Hbond>
1.9382

> <Gold.Chemscore.Metal>
0.0000

> <Gold.Chemscore.Lipo>
63.8579

> <Gold.Chemscore.Internal_Hbond>
0.0000

> <Gold.Chemscore.DEClash>
0.0000

> <Gold.Chemscore.DEInternal>
1.6115

> <Gold.Chemscore.Rot>
1.9449

> <Gold.Chemscore.Internal.Correction>
   9.000000E+99

> <Gold.Chemscore.Hbonds>
donor molecule, donor type, donor heavy atom, donor atom, acceptor molecule, acceptor atom, score
      P1  H  7997  8009       L1    16  0.89
      P1  H 10752 10765       L1    13  0.34

> <Gold.Chemscore.Hbond.Weighted>
-6.4735

> <Gold.Chemscore.Metal.Weighted>
-0.0000

> <Gold.Chemscore.Lipo.Weighted>
-7.4714

> <Gold.Chemscore.Internal_Hbond.Weighted>
0.0000

> <Gold.Chemscore.DEClash.Weighted>
0.0000

> <Gold.Chemscore.DEInternal.Weighted>
1.6115

> <Gold.Chemscore.Rot.Weighted>
4.9791

> <Gold.Chemscore.Internal.Correction.Weighted>
   9.000000E+99

> <Gold.Protein.RotatedTorsions>
[ 6907 6896 6895 6894 ] final  166.51 input  -60.11 | X-H torsion
[ 7974 7965 7964 7962 ] final  177.41 input  175.53 | X-H torsion
[ 8008 7997 7996 7995 ] final  162.42 input   59.86 | X-H torsion
[ 10167 10162 10161 10158 ] final  -65.49 input  -65.29 | X-H torsion
[ 10718 10713 10712 10709 ] final -146.96 input   66.30 | X-H torsion
[ 10763 10752 10751 10750 ] final  171.94 input  -60.55 | X-H torsion
[ 11005 11000 10999 10996 ] final  121.58 input  -57.11 | X-H torsion

> <Gold.Protein.ActiveResidues>
 VAL166  LYS551  ARG553  GLY616  TRP617  ASP618  TYR619  PRO620  LYS621  CYS622 
 ASP623  PHE694  ASN695  SER759  ASP760  ASP761  ALA762  ILE779  LEU786  VAL792 
 PHE793  MET794  SER795  GLU796  ALA797  LYS798  CYS799  TRP800  GLU811  SER814 

> <Gold.Protein.RotatedAtoms>
  151.8778  133.3489  159.3756 H   0  0  0  0  0  0  0  0  0  0  0  0  # atno 6907 bound_to 6896
  150.7135  134.5048  159.5588 H   0  0  0  0  0  0  0  0  0  0  0  0  # atno 6908 bound_to 6896
  152.2594  134.8050  160.0484 H   0  0  0  0  0  0  0  0  0  0  0  0  # atno 6909 bound_to 6896
  144.7169  140.0243  143.6439 H   0  0  0  0  0  0  0  0  0  0  0  0  # atno 7974 bound_to 7965
  156.2033  140.1751  156.7854 H   0  0  0  0  0  0  0  0  0  0  0  0  # atno 8008 bound_to 7997
  154.5620  140.0698  156.8864 H   0  0  0  0  0  0  0  0  0  0  0  0  # atno 8009 bound_to 7997
  155.2830  140.3350  155.4259 H   0  0  0  0  0  0  0  0  0  0  0  0  # atno 8010 bound_to 7997
  140.5726  143.2319  151.6508 H   0  0  0  0  0  0  0  0  0  0  0  0  # atno 10167 bound_to 10162
  156.4014  130.7936  151.2147 H   0  0  0  0  0  0  0  0  0  0  0  0  # atno 10718 bound_to 10713
  154.4190  135.2757  155.1988 H   0  0  0  0  0  0  0  0  0  0  0  0  # atno 10763 bound_to 10752
  154.3942  135.6059  153.5863 H   0  0  0  0  0  0  0  0  0  0  0  0  # atno 10764 bound_to 10752
  152.9832  135.5910  154.4483 H   0  0  0  0  0  0  0  0  0  0  0  0  # atno 10765 bound_to 10752
  139.9232  134.9639  156.7979 H   0  0  0  0  0  0  0  0  0  0  0  0  # atno 11005 bound_to 11000
  146.0155  139.3206  143.0844 LP  0  0  0  0  0  0  0  0  0  0  0  0  # atno 17320 bound_to 7965
  145.8631  140.9464  143.0690 LP  0  0  0  0  0  0  0  0  0  0  0  0  # atno 17321 bound_to 7965
  139.5125  144.3473  152.0685 LP  0  0  0  0  0  0  0  0  0  0  0  0  # atno 17342 bound_to 10162
  140.2612  144.4065  150.6185 LP  0  0  0  0  0  0  0  0  0  0  0  0  # atno 17343 bound_to 10162
  157.7504  131.0285  150.4053 LP  0  0  0  0  0  0  0  0  0  0  0  0  # atno 17370 bound_to 10713
  156.4334  130.3976  149.6745 LP  0  0  0  0  0  0  0  0  0  0  0  0  # atno 17371 bound_to 10713
  140.6414  133.9815  155.7709 LP  0  0  0  0  0  0  0  0  0  0  0  0  # atno 17394 bound_to 11000
  141.0769  134.0121  157.3444 LP  0  0  0  0  0  0  0  0  0  0  0  0  # atno 17395 bound_to 11000

$$$$
