AV-unprocessed.smi:1518|AV-procd|sdf|6125|dock5
  -GOLD-   22720 6263D 1   1.00000     0.00000
 Structure written by MMmdl.
 45 47  0  0  0  0  0  0  0  0  1 V2000
  147.3727  131.2771  161.2027 C   0  0  0  0  0  0  0  0  0  0  0  0
  147.9062  132.3954  160.3085 C   0  0  0  0  0  0  0  0  0  0  0  0
  148.3857  132.0969  159.2150 O   0  0  0  0  0  0  0  0  0  0  0  0
  147.8144  133.7967  160.8115 C   0  0  0  0  0  0  0  0  0  0  0  0
  147.2545  134.0355  162.0869 C   0  0  0  0  0  0  0  0  0  0  0  0
  147.1564  135.3456  162.5886 C   0  0  0  0  0  0  0  0  0  0  0  0
  147.6153  136.4300  161.8203 C   0  0  0  0  0  0  0  0  0  0  0  0
  148.1752  136.2217  160.5447 C   0  0  0  0  0  0  0  0  0  0  0  0
  148.5948  137.3428  159.8605 O   0  0  0  0  0  0  0  0  0  0  0  0
  149.2214  137.1718  158.5957 C   0  0  0  0  0  0  0  0  0  0  0  0
  150.6813  137.6425  158.6955 C   0  0  1  0  0  0  0  0  0  0  0  0
  151.3958  136.7278  159.5031 O   0  0  0  0  0  0  0  0  0  0  0  0
  151.3536  137.7250  157.3092 C   0  0  0  0  0  0  0  0  0  0  0  0
  151.0971  138.9867  156.6237 N   0  0  0  0  0  0  0  0  0  0  0  0
  150.8155  139.1922  155.3108 C   0  0  0  0  0  0  0  0  0  0  0  0
  150.7324  138.0743  154.3158 C   0  0  0  0  0  0  0  0  0  0  0  0
  149.6552  138.2169  153.4162 O   0  0  0  0  0  0  0  0  0  0  0  0
  150.6211  140.4615  154.9515 N   0  0  0  0  0  0  0  0  0  0  0  0
  150.8006  141.1456  156.1373 C   0  0  0  0  0  0  0  0  0  0  0  0
  150.7308  142.5288  156.4183 C   0  0  0  0  0  0  0  0  0  0  0  0
  150.9580  143.0036  157.7265 C   0  0  0  0  0  0  0  0  0  0  0  0
  151.2570  142.1041  158.7701 C   0  0  0  0  0  0  0  0  0  0  0  0
  151.3308  140.7218  158.5114 C   0  0  0  0  0  0  0  0  0  0  0  0
  151.1030  140.2526  157.2036 C   0  0  0  0  0  0  0  0  0  0  0  0
  148.2725  134.8970  160.0461 C   0  0  0  0  0  0  0  0  0  0  0  0
  146.3125  131.4255  161.4082 H   0  0  0  0  0  0  0  0  0  0  0  0
  147.9149  131.2512  162.1481 H   0  0  0  0  0  0  0  0  0  0  0  0
  147.4926  130.3094  160.7152 H   0  0  0  0  0  0  0  0  0  0  0  0
  146.8952  133.2174  162.6948 H   0  0  0  0  0  0  0  0  0  0  0  0
  146.7283  135.5189  163.5651 H   0  0  0  0  0  0  0  0  0  0  0  0
  147.5360  137.4329  162.2139 H   0  0  0  0  0  0  0  0  0  0  0  0
  149.1684  136.1363  158.2546 H   0  0  0  0  0  0  0  0  0  0  0  0
  148.6945  137.7910  157.8677 H   0  0  0  0  0  0  0  0  0  0  0  0
  150.7111  138.6230  159.1697 H   0  0  0  0  0  0  0  0  0  0  0  0
  151.9434  137.2186  160.0969 H   0  0  0  0  0  0  0  0  0  0  0  0
  152.4325  137.5984  157.4079 H   0  0  0  0  0  0  0  0  0  0  0  0
  151.0178  136.9040  156.6769 H   0  0  0  0  0  0  0  0  0  0  0  0
  151.6575  138.0395  153.7390 H   0  0  0  0  0  0  0  0  0  0  0  0
  150.6571  137.1180  154.8323 H   0  0  0  0  0  0  0  0  0  0  0  0
  149.5783  137.4212  152.9123 H   0  0  0  0  0  0  0  0  0  0  0  0
  150.5026  143.2254  155.6253 H   0  0  0  0  0  0  0  0  0  0  0  0
  150.9027  144.0630  157.9300 H   0  0  0  0  0  0  0  0  0  0  0  0
  151.4293  142.4756  159.7695 H   0  0  0  0  0  0  0  0  0  0  0  0
  151.5577  140.0301  159.3092 H   0  0  0  0  0  0  0  0  0  0  0  0
  148.7001  134.7216  159.0719 H   0  0  0  0  0  0  0  0  0  0  0  0
  1  2  1  0  0  0  0
  1 26  1  0  0  0  0
  1 27  1  0  0  0  0
  1 28  1  0  0  0  0
  2  3  2  0  0  0  0
  2  4  1  0  0  0  0
  4 25  1  0  0  0  0
  4  5  2  0  0  0  0
  5  6  1  0  0  0  0
  5 29  1  0  0  0  0
  6  7  2  0  0  0  0
  6 30  1  0  0  0  0
  7  8  1  0  0  0  0
  7 31  1  0  0  0  0
  8  9  1  0  0  0  0
  8 25  2  0  0  0  0
  9 10  1  0  0  0  0
 10 11  1  0  0  0  0
 10 32  1  0  0  0  0
 10 33  1  0  0  0  0
 11 12  1  0  0  0  0
 11 13  1  0  0  0  0
 11 34  1  0  0  0  0
 12 35  1  0  0  0  0
 13 14  1  0  0  0  0
 13 36  1  0  0  0  0
 13 37  1  0  0  0  0
 14 24  1  0  0  0  0
 14 15  1  0  0  0  0
 15 16  1  0  0  0  0
 15 18  2  0  0  0  0
 16 17  1  0  0  0  0
 16 38  1  0  0  0  0
 16 39  1  0  0  0  0
 17 40  1  0  0  0  0
 18 19  1  0  0  0  0
 19 24  2  0  0  0  0
 19 20  1  0  0  0  0
 20 21  2  0  0  0  0
 20 41  1  0  0  0  0
 21 22  1  0  0  0  0
 21 42  1  0  0  0  0
 22 23  2  0  0  0  0
 22 43  1  0  0  0  0
 23 24  1  0  0  0  0
 23 44  1  0  0  0  0
 25 45  1  0  0  0  0
M  END
> <s_m_source_file>
AV-unprocessed.smi

> <i_m_source_file_index>
1518

> <i_lp_mmshare_version>
43012

> <i_f3d_flags>
0

> <s_epik_input>
W0NIM11DKD1PKWMxW2NIXVtjSF1bY0hdYyhbY0hdMSlPW0NIMl1bQ0BIXShbT0hdKVtDSDJdbihjKG4yKVtDSDJdW09IXSljKGMyMylbY0hdW2NIXVtjSF1bY0hdMw==

> <s_epik_cmdline>
J2VwaWtfcHl0aG9uJywgJy1waCcsICc3LjAnLCAnLXRuJywgJzgnLCAnLW1hJywgJzIwMCcsICctbWV0YWxfYmluZGluZycsICctaW1hZScsICc8aW5maWxlLm1hZT4nLCAnLW9tYWUnLCAnPG91dGZpbGUubWFlPic=

> <r_lp_tautomer_probability>
0.99995

> <r_epik_Ionization_Penalty>
0.0583159

> <r_epik_Ionization_Penalty_Charging>
0

> <r_epik_Ionization_Penalty_Neutral>
0.0583159

> <r_epik_State_Penalty>
0.0503525

> <r_epik_Charging_Adjusted_Penalty>
0.0503525

> <i_epik_Tot_Q>
0

> <i_epik_Tot_abs_Q>
0

> <r_epik_Metal_State_Penalty>
5.25517e-05

> <b_epik_Metal_Only>
0

> <s_lp_Force_Field>
OPLS_2005

> <r_lp_Energy>
23.8716

> <b_lp_Chiralities_Consistent>
1

> <s_lp_Variant>
AV-unprocessed.smi:1518-2

> <Gold.Version>
5.8.1

> <Gold.Id.Protein>
6NUR|6NUR_protein|mol2

> <Gold.PLP.Fitness>
55.7557

> <Gold.PLP.PLP>
-48.4616

> <Gold.PLP.part.hbond>
-6.0000

> <Gold.PLP.part.metal>
0.0000

> <Gold.PLP.part.buried>
-4.2329

> <Gold.PLP.part.nonpolar>
-38.0974

> <Gold.PLP.part.repulsive>
0.0677

> <Gold.PLP.ligand.clash>
0.0000

> <Gold.PLP.ligand.torsion>
1.2048

> <Gold.PLP.Chemscore.Hbond>
3.1674

> <Gold.PLP.Chemscore.CHOScore>
0.0000

> <Gold.PLP.Chemscore.Metal>
0.0000

> <Gold.Chemscore.Hbonds>
donor molecule, donor type, donor heavy atom, donor atom, acceptor molecule, acceptor atom, score
      L1  H    17    40       P1  7948  1.00
      P1  H  6896  6907       L1    12  1.00
      P1  H  6931  6943       L1     9  0.08
      P1  H  6934  6947       L1     9  0.01
      P1  H  7989  7998       L1    18  1.00

> <Gold.PLP.Chemscore.Internal.Correction>
0.2014

> <Gold.Rescore>
     Score         DG    S(hbond)    S(metal)    S(lipo)     H(rot)  DE(clash)    DE(int)     intcor
     19.15     -20.08       2.78        0.00     116.57       3.25       0.07       0.87       ----

> <Gold.Chemscore.Fitness>
19.1497

> <Gold.Chemscore.DG>
-20.0839

> <Gold.Chemscore.ZeroCoef>
-5.4800

> <Gold.Chemscore.Hbond>
2.7786

> <Gold.Chemscore.Metal>
0.0000

> <Gold.Chemscore.Lipo>
116.5710

> <Gold.Chemscore.Internal_Hbond>
0.0000

> <Gold.Chemscore.DEClash>
0.0654

> <Gold.Chemscore.DEInternal>
0.8688

> <Gold.Chemscore.Rot>
3.2482

> <Gold.Chemscore.Internal.Correction>
   9.000000E+99

> <Gold.Chemscore.Hbonds>
donor molecule, donor type, donor heavy atom, donor atom, acceptor molecule, acceptor atom, score
      L1  H    17    40       P1  7948  0.70
      P1  H  6896  6907       L1    12  0.88
      P1  H  6934  6947       L1     9  0.01
      P1  H  7989  7998       L1    18  0.74

> <Gold.Chemscore.Hbond.Weighted>
-9.2806

> <Gold.Chemscore.Metal.Weighted>
-0.0000

> <Gold.Chemscore.Lipo.Weighted>
-13.6388

> <Gold.Chemscore.Internal_Hbond.Weighted>
0.0000

> <Gold.Chemscore.DEClash.Weighted>
0.0654

> <Gold.Chemscore.DEInternal.Weighted>
0.8688

> <Gold.Chemscore.Rot.Weighted>
8.3155

> <Gold.Chemscore.Internal.Correction.Weighted>
   9.000000E+99

> <Gold.Protein.RotatedTorsions>
[ 6907 6896 6895 6894 ] final  -22.91 input  -60.11 | X-H torsion
[ 7974 7965 7964 7962 ] final  -17.49 input  175.53 | X-H torsion
[ 8008 7997 7996 7995 ] final   57.90 input   59.86 | X-H torsion
[ 10167 10162 10161 10158 ] final -106.11 input  -65.29 | X-H torsion
[ 10718 10713 10712 10709 ] final  128.81 input   66.30 | X-H torsion
[ 10763 10752 10751 10750 ] final   28.61 input  -60.55 | X-H torsion
[ 11005 11000 10999 10996 ] final -103.47 input  -57.11 | X-H torsion

> <Gold.Protein.ActiveResidues>
 VAL166  LYS551  ARG553  GLY616  TRP617  ASP618  TYR619  PRO620  LYS621  CYS622 
 ASP623  PHE694  ASN695  SER759  ASP760  ASP761  ALA762  ILE779  LEU786  VAL792 
 PHE793  MET794  SER795  GLU796  ALA797  LYS798  CYS799  TRP800  GLU811  SER814 

> <Gold.Protein.RotatedAtoms>
  151.2116  135.0483  159.8913 H   0  0  0  0  0  0  0  0  0  0  0  0  # atno 6907 bound_to 6896
  152.5424  134.0738  159.8216 H   0  0  0  0  0  0  0  0  0  0  0  0  # atno 6908 bound_to 6896
  151.0892  133.5281  159.2648 H   0  0  0  0  0  0  0  0  0  0  0  0  # atno 6909 bound_to 6896
  146.1938  140.3786  142.8448 H   0  0  0  0  0  0  0  0  0  0  0  0  # atno 7974 bound_to 7965
  155.5413  140.3484  155.4447 H   0  0  0  0  0  0  0  0  0  0  0  0  # atno 8008 bound_to 7997
  156.0649  140.1349  156.9924 H   0  0  0  0  0  0  0  0  0  0  0  0  # atno 8009 bound_to 7997
  154.4498  140.0977  156.6557 H   0  0  0  0  0  0  0  0  0  0  0  0  # atno 8010 bound_to 7997
  140.1913  143.3889  152.1204 H   0  0  0  0  0  0  0  0  0  0  0  0  # atno 10167 bound_to 10162
  157.5211  131.1098  150.9151 H   0  0  0  0  0  0  0  0  0  0  0  0  # atno 10718 bound_to 10713
  153.0481  135.6509  154.0765 H   0  0  0  0  0  0  0  0  0  0  0  0  # atno 10763 bound_to 10752
  154.0459  135.2899  155.3349 H   0  0  0  0  0  0  0  0  0  0  0  0  # atno 10764 bound_to 10752
  154.6751  135.5341  153.8255 H   0  0  0  0  0  0  0  0  0  0  0  0  # atno 10765 bound_to 10752
  141.1144  133.8642  157.1489 H   0  0  0  0  0  0  0  0  0  0  0  0  # atno 11005 bound_to 11000
  144.8540  140.7042  143.6150 LP  0  0  0  0  0  0  0  0  0  0  0  0  # atno 17320 bound_to 7965
  145.3708  139.1659  143.4333 LP  0  0  0  0  0  0  0  0  0  0  0  0  # atno 17321 bound_to 7965
  139.5255  144.7096  151.5247 LP  0  0  0  0  0  0  0  0  0  0  0  0  # atno 17342 bound_to 10162
  140.6453  143.8806  150.6732 LP  0  0  0  0  0  0  0  0  0  0  0  0  # atno 17343 bound_to 10162
  156.9762  130.5509  149.5293 LP  0  0  0  0  0  0  0  0  0  0  0  0  # atno 17370 bound_to 10713
  156.0354  130.5442  150.8641 LP  0  0  0  0  0  0  0  0  0  0  0  0  # atno 17371 bound_to 10713
  140.0057  135.0009  157.0288 LP  0  0  0  0  0  0  0  0  0  0  0  0  # atno 17394 bound_to 11000
  140.4686  134.1410  155.7200 LP  0  0  0  0  0  0  0  0  0  0  0  0  # atno 17395 bound_to 11000

$$$$
