AV-unprocessed.smi:2018|AV-procd|sdf|8169|dock5
  -GOLD-   2272010413D 1   1.00000     0.00000
 Structure written by MMmdl.
 35 36  0  0  0  0  0  0  0  0  1 V2000
  151.9639  144.6976  157.5328 C   0  0  0  0  0  0  0  0  0  0  0  0
  152.1010  144.3896  158.9844 C   0  0  0  0  0  0  0  0  0  0  0  0
  152.5751  143.2321  159.4526 N   0  0  0  0  0  0  0  0  0  0  0  0
  152.6035  143.1881  160.8502 C   0  0  0  0  0  0  0  0  0  0  0  0
  153.1050  141.9625  161.5511 C   0  0  0  0  0  0  0  0  0  0  0  0
  153.6055  140.8924  160.5668 C   0  0  0  0  0  0  0  0  0  0  0  0
  152.6921  140.7301  159.4417 N   0  0  0  0  0  0  0  0  0  0  0  0
  152.8915  139.9093  158.3941 C   0  0  0  0  0  0  0  0  0  0  0  0
  153.8858  139.1908  158.2876 O   0  0  0  0  0  0  0  0  0  0  0  0
  151.8349  139.9184  157.3468 C   0  0  0  0  0  0  0  0  0  0  0  0
  151.8887  139.0758  156.3630 N   0  0  0  0  0  0  0  0  0  0  0  0
  150.9221  139.0350  155.3788 N   0  0  0  0  0  0  0  0  0  0  0  0
  150.9840  137.8641  154.5060 C   0  0  0  0  0  0  0  0  0  0  0  0
  149.9838  139.9938  155.1788 C   0  0  0  0  0  0  0  0  0  0  0  0
  149.1175  139.9320  154.3066 O   0  0  0  0  0  0  0  0  0  0  0  0
  150.0577  141.2220  156.0903 C   0  0  0  0  0  0  0  0  0  0  0  0
  150.6811  140.8953  157.4621 C   0  0  0  0  0  0  0  0  0  0  0  0
  152.1377  144.3379  161.4374 C   0  0  0  0  0  0  0  0  0  0  0  0
  151.6476  145.5193  160.2545 S   0  0  0  0  0  0  0  0  0  0  0  0
  152.5091  143.9686  156.9324 H   0  0  0  0  0  0  0  0  0  0  0  0
  152.3624  145.6901  157.3224 H   0  0  0  0  0  0  0  0  0  0  0  0
  150.9130  144.6728  157.2450 H   0  0  0  0  0  0  0  0  0  0  0  0
  153.9105  142.2310  162.2360 H   0  0  0  0  0  0  0  0  0  0  0  0
  152.3120  141.5463  162.1739 H   0  0  0  0  0  0  0  0  0  0  0  0
  154.6046  141.1421  160.2054 H   0  0  0  0  0  0  0  0  0  0  0  0
  153.6904  139.9305  161.0734 H   0  0  0  0  0  0  0  0  0  0  0  0
  151.8491  141.2864  159.4528 H   0  0  0  0  0  0  0  0  0  0  0  0
  151.1343  138.1641  153.4678 H   0  0  0  0  0  0  0  0  0  0  0  0
  150.0564  137.2930  154.5654 H   0  0  0  0  0  0  0  0  0  0  0  0
  151.8011  137.1934  154.7771 H   0  0  0  0  0  0  0  0  0  0  0  0
  150.6646  141.9714  155.5808 H   0  0  0  0  0  0  0  0  0  0  0  0
  149.0651  141.6552  156.2181 H   0  0  0  0  0  0  0  0  0  0  0  0
  149.9226  140.4779  158.1254 H   0  0  0  0  0  0  0  0  0  0  0  0
  151.0102  141.8285  157.9207 H   0  0  0  0  0  0  0  0  0  0  0  0
  152.0528  144.5598  162.4909 H   0  0  0  0  0  0  0  0  0  0  0  0
  1  2  1  0  0  0  0
  1 20  1  0  0  0  0
  1 21  1  0  0  0  0
  1 22  1  0  0  0  0
  2 19  1  0  0  0  0
  2  3  2  0  0  0  0
  3  4  1  0  0  0  0
  4  5  1  0  0  0  0
  4 18  2  0  0  0  0
  5  6  1  0  0  0  0
  5 23  1  0  0  0  0
  5 24  1  0  0  0  0
  6  7  1  0  0  0  0
  6 25  1  0  0  0  0
  6 26  1  0  0  0  0
  7  8  1  0  0  0  0
  7 27  1  0  0  0  0
  8  9  2  0  0  0  0
  8 10  1  0  0  0  0
 10 17  1  0  0  0  0
 10 11  2  0  0  0  0
 11 12  1  0  0  0  0
 12 13  1  0  0  0  0
 12 14  1  0  0  0  0
 13 28  1  0  0  0  0
 13 29  1  0  0  0  0
 13 30  1  0  0  0  0
 14 15  2  0  0  0  0
 14 16  1  0  0  0  0
 16 17  1  0  0  0  0
 16 31  1  0  0  0  0
 16 32  1  0  0  0  0
 17 33  1  0  0  0  0
 17 34  1  0  0  0  0
 18 19  1  0  0  0  0
 18 35  1  0  0  0  0
M  END
> <s_m_source_file>
AV-unprocessed.smi

> <i_m_source_file_index>
2018

> <i_lp_mmshare_version>
43012

> <i_f3d_flags>
0

> <s_epik_input>
W0NIM11jMW5jKFtjSF1zMSlbQ0gyXVtDSDJdW05IXUMoPU8pQzI9Tk4oW0NIM10pQyg9TylbQ0gyXVtDSDJdMg==

> <s_epik_cmdline>
J2VwaWtfcHl0aG9uJywgJy1waCcsICc3LjAnLCAnLXRuJywgJzgnLCAnLW1hJywgJzIwMCcsICctbWV0YWxfYmluZGluZycsICctaW1hZScsICc8aW5maWxlLm1hZT4nLCAnLW9tYWUnLCAnPG91dGZpbGUubWFlPic=

> <r_epik_Ionization_Penalty>
0.000694267

> <r_epik_Ionization_Penalty_Charging>
0

> <r_epik_Ionization_Penalty_Neutral>
0.000694267

> <r_epik_State_Penalty>
0.000389372

> <r_epik_Charging_Adjusted_Penalty>
0.000389372

> <i_epik_Tot_Q>
0

> <i_epik_Tot_abs_Q>
0

> <r_epik_Metal_State_Penalty>
0.0645979

> <b_epik_Metal_Only>
0

> <s_epik_Chemistry_Notes>
This compound has an imine and may undergo hydrolysis.

> <s_lp_Force_Field>
OPLS_2005

> <r_lp_Energy>
11.1599

> <b_lp_Chiralities_Consistent>
1

> <s_lp_Variant>
AV-unprocessed.smi:2018-1

> <Gold.Version>
5.8.1

> <Gold.Id.Protein>
6NUR|6NUR_protein|mol2

> <Gold.PLP.Fitness>
47.5282

> <Gold.PLP.PLP>
-44.6931

> <Gold.PLP.part.hbond>
-1.0000

> <Gold.PLP.part.metal>
0.0000

> <Gold.PLP.part.buried>
-6.0536

> <Gold.PLP.part.nonpolar>
-37.7244

> <Gold.PLP.part.repulsive>
1.3182

> <Gold.PLP.ligand.clash>
0.0000

> <Gold.PLP.ligand.torsion>
0.0868

> <Gold.PLP.Chemscore.Hbond>
1.0000

> <Gold.PLP.Chemscore.CHOScore>
0.0000

> <Gold.PLP.Chemscore.Metal>
0.0000

> <Gold.Chemscore.Hbonds>
donor molecule, donor type, donor heavy atom, donor atom, acceptor molecule, acceptor atom, score
      P1  H  7997  8009       L1     9  1.00

> <Gold.PLP.Chemscore.Internal.Correction>
0.0087

> <Gold.Rescore>
     Score         DG    S(hbond)    S(metal)    S(lipo)     H(rot)  DE(clash)    DE(int)     intcor
     16.56     -16.79       0.77        0.00     106.37       1.45       0.09       0.14       ----

> <Gold.Chemscore.Fitness>
16.5575

> <Gold.Chemscore.DG>
-16.7925

> <Gold.Chemscore.ZeroCoef>
-5.4800

> <Gold.Chemscore.Hbond>
0.7709

> <Gold.Chemscore.Metal>
0.0000

> <Gold.Chemscore.Lipo>
106.3651

> <Gold.Chemscore.Internal_Hbond>
0.0000

> <Gold.Chemscore.DEClash>
0.0944

> <Gold.Chemscore.DEInternal>
0.1405

> <Gold.Chemscore.Rot>
1.4480

> <Gold.Chemscore.Internal.Correction>
   9.000000E+99

> <Gold.Chemscore.Hbonds>
donor molecule, donor type, donor heavy atom, donor atom, acceptor molecule, acceptor atom, score
      P1  H  7997  8009       L1     9  0.40

> <Gold.Chemscore.Hbond.Weighted>
-2.5747

> <Gold.Chemscore.Metal.Weighted>
-0.0000

> <Gold.Chemscore.Lipo.Weighted>
-12.4447

> <Gold.Chemscore.Internal_Hbond.Weighted>
0.0000

> <Gold.Chemscore.DEClash.Weighted>
0.0944

> <Gold.Chemscore.DEInternal.Weighted>
0.1405

> <Gold.Chemscore.Rot.Weighted>
3.7070

> <Gold.Chemscore.Internal.Correction.Weighted>
   9.000000E+99

> <Gold.Protein.RotatedTorsions>
[ 6907 6896 6895 6894 ] final   70.42 input  -60.11 | X-H torsion
[ 7974 7965 7964 7962 ] final  157.87 input  175.53 | X-H torsion
[ 8008 7997 7996 7995 ] final  137.65 input   59.86 | X-H torsion
[ 10167 10162 10161 10158 ] final    6.37 input  -65.29 | X-H torsion
[ 10718 10713 10712 10709 ] final   94.01 input   66.30 | X-H torsion
[ 10763 10752 10751 10750 ] final  -61.92 input  -60.55 | X-H torsion
[ 11005 11000 10999 10996 ] final -133.31 input  -57.11 | X-H torsion

> <Gold.Protein.ActiveResidues>
 VAL166  LYS551  ARG553  GLY616  TRP617  ASP618  TYR619  PRO620  LYS621  CYS622 
 ASP623  PHE694  ASN695  SER759  ASP760  ASP761  ALA762  ILE779  LEU786  VAL792 
 PHE793  MET794  SER795  GLU796  ALA797  LYS798  CYS799  TRP800  GLU811  SER814 

> <Gold.Protein.RotatedAtoms>
  152.4748  134.4870  159.9683 H   0  0  0  0  0  0  0  0  0  0  0  0  # atno 6907 bound_to 6896
  151.4889  133.3523  159.2858 H   0  0  0  0  0  0  0  0  0  0  0  0  # atno 6908 bound_to 6896
  150.8780  134.8193  159.7265 H   0  0  0  0  0  0  0  0  0  0  0  0  # atno 6909 bound_to 6896
  144.7878  139.7400  143.6233 H   0  0  0  0  0  0  0  0  0  0  0  0  # atno 7974 bound_to 7965
  156.3001  140.2414  156.3945 H   0  0  0  0  0  0  0  0  0  0  0  0  # atno 8008 bound_to 7997
  154.8584  140.0421  157.1669 H   0  0  0  0  0  0  0  0  0  0  0  0  # atno 8009 bound_to 7997
  154.8923  140.2965  155.5367 H   0  0  0  0  0  0  0  0  0  0  0  0  # atno 8010 bound_to 7997
  140.6431  143.7726  150.7458 H   0  0  0  0  0  0  0  0  0  0  0  0  # atno 10167 bound_to 10162
  157.6951  131.0498  150.4121 H   0  0  0  0  0  0  0  0  0  0  0  0  # atno 10718 bound_to 10713
  154.2919  135.6252  153.5389 H   0  0  0  0  0  0  0  0  0  0  0  0  # atno 10763 bound_to 10752
  152.9851  135.5658  154.5380 H   0  0  0  0  0  0  0  0  0  0  0  0  # atno 10764 bound_to 10752
  154.4993  135.2871  155.1410 H   0  0  0  0  0  0  0  0  0  0  0  0  # atno 10765 bound_to 10752
  140.9092  134.1590  157.4402 H   0  0  0  0  0  0  0  0  0  0  0  0  # atno 11005 bound_to 11000
  146.2118  139.5479  142.9676 LP  0  0  0  0  0  0  0  0  0  0  0  0  # atno 17320 bound_to 7965
  145.5874  141.0374  143.2089 LP  0  0  0  0  0  0  0  0  0  0  0  0  # atno 17321 bound_to 7965
  140.1362  143.4482  152.2223 LP  0  0  0  0  0  0  0  0  0  0  0  0  # atno 17342 bound_to 10162
  139.5641  144.7424  151.4072 LP  0  0  0  0  0  0  0  0  0  0  0  0  # atno 17343 bound_to 10162
  156.4504  130.4010  149.6640 LP  0  0  0  0  0  0  0  0  0  0  0  0  # atno 17370 bound_to 10713
  156.3791  130.7570  151.2561 LP  0  0  0  0  0  0  0  0  0  0  0  0  # atno 17371 bound_to 10713
  139.8754  134.9929  156.5617 LP  0  0  0  0  0  0  0  0  0  0  0  0  # atno 17394 bound_to 11000
  140.8132  133.8412  155.8829 LP  0  0  0  0  0  0  0  0  0  0  0  0  # atno 17395 bound_to 11000

$$$$
