AV-unprocessed.smi:110|AV-procd|sdf|1070|dock4
  -GOLD-   2262018153D 1   1.00000     0.00000
 Structure written by MMmdl.
 46 50  0  0  0  0  0  0  0  0  1 V2000
  147.5837  135.9282  154.4583 O   0  0  0  0  0  0  0  0  0  0  0  0
  146.9712  137.1631  154.7629 C   0  0  0  0  0  0  0  0  0  0  0  0
  147.7343  138.3133  154.0825 C   0  0  2  0  0  0  0  0  0  0  0  0
  148.9267  138.6198  154.7887 O   0  0  0  0  0  0  0  0  0  0  0  0
  149.3666  139.8776  154.3906 C   0  0  2  0  0  0  0  0  0  0  0  0
  150.0545  140.5182  155.5513 N   0  0  0  0  0  0  0  0  0  0  0  0
  149.7606  141.7273  156.1385 C   0  0  0  0  0  0  0  0  0  0  0  0
  150.5181  142.0552  157.1497 N   0  0  0  0  0  0  0  0  0  0  0  0
  151.4146  140.9986  157.2660 C   0  0  0  0  0  0  0  0  0  0  0  0
  152.4960  140.6983  158.1457 C   0  0  0  0  0  0  0  0  0  0  0  0
  152.9062  141.5225  159.1445 N   0  0  0  0  0  0  0  0  0  0  0  0
  153.4103  140.9394  160.3978 C   0  0  0  0  0  0  0  0  0  0  0  0
  153.2933  142.0073  161.4996 C   0  0  0  0  0  0  0  0  0  0  0  0
  152.8211  143.1807  160.7074 C   0  0  0  0  0  0  0  0  0  0  0  0
  152.5986  144.4866  161.1777 C   0  0  0  0  0  0  0  0  0  0  0  0
  152.1636  145.4610  160.2549 C   0  0  0  0  0  0  0  0  0  0  0  0
  151.9678  145.1198  158.8969 C   0  0  0  0  0  0  0  0  0  0  0  0
  152.1985  143.8010  158.4471 C   0  0  0  0  0  0  0  0  0  0  0  0
  152.6191  142.8251  159.3767 C   0  0  0  0  0  0  0  0  0  0  0  0
  153.1572  139.5299  157.9391 N   0  0  0  0  0  0  0  0  0  0  0  0
  152.7893  138.7080  156.9534 C   0  0  0  0  0  0  0  0  0  0  0  0
  151.8037  138.8583  156.0685 N   0  0  0  0  0  0  0  0  0  0  0  0
  151.1310  140.0283  156.2622 C   0  0  0  0  0  0  0  0  0  0  0  0
  148.1340  140.6880  153.9495 C   0  0  1  0  0  0  0  0  0  0  0  0
  148.2688  141.1292  152.6130 O   0  0  0  0  0  0  0  0  0  0  0  0
  147.0020  139.6639  154.0312 C   0  0  2  0  0  0  0  0  0  0  0  0
  146.2205  139.8795  155.1916 O   0  0  0  0  0  0  0  0  0  0  0  0
  148.0010  138.0347  153.0609 H   0  0  0  0  0  0  0  0  0  0  0  0
  150.1317  139.7858  153.6180 H   0  0  0  0  0  0  0  0  0  0  0  0
  147.9667  141.5481  154.6005 H   0  0  0  0  0  0  0  0  0  0  0  0
  146.3284  139.7138  153.1742 H   0  0  0  0  0  0  0  0  0  0  0  0
  147.8493  135.9394  153.5516 H   0  0  0  0  0  0  0  0  0  0  0  0
  145.9477  137.1178  154.3901 H   0  0  0  0  0  0  0  0  0  0  0  0
  146.9205  137.3040  155.8432 H   0  0  0  0  0  0  0  0  0  0  0  0
  148.9569  142.3619  155.7946 H   0  0  0  0  0  0  0  0  0  0  0  0
  152.8519  140.0415  160.6658 H   0  0  0  0  0  0  0  0  0  0  0  0
  154.4549  140.6565  160.2652 H   0  0  0  0  0  0  0  0  0  0  0  0
  152.5549  141.7368  162.2548 H   0  0  0  0  0  0  0  0  0  0  0  0
  154.2493  142.2127  161.9819 H   0  0  0  0  0  0  0  0  0  0  0  0
  152.7592  144.7386  162.2157 H   0  0  0  0  0  0  0  0  0  0  0  0
  151.9855  146.4733  160.5864 H   0  0  0  0  0  0  0  0  0  0  0  0
  151.6440  145.8749  158.1959 H   0  0  0  0  0  0  0  0  0  0  0  0
  152.0604  143.5599  157.4038 H   0  0  0  0  0  0  0  0  0  0  0  0
  153.3679  137.8010  156.8592 H   0  0  0  0  0  0  0  0  0  0  0  0
  148.4994  140.3875  152.0750 H   0  0  0  0  0  0  0  0  0  0  0  0
  146.7964  140.1088  155.9045 H   0  0  0  0  0  0  0  0  0  0  0  0
  1  2  1  0  0  0  0
  1 32  1  0  0  0  0
  2  3  1  0  0  0  0
  2 33  1  0  0  0  0
  2 34  1  0  0  0  0
  3 28  1  0  0  0  0
  3 26  1  0  0  0  0
  3  4  1  0  0  0  0
  4  5  1  0  0  0  0
  5 29  1  0  0  0  0
  5  6  1  0  0  0  0
  5 24  1  0  0  0  0
  6 23  1  0  0  0  0
  6  7  1  0  0  0  0
  7  8  2  0  0  0  0
  7 35  1  0  0  0  0
  8  9  1  0  0  0  0
  9 23  2  0  0  0  0
  9 10  1  0  0  0  0
 10 11  1  0  0  0  0
 10 20  2  0  0  0  0
 11 19  1  0  0  0  0
 11 12  1  0  0  0  0
 12 13  1  0  0  0  0
 12 36  1  0  0  0  0
 12 37  1  0  0  0  0
 13 14  1  0  0  0  0
 13 38  1  0  0  0  0
 13 39  1  0  0  0  0
 14 19  2  0  0  0  0
 14 15  1  0  0  0  0
 15 16  2  0  0  0  0
 15 40  1  0  0  0  0
 16 17  1  0  0  0  0
 16 41  1  0  0  0  0
 17 18  2  0  0  0  0
 17 42  1  0  0  0  0
 18 19  1  0  0  0  0
 18 43  1  0  0  0  0
 20 21  1  0  0  0  0
 21 22  2  0  0  0  0
 21 44  1  0  0  0  0
 22 23  1  0  0  0  0
 24 30  1  0  0  0  0
 24 25  1  0  0  0  0
 24 26  1  0  0  0  0
 25 45  1  0  0  0  0
 26 31  1  0  0  0  0
 26 27  1  0  0  0  0
 27 46  1  0  0  0  0
M  END
> <s_m_source_file>
AV-unprocessed.smi

> <i_m_source_file_index>
110

> <i_lp_mmshare_version>
43012

> <i_f3d_flags>
0

> <s_epik_input>
W09IXVtDSDJdW0NASF0xT1tDQEhdKFtDQEhdKFtPSF0pW0NAQEhdMVtPSF0pbihbY0hdbjIpYyhjMjMpbltjSF1uYzNOKFtDSDJdW0NIMl00KWMoYzQ1KVtjSF1bY0hdW2NIXVtjSF01

> <s_epik_cmdline>
J2VwaWtfcHl0aG9uJywgJy1waCcsICc3LjAnLCAnLXRuJywgJzgnLCAnLW1hJywgJzIwMCcsICctbWV0YWxfYmluZGluZycsICctaW1hZScsICc8aW5maWxlLm1hZT4nLCAnLW9tYWUnLCAnPG91dGZpbGUubWFlPic=

> <r_lp_tautomer_probability>
1

> <r_epik_Ionization_Penalty>
0.00068475

> <r_epik_Ionization_Penalty_Charging>
0

> <r_epik_Ionization_Penalty_Neutral>
0.00068475

> <r_epik_State_Penalty>
0.000417442

> <r_epik_Charging_Adjusted_Penalty>
0.000417442

> <i_epik_Tot_Q>
0

> <i_epik_Tot_abs_Q>
0

> <r_epik_Metal_State_Penalty>
-0

> <b_epik_Metal_Only>
0

> <s_epik_Chemistry_Notes>
This compound contains an acetal/aminal-like group ( X-CH(R)-Y where X, Y are N, S, or O) that may be acid/base labile, releasing an aldehyde.

> <s_lp_Force_Field>
OPLS_2005

> <r_lp_Energy>
57.5739

> <b_lp_Chiralities_Consistent>
1

> <s_lp_Variant>
AV-unprocessed.smi:110-8

> <Gold.Version>
5.8.1

> <Gold.Id.Protein>
6NUR|6NUR_protein|mol2

> <Gold.PLP.Fitness>
60.9573

> <Gold.PLP.PLP>
-49.1586

> <Gold.PLP.part.hbond>
-3.1911

> <Gold.PLP.part.metal>
0.0000

> <Gold.PLP.part.buried>
-1.1060

> <Gold.PLP.part.nonpolar>
-43.8936

> <Gold.PLP.part.repulsive>
0.2283

> <Gold.PLP.ligand.clash>
0.0516

> <Gold.PLP.ligand.torsion>
0.4586

> <Gold.PLP.Chemscore.Hbond>
3.2774

> <Gold.PLP.Chemscore.CHOScore>
0.9442

> <Gold.PLP.Chemscore.Metal>
0.0000

> <Gold.Chemscore.Hbonds>
donor molecule, donor type, donor heavy atom, donor atom, acceptor molecule, acceptor atom, score
      L1  H     1    32       P1  7948  0.99
      L1  H    25    45       P1  7957  0.60
      P1  H  7997  8009       L1    20  0.80
      P1  H  8011  8017       L1    25  0.88
      L1  C     7    35       P1  8028  0.99

> <Gold.PLP.Chemscore.Internal.Correction>
0.1025

> <Gold.Rescore>
     Score         DG    S(hbond)    S(metal)    S(lipo)     H(rot)  DE(clash)    DE(int)     intcor
     13.45     -16.88       2.05        0.00     112.84       3.38       1.50       1.93       ----

> <Gold.Chemscore.Fitness>
13.4520

> <Gold.Chemscore.DG>
-16.8836

> <Gold.Chemscore.ZeroCoef>
-5.4800

> <Gold.Chemscore.Hbond>
2.0549

> <Gold.Chemscore.Metal>
0.0000

> <Gold.Chemscore.Lipo>
112.8412

> <Gold.Chemscore.Internal_Hbond>
0.0000

> <Gold.Chemscore.DEClash>
1.4978

> <Gold.Chemscore.DEInternal>
1.9338

> <Gold.Chemscore.Rot>
3.3837

> <Gold.Chemscore.Internal.Correction>
   9.000000E+99

> <Gold.Chemscore.Hbonds>
donor molecule, donor type, donor heavy atom, donor atom, acceptor molecule, acceptor atom, score
      L1  H     1    32       P1  7948  0.92
      L1  H    25    45       P1  7957  0.59
      P1  H  7997  8009       L1    20  0.06
      P1  H  8011  8017       L1    25  0.30

> <Gold.Chemscore.Hbond.Weighted>
-6.8634

> <Gold.Chemscore.Metal.Weighted>
-0.0000

> <Gold.Chemscore.Lipo.Weighted>
-13.2024

> <Gold.Chemscore.Internal_Hbond.Weighted>
0.0000

> <Gold.Chemscore.DEClash.Weighted>
1.4978

> <Gold.Chemscore.DEInternal.Weighted>
1.9338

> <Gold.Chemscore.Rot.Weighted>
8.6622

> <Gold.Chemscore.Internal.Correction.Weighted>
   9.000000E+99

> <Gold.Protein.RotatedTorsions>
[ 6907 6896 6895 6894 ] final  -18.21 input  -60.11 | X-H torsion
[ 7974 7965 7964 7962 ] final   41.07 input  175.53 | X-H torsion
[ 8008 7997 7996 7995 ] final  140.55 input   59.86 | X-H torsion
[ 10167 10162 10161 10158 ] final  -53.46 input  -65.29 | X-H torsion
[ 10718 10713 10712 10709 ] final  -19.50 input   66.30 | X-H torsion
[ 10763 10752 10751 10750 ] final  -84.49 input  -60.55 | X-H torsion
[ 11005 11000 10999 10996 ] final  139.24 input  -57.11 | X-H torsion

> <Gold.Protein.ActiveResidues>
 VAL166  LYS551  ARG553  GLY616  TRP617  ASP618  TYR619  PRO620  LYS621  CYS622 
 ASP623  PHE694  ASN695  SER759  ASP760  ASP761  ALA762  ILE779  LEU786  VAL792 
 PHE793  MET794  SER795  GLU796  ALA797  LYS798  CYS799  TRP800  GLU811  SER814 

> <Gold.Protein.RotatedAtoms>
  151.2817  135.0715  159.9171 H   0  0  0  0  0  0  0  0  0  0  0  0  # atno 6907 bound_to 6896
  152.5333  134.0024  159.7911 H   0  0  0  0  0  0  0  0  0  0  0  0  # atno 6908 bound_to 6896
  151.0279  133.5766  159.2694 H   0  0  0  0  0  0  0  0  0  0  0  0  # atno 6909 bound_to 6896
  146.0853  139.5459  142.9510 H   0  0  0  0  0  0  0  0  0  0  0  0  # atno 7974 bound_to 7965
  156.2978  140.2338  156.4419 H   0  0  0  0  0  0  0  0  0  0  0  0  # atno 8008 bound_to 7997
  154.8178  140.0439  157.1410 H   0  0  0  0  0  0  0  0  0  0  0  0  # atno 8009 bound_to 7997
  154.9349  140.3021  155.5153 H   0  0  0  0  0  0  0  0  0  0  0  0  # atno 8010 bound_to 7997
  140.6484  143.2550  151.4795 H   0  0  0  0  0  0  0  0  0  0  0  0  # atno 10167 bound_to 10162
  156.5448  130.4687  149.6480 H   0  0  0  0  0  0  0  0  0  0  0  0  # atno 10718 bound_to 10713
  154.6001  135.5519  153.7365 H   0  0  0  0  0  0  0  0  0  0  0  0  # atno 10763 bound_to 10752
  153.0151  135.6364  154.1727 H   0  0  0  0  0  0  0  0  0  0  0  0  # atno 10764 bound_to 10752
  154.1667  135.2894  155.3073 H   0  0  0  0  0  0  0  0  0  0  0  0  # atno 10765 bound_to 10752
  140.0240  134.9383  157.0532 H   0  0  0  0  0  0  0  0  0  0  0  0  # atno 11005 bound_to 11000
  145.6141  141.0334  143.1951 LP  0  0  0  0  0  0  0  0  0  0  0  0  # atno 17320 bound_to 7965
  144.7322  139.7693  143.7343 LP  0  0  0  0  0  0  0  0  0  0  0  0  # atno 17321 bound_to 7965
  139.5696  144.1960  152.1817 LP  0  0  0  0  0  0  0  0  0  0  0  0  # atno 17342 bound_to 10162
  140.1252  144.5338  150.6837 LP  0  0  0  0  0  0  0  0  0  0  0  0  # atno 17343 bound_to 10162
  156.2938  130.7139  151.1994 LP  0  0  0  0  0  0  0  0  0  0  0  0  # atno 17370 bound_to 10713
  157.7398  131.0524  150.5205 LP  0  0  0  0  0  0  0  0  0  0  0  0  # atno 17371 bound_to 10713
  140.4338  134.1753  155.7169 LP  0  0  0  0  0  0  0  0  0  0  0  0  # atno 17394 bound_to 11000
  141.1791  133.8451  157.1319 LP  0  0  0  0  0  0  0  0  0  0  0  0  # atno 17395 bound_to 11000

$$$$
