AV-unprocessed.smi:160|AV-procd|sdf|1346|dock5
  -GOLD-   2262019 43D 1   1.00000     0.00000
 Structure written by MMmdl.
 29 30  0  0  0  0  0  0  0  0  1 V2000
  150.7746  144.4744  157.9462 N   0  0  0  0  0  0  0  0  0  0  0  0
  151.3587  143.2761  158.0494 C   0  0  0  0  0  0  0  0  0  0  0  0
  152.3188  143.0726  158.7908 O   0  0  0  0  0  0  0  0  0  0  0  0
  150.7753  142.1789  157.2026 C   0  0  0  0  0  0  0  0  0  0  0  0
  151.5618  141.1850  156.6927 N   0  0  0  0  0  0  0  0  0  0  0  0
  150.6305  140.4925  156.0493 C   0  0  0  0  0  0  0  0  0  0  0  0
  149.4011  141.0088  156.1441 N   0  0  0  0  0  0  0  0  0  0  0  0
  148.1063  140.5203  155.5748 C   0  0  1  0  0  0  0  0  0  0  0  0
  147.0873  141.3060  156.1170 O   0  0  0  0  0  0  0  0  0  0  0  0
  146.2141  141.7676  155.0888 C   0  0  1  0  0  0  0  0  0  0  0  0
  145.5187  143.0773  155.5001 C   0  0  0  0  0  0  0  0  0  0  0  0
  144.5846  143.4626  154.5139 O   0  0  0  0  0  0  0  0  0  0  0  0
  147.1122  141.8559  153.8468 C   0  0  1  0  0  0  0  0  0  0  0  0
  147.8164  143.0857  153.8066 O   0  0  0  0  0  0  0  0  0  0  0  0
  148.0318  140.6561  154.0400 C   0  0  1  0  0  0  0  0  0  0  0  0
  149.2729  140.7784  153.3644 O   0  0  0  0  0  0  0  0  0  0  0  0
  149.4746  142.1231  156.9131 N   0  0  0  0  0  0  0  0  0  0  0  0
  148.0307  139.4874  155.9166 H   0  0  0  0  0  0  0  0  0  0  0  0
  145.4696  140.9902  154.9058 H   0  0  0  0  0  0  0  0  0  0  0  0
  146.5343  141.7707  152.9260 H   0  0  0  0  0  0  0  0  0  0  0  0
  147.5251  139.7649  153.6676 H   0  0  0  0  0  0  0  0  0  0  0  0
  151.1190  145.2521  158.4896 H   0  0  0  0  0  0  0  0  0  0  0  0
  149.9885  144.5918  157.3227 H   0  0  0  0  0  0  0  0  0  0  0  0
  150.8495  139.5916  155.4954 H   0  0  0  0  0  0  0  0  0  0  0  0
  145.0275  142.9789  156.4689 H   0  0  0  0  0  0  0  0  0  0  0  0
  146.2505  143.8811  155.5853 H   0  0  0  0  0  0  0  0  0  0  0  0
  144.4601  144.3978  154.5682 H   0  0  0  0  0  0  0  0  0  0  0  0
  147.9512  143.3781  154.6953 H   0  0  0  0  0  0  0  0  0  0  0  0
  149.3082  140.1291  152.6788 H   0  0  0  0  0  0  0  0  0  0  0  0
  1  2  1  0  0  0  0
  1 22  1  0  0  0  0
  1 23  1  0  0  0  0
  2  3  2  0  0  0  0
  2  4  1  0  0  0  0
  4 17  2  0  0  0  0
  4  5  1  0  0  0  0
  5  6  2  0  0  0  0
  6  7  1  0  0  0  0
  6 24  1  0  0  0  0
  7  8  1  0  0  0  0
  7 17  1  0  0  0  0
  8 18  1  0  0  0  0
  8 15  1  0  0  0  0
  8  9  1  0  0  0  0
  9 10  1  0  0  0  0
 10 19  1  0  0  0  0
 10 11  1  0  0  0  0
 10 13  1  0  0  0  0
 11 12  1  0  0  0  0
 11 25  1  0  0  0  0
 11 26  1  0  0  0  0
 12 27  1  0  0  0  0
 13 20  1  0  0  0  0
 13 14  1  0  0  0  0
 13 15  1  0  0  0  0
 14 28  1  0  0  0  0
 15 21  1  0  0  0  0
 15 16  1  0  0  0  0
 16 29  1  0  0  0  0
M  END
> <s_m_source_file>
AV-unprocessed.smi

> <i_m_source_file_index>
160

> <i_lp_mmshare_version>
43012

> <i_f3d_flags>
0

> <s_epik_input>
W05IMl1DKD1PKWMxbltjSF1uKG4xKVtDQEBIXTJPW0NASF0oW0NIMl1bT0hdKVtDQEBIXShbT0hdKVtDQEhdMltPSF0=

> <s_epik_cmdline>
J2VwaWtfcHl0aG9uJywgJy1waCcsICc3LjAnLCAnLXRuJywgJzgnLCAnLW1hJywgJzIwMCcsICctbWV0YWxfYmluZGluZycsICctaW1hZScsICc8aW5maWxlLm1hZT4nLCAnLW9tYWUnLCAnPG91dGZpbGUubWFlPic=

> <r_lp_tautomer_probability>
1

> <r_epik_Ionization_Penalty>
1.06932e-05

> <r_epik_Ionization_Penalty_Charging>
0

> <r_epik_Ionization_Penalty_Neutral>
1.06932e-05

> <r_epik_State_Penalty>
-0

> <r_epik_Charging_Adjusted_Penalty>
0

> <i_epik_Tot_Q>
0

> <i_epik_Tot_abs_Q>
0

> <r_epik_Metal_State_Penalty>
0.0142097

> <b_epik_Metal_Only>
0

> <s_epik_Chemistry_Notes>
This compound contains an acetal/aminal-like group ( X-CH(R)-Y where X, Y are N, S, or O) that may be acid/base labile, releasing an aldehyde.

> <s_lp_Force_Field>
OPLS_2005

> <r_lp_Energy>
47.6591

> <b_lp_Chiralities_Consistent>
1

> <s_lp_Variant>
AV-unprocessed.smi:160-4

> <Gold.Version>
5.8.1

> <Gold.Id.Protein>
6NUR|6NUR_protein|mol2

> <Gold.PLP.Fitness>
33.6736

> <Gold.PLP.PLP>
-24.0062

> <Gold.PLP.part.hbond>
-6.9706

> <Gold.PLP.part.metal>
0.0000

> <Gold.PLP.part.buried>
-1.6848

> <Gold.PLP.part.nonpolar>
-15.9597

> <Gold.PLP.part.repulsive>
1.4586

> <Gold.PLP.ligand.clash>
0.0000

> <Gold.PLP.ligand.torsion>
0.5864

> <Gold.PLP.Chemscore.Hbond>
3.6115

> <Gold.PLP.Chemscore.CHOScore>
0.0000

> <Gold.PLP.Chemscore.Metal>
0.0000

> <Gold.Chemscore.Hbonds>
donor molecule, donor type, donor heavy atom, donor atom, acceptor molecule, acceptor atom, score
      L1  H     1    23       P1  8028  1.00
      L1  H    14    28       P1  8028  0.78
      L1  H    16    29       P1  7957  0.78
      P1  H  7989  7998       L1    16  0.04
      P1  H  8011  8017       L1    16  1.00

> <Gold.PLP.Chemscore.Internal.Correction>
0.0059

> <Gold.Rescore>
     Score         DG    S(hbond)    S(metal)    S(lipo)     H(rot)  DE(clash)    DE(int)     intcor
      2.93      -5.95       2.50        0.00      21.45       4.06       1.94       1.08       ----

> <Gold.Chemscore.Fitness>
2.9273

> <Gold.Chemscore.DG>
-5.9452

> <Gold.Chemscore.ZeroCoef>
-5.4800

> <Gold.Chemscore.Hbond>
2.4998

> <Gold.Chemscore.Metal>
0.0000

> <Gold.Chemscore.Lipo>
21.4490

> <Gold.Chemscore.Internal_Hbond>
0.0000

> <Gold.Chemscore.DEClash>
1.9372

> <Gold.Chemscore.DEInternal>
1.0808

> <Gold.Chemscore.Rot>
4.0600

> <Gold.Chemscore.Internal.Correction>
   9.000000E+99

> <Gold.Chemscore.Hbonds>
donor molecule, donor type, donor heavy atom, donor atom, acceptor molecule, acceptor atom, score
      L1  H     1    23       P1  8028  0.25
      L1  H    14    28       P1  8028  0.61
      L1  H    16    29       P1  7957  0.74
      P1  H  8011  8017       L1    16  0.24

> <Gold.Chemscore.Hbond.Weighted>
-8.3493

> <Gold.Chemscore.Metal.Weighted>
-0.0000

> <Gold.Chemscore.Lipo.Weighted>
-2.5095

> <Gold.Chemscore.Internal_Hbond.Weighted>
0.0000

> <Gold.Chemscore.DEClash.Weighted>
1.9372

> <Gold.Chemscore.DEInternal.Weighted>
1.0808

> <Gold.Chemscore.Rot.Weighted>
10.3936

> <Gold.Chemscore.Internal.Correction.Weighted>
   9.000000E+99

> <Gold.Protein.RotatedTorsions>
[ 6907 6896 6895 6894 ] final  -85.47 input  -60.11 | X-H torsion
[ 7974 7965 7964 7962 ] final  -52.54 input  175.53 | X-H torsion
[ 8008 7997 7996 7995 ] final -164.61 input   59.86 | X-H torsion
[ 10167 10162 10161 10158 ] final   -1.46 input  -65.29 | X-H torsion
[ 10718 10713 10712 10709 ] final  -13.21 input   66.30 | X-H torsion
[ 10763 10752 10751 10750 ] final -120.10 input  -60.55 | X-H torsion
[ 11005 11000 10999 10996 ] final -143.98 input  -57.11 | X-H torsion

> <Gold.Protein.ActiveResidues>
 VAL166  LYS551  ARG553  GLY616  TRP617  ASP618  TYR619  PRO620  LYS621  CYS622 
 ASP623  PHE694  ASN695  SER759  ASP760  ASP761  ALA762  ILE779  LEU786  VAL792 
 PHE793  MET794  SER795  GLU796  ALA797  LYS798  CYS799  TRP800  GLU811  SER814 

> <Gold.Protein.RotatedAtoms>
  150.6870  134.3200  159.4782 H   0  0  0  0  0  0  0  0  0  0  0  0  # atno 6907 bound_to 6896
  152.1076  134.9294  160.0577 H   0  0  0  0  0  0  0  0  0  0  0  0  # atno 6908 bound_to 6896
  152.0549  133.4001  159.4430 H   0  0  0  0  0  0  0  0  0  0  0  0  # atno 6909 bound_to 6896
  145.9068  140.7948  142.9715 H   0  0  0  0  0  0  0  0  0  0  0  0  # atno 7974 bound_to 7965
  155.8380  140.0944  157.1752 H   0  0  0  0  0  0  0  0  0  0  0  0  # atno 8008 bound_to 7997
  154.3981  140.1406  156.3755 H   0  0  0  0  0  0  0  0  0  0  0  0  # atno 8009 bound_to 7997
  155.8095  140.3450  155.5452 H   0  0  0  0  0  0  0  0  0  0  0  0  # atno 8010 bound_to 7997
  140.6811  143.6772  150.8135 H   0  0  0  0  0  0  0  0  0  0  0  0  # atno 10167 bound_to 10162
  156.6335  130.4908  149.6120 H   0  0  0  0  0  0  0  0  0  0  0  0  # atno 10718 bound_to 10713
  154.8635  135.4215  154.2406 H   0  0  0  0  0  0  0  0  0  0  0  0  # atno 10763 bound_to 10752
  153.3372  135.6991  153.6903 H   0  0  0  0  0  0  0  0  0  0  0  0  # atno 10764 bound_to 10752
  153.5896  135.3557  155.2879 H   0  0  0  0  0  0  0  0  0  0  0  0  # atno 10765 bound_to 10752
  140.8071  134.2788  157.4956 H   0  0  0  0  0  0  0  0  0  0  0  0  # atno 11005 bound_to 11000
  144.6740  140.1763  143.7410 LP  0  0  0  0  0  0  0  0  0  0  0  0  # atno 17320 bound_to 7965
  145.8722  139.2278  143.1654 LP  0  0  0  0  0  0  0  0  0  0  0  0  # atno 17321 bound_to 7965
  140.0472  143.5286  152.2690 LP  0  0  0  0  0  0  0  0  0  0  0  0  # atno 17342 bound_to 10162
  139.6134  144.7614  151.2899 LP  0  0  0  0  0  0  0  0  0  0  0  0  # atno 17343 bound_to 10162
  156.2216  130.6740  151.1374 LP  0  0  0  0  0  0  0  0  0  0  0  0  # atno 17370 bound_to 10713
  157.7193  131.0691  150.6202 LP  0  0  0  0  0  0  0  0  0  0  0  0  # atno 17371 bound_to 10713
  139.8717  134.9462  156.3932 LP  0  0  0  0  0  0  0  0  0  0  0  0  # atno 17394 bound_to 11000
  140.9236  133.7628  155.9937 LP  0  0  0  0  0  0  0  0  0  0  0  0  # atno 17395 bound_to 11000

$$$$
