AV-unprocessed.smi:2843|AV-procd|sdf|10937|dock1
  -GOLD-   2272015383D 1   1.00000     0.00000
 Structure written by MMmdl.
 29 29  0  0  0  0  0  0  0  0  1 V2000
  153.2919  142.1457  160.9997 C   0  0  0  0  0  0  0  0  0  0  0  0
  152.7862  141.6314  159.6957 C   0  0  0  0  0  0  0  0  0  0  0  0
  151.8402  142.0819  158.8197 C   0  0  0  0  0  0  0  0  0  0  0  0
  151.8637  141.1177  157.7744 C   0  0  0  0  0  0  0  0  0  0  0  0
  151.0383  141.0803  156.5204 C   0  0  0  0  0  0  0  0  0  0  0  0
  151.4514  139.5644  155.5587 S   0  0  0  0  0  0  0  0  0  0  0  0
  152.8461  139.6495  155.0990 O   0  0  0  0  0  0  0  0  0  0  0  0
  150.9992  138.3885  156.3183 O   0  0  0  0  0  0  0  0  0  0  0  0
  150.4397  139.7130  154.1708 N   0  0  0  0  0  0  0  0  0  0  0  0
  149.0037  139.8765  154.3872 C   0  0  0  0  0  0  0  0  0  0  0  0
  148.5794  141.3185  154.0803 C   0  0  0  0  0  0  0  0  0  0  0  0
  147.0558  141.4966  154.1075 C   0  0  0  0  0  0  0  0  0  0  0  0
  146.4455  140.5252  153.2859 O   0  0  0  0  0  0  0  0  0  0  0  0
  152.7475  140.1616  158.0094 N   0  0  0  0  0  0  0  0  0  0  0  0
  153.3433  140.4824  159.2341 O   0  0  0  0  0  0  0  0  0  0  0  0
  152.8215  143.0960  161.2532 H   0  0  0  0  0  0  0  0  0  0  0  0
  154.3700  142.3024  160.9614 H   0  0  0  0  0  0  0  0  0  0  0  0
  153.0803  141.4386  161.8019 H   0  0  0  0  0  0  0  0  0  0  0  0
  151.2293  142.9680  158.9091 H   0  0  0  0  0  0  0  0  0  0  0  0
  149.9707  141.0658  156.7432 H   0  0  0  0  0  0  0  0  0  0  0  0
  151.2368  141.9510  155.8958 H   0  0  0  0  0  0  0  0  0  0  0  0
  150.6214  138.9584  153.5092 H   0  0  0  0  0  0  0  0  0  0  0  0
  148.4654  139.1777  153.7456 H   0  0  0  0  0  0  0  0  0  0  0  0
  148.7654  139.6208  155.4203 H   0  0  0  0  0  0  0  0  0  0  0  0
  149.0372  141.9940  154.8048 H   0  0  0  0  0  0  0  0  0  0  0  0
  148.9613  141.6096  153.1004 H   0  0  0  0  0  0  0  0  0  0  0  0
  146.6741  141.3930  155.1239 H   0  0  0  0  0  0  0  0  0  0  0  0
  146.7771  142.4892  153.7522 H   0  0  0  0  0  0  0  0  0  0  0  0
  145.5639  140.8056  153.0919 H   0  0  0  0  0  0  0  0  0  0  0  0
  1  2  1  0  0  0  0
  1 16  1  0  0  0  0
  1 17  1  0  0  0  0
  1 18  1  0  0  0  0
  2 15  1  0  0  0  0
  2  3  2  0  0  0  0
  3  4  1  0  0  0  0
  3 19  1  0  0  0  0
  4  5  1  0  0  0  0
  4 14  2  0  0  0  0
  5  6  1  0  0  0  0
  5 20  1  0  0  0  0
  5 21  1  0  0  0  0
  6  7  2  0  0  0  0
  6  8  2  0  0  0  0
  6  9  1  0  0  0  0
  9 10  1  0  0  0  0
  9 22  1  0  0  0  0
 10 11  1  0  0  0  0
 10 23  1  0  0  0  0
 10 24  1  0  0  0  0
 11 12  1  0  0  0  0
 11 25  1  0  0  0  0
 11 26  1  0  0  0  0
 12 13  1  0  0  0  0
 12 27  1  0  0  0  0
 12 28  1  0  0  0  0
 13 29  1  0  0  0  0
 14 15  1  0  0  0  0
M  END
> <s_m_source_file>
AV-unprocessed.smi

> <i_m_source_file_index>
2843

> <i_lp_mmshare_version>
43012

> <i_f3d_flags>
0

> <s_epik_input>
W0NIM11jMVtjSF1jKG5vMSlbQ0gyXVMoPU8pKD1PKVtOSF1bQ0gyXVtDSDJdW0NIMl1bT0hd

> <s_epik_cmdline>
J2VwaWtfcHl0aG9uJywgJy1waCcsICc3LjAnLCAnLXRuJywgJzgnLCAnLW1hJywgJzIwMCcsICctbWV0YWxfYmluZGluZycsICctaW1hZScsICc8aW5maWxlLm1hZT4nLCAnLW9tYWUnLCAnPG91dGZpbGUubWFlPic=

> <r_lp_tautomer_probability>
1

> <r_epik_Ionization_Penalty>
0.000153409

> <r_epik_Ionization_Penalty_Charging>
0

> <r_epik_Ionization_Penalty_Neutral>
0.000153409

> <r_epik_State_Penalty>
-0

> <r_epik_Charging_Adjusted_Penalty>
0

> <i_epik_Tot_Q>
0

> <i_epik_Tot_abs_Q>
0

> <r_epik_Metal_State_Penalty>
0.110712

> <b_epik_Metal_Only>
0

> <s_lp_Force_Field>
OPLS_2005

> <r_lp_Energy>
-3.16936

> <b_lp_Chiralities_Consistent>
1

> <s_lp_Variant>
AV-unprocessed.smi:2843-1

> <Gold.Version>
5.8.1

> <Gold.Id.Protein>
6NUR|6NUR_protein|mol2

> <Gold.PLP.Fitness>
38.5682

> <Gold.PLP.PLP>
-32.0628

> <Gold.PLP.part.hbond>
-5.7229

> <Gold.PLP.part.metal>
0.0000

> <Gold.PLP.part.buried>
-3.5967

> <Gold.PLP.part.nonpolar>
-23.0539

> <Gold.PLP.part.repulsive>
0.0086

> <Gold.PLP.ligand.clash>
0.0000

> <Gold.PLP.ligand.torsion>
0.4639

> <Gold.PLP.Chemscore.Hbond>
2.4050

> <Gold.PLP.Chemscore.CHOScore>
0.0000

> <Gold.PLP.Chemscore.Metal>
0.0000

> <Gold.Chemscore.Hbonds>
donor molecule, donor type, donor heavy atom, donor atom, acceptor molecule, acceptor atom, score
      L1  H    13    29       P1 10175  1.00
      P1  H  7989  7998       L1     9  0.36
      P1  H  7997  8009       L1     7  1.00

> <Gold.PLP.Chemscore.Internal.Correction>
0.2181

> <Gold.Rescore>
     Score         DG    S(hbond)    S(metal)    S(lipo)     H(rot)  DE(clash)    DE(int)     intcor
     10.09     -11.91       1.99        0.00      65.79       3.09       0.02       1.81       ----

> <Gold.Chemscore.Fitness>
10.0859

> <Gold.Chemscore.DG>
-11.9136

> <Gold.Chemscore.ZeroCoef>
-5.4800

> <Gold.Chemscore.Hbond>
1.9927

> <Gold.Chemscore.Metal>
0.0000

> <Gold.Chemscore.Lipo>
65.7890

> <Gold.Chemscore.Internal_Hbond>
0.0000

> <Gold.Chemscore.DEClash>
0.0178

> <Gold.Chemscore.DEInternal>
1.8098

> <Gold.Chemscore.Rot>
3.0935

> <Gold.Chemscore.Internal.Correction>
   9.000000E+99

> <Gold.Chemscore.Hbonds>
donor molecule, donor type, donor heavy atom, donor atom, acceptor molecule, acceptor atom, score
      L1  H    13    29       P1 10175  0.57
      P1  H  7997  8009       L1     7  1.00

> <Gold.Chemscore.Hbond.Weighted>
-6.6558

> <Gold.Chemscore.Metal.Weighted>
-0.0000

> <Gold.Chemscore.Lipo.Weighted>
-7.6973

> <Gold.Chemscore.Internal_Hbond.Weighted>
0.0000

> <Gold.Chemscore.DEClash.Weighted>
0.0178

> <Gold.Chemscore.DEInternal.Weighted>
1.8098

> <Gold.Chemscore.Rot.Weighted>
7.9195

> <Gold.Chemscore.Internal.Correction.Weighted>
   9.000000E+99

> <Gold.Protein.RotatedTorsions>
[ 6907 6896 6895 6894 ] final  -16.80 input  -60.11 | X-H torsion
[ 7974 7965 7964 7962 ] final   63.69 input  175.53 | X-H torsion
[ 8008 7997 7996 7995 ] final -136.54 input   59.86 | X-H torsion
[ 10167 10162 10161 10158 ] final  145.50 input  -65.29 | X-H torsion
[ 10718 10713 10712 10709 ] final  170.06 input   66.30 | X-H torsion
[ 10763 10752 10751 10750 ] final   25.63 input  -60.55 | X-H torsion
[ 11005 11000 10999 10996 ] final  -54.91 input  -57.11 | X-H torsion

> <Gold.Protein.ActiveResidues>
 VAL166  LYS551  ARG553  GLY616  TRP617  ASP618  TYR619  PRO620  LYS621  CYS622 
 ASP623  PHE694  ASN695  SER759  ASP760  ASP761  ALA762  ILE779  LEU786  VAL792 
 PHE793  MET794  SER795  GLU796  ALA797  LYS798  CYS799  TRP800  GLU811  SER814 

> <Gold.Protein.RotatedAtoms>
  151.3030  135.0774  159.9245 H   0  0  0  0  0  0  0  0  0  0  0  0  # atno 6907 bound_to 6896
  152.5293  133.9814  159.7818 H   0  0  0  0  0  0  0  0  0  0  0  0  # atno 6908 bound_to 6896
  151.0104  133.5919  159.2714 H   0  0  0  0  0  0  0  0  0  0  0  0  # atno 6909 bound_to 6896
  145.8589  139.3302  143.0830 H   0  0  0  0  0  0  0  0  0  0  0  0  # atno 7974 bound_to 7965
  155.3968  140.0503  157.3038 H   0  0  0  0  0  0  0  0  0  0  0  0  # atno 8008 bound_to 7997
  154.5009  140.2156  155.9309 H   0  0  0  0  0  0  0  0  0  0  0  0  # atno 8009 bound_to 7997
  156.1466  140.3144  155.8586 H   0  0  0  0  0  0  0  0  0  0  0  0  # atno 8010 bound_to 7997
  139.4925  144.5897  151.6706 H   0  0  0  0  0  0  0  0  0  0  0  0  # atno 10167 bound_to 10162
  157.0136  131.0211  151.2796 H   0  0  0  0  0  0  0  0  0  0  0  0  # atno 10718 bound_to 10713
  153.0678  135.6578  154.0315 H   0  0  0  0  0  0  0  0  0  0  0  0  # atno 10763 bound_to 10752
  153.9967  135.2941  155.3408 H   0  0  0  0  0  0  0  0  0  0  0  0  # atno 10764 bound_to 10752
  154.7042  135.5232  153.8640 H   0  0  0  0  0  0  0  0  0  0  0  0  # atno 10765 bound_to 10752
  141.1049  133.6614  156.4391 H   0  0  0  0  0  0  0  0  0  0  0  0  # atno 11005 bound_to 11000
  145.9271  140.9075  143.0375 LP  0  0  0  0  0  0  0  0  0  0  0  0  # atno 17320 bound_to 7965
  144.6727  140.1367  143.7440 LP  0  0  0  0  0  0  0  0  0  0  0  0  # atno 17321 bound_to 7965
  140.5521  144.0408  150.6131 LP  0  0  0  0  0  0  0  0  0  0  0  0  # atno 17342 bound_to 10162
  140.3466  143.2988  152.0532 LP  0  0  0  0  0  0  0  0  0  0  0  0  # atno 17343 bound_to 10162
  157.5302  130.8054  149.7908 LP  0  0  0  0  0  0  0  0  0  0  0  0  # atno 17370 bound_to 10713
  156.0127  130.3826  150.2210 LP  0  0  0  0  0  0  0  0  0  0  0  0  # atno 17371 bound_to 10713
  140.4929  134.6558  157.5218 LP  0  0  0  0  0  0  0  0  0  0  0  0  # atno 17394 bound_to 11000
  139.9914  134.6979  155.9683 LP  0  0  0  0  0  0  0  0  0  0  0  0  # atno 17395 bound_to 11000

$$$$
