AV-unprocessed.smi:152|AV-procd|sdf|1248|dock2
  -GOLD-   2262018473D 1   1.00000     0.00000
 Structure written by MMmdl.
 58 61  0  0  0  0  0  0  0  0  2 V2000
  147.0845  133.4064  151.5052 C   0  0  0  0  0  0  0  0  0  0  0  0
  146.0593  132.2771  151.6825 C   0  0  0  0  0  0  0  0  0  0  0  0
  146.7013  130.9743  151.9883 N   0  3  2  0  0  0  0  0  0  0  0  0
  145.7791  129.8175  152.0093 C   0  0  0  0  0  0  0  0  0  0  0  0
  146.4049  128.7761  152.9478 C   0  0  0  0  0  0  0  0  0  0  0  0
  147.7499  129.3730  153.3638 C   0  0  0  0  0  0  0  0  0  0  0  0
  147.5586  130.8844  153.1958 C   0  0  2  0  0  0  0  0  0  0  0  0
  146.9215  131.5349  154.4542 C   0  0  0  0  0  0  0  0  0  0  0  0
  147.6046  131.1755  155.6966 N   0  0  0  0  0  0  0  0  0  0  0  0
  146.9730  130.1494  156.5140 C   0  0  0  0  0  0  0  0  0  0  0  0
  148.1172  132.1804  156.4468 C   0  0  0  0  0  0  0  0  0  0  0  0
  147.8288  132.2602  157.7730 N   0  0  0  0  0  0  0  0  0  0  0  0
  148.3402  133.2503  158.5109 C   0  0  0  0  0  0  0  0  0  0  0  0
  149.1454  134.2444  158.1306 N   0  0  0  0  0  0  0  0  0  0  0  0
  149.4397  134.1643  156.8012 C   0  0  0  0  0  0  0  0  0  0  0  0
  148.9703  133.1732  155.8949 C   0  0  0  0  0  0  0  0  0  0  0  0
  149.4615  133.4203  154.6197 N   0  0  0  0  0  0  0  0  0  0  0  0
  150.1831  134.4981  154.7635 C   0  0  0  0  0  0  0  0  0  0  0  0
  150.2356  135.0055  156.0430 N   0  0  0  0  0  0  0  0  0  0  0  0
  150.9601  136.1886  156.4817 C   0  0  0  0  0  0  0  0  0  0  0  0
  150.4790  137.5120  155.8251 C   0  0  0  0  0  0  0  0  0  0  0  0
  149.1130  137.3515  155.4917 O   0  0  0  0  0  0  0  0  0  0  0  0
  150.5900  138.7519  156.7379 C   0  0  0  0  0  0  0  0  0  0  0  0
  152.0566  139.1767  156.9237 C   0  0  0  0  0  0  0  0  0  0  0  0
  152.6468  139.4378  155.6546 O   0  0  0  0  0  0  0  0  0  0  0  0
  152.6768  138.2972  154.8024 C   0  0  0  0  0  0  0  0  0  0  0  0
  151.2440  137.8076  154.5201 C   0  0  0  0  0  0  0  0  0  0  0  0
  146.5895  134.3330  151.2146 H   0  0  0  0  0  0  0  0  0  0  0  0
  147.8107  133.1617  150.7296 H   0  0  0  0  0  0  0  0  0  0  0  0
  147.6325  133.6054  152.4262 H   0  0  0  0  0  0  0  0  0  0  0  0
  145.3231  132.5374  152.4432 H   0  0  0  0  0  0  0  0  0  0  0  0
  145.5033  132.1675  150.7507 H   0  0  0  0  0  0  0  0  0  0  0  0
  144.7976  130.1128  152.3836 H   0  0  0  0  0  0  0  0  0  0  0  0
  145.6480  129.4287  150.9990 H   0  0  0  0  0  0  0  0  0  0  0  0
  145.7696  128.6382  153.8239 H   0  0  0  0  0  0  0  0  0  0  0  0
  146.5227  127.8031  152.4697 H   0  0  0  0  0  0  0  0  0  0  0  0
  148.0530  129.0745  154.3680 H   0  0  0  0  0  0  0  0  0  0  0  0
  148.5244  129.0289  152.6770 H   0  0  0  0  0  0  0  0  0  0  0  0
  148.5154  131.3581  152.9750 H   0  0  0  0  0  0  0  0  0  0  0  0
  146.9180  132.6218  154.3745 H   0  0  0  0  0  0  0  0  0  0  0  0
  145.8755  131.2369  154.5322 H   0  0  0  0  0  0  0  0  0  0  0  0
  147.6256  129.8249  157.3252 H   0  0  0  0  0  0  0  0  0  0  0  0
  146.7376  129.2739  155.9088 H   0  0  0  0  0  0  0  0  0  0  0  0
  146.0449  130.5228  156.9484 H   0  0  0  0  0  0  0  0  0  0  0  0
  148.0657  133.2452  159.5554 H   0  0  0  0  0  0  0  0  0  0  0  0
  150.7061  134.9529  153.9347 H   0  0  0  0  0  0  0  0  0  0  0  0
  150.8753  136.2407  157.5665 H   0  0  0  0  0  0  0  0  0  0  0  0
  152.0199  136.0327  156.2759 H   0  0  0  0  0  0  0  0  0  0  0  0
  149.0188  137.4421  154.5558 H   0  0  0  0  0  0  0  0  0  0  0  0
  150.0515  139.5862  156.2855 H   0  0  0  0  0  0  0  0  0  0  0  0
  150.1135  138.5844  157.7033 H   0  0  0  0  0  0  0  0  0  0  0  0
  152.1070  140.0839  157.5257 H   0  0  0  0  0  0  0  0  0  0  0  0
  152.6280  138.4147  157.4549 H   0  0  0  0  0  0  0  0  0  0  0  0
  153.1644  138.5744  153.8678 H   0  0  0  0  0  0  0  0  0  0  0  0
  153.2867  137.5118  155.2498 H   0  0  0  0  0  0  0  0  0  0  0  0
  151.2654  136.9265  153.8774 H   0  0  0  0  0  0  0  0  0  0  0  0
  150.7232  138.5837  153.9567 H   0  0  0  0  0  0  0  0  0  0  0  0
  147.3273  130.7876  151.2180 H   0  0  0  0  0  0  0  0  0  0  0  0
  1  2  1  0  0  0  0
  1 28  1  0  0  0  0
  1 29  1  0  0  0  0
  1 30  1  0  0  0  0
  2  3  1  0  0  0  0
  2 31  1  0  0  0  0
  2 32  1  0  0  0  0
  3  7  1  0  0  0  0
  3  4  1  0  0  0  0
  3 58  1  0  0  0  0
  4  5  1  0  0  0  0
  4 33  1  0  0  0  0
  4 34  1  0  0  0  0
  5  6  1  0  0  0  0
  5 35  1  0  0  0  0
  5 36  1  0  0  0  0
  6  7  1  0  0  0  0
  6 37  1  0  0  0  0
  6 38  1  0  0  0  0
  7  8  1  0  0  0  0
  7 39  1  0  0  0  0
  8  9  1  0  0  0  0
  8 40  1  0  0  0  0
  8 41  1  0  0  0  0
  9 10  1  0  0  0  0
  9 11  1  0  0  0  0
 10 42  1  0  0  0  0
 10 43  1  0  0  0  0
 10 44  1  0  0  0  0
 11 16  1  0  0  0  0
 11 12  2  0  0  0  0
 12 13  1  0  0  0  0
 13 14  2  0  0  0  0
 13 45  1  0  0  0  0
 14 15  1  0  0  0  0
 15 19  1  0  0  0  0
 15 16  2  0  0  0  0
 16 17  1  0  0  0  0
 17 18  2  0  0  0  0
 18 19  1  0  0  0  0
 18 46  1  0  0  0  0
 19 20  1  0  0  0  0
 20 21  1  0  0  0  0
 20 47  1  0  0  0  0
 20 48  1  0  0  0  0
 21 27  1  0  0  0  0
 21 22  1  0  0  0  0
 21 23  1  0  0  0  0
 22 49  1  0  0  0  0
 23 24  1  0  0  0  0
 23 50  1  0  0  0  0
 23 51  1  0  0  0  0
 24 25  1  0  0  0  0
 24 52  1  0  0  0  0
 24 53  1  0  0  0  0
 25 26  1  0  0  0  0
 26 27  1  0  0  0  0
 26 54  1  0  0  0  0
 26 55  1  0  0  0  0
 27 56  1  0  0  0  0
 27 57  1  0  0  0  0
M  CHG  1   3   1
M  END
> <s_m_source_file>
AV-unprocessed.smi

> <i_m_source_file_index>
152

> <i_lp_mmshare_version>
43012

> <i_f3d_flags>
0

> <s_epik_input>
W0NIM11bQ0gyXU4xW0NIMl1bQ0gyXVtDSDJdW0NASF0xW0NIMl1OKFtDSDNdKWMobltjSF1uMiljKGMyMyluW2NIXW4zW0NIMl1DNChbT0hdKVtDSDJdW0NIMl1PW0NIMl1bQ0gyXTQ=

> <s_epik_cmdline>
J2VwaWtfcHl0aG9uJywgJy1waCcsICc3LjAnLCAnLXRuJywgJzgnLCAnLW1hJywgJzIwMCcsICctbWV0YWxfYmluZGluZycsICctaW1hZScsICc8aW5maWxlLm1hZT4nLCAnLW9tYWUnLCAnPG91dGZpbGUubWFlPic=

> <r_lp_tautomer_probability>
1

> <r_epik_Ionization_Penalty>
0.00152183

> <r_epik_Ionization_Penalty_Charging>
0.00112577

> <r_epik_Ionization_Penalty_Neutral>
0.000396066

> <r_epik_State_Penalty>
-0

> <r_epik_Charging_Adjusted_Penalty>
0.00112577

> <i_epik_Tot_Q>
1

> <i_epik_Tot_abs_Q>
1

> <r_epik_Metal_State_Penalty>
-0

> <b_epik_Metal_Only>
0

> <s_lp_Force_Field>
OPLS_2005

> <r_lp_Energy>
47.1196

> <b_lp_Chiralities_Consistent>
1

> <s_lp_Variant>
AV-unprocessed.smi:152-3

> <Gold.Version>
5.8.1

> <Gold.Id.Protein>
6NUR|6NUR_protein|mol2

> <Gold.PLP.Fitness>
41.6622

> <Gold.PLP.PLP>
-33.4303

> <Gold.PLP.part.hbond>
-3.0000

> <Gold.PLP.part.metal>
0.0000

> <Gold.PLP.part.buried>
-5.5915

> <Gold.PLP.part.nonpolar>
-24.5736

> <Gold.PLP.part.repulsive>
0.1125

> <Gold.PLP.ligand.clash>
0.0000

> <Gold.PLP.ligand.torsion>
1.5444

> <Gold.PLP.Chemscore.Hbond>
3.0000

> <Gold.PLP.Chemscore.CHOScore>
0.4549

> <Gold.PLP.Chemscore.Metal>
0.0000

> <Gold.Chemscore.Hbonds>
donor molecule, donor type, donor heavy atom, donor atom, acceptor molecule, acceptor atom, score
      L1  H     3    58       P1 10747  1.00
      P1  H  6896  6907       L1    14  1.00
      P1  H  7997  8009       L1    25  1.00
      L1  C    18    46       P1  7949  0.29

> <Gold.PLP.Chemscore.Internal.Correction>
0.9560

> <Gold.Rescore>
     Score         DG    S(hbond)    S(metal)    S(lipo)     H(rot)  DE(clash)    DE(int)     intcor
     15.01     -16.66       2.68        0.00      78.74       2.73       0.03       1.61       ----

> <Gold.Chemscore.Fitness>
15.0113

> <Gold.Chemscore.DG>
-16.6572

> <Gold.Chemscore.ZeroCoef>
-5.4800

> <Gold.Chemscore.Hbond>
2.6845

> <Gold.Chemscore.Metal>
0.0000

> <Gold.Chemscore.Lipo>
78.7350

> <Gold.Chemscore.Internal_Hbond>
0.0000

> <Gold.Chemscore.DEClash>
0.0339

> <Gold.Chemscore.DEInternal>
1.6120

> <Gold.Chemscore.Rot>
2.7348

> <Gold.Chemscore.Internal.Correction>
   9.000000E+99

> <Gold.Chemscore.Hbonds>
donor molecule, donor type, donor heavy atom, donor atom, acceptor molecule, acceptor atom, score
      L1  H     3    58       P1 10747  0.98
      P1  H  6896  6907       L1    14  0.36
      P1  H  7997  8009       L1    25  0.36

> <Gold.Chemscore.Hbond.Weighted>
-8.9662

> <Gold.Chemscore.Metal.Weighted>
-0.0000

> <Gold.Chemscore.Lipo.Weighted>
-9.2120

> <Gold.Chemscore.Internal_Hbond.Weighted>
0.0000

> <Gold.Chemscore.DEClash.Weighted>
0.0339

> <Gold.Chemscore.DEInternal.Weighted>
1.6120

> <Gold.Chemscore.Rot.Weighted>
7.0010

> <Gold.Chemscore.Internal.Correction.Weighted>
   9.000000E+99

> <Gold.Protein.RotatedTorsions>
[ 6907 6896 6895 6894 ] final -102.21 input  -60.11 | X-H torsion
[ 7974 7965 7964 7962 ] final  -59.95 input  175.53 | X-H torsion
[ 8008 7997 7996 7995 ] final -150.25 input   59.86 | X-H torsion
[ 10167 10162 10161 10158 ] final -166.52 input  -65.29 | X-H torsion
[ 10718 10713 10712 10709 ] final   46.11 input   66.30 | X-H torsion
[ 10763 10752 10751 10750 ] final -169.98 input  -60.55 | X-H torsion
[ 11005 11000 10999 10996 ] final   15.95 input  -57.11 | X-H torsion

> <Gold.Protein.ActiveResidues>
 VAL166  LYS551  ARG553  GLY616  TRP617  ASP618  TYR619  PRO620  LYS621  CYS622 
 ASP623  PHE694  ASN695  SER759  ASP760  ASP761  ALA762  ILE779  LEU786  VAL792 
 PHE793  MET794  SER795  GLU796  ALA797  LYS798  CYS799  TRP800  GLU811  SER814 

> <Gold.Protein.RotatedAtoms>
  150.7186  134.0617  159.3833 H   0  0  0  0  0  0  0  0  0  0  0  0  # atno 6907 bound_to 6896
  151.8597  135.0526  160.0477 H   0  0  0  0  0  0  0  0  0  0  0  0  # atno 6908 bound_to 6896
  152.2727  133.5361  159.5485 H   0  0  0  0  0  0  0  0  0  0  0  0  # atno 6909 bound_to 6896
  145.8214  140.8538  143.0131 H   0  0  0  0  0  0  0  0  0  0  0  0  # atno 7974 bound_to 7965
  155.6206  140.0681  157.2679 H   0  0  0  0  0  0  0  0  0  0  0  0  # atno 8008 bound_to 7997
  154.4230  140.1785  156.1416 H   0  0  0  0  0  0  0  0  0  0  0  0  # atno 8009 bound_to 7997
  156.0012  140.3336  155.6851 H   0  0  0  0  0  0  0  0  0  0  0  0  # atno 8010 bound_to 7997
  139.6110  144.0815  152.1841 H   0  0  0  0  0  0  0  0  0  0  0  0  # atno 10167 bound_to 10162
  157.4447  130.8102  149.7728 H   0  0  0  0  0  0  0  0  0  0  0  0  # atno 10718 bound_to 10713
  154.6464  135.2905  155.0041 H   0  0  0  0  0  0  0  0  0  0  0  0  # atno 10763 bound_to 10752
  154.1149  135.6557  153.4896 H   0  0  0  0  0  0  0  0  0  0  0  0  # atno 10764 bound_to 10752
  153.0353  135.5274  154.7353 H   0  0  0  0  0  0  0  0  0  0  0  0  # atno 10765 bound_to 10752
  140.4526  134.1209  155.7704 H   0  0  0  0  0  0  0  0  0  0  0  0  # atno 11005 bound_to 11000
  144.6747  140.0538  143.7478 LP  0  0  0  0  0  0  0  0  0  0  0  0  # atno 17320 bound_to 7965
  145.9671  139.2842  143.1121 LP  0  0  0  0  0  0  0  0  0  0  0  0  # atno 17321 bound_to 7965
  140.0434  144.5989  150.7393 LP  0  0  0  0  0  0  0  0  0  0  0  0  # atno 17342 bound_to 10162
  140.7319  143.2699  151.3922 LP  0  0  0  0  0  0  0  0  0  0  0  0  # atno 17343 bound_to 10162
  155.9962  130.3907  150.2787 LP  0  0  0  0  0  0  0  0  0  0  0  0  # atno 17370 bound_to 10713
  157.0954  131.0181  151.3106 LP  0  0  0  0  0  0  0  0  0  0  0  0  # atno 17371 bound_to 10713
  141.1657  133.8707  157.1720 LP  0  0  0  0  0  0  0  0  0  0  0  0  # atno 17394 bound_to 11000
  139.9997  135.0032  157.0162 LP  0  0  0  0  0  0  0  0  0  0  0  0  # atno 17395 bound_to 11000

$$$$
