AV-unprocessed.smi:36|AV-procd|sdf|279|dock6
  -GOLD-   2262016 53D 1   1.00000     0.00000
 Structure written by MMmdl.
 64 67  0  0  0  0  0  0  0  0  1 V2000
  151.3512  126.9344  168.0159 C   0  0  0  0  0  0  0  0  0  0  0  0
  151.3662  128.3779  167.4865 C   0  0  0  0  0  0  0  0  0  0  0  0
  150.0573  128.6723  166.7338 C   0  0  0  0  0  0  0  0  0  0  0  0
  151.5227  129.3635  168.6568 C   0  0  0  0  0  0  0  0  0  0  0  0
  152.8351  128.6020  166.2857 Si  0  0  0  0  0  0  0  0  0  0  0  0
  154.4738  128.0635  167.0813 C   0  0  0  0  0  0  0  0  0  0  0  0
  152.5496  127.6366  164.6733 C   0  0  0  0  0  0  0  0  0  0  0  0
  152.9453  130.2493  165.9191 O   0  0  0  0  0  0  0  0  0  0  0  0
  153.8208  130.7945  164.9519 C   0  0  0  0  0  0  0  0  0  0  0  0
  154.3490  132.1496  165.4450 C   0  0  2  0  0  0  0  0  0  0  0  0
  153.8680  133.1878  164.5907 O   0  0  0  0  0  0  0  0  0  0  0  0
  154.9521  133.7262  163.9074 C   0  0  1  0  0  0  0  0  0  0  0  0
  154.6463  135.1377  163.5465 N   0  0  0  0  0  0  0  0  0  0  0  0
  154.2074  136.1671  164.3508 C   0  0  0  0  0  0  0  0  0  0  0  0
  154.0156  137.3063  163.7401 N   0  0  0  0  0  0  0  0  0  0  0  0
  154.3540  137.0420  162.4185 C   0  0  0  0  0  0  0  0  0  0  0  0
  154.3760  137.8201  161.2320 C   0  0  0  0  0  0  0  0  0  0  0  0
  153.9944  139.1187  161.2628 N   0  0  0  0  0  0  0  0  0  0  0  0
  153.5943  139.9630  160.1506 C   0  0  0  0  0  0  0  0  0  0  0  0
  153.5213  139.5374  158.9973 O   0  0  0  0  0  0  0  0  0  0  0  0
  153.1972  141.3684  160.4984 C   0  0  0  0  0  0  0  0  0  0  0  0
  153.2804  141.8142  161.8368 C   0  0  0  0  0  0  0  0  0  0  0  0
  152.8988  143.1267  162.1767 C   0  0  0  0  0  0  0  0  0  0  0  0
  152.4236  144.0024  161.1826 C   0  0  0  0  0  0  0  0  0  0  0  0
  152.3252  143.5629  159.8489 C   0  0  0  0  0  0  0  0  0  0  0  0
  152.7063  142.2503  159.5076 C   0  0  0  0  0  0  0  0  0  0  0  0
  154.7824  137.2055  160.0893 N   0  0  0  0  0  0  0  0  0  0  0  0
  155.1390  135.9176  160.1067 C   0  0  0  0  0  0  0  0  0  0  0  0
  155.1611  135.0716  161.1390 N   0  0  0  0  0  0  0  0  0  0  0  0
  154.7557  135.6842  162.2884 C   0  0  0  0  0  0  0  0  0  0  0  0
  156.1183  133.6517  164.8790 C   0  0  0  0  0  0  0  0  0  0  0  0
  155.8858  132.2720  165.4606 C   0  0  1  0  0  0  0  0  0  0  0  0
  156.4248  132.1707  166.7624 O   0  0  0  0  0  0  0  0  0  0  0  0
  150.5209  126.7740  168.7046 H   0  0  0  0  0  0  0  0  0  0  0  0
  152.2716  126.6974  168.5504 H   0  0  0  0  0  0  0  0  0  0  0  0
  151.2473  126.2142  167.2039 H   0  0  0  0  0  0  0  0  0  0  0  0
  149.9128  127.9832  165.9016 H   0  0  0  0  0  0  0  0  0  0  0  0
  150.0529  129.6839  166.3267 H   0  0  0  0  0  0  0  0  0  0  0  0
  149.1920  128.5781  167.3908 H   0  0  0  0  0  0  0  0  0  0  0  0
  150.6893  129.2854  169.3555 H   0  0  0  0  0  0  0  0  0  0  0  0
  151.5610  130.3947  168.3034 H   0  0  0  0  0  0  0  0  0  0  0  0
  152.4390  129.1732  169.2166 H   0  0  0  0  0  0  0  0  0  0  0  0
  154.4625  127.0068  167.3469 H   0  0  0  0  0  0  0  0  0  0  0  0
  154.6819  128.6261  167.9912 H   0  0  0  0  0  0  0  0  0  0  0  0
  155.3151  128.2194  166.4064 H   0  0  0  0  0  0  0  0  0  0  0  0
  152.4722  126.5653  164.8576 H   0  0  0  0  0  0  0  0  0  0  0  0
  153.3651  127.7846  163.9659 H   0  0  0  0  0  0  0  0  0  0  0  0
  151.6305  127.9458  164.1764 H   0  0  0  0  0  0  0  0  0  0  0  0
  154.6456  130.0999  164.7911 H   0  0  0  0  0  0  0  0  0  0  0  0
  153.3095  130.9135  163.9961 H   0  0  0  0  0  0  0  0  0  0  0  0
  153.9448  132.3515  166.4381 H   0  0  0  0  0  0  0  0  0  0  0  0
  155.1242  133.2028  162.9653 H   0  0  0  0  0  0  0  0  0  0  0  0
  154.0285  136.0465  165.4094 H   0  0  0  0  0  0  0  0  0  0  0  0
  153.9940  139.5579  162.1718 H   0  0  0  0  0  0  0  0  0  0  0  0
  153.6428  141.1539  162.6120 H   0  0  0  0  0  0  0  0  0  0  0  0
  152.9708  143.4607  163.2012 H   0  0  0  0  0  0  0  0  0  0  0  0
  152.1312  145.0089  161.4437 H   0  0  0  0  0  0  0  0  0  0  0  0
  151.9549  144.2326  159.0868 H   0  0  0  0  0  0  0  0  0  0  0  0
  152.6141  141.9314  158.4794 H   0  0  0  0  0  0  0  0  0  0  0  0
  155.4489  135.5064  159.1575 H   0  0  0  0  0  0  0  0  0  0  0  0
  157.0751  133.7663  164.3685 H   0  0  0  0  0  0  0  0  0  0  0  0
  156.0079  134.4311  165.6353 H   0  0  0  0  0  0  0  0  0  0  0  0
  156.3483  131.5247  164.8158 H   0  0  0  0  0  0  0  0  0  0  0  0
  157.3620  132.2786  166.7093 H   0  0  0  0  0  0  0  0  0  0  0  0
  1  2  1  0  0  0  0
  1 34  1  0  0  0  0
  1 35  1  0  0  0  0
  1 36  1  0  0  0  0
  2  3  1  0  0  0  0
  2  4  1  0  0  0  0
  2  5  1  0  0  0  0
  3 37  1  0  0  0  0
  3 38  1  0  0  0  0
  3 39  1  0  0  0  0
  4 40  1  0  0  0  0
  4 41  1  0  0  0  0
  4 42  1  0  0  0  0
  5  6  1  0  0  0  0
  5  7  1  0  0  0  0
  5  8  1  0  0  0  0
  6 43  1  0  0  0  0
  6 44  1  0  0  0  0
  6 45  1  0  0  0  0
  7 46  1  0  0  0  0
  7 47  1  0  0  0  0
  7 48  1  0  0  0  0
  8  9  1  0  0  0  0
  9 10  1  0  0  0  0
  9 49  1  0  0  0  0
  9 50  1  0  0  0  0
 10 32  1  0  0  0  0
 10 11  1  0  0  0  0
 10 51  1  0  0  0  0
 11 12  1  0  0  0  0
 12 13  1  0  0  0  0
 12 31  1  0  0  0  0
 12 52  1  0  0  0  0
 13 30  1  0  0  0  0
 13 14  1  0  0  0  0
 14 15  2  0  0  0  0
 14 53  1  0  0  0  0
 15 16  1  0  0  0  0
 16 30  2  0  0  0  0
 16 17  1  0  0  0  0
 17 18  1  0  0  0  0
 17 27  2  0  0  0  0
 18 19  1  0  0  0  0
 18 54  1  0  0  0  0
 19 20  2  0  0  0  0
 19 21  1  0  0  0  0
 21 26  1  0  0  0  0
 21 22  2  0  0  0  0
 22 23  1  0  0  0  0
 22 55  1  0  0  0  0
 23 24  2  0  0  0  0
 23 56  1  0  0  0  0
 24 25  1  0  0  0  0
 24 57  1  0  0  0  0
 25 26  2  0  0  0  0
 25 58  1  0  0  0  0
 26 59  1  0  0  0  0
 27 28  1  0  0  0  0
 28 29  2  0  0  0  0
 28 60  1  0  0  0  0
 29 30  1  0  0  0  0
 31 32  1  0  0  0  0
 31 61  1  0  0  0  0
 31 62  1  0  0  0  0
 32 33  1  0  0  0  0
 32 63  1  0  0  0  0
 33 64  1  0  0  0  0
M  END
> <s_m_source_file>
AV-unprocessed.smi

> <i_m_source_file_index>
36

> <i_lp_mmshare_version>
43012

> <i_f3d_flags>
0

> <s_epik_input>
W0NIM11DKFtDSDNdKShbQ0gzXSlbU2ldKFtDSDNdKShbQ0gzXSlPW0NIMl1bQ0BASF0xT1tDQEhdKFtDSDJdW0NASF0xW09IXSluKFtjSF1uMiljKGMyMyluW2NIXW5jM1tOSF1DKD1PKWM0W2NIXVtjSF1bY0hdW2NIXVtjSF00

> <s_epik_cmdline>
J2VwaWtfcHl0aG9uJywgJy1waCcsICc3LjAnLCAnLXRuJywgJzgnLCAnLW1hJywgJzIwMCcsICctbWV0YWxfYmluZGluZycsICctaW1hZScsICc8aW5maWxlLm1hZT4nLCAnLW9tYWUnLCAnPG91dGZpbGUubWFlPic=

> <r_lp_tautomer_probability>
1

> <r_epik_Ionization_Penalty>
0.00150433

> <r_epik_Ionization_Penalty_Charging>
0

> <r_epik_Ionization_Penalty_Neutral>
0.00150433

> <r_epik_State_Penalty>
0.00724046

> <r_epik_Charging_Adjusted_Penalty>
0.00724046

> <i_epik_Tot_Q>
0

> <i_epik_Tot_abs_Q>
0

> <r_epik_Metal_State_Penalty>
0.323355

> <b_epik_Metal_Only>
0

> <s_epik_Chemistry_Notes>
This compound contains an acetal/aminal-like group ( X-CH(R)-Y where X, Y are N, S, or O) that may be acid/base labile, releasing an aldehyde.

> <s_lp_Force_Field>
OPLS_2005

> <r_lp_Energy>
30.8875

> <b_lp_Chiralities_Consistent>
1

> <s_lp_Variant>
AV-unprocessed.smi:36-1

> <Gold.Version>
5.8.1

> <Gold.Id.Protein>
6NUR|6NUR_protein|mol2

> <Gold.PLP.Fitness>
59.0189

> <Gold.PLP.PLP>
-58.5955

> <Gold.PLP.part.hbond>
-1.0000

> <Gold.PLP.part.metal>
0.0000

> <Gold.PLP.part.buried>
-6.6298

> <Gold.PLP.part.nonpolar>
-49.8226

> <Gold.PLP.part.repulsive>
0.1570

> <Gold.PLP.ligand.clash>
0.0000

> <Gold.PLP.ligand.torsion>
1.3412

> <Gold.PLP.Chemscore.Hbond>
0.9913

> <Gold.PLP.Chemscore.CHOScore>
0.0000

> <Gold.PLP.Chemscore.Metal>
0.0000

> <Gold.Chemscore.Hbonds>
donor molecule, donor type, donor heavy atom, donor atom, acceptor molecule, acceptor atom, score
      P1  H  7997  8008       L1    20  0.44

> <Gold.PLP.Chemscore.Internal.Correction>
0.1321

> <Gold.Rescore>
     Score         DG    S(hbond)    S(metal)    S(lipo)     H(rot)  DE(clash)    DE(int)     intcor
     16.03     -18.61       1.00        0.00     142.89       2.70       0.05       2.53       ----

> <Gold.Chemscore.Fitness>
16.0289

> <Gold.Chemscore.DG>
-18.6144

> <Gold.Chemscore.ZeroCoef>
-5.4800

> <Gold.Chemscore.Hbond>
0.9997

> <Gold.Chemscore.Metal>
0.0000

> <Gold.Chemscore.Lipo>
142.8888

> <Gold.Chemscore.Internal_Hbond>
0.0000

> <Gold.Chemscore.DEClash>
0.0519

> <Gold.Chemscore.DEInternal>
2.5336

> <Gold.Chemscore.Rot>
2.7041

> <Gold.Chemscore.Internal.Correction>
   9.000000E+99

> <Gold.Chemscore.Hbonds>
donor molecule, donor type, donor heavy atom, donor atom, acceptor molecule, acceptor atom, score
      P1  H  7997  8008       L1    20  0.43

> <Gold.Chemscore.Hbond.Weighted>
-3.3389

> <Gold.Chemscore.Metal.Weighted>
-0.0000

> <Gold.Chemscore.Lipo.Weighted>
-16.7180

> <Gold.Chemscore.Internal_Hbond.Weighted>
0.0000

> <Gold.Chemscore.DEClash.Weighted>
0.0519

> <Gold.Chemscore.DEInternal.Weighted>
2.5336

> <Gold.Chemscore.Rot.Weighted>
6.9225

> <Gold.Chemscore.Internal.Correction.Weighted>
   9.000000E+99

> <Gold.Protein.RotatedTorsions>
[ 6907 6896 6895 6894 ] final   24.13 input  -60.11 | X-H torsion
[ 7974 7965 7964 7962 ] final  -38.87 input  175.53 | X-H torsion
[ 8008 7997 7996 7995 ] final -104.69 input   59.86 | X-H torsion
[ 10167 10162 10161 10158 ] final  139.18 input  -65.29 | X-H torsion
[ 10718 10713 10712 10709 ] final   62.48 input   66.30 | X-H torsion
[ 10763 10752 10751 10750 ] final -147.16 input  -60.55 | X-H torsion
[ 11005 11000 10999 10996 ] final -157.98 input  -57.11 | X-H torsion

> <Gold.Protein.ActiveResidues>
 VAL166  LYS551  ARG553  GLY616  TRP617  ASP618  TYR619  PRO620  LYS621  CYS622 
 ASP623  PHE694  ASN695  SER759  ASP760  ASP761  ALA762  ILE779  LEU786  VAL792 
 PHE793  MET794  SER795  GLU796  ALA797  LYS798  CYS799  TRP800  GLU811  SER814 

> <Gold.Protein.RotatedAtoms>
  151.9528  135.0161  160.0542 H   0  0  0  0  0  0  0  0  0  0  0  0  # atno 6907 bound_to 6896
  152.1937  133.4787  159.5030 H   0  0  0  0  0  0  0  0  0  0  0  0  # atno 6908 bound_to 6896
  150.6940  134.1596  159.4214 H   0  0  0  0  0  0  0  0  0  0  0  0  # atno 6909 bound_to 6896
  146.0448  140.6561  142.9070 H   0  0  0  0  0  0  0  0  0  0  0  0  # atno 7974 bound_to 7965
  154.8890  140.0416  157.1827 H   0  0  0  0  0  0  0  0  0  0  0  0  # atno 8008 bound_to 7997
  154.8560  140.2936  155.5547 H   0  0  0  0  0  0  0  0  0  0  0  0  # atno 8009 bound_to 7997
  156.2997  140.2456  156.3527 H   0  0  0  0  0  0  0  0  0  0  0  0  # atno 8010 bound_to 7997
  139.5087  144.6310  151.5818 H   0  0  0  0  0  0  0  0  0  0  0  0  # atno 10167 bound_to 10162
  157.5903  130.9052  149.9593 H   0  0  0  0  0  0  0  0  0  0  0  0  # atno 10718 bound_to 10713
  154.8300  135.3367  154.6775 H   0  0  0  0  0  0  0  0  0  0  0  0  # atno 10763 bound_to 10752
  153.7396  135.6946  153.4974 H   0  0  0  0  0  0  0  0  0  0  0  0  # atno 10764 bound_to 10752
  153.2254  135.4435  155.0487 H   0  0  0  0  0  0  0  0  0  0  0  0  # atno 10765 bound_to 10752
  140.6587  134.4373  157.5234 H   0  0  0  0  0  0  0  0  0  0  0  0  # atno 11005 bound_to 11000
  144.7092  140.3974  143.7094 LP  0  0  0  0  0  0  0  0  0  0  0  0  # atno 17320 bound_to 7965
  145.6824  139.1621  143.2693 LP  0  0  0  0  0  0  0  0  0  0  0  0  # atno 17321 bound_to 7965
  140.6042  143.9554  150.6407 LP  0  0  0  0  0  0  0  0  0  0  0  0  # atno 17342 bound_to 10162
  140.2776  143.3412  152.1181 LP  0  0  0  0  0  0  0  0  0  0  0  0  # atno 17343 bound_to 10162
  156.0957  130.3659  150.0310 LP  0  0  0  0  0  0  0  0  0  0  0  0  # atno 17370 bound_to 10713
  156.8434  130.9433  151.3630 LP  0  0  0  0  0  0  0  0  0  0  0  0  # atno 17371 bound_to 10713
  139.9020  134.8533  156.1855 LP  0  0  0  0  0  0  0  0  0  0  0  0  # atno 17394 bound_to 11000
  141.0482  133.6902  156.1722 LP  0  0  0  0  0  0  0  0  0  0  0  0  # atno 17395 bound_to 11000

$$$$
