AV-unprocessed.smi:2212|AV-procd|sdf|8953|dock2
  -GOLD-   2272012173D 1   1.00000     0.00000
 Structure written by MMmdl.
 31 32  0  0  0  0  0  0  0  0  1 V2000
  151.0247  140.6411  158.5754 C   0  0  0  0  0  0  0  0  0  0  0  0
  150.5529  141.9552  158.8428 O   0  0  0  0  0  0  0  0  0  0  0  0
  151.3380  143.0229  158.3103 C   0  0  0  0  0  0  0  0  0  0  0  0
  151.5798  142.8624  156.8027 C   0  0  0  0  0  0  0  0  0  0  0  0
  150.3199  142.6798  156.0938 N   0  0  0  0  0  0  0  0  0  0  0  0
  149.9804  141.5825  155.4040 C   0  0  0  0  0  0  0  0  0  0  0  0
  150.7487  140.6212  155.2979 O   0  0  0  0  0  0  0  0  0  0  0  0
  148.7176  141.7326  154.8526 N   0  0  0  0  0  0  0  0  0  0  0  0
  148.1644  140.7174  154.2650 C   0  0  0  0  0  0  0  0  0  0  0  0
  146.9096  140.6569  153.6805 N   0  0  0  0  0  0  0  0  0  0  0  0
  146.7386  139.4000  153.1697 C   0  0  0  0  0  0  0  0  0  0  0  0
  147.8400  138.6979  153.4201 C   0  0  0  0  0  0  0  0  0  0  0  0
  148.7342  139.4770  154.0900 O   0  0  0  0  0  0  0  0  0  0  0  0
  150.7295  144.3507  158.7997 C   0  0  0  0  0  0  0  0  0  0  0  0
  152.1401  144.8204  159.1606 C   0  0  0  0  0  0  0  0  0  0  0  0
  152.5379  143.3449  159.2233 C   0  0  0  0  0  0  0  0  0  0  0  0
  150.4089  139.9237  159.1171 H   0  0  0  0  0  0  0  0  0  0  0  0
  152.0560  140.5039  158.9008 H   0  0  0  0  0  0  0  0  0  0  0  0
  150.9541  140.3932  157.5164 H   0  0  0  0  0  0  0  0  0  0  0  0
  152.0815  143.7468  156.4067 H   0  0  0  0  0  0  0  0  0  0  0  0
  152.2427  142.0222  156.5944 H   0  0  0  0  0  0  0  0  0  0  0  0
  149.6554  143.4388  156.1420 H   0  0  0  0  0  0  0  0  0  0  0  0
  146.2130  141.3855  153.6186 H   0  0  0  0  0  0  0  0  0  0  0  0
  145.8202  139.1348  152.6668 H   0  0  0  0  0  0  0  0  0  0  0  0
  148.1293  137.6814  153.1974 H   0  0  0  0  0  0  0  0  0  0  0  0
  150.2409  144.9456  158.0274 H   0  0  0  0  0  0  0  0  0  0  0  0
  150.0907  144.2357  159.6774 H   0  0  0  0  0  0  0  0  0  0  0  0
  152.6302  145.3586  158.3476 H   0  0  0  0  0  0  0  0  0  0  0  0
  152.2157  145.3556  160.1074 H   0  0  0  0  0  0  0  0  0  0  0  0
  152.4404  142.9323  160.2291 H   0  0  0  0  0  0  0  0  0  0  0  0
  153.5140  143.1216  158.7919 H   0  0  0  0  0  0  0  0  0  0  0  0
  1  2  1  0  0  0  0
  1 17  1  0  0  0  0
  1 18  1  0  0  0  0
  1 19  1  0  0  0  0
  2  3  1  0  0  0  0
  3 16  1  0  0  0  0
  3  4  1  0  0  0  0
  3 14  1  0  0  0  0
  4  5  1  0  0  0  0
  4 20  1  0  0  0  0
  4 21  1  0  0  0  0
  5 22  1  0  0  0  0
  5  6  1  0  0  0  0
  6  8  1  0  0  0  0
  6  7  2  0  0  0  0
  8  9  2  0  0  0  0
  9 13  1  0  0  0  0
  9 10  1  0  0  0  0
 10 23  1  0  0  0  0
 10 11  1  0  0  0  0
 11 24  1  0  0  0  0
 11 12  2  0  0  0  0
 12 25  1  0  0  0  0
 12 13  1  0  0  0  0
 14 15  1  0  0  0  0
 14 26  1  0  0  0  0
 14 27  1  0  0  0  0
 15 16  1  0  0  0  0
 15 28  1  0  0  0  0
 15 29  1  0  0  0  0
 16 30  1  0  0  0  0
 16 31  1  0  0  0  0
M  END
> <s_m_source_file>
AV-unprocessed.smi

> <i_m_source_file_index>
2212

> <i_lp_mmshare_version>
43012

> <i_f3d_flags>
0

> <s_epik_input>
W0NIMl0xW0NIMl1bQ0gyXUMxKE9bQ0gzXSlbQ0gyXVtOSF1DKD1PKVtOSF1jMm5bY0hdW2NIXW8y

> <s_epik_cmdline>
J2VwaWtfcHl0aG9uJywgJy1waCcsICc3LjAnLCAnLXRuJywgJzgnLCAnLW1hJywgJzIwMCcsICctbWV0YWxfYmluZGluZycsICctaW1hZScsICc8aW5maWxlLm1hZT4nLCAnLW9tYWUnLCAnPG91dGZpbGUubWFlPic=

> <r_lp_tautomer_probability>
0.107061

> <r_epik_Ionization_Penalty>
1.29244

> <r_epik_Ionization_Penalty_Charging>
1.29208

> <r_epik_Ionization_Penalty_Neutral>
0.000357989

> <r_epik_State_Penalty>
2.59896

> <r_epik_Charging_Adjusted_Penalty>
3.89105

> <i_epik_Tot_Q>
0

> <i_epik_Tot_abs_Q>
0

> <r_epik_Metal_State_Penalty>
3.62496

> <b_epik_Metal_Only>
0

> <s_lp_Force_Field>
OPLS_2005

> <r_lp_Energy>
40.2308

> <b_lp_Chiralities_Consistent>
1

> <s_lp_Variant>
AV-unprocessed.smi:2212-3

> <Gold.Version>
5.8.1

> <Gold.Id.Protein>
6NUR|6NUR_protein|mol2

> <Gold.PLP.Fitness>
38.5572

> <Gold.PLP.PLP>
-26.9982

> <Gold.PLP.part.hbond>
-2.2845

> <Gold.PLP.part.metal>
0.0000

> <Gold.PLP.part.buried>
-4.8647

> <Gold.PLP.part.nonpolar>
-21.4129

> <Gold.PLP.part.repulsive>
0.7491

> <Gold.PLP.ligand.clash>
0.0000

> <Gold.PLP.ligand.torsion>
0.2059

> <Gold.PLP.Chemscore.Hbond>
1.9280

> <Gold.PLP.Chemscore.CHOScore>
1.9702

> <Gold.PLP.Chemscore.Metal>
0.0000

> <Gold.Chemscore.Hbonds>
donor molecule, donor type, donor heavy atom, donor atom, acceptor molecule, acceptor atom, score
      L1  H     5    22       P1  8028  1.00
      P1  H  7989  7998       L1     7  0.93
      L1  C    11    24       P1 10175  0.98
      L1  C    12    25       P1  7948  1.00

> <Gold.PLP.Chemscore.Internal.Correction>
0.2762

> <Gold.Rescore>
     Score         DG    S(hbond)    S(metal)    S(lipo)     H(rot)  DE(clash)    DE(int)     intcor
     12.39     -15.77       1.73        0.00      74.52       1.64       1.49       1.88       ----

> <Gold.Chemscore.Fitness>
12.3941

> <Gold.Chemscore.DG>
-15.7673

> <Gold.Chemscore.ZeroCoef>
-5.4800

> <Gold.Chemscore.Hbond>
1.7276

> <Gold.Chemscore.Metal>
0.0000

> <Gold.Chemscore.Lipo>
74.5161

> <Gold.Chemscore.Internal_Hbond>
0.0000

> <Gold.Chemscore.DEClash>
1.4901

> <Gold.Chemscore.DEInternal>
1.8831

> <Gold.Chemscore.Rot>
1.6411

> <Gold.Chemscore.Internal.Correction>
   9.000000E+99

> <Gold.Chemscore.Hbonds>
donor molecule, donor type, donor heavy atom, donor atom, acceptor molecule, acceptor atom, score
      L1  H     5    22       P1  8028  0.96
      P1  H  7989  7998       L1     7  0.38

> <Gold.Chemscore.Hbond.Weighted>
-5.7700

> <Gold.Chemscore.Metal.Weighted>
-0.0000

> <Gold.Chemscore.Lipo.Weighted>
-8.7184

> <Gold.Chemscore.Internal_Hbond.Weighted>
0.0000

> <Gold.Chemscore.DEClash.Weighted>
1.4901

> <Gold.Chemscore.DEInternal.Weighted>
1.8831

> <Gold.Chemscore.Rot.Weighted>
4.2011

> <Gold.Chemscore.Internal.Correction.Weighted>
   9.000000E+99

> <Gold.Protein.RotatedTorsions>
[ 6907 6896 6895 6894 ] final -159.92 input  -60.11 | X-H torsion
[ 7974 7965 7964 7962 ] final -169.94 input  175.53 | X-H torsion
[ 8008 7997 7996 7995 ] final -100.67 input   59.86 | X-H torsion
[ 10167 10162 10161 10158 ] final -101.37 input  -65.29 | X-H torsion
[ 10718 10713 10712 10709 ] final  -93.35 input   66.30 | X-H torsion
[ 10763 10752 10751 10750 ] final  138.12 input  -60.55 | X-H torsion
[ 11005 11000 10999 10996 ] final  127.87 input  -57.11 | X-H torsion

> <Gold.Protein.ActiveResidues>
 VAL166  LYS551  ARG553  GLY616  TRP617  ASP618  TYR619  PRO620  LYS621  CYS622 
 ASP623  PHE694  ASN695  SER759  ASP760  ASP761  ALA762  ILE779  LEU786  VAL792 
 PHE793  MET794  SER795  GLU796  ALA797  LYS798  CYS799  TRP800  GLU811  SER814 

> <Gold.Protein.RotatedAtoms>
  151.3410  133.3962  159.2670 H   0  0  0  0  0  0  0  0  0  0  0  0  # atno 6907 bound_to 6896
  150.9878  134.9220  159.7892 H   0  0  0  0  0  0  0  0  0  0  0  0  # atno 6908 bound_to 6896
  152.5237  134.3375  159.9257 H   0  0  0  0  0  0  0  0  0  0  0  0  # atno 6909 bound_to 6896
  144.7177  140.2146  143.6323 H   0  0  0  0  0  0  0  0  0  0  0  0  # atno 7974 bound_to 7965
  154.8318  140.0439  157.1482 H   0  0  0  0  0  0  0  0  0  0  0  0  # atno 8008 bound_to 7997
  154.9144  140.3018  155.5229 H   0  0  0  0  0  0  0  0  0  0  0  0  # atno 8009 bound_to 7997
  156.2987  140.2352  156.4187 H   0  0  0  0  0  0  0  0  0  0  0  0  # atno 8010 bound_to 7997
  140.2420  143.3532  152.0793 H   0  0  0  0  0  0  0  0  0  0  0  0  # atno 10167 bound_to 10162
  156.0012  130.5023  150.5763 H   0  0  0  0  0  0  0  0  0  0  0  0  # atno 10718 bound_to 10713
  153.8844  135.3040  155.3446 H   0  0  0  0  0  0  0  0  0  0  0  0  # atno 10763 bound_to 10752
  154.7746  135.4868  153.9721 H   0  0  0  0  0  0  0  0  0  0  0  0  # atno 10764 bound_to 10752
  153.1333  135.6808  153.9241 H   0  0  0  0  0  0  0  0  0  0  0  0  # atno 10765 bound_to 10752
  139.9530  134.9618  156.8918 H   0  0  0  0  0  0  0  0  0  0  0  0  # atno 11005 bound_to 11000
  145.8559  139.2198  143.1745 LP  0  0  0  0  0  0  0  0  0  0  0  0  # atno 17320 bound_to 7965
  146.0218  140.8340  142.9919 LP  0  0  0  0  0  0  0  0  0  0  0  0  # atno 17321 bound_to 7965
  139.5074  144.6831  151.5957 LP  0  0  0  0  0  0  0  0  0  0  0  0  # atno 17342 bound_to 10162
  140.6106  143.9443  150.6450 LP  0  0  0  0  0  0  0  0  0  0  0  0  # atno 17343 bound_to 10162
  157.3650  131.0756  151.1605 LP  0  0  0  0  0  0  0  0  0  0  0  0  # atno 17370 bound_to 10713
  157.2377  130.6555  149.5876 LP  0  0  0  0  0  0  0  0  0  0  0  0  # atno 17371 bound_to 10713
  140.5674  134.0476  155.7419 LP  0  0  0  0  0  0  0  0  0  0  0  0  # atno 17394 bound_to 11000
  141.1197  133.9482  157.2754 LP  0  0  0  0  0  0  0  0  0  0  0  0  # atno 17395 bound_to 11000

$$$$
