AV-unprocessed.smi:209|AV-procd|sdf|1610|dock3
  -GOLD-   2262019533D 1   1.00000     0.00000
 Structure written by MMmdl.
 48 52  0  0  0  0  0  0  0  0  1 V2000
  151.1026  140.3114  154.9045 O   0  0  0  0  0  0  0  0  0  0  0  0
  150.3527  139.4581  155.3742 C   0  0  0  0  0  0  0  0  0  0  0  0
  150.6498  138.1734  155.5630 N   0  0  0  0  0  0  0  0  0  0  0  0
  149.5259  137.3942  156.0546 C   0  0  0  0  0  0  0  0  0  0  0  0
  148.2991  138.3223  155.8731 C   0  0  1  0  0  0  0  0  0  0  0  0
  148.9377  139.7329  155.8630 C   0  0  2  0  0  0  0  0  0  0  0  0
  148.1465  140.8164  155.1001 C   0  0  0  0  0  0  0  0  0  0  0  0
  147.5721  140.2926  153.7811 C   0  0  0  0  0  0  0  0  0  0  0  0
  146.7450  139.0306  154.0421 C   0  0  0  0  0  0  0  0  0  0  0  0
  147.5834  137.9880  154.6274 N   0  0  0  0  0  0  0  0  0  0  0  0
  147.0041  136.7628  154.5407 C   0  0  0  0  0  0  0  0  0  0  0  0
  147.1637  135.8589  155.5443 N   0  0  0  0  0  0  0  0  0  0  0  0
  146.5826  134.6582  155.4681 C   0  0  0  0  0  0  0  0  0  0  0  0
  145.8144  134.1633  154.4957 N   0  0  0  0  0  0  0  0  0  0  0  0
  145.6562  135.0632  153.4832 C   0  0  0  0  0  0  0  0  0  0  0  0
  146.2103  136.3727  153.4264 C   0  0  0  0  0  0  0  0  0  0  0  0
  145.8375  136.9937  152.2409 N   0  0  0  0  0  0  0  0  0  0  0  0
  145.0985  136.1047  151.6349 C   0  0  0  0  0  0  0  0  0  0  0  0
  144.9439  134.9117  152.3057 N   0  0  0  0  0  0  0  0  0  0  0  0
  144.1718  133.7563  151.8714 C   0  0  0  0  0  0  0  0  0  0  0  0
  144.7628  133.0111  150.6573 C   0  0  0  0  0  0  0  0  0  0  0  0
  146.2750  133.3037  150.5827 C   0  0  0  0  0  0  0  0  0  0  0  0
  147.0288  132.5151  151.4818 O   0  0  0  0  0  0  0  0  0  0  0  0
  144.3310  131.5392  150.5684 C   0  0  0  0  0  0  0  0  0  0  0  0
  143.4062  131.8131  149.4932 O   0  0  0  0  0  0  0  0  0  0  0  0
  143.9672  133.1367  149.3491 C   0  0  0  0  0  0  0  0  0  0  0  0
  147.6157  138.2336  156.7187 H   0  0  0  0  0  0  0  0  0  0  0  0
  149.0555  140.0689  156.8942 H   0  0  0  0  0  0  0  0  0  0  0  0
  151.5368  137.7563  155.3205 H   0  0  0  0  0  0  0  0  0  0  0  0
  149.4522  136.4409  155.5305 H   0  0  0  0  0  0  0  0  0  0  0  0
  149.6906  137.1801  157.1110 H   0  0  0  0  0  0  0  0  0  0  0  0
  147.3252  141.1595  155.7304 H   0  0  0  0  0  0  0  0  0  0  0  0
  148.7680  141.6936  154.9165 H   0  0  0  0  0  0  0  0  0  0  0  0
  146.9497  141.0581  153.3171 H   0  0  0  0  0  0  0  0  0  0  0  0
  148.3768  140.0733  153.0782 H   0  0  0  0  0  0  0  0  0  0  0  0
  145.9205  139.2518  154.7215 H   0  0  0  0  0  0  0  0  0  0  0  0
  146.2995  138.6974  153.1044 H   0  0  0  0  0  0  0  0  0  0  0  0
  146.7578  134.0001  156.3062 H   0  0  0  0  0  0  0  0  0  0  0  0
  144.6407  136.3008  150.6764 H   0  0  0  0  0  0  0  0  0  0  0  0
  144.0682  133.0774  152.7189 H   0  0  0  0  0  0  0  0  0  0  0  0
  143.1606  134.1008  151.6495 H   0  0  0  0  0  0  0  0  0  0  0  0
  146.6654  133.1084  149.5840 H   0  0  0  0  0  0  0  0  0  0  0  0
  146.4772  134.3520  150.8042 H   0  0  0  0  0  0  0  0  0  0  0  0
  147.5460  131.9013  150.9830 H   0  0  0  0  0  0  0  0  0  0  0  0
  145.1155  130.8472  150.2599 H   0  0  0  0  0  0  0  0  0  0  0  0
  143.8293  131.1703  151.4638 H   0  0  0  0  0  0  0  0  0  0  0  0
  143.2014  133.9112  149.3574 H   0  0  0  0  0  0  0  0  0  0  0  0
  144.5836  133.2183  148.4528 H   0  0  0  0  0  0  0  0  0  0  0  0
  1  2  2  0  0  0  0
  2  6  1  0  0  0  0
  2  3  1  0  0  0  0
  3  4  1  0  0  0  0
  3 29  1  0  0  0  0
  4  5  1  0  0  0  0
  4 30  1  0  0  0  0
  4 31  1  0  0  0  0
  5 27  1  0  0  0  0
  5 10  1  0  0  0  0
  5  6  1  0  0  0  0
  6 28  1  0  0  0  0
  6  7  1  0  0  0  0
  7  8  1  0  0  0  0
  7 32  1  0  0  0  0
  7 33  1  0  0  0  0
  8  9  1  0  0  0  0
  8 34  1  0  0  0  0
  8 35  1  0  0  0  0
  9 10  1  0  0  0  0
  9 36  1  0  0  0  0
  9 37  1  0  0  0  0
 10 11  1  0  0  0  0
 11 16  1  0  0  0  0
 11 12  2  0  0  0  0
 12 13  1  0  0  0  0
 13 14  2  0  0  0  0
 13 38  1  0  0  0  0
 14 15  1  0  0  0  0
 15 19  1  0  0  0  0
 15 16  2  0  0  0  0
 16 17  1  0  0  0  0
 17 18  2  0  0  0  0
 18 19  1  0  0  0  0
 18 39  1  0  0  0  0
 19 20  1  0  0  0  0
 20 21  1  0  0  0  0
 20 40  1  0  0  0  0
 20 41  1  0  0  0  0
 21 26  1  0  0  0  0
 21 22  1  0  0  0  0
 21 24  1  0  0  0  0
 22 23  1  0  0  0  0
 22 42  1  0  0  0  0
 22 43  1  0  0  0  0
 23 44  1  0  0  0  0
 24 25  1  0  0  0  0
 24 45  1  0  0  0  0
 24 46  1  0  0  0  0
 25 26  1  0  0  0  0
 26 47  1  0  0  0  0
 26 48  1  0  0  0  0
M  END
> <s_m_source_file>
AV-unprocessed.smi

> <i_m_source_file_index>
209

> <i_lp_mmshare_version>
43012

> <i_f3d_flags>
0

> <s_epik_input>
W0NIMl0xW05IXUMoPU8pW0NAQEhdKFtDQEBIXTEyKVtDSDJdW0NIMl1bQ0gyXU4yYyhuW2NIXW4zKWMoYzM0KW5bY0hdbjRbQ0gyXUM1KFtDSDJdW09IXSlbQ0gyXU9bQ0gyXTU=

> <s_epik_cmdline>
J2VwaWtfcHl0aG9uJywgJy1waCcsICc3LjAnLCAnLXRuJywgJzgnLCAnLW1hJywgJzIwMCcsICctbWV0YWxfYmluZGluZycsICctaW1hZScsICc8aW5maWxlLm1hZT4nLCAnLW9tYWUnLCAnPG91dGZpbGUubWFlPic=

> <r_lp_tautomer_probability>
1

> <r_epik_Ionization_Penalty>
0.00113306

> <r_epik_Ionization_Penalty_Charging>
0

> <r_epik_Ionization_Penalty_Neutral>
0.00113306

> <r_epik_State_Penalty>
0.000624042

> <r_epik_Charging_Adjusted_Penalty>
0.000624042

> <i_epik_Tot_Q>
0

> <i_epik_Tot_abs_Q>
0

> <r_epik_Metal_State_Penalty>
-0

> <b_epik_Metal_Only>
0

> <s_lp_Force_Field>
OPLS_2005

> <r_lp_Energy>
50.5129

> <b_lp_Chiralities_Consistent>
1

> <s_lp_Variant>
AV-unprocessed.smi:209-4

> <Gold.Version>
5.8.1

> <Gold.Id.Protein>
6NUR|6NUR_protein|mol2

> <Gold.PLP.Fitness>
37.9458

> <Gold.PLP.PLP>
-28.7216

> <Gold.PLP.part.hbond>
-2.8319

> <Gold.PLP.part.metal>
0.0000

> <Gold.PLP.part.buried>
-4.2167

> <Gold.PLP.part.nonpolar>
-23.2288

> <Gold.PLP.part.repulsive>
1.0812

> <Gold.PLP.ligand.clash>
0.0000

> <Gold.PLP.ligand.torsion>
1.4981

> <Gold.PLP.Chemscore.Hbond>
2.9920

> <Gold.PLP.Chemscore.CHOScore>
0.8409

> <Gold.PLP.Chemscore.Metal>
0.0000

> <Gold.Chemscore.Hbonds>
donor molecule, donor type, donor heavy atom, donor atom, acceptor molecule, acceptor atom, score
      L1  H    23    44       P1 10747  1.00
      P1  H  7989  7998       L1     1  1.00
      P1  H 10785 10796       L1    25  1.00
      L1  C    18    39       P1 10171  0.89

> <Gold.PLP.Chemscore.Internal.Correction>
0.7218

> <Gold.Rescore>
     Score         DG    S(hbond)    S(metal)    S(lipo)     H(rot)  DE(clash)    DE(int)     intcor
     10.84     -15.58       2.78        0.00      65.07       2.66       0.04       4.70       ----

> <Gold.Chemscore.Fitness>
10.8407

> <Gold.Chemscore.DG>
-15.5758

> <Gold.Chemscore.ZeroCoef>
-5.4800

> <Gold.Chemscore.Hbond>
2.7836

> <Gold.Chemscore.Metal>
0.0000

> <Gold.Chemscore.Lipo>
65.0711

> <Gold.Chemscore.Internal_Hbond>
0.0000

> <Gold.Chemscore.DEClash>
0.0376

> <Gold.Chemscore.DEInternal>
4.6974

> <Gold.Chemscore.Rot>
2.6620

> <Gold.Chemscore.Internal.Correction>
   9.000000E+99

> <Gold.Chemscore.Hbonds>
donor molecule, donor type, donor heavy atom, donor atom, acceptor molecule, acceptor atom, score
      L1  H    23    44       P1 10747  1.00
      P1  H  7989  7998       L1     1  0.98
      P1  H 10785 10796       L1    25  0.34

> <Gold.Chemscore.Hbond.Weighted>
-9.2973

> <Gold.Chemscore.Metal.Weighted>
-0.0000

> <Gold.Chemscore.Lipo.Weighted>
-7.6133

> <Gold.Chemscore.Internal_Hbond.Weighted>
0.0000

> <Gold.Chemscore.DEClash.Weighted>
0.0376

> <Gold.Chemscore.DEInternal.Weighted>
4.6974

> <Gold.Chemscore.Rot.Weighted>
6.8148

> <Gold.Chemscore.Internal.Correction.Weighted>
   9.000000E+99

> <Gold.Protein.RotatedTorsions>
[ 6907 6896 6895 6894 ] final    0.76 input  -60.11 | X-H torsion
[ 7974 7965 7964 7962 ] final  -66.67 input  175.53 | X-H torsion
[ 8008 7997 7996 7995 ] final -176.05 input   59.86 | X-H torsion
[ 10167 10162 10161 10158 ] final   67.46 input  -65.29 | X-H torsion
[ 10718 10713 10712 10709 ] final  -23.54 input   66.30 | X-H torsion
[ 10763 10752 10751 10750 ] final  -85.60 input  -60.55 | X-H torsion
[ 11005 11000 10999 10996 ] final -117.48 input  -57.11 | X-H torsion

> <Gold.Protein.ActiveResidues>
 VAL166  LYS551  ARG553  GLY616  TRP617  ASP618  TYR619  PRO620  LYS621  CYS622 
 ASP623  PHE694  ASN695  SER759  ASP760  ASP761  ALA762  ILE779  LEU786  VAL792 
 PHE793  MET794  SER795  GLU796  ALA797  LYS798  CYS799  TRP800  GLU811  SER814 

> <Gold.Protein.RotatedAtoms>
  151.5817  135.1058  160.0018 H   0  0  0  0  0  0  0  0  0  0  0  0  # atno 6907 bound_to 6896
  152.4351  133.7341  159.6615 H   0  0  0  0  0  0  0  0  0  0  0  0  # atno 6908 bound_to 6896
  150.8247  133.8122  159.3146 H   0  0  0  0  0  0  0  0  0  0  0  0  # atno 6909 bound_to 6896
  145.7388  140.8963  143.0541 H   0  0  0  0  0  0  0  0  0  0  0  0  # atno 7974 bound_to 7965
  155.9901  140.1199  157.0646 H   0  0  0  0  0  0  0  0  0  0  0  0  # atno 8008 bound_to 7997
  154.4209  140.1127  156.5622 H   0  0  0  0  0  0  0  0  0  0  0  0  # atno 8009 bound_to 7997
  155.6354  140.3473  155.4699 H   0  0  0  0  0  0  0  0  0  0  0  0  # atno 8010 bound_to 7997
  140.0893  144.5002  150.7109 H   0  0  0  0  0  0  0  0  0  0  0  0  # atno 10167 bound_to 10162
  156.4896  130.4563  149.6763 H   0  0  0  0  0  0  0  0  0  0  0  0  # atno 10718 bound_to 10713
  154.6129  135.5479  153.7493 H   0  0  0  0  0  0  0  0  0  0  0  0  # atno 10763 bound_to 10752
  153.0203  135.6394  154.1551 H   0  0  0  0  0  0  0  0  0  0  0  0  # atno 10764 bound_to 10752
  154.1489  135.2904  155.3121 H   0  0  0  0  0  0  0  0  0  0  0  0  # atno 10765 bound_to 10752
  141.0352  133.9920  157.3082 H   0  0  0  0  0  0  0  0  0  0  0  0  # atno 11005 bound_to 11000
  144.6875  139.9432  143.7476 LP  0  0  0  0  0  0  0  0  0  0  0  0  # atno 17320 bound_to 7965
  146.0467  139.3472  143.0664 LP  0  0  0  0  0  0  0  0  0  0  0  0  # atno 17321 bound_to 7965
  140.7037  143.2452  151.4790 LP  0  0  0  0  0  0  0  0  0  0  0  0  # atno 17342 bound_to 10162
  139.5734  144.1876  152.1868 LP  0  0  0  0  0  0  0  0  0  0  0  0  # atno 17343 bound_to 10162
  156.3439  130.7397  151.2346 LP  0  0  0  0  0  0  0  0  0  0  0  0  # atno 17370 bound_to 10713
  157.7475  131.0396  150.4557 LP  0  0  0  0  0  0  0  0  0  0  0  0  # atno 17371 bound_to 10713
  139.9235  135.0201  156.8152 LP  0  0  0  0  0  0  0  0  0  0  0  0  # atno 17394 bound_to 11000
  140.6335  133.9884  155.7673 LP  0  0  0  0  0  0  0  0  0  0  0  0  # atno 17395 bound_to 11000

$$$$
