AV-unprocessed.smi:1691|AV-procd|sdf|6777|dock7
  -GOLD-   22720 7533D 1   1.00000     0.00000
 Structure written by MMmdl.
 43 44  0  0  0  0  0  0  0  0  1 V2000
  146.7574  139.9473  157.0487 C   0  0  0  0  0  0  0  0  0  0  0  0
  147.1167  138.4809  156.7369 C   0  0  0  0  0  0  0  0  0  0  0  0
  147.7162  137.7830  157.9698 C   0  0  0  0  0  0  0  0  0  0  0  0
  147.9511  138.2206  155.4422 C   0  0  1  0  0  0  0  0  0  0  0  0
  147.2162  138.6196  154.1306 C   0  0  0  0  0  0  0  0  0  0  0  0
  147.1254  137.5212  153.1736 N   0  0  0  0  0  0  0  0  0  0  0  0
  145.9900  136.9026  152.8204 C   0  0  0  0  0  0  0  0  0  0  0  0
  144.8851  137.1940  153.2792 O   0  0  0  0  0  0  0  0  0  0  0  0
  146.2204  135.9410  151.9115 N   0  0  0  0  0  0  0  0  0  0  0  0
  145.2667  135.0892  151.2990 C   0  0  0  0  0  0  0  0  0  0  0  0
  145.3697  133.6731  151.2345 C   0  0  0  0  0  0  0  0  0  0  0  0
  144.3336  133.1410  150.6020 N   0  0  0  0  0  0  0  0  0  0  0  0
  143.5702  134.2040  150.2619 N   0  0  0  0  0  0  0  0  0  0  0  0
  144.0987  135.4102  150.6659 C   0  0  0  0  0  0  0  0  0  0  0  0
  149.3622  138.6487  155.5130 N   0  0  0  0  0  0  0  0  0  0  0  0
  149.5798  140.0923  155.5983 C   0  0  0  0  0  0  0  0  0  0  0  0
  151.0714  140.4334  155.7614 C   0  0  0  0  0  0  0  0  0  0  0  0
  151.8162  139.8641  154.6896 O   0  0  0  0  0  0  0  0  0  0  0  0
  151.6664  138.4506  154.6080 C   0  0  0  0  0  0  0  0  0  0  0  0
  150.1792  138.1013  154.4315 C   0  0  0  0  0  0  0  0  0  0  0  0
  142.7004  134.0913  149.7607 H   0  0  0  0  0  0  0  0  0  0  0  0
  147.6058  140.5173  157.4201 H   0  0  0  0  0  0  0  0  0  0  0  0
  145.9971  139.9879  157.8291 H   0  0  0  0  0  0  0  0  0  0  0  0
  146.3468  140.4672  156.1844 H   0  0  0  0  0  0  0  0  0  0  0  0
  146.1586  137.9869  156.5711 H   0  0  0  0  0  0  0  0  0  0  0  0
  148.6592  138.2410  158.2705 H   0  0  0  0  0  0  0  0  0  0  0  0
  147.9059  136.7278  157.7713 H   0  0  0  0  0  0  0  0  0  0  0  0
  147.0375  137.8396  158.8211 H   0  0  0  0  0  0  0  0  0  0  0  0
  147.9943  137.1310  155.4096 H   0  0  0  0  0  0  0  0  0  0  0  0
  146.2016  138.9551  154.3430 H   0  0  0  0  0  0  0  0  0  0  0  0
  147.7097  139.4605  153.6433 H   0  0  0  0  0  0  0  0  0  0  0  0
  147.9880  137.2173  152.7462 H   0  0  0  0  0  0  0  0  0  0  0  0
  147.1786  135.8058  151.6243 H   0  0  0  0  0  0  0  0  0  0  0  0
  146.1457  133.0271  151.6179 H   0  0  0  0  0  0  0  0  0  0  0  0
  143.6075  136.3515  150.4694 H   0  0  0  0  0  0  0  0  0  0  0  0
  149.2029  140.5831  154.7007 H   0  0  0  0  0  0  0  0  0  0  0  0
  149.0413  140.5164  156.4392 H   0  0  0  0  0  0  0  0  0  0  0  0
  151.2151  141.5140  155.7606 H   0  0  0  0  0  0  0  0  0  0  0  0
  151.4501  140.0607  156.7143 H   0  0  0  0  0  0  0  0  0  0  0  0
  152.2461  138.0784  153.7633 H   0  0  0  0  0  0  0  0  0  0  0  0
  152.0699  137.9816  155.5068 H   0  0  0  0  0  0  0  0  0  0  0  0
  150.0698  137.0171  154.3926 H   0  0  0  0  0  0  0  0  0  0  0  0
  149.8420  138.4856  153.4690 H   0  0  0  0  0  0  0  0  0  0  0  0
  1  2  1  0  0  0  0
  1 22  1  0  0  0  0
  1 23  1  0  0  0  0
  1 24  1  0  0  0  0
  2  3  1  0  0  0  0
  2  4  1  0  0  0  0
  2 25  1  0  0  0  0
  3 26  1  0  0  0  0
  3 27  1  0  0  0  0
  3 28  1  0  0  0  0
  4  5  1  0  0  0  0
  4 15  1  0  0  0  0
  4 29  1  0  0  0  0
  5  6  1  0  0  0  0
  5 30  1  0  0  0  0
  5 31  1  0  0  0  0
  6  7  1  0  0  0  0
  6 32  1  0  0  0  0
  7  8  2  0  0  0  0
  7  9  1  0  0  0  0
  9 10  1  0  0  0  0
  9 33  1  0  0  0  0
 10 14  2  0  0  0  0
 10 11  1  0  0  0  0
 11 12  2  0  0  0  0
 11 34  1  0  0  0  0
 12 13  1  0  0  0  0
 13 21  1  0  0  0  0
 13 14  1  0  0  0  0
 14 35  1  0  0  0  0
 15 20  1  0  0  0  0
 15 16  1  0  0  0  0
 16 17  1  0  0  0  0
 16 36  1  0  0  0  0
 16 37  1  0  0  0  0
 17 18  1  0  0  0  0
 17 38  1  0  0  0  0
 17 39  1  0  0  0  0
 18 19  1  0  0  0  0
 19 20  1  0  0  0  0
 19 40  1  0  0  0  0
 19 41  1  0  0  0  0
 20 42  1  0  0  0  0
 20 43  1  0  0  0  0
M  END
> <s_m_source_file>
AV-unprocessed.smi

> <i_m_source_file_index>
1691

> <i_lp_mmshare_version>
43012

> <i_f3d_flags>
0

> <s_epik_input>
W0NIMl0xW0NIMl1PW0NIMl1bQ0gyXU4xW0NASF0oW0NIXShbQ0gzXSlbQ0gzXSlbQ0gyXVtOSF1DKD1PKVtOSF1jMltjSF1uW25IXVtjSF0y

> <s_epik_cmdline>
J2VwaWtfcHl0aG9uJywgJy1waCcsICc3LjAnLCAnLXRuJywgJzgnLCAnLW1hJywgJzIwMCcsICctbWV0YWxfYmluZGluZycsICctaW1hZScsICc8aW5maWxlLm1hZT4nLCAnLW9tYWUnLCAnPG91dGZpbGUubWFlPic=

> <r_lp_tautomer_probability>
0.5

> <r_epik_Ionization_Penalty>
0.462189

> <r_epik_Ionization_Penalty_Charging>
0

> <r_epik_Ionization_Penalty_Neutral>
0.462189

> <r_epik_State_Penalty>
0.465733

> <r_epik_Charging_Adjusted_Penalty>
0.465733

> <i_epik_Tot_Q>
0

> <i_epik_Tot_abs_Q>
0

> <r_epik_Metal_State_Penalty>
0.465732

> <b_epik_Metal_Only>
0

> <s_lp_Force_Field>
OPLS_2005

> <r_lp_Energy>
41.1245

> <b_lp_Chiralities_Consistent>
1

> <s_lp_Variant>
AV-unprocessed.smi:1691-4

> <Gold.Version>
5.8.1

> <Gold.Id.Protein>
6NUR|6NUR_protein|mol2

> <Gold.PLP.Fitness>
37.6517

> <Gold.PLP.PLP>
-24.8908

> <Gold.PLP.part.hbond>
-3.7886

> <Gold.PLP.part.metal>
0.0000

> <Gold.PLP.part.buried>
-4.7034

> <Gold.PLP.part.nonpolar>
-17.3116

> <Gold.PLP.part.repulsive>
0.5340

> <Gold.PLP.ligand.clash>
0.0000

> <Gold.PLP.ligand.torsion>
1.2962

> <Gold.PLP.Chemscore.Hbond>
3.9840

> <Gold.PLP.Chemscore.CHOScore>
1.0000

> <Gold.PLP.Chemscore.Metal>
0.0000

> <Gold.Chemscore.Hbonds>
donor molecule, donor type, donor heavy atom, donor atom, acceptor molecule, acceptor atom, score
      L1  H     6    32       P1  7948  1.00
      L1  H     9    33       P1  7948  0.99
      L1  H    13    21       P1 10186  1.00
      P1  H  7989  7998       L1    18  0.99
      L1  C    14    35       P1 10171  1.00

> <Gold.PLP.Chemscore.Internal.Correction>
0.4014

> <Gold.Rescore>
     Score         DG    S(hbond)    S(metal)    S(lipo)     H(rot)  DE(clash)    DE(int)     intcor
     17.17     -18.65       3.69        0.00      46.39       1.79       0.05       1.43       ----

> <Gold.Chemscore.Fitness>
17.1704

> <Gold.Chemscore.DG>
-18.6477

> <Gold.Chemscore.ZeroCoef>
-5.4800

> <Gold.Chemscore.Hbond>
3.6887

> <Gold.Chemscore.Metal>
0.0000

> <Gold.Chemscore.Lipo>
46.3924

> <Gold.Chemscore.Internal_Hbond>
0.0000

> <Gold.Chemscore.DEClash>
0.0456

> <Gold.Chemscore.DEInternal>
1.4317

> <Gold.Chemscore.Rot>
1.7893

> <Gold.Chemscore.Internal.Correction>
   9.000000E+99

> <Gold.Chemscore.Hbonds>
donor molecule, donor type, donor heavy atom, donor atom, acceptor molecule, acceptor atom, score
      L1  H     6    32       P1  7948  0.98
      L1  H     9    33       P1  7948  0.94
      L1  H    13    21       P1 10186  0.95
      P1  H  7989  7998       L1    18  0.50

> <Gold.Chemscore.Hbond.Weighted>
-12.3203

> <Gold.Chemscore.Metal.Weighted>
-0.0000

> <Gold.Chemscore.Lipo.Weighted>
-5.4279

> <Gold.Chemscore.Internal_Hbond.Weighted>
0.0000

> <Gold.Chemscore.DEClash.Weighted>
0.0456

> <Gold.Chemscore.DEInternal.Weighted>
1.4317

> <Gold.Chemscore.Rot.Weighted>
4.5805

> <Gold.Chemscore.Internal.Correction.Weighted>
   9.000000E+99

> <Gold.Protein.RotatedTorsions>
[ 6907 6896 6895 6894 ] final  155.08 input  -60.11 | X-H torsion
[ 7974 7965 7964 7962 ] final  109.64 input  175.53 | X-H torsion
[ 8008 7997 7996 7995 ] final   -6.86 input   59.86 | X-H torsion
[ 10167 10162 10161 10158 ] final  137.43 input  -65.29 | X-H torsion
[ 10718 10713 10712 10709 ] final  -68.90 input   66.30 | X-H torsion
[ 10763 10752 10751 10750 ] final -151.37 input  -60.55 | X-H torsion
[ 11005 11000 10999 10996 ] final   84.82 input  -57.11 | X-H torsion

> <Gold.Protein.ActiveResidues>
 VAL166  LYS551  ARG553  GLY616  TRP617  ASP618  TYR619  PRO620  LYS621  CYS622 
 ASP623  PHE694  ASN695  SER759  ASP760  ASP761  ALA762  ILE779  LEU786  VAL792 
 PHE793  MET794  SER795  GLU796  ALA797  LYS798  CYS799  TRP800  GLU811  SER814 

> <Gold.Protein.RotatedAtoms>
  152.0493  133.4012  159.4370 H   0  0  0  0  0  0  0  0  0  0  0  0  # atno 6907 bound_to 6896
  150.6871  134.3326  159.4843 H   0  0  0  0  0  0  0  0  0  0  0  0  # atno 6908 bound_to 6896
  152.1134  134.9258  160.0616 H   0  0  0  0  0  0  0  0  0  0  0  0  # atno 6909 bound_to 6896
  145.2652  139.2687  143.3995 H   0  0  0  0  0  0  0  0  0  0  0  0  # atno 7974 bound_to 7965
  154.5895  140.2422  155.7940 H   0  0  0  0  0  0  0  0  0  0  0  0  # atno 8008 bound_to 7997
  156.2237  140.2989  155.9969 H   0  0  0  0  0  0  0  0  0  0  0  0  # atno 8009 bound_to 7997
  155.2398  140.0406  157.2964 H   0  0  0  0  0  0  0  0  0  0  0  0  # atno 8010 bound_to 7997
  139.5145  144.6410  151.5568 H   0  0  0  0  0  0  0  0  0  0  0  0  # atno 10167 bound_to 10162
  156.0482  130.4303  150.2069 H   0  0  0  0  0  0  0  0  0  0  0  0  # atno 10718 bound_to 10713
  154.8062  135.3261  154.7425 H   0  0  0  0  0  0  0  0  0  0  0  0  # atno 10763 bound_to 10752
  153.8083  135.6898  153.4849 H   0  0  0  0  0  0  0  0  0  0  0  0  # atno 10764 bound_to 10752
  153.1809  135.4587  154.9971 H   0  0  0  0  0  0  0  0  0  0  0  0  # atno 10765 bound_to 10752
  139.8989  134.8243  156.2498 H   0  0  0  0  0  0  0  0  0  0  0  0  # atno 11005 bound_to 11000
  146.3263  140.3080  142.8625 LP  0  0  0  0  0  0  0  0  0  0  0  0  # atno 17320 bound_to 7965
  144.9383  140.8050  143.5646 LP  0  0  0  0  0  0  0  0  0  0  0  0  # atno 17321 bound_to 7965
  140.6177  143.9318  150.6501 LP  0  0  0  0  0  0  0  0  0  0  0  0  # atno 17342 bound_to 10162
  140.2581  143.3544  152.1347 LP  0  0  0  0  0  0  0  0  0  0  0  0  # atno 17343 bound_to 10162
  157.0156  130.9964  151.3354 LP  0  0  0  0  0  0  0  0  0  0  0  0  # atno 17370 bound_to 10713
  157.5380  130.8101  149.7995 LP  0  0  0  0  0  0  0  0  0  0  0  0  # atno 17371 bound_to 10713
  141.0231  133.7030  156.1302 LP  0  0  0  0  0  0  0  0  0  0  0  0  # atno 17394 bound_to 11000
  140.7205  134.4364  157.5575 LP  0  0  0  0  0  0  0  0  0  0  0  0  # atno 17395 bound_to 11000

$$$$
