AV-unprocessed.smi:1447|AV-procd|sdf|5893|dock5
  -GOLD-   22720 5573D 1   1.00000     0.00000
 Structure written by MMmdl.
 47 49  0  0  0  0  0  0  0  0  1 V2000
  152.6122  140.4289  159.2502 C   0  0  0  0  0  0  0  0  0  0  0  0
  152.4257  139.1949  158.5806 O   0  0  0  0  0  0  0  0  0  0  0  0
  153.6514  138.5410  158.2904 C   0  0  0  0  0  0  0  0  0  0  0  0
  153.3712  137.2041  157.5709 C   0  0  0  0  0  0  0  0  0  0  0  0
  152.4128  137.2639  156.4495 N   0  0  0  0  0  0  0  0  0  0  0  0
  151.3829  136.3351  156.4713 N   0  0  0  0  0  0  0  0  0  0  0  0
  150.5058  136.3032  155.5220 C   0  0  0  0  0  0  0  0  0  0  0  0
  149.4048  135.3012  155.5108 C   0  0  0  0  0  0  0  0  0  0  0  0
  149.0224  134.7409  156.5395 O   0  0  0  0  0  0  0  0  0  0  0  0
  148.8639  135.0611  154.3024 N   0  0  0  0  0  0  0  0  0  0  0  0
  147.7629  134.1437  154.0310 C   0  0  0  0  0  0  0  0  0  0  0  0
  148.1727  133.0770  153.0002 C   0  0  0  0  0  0  0  0  0  0  0  0
  146.9685  132.2068  152.5999 C   0  0  0  0  0  0  0  0  0  0  0  0
  145.8988  133.0412  152.0517 N   0  0  0  0  0  0  0  0  0  0  0  0
  144.7972  132.1833  151.6466 C   0  0  0  0  0  0  0  0  0  0  0  0
  144.2613  132.3495  150.2428 C   0  0  0  0  0  0  0  0  0  0  0  0
  143.4507  132.8326  151.4209 C   0  0  0  0  0  0  0  0  0  0  0  0
  145.4222  133.9731  153.0741 C   0  0  0  0  0  0  0  0  0  0  0  0
  146.5547  134.9268  153.4935 C   0  0  0  0  0  0  0  0  0  0  0  0
  150.5679  137.2493  154.4221 C   0  0  0  0  0  0  0  0  0  0  0  0
  151.5647  138.1616  154.4190 C   0  0  0  0  0  0  0  0  0  0  0  0
  152.5716  138.2158  155.4810 C   0  0  0  0  0  0  0  0  0  0  0  0
  153.4800  139.0460  155.5027 O   0  0  0  0  0  0  0  0  0  0  0  0
  151.6429  140.8796  159.4634 H   0  0  0  0  0  0  0  0  0  0  0  0
  153.1788  141.1285  158.6337 H   0  0  0  0  0  0  0  0  0  0  0  0
  153.1357  140.2901  160.1970 H   0  0  0  0  0  0  0  0  0  0  0  0
  154.3065  139.1769  157.6920 H   0  0  0  0  0  0  0  0  0  0  0  0
  154.1780  138.3432  159.2252 H   0  0  0  0  0  0  0  0  0  0  0  0
  154.3140  136.8123  157.1860 H   0  0  0  0  0  0  0  0  0  0  0  0
  153.0188  136.4847  158.3123 H   0  0  0  0  0  0  0  0  0  0  0  0
  149.2415  135.5640  153.5120 H   0  0  0  0  0  0  0  0  0  0  0  0
  147.4683  133.6503  154.9593 H   0  0  0  0  0  0  0  0  0  0  0  0
  148.5866  133.5546  152.1107 H   0  0  0  0  0  0  0  0  0  0  0  0
  148.9619  132.4435  153.4067 H   0  0  0  0  0  0  0  0  0  0  0  0
  147.2809  131.4773  151.8517 H   0  0  0  0  0  0  0  0  0  0  0  0
  146.6047  131.6451  153.4620 H   0  0  0  0  0  0  0  0  0  0  0  0
  144.7605  131.1677  152.0380 H   0  0  0  0  0  0  0  0  0  0  0  0
  144.7193  133.1051  149.6072 H   0  0  0  0  0  0  0  0  0  0  0  0
  143.9167  131.4547  149.7284 H   0  0  0  0  0  0  0  0  0  0  0  0
  142.5668  132.2594  151.6931 H   0  0  0  0  0  0  0  0  0  0  0  0
  143.3713  133.9083  151.5664 H   0  0  0  0  0  0  0  0  0  0  0  0
  144.5880  134.5531  152.6776 H   0  0  0  0  0  0  0  0  0  0  0  0
  145.0478  133.4249  153.9404 H   0  0  0  0  0  0  0  0  0  0  0  0
  146.1905  135.6202  154.2522 H   0  0  0  0  0  0  0  0  0  0  0  0
  146.8516  135.5338  152.6364 H   0  0  0  0  0  0  0  0  0  0  0  0
  149.8390  137.2313  153.6249 H   0  0  0  0  0  0  0  0  0  0  0  0
  151.6231  138.8728  153.6083 H   0  0  0  0  0  0  0  0  0  0  0  0
  1  2  1  0  0  0  0
  1 24  1  0  0  0  0
  1 25  1  0  0  0  0
  1 26  1  0  0  0  0
  2  3  1  0  0  0  0
  3  4  1  0  0  0  0
  3 27  1  0  0  0  0
  3 28  1  0  0  0  0
  4  5  1  0  0  0  0
  4 29  1  0  0  0  0
  4 30  1  0  0  0  0
  5 22  1  0  0  0  0
  5  6  1  0  0  0  0
  6  7  2  0  0  0  0
  7  8  1  0  0  0  0
  7 20  1  0  0  0  0
  8  9  2  0  0  0  0
  8 10  1  0  0  0  0
 10 11  1  0  0  0  0
 10 31  1  0  0  0  0
 11 19  1  0  0  0  0
 11 12  1  0  0  0  0
 11 32  1  0  0  0  0
 12 13  1  0  0  0  0
 12 33  1  0  0  0  0
 12 34  1  0  0  0  0
 13 14  1  0  0  0  0
 13 35  1  0  0  0  0
 13 36  1  0  0  0  0
 14 15  1  0  0  0  0
 14 18  1  0  0  0  0
 15 17  1  0  0  0  0
 15 16  1  0  0  0  0
 15 37  1  0  0  0  0
 16 17  1  0  0  0  0
 16 38  1  0  0  0  0
 16 39  1  0  0  0  0
 17 40  1  0  0  0  0
 17 41  1  0  0  0  0
 18 19  1  0  0  0  0
 18 42  1  0  0  0  0
 18 43  1  0  0  0  0
 19 44  1  0  0  0  0
 19 45  1  0  0  0  0
 20 21  2  0  0  0  0
 20 46  1  0  0  0  0
 21 22  1  0  0  0  0
 21 47  1  0  0  0  0
 22 23  2  0  0  0  0
M  END
> <s_m_source_file>
AV-unprocessed.smi

> <i_m_source_file_index>
1447

> <i_lp_mmshare_version>
43012

> <i_f3d_flags>
0

> <s_epik_input>
W0NIM11PW0NIMl1bQ0gyXW4xbmMoW2NIXVtjSF1jMT1PKUMoPU8pW05IXVtDSF0yW0NIMl1bQ0gyXU4oW0NIMl1bQ0gyXTIpW0NIXTNbQ0gyXVtDSDJdMw==

> <s_epik_cmdline>
J2VwaWtfcHl0aG9uJywgJy1waCcsICc3LjAnLCAnLXRuJywgJzgnLCAnLW1hJywgJzIwMCcsICctbWV0YWxfYmluZGluZycsICctaW1hZScsICc8aW5maWxlLm1hZT4nLCAnLW9tYWUnLCAnPG91dGZpbGUubWFlPic=

> <r_lp_tautomer_probability>
1

> <r_epik_Ionization_Penalty>
0.826878

> <r_epik_Ionization_Penalty_Charging>
6.86753e-09

> <r_epik_Ionization_Penalty_Neutral>
0.826878

> <r_epik_State_Penalty>
0.8604

> <r_epik_Charging_Adjusted_Penalty>
0.8604

> <i_epik_Tot_Q>
0

> <i_epik_Tot_abs_Q>
0

> <r_epik_Metal_State_Penalty>
0.8604

> <b_epik_Metal_Only>
0

> <s_lp_Force_Field>
OPLS_2005

> <r_lp_Energy>
44.3131

> <b_lp_Chiralities_Consistent>
1

> <s_lp_Variant>
AV-unprocessed.smi:1447-3

> <Gold.Version>
5.8.1

> <Gold.Id.Protein>
6NUR|6NUR_protein|mol2

> <Gold.PLP.Fitness>
37.9987

> <Gold.PLP.PLP>
-33.4649

> <Gold.PLP.part.hbond>
-1.9725

> <Gold.PLP.part.metal>
0.0000

> <Gold.PLP.part.buried>
-3.2848

> <Gold.PLP.part.nonpolar>
-28.0435

> <Gold.PLP.part.repulsive>
0.1231

> <Gold.PLP.ligand.clash>
0.0000

> <Gold.PLP.ligand.torsion>
1.2068

> <Gold.PLP.Chemscore.Hbond>
1.9120

> <Gold.PLP.Chemscore.CHOScore>
0.0000

> <Gold.PLP.Chemscore.Metal>
0.0000

> <Gold.Chemscore.Hbonds>
donor molecule, donor type, donor heavy atom, donor atom, acceptor molecule, acceptor atom, score
      L1  H    10    31       P1  7948  0.96
      P1  H  7997  8010       L1    23  0.91

> <Gold.PLP.Chemscore.Internal.Correction>
1.2113

> <Gold.Rescore>
     Score         DG    S(hbond)    S(metal)    S(lipo)     H(rot)  DE(clash)    DE(int)     intcor
     14.36     -17.05       1.94        0.00      81.07       1.71       0.02       2.66       ----

> <Gold.Chemscore.Fitness>
14.3641

> <Gold.Chemscore.DG>
-17.0493

> <Gold.Chemscore.ZeroCoef>
-5.4800

> <Gold.Chemscore.Hbond>
1.9380

> <Gold.Chemscore.Metal>
0.0000

> <Gold.Chemscore.Lipo>
81.0700

> <Gold.Chemscore.Internal_Hbond>
0.0000

> <Gold.Chemscore.DEClash>
0.0237

> <Gold.Chemscore.DEInternal>
2.6615

> <Gold.Chemscore.Rot>
1.7143

> <Gold.Chemscore.Internal.Correction>
   9.000000E+99

> <Gold.Chemscore.Hbonds>
donor molecule, donor type, donor heavy atom, donor atom, acceptor molecule, acceptor atom, score
      L1  H    10    31       P1  7948  0.41
      P1  H  7997  8010       L1    23  0.87

> <Gold.Chemscore.Hbond.Weighted>
-6.4728

> <Gold.Chemscore.Metal.Weighted>
-0.0000

> <Gold.Chemscore.Lipo.Weighted>
-9.4852

> <Gold.Chemscore.Internal_Hbond.Weighted>
0.0000

> <Gold.Chemscore.DEClash.Weighted>
0.0237

> <Gold.Chemscore.DEInternal.Weighted>
2.6615

> <Gold.Chemscore.Rot.Weighted>
4.3887

> <Gold.Chemscore.Internal.Correction.Weighted>
   9.000000E+99

> <Gold.Protein.RotatedTorsions>
[ 6907 6896 6895 6894 ] final    0.74 input  -60.11 | X-H torsion
[ 7974 7965 7964 7962 ] final   24.86 input  175.53 | X-H torsion
[ 8008 7997 7996 7995 ] final   80.52 input   59.86 | X-H torsion
[ 10167 10162 10161 10158 ] final    6.11 input  -65.29 | X-H torsion
[ 10718 10713 10712 10709 ] final -121.33 input   66.30 | X-H torsion
[ 10763 10752 10751 10750 ] final -176.27 input  -60.55 | X-H torsion
[ 11005 11000 10999 10996 ] final  149.29 input  -57.11 | X-H torsion

> <Gold.Protein.ActiveResidues>
 VAL166  LYS551  ARG553  GLY616  TRP617  ASP618  TYR619  PRO620  LYS621  CYS622 
 ASP623  PHE694  ASN695  SER759  ASP760  ASP761  ALA762  ILE779  LEU786  VAL792 
 PHE793  MET794  SER795  GLU796  ALA797  LYS798  CYS799  TRP800  GLU811  SER814 

> <Gold.Protein.RotatedAtoms>
  151.5812  135.1058  160.0017 H   0  0  0  0  0  0  0  0  0  0  0  0  # atno 6907 bound_to 6896
  152.4353  133.7345  159.6617 H   0  0  0  0  0  0  0  0  0  0  0  0  # atno 6908 bound_to 6896
  150.8250  133.8118  159.3146 H   0  0  0  0  0  0  0  0  0  0  0  0  # atno 6909 bound_to 6896
  146.1917  139.7546  142.8827 H   0  0  0  0  0  0  0  0  0  0  0  0  # atno 7974 bound_to 7965
  155.8846  140.3442  155.5912 H   0  0  0  0  0  0  0  0  0  0  0  0  # atno 8008 bound_to 7997
  155.7680  140.0841  157.2141 H   0  0  0  0  0  0  0  0  0  0  0  0  # atno 8009 bound_to 7997
  154.4027  140.1523  156.2896 H   0  0  0  0  0  0  0  0  0  0  0  0  # atno 8010 bound_to 7997
  140.6446  143.7693  150.7479 H   0  0  0  0  0  0  0  0  0  0  0  0  # atno 10167 bound_to 10162
  156.1328  130.6408  150.9649 H   0  0  0  0  0  0  0  0  0  0  0  0  # atno 10718 bound_to 10713
  154.5743  135.2830  155.0796 H   0  0  0  0  0  0  0  0  0  0  0  0  # atno 10763 bound_to 10752
  154.2156  135.6400  153.5132 H   0  0  0  0  0  0  0  0  0  0  0  0  # atno 10764 bound_to 10752
  153.0067  135.5502  154.6377 H   0  0  0  0  0  0  0  0  0  0  0  0  # atno 10765 bound_to 10752
  140.1032  134.8970  157.1827 H   0  0  0  0  0  0  0  0  0  0  0  0  # atno 11005 bound_to 11000
  145.3772  141.0352  143.3198 LP  0  0  0  0  0  0  0  0  0  0  0  0  # atno 17320 bound_to 7965
  144.8500  139.5337  143.6861 LP  0  0  0  0  0  0  0  0  0  0  0  0  # atno 17321 bound_to 7965
  140.1332  143.4507  152.2241 LP  0  0  0  0  0  0  0  0  0  0  0  0  # atno 17342 bound_to 10162
  139.5656  144.7433  151.4033 LP  0  0  0  0  0  0  0  0  0  0  0  0  # atno 17343 bound_to 10162
  157.6504  131.0898  150.8062 LP  0  0  0  0  0  0  0  0  0  0  0  0  # atno 17370 bound_to 10713
  156.8145  130.4963  149.5351 LP  0  0  0  0  0  0  0  0  0  0  0  0  # atno 17371 bound_to 10713
  140.3191  134.2936  155.7250 LP  0  0  0  0  0  0  0  0  0  0  0  0  # atno 17394 bound_to 11000
  141.2111  133.7698  156.9886 LP  0  0  0  0  0  0  0  0  0  0  0  0  # atno 17395 bound_to 11000

$$$$
