AV-unprocessed.smi:792|AV-procd|sdf|3750|dock6
  -GOLD-   22720 1183D 1   1.00000     0.00000
 Structure written by MMmdl.
 46 47  0  0  0  0  0  0  0  0  1 V2000
  145.1207  143.7501  155.2047 C   0  0  0  0  0  0  0  0  0  0  0  0
  145.8547  142.4817  154.8227 C   0  0  0  0  0  0  0  0  0  0  0  0
  146.9331  142.5149  153.9135 C   0  0  0  0  0  0  0  0  0  0  0  0
  147.5787  141.3047  153.5946 C   0  0  0  0  0  0  0  0  0  0  0  0
  147.1241  140.1128  154.1949 C   0  0  0  0  0  0  0  0  0  0  0  0
  147.7832  138.7836  153.8847 C   0  0  0  0  0  0  0  0  0  0  0  0
  149.2864  138.7980  154.1901 C   0  0  0  0  0  0  0  0  0  0  0  0
  149.5358  139.3870  155.4978 N   0  0  0  0  0  0  0  0  0  0  0  0
  150.7229  139.8598  155.8976 C   0  0  0  0  0  0  0  0  0  0  0  0
  151.7339  139.8664  155.1950 O   0  0  0  0  0  0  0  0  0  0  0  0
  150.6773  140.3222  157.1555 N   0  0  0  0  0  0  0  0  0  0  0  0
  151.8036  140.9171  157.8732 C   0  0  0  0  0  0  0  0  0  0  0  0
  151.6041  142.4098  158.1996 C   0  0  0  0  0  0  0  0  0  0  0  0
  150.6885  143.0249  157.6491 O   0  0  0  0  0  0  0  0  0  0  0  0
  152.4383  143.0030  159.0886 N   0  0  0  0  0  0  0  0  0  0  0  0
  153.4859  142.2655  159.8083 C   0  0  0  0  0  0  0  0  0  0  0  0
  153.1073  142.1885  161.2989 C   0  0  0  0  0  0  0  0  0  0  0  0
  152.8782  143.5949  161.8839 C   0  0  0  0  0  0  0  0  0  0  0  0
  151.9147  144.4224  161.0124 C   0  0  0  0  0  0  0  0  0  0  0  0
  152.3554  144.4002  159.5376 C   0  0  0  0  0  0  0  0  0  0  0  0
  146.0359  140.1884  155.0897 C   0  0  0  0  0  0  0  0  0  0  0  0
  145.4108  141.3441  155.4016 N   0  0  0  0  0  0  0  0  0  0  0  0
  145.5404  144.6185  154.6962 H   0  0  0  0  0  0  0  0  0  0  0  0
  145.1898  143.9197  156.2796 H   0  0  0  0  0  0  0  0  0  0  0  0
  144.0671  143.6745  154.9347 H   0  0  0  0  0  0  0  0  0  0  0  0
  147.2597  143.4436  153.4693 H   0  0  0  0  0  0  0  0  0  0  0  0
  148.4063  141.2937  152.9008 H   0  0  0  0  0  0  0  0  0  0  0  0
  147.2905  137.9995  154.4613 H   0  0  0  0  0  0  0  0  0  0  0  0
  147.6169  138.5439  152.8334 H   0  0  0  0  0  0  0  0  0  0  0  0
  149.6825  137.7811  154.1710 H   0  0  0  0  0  0  0  0  0  0  0  0
  149.8206  139.3674  153.4280 H   0  0  0  0  0  0  0  0  0  0  0  0
  148.7580  139.4304  156.1399 H   0  0  0  0  0  0  0  0  0  0  0  0
  149.7974  140.2767  157.6483 H   0  0  0  0  0  0  0  0  0  0  0  0
  151.9307  140.3662  158.8053 H   0  0  0  0  0  0  0  0  0  0  0  0
  152.7172  140.7819  157.2917 H   0  0  0  0  0  0  0  0  0  0  0  0
  153.6443  141.2600  159.4168 H   0  0  0  0  0  0  0  0  0  0  0  0
  154.4390  142.7829  159.6894 H   0  0  0  0  0  0  0  0  0  0  0  0
  152.2005  141.5928  161.4126 H   0  0  0  0  0  0  0  0  0  0  0  0
  153.8890  141.6745  161.8590 H   0  0  0  0  0  0  0  0  0  0  0  0
  152.4993  143.5232  162.9037 H   0  0  0  0  0  0  0  0  0  0  0  0
  153.8355  144.1139  161.9462 H   0  0  0  0  0  0  0  0  0  0  0  0
  150.9042  144.0204  161.0975 H   0  0  0  0  0  0  0  0  0  0  0  0
  151.8717  145.4490  161.3771 H   0  0  0  0  0  0  0  0  0  0  0  0
  153.3371  144.8654  159.4376 H   0  0  0  0  0  0  0  0  0  0  0  0
  151.6857  145.0167  158.9405 H   0  0  0  0  0  0  0  0  0  0  0  0
  145.6549  139.2981  155.5679 H   0  0  0  0  0  0  0  0  0  0  0  0
  1  2  1  0  0  0  0
  1 23  1  0  0  0  0
  1 24  1  0  0  0  0
  1 25  1  0  0  0  0
  2 22  1  0  0  0  0
  2  3  2  0  0  0  0
  3  4  1  0  0  0  0
  3 26  1  0  0  0  0
  4  5  2  0  0  0  0
  4 27  1  0  0  0  0
  5  6  1  0  0  0  0
  5 21  1  0  0  0  0
  6  7  1  0  0  0  0
  6 28  1  0  0  0  0
  6 29  1  0  0  0  0
  7  8  1  0  0  0  0
  7 30  1  0  0  0  0
  7 31  1  0  0  0  0
  8  9  1  0  0  0  0
  8 32  1  0  0  0  0
  9 10  2  0  0  0  0
  9 11  1  0  0  0  0
 11 12  1  0  0  0  0
 11 33  1  0  0  0  0
 12 13  1  0  0  0  0
 12 34  1  0  0  0  0
 12 35  1  0  0  0  0
 13 14  2  0  0  0  0
 13 15  1  0  0  0  0
 15 20  1  0  0  0  0
 15 16  1  0  0  0  0
 16 17  1  0  0  0  0
 16 36  1  0  0  0  0
 16 37  1  0  0  0  0
 17 18  1  0  0  0  0
 17 38  1  0  0  0  0
 17 39  1  0  0  0  0
 18 19  1  0  0  0  0
 18 40  1  0  0  0  0
 18 41  1  0  0  0  0
 19 20  1  0  0  0  0
 19 42  1  0  0  0  0
 19 43  1  0  0  0  0
 20 44  1  0  0  0  0
 20 45  1  0  0  0  0
 21 22  2  0  0  0  0
 21 46  1  0  0  0  0
M  END
> <s_m_source_file>
AV-unprocessed.smi

> <i_m_source_file_index>
792

> <i_lp_mmshare_version>
43012

> <i_f3d_flags>
0

> <s_epik_input>
W0NIM11jMVtjSF1bY0hdYyhbY0hdbjEpW0NIMl1bQ0gyXVtOSF1DKD1PKVtOSF1bQ0gyXUMoPU8pTjJbQ0gyXVtDSDJdW0NIMl1bQ0gyXVtDSDJdMg==

> <s_epik_cmdline>
J2VwaWtfcHl0aG9uJywgJy1waCcsICc3LjAnLCAnLXRuJywgJzgnLCAnLW1hJywgJzIwMCcsICctbWV0YWxfYmluZGluZycsICctaW1hZScsICc8aW5maWxlLm1hZT4nLCAnLW9tYWUnLCAnPG91dGZpbGUubWFlPic=

> <r_epik_Ionization_Penalty>
0.0629971

> <r_epik_Ionization_Penalty_Charging>
0

> <r_epik_Ionization_Penalty_Neutral>
0.0629971

> <r_epik_State_Penalty>
0.0547377

> <r_epik_Charging_Adjusted_Penalty>
0.0547377

> <i_epik_Tot_Q>
0

> <i_epik_Tot_abs_Q>
0

> <r_epik_Metal_State_Penalty>
0.0494478

> <b_epik_Metal_Only>
0

> <s_lp_Force_Field>
OPLS_2005

> <r_lp_Energy>
16.0081

> <b_lp_Chiralities_Consistent>
1

> <s_lp_Variant>
AV-unprocessed.smi:792-1

> <Gold.Version>
5.8.1

> <Gold.Id.Protein>
6NUR|6NUR_protein|mol2

> <Gold.PLP.Fitness>
49.3564

> <Gold.PLP.PLP>
-47.2101

> <Gold.PLP.part.hbond>
-1.0000

> <Gold.PLP.part.metal>
0.0000

> <Gold.PLP.part.buried>
-6.6363

> <Gold.PLP.part.nonpolar>
-40.4801

> <Gold.PLP.part.repulsive>
0.3616

> <Gold.PLP.ligand.clash>
0.0000

> <Gold.PLP.ligand.torsion>
0.3533

> <Gold.PLP.Chemscore.Hbond>
0.9440

> <Gold.PLP.Chemscore.CHOScore>
0.0000

> <Gold.PLP.Chemscore.Metal>
0.0000

> <Gold.Chemscore.Hbonds>
donor molecule, donor type, donor heavy atom, donor atom, acceptor molecule, acceptor atom, score
      P1  H  7989  7998       L1    10  0.99

> <Gold.PLP.Chemscore.Internal.Correction>
0.0210

> <Gold.Rescore>
     Score         DG    S(hbond)    S(metal)    S(lipo)     H(rot)  DE(clash)    DE(int)     intcor
     16.27     -16.76       0.98        0.00     107.21       1.78       0.21       0.28       ----

> <Gold.Chemscore.Fitness>
16.2740

> <Gold.Chemscore.DG>
-16.7601

> <Gold.Chemscore.ZeroCoef>
-5.4800

> <Gold.Chemscore.Hbond>
0.9824

> <Gold.Chemscore.Metal>
0.0000

> <Gold.Chemscore.Lipo>
107.2058

> <Gold.Chemscore.Internal_Hbond>
0.0000

> <Gold.Chemscore.DEClash>
0.2098

> <Gold.Chemscore.DEInternal>
0.2763

> <Gold.Chemscore.Rot>
1.7751

> <Gold.Chemscore.Internal.Correction>
   9.000000E+99

> <Gold.Chemscore.Hbonds>
donor molecule, donor type, donor heavy atom, donor atom, acceptor molecule, acceptor atom, score
      P1  H  7989  7998       L1    10  0.89

> <Gold.Chemscore.Hbond.Weighted>
-3.2811

> <Gold.Chemscore.Metal.Weighted>
-0.0000

> <Gold.Chemscore.Lipo.Weighted>
-12.5431

> <Gold.Chemscore.Internal_Hbond.Weighted>
0.0000

> <Gold.Chemscore.DEClash.Weighted>
0.2098

> <Gold.Chemscore.DEInternal.Weighted>
0.2763

> <Gold.Chemscore.Rot.Weighted>
4.5441

> <Gold.Chemscore.Internal.Correction.Weighted>
   9.000000E+99

> <Gold.Protein.RotatedTorsions>
[ 6907 6896 6895 6894 ] final  142.32 input  -60.11 | X-H torsion
[ 7974 7965 7964 7962 ] final    6.75 input  175.53 | X-H torsion
[ 8008 7997 7996 7995 ] final  -80.14 input   59.86 | X-H torsion
[ 10167 10162 10161 10158 ] final   69.98 input  -65.29 | X-H torsion
[ 10718 10713 10712 10709 ] final -160.25 input   66.30 | X-H torsion
[ 10763 10752 10751 10750 ] final -173.70 input  -60.55 | X-H torsion
[ 11005 11000 10999 10996 ] final -165.97 input  -57.11 | X-H torsion

> <Gold.Protein.ActiveResidues>
 VAL166  LYS551  ARG553  GLY616  TRP617  ASP618  TYR619  PRO620  LYS621  CYS622 
 ASP623  PHE694  ASN695  SER759  ASP760  ASP761  ALA762  ILE779  LEU786  VAL792 
 PHE793  MET794  SER795  GLU796  ALA797  LYS798  CYS799  TRP800  GLU811  SER814 

> <Gold.Protein.RotatedAtoms>
  152.2202  133.4978  159.5158 H   0  0  0  0  0  0  0  0  0  0  0  0  # atno 6907 bound_to 6896
  150.7011  134.1352  159.4093 H   0  0  0  0  0  0  0  0  0  0  0  0  # atno 6908 bound_to 6896
  151.9273  135.0272  160.0577 H   0  0  0  0  0  0  0  0  0  0  0  0  # atno 6909 bound_to 6896
  146.2432  140.0187  142.8400 H   0  0  0  0  0  0  0  0  0  0  0  0  # atno 7974 bound_to 7965
  154.5854  140.0667  156.9163 H   0  0  0  0  0  0  0  0  0  0  0  0  # atno 8008 bound_to 7997
  155.2389  140.3343  155.4276 H   0  0  0  0  0  0  0  0  0  0  0  0  # atno 8009 bound_to 7997
  156.2219  140.1802  156.7442 H   0  0  0  0  0  0  0  0  0  0  0  0  # atno 8010 bound_to 7997
  140.0619  144.5225  150.7288 H   0  0  0  0  0  0  0  0  0  0  0  0  # atno 10167 bound_to 10162
  156.5796  130.8723  151.2860 H   0  0  0  0  0  0  0  0  0  0  0  0  # atno 10718 bound_to 10713
  154.6048  135.2858  155.0497 H   0  0  0  0  0  0  0  0  0  0  0  0  # atno 10763 bound_to 10752
  154.1748  135.6466  153.5022 H   0  0  0  0  0  0  0  0  0  0  0  0  # atno 10764 bound_to 10752
  153.0171  135.5409  154.6780 H   0  0  0  0  0  0  0  0  0  0  0  0  # atno 10765 bound_to 10752
  140.5698  134.5250  157.5159 H   0  0  0  0  0  0  0  0  0  0  0  0  # atno 11005 bound_to 11000
  145.1261  140.9491  143.4572 LP  0  0  0  0  0  0  0  0  0  0  0  0  # atno 17320 bound_to 7965
  145.0433  139.3242  143.5965 LP  0  0  0  0  0  0  0  0  0  0  0  0  # atno 17321 bound_to 7965
  140.7167  143.2551  151.4410 LP  0  0  0  0  0  0  0  0  0  0  0  0  # atno 17342 bound_to 10162
  139.5888  144.1544  152.2063 LP  0  0  0  0  0  0  0  0  0  0  0  0  # atno 17343 bound_to 10162
  157.7330  130.9723  150.1954 LP  0  0  0  0  0  0  0  0  0  0  0  0  # atno 17370 bound_to 10713
  156.2643  130.3714  149.8097 LP  0  0  0  0  0  0  0  0  0  0  0  0  # atno 17371 bound_to 10713
  139.9367  134.7861  156.0783 LP  0  0  0  0  0  0  0  0  0  0  0  0  # atno 17394 bound_to 11000
  141.1063  133.6659  156.2872 LP  0  0  0  0  0  0  0  0  0  0  0  0  # atno 17395 bound_to 11000

$$$$
