AV-unprocessed.smi:2489|AV-procd|sdf|9798|dock7
  -GOLD-   2272013433D 1   1.00000     0.00000
 Structure written by MMmdl.
 33 34  0  0  0  0  0  0  0  0  1 V2000
  152.0337  145.1757  158.8706 C   0  0  0  0  0  0  0  0  0  0  0  0
  152.1995  144.3530  160.0160 O   0  0  0  0  0  0  0  0  0  0  0  0
  152.4819  143.0194  159.8147 C   0  0  0  0  0  0  0  0  0  0  0  0
  153.1637  142.1952  160.7410 C   0  0  0  0  0  0  0  0  0  0  0  0
  153.3840  140.8473  160.4031 C   0  0  0  0  0  0  0  0  0  0  0  0
  152.9782  140.2990  159.2400 N   0  0  0  0  0  0  0  0  0  0  0  0
  152.3242  141.0734  158.3407 C   0  0  0  0  0  0  0  0  0  0  0  0
  151.8563  140.6009  157.0862 N   0  0  0  0  0  0  0  0  0  0  0  0
  152.2285  139.4941  156.4144 C   0  0  0  0  0  0  0  0  0  0  0  0
  153.0893  138.7038  156.8031 O   0  0  0  0  0  0  0  0  0  0  0  0
  151.5329  139.2446  155.0640 C   0  0  1  0  0  0  0  0  0  0  0  0
  150.5077  138.0926  155.1041 C   0  0  0  0  0  0  0  0  0  0  0  0
  149.2156  138.7287  154.6237 C   0  0  0  0  0  0  0  0  0  0  0  0
  149.4170  140.1971  154.9766 C   0  0  2  0  0  0  0  0  0  0  0  0
  148.5346  141.1638  154.1803 C   0  0  0  0  0  0  0  0  0  0  0  0
  150.7873  140.3983  154.6662 O   0  0  0  0  0  0  0  0  0  0  0  0
  152.0622  142.4368  158.6014 C   0  0  0  0  0  0  0  0  0  0  0  0
  151.8159  146.1953  159.1881 H   0  0  0  0  0  0  0  0  0  0  0  0
  151.1999  144.8372  158.2540 H   0  0  0  0  0  0  0  0  0  0  0  0
  152.9413  145.2052  158.2662 H   0  0  0  0  0  0  0  0  0  0  0  0
  153.5182  142.5633  161.6917 H   0  0  0  0  0  0  0  0  0  0  0  0
  153.9011  140.1904  161.0866 H   0  0  0  0  0  0  0  0  0  0  0  0
  151.1416  141.1628  156.6467 H   0  0  0  0  0  0  0  0  0  0  0  0
  152.2987  139.0538  154.3117 H   0  0  0  0  0  0  0  0  0  0  0  0
  150.8042  137.2574  154.4690 H   0  0  0  0  0  0  0  0  0  0  0  0
  150.3683  137.7021  156.1134 H   0  0  0  0  0  0  0  0  0  0  0  0
  149.1262  138.6081  153.5430 H   0  0  0  0  0  0  0  0  0  0  0  0
  148.3288  138.2964  155.0881 H   0  0  0  0  0  0  0  0  0  0  0  0
  149.2705  140.3483  156.0476 H   0  0  0  0  0  0  0  0  0  0  0  0
  147.4788  140.9924  154.3906 H   0  0  0  0  0  0  0  0  0  0  0  0
  148.6867  141.0467  153.1069 H   0  0  0  0  0  0  0  0  0  0  0  0
  148.7620  142.1983  154.4378 H   0  0  0  0  0  0  0  0  0  0  0  0
  151.5391  143.0406  157.8739 H   0  0  0  0  0  0  0  0  0  0  0  0
  1  2  1  0  0  0  0
  1 18  1  0  0  0  0
  1 19  1  0  0  0  0
  1 20  1  0  0  0  0
  2  3  1  0  0  0  0
  3 17  1  0  0  0  0
  3  4  2  0  0  0  0
  4  5  1  0  0  0  0
  4 21  1  0  0  0  0
  5  6  2  0  0  0  0
  5 22  1  0  0  0  0
  6  7  1  0  0  0  0
  7  8  1  0  0  0  0
  7 17  2  0  0  0  0
  8  9  1  0  0  0  0
  8 23  1  0  0  0  0
  9 10  2  0  0  0  0
  9 11  1  0  0  0  0
 11 16  1  0  0  0  0
 11 12  1  0  0  0  0
 11 24  1  0  0  0  0
 12 13  1  0  0  0  0
 12 25  1  0  0  0  0
 12 26  1  0  0  0  0
 13 14  1  0  0  0  0
 13 27  1  0  0  0  0
 13 28  1  0  0  0  0
 14 15  1  0  0  0  0
 14 16  1  0  0  0  0
 14 29  1  0  0  0  0
 15 30  1  0  0  0  0
 15 31  1  0  0  0  0
 15 32  1  0  0  0  0
 17 33  1  0  0  0  0
M  END
> <s_m_source_file>
AV-unprocessed.smi

> <i_m_source_file_index>
2489

> <i_lp_mmshare_version>
43012

> <i_f3d_flags>
0

> <s_epik_input>
W0NIM11PYzFbY0hdW2NIXW5jKFtjSF0xKVtOSF1DKD1PKVtDQEBIXTJbQ0gyXVtDSDJdW0NASF0oTzIpW0NIM10=

> <s_epik_cmdline>
J2VwaWtfcHl0aG9uJywgJy1waCcsICc3LjAnLCAnLXRuJywgJzgnLCAnLW1hJywgJzIwMCcsICctbWV0YWxfYmluZGluZycsICctaW1hZScsICc8aW5maWxlLm1hZT4nLCAnLW9tYWUnLCAnPG91dGZpbGUubWFlPic=

> <r_epik_Ionization_Penalty>
0.0871917

> <r_epik_Ionization_Penalty_Charging>
0

> <r_epik_Ionization_Penalty_Neutral>
0.0871917

> <r_epik_State_Penalty>
0.146479

> <r_epik_Charging_Adjusted_Penalty>
0.146479

> <i_epik_Tot_Q>
0

> <i_epik_Tot_abs_Q>
0

> <r_epik_Metal_State_Penalty>
0.067489

> <b_epik_Metal_Only>
0

> <s_lp_Force_Field>
OPLS_2005

> <r_lp_Energy>
22.8638

> <b_lp_Chiralities_Consistent>
1

> <s_lp_Variant>
AV-unprocessed.smi:2489-4

> <Gold.Version>
5.8.1

> <Gold.Id.Protein>
6NUR|6NUR_protein|mol2

> <Gold.PLP.Fitness>
41.0670

> <Gold.PLP.PLP>
-37.1730

> <Gold.PLP.part.hbond>
-1.8490

> <Gold.PLP.part.metal>
0.0000

> <Gold.PLP.part.buried>
-4.3359

> <Gold.PLP.part.nonpolar>
-31.1766

> <Gold.PLP.part.repulsive>
0.2463

> <Gold.PLP.ligand.clash>
0.0000

> <Gold.PLP.ligand.torsion>
0.7064

> <Gold.PLP.Chemscore.Hbond>
1.7665

> <Gold.PLP.Chemscore.CHOScore>
0.0000

> <Gold.PLP.Chemscore.Metal>
0.0000

> <Gold.Chemscore.Hbonds>
donor molecule, donor type, donor heavy atom, donor atom, acceptor molecule, acceptor atom, score
      P1  H  7989  7998       L1    16  0.96
      P1  H  7997  8009       L1    10  0.73

> <Gold.PLP.Chemscore.Internal.Correction>
0.0074

> <Gold.Rescore>
     Score         DG    S(hbond)    S(metal)    S(lipo)     H(rot)  DE(clash)    DE(int)     intcor
     14.04     -16.18       1.06        0.00      87.93       1.23       0.06       2.09       ----

> <Gold.Chemscore.Fitness>
14.0366

> <Gold.Chemscore.DG>
-16.1805

> <Gold.Chemscore.ZeroCoef>
-5.4800

> <Gold.Chemscore.Hbond>
1.0635

> <Gold.Chemscore.Metal>
0.0000

> <Gold.Chemscore.Lipo>
87.9305

> <Gold.Chemscore.Internal_Hbond>
0.0000

> <Gold.Chemscore.DEClash>
0.0580

> <Gold.Chemscore.DEInternal>
2.0859

> <Gold.Chemscore.Rot>
1.2264

> <Gold.Chemscore.Internal.Correction>
   9.000000E+99

> <Gold.Chemscore.Hbonds>
donor molecule, donor type, donor heavy atom, donor atom, acceptor molecule, acceptor atom, score
      P1  H  7989  7998       L1    16  0.27
      P1  H  7997  8009       L1    10  0.10

> <Gold.Chemscore.Hbond.Weighted>
-3.5522

> <Gold.Chemscore.Metal.Weighted>
-0.0000

> <Gold.Chemscore.Lipo.Weighted>
-10.2879

> <Gold.Chemscore.Internal_Hbond.Weighted>
0.0000

> <Gold.Chemscore.DEClash.Weighted>
0.0580

> <Gold.Chemscore.DEInternal.Weighted>
2.0859

> <Gold.Chemscore.Rot.Weighted>
3.1396

> <Gold.Chemscore.Internal.Correction.Weighted>
   9.000000E+99

> <Gold.Protein.RotatedTorsions>
[ 6907 6896 6895 6894 ] final   49.00 input  -60.11 | X-H torsion
[ 7974 7965 7964 7962 ] final  -48.93 input  175.53 | X-H torsion
[ 8008 7997 7996 7995 ] final  160.27 input   59.86 | X-H torsion
[ 10167 10162 10161 10158 ] final  -67.02 input  -65.29 | X-H torsion
[ 10718 10713 10712 10709 ] final  135.77 input   66.30 | X-H torsion
[ 10763 10752 10751 10750 ] final  -33.84 input  -60.55 | X-H torsion
[ 11005 11000 10999 10996 ] final  -48.04 input  -57.11 | X-H torsion

> <Gold.Protein.ActiveResidues>
 VAL166  LYS551  ARG553  GLY616  TRP617  ASP618  TYR619  PRO620  LYS621  CYS622 
 ASP623  PHE694  ASN695  SER759  ASP760  ASP761  ALA762  ILE779  LEU786  VAL792 
 PHE793  MET794  SER795  GLU796  ALA797  LYS798  CYS799  TRP800  GLU811  SER814 

> <Gold.Protein.RotatedAtoms>
  152.2859  134.7776  160.0387 H   0  0  0  0  0  0  0  0  0  0  0  0  # atno 6907 bound_to 6896
  151.8339  133.3407  159.3630 H   0  0  0  0  0  0  0  0  0  0  0  0  # atno 6908 bound_to 6896
  150.7209  134.5385  159.5779 H   0  0  0  0  0  0  0  0  0  0  0  0  # atno 6909 bound_to 6896
  145.9459  140.7618  142.9529 H   0  0  0  0  0  0  0  0  0  0  0  0  # atno 7974 bound_to 7965
  156.2183  140.1808  156.7537 H   0  0  0  0  0  0  0  0  0  0  0  0  # atno 8008 bound_to 7997
  154.5826  140.0664  156.9154 H   0  0  0  0  0  0  0  0  0  0  0  0  # atno 8009 bound_to 7997
  155.2476  140.3326  155.4288 H   0  0  0  0  0  0  0  0  0  0  0  0  # atno 8010 bound_to 7997
  140.5614  143.2313  151.6720 H   0  0  0  0  0  0  0  0  0  0  0  0  # atno 10167 bound_to 10162
  157.4536  131.1068  151.0004 H   0  0  0  0  0  0  0  0  0  0  0  0  # atno 10718 bound_to 10713
  153.8368  135.6861  153.4807 H   0  0  0  0  0  0  0  0  0  0  0  0  # atno 10763 bound_to 10752
  153.1478  135.4631  154.9589 H   0  0  0  0  0  0  0  0  0  0  0  0  # atno 10764 bound_to 10752
  154.7862  135.3286  154.7826 H   0  0  0  0  0  0  0  0  0  0  0  0  # atno 10765 bound_to 10752
  141.0677  133.6689  156.3383 H   0  0  0  0  0  0  0  0  0  0  0  0  # atno 11005 bound_to 11000
  144.6787  140.2356  143.7350 LP  0  0  0  0  0  0  0  0  0  0  0  0  # atno 17320 bound_to 7965
  145.8237  139.2055  143.1923 LP  0  0  0  0  0  0  0  0  0  0  0  0  # atno 17321 bound_to 7965
  139.5072  144.3655  152.0521 LP  0  0  0  0  0  0  0  0  0  0  0  0  # atno 17342 bound_to 10162
  140.2782  144.3889  150.6128 LP  0  0  0  0  0  0  0  0  0  0  0  0  # atno 17343 bound_to 10162
  157.0825  130.5909  149.5423 LP  0  0  0  0  0  0  0  0  0  0  0  0  # atno 17370 bound_to 10713
  155.9998  130.5074  150.7618 LP  0  0  0  0  0  0  0  0  0  0  0  0  # atno 17371 bound_to 10713
  140.5739  134.5812  157.5464 LP  0  0  0  0  0  0  0  0  0  0  0  0  # atno 17394 bound_to 11000
  139.9492  134.7647  156.0488 LP  0  0  0  0  0  0  0  0  0  0  0  0  # atno 17395 bound_to 11000

$$$$
