AV-unprocessed.smi:1092|AV-procd|sdf|4737|dock5
  -GOLD-   22720 3273D 1   1.00000     0.00000
 Structure written by MMmdl.
 43 45  0  0  0  0  0  0  0  0  1 V2000
  147.1734  135.0670  159.8345 C   0  0  0  0  0  0  0  0  0  0  0  0
  147.7978  136.4597  159.6197 C   0  0  0  0  0  0  0  0  0  0  0  0
  146.7841  137.3976  158.9423 C   0  0  0  0  0  0  0  0  0  0  0  0
  148.0474  137.0271  160.8919 O   0  0  0  0  0  0  0  0  0  0  0  0
  149.1299  136.4553  158.8189 C   0  0  0  0  0  0  0  0  0  0  0  0
  149.7680  137.7752  158.7069 N   0  0  0  0  0  0  0  0  0  0  0  0
  149.0338  138.6954  157.9959 N   0  0  0  0  0  0  0  0  0  0  0  0
  149.4386  139.9150  157.8352 C   0  0  0  0  0  0  0  0  0  0  0  0
  148.5760  140.7967  157.0143 C   0  0  0  0  0  0  0  0  0  0  0  0
  147.6867  141.6861  157.6592 C   0  0  0  0  0  0  0  0  0  0  0  0
  146.8620  142.5239  156.8832 C   0  0  0  0  0  0  0  0  0  0  0  0
  146.9198  142.4673  155.4761 C   0  0  0  0  0  0  0  0  0  0  0  0
  147.7987  141.5693  154.8382 C   0  0  0  0  0  0  0  0  0  0  0  0
  148.6282  140.7272  155.6041 C   0  0  0  0  0  0  0  0  0  0  0  0
  150.7554  140.2643  158.4689 C   0  0  0  0  0  0  0  0  0  0  0  0
  151.3164  141.6457  158.4386 C   0  0  0  0  0  0  0  0  0  0  0  0
  151.0249  142.4979  157.3474 C   0  0  0  0  0  0  0  0  0  0  0  0
  151.5563  143.8013  157.2984 C   0  0  0  0  0  0  0  0  0  0  0  0
  152.3904  144.2630  158.3338 C   0  0  0  0  0  0  0  0  0  0  0  0
  152.6976  143.4184  159.4167 C   0  0  0  0  0  0  0  0  0  0  0  0
  152.1679  142.1146  159.4672 C   0  0  0  0  0  0  0  0  0  0  0  0
  151.4398  139.3741  159.1014 N   0  0  0  0  0  0  0  0  0  0  0  0
  150.9861  138.0603  159.2534 C   0  0  0  0  0  0  0  0  0  0  0  0
  151.6386  137.2103  159.8590 O   0  0  0  0  0  0  0  0  0  0  0  0
  146.9791  134.5715  158.8830 H   0  0  0  0  0  0  0  0  0  0  0  0
  146.2245  135.1372  160.3672 H   0  0  0  0  0  0  0  0  0  0  0  0
  147.8220  134.4168  160.4226 H   0  0  0  0  0  0  0  0  0  0  0  0
  146.5129  137.0318  157.9513 H   0  0  0  0  0  0  0  0  0  0  0  0
  147.1887  138.4032  158.8218 H   0  0  0  0  0  0  0  0  0  0  0  0
  145.8645  137.4798  159.5231 H   0  0  0  0  0  0  0  0  0  0  0  0
  147.7227  136.4363  161.5539 H   0  0  0  0  0  0  0  0  0  0  0  0
  149.8227  135.7517  159.2835 H   0  0  0  0  0  0  0  0  0  0  0  0
  148.9663  136.0467  157.8199 H   0  0  0  0  0  0  0  0  0  0  0  0
  147.6352  141.7429  158.7374 H   0  0  0  0  0  0  0  0  0  0  0  0
  146.1847  143.2112  157.3678 H   0  0  0  0  0  0  0  0  0  0  0  0
  146.2854  143.1109  154.8846 H   0  0  0  0  0  0  0  0  0  0  0  0
  147.8341  141.5243  153.7596 H   0  0  0  0  0  0  0  0  0  0  0  0
  149.2860  140.0333  155.1012 H   0  0  0  0  0  0  0  0  0  0  0  0
  150.3851  142.1631  156.5435 H   0  0  0  0  0  0  0  0  0  0  0  0
  151.3239  144.4470  156.4643 H   0  0  0  0  0  0  0  0  0  0  0  0
  152.7987  145.2620  158.2946 H   0  0  0  0  0  0  0  0  0  0  0  0
  153.3442  143.7685  160.2077 H   0  0  0  0  0  0  0  0  0  0  0  0
  152.4313  141.4775  160.2988 H   0  0  0  0  0  0  0  0  0  0  0  0
  1  2  1  0  0  0  0
  1 25  1  0  0  0  0
  1 26  1  0  0  0  0
  1 27  1  0  0  0  0
  2  3  1  0  0  0  0
  2  4  1  0  0  0  0
  2  5  1  0  0  0  0
  3 28  1  0  0  0  0
  3 29  1  0  0  0  0
  3 30  1  0  0  0  0
  4 31  1  0  0  0  0
  5  6  1  0  0  0  0
  5 32  1  0  0  0  0
  5 33  1  0  0  0  0
  6 23  1  0  0  0  0
  6  7  1  0  0  0  0
  7  8  2  0  0  0  0
  8  9  1  0  0  0  0
  8 15  1  0  0  0  0
  9 14  1  0  0  0  0
  9 10  2  0  0  0  0
 10 11  1  0  0  0  0
 10 34  1  0  0  0  0
 11 12  2  0  0  0  0
 11 35  1  0  0  0  0
 12 13  1  0  0  0  0
 12 36  1  0  0  0  0
 13 14  2  0  0  0  0
 13 37  1  0  0  0  0
 14 38  1  0  0  0  0
 15 16  1  0  0  0  0
 15 22  2  0  0  0  0
 16 21  1  0  0  0  0
 16 17  2  0  0  0  0
 17 18  1  0  0  0  0
 17 39  1  0  0  0  0
 18 19  2  0  0  0  0
 18 40  1  0  0  0  0
 19 20  1  0  0  0  0
 19 41  1  0  0  0  0
 20 21  2  0  0  0  0
 20 42  1  0  0  0  0
 21 43  1  0  0  0  0
 22 23  1  0  0  0  0
 23 24  2  0  0  0  0
M  END
> <s_m_source_file>
AV-unprocessed.smi

> <i_m_source_file_index>
1092

> <i_lp_mmshare_version>
43012

> <i_f3d_flags>
0

> <s_epik_input>
W2NIXTFbY0hdW2NIXVtjSF1bY0hdYzEtYyhubjJbQ0gyXUMoW0NIM10pKFtDSDNdKVtPSF0pYyhuYzI9TyktYzNbY0hdW2NIXVtjSF1bY0hdW2NIXTM=

> <s_epik_cmdline>
J2VwaWtfcHl0aG9uJywgJy1waCcsICc3LjAnLCAnLXRuJywgJzgnLCAnLW1hJywgJzIwMCcsICctbWV0YWxfYmluZGluZycsICctaW1hZScsICc8aW5maWxlLm1hZT4nLCAnLW9tYWUnLCAnPG91dGZpbGUubWFlPic=

> <r_lp_tautomer_probability>
1

> <r_epik_Ionization_Penalty>
4.51197e-08

> <r_epik_Ionization_Penalty_Charging>
4.64162e-09

> <r_epik_Ionization_Penalty_Neutral>
4.04781e-08

> <r_epik_State_Penalty>
-0

> <r_epik_Charging_Adjusted_Penalty>
4.64162e-09

> <i_epik_Tot_Q>
0

> <i_epik_Tot_abs_Q>
0

> <r_epik_Metal_State_Penalty>
-0

> <b_epik_Metal_Only>
0

> <s_lp_Force_Field>
OPLS_2005

> <r_lp_Energy>
39.3317

> <b_lp_Chiralities_Consistent>
1

> <s_lp_Variant>
AV-unprocessed.smi:1092-1

> <Gold.Version>
5.8.1

> <Gold.Id.Protein>
6NUR|6NUR_protein|mol2

> <Gold.PLP.Fitness>
44.4360

> <Gold.PLP.PLP>
-38.8733

> <Gold.PLP.part.hbond>
-2.8540

> <Gold.PLP.part.metal>
0.0000

> <Gold.PLP.part.buried>
-4.2106

> <Gold.PLP.part.nonpolar>
-32.7550

> <Gold.PLP.part.repulsive>
0.0000

> <Gold.PLP.ligand.clash>
0.0000

> <Gold.PLP.ligand.torsion>
1.8425

> <Gold.PLP.Chemscore.Hbond>
2.3094

> <Gold.PLP.Chemscore.CHOScore>
0.0000

> <Gold.PLP.Chemscore.Metal>
0.0000

> <Gold.Chemscore.Hbonds>
donor molecule, donor type, donor heavy atom, donor atom, acceptor molecule, acceptor atom, score
      P1  H  6896  6909       L1    24  0.98
      P1  H  6931  6943       L1     4  0.98
      P1  H  6934  6947       L1     4  0.49

> <Gold.PLP.Chemscore.Internal.Correction>
2.3194

> <Gold.Rescore>
     Score         DG    S(hbond)    S(metal)    S(lipo)     H(rot)  DE(clash)    DE(int)     intcor
     15.21     -19.54       1.94        0.00      99.67       1.59       0.03       4.31       ----

> <Gold.Chemscore.Fitness>
15.2065

> <Gold.Chemscore.DG>
-19.5398

> <Gold.Chemscore.ZeroCoef>
-5.4800

> <Gold.Chemscore.Hbond>
1.9380

> <Gold.Chemscore.Metal>
0.0000

> <Gold.Chemscore.Lipo>
99.6735

> <Gold.Chemscore.Internal_Hbond>
0.0000

> <Gold.Chemscore.DEClash>
0.0263

> <Gold.Chemscore.DEInternal>
4.3070

> <Gold.Chemscore.Rot>
1.5918

> <Gold.Chemscore.Internal.Correction>
   9.000000E+99

> <Gold.Chemscore.Hbonds>
donor molecule, donor type, donor heavy atom, donor atom, acceptor molecule, acceptor atom, score
      P1  H  6896  6909       L1    24  0.91
      P1  H  6931  6943       L1     4  0.37
      P1  H  6934  6947       L1     4  0.32

> <Gold.Chemscore.Hbond.Weighted>
-6.4729

> <Gold.Chemscore.Metal.Weighted>
-0.0000

> <Gold.Chemscore.Lipo.Weighted>
-11.6618

> <Gold.Chemscore.Internal_Hbond.Weighted>
0.0000

> <Gold.Chemscore.DEClash.Weighted>
0.0263

> <Gold.Chemscore.DEInternal.Weighted>
4.3070

> <Gold.Chemscore.Rot.Weighted>
4.0749

> <Gold.Chemscore.Internal.Correction.Weighted>
   9.000000E+99

> <Gold.Protein.RotatedTorsions>
[ 6907 6896 6895 6894 ] final  119.18 input  -60.11 | X-H torsion
[ 7974 7965 7964 7962 ] final  120.38 input  175.53 | X-H torsion
[ 8008 7997 7996 7995 ] final  -60.39 input   59.86 | X-H torsion
[ 10167 10162 10161 10158 ] final   89.89 input  -65.29 | X-H torsion
[ 10718 10713 10712 10709 ] final    8.65 input   66.30 | X-H torsion
[ 10763 10752 10751 10750 ] final   44.89 input  -60.55 | X-H torsion
[ 11005 11000 10999 10996 ] final  162.20 input  -57.11 | X-H torsion

> <Gold.Protein.ActiveResidues>
 VAL166  LYS551  ARG553  GLY616  TRP617  ASP618  TYR619  PRO620  LYS621  CYS622 
 ASP623  PHE694  ASN695  SER759  ASP760  ASP761  ALA762  ILE779  LEU786  VAL792 
 PHE793  MET794  SER795  GLU796  ALA797  LYS798  CYS799  TRP800  GLU811  SER814 

> <Gold.Protein.RotatedAtoms>
  152.4490  133.7592  159.6736 H   0  0  0  0  0  0  0  0  0  0  0  0  # atno 6907 bound_to 6896
  150.8397  133.7946  159.3072 H   0  0  0  0  0  0  0  0  0  0  0  0  # atno 6908 bound_to 6896
  151.5574  135.1069  160.0016 H   0  0  0  0  0  0  0  0  0  0  0  0  # atno 6909 bound_to 6896
  145.1319  139.3322  143.4661 H   0  0  0  0  0  0  0  0  0  0  0  0  # atno 7974 bound_to 7965
  154.4396  140.1040  156.6266 H   0  0  0  0  0  0  0  0  0  0  0  0  # atno 8008 bound_to 7997
  155.5650  140.3488  155.4482 H   0  0  0  0  0  0  0  0  0  0  0  0  # atno 8009 bound_to 7997
  156.0432  140.1287  157.0122 H   0  0  0  0  0  0  0  0  0  0  0  0  # atno 8010 bound_to 7997
  139.8528  144.6584  150.9149 H   0  0  0  0  0  0  0  0  0  0  0  0  # atno 10167 bound_to 10162
  156.9548  130.5910  149.5658 H   0  0  0  0  0  0  0  0  0  0  0  0  # atno 10718 bound_to 10713
  152.9833  135.6056  154.3347 H   0  0  0  0  0  0  0  0  0  0  0  0  # atno 10763 bound_to 10752
  154.3048  135.2772  155.2596 H   0  0  0  0  0  0  0  0  0  0  0  0  # atno 10764 bound_to 10752
  154.4832  135.5912  153.6460 H   0  0  0  0  0  0  0  0  0  0  0  0  # atno 10765 bound_to 10752
  140.2234  134.8179  157.3243 H   0  0  0  0  0  0  0  0  0  0  0  0  # atno 11005 bound_to 11000
  146.3513  140.1321  142.8597 LP  0  0  0  0  0  0  0  0  0  0  0  0  # atno 17320 bound_to 7965
  145.0626  140.9098  143.4929 LP  0  0  0  0  0  0  0  0  0  0  0  0  # atno 17321 bound_to 7965
  140.7785  143.3812  151.1473 LP  0  0  0  0  0  0  0  0  0  0  0  0  # atno 17342 bound_to 10162
  139.7449  143.8868  152.3060 LP  0  0  0  0  0  0  0  0  0  0  0  0  # atno 17343 bound_to 10162
  156.0347  130.5436  150.8624 LP  0  0  0  0  0  0  0  0  0  0  0  0  # atno 17370 bound_to 10713
  157.5698  131.0946  150.9435 LP  0  0  0  0  0  0  0  0  0  0  0  0  # atno 17371 bound_to 10713
  140.1826  134.4471  155.7763 LP  0  0  0  0  0  0  0  0  0  0  0  0  # atno 17394 bound_to 11000
  141.2222  133.6990  156.7894 LP  0  0  0  0  0  0  0  0  0  0  0  0  # atno 17395 bound_to 11000

$$$$
