AV-unprocessed.smi:2746|AV-procd|sdf|10573|dock2
  -GOLD-   2272015 23D 1   1.00000     0.00000
 Structure written by MMmdl.
 39 40  0  0  0  0  0  0  0  0  2 V2000
  142.0791  135.5101  153.4758 C   0  0  0  0  0  0  0  0  0  0  0  0
  143.0741  136.4140  153.4596 C   0  0  0  0  0  0  0  0  0  0  0  0
  143.7954  136.9577  152.2325 C   0  0  2  0  0  0  0  0  0  0  0  0
  144.4875  135.8292  151.4572 C   0  0  0  0  0  0  0  0  0  0  0  0
  144.7777  137.9883  152.5679 N   0  0  0  0  0  0  0  0  0  0  0  0
  145.9068  137.8009  153.2716 C   0  0  0  0  0  0  0  0  0  0  0  0
  146.2325  136.7260  153.7757 O   0  0  0  0  0  0  0  0  0  0  0  0
  146.7540  139.0232  153.4672 C   0  0  0  0  0  0  0  0  0  0  0  0
  148.0863  138.9537  153.9391 C   0  0  0  0  0  0  0  0  0  0  0  0
  148.8222  140.1465  154.1348 C   0  0  0  0  0  0  0  0  0  0  0  0
  150.1436  140.1323  154.6013 N   0  0  0  0  0  0  0  0  0  0  0  0
  150.7505  138.8074  154.5777 C   0  0  0  0  0  0  0  0  0  0  0  0
  152.2321  138.9006  154.9820 C   0  0  0  0  0  0  0  0  0  0  0  0
  152.3391  139.5243  156.2586 O   0  0  0  0  0  0  0  0  0  0  0  0
  151.8130  140.8485  156.2531 C   0  0  0  0  0  0  0  0  0  0  0  0
  150.3205  140.8075  155.8815 C   0  0  0  0  0  0  0  0  0  0  0  0
  148.2032  141.3829  153.8544 C   0  0  0  0  0  0  0  0  0  0  0  0
  146.8710  141.3986  153.3971 C   0  0  0  0  0  0  0  0  0  0  0  0
  146.2048  140.2363  153.2276 N   0  3  0  0  0  0  0  0  0  0  0  0
  141.6850  135.0693  152.5721 H   0  0  0  0  0  0  0  0  0  0  0  0
  141.6407  135.1964  154.4117 H   0  0  0  0  0  0  0  0  0  0  0  0
  143.4148  136.8099  154.4054 H   0  0  0  0  0  0  0  0  0  0  0  0
  143.0272  137.3788  151.5818 H   0  0  0  0  0  0  0  0  0  0  0  0
  143.7727  135.0614  151.1590 H   0  0  0  0  0  0  0  0  0  0  0  0
  145.2600  135.3484  152.0585 H   0  0  0  0  0  0  0  0  0  0  0  0
  144.9591  136.2081  150.5499 H   0  0  0  0  0  0  0  0  0  0  0  0
  144.5875  138.9174  152.2214 H   0  0  0  0  0  0  0  0  0  0  0  0
  148.5413  137.9982  154.1568 H   0  0  0  0  0  0  0  0  0  0  0  0
  150.2223  138.1453  155.2654 H   0  0  0  0  0  0  0  0  0  0  0  0
  150.6613  138.3761  153.5798 H   0  0  0  0  0  0  0  0  0  0  0  0
  152.6713  137.9043  155.0345 H   0  0  0  0  0  0  0  0  0  0  0  0
  152.8032  139.4631  154.2417 H   0  0  0  0  0  0  0  0  0  0  0  0
  151.9424  141.2866  157.2428 H   0  0  0  0  0  0  0  0  0  0  0  0
  152.3723  141.4707  155.5526 H   0  0  0  0  0  0  0  0  0  0  0  0
  149.9213  141.8209  155.8239 H   0  0  0  0  0  0  0  0  0  0  0  0
  149.7639  140.2841  156.6600 H   0  0  0  0  0  0  0  0  0  0  0  0
  148.7400  142.3102  153.9944 H   0  0  0  0  0  0  0  0  0  0  0  0
  146.3204  142.2990  153.1674 H   0  0  0  0  0  0  0  0  0  0  0  0
  145.2379  140.2710  152.9024 H   0  0  0  0  0  0  0  0  0  0  0  0
  1  2  2  0  0  0  0
  1 20  1  0  0  0  0
  1 21  1  0  0  0  0
  2  3  1  0  0  0  0
  2 22  1  0  0  0  0
  3  4  1  0  0  0  0
  3  5  1  0  0  0  0
  3 23  1  0  0  0  0
  4 24  1  0  0  0  0
  4 25  1  0  0  0  0
  4 26  1  0  0  0  0
  5  6  1  0  0  0  0
  5 27  1  0  0  0  0
  6  7  2  0  0  0  0
  6  8  1  0  0  0  0
  8 19  1  0  0  0  0
  8  9  2  0  0  0  0
  9 10  1  0  0  0  0
  9 28  1  0  0  0  0
 10 11  1  0  0  0  0
 10 17  2  0  0  0  0
 11 16  1  0  0  0  0
 11 12  1  0  0  0  0
 12 13  1  0  0  0  0
 12 29  1  0  0  0  0
 12 30  1  0  0  0  0
 13 14  1  0  0  0  0
 13 31  1  0  0  0  0
 13 32  1  0  0  0  0
 14 15  1  0  0  0  0
 15 16  1  0  0  0  0
 15 33  1  0  0  0  0
 15 34  1  0  0  0  0
 16 35  1  0  0  0  0
 16 36  1  0  0  0  0
 17 18  1  0  0  0  0
 17 37  1  0  0  0  0
 18 19  2  0  0  0  0
 18 38  1  0  0  0  0
 19 39  1  0  0  0  0
M  CHG  1  19   1
M  END
> <s_m_source_file>
AV-unprocessed.smi

> <i_m_source_file_index>
2746

> <i_lp_mmshare_version>
43012

> <i_f3d_flags>
0

> <s_epik_input>
W0NIMl09W0NIXVtDQEhdKFtDSDNdKVtOSF1DKD1PKWMxW2NIXWMoW2NIXVtjSF1uMSlOMltDSDJdW0NIMl1PW0NIMl1bQ0gyXTI=

> <s_epik_cmdline>
J2VwaWtfcHl0aG9uJywgJy1waCcsICc3LjAnLCAnLXRuJywgJzgnLCAnLW1hJywgJzIwMCcsICctbWV0YWxfYmluZGluZycsICctaW1hZScsICc8aW5maWxlLm1hZT4nLCAnLW9tYWUnLCAnPG91dGZpbGUubWFlPic=

> <r_lp_tautomer_probability>
1

> <r_epik_Ionization_Penalty>
0.451073

> <r_epik_Ionization_Penalty_Charging>
0.450607

> <r_epik_Ionization_Penalty_Neutral>
0.000466544

> <r_epik_State_Penalty>
0.453375

> <r_epik_Charging_Adjusted_Penalty>
0.903982

> <i_epik_Tot_Q>
1

> <i_epik_Tot_abs_Q>
1

> <r_epik_Metal_State_Penalty>
1.0249

> <b_epik_Metal_Only>
0

> <s_lp_Force_Field>
OPLS_2005

> <r_lp_Energy>
26.9967

> <b_lp_Chiralities_Consistent>
1

> <s_lp_Variant>
AV-unprocessed.smi:2746-3

> <Gold.Version>
5.8.1

> <Gold.Id.Protein>
6NUR|6NUR_protein|mol2

> <Gold.PLP.Fitness>
47.3290

> <Gold.PLP.PLP>
-34.8464

> <Gold.PLP.part.hbond>
-4.9528

> <Gold.PLP.part.metal>
0.0000

> <Gold.PLP.part.buried>
-3.5782

> <Gold.PLP.part.nonpolar>
-26.3552

> <Gold.PLP.part.repulsive>
0.1875

> <Gold.PLP.ligand.clash>
0.4795

> <Gold.PLP.ligand.torsion>
0.2788

> <Gold.PLP.Chemscore.Hbond>
4.4500

> <Gold.PLP.Chemscore.CHOScore>
0.0000

> <Gold.PLP.Chemscore.Metal>
0.0000

> <Gold.Chemscore.Hbonds>
donor molecule, donor type, donor heavy atom, donor atom, acceptor molecule, acceptor atom, score
      L1  H     5    27       P1 10175  0.94
      L1  H    19    39       P1 10175  2.00
      P1  H  7989  7998       L1    11  0.55
      P1  H  7997  8008       L1    14  0.65

> <Gold.PLP.Chemscore.Internal.Correction>
0.1697

> <Gold.Rescore>
     Score         DG    S(hbond)    S(metal)    S(lipo)     H(rot)  DE(clash)    DE(int)     intcor
     17.60     -18.16       2.05        0.00      78.42       1.30       0.11       0.45       ----

> <Gold.Chemscore.Fitness>
17.6039

> <Gold.Chemscore.DG>
-18.1625

> <Gold.Chemscore.ZeroCoef>
-5.4800

> <Gold.Chemscore.Hbond>
2.0474

> <Gold.Chemscore.Metal>
0.0000

> <Gold.Chemscore.Lipo>
78.4217

> <Gold.Chemscore.Internal_Hbond>
0.0000

> <Gold.Chemscore.DEClash>
0.1135

> <Gold.Chemscore.DEInternal>
0.4451

> <Gold.Chemscore.Rot>
1.3013

> <Gold.Chemscore.Internal.Correction>
   9.000000E+99

> <Gold.Chemscore.Hbonds>
donor molecule, donor type, donor heavy atom, donor atom, acceptor molecule, acceptor atom, score
      L1  H     5    27       P1 10175  0.91
      L1  H    19    39       P1 10175  0.96
      P1  H  7989  7998       L1    11  0.01
      P1  H  7997  8008       L1    14  0.04

> <Gold.Chemscore.Hbond.Weighted>
-6.8384

> <Gold.Chemscore.Metal.Weighted>
-0.0000

> <Gold.Chemscore.Lipo.Weighted>
-9.1753

> <Gold.Chemscore.Internal_Hbond.Weighted>
0.0000

> <Gold.Chemscore.DEClash.Weighted>
0.1135

> <Gold.Chemscore.DEInternal.Weighted>
0.4451

> <Gold.Chemscore.Rot.Weighted>
3.3313

> <Gold.Chemscore.Internal.Correction.Weighted>
   9.000000E+99

> <Gold.Protein.RotatedTorsions>
[ 6907 6896 6895 6894 ] final   28.53 input  -60.11 | X-H torsion
[ 7974 7965 7964 7962 ] final   40.63 input  175.53 | X-H torsion
[ 8008 7997 7996 7995 ] final  -43.55 input   59.86 | X-H torsion
[ 10167 10162 10161 10158 ] final    4.24 input  -65.29 | X-H torsion
[ 10718 10713 10712 10709 ] final   12.95 input   66.30 | X-H torsion
[ 10763 10752 10751 10750 ] final  120.59 input  -60.55 | X-H torsion
[ 11005 11000 10999 10996 ] final   69.69 input  -57.11 | X-H torsion

> <Gold.Protein.ActiveResidues>
 VAL166  LYS551  ARG553  GLY616  TRP617  ASP618  TYR619  PRO620  LYS621  CYS622 
 ASP623  PHE694  ASN695  SER759  ASP760  ASP761  ALA762  ILE779  LEU786  VAL792 
 PHE793  MET794  SER795  GLU796  ALA797  LYS798  CYS799  TRP800  GLU811  SER814 

> <Gold.Protein.RotatedAtoms>
  152.0183  134.9837  160.0569 H   0  0  0  0  0  0  0  0  0  0  0  0  # atno 6907 bound_to 6896
  152.1362  133.4432  159.4753 H   0  0  0  0  0  0  0  0  0  0  0  0  # atno 6908 bound_to 6896
  150.6860  134.2279  159.4466 H   0  0  0  0  0  0  0  0  0  0  0  0  # atno 6909 bound_to 6896
  146.0889  139.5511  142.9488 H   0  0  0  0  0  0  0  0  0  0  0  0  # atno 7974 bound_to 7965
  154.3997  140.1445  156.3537 H   0  0  0  0  0  0  0  0  0  0  0  0  # atno 8008 bound_to 7997
  155.8245  140.3468  155.5514 H   0  0  0  0  0  0  0  0  0  0  0  0  # atno 8009 bound_to 7997
  155.8253  140.0904  157.1815 H   0  0  0  0  0  0  0  0  0  0  0  0  # atno 8010 bound_to 7997
  140.6545  143.7462  150.7630 H   0  0  0  0  0  0  0  0  0  0  0  0  # atno 10167 bound_to 10162
  157.0176  130.6142  149.5716 H   0  0  0  0  0  0  0  0  0  0  0  0  # atno 10718 bound_to 10713
  153.6009  135.3448  155.2945 H   0  0  0  0  0  0  0  0  0  0  0  0  # atno 10763 bound_to 10752
  154.8636  135.4227  154.2414 H   0  0  0  0  0  0  0  0  0  0  0  0  # atno 10764 bound_to 10752
  153.3242  135.7040  153.7075 H   0  0  0  0  0  0  0  0  0  0  0  0  # atno 10765 bound_to 10752
  139.9639  134.7013  156.0586 H   0  0  0  0  0  0  0  0  0  0  0  0  # atno 11005 bound_to 11000
  145.6076  141.0345  143.1984 LP  0  0  0  0  0  0  0  0  0  0  0  0  # atno 17320 bound_to 7965
  144.7346  139.7624  143.7334 LP  0  0  0  0  0  0  0  0  0  0  0  0  # atno 17321 bound_to 7965
  140.1119  143.4691  152.2365 LP  0  0  0  0  0  0  0  0  0  0  0  0  # atno 17342 bound_to 10162
  139.5765  144.7490  151.3751 LP  0  0  0  0  0  0  0  0  0  0  0  0  # atno 17343 bound_to 10162
  156.0114  130.5205  150.7999 LP  0  0  0  0  0  0  0  0  0  0  0  0  # atno 17370 bound_to 10713
  157.5274  131.0935  151.0000 LP  0  0  0  0  0  0  0  0  0  0  0  0  # atno 17371 bound_to 10713
  141.1318  133.6584  156.3485 LP  0  0  0  0  0  0  0  0  0  0  0  0  # atno 17394 bound_to 11000
  140.5439  134.6094  157.5388 LP  0  0  0  0  0  0  0  0  0  0  0  0  # atno 17395 bound_to 11000

$$$$
