AV-unprocessed.smi:2026|AV-procd|sdf|8203|dock7
  -GOLD-   2272010463D 1   1.00000     0.00000
 Structure written by MMmdl.
 47 49  0  0  0  0  0  0  0  0  2 V2000
  152.2417  145.9533  160.0256 C   0  0  0  0  0  0  0  0  0  0  0  0
  151.9087  144.6000  159.4210 C   0  0  0  0  0  0  0  0  0  0  0  0
  151.4524  144.5516  158.0837 C   0  0  0  0  0  0  0  0  0  0  0  0
  151.1565  143.2986  157.5592 C   0  0  0  0  0  0  0  0  0  0  0  0
  150.6962  142.9163  156.2967 N   0  3  0  0  0  0  0  0  0  0  0  0
  150.5546  141.5617  156.2548 C   0  0  0  0  0  0  0  0  0  0  0  0
  150.9165  141.0755  157.4725 N   0  0  0  0  0  0  0  0  0  0  0  0
  150.9554  139.6975  157.9752 C   0  0  0  0  0  0  0  0  0  0  0  0
  152.3770  139.2649  158.3910 C   0  0  2  0  0  0  0  0  0  0  0  0
  153.2133  139.2523  157.2522 O   0  0  0  0  0  0  0  0  0  0  0  0
  152.4343  137.8764  159.0601 C   0  0  0  0  0  0  0  0  0  0  0  0
  153.5822  137.7341  159.9647 N   0  0  0  0  0  0  0  0  0  0  0  0
  154.2483  136.5847  160.1774 C   0  0  0  0  0  0  0  0  0  0  0  0
  154.0094  135.4935  159.6629 O   0  0  0  0  0  0  0  0  0  0  0  0
  155.2245  136.8213  161.0633 N   0  0  0  0  0  0  0  0  0  0  0  0
  155.2597  138.1999  161.5115 C   0  0  0  0  0  0  0  0  0  0  0  0
  154.9903  138.2913  163.0242 C   0  0  0  0  0  0  0  0  0  0  0  0
  156.5847  138.8737  161.1124 C   0  0  0  0  0  0  0  0  0  0  0  0
  154.0913  138.7341  160.6976 C   0  0  0  0  0  0  0  0  0  0  0  0
  153.6976  139.8997  160.7414 O   0  0  0  0  0  0  0  0  0  0  0  0
  151.3002  142.1214  158.3173 C   0  0  0  0  0  0  0  0  0  0  0  0
  151.7494  142.1501  159.6348 C   0  0  0  0  0  0  0  0  0  0  0  0
  152.0564  143.4138  160.1862 C   0  0  0  0  0  0  0  0  0  0  0  0
  152.5508  143.4754  161.6215 C   0  0  0  0  0  0  0  0  0  0  0  0
  152.0660  146.7623  159.3159 H   0  0  0  0  0  0  0  0  0  0  0  0
  153.2902  145.9924  160.3217 H   0  0  0  0  0  0  0  0  0  0  0  0
  151.6256  146.1421  160.9050 H   0  0  0  0  0  0  0  0  0  0  0  0
  151.3400  145.4503  157.4946 H   0  0  0  0  0  0  0  0  0  0  0  0
  150.2188  140.9797  155.4086 H   0  0  0  0  0  0  0  0  0  0  0  0
  150.2562  139.6316  158.8089 H   0  0  0  0  0  0  0  0  0  0  0  0
  150.5664  139.0424  157.1943 H   0  0  0  0  0  0  0  0  0  0  0  0
  152.7938  140.0029  159.0765 H   0  0  0  0  0  0  0  0  0  0  0  0
  153.0297  138.4715  156.7526 H   0  0  0  0  0  0  0  0  0  0  0  0
  151.4996  137.6820  159.5894 H   0  0  0  0  0  0  0  0  0  0  0  0
  152.5024  137.1018  158.2940 H   0  0  0  0  0  0  0  0  0  0  0  0
  155.8727  136.1219  161.3953 H   0  0  0  0  0  0  0  0  0  0  0  0
  154.9731  139.3283  163.3615 H   0  0  0  0  0  0  0  0  0  0  0  0
  155.7654  137.7750  163.5913 H   0  0  0  0  0  0  0  0  0  0  0  0
  154.0345  137.8401  163.2930 H   0  0  0  0  0  0  0  0  0  0  0  0
  156.6148  139.9128  161.4421 H   0  0  0  0  0  0  0  0  0  0  0  0
  156.7326  138.8665  160.0312 H   0  0  0  0  0  0  0  0  0  0  0  0
  157.4357  138.3619  161.5622 H   0  0  0  0  0  0  0  0  0  0  0  0
  151.8653  141.2462  160.2133 H   0  0  0  0  0  0  0  0  0  0  0  0
  152.6458  142.4792  162.0540 H   0  0  0  0  0  0  0  0  0  0  0  0
  151.8563  144.0433  162.2409 H   0  0  0  0  0  0  0  0  0  0  0  0
  153.5300  143.9522  161.6705 H   0  0  0  0  0  0  0  0  0  0  0  0
  150.4947  143.5314  155.5190 H   0  0  0  0  0  0  0  0  0  0  0  0
  1  2  1  0  0  0  0
  1 25  1  0  0  0  0
  1 26  1  0  0  0  0
  1 27  1  0  0  0  0
  2 23  1  0  0  0  0
  2  3  2  0  0  0  0
  3  4  1  0  0  0  0
  3 28  1  0  0  0  0
  4 21  2  0  0  0  0
  4  5  1  0  0  0  0
  5  6  2  0  0  0  0
  5 47  1  0  0  0  0
  6  7  1  0  0  0  0
  6 29  1  0  0  0  0
  7  8  1  0  0  0  0
  7 21  1  0  0  0  0
  8  9  1  0  0  0  0
  8 30  1  0  0  0  0
  8 31  1  0  0  0  0
  9 10  1  0  0  0  0
  9 11  1  0  0  0  0
  9 32  1  0  0  0  0
 10 33  1  0  0  0  0
 11 12  1  0  0  0  0
 11 34  1  0  0  0  0
 11 35  1  0  0  0  0
 12 19  1  0  0  0  0
 12 13  1  0  0  0  0
 13 14  2  0  0  0  0
 13 15  1  0  0  0  0
 15 16  1  0  0  0  0
 15 36  1  0  0  0  0
 16 17  1  0  0  0  0
 16 18  1  0  0  0  0
 16 19  1  0  0  0  0
 17 37  1  0  0  0  0
 17 38  1  0  0  0  0
 17 39  1  0  0  0  0
 18 40  1  0  0  0  0
 18 41  1  0  0  0  0
 18 42  1  0  0  0  0
 19 20  2  0  0  0  0
 21 22  1  0  0  0  0
 22 23  2  0  0  0  0
 22 43  1  0  0  0  0
 23 24  1  0  0  0  0
 24 44  1  0  0  0  0
 24 45  1  0  0  0  0
 24 46  1  0  0  0  0
M  CHG  1   5   1
M  END
> <s_m_source_file>
AV-unprocessed.smi

> <i_m_source_file_index>
2026

> <i_lp_mmshare_version>
43012

> <i_f3d_flags>
0

> <s_epik_input>
W0NIM11jKFtjSF0xKWMoW0NIM10pW2NIXWMoYzEyKW4oW2NIXW4yKVtDSDJdW0NASF0oW09IXSlbQ0gyXU4oQzM9TylDKD1PKVtOSF1DMyhbQ0gzXSlbQ0gzXQ==

> <s_epik_cmdline>
J2VwaWtfcHl0aG9uJywgJy1waCcsICc3LjAnLCAnLXRuJywgJzgnLCAnLW1hJywgJzIwMCcsICctbWV0YWxfYmluZGluZycsICctaW1hZScsICc8aW5maWxlLm1hZT4nLCAnLW9tYWUnLCAnPG91dGZpbGUubWFlPic=

> <r_lp_tautomer_probability>
1

> <r_epik_Ionization_Penalty>
1.08255

> <r_epik_Ionization_Penalty_Charging>
1.08249

> <r_epik_Ionization_Penalty_Neutral>
6.65731e-05

> <r_epik_State_Penalty>
1.13805

> <r_epik_Charging_Adjusted_Penalty>
2.22054

> <i_epik_Tot_Q>
1

> <i_epik_Tot_abs_Q>
1

> <r_epik_Metal_State_Penalty>
1.29676

> <b_epik_Metal_Only>
0

> <s_lp_Force_Field>
OPLS_2005

> <r_lp_Energy>
25.6396

> <b_lp_Chiralities_Consistent>
1

> <s_lp_Variant>
AV-unprocessed.smi:2026-3

> <Gold.Version>
5.8.1

> <Gold.Id.Protein>
6NUR|6NUR_protein|mol2

> <Gold.PLP.Fitness>
51.4358

> <Gold.PLP.PLP>
-44.0620

> <Gold.PLP.part.hbond>
-2.9260

> <Gold.PLP.part.metal>
0.0000

> <Gold.PLP.part.buried>
-7.1221

> <Gold.PLP.part.nonpolar>
-34.9968

> <Gold.PLP.part.repulsive>
0.1095

> <Gold.PLP.ligand.clash>
0.0000

> <Gold.PLP.ligand.torsion>
0.6574

> <Gold.PLP.Chemscore.Hbond>
2.8873

> <Gold.PLP.Chemscore.CHOScore>
0.0000

> <Gold.PLP.Chemscore.Metal>
0.0000

> <Gold.Chemscore.Hbonds>
donor molecule, donor type, donor heavy atom, donor atom, acceptor molecule, acceptor atom, score
      L1  H     5    47       P1  8028  0.74
      P1  H  6896  6907       L1    14  1.00
      P1  H  7997  8008       L1    10  1.00

> <Gold.PLP.Chemscore.Internal.Correction>
0.0269

> <Gold.Rescore>
     Score         DG    S(hbond)    S(metal)    S(lipo)     H(rot)  DE(clash)    DE(int)     intcor
     18.85     -21.02       2.79        0.00     107.70       2.49       0.08       2.09       ----

> <Gold.Chemscore.Fitness>
18.8471

> <Gold.Chemscore.DG>
-21.0197

> <Gold.Chemscore.ZeroCoef>
-5.4800

> <Gold.Chemscore.Hbond>
2.7905

> <Gold.Chemscore.Metal>
0.0000

> <Gold.Chemscore.Lipo>
107.7024

> <Gold.Chemscore.Internal_Hbond>
0.0000

> <Gold.Chemscore.DEClash>
0.0810

> <Gold.Chemscore.DEInternal>
2.0916

> <Gold.Chemscore.Rot>
2.4929

> <Gold.Chemscore.Internal.Correction>
   9.000000E+99

> <Gold.Chemscore.Hbonds>
donor molecule, donor type, donor heavy atom, donor atom, acceptor molecule, acceptor atom, score
      L1  H     5    47       P1  8028  0.37
      P1  H  6896  6907       L1    14  0.97
      P1  H  7997  8008       L1    10  0.78

> <Gold.Chemscore.Hbond.Weighted>
-9.3204

> <Gold.Chemscore.Metal.Weighted>
-0.0000

> <Gold.Chemscore.Lipo.Weighted>
-12.6012

> <Gold.Chemscore.Internal_Hbond.Weighted>
0.0000

> <Gold.Chemscore.DEClash.Weighted>
0.0810

> <Gold.Chemscore.DEInternal.Weighted>
2.0916

> <Gold.Chemscore.Rot.Weighted>
6.3819

> <Gold.Chemscore.Internal.Correction.Weighted>
   9.000000E+99

> <Gold.Protein.RotatedTorsions>
[ 6907 6896 6895 6894 ] final   58.74 input  -60.11 | X-H torsion
[ 7974 7965 7964 7962 ] final  126.12 input  175.53 | X-H torsion
[ 8008 7997 7996 7995 ] final  -59.37 input   59.86 | X-H torsion
[ 10167 10162 10161 10158 ] final   74.96 input  -65.29 | X-H torsion
[ 10718 10713 10712 10709 ] final -153.46 input   66.30 | X-H torsion
[ 10763 10752 10751 10750 ] final  114.82 input  -60.55 | X-H torsion
[ 11005 11000 10999 10996 ] final   14.05 input  -57.11 | X-H torsion

> <Gold.Protein.ActiveResidues>
 VAL166  LYS551  ARG553  GLY616  TRP617  ASP618  TYR619  PRO620  LYS621  CYS622 
 ASP623  PHE694  ASN695  SER759  ASP760  ASP761  ALA762  ILE779  LEU786  VAL792 
 PHE793  MET794  SER795  GLU796  ALA797  LYS798  CYS799  TRP800  GLU811  SER814 

> <Gold.Protein.RotatedAtoms>
  152.3852  134.6529  160.0128 H   0  0  0  0  0  0  0  0  0  0  0  0  # atno 6907 bound_to 6896
  151.6780  133.3307  159.3220 H   0  0  0  0  0  0  0  0  0  0  0  0  # atno 6908 bound_to 6896
  150.7779  134.6742  159.6453 H   0  0  0  0  0  0  0  0  0  0  0  0  # atno 6909 bound_to 6896
  145.0653  139.3773  143.4985 H   0  0  0  0  0  0  0  0  0  0  0  0  # atno 7974 bound_to 7965
  154.4349  140.1063  156.6104 H   0  0  0  0  0  0  0  0  0  0  0  0  # atno 8008 bound_to 7997
  155.5815  140.3491  155.4523 H   0  0  0  0  0  0  0  0  0  0  0  0  # atno 8009 bound_to 7997
  156.0315  140.1261  157.0242 H   0  0  0  0  0  0  0  0  0  0  0  0  # atno 8010 bound_to 7997
  140.0081  144.5635  150.7681 H   0  0  0  0  0  0  0  0  0  0  0  0  # atno 10167 bound_to 10162
  156.4861  130.8326  151.2551 H   0  0  0  0  0  0  0  0  0  0  0  0  # atno 10718 bound_to 10713
  153.5130  135.3614  155.2595 H   0  0  0  0  0  0  0  0  0  0  0  0  # atno 10763 bound_to 10752
  154.8740  135.4027  154.3347 H   0  0  0  0  0  0  0  0  0  0  0  0  # atno 10764 bound_to 10752
  153.4003  135.7075  153.6497 H   0  0  0  0  0  0  0  0  0  0  0  0  # atno 10765 bound_to 10752
  140.4738  134.1004  155.7737 H   0  0  0  0  0  0  0  0  0  0  0  0  # atno 11005 bound_to 11000
  146.3526  140.0371  142.8646 LP  0  0  0  0  0  0  0  0  0  0  0  0  # atno 17320 bound_to 7965
  145.1359  140.9544  143.4517 LP  0  0  0  0  0  0  0  0  0  0  0  0  # atno 17321 bound_to 7965
  140.7392  143.2789  151.3659 LP  0  0  0  0  0  0  0  0  0  0  0  0  # atno 17342 bound_to 10162
  139.6224  144.0880  152.2404 LP  0  0  0  0  0  0  0  0  0  0  0  0  # atno 17343 bound_to 10162
  157.7478  131.0029  150.3017 LP  0  0  0  0  0  0  0  0  0  0  0  0  # atno 17370 bound_to 10713
  156.3473  130.3825  149.7358 LP  0  0  0  0  0  0  0  0  0  0  0  0  # atno 17371 bound_to 10713
  141.1564  133.8875  157.1966 LP  0  0  0  0  0  0  0  0  0  0  0  0  # atno 17394 bound_to 11000
  139.9868  135.0079  156.9882 LP  0  0  0  0  0  0  0  0  0  0  0  0  # atno 17395 bound_to 11000

$$$$
