AV-unprocessed.smi:2244|AV-procd|sdf|9073|dock8
  -GOLD-   2272012283D 1   1.00000     0.00000
 Structure written by MMmdl.
 49 51  0  0  0  0  0  0  0  0  1 V2000
  150.1174  127.8813  153.8382 C   0  0  0  0  0  0  0  0  0  0  0  0
  148.8835  128.6632  154.3425 C   0  0  0  0  0  0  0  0  0  0  0  0
  147.6838  128.2570  153.4615 C   0  0  0  0  0  0  0  0  0  0  0  0
  148.6304  128.2352  155.8032 C   0  0  0  0  0  0  0  0  0  0  0  0
  149.0855  130.1875  154.2741 C   0  0  0  0  0  0  0  0  0  0  0  0
  150.1278  130.8618  154.9488 C   0  0  0  0  0  0  0  0  0  0  0  0
  150.2063  132.2572  154.8035 C   0  0  0  0  0  0  0  0  0  0  0  0
  149.2487  132.9081  153.9997 C   0  0  0  0  0  0  0  0  0  0  0  0
  149.4059  134.3224  153.9085 N   0  0  0  0  0  0  0  0  0  0  0  0
  149.9822  135.2144  154.7425 C   0  0  0  0  0  0  0  0  0  0  0  0
  150.4955  134.8521  155.8000 O   0  0  0  0  0  0  0  0  0  0  0  0
  149.9592  136.4986  154.3498 N   0  0  0  0  0  0  0  0  0  0  0  0
  150.5190  137.6253  155.0885 C   0  0  1  0  0  0  0  0  0  0  0  0
  151.9355  137.9565  154.5908 C   0  0  0  0  0  0  0  0  0  0  0  0
  152.4534  139.2449  155.2490 C   0  0  0  0  0  0  0  0  0  0  0  0
  151.5476  140.3157  155.0046 O   0  0  0  0  0  0  0  0  0  0  0  0
  150.2565  140.0976  155.5656 C   0  0  1  0  0  0  0  0  0  0  0  0
  149.4262  141.3447  155.3354 C   0  0  0  0  0  0  0  0  0  0  0  0
  147.9497  141.3612  155.6543 C   0  0  0  0  0  0  0  0  0  0  0  0
  148.4112  141.4009  154.2177 C   0  0  0  0  0  0  0  0  0  0  0  0
  149.6181  138.8567  154.9146 C   0  0  0  0  0  0  0  0  0  0  0  0
  148.2742  132.1933  153.3812 N   0  0  0  0  0  0  0  0  0  0  0  0
  148.1934  130.8665  153.5130 N   0  0  0  0  0  0  0  0  0  0  0  0
  149.9544  126.8047  153.8990 H   0  0  0  0  0  0  0  0  0  0  0  0
  151.0048  128.1029  154.4323 H   0  0  0  0  0  0  0  0  0  0  0  0
  150.3422  128.1104  152.7959 H   0  0  0  0  0  0  0  0  0  0  0  0
  147.8379  128.5520  152.4228 H   0  0  0  0  0  0  0  0  0  0  0  0
  146.7569  128.7210  153.8000 H   0  0  0  0  0  0  0  0  0  0  0  0
  147.5262  127.1780  153.4765 H   0  0  0  0  0  0  0  0  0  0  0  0
  148.5035  127.1551  155.8849 H   0  0  0  0  0  0  0  0  0  0  0  0
  147.7292  128.6949  156.2105 H   0  0  0  0  0  0  0  0  0  0  0  0
  149.4632  128.5183  156.4477 H   0  0  0  0  0  0  0  0  0  0  0  0
  150.8551  130.3512  155.5606 H   0  0  0  0  0  0  0  0  0  0  0  0
  150.9883  132.8124  155.3012 H   0  0  0  0  0  0  0  0  0  0  0  0
  149.0116  134.7302  153.0734 H   0  0  0  0  0  0  0  0  0  0  0  0
  149.5181  136.7102  153.4656 H   0  0  0  0  0  0  0  0  0  0  0  0
  150.5607  137.3782  156.1511 H   0  0  0  0  0  0  0  0  0  0  0  0
  152.6170  137.1316  154.8006 H   0  0  0  0  0  0  0  0  0  0  0  0
  151.9269  138.0867  153.5076 H   0  0  0  0  0  0  0  0  0  0  0  0
  152.5883  139.1060  156.3227 H   0  0  0  0  0  0  0  0  0  0  0  0
  153.4282  139.5084  154.8385 H   0  0  0  0  0  0  0  0  0  0  0  0
  150.3548  139.9397  156.6414 H   0  0  0  0  0  0  0  0  0  0  0  0
  149.9635  142.2703  155.5329 H   0  0  0  0  0  0  0  0  0  0  0  0
  147.4974  140.4382  156.0111 H   0  0  0  0  0  0  0  0  0  0  0  0
  147.5387  142.2756  156.0772 H   0  0  0  0  0  0  0  0  0  0  0  0
  148.3073  142.3415  153.6811 H   0  0  0  0  0  0  0  0  0  0  0  0
  148.2661  140.5041  153.6188 H   0  0  0  0  0  0  0  0  0  0  0  0
  149.4550  139.0483  153.8526 H   0  0  0  0  0  0  0  0  0  0  0  0
  148.6366  138.6678  155.3516 H   0  0  0  0  0  0  0  0  0  0  0  0
  1  2  1  0  0  0  0
  1 24  1  0  0  0  0
  1 25  1  0  0  0  0
  1 26  1  0  0  0  0
  2  3  1  0  0  0  0
  2  4  1  0  0  0  0
  2  5  1  0  0  0  0
  3 27  1  0  0  0  0
  3 28  1  0  0  0  0
  3 29  1  0  0  0  0
  4 30  1  0  0  0  0
  4 31  1  0  0  0  0
  4 32  1  0  0  0  0
  5 23  1  0  0  0  0
  5  6  2  0  0  0  0
  6  7  1  0  0  0  0
  6 33  1  0  0  0  0
  7  8  2  0  0  0  0
  7 34  1  0  0  0  0
  8  9  1  0  0  0  0
  8 22  1  0  0  0  0
  9 10  1  0  0  0  0
  9 35  1  0  0  0  0
 10 11  2  0  0  0  0
 10 12  1  0  0  0  0
 12 13  1  0  0  0  0
 12 36  1  0  0  0  0
 13 21  1  0  0  0  0
 13 14  1  0  0  0  0
 13 37  1  0  0  0  0
 14 15  1  0  0  0  0
 14 38  1  0  0  0  0
 14 39  1  0  0  0  0
 15 16  1  0  0  0  0
 15 40  1  0  0  0  0
 15 41  1  0  0  0  0
 16 17  1  0  0  0  0
 17 18  1  0  0  0  0
 17 21  1  0  0  0  0
 17 42  1  0  0  0  0
 18 20  1  0  0  0  0
 18 19  1  0  0  0  0
 18 43  1  0  0  0  0
 19 20  1  0  0  0  0
 19 44  1  0  0  0  0
 19 45  1  0  0  0  0
 20 46  1  0  0  0  0
 20 47  1  0  0  0  0
 21 48  1  0  0  0  0
 21 49  1  0  0  0  0
 22 23  2  0  0  0  0
M  END
> <s_m_source_file>
AV-unprocessed.smi

> <i_m_source_file_index>
2244

> <i_lp_mmshare_version>
43012

> <i_f3d_flags>
0

> <s_epik_input>
W0NIM11DKFtDSDNdKShbQ0gzXSljMVtjSF1bY0hdYyhubjEpW05IXUMoPU8pW05IXVtDQEBIXTJbQ0gyXVtDSDJdT1tDQEhdKFtDSDJdMilbQ0hdM1tDSDJdW0NIMl0z

> <s_epik_cmdline>
J2VwaWtfcHl0aG9uJywgJy1waCcsICc3LjAnLCAnLXRuJywgJzgnLCAnLW1hJywgJzIwMCcsICctbWV0YWxfYmluZGluZycsICctaW1hZScsICc8aW5maWxlLm1hZT4nLCAnLW9tYWUnLCAnPG91dGZpbGUubWFlPic=

> <r_lp_tautomer_probability>
1

> <r_epik_Ionization_Penalty>
0.011369

> <r_epik_Ionization_Penalty_Charging>
0

> <r_epik_Ionization_Penalty_Neutral>
0.011369

> <r_epik_State_Penalty>
0.00456331

> <r_epik_Charging_Adjusted_Penalty>
0.00456331

> <i_epik_Tot_Q>
0

> <i_epik_Tot_abs_Q>
0

> <r_epik_Metal_State_Penalty>
-0

> <b_epik_Metal_Only>
0

> <s_lp_Force_Field>
OPLS_2005

> <r_lp_Energy>
27.405

> <b_lp_Chiralities_Consistent>
1

> <s_lp_Variant>
AV-unprocessed.smi:2244-2

> <Gold.Version>
5.8.1

> <Gold.Id.Protein>
6NUR|6NUR_protein|mol2

> <Gold.PLP.Fitness>
42.9715

> <Gold.PLP.PLP>
-35.8280

> <Gold.PLP.part.hbond>
-3.3085

> <Gold.PLP.part.metal>
0.0000

> <Gold.PLP.part.buried>
-2.7294

> <Gold.PLP.part.nonpolar>
-31.4500

> <Gold.PLP.part.repulsive>
0.3471

> <Gold.PLP.ligand.clash>
0.0000

> <Gold.PLP.ligand.torsion>
1.0822

> <Gold.PLP.Chemscore.Hbond>
2.7440

> <Gold.PLP.Chemscore.CHOScore>
0.0000

> <Gold.PLP.Chemscore.Metal>
0.0000

> <Gold.Chemscore.Hbonds>
donor molecule, donor type, donor heavy atom, donor atom, acceptor molecule, acceptor atom, score
      L1  H     9    35       P1  7948  0.62
      L1  H    12    36       P1  7948  1.00
      P1  H  7989  7998       L1    16  0.96

> <Gold.PLP.Chemscore.Internal.Correction>
1.0759

> <Gold.Rescore>
     Score         DG    S(hbond)    S(metal)    S(lipo)     H(rot)  DE(clash)    DE(int)     intcor
     15.53     -18.06       1.94        0.00      80.48       1.30       0.03       2.50       ----

> <Gold.Chemscore.Fitness>
15.5269

> <Gold.Chemscore.DG>
-18.0612

> <Gold.Chemscore.ZeroCoef>
-5.4800

> <Gold.Chemscore.Hbond>
1.9440

> <Gold.Chemscore.Metal>
0.0000

> <Gold.Chemscore.Lipo>
80.4831

> <Gold.Chemscore.Internal_Hbond>
0.0000

> <Gold.Chemscore.DEClash>
0.0301

> <Gold.Chemscore.DEInternal>
2.5042

> <Gold.Chemscore.Rot>
1.3002

> <Gold.Chemscore.Internal.Correction>
   9.000000E+99

> <Gold.Chemscore.Hbonds>
donor molecule, donor type, donor heavy atom, donor atom, acceptor molecule, acceptor atom, score
      L1  H     9    35       P1  7948  0.05
      L1  H    12    36       P1  7948  0.75
      P1  H  7989  7998       L1    16  0.72

> <Gold.Chemscore.Hbond.Weighted>
-6.4931

> <Gold.Chemscore.Metal.Weighted>
-0.0000

> <Gold.Chemscore.Lipo.Weighted>
-9.4165

> <Gold.Chemscore.Internal_Hbond.Weighted>
0.0000

> <Gold.Chemscore.DEClash.Weighted>
0.0301

> <Gold.Chemscore.DEInternal.Weighted>
2.5042

> <Gold.Chemscore.Rot.Weighted>
3.3284

> <Gold.Chemscore.Internal.Correction.Weighted>
   9.000000E+99

> <Gold.Protein.RotatedTorsions>
[ 6907 6896 6895 6894 ] final  121.14 input  -60.11 | X-H torsion
[ 7974 7965 7964 7962 ] final   44.66 input  175.53 | X-H torsion
[ 8008 7997 7996 7995 ] final -144.71 input   59.86 | X-H torsion
[ 10167 10162 10161 10158 ] final    0.15 input  -65.29 | X-H torsion
[ 10718 10713 10712 10709 ] final -132.53 input   66.30 | X-H torsion
[ 10763 10752 10751 10750 ] final  143.76 input  -60.55 | X-H torsion
[ 11005 11000 10999 10996 ] final  113.29 input  -57.11 | X-H torsion

> <Gold.Protein.ActiveResidues>
 VAL166  LYS551  ARG553  GLY616  TRP617  ASP618  TYR619  PRO620  LYS621  CYS622 
 ASP623  PHE694  ASN695  SER759  ASP760  ASP761  ALA762  ILE779  LEU786  VAL792 
 PHE793  MET794  SER795  GLU796  ALA797  LYS798  CYS799  TRP800  GLU811  SER814 

> <Gold.Protein.RotatedAtoms>
  152.4345  133.7336  159.6600 H   0  0  0  0  0  0  0  0  0  0  0  0  # atno 6907 bound_to 6896
  150.8227  133.8214  159.3138 H   0  0  0  0  0  0  0  0  0  0  0  0  # atno 6908 bound_to 6896
  151.5892  135.1056  160.0086 H   0  0  0  0  0  0  0  0  0  0  0  0  # atno 6909 bound_to 6896
  146.0549  139.5050  142.9695 H   0  0  0  0  0  0  0  0  0  0  0  0  # atno 7974 bound_to 7965
  155.5313  140.0600  157.2888 H   0  0  0  0  0  0  0  0  0  0  0  0  # atno 8008 bound_to 7997
  154.4483  140.1935  156.0542 H   0  0  0  0  0  0  0  0  0  0  0  0  # atno 8009 bound_to 7997
  156.0650  140.3267  155.7511 H   0  0  0  0  0  0  0  0  0  0  0  0  # atno 8010 bound_to 7997
  140.6741  143.6965  150.7985 H   0  0  0  0  0  0  0  0  0  0  0  0  # atno 10167 bound_to 10162
  156.2355  130.7064  151.0903 H   0  0  0  0  0  0  0  0  0  0  0  0  # atno 10718 bound_to 10713
  153.9776  135.2944  155.3422 H   0  0  0  0  0  0  0  0  0  0  0  0  # atno 10763 bound_to 10752
  154.7287  135.5077  153.8931 H   0  0  0  0  0  0  0  0  0  0  0  0  # atno 10764 bound_to 10752
  153.0870  135.6696  154.0044 H   0  0  0  0  0  0  0  0  0  0  0  0  # atno 10765 bound_to 10752
  139.8949  134.9547  156.6717 H   0  0  0  0  0  0  0  0  0  0  0  0  # atno 11005 bound_to 11000
  145.6660  141.0228  143.1683 LP  0  0  0  0  0  0  0  0  0  0  0  0  # atno 17320 bound_to 7965
  144.7142  139.8256  143.7404 LP  0  0  0  0  0  0  0  0  0  0  0  0  # atno 17321 bound_to 7965
  140.0656  143.5112  152.2606 LP  0  0  0  0  0  0  0  0  0  0  0  0  # atno 17342 bound_to 10162
  139.6024  144.7586  151.3140 LP  0  0  0  0  0  0  0  0  0  0  0  0  # atno 17343 bound_to 10162
  157.7152  131.0713  150.6352 LP  0  0  0  0  0  0  0  0  0  0  0  0  # atno 17370 bound_to 10713
  156.6422  130.4461  149.5748 LP  0  0  0  0  0  0  0  0  0  0  0  0  # atno 17371 bound_to 10713
  140.7368  133.9011  155.8250 LP  0  0  0  0  0  0  0  0  0  0  0  0  # atno 17394 bound_to 11000
  141.0109  134.1021  157.4222 LP  0  0  0  0  0  0  0  0  0  0  0  0  # atno 17395 bound_to 11000

$$$$
