AV-unprocessed.smi:3231|AV-procd|sdf|12335|dock1
  -GOLD-   2272018193D 1   1.00000     0.00000
 Structure written by MMmdl.
 42 43  0  0  0  0  0  0  0  0  3 V2000
  147.3434  138.3567  151.1282 O   0  0  0  0  0  0  0  0  0  0  0  0
  146.5475  138.7056  152.2447 C   0  0  2  0  0  0  0  0  0  0  0  0
  147.4906  139.1416  153.3810 C   0  0  0  0  0  0  0  0  0  0  0  0
  148.8187  138.5062  153.2569 N   0  3  0  0  0  0  0  0  0  0  0  0
  149.6107  138.5187  154.5020 C   0  0  0  0  0  0  0  0  0  0  0  0
  150.6356  139.6622  154.4908 C   0  0  0  0  0  0  0  0  0  0  0  0
  150.7996  140.2519  155.8055 N   0  0  0  0  0  0  0  0  0  0  0  0
  150.5011  141.5344  156.2163 C   0  0  0  0  0  0  0  0  0  0  0  0
  150.8331  141.6245  157.5378 C   0  0  0  0  0  0  0  0  0  0  0  0
  151.3359  140.3303  157.8495 C   0  0  0  0  0  0  0  0  0  0  0  0
  151.3154  139.5113  156.8102 N   0  0  0  0  0  0  0  0  0  0  0  0
  145.6982  137.4817  152.6525 C   0  0  0  0  0  0  0  0  0  0  0  0
  144.3676  137.8417  153.2098 N   0  3  0  0  0  0  0  0  0  0  0  0
  143.3044  136.9069  152.7678 C   0  0  0  0  0  0  0  0  0  0  0  0
  141.9357  137.3409  153.3197 C   0  0  0  0  0  0  0  0  0  0  0  0
  141.9973  137.4162  154.7380 O   0  0  0  0  0  0  0  0  0  0  0  0
  142.9484  138.3768  155.1781 C   0  0  0  0  0  0  0  0  0  0  0  0
  144.3519  137.9787  154.6881 C   0  0  0  0  0  0  0  0  0  0  0  0
  148.0401  137.7843  151.4122 H   0  0  0  0  0  0  0  0  0  0  0  0
  145.9081  139.5462  151.9771 H   0  0  0  0  0  0  0  0  0  0  0  0
  147.6265  140.2236  153.3539 H   0  0  0  0  0  0  0  0  0  0  0  0
  147.0549  138.8999  154.3520 H   0  0  0  0  0  0  0  0  0  0  0  0
  148.6837  137.5451  152.9758 H   0  0  0  0  0  0  0  0  0  0  0  0
  148.9406  138.6265  155.3561 H   0  0  0  0  0  0  0  0  0  0  0  0
  150.1190  137.5592  154.6089 H   0  0  0  0  0  0  0  0  0  0  0  0
  151.6079  139.3026  154.1506 H   0  0  0  0  0  0  0  0  0  0  0  0
  150.3256  140.4441  153.7960 H   0  0  0  0  0  0  0  0  0  0  0  0
  150.0824  142.2682  155.5430 H   0  0  0  0  0  0  0  0  0  0  0  0
  150.7338  142.4845  158.1835 H   0  0  0  0  0  0  0  0  0  0  0  0
  151.7130  139.9644  158.7932 H   0  0  0  0  0  0  0  0  0  0  0  0
  145.5623  136.8481  151.7742 H   0  0  0  0  0  0  0  0  0  0  0  0
  146.2346  136.8737  153.3829 H   0  0  0  0  0  0  0  0  0  0  0  0
  143.2646  136.8782  151.6783 H   0  0  0  0  0  0  0  0  0  0  0  0
  143.5398  135.8968  153.1071 H   0  0  0  0  0  0  0  0  0  0  0  0
  141.6336  138.3033  152.9035 H   0  0  0  0  0  0  0  0  0  0  0  0
  141.1703  136.6180  153.0372 H   0  0  0  0  0  0  0  0  0  0  0  0
  142.6755  139.3696  154.8162 H   0  0  0  0  0  0  0  0  0  0  0  0
  142.9288  138.4195  156.2672 H   0  0  0  0  0  0  0  0  0  0  0  0
  144.6505  137.0350  155.1475 H   0  0  0  0  0  0  0  0  0  0  0  0
  145.0676  138.7328  155.0125 H   0  0  0  0  0  0  0  0  0  0  0  0
  149.3414  138.9831  152.5364 H   0  0  0  0  0  0  0  0  0  0  0  0
  144.1238  138.7430  152.8246 H   0  0  0  0  0  0  0  0  0  0  0  0
  1  2  1  0  0  0  0
  1 19  1  0  0  0  0
  2  3  1  0  0  0  0
  2 12  1  0  0  0  0
  2 20  1  0  0  0  0
  3  4  1  0  0  0  0
  3 21  1  0  0  0  0
  3 22  1  0  0  0  0
  4  5  1  0  0  0  0
  4 23  1  0  0  0  0
  4 41  1  0  0  0  0
  5  6  1  0  0  0  0
  5 24  1  0  0  0  0
  5 25  1  0  0  0  0
  6  7  1  0  0  0  0
  6 26  1  0  0  0  0
  6 27  1  0  0  0  0
  7 11  1  0  0  0  0
  7  8  1  0  0  0  0
  8  9  2  0  0  0  0
  8 28  1  0  0  0  0
  9 10  1  0  0  0  0
  9 29  1  0  0  0  0
 10 11  2  0  0  0  0
 10 30  1  0  0  0  0
 12 13  1  0  0  0  0
 12 31  1  0  0  0  0
 12 32  1  0  0  0  0
 13 18  1  0  0  0  0
 13 14  1  0  0  0  0
 13 42  1  0  0  0  0
 14 15  1  0  0  0  0
 14 33  1  0  0  0  0
 14 34  1  0  0  0  0
 15 16  1  0  0  0  0
 15 35  1  0  0  0  0
 15 36  1  0  0  0  0
 16 17  1  0  0  0  0
 17 18  1  0  0  0  0
 17 37  1  0  0  0  0
 17 38  1  0  0  0  0
 18 39  1  0  0  0  0
 18 40  1  0  0  0  0
M  CHG  1   4   1
M  CHG  1  13   1
M  END
> <s_m_source_file>
AV-unprocessed.smi

> <i_m_source_file_index>
3231

> <i_lp_mmshare_version>
43012

> <i_f3d_flags>
0

> <s_epik_input>
W0NIMl0xW0NIMl1PW0NIMl1bQ0gyXU4xW0NIMl1bQ0BIXShbT0hdKVtDSDJdW05IXVtDSDJdW0NIMl1uMltjSF1bY0hdW2NIXW4y

> <s_epik_cmdline>
J2VwaWtfcHl0aG9uJywgJy1waCcsICc3LjAnLCAnLXRuJywgJzgnLCAnLW1hJywgJzIwMCcsICctbWV0YWxfYmluZGluZycsICctaW1hZScsICc8aW5maWxlLm1hZT4nLCAnLW9tYWUnLCAnPG91dGZpbGUubWFlPic=

> <r_lp_tautomer_probability>
1

> <r_epik_Ionization_Penalty>
2.09881

> <r_epik_Ionization_Penalty_Charging>
2.09628

> <r_epik_Ionization_Penalty_Neutral>
0.0025303

> <r_epik_State_Penalty>
1.58657

> <r_epik_Charging_Adjusted_Penalty>
3.68285

> <i_epik_Tot_Q>
2

> <i_epik_Tot_abs_Q>
2

> <r_epik_Metal_State_Penalty>
1.58685

> <b_epik_Metal_Only>
0

> <s_lp_Force_Field>
OPLS_2005

> <r_lp_Energy>
26.6316

> <b_lp_Chiralities_Consistent>
1

> <s_lp_Variant>
AV-unprocessed.smi:3231-5

> <Gold.Version>
5.8.1

> <Gold.Id.Protein>
6NUR|6NUR_protein|mol2

> <Gold.PLP.Fitness>
50.1441

> <Gold.PLP.PLP>
-32.6184

> <Gold.PLP.part.hbond>
-5.8790

> <Gold.PLP.part.metal>
0.0000

> <Gold.PLP.part.buried>
-0.2167

> <Gold.PLP.part.nonpolar>
-25.9768

> <Gold.PLP.part.repulsive>
0.1199

> <Gold.PLP.ligand.clash>
0.0000

> <Gold.PLP.ligand.torsion>
1.9782

> <Gold.PLP.Chemscore.Hbond>
6.0000

> <Gold.PLP.Chemscore.CHOScore>
0.9946

> <Gold.PLP.Chemscore.Metal>
0.0000

> <Gold.Chemscore.Hbonds>
donor molecule, donor type, donor heavy atom, donor atom, acceptor molecule, acceptor atom, score
      L1  H     1    19       P1  7948  1.00
      L1  H     4    23       P1  7948  1.98
      L1  H     4    41       P1  7957  1.00
      L1  H    13    42       P1 10175  2.00
      L1  C     8    28       P1  8028  0.51

> <Gold.PLP.Chemscore.Internal.Correction>
0.4983

> <Gold.Rescore>
     Score         DG    S(hbond)    S(metal)    S(lipo)     H(rot)  DE(clash)    DE(int)     intcor
     16.08     -17.99       3.94        0.00      58.96       2.94       0.06       1.85       ----

> <Gold.Chemscore.Fitness>
16.0786

> <Gold.Chemscore.DG>
-17.9891

> <Gold.Chemscore.ZeroCoef>
-5.4800

> <Gold.Chemscore.Hbond>
3.9362

> <Gold.Chemscore.Metal>
0.0000

> <Gold.Chemscore.Lipo>
58.9588

> <Gold.Chemscore.Internal_Hbond>
0.0000

> <Gold.Chemscore.DEClash>
0.0570

> <Gold.Chemscore.DEInternal>
1.8534

> <Gold.Chemscore.Rot>
2.9437

> <Gold.Chemscore.Internal.Correction>
   9.000000E+99

> <Gold.Chemscore.Hbonds>
donor molecule, donor type, donor heavy atom, donor atom, acceptor molecule, acceptor atom, score
      L1  H     1    19       P1  7948  1.00
      L1  H     4    23       P1  7948  0.93
      L1  H     4    41       P1  7957  0.95
      L1  H    13    42       P1 10175  1.00

> <Gold.Chemscore.Hbond.Weighted>
-13.1467

> <Gold.Chemscore.Metal.Weighted>
-0.0000

> <Gold.Chemscore.Lipo.Weighted>
-6.8982

> <Gold.Chemscore.Internal_Hbond.Weighted>
0.0000

> <Gold.Chemscore.DEClash.Weighted>
0.0570

> <Gold.Chemscore.DEInternal.Weighted>
1.8534

> <Gold.Chemscore.Rot.Weighted>
7.5359

> <Gold.Chemscore.Internal.Correction.Weighted>
   9.000000E+99

> <Gold.Protein.RotatedTorsions>
[ 6907 6896 6895 6894 ] final  -54.00 input  -60.11 | X-H torsion
[ 7974 7965 7964 7962 ] final  -50.97 input  175.53 | X-H torsion
[ 8008 7997 7996 7995 ] final -149.85 input   59.86 | X-H torsion
[ 10167 10162 10161 10158 ] final   98.34 input  -65.29 | X-H torsion
[ 10718 10713 10712 10709 ] final -136.06 input   66.30 | X-H torsion
[ 10763 10752 10751 10750 ] final  115.13 input  -60.55 | X-H torsion
[ 11005 11000 10999 10996 ] final    4.32 input  -57.11 | X-H torsion

> <Gold.Protein.ActiveResidues>
 VAL166  LYS551  ARG553  GLY616  TRP617  ASP618  TYR619  PRO620  LYS621  CYS622 
 ASP623  PHE694  ASN695  SER759  ASP760  ASP761  ALA762  ILE779  LEU786  VAL792 
 PHE793  MET794  SER795  GLU796  ALA797  LYS798  CYS799  TRP800  GLU811  SER814 

> <Gold.Protein.RotatedAtoms>
  150.8376  134.7656  159.6905 H   0  0  0  0  0  0  0  0  0  0  0  0  # atno 6907 bound_to 6896
  152.4470  134.5470  159.9865 H   0  0  0  0  0  0  0  0  0  0  0  0  # atno 6908 bound_to 6896
  151.5617  133.3364  159.3008 H   0  0  0  0  0  0  0  0  0  0  0  0  # atno 6909 bound_to 6896
  145.9241  140.7808  142.9633 H   0  0  0  0  0  0  0  0  0  0  0  0  # atno 7974 bound_to 7965
  155.6142  140.0675  157.2697 H   0  0  0  0  0  0  0  0  0  0  0  0  # atno 8008 bound_to 7997
  154.4245  140.1796  156.1352 H   0  0  0  0  0  0  0  0  0  0  0  0  # atno 8009 bound_to 7997
  156.0061  140.3331  155.6897 H   0  0  0  0  0  0  0  0  0  0  0  0  # atno 8010 bound_to 7997
  139.7718  144.6920  151.0145 H   0  0  0  0  0  0  0  0  0  0  0  0  # atno 10167 bound_to 10162
  156.2729  130.7276  151.1249 H   0  0  0  0  0  0  0  0  0  0  0  0  # atno 10718 bound_to 10713
  153.5176  135.3604  155.2616 H   0  0  0  0  0  0  0  0  0  0  0  0  # atno 10763 bound_to 10752
  154.8737  135.4038  154.3296 H   0  0  0  0  0  0  0  0  0  0  0  0  # atno 10764 bound_to 10752
  153.3961  135.7073  153.6526 H   0  0  0  0  0  0  0  0  0  0  0  0  # atno 10765 bound_to 10752
  140.5832  133.9993  155.8056 H   0  0  0  0  0  0  0  0  0  0  0  0  # atno 11005 bound_to 11000
  144.6756  140.2022  143.7386 LP  0  0  0  0  0  0  0  0  0  0  0  0  # atno 17320 bound_to 7965
  145.8512  139.2176  143.1771 LP  0  0  0  0  0  0  0  0  0  0  0  0  # atno 17321 bound_to 7965
  140.7814  143.4580  151.0318 LP  0  0  0  0  0  0  0  0  0  0  0  0  # atno 17342 bound_to 10162
  139.8263  143.7751  152.3178 LP  0  0  0  0  0  0  0  0  0  0  0  0  # atno 17343 bound_to 10162
  157.7290  131.0628  150.5795 LP  0  0  0  0  0  0  0  0  0  0  0  0  # atno 17370 bound_to 10713
  156.5893  130.4325  149.5943 LP  0  0  0  0  0  0  0  0  0  0  0  0  # atno 17371 bound_to 10713
  141.0983  133.9809  157.3123 LP  0  0  0  0  0  0  0  0  0  0  0  0  # atno 17394 bound_to 11000
  139.9307  135.0200  156.8392 LP  0  0  0  0  0  0  0  0  0  0  0  0  # atno 17395 bound_to 11000

$$$$
