AV-unprocessed.smi:2079|AV-procd|sdf|8484|dock9
  -GOLD-   2272011193D 1   1.00000     0.00000
 Structure written by MMmdl.
 41 42  0  0  0  0  0  0  0  0  3 V2000
  143.8432  144.0216  163.0913 C   0  0  0  0  0  0  0  0  0  0  0  0
  144.4990  143.4410  161.8858 C   0  0  0  0  0  0  0  0  0  0  0  0
  145.1384  143.9989  160.8147 C   0  0  0  0  0  0  0  0  0  0  0  0
  145.5129  142.8689  160.0396 C   0  0  0  0  0  0  0  0  0  0  0  0
  146.2131  143.0305  158.8149 N   0  0  0  0  0  0  0  0  0  0  0  0
  146.7647  142.0879  158.0288 C   0  0  0  0  0  0  0  0  0  0  0  0
  146.7095  140.8946  158.3504 O   0  0  0  0  0  0  0  0  0  0  0  0
  147.3486  142.6186  156.9185 N   0  5  0  0  0  0  0  0  0  0  0  0
  148.5999  142.1466  156.3273 C   0  0  0  0  0  0  0  0  0  0  0  0
  149.6667  141.9356  157.4213 C   0  0  0  0  0  0  0  0  0  0  0  0
  150.3192  143.2142  157.8140 N   0  3  1  0  0  0  0  0  0  0  0  0
  149.7936  143.8070  159.0779 C   0  0  0  0  0  0  0  0  0  0  0  0
  150.3395  145.2290  159.2872 C   0  0  0  0  0  0  0  0  0  0  0  0
  151.8731  145.2443  159.2646 C   0  0  0  0  0  0  0  0  0  0  0  0
  152.3897  144.5897  157.9742 C   0  0  0  0  0  0  0  0  0  0  0  0
  151.8118  143.1734  157.7701 C   0  0  1  0  0  0  0  0  0  0  0  0
  152.4249  142.1421  158.7429 C   0  0  0  0  0  0  0  0  0  0  0  0
  145.1384  141.7242  160.5918 N   0  0  0  0  0  0  0  0  0  0  0  0
  144.4860  142.0850  161.7765 O   0  0  0  0  0  0  0  0  0  0  0  0
  144.0520  145.0884  163.1730 H   0  0  0  0  0  0  0  0  0  0  0  0
  144.2022  143.5365  163.9990 H   0  0  0  0  0  0  0  0  0  0  0  0
  142.7621  143.8909  163.0420 H   0  0  0  0  0  0  0  0  0  0  0  0
  145.3074  145.0470  160.6172 H   0  0  0  0  0  0  0  0  0  0  0  0
  146.2975  143.9799  158.4834 H   0  0  0  0  0  0  0  0  0  0  0  0
  148.4691  141.2162  155.7729 H   0  0  0  0  0  0  0  0  0  0  0  0
  148.9794  142.8637  155.5993 H   0  0  0  0  0  0  0  0  0  0  0  0
  149.2407  141.4472  158.2992 H   0  0  0  0  0  0  0  0  0  0  0  0
  150.4178  141.2499  157.0265 H   0  0  0  0  0  0  0  0  0  0  0  0
  148.7047  143.8521  159.0474 H   0  0  0  0  0  0  0  0  0  0  0  0
  150.0483  143.1716  159.9266 H   0  0  0  0  0  0  0  0  0  0  0  0
  149.9563  145.8848  158.5043 H   0  0  0  0  0  0  0  0  0  0  0  0
  149.9766  145.6324  160.2328 H   0  0  0  0  0  0  0  0  0  0  0  0
  152.2385  146.2691  159.3377 H   0  0  0  0  0  0  0  0  0  0  0  0
  152.2617  144.7163  160.1358 H   0  0  0  0  0  0  0  0  0  0  0  0
  152.1109  145.2144  157.1243 H   0  0  0  0  0  0  0  0  0  0  0  0
  153.4797  144.5580  157.9802 H   0  0  0  0  0  0  0  0  0  0  0  0
  152.0914  142.8653  156.7614 H   0  0  0  0  0  0  0  0  0  0  0  0
  153.5109  142.1243  158.6484 H   0  0  0  0  0  0  0  0  0  0  0  0
  152.0718  141.1315  158.5380 H   0  0  0  0  0  0  0  0  0  0  0  0
  152.1965  142.3645  159.7846 H   0  0  0  0  0  0  0  0  0  0  0  0
  150.0600  143.8609  157.0826 H   0  0  0  0  0  0  0  0  0  0  0  0
  1  2  1  0  0  0  0
  1 20  1  0  0  0  0
  1 21  1  0  0  0  0
  1 22  1  0  0  0  0
  2 19  1  0  0  0  0
  2  3  2  0  0  0  0
  3  4  1  0  0  0  0
  3 23  1  0  0  0  0
  4  5  1  0  0  0  0
  4 18  2  0  0  0  0
  5  6  1  0  0  0  0
  5 24  1  0  0  0  0
  6  7  2  0  0  0  0
  6  8  1  0  0  0  0
  8  9  1  0  0  0  0
  9 10  1  0  0  0  0
  9 25  1  0  0  0  0
  9 26  1  0  0  0  0
 10 11  1  0  0  0  0
 10 27  1  0  0  0  0
 10 28  1  0  0  0  0
 11 16  1  0  0  0  0
 11 12  1  0  0  0  0
 11 41  1  0  0  0  0
 12 13  1  0  0  0  0
 12 29  1  0  0  0  0
 12 30  1  0  0  0  0
 13 14  1  0  0  0  0
 13 31  1  0  0  0  0
 13 32  1  0  0  0  0
 14 15  1  0  0  0  0
 14 33  1  0  0  0  0
 14 34  1  0  0  0  0
 15 16  1  0  0  0  0
 15 35  1  0  0  0  0
 15 36  1  0  0  0  0
 16 17  1  0  0  0  0
 16 37  1  0  0  0  0
 17 38  1  0  0  0  0
 17 39  1  0  0  0  0
 17 40  1  0  0  0  0
 18 19  1  0  0  0  0
M  CHG  1   8  -1
M  CHG  1  11   1
M  END
> <s_m_source_file>
AV-unprocessed.smi

> <i_m_source_file_index>
2079

> <i_lp_mmshare_version>
43012

> <i_f3d_flags>
0

> <s_epik_input>
W0NIM11jMVtjSF1jKG5vMSlbTkhdQyg9TylbTkhdW0NIMl1bQ0gyXU4yW0NIMl1bQ0gyXVtDSDJdW0NIMl1bQ0BIXTJbQ0gzXQ==

> <s_epik_cmdline>
J2VwaWtfcHl0aG9uJywgJy1waCcsICc3LjAnLCAnLXRuJywgJzgnLCAnLW1hJywgJzIwMCcsICctbWV0YWxfYmluZGluZycsICctaW1hZScsICc8aW5maWxlLm1hZT4nLCAnLW9tYWUnLCAnPG91dGZpbGUubWFlPic=

> <r_epik_Ionization_Penalty>
6.7666

> <r_epik_Ionization_Penalty_Charging>
6.7666

> <r_epik_Ionization_Penalty_Neutral>
5.77131e-06

> <r_epik_State_Penalty>
6.79217

> <r_epik_Charging_Adjusted_Penalty>
13.5588

> <i_epik_Tot_Q>
0

> <i_epik_Tot_abs_Q>
2

> <r_epik_Metal_State_Penalty>
2.72569

> <b_epik_Metal_Only>
1

> <s_lp_Force_Field>
OPLS_2005

> <r_lp_Energy>
14.7698

> <b_lp_Chiralities_Consistent>
1

> <s_lp_Variant>
AV-unprocessed.smi:2079-10

> <Gold.Version>
5.8.1

> <Gold.Id.Protein>
6NUR|6NUR_protein|mol2

> <Gold.PLP.Fitness>
39.5408

> <Gold.PLP.PLP>
-32.7288

> <Gold.PLP.part.hbond>
-4.5036

> <Gold.PLP.part.metal>
0.0000

> <Gold.PLP.part.buried>
-0.7768

> <Gold.PLP.part.nonpolar>
-27.8257

> <Gold.PLP.part.repulsive>
1.9281

> <Gold.PLP.ligand.clash>
0.0000

> <Gold.PLP.ligand.torsion>
1.1230

> <Gold.PLP.Chemscore.Hbond>
3.0000

> <Gold.PLP.Chemscore.CHOScore>
0.0000

> <Gold.PLP.Chemscore.Metal>
0.0000

> <Gold.Chemscore.Hbonds>
donor molecule, donor type, donor heavy atom, donor atom, acceptor molecule, acceptor atom, score
      L1  H    11    41       P1  8028  2.00
      P1  H  6934  6946       L1    18  1.00

> <Gold.PLP.Chemscore.Internal.Correction>
0.0579

> <Gold.Rescore>
     Score         DG    S(hbond)    S(metal)    S(lipo)     H(rot)  DE(clash)    DE(int)     intcor
     11.76     -16.23       1.04        0.00      95.88       1.54       2.01       2.45       ----

> <Gold.Chemscore.Fitness>
11.7637

> <Gold.Chemscore.DG>
-16.2280

> <Gold.Chemscore.ZeroCoef>
-5.4800

> <Gold.Chemscore.Hbond>
1.0402

> <Gold.Chemscore.Metal>
0.0000

> <Gold.Chemscore.Lipo>
95.8842

> <Gold.Chemscore.Internal_Hbond>
0.0000

> <Gold.Chemscore.DEClash>
2.0108

> <Gold.Chemscore.DEInternal>
2.4535

> <Gold.Chemscore.Rot>
1.5409

> <Gold.Chemscore.Internal.Correction>
   9.000000E+99

> <Gold.Chemscore.Hbonds>
donor molecule, donor type, donor heavy atom, donor atom, acceptor molecule, acceptor atom, score
      L1  H    11    41       P1  8028  0.90
      P1  H  6934  6946       L1    18  0.23

> <Gold.Chemscore.Hbond.Weighted>
-3.4741

> <Gold.Chemscore.Metal.Weighted>
-0.0000

> <Gold.Chemscore.Lipo.Weighted>
-11.2184

> <Gold.Chemscore.Internal_Hbond.Weighted>
0.0000

> <Gold.Chemscore.DEClash.Weighted>
2.0108

> <Gold.Chemscore.DEInternal.Weighted>
2.4535

> <Gold.Chemscore.Rot.Weighted>
3.9446

> <Gold.Chemscore.Internal.Correction.Weighted>
   9.000000E+99

> <Gold.Protein.RotatedTorsions>
[ 6907 6896 6895 6894 ] final -138.84 input  -60.11 | X-H torsion
[ 7974 7965 7964 7962 ] final  141.67 input  175.53 | X-H torsion
[ 8008 7997 7996 7995 ] final  136.10 input   59.86 | X-H torsion
[ 10167 10162 10161 10158 ] final -119.87 input  -65.29 | X-H torsion
[ 10718 10713 10712 10709 ] final   78.81 input   66.30 | X-H torsion
[ 10763 10752 10751 10750 ] final -140.70 input  -60.55 | X-H torsion
[ 11005 11000 10999 10996 ] final -114.53 input  -57.11 | X-H torsion

> <Gold.Protein.ActiveResidues>
 VAL166  LYS551  ARG553  GLY616  TRP617  ASP618  TYR619  PRO620  LYS621  CYS622 
 ASP623  PHE694  ASN695  SER759  ASP760  ASP761  ALA762  ILE779  LEU786  VAL792 
 PHE793  MET794  SER795  GLU796  ALA797  LYS798  CYS799  TRP800  GLU811  SER814 

> <Gold.Protein.RotatedAtoms>
  151.0401  133.5713  159.2651 H   0  0  0  0  0  0  0  0  0  0  0  0  # atno 6907 bound_to 6896
  151.2763  135.0699  159.9162 H   0  0  0  0  0  0  0  0  0  0  0  0  # atno 6908 bound_to 6896
  152.5362  134.0123  159.7998 H   0  0  0  0  0  0  0  0  0  0  0  0  # atno 6909 bound_to 6896
  144.9075  139.5338  143.5724 H   0  0  0  0  0  0  0  0  0  0  0  0  # atno 7974 bound_to 7965
  156.3004  140.2454  156.3689 H   0  0  0  0  0  0  0  0  0  0  0  0  # atno 8008 bound_to 7997
  154.8807  140.0412  157.1800 H   0  0  0  0  0  0  0  0  0  0  0  0  # atno 8009 bound_to 7997
  154.8699  140.2933  155.5491 H   0  0  0  0  0  0  0  0  0  0  0  0  # atno 8010 bound_to 7997
  140.0420  143.5144  152.2125 H   0  0  0  0  0  0  0  0  0  0  0  0  # atno 10167 bound_to 10162
  157.6757  130.9885  150.1841 H   0  0  0  0  0  0  0  0  0  0  0  0  # atno 10718 bound_to 10713
  154.8570  135.3545  154.5749 H   0  0  0  0  0  0  0  0  0  0  0  0  # atno 10763 bound_to 10752
  153.6361  135.7000  153.5262 H   0  0  0  0  0  0  0  0  0  0  0  0  # atno 10764 bound_to 10752
  153.3009  135.4206  155.1211 H   0  0  0  0  0  0  0  0  0  0  0  0  # atno 10765 bound_to 10752
  141.0546  133.9633  157.2777 H   0  0  0  0  0  0  0  0  0  0  0  0  # atno 11005 bound_to 11000
  146.3141  139.7855  142.8997 LP  0  0  0  0  0  0  0  0  0  0  0  0  # atno 17320 bound_to 7965
  145.3510  141.0307  143.3338 LP  0  0  0  0  0  0  0  0  0  0  0  0  # atno 17321 bound_to 7965
  139.6008  144.7582  151.3177 LP  0  0  0  0  0  0  0  0  0  0  0  0  # atno 17342 bound_to 10162
  140.7256  143.7014  150.7842 LP  0  0  0  0  0  0  0  0  0  0  0  0  # atno 17343 bound_to 10162
  156.2567  130.3706  149.8174 LP  0  0  0  0  0  0  0  0  0  0  0  0  # atno 17370 bound_to 10713
  156.5931  130.8515  151.3413 LP  0  0  0  0  0  0  0  0  0  0  0  0  # atno 17371 bound_to 10713
  139.9379  135.0194  156.8614 LP  0  0  0  0  0  0  0  0  0  0  0  0  # atno 17394 bound_to 11000
  140.5990  134.0190  155.7529 LP  0  0  0  0  0  0  0  0  0  0  0  0  # atno 17395 bound_to 11000

$$$$
