AV-unprocessed.smi:1261|AV-procd|sdf|5304|dock8
  -GOLD-   22720 4423D 1   1.00000     0.00000
 Structure written by MMmdl.
 49 50  0  0  0  0  0  0  0  0  3 V2000
  145.8215  132.2515  150.3831 C   0  0  0  0  0  0  0  0  0  0  0  0
  146.1180  133.5261  151.1860 C   0  0  1  0  0  0  0  0  0  0  0  0
  144.8193  134.2220  151.6319 C   0  0  0  0  0  0  0  0  0  0  0  0
  145.1050  135.4639  152.4965 C   0  0  2  0  0  0  0  0  0  0  0  0
  145.6174  136.6606  151.6762 C   0  0  0  0  0  0  0  0  0  0  0  0
  146.0494  135.1073  153.6619 C   0  0  0  0  0  0  0  0  0  0  0  0
  147.2990  134.4603  153.1826 N   0  3  1  0  0  0  0  0  0  0  0  0
  148.2759  134.2482  154.2809 C   0  0  0  0  0  0  0  0  0  0  0  0
  147.6121  133.7380  155.5713 C   0  0  0  0  0  0  0  0  0  0  0  0
  148.4795  133.9966  156.8136 C   0  0  0  0  0  0  0  0  0  0  0  0
  147.8977  135.0228  157.6690 N   0  0  0  0  0  0  0  0  0  0  0  0
  148.5934  135.9496  158.3453 C   0  0  0  0  0  0  0  0  0  0  0  0
  149.8195  136.0494  158.2916 O   0  0  0  0  0  0  0  0  0  0  0  0
  147.7738  136.9230  159.1990 C   0  0  0  0  0  0  0  0  0  0  0  0
  147.4522  136.3561  160.5144 N   0  0  0  0  0  0  0  0  0  0  0  0
  147.8507  137.2101  161.6304 N   0  5  0  0  0  0  0  0  0  0  0  0
  147.5780  136.8105  162.9007 C   0  0  0  0  0  0  0  0  0  0  0  0
  147.8706  137.4820  163.8876 O   0  0  0  0  0  0  0  0  0  0  0  0
  146.9126  135.5318  163.0878 C   0  0  0  0  0  0  0  0  0  0  0  0
  146.5669  134.7586  162.0395 C   0  0  0  0  0  0  0  0  0  0  0  0
  146.8310  135.1510  160.6604 C   0  0  0  0  0  0  0  0  0  0  0  0
  146.5148  134.4501  159.6991 O   0  0  0  0  0  0  0  0  0  0  0  0
  147.0096  133.2257  152.4058 C   0  0  0  0  0  0  0  0  0  0  0  0
  145.2760  131.5220  150.9826 H   0  0  0  0  0  0  0  0  0  0  0  0
  146.7429  131.7788  150.0418 H   0  0  0  0  0  0  0  0  0  0  0  0
  145.2203  132.4736  149.5009 H   0  0  0  0  0  0  0  0  0  0  0  0
  146.6633  134.2025  150.5266 H   0  0  0  0  0  0  0  0  0  0  0  0
  144.2178  134.4965  150.7643 H   0  0  0  0  0  0  0  0  0  0  0  0
  144.2160  133.5195  152.2089 H   0  0  0  0  0  0  0  0  0  0  0  0
  144.1558  135.7786  152.9320 H   0  0  0  0  0  0  0  0  0  0  0  0
  146.5873  136.4596  151.2218 H   0  0  0  0  0  0  0  0  0  0  0  0
  145.7258  137.5453  152.3043 H   0  0  0  0  0  0  0  0  0  0  0  0
  144.9217  136.9136  150.8756 H   0  0  0  0  0  0  0  0  0  0  0  0
  146.2866  136.0110  154.2249 H   0  0  0  0  0  0  0  0  0  0  0  0
  145.5445  134.4327  154.3553 H   0  0  0  0  0  0  0  0  0  0  0  0
  149.0090  133.5042  153.9660 H   0  0  0  0  0  0  0  0  0  0  0  0
  148.8317  135.1683  154.4682 H   0  0  0  0  0  0  0  0  0  0  0  0
  146.6437  134.2177  155.7108 H   0  0  0  0  0  0  0  0  0  0  0  0
  147.4185  132.6682  155.4836 H   0  0  0  0  0  0  0  0  0  0  0  0
  148.5739  133.0831  157.4010 H   0  0  0  0  0  0  0  0  0  0  0  0
  149.4912  134.2834  156.5224 H   0  0  0  0  0  0  0  0  0  0  0  0
  146.8944  135.0119  157.7874 H   0  0  0  0  0  0  0  0  0  0  0  0
  148.3300  137.8553  159.3113 H   0  0  0  0  0  0  0  0  0  0  0  0
  146.8611  137.1955  158.6656 H   0  0  0  0  0  0  0  0  0  0  0  0
  146.6918  135.1935  164.0893 H   0  0  0  0  0  0  0  0  0  0  0  0
  146.0748  133.8157  162.2258 H   0  0  0  0  0  0  0  0  0  0  0  0
  146.5283  132.4929  153.0557 H   0  0  0  0  0  0  0  0  0  0  0  0
  147.9374  132.7739  152.0575 H   0  0  0  0  0  0  0  0  0  0  0  0
  147.7275  135.1159  152.5448 H   0  0  0  0  0  0  0  0  0  0  0  0
  1  2  1  0  0  0  0
  1 24  1  0  0  0  0
  1 25  1  0  0  0  0
  1 26  1  0  0  0  0
  2 23  1  0  0  0  0
  2  3  1  0  0  0  0
  2 27  1  0  0  0  0
  3  4  1  0  0  0  0
  3 28  1  0  0  0  0
  3 29  1  0  0  0  0
  4  5  1  0  0  0  0
  4  6  1  0  0  0  0
  4 30  1  0  0  0  0
  5 31  1  0  0  0  0
  5 32  1  0  0  0  0
  5 33  1  0  0  0  0
  6  7  1  0  0  0  0
  6 34  1  0  0  0  0
  6 35  1  0  0  0  0
  7  8  1  0  0  0  0
  7 23  1  0  0  0  0
  7 49  1  0  0  0  0
  8  9  1  0  0  0  0
  8 36  1  0  0  0  0
  8 37  1  0  0  0  0
  9 10  1  0  0  0  0
  9 38  1  0  0  0  0
  9 39  1  0  0  0  0
 10 11  1  0  0  0  0
 10 40  1  0  0  0  0
 10 41  1  0  0  0  0
 11 12  1  0  0  0  0
 11 42  1  0  0  0  0
 12 13  2  0  0  0  0
 12 14  1  0  0  0  0
 14 43  1  0  0  0  0
 14 44  1  0  0  0  0
 14 15  1  0  0  0  0
 15 16  1  0  0  0  0
 15 21  1  0  0  0  0
 16 17  1  0  0  0  0
 17 18  2  0  0  0  0
 17 19  1  0  0  0  0
 19 45  1  0  0  0  0
 19 20  2  0  0  0  0
 20 46  1  0  0  0  0
 20 21  1  0  0  0  0
 21 22  2  0  0  0  0
 23 47  1  0  0  0  0
 23 48  1  0  0  0  0
M  CHG  1   7   1
M  CHG  1  16  -1
M  END
> <s_m_source_file>
AV-unprocessed.smi

> <i_m_source_file_index>
1261

> <i_lp_mmshare_version>
43012

> <i_f3d_flags>
0

> <s_epik_input>
W0NIM11bQ0BASF0xW0NIMl1bQ0BASF0oW0NIM10pW0NIMl1OKFtDSDJdMSlbQ0gyXVtDSDJdW0NIMl1bTkhdQyg9TylbQ0gyXW4yW25IXWMoPU8pW2NIXVtjSF1jMj1P

> <s_epik_cmdline>
J2VwaWtfcHl0aG9uJywgJy1waCcsICc3LjAnLCAnLXRuJywgJzgnLCAnLW1hJywgJzIwMCcsICctbWV0YWxfYmluZGluZycsICctaW1hZScsICc8aW5maWxlLm1hZT4nLCAnLW9tYWUnLCAnPG91dGZpbGUubWFlPic=

> <r_lp_tautomer_probability>
1

> <r_epik_Ionization_Penalty>
0.0955723

> <r_epik_Ionization_Penalty_Charging>
0.0955723

> <r_epik_Ionization_Penalty_Neutral>
2.68632e-08

> <r_epik_State_Penalty>
0.0334406

> <r_epik_Charging_Adjusted_Penalty>
0.129013

> <i_epik_Tot_Q>
0

> <i_epik_Tot_abs_Q>
2

> <r_epik_Metal_State_Penalty>
0.0334406

> <b_epik_Metal_Only>
0

> <s_lp_Force_Field>
OPLS_2005

> <r_lp_Energy>
33.6406

> <b_lp_Chiralities_Consistent>
1

> <s_lp_Variant>
AV-unprocessed.smi:1261-4

> <Gold.Version>
5.8.1

> <Gold.Id.Protein>
6NUR|6NUR_protein|mol2

> <Gold.PLP.Fitness>
51.1596

> <Gold.PLP.PLP>
-35.9628

> <Gold.PLP.part.hbond>
-5.0000

> <Gold.PLP.part.metal>
0.0000

> <Gold.PLP.part.buried>
-3.6011

> <Gold.PLP.part.nonpolar>
-28.4633

> <Gold.PLP.part.repulsive>
0.0972

> <Gold.PLP.ligand.clash>
0.0000

> <Gold.PLP.ligand.torsion>
1.1864

> <Gold.PLP.Chemscore.Hbond>
5.8293

> <Gold.PLP.Chemscore.CHOScore>
0.0000

> <Gold.PLP.Chemscore.Metal>
0.0000

> <Gold.Chemscore.Hbonds>
donor molecule, donor type, donor heavy atom, donor atom, acceptor molecule, acceptor atom, score
      L1  H     7    49       P1  7948  2.00
      P1  H  6896  6908       L1    13  0.86
      P1  H  6931  6943       L1    16  2.00
      P1  H  6934  6947       L1    16  1.29

> <Gold.PLP.Chemscore.Internal.Correction>
0.0817

> <Gold.Rescore>
     Score         DG    S(hbond)    S(metal)    S(lipo)     H(rot)  DE(clash)    DE(int)     intcor
     10.97     -15.30       2.46        0.00      68.37       2.49       0.18       4.16       ----

> <Gold.Chemscore.Fitness>
10.9670

> <Gold.Chemscore.DG>
-15.3029

> <Gold.Chemscore.ZeroCoef>
-5.4800

> <Gold.Chemscore.Hbond>
2.4574

> <Gold.Chemscore.Metal>
0.0000

> <Gold.Chemscore.Lipo>
68.3685

> <Gold.Chemscore.Internal_Hbond>
0.0000

> <Gold.Chemscore.DEClash>
0.1775

> <Gold.Chemscore.DEInternal>
4.1584

> <Gold.Chemscore.Rot>
2.4938

> <Gold.Chemscore.Internal.Correction>
   9.000000E+99

> <Gold.Chemscore.Hbonds>
donor molecule, donor type, donor heavy atom, donor atom, acceptor molecule, acceptor atom, score
      L1  H     7    49       P1  7948  0.98
      P1  H  6896  6908       L1    13  0.65
      P1  H  6931  6943       L1    16  0.25
      P1  H  6934  6947       L1    16  0.15

> <Gold.Chemscore.Hbond.Weighted>
-8.2078

> <Gold.Chemscore.Metal.Weighted>
-0.0000

> <Gold.Chemscore.Lipo.Weighted>
-7.9991

> <Gold.Chemscore.Internal_Hbond.Weighted>
0.0000

> <Gold.Chemscore.DEClash.Weighted>
0.1775

> <Gold.Chemscore.DEInternal.Weighted>
4.1584

> <Gold.Chemscore.Rot.Weighted>
6.3840

> <Gold.Chemscore.Internal.Correction.Weighted>
   9.000000E+99

> <Gold.Protein.RotatedTorsions>
[ 6907 6896 6895 6894 ] final  178.24 input  -60.11 | X-H torsion
[ 7974 7965 7964 7962 ] final   22.19 input  175.53 | X-H torsion
[ 8008 7997 7996 7995 ] final   65.24 input   59.86 | X-H torsion
[ 10167 10162 10161 10158 ] final   35.94 input  -65.29 | X-H torsion
[ 10718 10713 10712 10709 ] final  -32.86 input   66.30 | X-H torsion
[ 10763 10752 10751 10750 ] final   52.82 input  -60.55 | X-H torsion
[ 11005 11000 10999 10996 ] final   -9.69 input  -57.11 | X-H torsion

> <Gold.Protein.ActiveResidues>
 VAL166  LYS551  ARG553  GLY616  TRP617  ASP618  TYR619  PRO620  LYS621  CYS622 
 ASP623  PHE694  ASN695  SER759  ASP760  ASP761  ALA762  ILE779  LEU786  VAL792 
 PHE793  MET794  SER795  GLU796  ALA797  LYS798  CYS799  TRP800  GLU811  SER814 

> <Gold.Protein.RotatedAtoms>
  151.6911  133.3311  159.3242 H   0  0  0  0  0  0  0  0  0  0  0  0  # atno 6907 bound_to 6896
  150.7778  134.6698  159.6394 H   0  0  0  0  0  0  0  0  0  0  0  0  # atno 6908 bound_to 6896
  152.3826  134.6569  160.0189 H   0  0  0  0  0  0  0  0  0  0  0  0  # atno 6909 bound_to 6896
  146.2039  139.7920  142.8740 H   0  0  0  0  0  0  0  0  0  0  0  0  # atno 7974 bound_to 7965
  155.6586  140.3497  155.4774 H   0  0  0  0  0  0  0  0  0  0  0  0  # atno 8008 bound_to 7997
  155.9788  140.1170  157.0769 H   0  0  0  0  0  0  0  0  0  0  0  0  # atno 8009 bound_to 7997
  154.4186  140.1142  156.5393 H   0  0  0  0  0  0  0  0  0  0  0  0  # atno 8010 bound_to 7997
  140.4174  144.1507  150.6144 H   0  0  0  0  0  0  0  0  0  0  0  0  # atno 10167 bound_to 10162
  156.3697  130.4337  149.7555 H   0  0  0  0  0  0  0  0  0  0  0  0  # atno 10718 bound_to 10713
  152.9791  135.5800  154.4640 H   0  0  0  0  0  0  0  0  0  0  0  0  # atno 10763 bound_to 10752
  154.4212  135.2771  155.1976 H   0  0  0  0  0  0  0  0  0  0  0  0  # atno 10764 bound_to 10752
  154.3724  135.6165  153.5801 H   0  0  0  0  0  0  0  0  0  0  0  0  # atno 10765 bound_to 10752
  140.7368  133.8703  155.8936 H   0  0  0  0  0  0  0  0  0  0  0  0  # atno 11005 bound_to 11000
  145.3387  141.0283  143.3404 LP  0  0  0  0  0  0  0  0  0  0  0  0  # atno 17320 bound_to 7965
  144.8747  139.4988  143.6751 LP  0  0  0  0  0  0  0  0  0  0  0  0  # atno 17321 bound_to 7965
  140.4571  143.2463  151.9270 LP  0  0  0  0  0  0  0  0  0  0  0  0  # atno 17342 bound_to 10162
  139.4782  144.5505  151.8393 LP  0  0  0  0  0  0  0  0  0  0  0  0  # atno 17343 bound_to 10162
  156.4687  130.7986  151.3005 LP  0  0  0  0  0  0  0  0  0  0  0  0  # atno 17370 bound_to 10713
  157.7482  131.0042  150.3069 LP  0  0  0  0  0  0  0  0  0  0  0  0  # atno 17371 bound_to 10713
  140.9872  134.1327  157.4441 LP  0  0  0  0  0  0  0  0  0  0  0  0  # atno 17394 bound_to 11000
  139.8814  135.0029  156.6155 LP  0  0  0  0  0  0  0  0  0  0  0  0  # atno 17395 bound_to 11000

$$$$
