AV-unprocessed.smi:3032|AV-procd|sdf|11571|dock6
  -GOLD-   2272016533D 1   1.00000     0.00000
 Structure written by MMmdl.
 36 37  0  0  0  0  0  0  0  0  2 V2000
  153.0197  142.5048  161.8292 C   0  0  0  0  0  0  0  0  0  0  0  0
  152.8899  142.9477  160.3647 C   0  0  2  0  0  0  0  0  0  0  0  0
  152.2497  144.3449  160.2534 C   0  0  0  0  0  0  0  0  0  0  0  0
  152.1118  144.7867  158.7879 C   0  0  0  0  0  0  0  0  0  0  0  0
  151.3178  143.7572  157.9689 C   0  0  0  0  0  0  0  0  0  0  0  0
  151.9585  142.3569  158.0599 C   0  0  2  0  0  0  0  0  0  0  0  0
  151.1467  141.3330  157.2552 C   0  0  0  0  0  0  0  0  0  0  0  0
  149.9871  141.0686  157.5760 O   0  0  0  0  0  0  0  0  0  0  0  0
  151.7669  140.7676  156.2090 N   0  0  0  0  0  0  0  0  0  0  0  0
  151.1540  139.8205  155.2834 C   0  0  0  0  0  0  0  0  0  0  0  0
  152.1522  138.7610  154.7810 C   0  0  0  0  0  0  0  0  0  0  0  0
  152.8383  138.0062  155.9024 C   0  0  0  0  0  0  0  0  0  0  0  0
  152.7749  136.6737  156.1031 N   0  5  0  0  0  0  0  0  0  0  0  0
  153.4534  136.3446  157.1850 N   0  0  0  0  0  0  0  0  0  0  0  0
  153.9246  137.5103  157.6429 C   0  0  0  0  0  0  0  0  0  0  0  0
  153.5596  138.5473  156.8818 N   0  0  0  0  0  0  0  0  0  0  0  0
  152.0916  141.9219  159.5356 C   0  0  0  0  0  0  0  0  0  0  0  0
  152.0422  142.4165  162.3048 H   0  0  0  0  0  0  0  0  0  0  0  0
  153.6077  143.2196  162.4055 H   0  0  0  0  0  0  0  0  0  0  0  0
  153.5147  141.5358  161.9037 H   0  0  0  0  0  0  0  0  0  0  0  0
  153.8968  143.0054  159.9488 H   0  0  0  0  0  0  0  0  0  0  0  0
  151.2656  144.3387  160.7243 H   0  0  0  0  0  0  0  0  0  0  0  0
  152.8481  145.0751  160.7992 H   0  0  0  0  0  0  0  0  0  0  0  0
  151.6209  145.7589  158.7374 H   0  0  0  0  0  0  0  0  0  0  0  0
  153.1021  144.9172  158.3497 H   0  0  0  0  0  0  0  0  0  0  0  0
  150.2892  143.7257  158.3324 H   0  0  0  0  0  0  0  0  0  0  0  0
  151.2674  144.0801  156.9279 H   0  0  0  0  0  0  0  0  0  0  0  0
  152.9608  142.4137  157.6307 H   0  0  0  0  0  0  0  0  0  0  0  0
  152.7140  141.0529  156.0063 H   0  0  0  0  0  0  0  0  0  0  0  0
  150.3348  139.3273  155.8074 H   0  0  0  0  0  0  0  0  0  0  0  0
  150.7063  140.3493  154.4406 H   0  0  0  0  0  0  0  0  0  0  0  0
  151.6372  138.0431  154.1422 H   0  0  0  0  0  0  0  0  0  0  0  0
  152.9161  139.2314  154.1608 H   0  0  0  0  0  0  0  0  0  0  0  0
  154.5323  137.6032  158.5343 H   0  0  0  0  0  0  0  0  0  0  0  0
  152.5819  140.9486  159.5891 H   0  0  0  0  0  0  0  0  0  0  0  0
  151.1024  141.7918  159.9781 H   0  0  0  0  0  0  0  0  0  0  0  0
  1  2  1  0  0  0  0
  1 18  1  0  0  0  0
  1 19  1  0  0  0  0
  1 20  1  0  0  0  0
  2 17  1  0  0  0  0
  2  3  1  0  0  0  0
  2 21  1  0  0  0  0
  3  4  1  0  0  0  0
  3 22  1  0  0  0  0
  3 23  1  0  0  0  0
  4  5  1  0  0  0  0
  4 24  1  0  0  0  0
  4 25  1  0  0  0  0
  5  6  1  0  0  0  0
  5 26  1  0  0  0  0
  5 27  1  0  0  0  0
  6  7  1  0  0  0  0
  6 17  1  0  0  0  0
  6 28  1  0  0  0  0
  7  8  2  0  0  0  0
  7  9  1  0  0  0  0
  9 10  1  0  0  0  0
  9 29  1  0  0  0  0
 10 11  1  0  0  0  0
 10 30  1  0  0  0  0
 10 31  1  0  0  0  0
 11 32  1  0  0  0  0
 11 33  1  0  0  0  0
 11 12  1  0  0  0  0
 12 16  2  0  0  0  0
 12 13  1  0  0  0  0
 13 14  1  0  0  0  0
 14 15  2  0  0  0  0
 15 16  1  0  0  0  0
 15 34  1  0  0  0  0
 17 35  1  0  0  0  0
 17 36  1  0  0  0  0
M  CHG  1  13  -1
M  END
> <s_m_source_file>
AV-unprocessed.smi

> <i_m_source_file_index>
3032

> <i_lp_mmshare_version>
43012

> <i_f3d_flags>
0

> <s_epik_input>
W0NIM11bQ0BASF0xW0NIMl1bQ0gyXVtDSDJdW0NASF0oW0NIMl0xKUMoPU8pW05IXVtDSDJdW0NIMl1jMm5uW2NIXVtuSF0y

> <s_epik_cmdline>
J2VwaWtfcHl0aG9uJywgJy1waCcsICc3LjAnLCAnLXRuJywgJzgnLCAnLW1hJywgJzIwMCcsICctbWV0YWxfYmluZGluZycsICctaW1hZScsICc8aW5maWxlLm1hZT4nLCAnLW9tYWUnLCAnPG91dGZpbGUubWFlPic=

> <r_lp_tautomer_probability>
0.948284

> <r_epik_Ionization_Penalty>
12.042

> <r_epik_Ionization_Penalty_Charging>
12.042

> <r_epik_Ionization_Penalty_Neutral>
4.36781e-08

> <r_epik_State_Penalty>
4.67286

> <r_epik_Charging_Adjusted_Penalty>
16.7149

> <i_epik_Tot_Q>
-1

> <i_epik_Tot_abs_Q>
1

> <r_epik_Metal_State_Penalty>
0.981637

> <b_epik_Metal_Only>
1

> <s_lp_Force_Field>
OPLS_2005

> <r_lp_Energy>
10.3443

> <b_lp_Chiralities_Consistent>
1

> <s_lp_Variant>
AV-unprocessed.smi:3032-15

> <Gold.Version>
5.8.1

> <Gold.Id.Protein>
6NUR|6NUR_protein|mol2

> <Gold.PLP.Fitness>
45.1455

> <Gold.PLP.PLP>
-36.5272

> <Gold.PLP.part.hbond>
-2.0000

> <Gold.PLP.part.metal>
0.0000

> <Gold.PLP.part.buried>
-3.5667

> <Gold.PLP.part.nonpolar>
-31.1152

> <Gold.PLP.part.repulsive>
0.2022

> <Gold.PLP.ligand.clash>
0.0000

> <Gold.PLP.ligand.torsion>
0.2017

> <Gold.PLP.Chemscore.Hbond>
3.0000

> <Gold.PLP.Chemscore.CHOScore>
0.0000

> <Gold.PLP.Chemscore.Metal>
0.0000

> <Gold.Chemscore.Hbonds>
donor molecule, donor type, donor heavy atom, donor atom, acceptor molecule, acceptor atom, score
      P1  H  7997  8009       L1    16  0.86
      P1  H 10752 10765       L1    13  1.23

> <Gold.PLP.Chemscore.Internal.Correction>
0.0217

> <Gold.Rescore>
     Score         DG    S(hbond)    S(metal)    S(lipo)     H(rot)  DE(clash)    DE(int)     intcor
     15.43     -16.99       1.78        0.00      95.95       2.21       0.05       1.51       ----

> <Gold.Chemscore.Fitness>
15.4300

> <Gold.Chemscore.DG>
-16.9872

> <Gold.Chemscore.ZeroCoef>
-5.4800

> <Gold.Chemscore.Hbond>
1.7819

> <Gold.Chemscore.Metal>
0.0000

> <Gold.Chemscore.Lipo>
95.9484

> <Gold.Chemscore.Internal_Hbond>
0.0000

> <Gold.Chemscore.DEClash>
0.0519

> <Gold.Chemscore.DEInternal>
1.5053

> <Gold.Chemscore.Rot>
2.2149

> <Gold.Chemscore.Internal.Correction>
   9.000000E+99

> <Gold.Chemscore.Hbonds>
donor molecule, donor type, donor heavy atom, donor atom, acceptor molecule, acceptor atom, score
      P1  H  7997  8009       L1    16  0.83
      P1  H 10752 10765       L1    13  0.06

> <Gold.Chemscore.Hbond.Weighted>
-5.9515

> <Gold.Chemscore.Metal.Weighted>
-0.0000

> <Gold.Chemscore.Lipo.Weighted>
-11.2260

> <Gold.Chemscore.Internal_Hbond.Weighted>
0.0000

> <Gold.Chemscore.DEClash.Weighted>
0.0519

> <Gold.Chemscore.DEInternal.Weighted>
1.5053

> <Gold.Chemscore.Rot.Weighted>
5.6702

> <Gold.Chemscore.Internal.Correction.Weighted>
   9.000000E+99

> <Gold.Protein.RotatedTorsions>
[ 6907 6896 6895 6894 ] final  147.92 input  -60.11 | X-H torsion
[ 7974 7965 7964 7962 ] final  -38.27 input  175.53 | X-H torsion
[ 8008 7997 7996 7995 ] final  163.93 input   59.86 | X-H torsion
[ 10167 10162 10161 10158 ] final    4.65 input  -65.29 | X-H torsion
[ 10718 10713 10712 10709 ] final -100.76 input   66.30 | X-H torsion
[ 10763 10752 10751 10750 ] final -133.51 input  -60.55 | X-H torsion
[ 11005 11000 10999 10996 ] final   88.24 input  -57.11 | X-H torsion

> <Gold.Protein.ActiveResidues>
 VAL166  LYS551  ARG553  GLY616  TRP617  ASP618  TYR619  PRO620  LYS621  CYS622 
 ASP623  PHE694  ASN695  SER759  ASP760  ASP761  ALA762  ILE779  LEU786  VAL792 
 PHE793  MET794  SER795  GLU796  ALA797  LYS798  CYS799  TRP800  GLU811  SER814 

> <Gold.Protein.RotatedAtoms>
  152.1484  133.4507  159.4801 H   0  0  0  0  0  0  0  0  0  0  0  0  # atno 6907 bound_to 6896
  150.6893  134.2219  159.4409 H   0  0  0  0  0  0  0  0  0  0  0  0  # atno 6908 bound_to 6896
  152.0114  134.9873  160.0619 H   0  0  0  0  0  0  0  0  0  0  0  0  # atno 6909 bound_to 6896
  146.0501  140.6492  142.9046 H   0  0  0  0  0  0  0  0  0  0  0  0  # atno 7974 bound_to 7965
  156.1919  140.1710  156.8074 H   0  0  0  0  0  0  0  0  0  0  0  0  # atno 8008 bound_to 7997
  154.5482  140.0723  156.8656 H   0  0  0  0  0  0  0  0  0  0  0  0  # atno 8009 bound_to 7997
  155.3080  140.3365  155.4247 H   0  0  0  0  0  0  0  0  0  0  0  0  # atno 8010 bound_to 7997
  140.6524  143.7513  150.7596 H   0  0  0  0  0  0  0  0  0  0  0  0  # atno 10167 bound_to 10162
  156.0173  130.5342  150.6865 H   0  0  0  0  0  0  0  0  0  0  0  0  # atno 10718 bound_to 10713
  154.8731  135.3764  154.4585 H   0  0  0  0  0  0  0  0  0  0  0  0  # atno 10763 bound_to 10752
  153.5255  135.7028  153.5715 H   0  0  0  0  0  0  0  0  0  0  0  0  # atno 10764 bound_to 10752
  153.3943  135.3964  155.1910 H   0  0  0  0  0  0  0  0  0  0  0  0  # atno 10765 bound_to 10752
  139.8901  134.8475  156.2973 H   0  0  0  0  0  0  0  0  0  0  0  0  # atno 11005 bound_to 11000
  144.7118  140.4067  143.7074 LP  0  0  0  0  0  0  0  0  0  0  0  0  # atno 17320 bound_to 7965
  145.6738  139.1604  143.2739 LP  0  0  0  0  0  0  0  0  0  0  0  0  # atno 17321 bound_to 7965
  140.1166  143.4650  152.2338 LP  0  0  0  0  0  0  0  0  0  0  0  0  # atno 17342 bound_to 10162
  139.5740  144.7478  151.3813 LP  0  0  0  0  0  0  0  0  0  0  0  0  # atno 17343 bound_to 10162
  157.4556  131.0877  151.0800 LP  0  0  0  0  0  0  0  0  0  0  0  0  # atno 17370 bound_to 10713
  157.1303  130.6099  149.5528 LP  0  0  0  0  0  0  0  0  0  0  0  0  # atno 17371 bound_to 10713
  140.9936  133.7193  156.0852 LP  0  0  0  0  0  0  0  0  0  0  0  0  # atno 17394 bound_to 11000
  140.7591  134.3959  157.5528 LP  0  0  0  0  0  0  0  0  0  0  0  0  # atno 17395 bound_to 11000

$$$$
