AV-unprocessed.smi:1087|AV-procd|sdf|4726|dock9
  -GOLD-   22720 3253D 1   1.00000     0.00000
 Structure written by MMmdl.
 47 48  0  0  0  0  0  0  0  0  2 V2000
  144.0024  133.2748  149.9054 C   0  0  0  0  0  0  0  0  0  0  0  0
  145.1527  132.6736  150.4738 O   0  0  0  0  0  0  0  0  0  0  0  0
  145.8396  133.5418  151.3597 C   0  0  0  0  0  0  0  0  0  0  0  0
  147.1631  132.8817  151.7756 C   0  0  0  0  0  0  0  0  0  0  0  0
  147.8191  133.5866  152.9064 N   0  3  2  0  0  0  0  0  0  0  0  0
  149.0582  132.8992  153.3516 C   0  0  0  0  0  0  0  0  0  0  0  0
  149.7914  133.7208  154.4255 C   0  0  0  0  0  0  0  0  0  0  0  0
  148.8919  134.0143  155.6446 C   0  0  2  0  0  0  0  0  0  0  0  0
  148.6027  132.7883  156.5442 C   0  0  0  0  0  0  0  0  0  0  0  0
  147.6108  133.0793  157.5747 N   0  0  0  0  0  0  0  0  0  0  0  0
  147.7859  133.9163  158.6090 C   0  0  0  0  0  0  0  0  0  0  0  0
  148.8410  134.5137  158.8254 O   0  0  0  0  0  0  0  0  0  0  0  0
  146.5823  134.1024  159.5420 C   0  0  0  0  0  0  0  0  0  0  0  0
  146.8947  134.9542  160.7007 N   0  0  0  0  0  0  0  0  0  0  0  0
  146.9740  134.3377  161.9606 C   0  0  0  0  0  0  0  0  0  0  0  0
  147.2621  135.0509  163.0588 C   0  0  0  0  0  0  0  0  0  0  0  0
  147.4847  136.4893  162.8635 C   0  0  0  0  0  0  0  0  0  0  0  0
  147.4175  137.0538  161.7158 N   0  0  0  0  0  0  0  0  0  0  0  0
  147.1174  136.3024  160.5638 C   0  0  0  0  0  0  0  0  0  0  0  0
  147.0565  136.8375  159.4565 O   0  0  0  0  0  0  0  0  0  0  0  0
  147.5972  134.6819  155.1442 C   0  0  0  0  0  0  0  0  0  0  0  0
  146.9009  133.8574  154.0448 C   0  0  0  0  0  0  0  0  0  0  0  0
  143.5133  132.5677  149.2356 H   0  0  0  0  0  0  0  0  0  0  0  0
  144.2660  134.1604  149.3256 H   0  0  0  0  0  0  0  0  0  0  0  0
  143.2847  133.5606  150.6755 H   0  0  0  0  0  0  0  0  0  0  0  0
  146.0028  134.5154  150.8977 H   0  0  0  0  0  0  0  0  0  0  0  0
  145.2276  133.7101  152.2471 H   0  0  0  0  0  0  0  0  0  0  0  0
  147.0019  131.8356  152.0401 H   0  0  0  0  0  0  0  0  0  0  0  0
  147.8245  132.8789  150.9078 H   0  0  0  0  0  0  0  0  0  0  0  0
  148.8129  131.9045  153.7257 H   0  0  0  0  0  0  0  0  0  0  0  0
  149.7250  132.7583  152.5003 H   0  0  0  0  0  0  0  0  0  0  0  0
  150.7101  133.2171  154.7241 H   0  0  0  0  0  0  0  0  0  0  0  0
  150.1098  134.6664  153.9846 H   0  0  0  0  0  0  0  0  0  0  0  0
  149.4138  134.7422  156.2678 H   0  0  0  0  0  0  0  0  0  0  0  0
  148.2038  131.9779  155.9332 H   0  0  0  0  0  0  0  0  0  0  0  0
  149.5189  132.3988  156.9888 H   0  0  0  0  0  0  0  0  0  0  0  0
  146.7125  132.6269  157.4820 H   0  0  0  0  0  0  0  0  0  0  0  0
  145.7406  134.5236  158.9887 H   0  0  0  0  0  0  0  0  0  0  0  0
  146.2490  133.1157  159.8663 H   0  0  0  0  0  0  0  0  0  0  0  0
  146.7965  133.2721  161.9721 H   0  0  0  0  0  0  0  0  0  0  0  0
  147.3422  134.6401  164.0543 H   0  0  0  0  0  0  0  0  0  0  0  0
  147.7154  137.0541  163.7705 H   0  0  0  0  0  0  0  0  0  0  0  0
  146.9123  134.8501  155.9761 H   0  0  0  0  0  0  0  0  0  0  0  0
  147.8351  135.6697  154.7468 H   0  0  0  0  0  0  0  0  0  0  0  0
  146.0269  134.4084  153.7000 H   0  0  0  0  0  0  0  0  0  0  0  0
  146.5316  132.9145  154.4501 H   0  0  0  0  0  0  0  0  0  0  0  0
  148.1144  134.4829  152.5457 H   0  0  0  0  0  0  0  0  0  0  0  0
  1  2  1  0  0  0  0
  1 23  1  0  0  0  0
  1 24  1  0  0  0  0
  1 25  1  0  0  0  0
  2  3  1  0  0  0  0
  3  4  1  0  0  0  0
  3 26  1  0  0  0  0
  3 27  1  0  0  0  0
  4  5  1  0  0  0  0
  4 28  1  0  0  0  0
  4 29  1  0  0  0  0
  5 22  1  0  0  0  0
  5  6  1  0  0  0  0
  5 47  1  0  0  0  0
  6  7  1  0  0  0  0
  6 30  1  0  0  0  0
  6 31  1  0  0  0  0
  7  8  1  0  0  0  0
  7 32  1  0  0  0  0
  7 33  1  0  0  0  0
  8  9  1  0  0  0  0
  8 21  1  0  0  0  0
  8 34  1  0  0  0  0
  9 10  1  0  0  0  0
  9 35  1  0  0  0  0
  9 36  1  0  0  0  0
 10 11  1  0  0  0  0
 10 37  1  0  0  0  0
 11 12  2  0  0  0  0
 11 13  1  0  0  0  0
 13 14  1  0  0  0  0
 13 38  1  0  0  0  0
 13 39  1  0  0  0  0
 14 19  1  0  0  0  0
 14 15  1  0  0  0  0
 15 16  2  0  0  0  0
 15 40  1  0  0  0  0
 16 17  1  0  0  0  0
 16 41  1  0  0  0  0
 17 18  2  0  0  0  0
 17 42  1  0  0  0  0
 18 19  1  0  0  0  0
 19 20  2  0  0  0  0
 21 22  1  0  0  0  0
 21 43  1  0  0  0  0
 21 44  1  0  0  0  0
 22 45  1  0  0  0  0
 22 46  1  0  0  0  0
M  CHG  1   5   1
M  END
> <s_m_source_file>
AV-unprocessed.smi

> <i_m_source_file_index>
1087

> <i_lp_mmshare_version>
43012

> <i_f3d_flags>
0

> <s_epik_input>
W0NIM11PW0NIMl1bQ0gyXU4xW0NIMl1bQ0gyXVtDSF0oW0NIMl1bQ0gyXTEpW0NIMl1bTkhdQyg9TylbQ0gyXW4yW2NIXVtjSF1bY0hdbmMyPU8=

> <s_epik_cmdline>
J2VwaWtfcHl0aG9uJywgJy1waCcsICc3LjAnLCAnLXRuJywgJzgnLCAnLW1hJywgJzIwMCcsICctbWV0YWxfYmluZGluZycsICctaW1hZScsICc8aW5maWxlLm1hZT4nLCAnLW9tYWUnLCAnPG91dGZpbGUubWFlPic=

> <r_lp_tautomer_probability>
1

> <r_epik_Ionization_Penalty>
0.00982698

> <r_epik_Ionization_Penalty_Charging>
0.00982062

> <r_epik_Ionization_Penalty_Neutral>
6.35787e-06

> <r_epik_State_Penalty>
0.00747828

> <r_epik_Charging_Adjusted_Penalty>
0.0172989

> <i_epik_Tot_Q>
1

> <i_epik_Tot_abs_Q>
1

> <r_epik_Metal_State_Penalty>
0.00747829

> <b_epik_Metal_Only>
0

> <s_lp_Force_Field>
OPLS_2005

> <r_lp_Energy>
23.2089

> <b_lp_Chiralities_Consistent>
1

> <s_lp_Variant>
AV-unprocessed.smi:1087-2

> <Gold.Version>
5.8.1

> <Gold.Id.Protein>
6NUR|6NUR_protein|mol2

> <Gold.PLP.Fitness>
49.3117

> <Gold.PLP.PLP>
-36.2074

> <Gold.PLP.part.hbond>
-4.0000

> <Gold.PLP.part.metal>
0.0000

> <Gold.PLP.part.buried>
-4.2335

> <Gold.PLP.part.nonpolar>
-27.9104

> <Gold.PLP.part.repulsive>
0.1517

> <Gold.PLP.ligand.clash>
0.0000

> <Gold.PLP.ligand.torsion>
0.2724

> <Gold.PLP.Chemscore.Hbond>
4.5000

> <Gold.PLP.Chemscore.CHOScore>
0.0000

> <Gold.PLP.Chemscore.Metal>
0.0000

> <Gold.Chemscore.Hbonds>
donor molecule, donor type, donor heavy atom, donor atom, acceptor molecule, acceptor atom, score
      L1  H     5    47       P1  7948  2.00
      P1  H  6896  6908       L1    12  1.00
      P1  H  6931  6943       L1    18  0.84
      P1  H  6934  6947       L1    18  0.64

> <Gold.PLP.Chemscore.Internal.Correction>
0.1491

> <Gold.Rescore>
     Score         DG    S(hbond)    S(metal)    S(lipo)     H(rot)  DE(clash)    DE(int)     intcor
     15.91     -16.61       2.56        0.00      75.65       2.45       0.32       0.39       ----

> <Gold.Chemscore.Fitness>
15.9052

> <Gold.Chemscore.DG>
-16.6145

> <Gold.Chemscore.ZeroCoef>
-5.4800

> <Gold.Chemscore.Hbond>
2.5581

> <Gold.Chemscore.Metal>
0.0000

> <Gold.Chemscore.Lipo>
75.6473

> <Gold.Chemscore.Internal_Hbond>
0.0000

> <Gold.Chemscore.DEClash>
0.3212

> <Gold.Chemscore.DEInternal>
0.3882

> <Gold.Chemscore.Rot>
2.4454

> <Gold.Chemscore.Internal.Correction>
   9.000000E+99

> <Gold.Chemscore.Hbonds>
donor molecule, donor type, donor heavy atom, donor atom, acceptor molecule, acceptor atom, score
      L1  H     5    47       P1  7948  0.33
      P1  H  6896  6908       L1    12  1.00
      P1  H  6931  6943       L1    18  0.13
      P1  H  6934  6947       L1    18  0.16

> <Gold.Chemscore.Hbond.Weighted>
-8.5440

> <Gold.Chemscore.Metal.Weighted>
-0.0000

> <Gold.Chemscore.Lipo.Weighted>
-8.8507

> <Gold.Chemscore.Internal_Hbond.Weighted>
0.0000

> <Gold.Chemscore.DEClash.Weighted>
0.3212

> <Gold.Chemscore.DEInternal.Weighted>
0.3882

> <Gold.Chemscore.Rot.Weighted>
6.2603

> <Gold.Chemscore.Internal.Correction.Weighted>
   9.000000E+99

> <Gold.Protein.RotatedTorsions>
[ 6907 6896 6895 6894 ] final  158.02 input  -60.11 | X-H torsion
[ 7974 7965 7964 7962 ] final  116.66 input  175.53 | X-H torsion
[ 8008 7997 7996 7995 ] final   24.56 input   59.86 | X-H torsion
[ 10167 10162 10161 10158 ] final -147.04 input  -65.29 | X-H torsion
[ 10718 10713 10712 10709 ] final -143.92 input   66.30 | X-H torsion
[ 10763 10752 10751 10750 ] final   94.57 input  -60.55 | X-H torsion
[ 11005 11000 10999 10996 ] final   72.14 input  -57.11 | X-H torsion

> <Gold.Protein.ActiveResidues>
 VAL166  LYS551  ARG553  GLY616  TRP617  ASP618  TYR619  PRO620  LYS621  CYS622 
 ASP623  PHE694  ASN695  SER759  ASP760  ASP761  ALA762  ILE779  LEU786  VAL792 
 PHE793  MET794  SER795  GLU796  ALA797  LYS798  CYS799  TRP800  GLU811  SER814 

> <Gold.Protein.RotatedAtoms>
  152.0065  133.3845  159.4202 H   0  0  0  0  0  0  0  0  0  0  0  0  # atno 6907 bound_to 6896
  150.6904  134.3777  159.5029 H   0  0  0  0  0  0  0  0  0  0  0  0  # atno 6908 bound_to 6896
  152.1531  134.8972  160.0597 H   0  0  0  0  0  0  0  0  0  0  0  0  # atno 6909 bound_to 6896
  145.1769  139.3070  143.4438 H   0  0  0  0  0  0  0  0  0  0  0  0  # atno 7974 bound_to 7965
  154.9981  140.3122  155.4878 H   0  0  0  0  0  0  0  0  0  0  0  0  # atno 8008 bound_to 7997
  156.2929  140.2237  156.5030 H   0  0  0  0  0  0  0  0  0  0  0  0  # atno 8009 bound_to 7997
  154.7643  140.0457  157.0987 H   0  0  0  0  0  0  0  0  0  0  0  0  # atno 8010 bound_to 7997
  139.7658  143.8310  152.2616 H   0  0  0  0  0  0  0  0  0  0  0  0  # atno 10167 bound_to 10162
  156.3638  130.7752  151.1923 H   0  0  0  0  0  0  0  0  0  0  0  0  # atno 10718 bound_to 10713
  153.2432  135.4285  155.0719 H   0  0  0  0  0  0  0  0  0  0  0  0  # atno 10763 bound_to 10752
  154.8349  135.3407  154.6620 H   0  0  0  0  0  0  0  0  0  0  0  0  # atno 10764 bound_to 10752
  153.7043  135.7026  153.5111 H   0  0  0  0  0  0  0  0  0  0  0  0  # atno 10765 bound_to 10752
  139.9506  134.7233  156.0871 H   0  0  0  0  0  0  0  0  0  0  0  0  # atno 11005 bound_to 11000
  146.3459  140.1935  142.8589 LP  0  0  0  0  0  0  0  0  0  0  0  0  # atno 17320 bound_to 7965
  145.0175  140.8766  143.5187 LP  0  0  0  0  0  0  0  0  0  0  0  0  # atno 17321 bound_to 7965
  139.8330  144.7245  150.9427 LP  0  0  0  0  0  0  0  0  0  0  0  0  # atno 17342 bound_to 10162
  140.7810  143.4053  151.1082 LP  0  0  0  0  0  0  0  0  0  0  0  0  # atno 17343 bound_to 10162
  157.7476  131.0392  150.4540 LP  0  0  0  0  0  0  0  0  0  0  0  0  # atno 17370 bound_to 10713
  156.4755  130.4062  149.6492 LP  0  0  0  0  0  0  0  0  0  0  0  0  # atno 17371 bound_to 10713
  141.1168  133.6625  156.3115 LP  0  0  0  0  0  0  0  0  0  0  0  0  # atno 17394 bound_to 11000
  140.5727  134.5824  157.5461 LP  0  0  0  0  0  0  0  0  0  0  0  0  # atno 17395 bound_to 11000

$$$$
