AV-unprocessed.smi:546|AV-procd|sdf|2885|dock7
  -GOLD-   2262023383D 1   1.00000     0.00000
 Structure written by MMmdl.
 52 54  0  0  0  0  0  0  0  0  1 V2000
  155.3465  138.2078  159.4542 C   0  0  0  0  0  0  0  0  0  0  0  0
  153.8803  138.2794  159.0227 C   0  0  0  0  0  0  0  0  0  0  0  0
  153.8135  138.9273  157.7657 O   0  0  0  0  0  0  0  0  0  0  0  0
  152.5217  138.8839  157.1833 C   0  0  0  0  0  0  0  0  0  0  0  0
  152.4748  139.8194  155.9665 C   0  0  0  0  0  0  0  0  0  0  0  0
  151.1624  140.4400  155.8186 N   0  0  0  0  0  0  0  0  0  0  0  0
  150.6914  141.5748  156.4042 C   0  0  0  0  0  0  0  0  0  0  0  0
  151.4345  142.3082  157.3330 N   0  0  0  0  0  0  0  0  0  0  0  0
  151.9159  143.6752  157.1067 C   0  0  0  0  0  0  0  0  0  0  0  0
  151.9767  144.5408  158.3872 C   0  0  1  0  0  0  0  0  0  0  0  0
  150.5966  145.0091  158.8762 C   0  0  0  0  0  0  0  0  0  0  0  0
  152.7768  143.8231  159.4869 C   0  0  0  0  0  0  0  0  0  0  0  0
  152.2770  142.3837  159.6838 C   0  0  2  0  0  0  0  0  0  0  0  0
  153.1199  141.6355  160.7253 C   0  0  0  0  0  0  0  0  0  0  0  0
  152.2757  141.6485  158.3318 C   0  0  0  0  0  0  0  0  0  0  0  0
  149.4736  141.9433  155.9950 N   0  0  0  0  0  0  0  0  0  0  0  0
  149.1274  140.9501  155.0930 C   0  0  0  0  0  0  0  0  0  0  0  0
  150.1252  140.0380  154.9730 C   0  0  0  0  0  0  0  0  0  0  0  0
  150.0349  138.8910  154.0570 C   0  0  0  0  0  0  0  0  0  0  0  0
  150.9240  138.0533  153.9238 O   0  0  0  0  0  0  0  0  0  0  0  0
  148.8690  138.8510  153.3677 N   0  0  0  0  0  0  0  0  0  0  0  0
  147.8280  139.7349  153.4422 C   0  0  0  0  0  0  0  0  0  0  0  0
  146.8285  139.5683  152.7434 O   0  0  0  0  0  0  0  0  0  0  0  0
  147.9491  140.7901  154.3094 N   0  0  0  0  0  0  0  0  0  0  0  0
  146.8677  141.7702  154.4245 C   0  0  0  0  0  0  0  0  0  0  0  0
  148.7569  138.0821  152.7232 H   0  0  0  0  0  0  0  0  0  0  0  0
  155.4455  137.7132  160.4203 H   0  0  0  0  0  0  0  0  0  0  0  0
  155.7771  139.2055  159.5424 H   0  0  0  0  0  0  0  0  0  0  0  0
  155.9400  137.6505  158.7293 H   0  0  0  0  0  0  0  0  0  0  0  0
  153.4602  137.2753  158.9528 H   0  0  0  0  0  0  0  0  0  0  0  0
  153.3003  138.8322  159.7630 H   0  0  0  0  0  0  0  0  0  0  0  0
  152.2810  137.8642  156.8799 H   0  0  0  0  0  0  0  0  0  0  0  0
  151.7763  139.1934  157.9174 H   0  0  0  0  0  0  0  0  0  0  0  0
  153.2369  140.5917  156.0495 H   0  0  0  0  0  0  0  0  0  0  0  0
  152.7283  139.2734  155.0641 H   0  0  0  0  0  0  0  0  0  0  0  0
  152.9185  143.6011  156.6833 H   0  0  0  0  0  0  0  0  0  0  0  0
  151.3188  144.1694  156.3412 H   0  0  0  0  0  0  0  0  0  0  0  0
  152.5253  145.4483  158.1322 H   0  0  0  0  0  0  0  0  0  0  0  0
  149.9569  144.1716  159.1491 H   0  0  0  0  0  0  0  0  0  0  0  0
  150.0841  145.5879  158.1079 H   0  0  0  0  0  0  0  0  0  0  0  0
  150.6906  145.6495  159.7536 H   0  0  0  0  0  0  0  0  0  0  0  0
  153.8297  143.8011  159.2021 H   0  0  0  0  0  0  0  0  0  0  0  0
  152.7256  144.3801  160.4232 H   0  0  0  0  0  0  0  0  0  0  0  0
  151.2524  142.4151  160.0558 H   0  0  0  0  0  0  0  0  0  0  0  0
  154.1625  141.5627  160.4139 H   0  0  0  0  0  0  0  0  0  0  0  0
  152.7467  140.6225  160.8774 H   0  0  0  0  0  0  0  0  0  0  0  0
  153.0944  142.1442  161.6893 H   0  0  0  0  0  0  0  0  0  0  0  0
  151.9169  140.6289  158.4788 H   0  0  0  0  0  0  0  0  0  0  0  0
  153.2916  141.5652  157.9426 H   0  0  0  0  0  0  0  0  0  0  0  0
  145.9277  141.2789  154.6795 H   0  0  0  0  0  0  0  0  0  0  0  0
  146.7309  142.2977  153.4798 H   0  0  0  0  0  0  0  0  0  0  0  0
  147.0595  142.5186  155.1933 H   0  0  0  0  0  0  0  0  0  0  0  0
  1  2  1  0  0  0  0
  1 27  1  0  0  0  0
  1 28  1  0  0  0  0
  1 29  1  0  0  0  0
  2  3  1  0  0  0  0
  2 30  1  0  0  0  0
  2 31  1  0  0  0  0
  3  4  1  0  0  0  0
  4  5  1  0  0  0  0
  4 32  1  0  0  0  0
  4 33  1  0  0  0  0
  5  6  1  0  0  0  0
  5 34  1  0  0  0  0
  5 35  1  0  0  0  0
  6 18  1  0  0  0  0
  6  7  1  0  0  0  0
  7  8  1  0  0  0  0
  7 16  2  0  0  0  0
  8 15  1  0  0  0  0
  8  9  1  0  0  0  0
  9 10  1  0  0  0  0
  9 36  1  0  0  0  0
  9 37  1  0  0  0  0
 10 11  1  0  0  0  0
 10 12  1  0  0  0  0
 10 38  1  0  0  0  0
 11 39  1  0  0  0  0
 11 40  1  0  0  0  0
 11 41  1  0  0  0  0
 12 13  1  0  0  0  0
 12 42  1  0  0  0  0
 12 43  1  0  0  0  0
 13 14  1  0  0  0  0
 13 15  1  0  0  0  0
 13 44  1  0  0  0  0
 14 45  1  0  0  0  0
 14 46  1  0  0  0  0
 14 47  1  0  0  0  0
 15 48  1  0  0  0  0
 15 49  1  0  0  0  0
 16 17  1  0  0  0  0
 17 24  1  0  0  0  0
 17 18  2  0  0  0  0
 18 19  1  0  0  0  0
 19 20  2  0  0  0  0
 19 21  1  0  0  0  0
 21 26  1  0  0  0  0
 21 22  1  0  0  0  0
 22 23  2  0  0  0  0
 22 24  1  0  0  0  0
 24 25  1  0  0  0  0
 25 50  1  0  0  0  0
 25 51  1  0  0  0  0
 25 52  1  0  0  0  0
M  END
> <s_m_source_file>
AV-unprocessed.smi

> <i_m_source_file_index>
546

> <i_lp_mmshare_version>
43012

> <i_f3d_flags>
0

> <s_epik_input>
W0NIM11uMWMoPU8pW25IXWMoPU8pYyhjMTIpbihbQ0gyXVtDSDJdT1tDSDJdW0NIM10pYyhuMilOM1tDSDJdW0NAQEhdKFtDSDNdKVtDSDJdW0NAQEhdKFtDSDNdKVtDSDJdMw==

> <s_epik_cmdline>
J2VwaWtfcHl0aG9uJywgJy1waCcsICc3LjAnLCAnLXRuJywgJzgnLCAnLW1hJywgJzIwMCcsICctbWV0YWxfYmluZGluZycsICctaW1hZScsICc8aW5maWxlLm1hZT4nLCAnLW9tYWUnLCAnPG91dGZpbGUubWFlPic=

> <r_lp_tautomer_probability>
1

> <r_epik_Ionization_Penalty>
0.000576472

> <r_epik_Ionization_Penalty_Charging>
0.000118943

> <r_epik_Ionization_Penalty_Neutral>
0.000457529

> <r_epik_State_Penalty>
-0

> <r_epik_Charging_Adjusted_Penalty>
0.000118943

> <i_epik_Tot_Q>
0

> <i_epik_Tot_abs_Q>
0

> <r_epik_Metal_State_Penalty>
0.0916165

> <b_epik_Metal_Only>
0

> <s_lp_Force_Field>
OPLS_2005

> <r_lp_Energy>
39.3864

> <b_lp_Chiralities_Consistent>
1

> <s_lp_Variant>
AV-unprocessed.smi:546-3

> <Gold.Version>
5.8.1

> <Gold.Id.Protein>
6NUR|6NUR_protein|mol2

> <Gold.PLP.Fitness>
50.9059

> <Gold.PLP.PLP>
-47.4961

> <Gold.PLP.part.hbond>
-3.0000

> <Gold.PLP.part.metal>
0.0000

> <Gold.PLP.part.buried>
-3.0406

> <Gold.PLP.part.nonpolar>
-43.5127

> <Gold.PLP.part.repulsive>
2.4350

> <Gold.PLP.ligand.clash>
0.1132

> <Gold.PLP.ligand.torsion>
1.4954

> <Gold.PLP.Chemscore.Hbond>
2.0000

> <Gold.PLP.Chemscore.CHOScore>
0.0000

> <Gold.PLP.Chemscore.Metal>
0.0000

> <Gold.Chemscore.Hbonds>
donor molecule, donor type, donor heavy atom, donor atom, acceptor molecule, acceptor atom, score
      L1  H    21    26       P1  7948  1.00
      P1  H  7997  8009       L1     3  1.00

> <Gold.PLP.Chemscore.Internal.Correction>
0.5136

> <Gold.Rescore>
     Score         DG    S(hbond)    S(metal)    S(lipo)     H(rot)  DE(clash)    DE(int)     intcor
     15.48     -18.92       1.50        0.00     105.89       1.55       0.99       2.45       ----

> <Gold.Chemscore.Fitness>
15.4766

> <Gold.Chemscore.DG>
-18.9151

> <Gold.Chemscore.ZeroCoef>
-5.4800

> <Gold.Chemscore.Hbond>
1.4987

> <Gold.Chemscore.Metal>
0.0000

> <Gold.Chemscore.Lipo>
105.8855

> <Gold.Chemscore.Internal_Hbond>
0.0000

> <Gold.Chemscore.DEClash>
0.9900

> <Gold.Chemscore.DEInternal>
2.4484

> <Gold.Chemscore.Rot>
1.5465

> <Gold.Chemscore.Internal.Correction>
   9.000000E+99

> <Gold.Chemscore.Hbonds>
donor molecule, donor type, donor heavy atom, donor atom, acceptor molecule, acceptor atom, score
      L1  H    21    26       P1  7948  0.94
      P1  H  7997  8009       L1     3  0.69

> <Gold.Chemscore.Hbond.Weighted>
-5.0056

> <Gold.Chemscore.Metal.Weighted>
-0.0000

> <Gold.Chemscore.Lipo.Weighted>
-12.3886

> <Gold.Chemscore.Internal_Hbond.Weighted>
0.0000

> <Gold.Chemscore.DEClash.Weighted>
0.9900

> <Gold.Chemscore.DEInternal.Weighted>
2.4484

> <Gold.Chemscore.Rot.Weighted>
3.9591

> <Gold.Chemscore.Internal.Correction.Weighted>
   9.000000E+99

> <Gold.Protein.RotatedTorsions>
[ 6907 6896 6895 6894 ] final   90.28 input  -60.11 | X-H torsion
[ 7974 7965 7964 7962 ] final  -55.79 input  175.53 | X-H torsion
[ 8008 7997 7996 7995 ] final  149.37 input   59.86 | X-H torsion
[ 10167 10162 10161 10158 ] final   70.87 input  -65.29 | X-H torsion
[ 10718 10713 10712 10709 ] final -127.22 input   66.30 | X-H torsion
[ 10763 10752 10751 10750 ] final -102.56 input  -60.55 | X-H torsion
[ 11005 11000 10999 10996 ] final  134.27 input  -57.11 | X-H torsion

> <Gold.Protein.ActiveResidues>
 VAL166  LYS551  ARG553  GLY616  TRP617  ASP618  TYR619  PRO620  LYS621  CYS622 
 ASP623  PHE694  ASN695  SER759  ASP760  ASP761  ALA762  ILE779  LEU786  VAL792 
 PHE793  MET794  SER795  GLU796  ALA797  LYS798  CYS799  TRP800  GLU811  SER814 

> <Gold.Protein.RotatedAtoms>
  152.5443  134.1835  159.8644 H   0  0  0  0  0  0  0  0  0  0  0  0  # atno 6907 bound_to 6896
  151.1836  133.4703  159.2602 H   0  0  0  0  0  0  0  0  0  0  0  0  # atno 6908 bound_to 6896
  151.1154  135.0061  159.8569 H   0  0  0  0  0  0  0  0  0  0  0  0  # atno 6909 bound_to 6896
  145.8701  140.8222  142.9893 H   0  0  0  0  0  0  0  0  0  0  0  0  # atno 7974 bound_to 7965
  156.2757  140.2103  156.5847 H   0  0  0  0  0  0  0  0  0  0  0  0  # atno 8008 bound_to 7997
  154.7030  140.0519  157.0500 H   0  0  0  0  0  0  0  0  0  0  0  0  # atno 8009 bound_to 7997
  155.0709  140.3176  155.4634 H   0  0  0  0  0  0  0  0  0  0  0  0  # atno 8010 bound_to 7997
  140.0523  144.5302  150.7354 H   0  0  0  0  0  0  0  0  0  0  0  0  # atno 10167 bound_to 10162
  156.1837  130.6749  151.0337 H   0  0  0  0  0  0  0  0  0  0  0  0  # atno 10718 bound_to 10713
  154.7743  135.4856  153.9712 H   0  0  0  0  0  0  0  0  0  0  0  0  # atno 10763 bound_to 10752
  153.1408  135.6772  153.9037 H   0  0  0  0  0  0  0  0  0  0  0  0  # atno 10764 bound_to 10752
  153.8712  135.3143  155.3420 H   0  0  0  0  0  0  0  0  0  0  0  0  # atno 10765 bound_to 10752
  139.9904  134.9517  156.9843 H   0  0  0  0  0  0  0  0  0  0  0  0  # atno 11005 bound_to 11000
  144.6726  140.1226  143.7449 LP  0  0  0  0  0  0  0  0  0  0  0  0  # atno 17320 bound_to 7965
  145.9147  139.2508  143.1417 LP  0  0  0  0  0  0  0  0  0  0  0  0  # atno 17321 bound_to 7965
  140.7211  143.2590  151.4275 LP  0  0  0  0  0  0  0  0  0  0  0  0  # atno 17342 bound_to 10162
  139.5945  144.1426  152.2128 LP  0  0  0  0  0  0  0  0  0  0  0  0  # atno 17343 bound_to 10162
  157.6885  131.0817  150.7176 LP  0  0  0  0  0  0  0  0  0  0  0  0  # atno 17370 bound_to 10713
  156.7233  130.4687  149.5517 LP  0  0  0  0  0  0  0  0  0  0  0  0  # atno 17371 bound_to 10713
  140.4919  134.1185  155.7234 LP  0  0  0  0  0  0  0  0  0  0  0  0  # atno 17394 bound_to 11000
  141.1561  133.8880  157.1973 LP  0  0  0  0  0  0  0  0  0  0  0  0  # atno 17395 bound_to 11000

$$$$
