AV-unprocessed.smi:2441|AV-procd|sdf|9622|dock4
  -GOLD-   2272013253D 1   1.00000     0.00000
 Structure written by MMmdl.
 40 41  0  0  0  0  0  0  0  0  1 V2000
  148.0359  132.8048  152.8201 C   0  0  0  0  0  0  0  0  0  0  0  0
  146.8814  133.2636  151.9117 C   0  0  1  0  0  0  0  0  0  0  0  0
  145.9236  132.0892  151.6242 C   0  0  0  0  0  0  0  0  0  0  0  0
  144.7563  132.5075  150.7178 C   0  0  0  0  0  0  0  0  0  0  0  0
  143.9866  133.6895  151.3216 C   0  0  0  0  0  0  0  0  0  0  0  0
  144.9256  134.8735  151.5924 C   0  0  0  0  0  0  0  0  0  0  0  0
  146.1059  134.4707  152.4981 C   0  0  2  0  0  0  0  0  0  0  0  0
  146.9889  135.6255  152.6595 N   0  0  0  0  0  0  0  0  0  0  0  0
  146.6055  136.8787  152.9438 C   0  0  0  0  0  0  0  0  0  0  0  0
  145.4323  137.2076  153.1171 O   0  0  0  0  0  0  0  0  0  0  0  0
  147.6691  137.7020  152.9921 N   0  0  0  0  0  0  0  0  0  0  0  0
  147.7207  139.0762  153.2842 C   0  0  0  0  0  0  0  0  0  0  0  0
  146.7449  139.9658  152.9725 C   0  0  0  0  0  0  0  0  0  0  0  0
  146.8737  141.3598  153.3213 C   0  0  0  0  0  0  0  0  0  0  0  0
  147.9769  141.7527  153.9724 C   0  0  0  0  0  0  0  0  0  0  0  0
  148.9950  140.8495  154.3170 N   0  0  0  0  0  0  0  0  0  0  0  0
  150.1419  141.4241  155.0259 C   0  0  0  0  0  0  0  0  0  0  0  0
  148.9302  139.5188  154.0067 C   0  0  0  0  0  0  0  0  0  0  0  0
  149.8354  138.7402  154.3153 O   0  0  0  0  0  0  0  0  0  0  0  0
  147.6703  132.5172  153.8062 H   0  0  0  0  0  0  0  0  0  0  0  0
  148.7787  133.5907  152.9573 H   0  0  0  0  0  0  0  0  0  0  0  0
  148.5517  131.9444  152.3934 H   0  0  0  0  0  0  0  0  0  0  0  0
  147.3173  133.5716  150.9599 H   0  0  0  0  0  0  0  0  0  0  0  0
  146.4692  131.2696  151.1555 H   0  0  0  0  0  0  0  0  0  0  0  0
  145.5300  131.6982  152.5634 H   0  0  0  0  0  0  0  0  0  0  0  0
  145.1366  132.7819  149.7329 H   0  0  0  0  0  0  0  0  0  0  0  0
  144.0827  131.6639  150.5660 H   0  0  0  0  0  0  0  0  0  0  0  0
  143.1865  133.9959  150.6474 H   0  0  0  0  0  0  0  0  0  0  0  0
  143.5077  133.3808  152.2517 H   0  0  0  0  0  0  0  0  0  0  0  0
  145.3022  135.2573  150.6430 H   0  0  0  0  0  0  0  0  0  0  0  0
  144.3634  135.6873  152.0523 H   0  0  0  0  0  0  0  0  0  0  0  0
  145.6953  134.1718  153.4646 H   0  0  0  0  0  0  0  0  0  0  0  0
  147.9758  135.4547  152.5346 H   0  0  0  0  0  0  0  0  0  0  0  0
  148.5608  137.2931  152.7527 H   0  0  0  0  0  0  0  0  0  0  0  0
  145.8378  139.6655  152.4738 H   0  0  0  0  0  0  0  0  0  0  0  0
  146.1002  142.0683  153.0636 H   0  0  0  0  0  0  0  0  0  0  0  0
  148.1546  142.7763  154.2705 H   0  0  0  0  0  0  0  0  0  0  0  0
  150.8734  140.6908  155.3664 H   0  0  0  0  0  0  0  0  0  0  0  0
  149.8023  141.9690  155.9075 H   0  0  0  0  0  0  0  0  0  0  0  0
  150.6632  142.1290  154.3772 H   0  0  0  0  0  0  0  0  0  0  0  0
  1  2  1  0  0  0  0
  1 20  1  0  0  0  0
  1 21  1  0  0  0  0
  1 22  1  0  0  0  0
  2  7  1  0  0  0  0
  2  3  1  0  0  0  0
  2 23  1  0  0  0  0
  3  4  1  0  0  0  0
  3 24  1  0  0  0  0
  3 25  1  0  0  0  0
  4  5  1  0  0  0  0
  4 26  1  0  0  0  0
  4 27  1  0  0  0  0
  5  6  1  0  0  0  0
  5 28  1  0  0  0  0
  5 29  1  0  0  0  0
  6  7  1  0  0  0  0
  6 30  1  0  0  0  0
  6 31  1  0  0  0  0
  7  8  1  0  0  0  0
  7 32  1  0  0  0  0
  8  9  1  0  0  0  0
  8 33  1  0  0  0  0
  9 10  2  0  0  0  0
  9 11  1  0  0  0  0
 11 12  1  0  0  0  0
 11 34  1  0  0  0  0
 12 18  1  0  0  0  0
 12 13  2  0  0  0  0
 13 14  1  0  0  0  0
 13 35  1  0  0  0  0
 14 15  2  0  0  0  0
 14 36  1  0  0  0  0
 15 16  1  0  0  0  0
 15 37  1  0  0  0  0
 16 17  1  0  0  0  0
 16 18  1  0  0  0  0
 17 38  1  0  0  0  0
 17 39  1  0  0  0  0
 17 40  1  0  0  0  0
 18 19  2  0  0  0  0
M  END
> <s_m_source_file>
AV-unprocessed.smi

> <i_m_source_file_index>
2441

> <i_lp_mmshare_version>
43012

> <i_f3d_flags>
0

> <s_epik_input>
W0NIM11bQ0BASF0xW0NIMl1bQ0gyXVtDSDJdW0NIMl1bQ0BIXTFbTkhdQyg9TylbTkhdYzJbY0hdW2NIXVtjSF1uKFtDSDNdKWMyPU8=

> <s_epik_cmdline>
J2VwaWtfcHl0aG9uJywgJy1waCcsICc3LjAnLCAnLXRuJywgJzgnLCAnLW1hJywgJzIwMCcsICctbWV0YWxfYmluZGluZycsICctaW1hZScsICc8aW5maWxlLm1hZT4nLCAnLW9tYWUnLCAnPG91dGZpbGUubWFlPic=

> <r_lp_tautomer_probability>
1

> <r_epik_Ionization_Penalty>
2.64999e-05

> <r_epik_Ionization_Penalty_Charging>
5.09663e-06

> <r_epik_Ionization_Penalty_Neutral>
2.14032e-05

> <r_epik_State_Penalty>
-0

> <r_epik_Charging_Adjusted_Penalty>
5.09663e-06

> <i_epik_Tot_Q>
0

> <i_epik_Tot_abs_Q>
0

> <r_epik_Metal_State_Penalty>
-0

> <b_epik_Metal_Only>
0

> <s_lp_Force_Field>
OPLS_2005

> <r_lp_Energy>
23.8871

> <b_lp_Chiralities_Consistent>
1

> <s_lp_Variant>
AV-unprocessed.smi:2441-4

> <Gold.Version>
5.8.1

> <Gold.Id.Protein>
6NUR|6NUR_protein|mol2

> <Gold.PLP.Fitness>
38.8283

> <Gold.PLP.PLP>
-32.1792

> <Gold.PLP.part.hbond>
-1.0356

> <Gold.PLP.part.metal>
0.0000

> <Gold.PLP.part.buried>
-0.4032

> <Gold.PLP.part.nonpolar>
-30.6896

> <Gold.PLP.part.repulsive>
0.4156

> <Gold.PLP.ligand.clash>
0.0000

> <Gold.PLP.ligand.torsion>
0.3615

> <Gold.PLP.Chemscore.Hbond>
1.4560

> <Gold.PLP.Chemscore.CHOScore>
1.0000

> <Gold.PLP.Chemscore.Metal>
0.0000

> <Gold.Chemscore.Hbonds>
donor molecule, donor type, donor heavy atom, donor atom, acceptor molecule, acceptor atom, score
      L1  H     8    33       P1  7948  0.42
      L1  H    11    34       P1  7948  0.51
      L1  C    15    37       P1  8028  1.00

> <Gold.PLP.Chemscore.Internal.Correction>
0.0041

> <Gold.Rescore>
     Score         DG    S(hbond)    S(metal)    S(lipo)     H(rot)  DE(clash)    DE(int)     intcor
     15.36     -17.12       1.64        0.00      74.59       1.00       0.50       1.25       ----

> <Gold.Chemscore.Fitness>
15.3645

> <Gold.Chemscore.DG>
-17.1195

> <Gold.Chemscore.ZeroCoef>
-5.4800

> <Gold.Chemscore.Hbond>
1.6386

> <Gold.Chemscore.Metal>
0.0000

> <Gold.Chemscore.Lipo>
74.5871

> <Gold.Chemscore.Internal_Hbond>
0.0000

> <Gold.Chemscore.DEClash>
0.5028

> <Gold.Chemscore.DEInternal>
1.2522

> <Gold.Chemscore.Rot>
1.0000

> <Gold.Chemscore.Internal.Correction>
   9.000000E+99

> <Gold.Chemscore.Hbonds>
donor molecule, donor type, donor heavy atom, donor atom, acceptor molecule, acceptor atom, score
      L1  H     8    33       P1  7948  0.41
      L1  H    11    34       P1  7948  0.49

> <Gold.Chemscore.Hbond.Weighted>
-5.4728

> <Gold.Chemscore.Metal.Weighted>
-0.0000

> <Gold.Chemscore.Lipo.Weighted>
-8.7267

> <Gold.Chemscore.Internal_Hbond.Weighted>
0.0000

> <Gold.Chemscore.DEClash.Weighted>
0.5028

> <Gold.Chemscore.DEInternal.Weighted>
1.2522

> <Gold.Chemscore.Rot.Weighted>
2.5600

> <Gold.Chemscore.Internal.Correction.Weighted>
   9.000000E+99

> <Gold.Protein.RotatedTorsions>
[ 6907 6896 6895 6894 ] final  177.84 input  -60.11 | X-H torsion
[ 7974 7965 7964 7962 ] final   64.20 input  175.53 | X-H torsion
[ 8008 7997 7996 7995 ] final  -57.78 input   59.86 | X-H torsion
[ 10167 10162 10161 10158 ] final  -55.90 input  -65.29 | X-H torsion
[ 10718 10713 10712 10709 ] final  -12.41 input   66.30 | X-H torsion
[ 10763 10752 10751 10750 ] final -123.86 input  -60.55 | X-H torsion
[ 11005 11000 10999 10996 ] final   72.51 input  -57.11 | X-H torsion

> <Gold.Protein.ActiveResidues>
 VAL166  LYS551  ARG553  GLY616  TRP617  ASP618  TYR619  PRO620  LYS621  CYS622 
 ASP623  PHE694  ASN695  SER759  ASP760  ASP761  ALA762  ILE779  LEU786  VAL792 
 PHE793  MET794  SER795  GLU796  ALA797  LYS798  CYS799  TRP800  GLU811  SER814 

> <Gold.Protein.RotatedAtoms>
  151.6976  133.3311  159.3258 H   0  0  0  0  0  0  0  0  0  0  0  0  # atno 6907 bound_to 6896
  150.7750  134.6644  159.6366 H   0  0  0  0  0  0  0  0  0  0  0  0  # atno 6908 bound_to 6896
  152.3789  134.6623  160.0202 H   0  0  0  0  0  0  0  0  0  0  0  0  # atno 6909 bound_to 6896
  145.8530  139.3266  143.0864 H   0  0  0  0  0  0  0  0  0  0  0  0  # atno 7974 bound_to 7965
  154.4282  140.1099  156.5852 H   0  0  0  0  0  0  0  0  0  0  0  0  # atno 8008 bound_to 7997
  155.6070  140.3494  155.4592 H   0  0  0  0  0  0  0  0  0  0  0  0  # atno 8009 bound_to 7997
  156.0129  140.1223  157.0425 H   0  0  0  0  0  0  0  0  0  0  0  0  # atno 8010 bound_to 7997
  140.6348  143.2477  151.5146 H   0  0  0  0  0  0  0  0  0  0  0  0  # atno 10167 bound_to 10162
  156.6450  130.4939  149.6081 H   0  0  0  0  0  0  0  0  0  0  0  0  # atno 10718 bound_to 10713
  154.8714  135.4083  154.3012 H   0  0  0  0  0  0  0  0  0  0  0  0  # atno 10763 bound_to 10752
  153.3871  135.7013  153.6527 H   0  0  0  0  0  0  0  0  0  0  0  0  # atno 10764 bound_to 10752
  153.5325  135.3664  155.2653 H   0  0  0  0  0  0  0  0  0  0  0  0  # atno 10765 bound_to 10752
  139.9487  134.7266  156.0915 H   0  0  0  0  0  0  0  0  0  0  0  0  # atno 11005 bound_to 11000
  145.9336  140.9030  143.0343 LP  0  0  0  0  0  0  0  0  0  0  0  0  # atno 17320 bound_to 7965
  144.6728  140.1452  143.7434 LP  0  0  0  0  0  0  0  0  0  0  0  0  # atno 17321 bound_to 7965
  139.5559  144.2276  152.1612 LP  0  0  0  0  0  0  0  0  0  0  0  0  # atno 17342 bound_to 10162
  140.1530  144.5097  150.6676 LP  0  0  0  0  0  0  0  0  0  0  0  0  # atno 17343 bound_to 10162
  156.2129  130.6690  151.1288 LP  0  0  0  0  0  0  0  0  0  0  0  0  # atno 17370 bound_to 10713
  157.7159  131.0710  150.6329 LP  0  0  0  0  0  0  0  0  0  0  0  0  # atno 17371 bound_to 10713
  141.1145  133.6632  156.3059 LP  0  0  0  0  0  0  0  0  0  0  0  0  # atno 17394 bound_to 11000
  140.5771  134.5783  157.5471 LP  0  0  0  0  0  0  0  0  0  0  0  0  # atno 17395 bound_to 11000

$$$$
