AV-unprocessed.smi:2327|AV-procd|sdf|9298|dock7
  -GOLD-   2272012523D 1   1.00000     0.00000
 Structure written by MMmdl.
 40 41  0  0  0  0  0  0  0  0  1 V2000
  153.3150  141.5936  159.3987 C   0  0  0  0  0  0  0  0  0  0  0  0
  152.3738  141.3003  158.2728 C   0  0  0  0  0  0  0  0  0  0  0  0
  151.2910  142.0494  157.8858 C   0  0  0  0  0  0  0  0  0  0  0  0
  150.4640  141.3410  156.5262 S   0  0  0  0  0  0  0  0  0  0  0  0
  151.6368  140.0278  156.5345 C   0  0  0  0  0  0  0  0  0  0  0  0
  151.6200  138.9078  155.5374 C   0  0  2  0  0  0  0  0  0  0  0  0
  152.8767  138.8946  154.6559 C   0  0  0  0  0  0  0  0  0  0  0  0
  150.3096  138.8477  154.7238 C   0  0  0  0  0  0  0  0  0  0  0  0
  150.0253  137.4978  154.2497 N   0  0  0  0  0  0  0  0  0  0  0  0
  150.0542  136.3882  155.0053 C   0  0  0  0  0  0  0  0  0  0  0  0
  150.4575  136.3685  156.1665 O   0  0  0  0  0  0  0  0  0  0  0  0
  149.6102  135.2801  154.3861 N   0  0  0  0  0  0  0  0  0  0  0  0
  149.5151  133.9238  154.9307 C   0  0  0  0  0  0  0  0  0  0  0  0
  150.8609  133.5191  155.5499 C   0  0  0  0  0  0  0  0  0  0  0  0
  150.8306  132.0504  156.0025 C   0  0  0  0  0  0  0  0  0  0  0  0
  150.4951  131.2100  154.9034 O   0  0  0  0  0  0  0  0  0  0  0  0
  149.1993  131.4761  154.3769 C   0  0  0  0  0  0  0  0  0  0  0  0
  149.1344  132.9132  153.8349 C   0  0  0  0  0  0  0  0  0  0  0  0
  152.5619  140.1573  157.4908 N   0  0  0  0  0  0  0  0  0  0  0  0
  152.9903  142.4606  159.9744 H   0  0  0  0  0  0  0  0  0  0  0  0
  154.3191  141.8008  159.0283 H   0  0  0  0  0  0  0  0  0  0  0  0
  153.3825  140.7499  160.0859 H   0  0  0  0  0  0  0  0  0  0  0  0
  150.9296  142.9712  158.3169 H   0  0  0  0  0  0  0  0  0  0  0  0
  151.6587  137.9878  156.1228 H   0  0  0  0  0  0  0  0  0  0  0  0
  153.7807  138.8345  155.2625 H   0  0  0  0  0  0  0  0  0  0  0  0
  152.9431  139.7961  154.0459 H   0  0  0  0  0  0  0  0  0  0  0  0
  152.8735  138.0372  153.9822 H   0  0  0  0  0  0  0  0  0  0  0  0
  149.4736  139.1514  155.3545 H   0  0  0  0  0  0  0  0  0  0  0  0
  150.3384  139.5503  153.8894 H   0  0  0  0  0  0  0  0  0  0  0  0
  149.7015  137.4114  153.2974 H   0  0  0  0  0  0  0  0  0  0  0  0
  149.4086  135.3691  153.4005 H   0  0  0  0  0  0  0  0  0  0  0  0
  148.7650  133.8935  155.7238 H   0  0  0  0  0  0  0  0  0  0  0  0
  151.6617  133.6519  154.8209 H   0  0  0  0  0  0  0  0  0  0  0  0
  151.0973  134.1656  156.3961 H   0  0  0  0  0  0  0  0  0  0  0  0
  151.8083  131.7566  156.3846 H   0  0  0  0  0  0  0  0  0  0  0  0
  150.1161  131.9082  156.8149 H   0  0  0  0  0  0  0  0  0  0  0  0
  148.9922  130.7652  153.5769 H   0  0  0  0  0  0  0  0  0  0  0  0
  148.4428  131.3171  155.1471 H   0  0  0  0  0  0  0  0  0  0  0  0
  148.1342  133.1190  153.4523 H   0  0  0  0  0  0  0  0  0  0  0  0
  149.8172  133.0088  152.9895 H   0  0  0  0  0  0  0  0  0  0  0  0
  1  2  1  0  0  0  0
  1 20  1  0  0  0  0
  1 21  1  0  0  0  0
  1 22  1  0  0  0  0
  2 19  1  0  0  0  0
  2  3  2  0  0  0  0
  3  4  1  0  0  0  0
  3 23  1  0  0  0  0
  4  5  1  0  0  0  0
  5  6  1  0  0  0  0
  5 19  2  0  0  0  0
  6  7  1  0  0  0  0
  6  8  1  0  0  0  0
  6 24  1  0  0  0  0
  7 25  1  0  0  0  0
  7 26  1  0  0  0  0
  7 27  1  0  0  0  0
  8  9  1  0  0  0  0
  8 28  1  0  0  0  0
  8 29  1  0  0  0  0
  9 10  1  0  0  0  0
  9 30  1  0  0  0  0
 10 11  2  0  0  0  0
 10 12  1  0  0  0  0
 12 13  1  0  0  0  0
 12 31  1  0  0  0  0
 13 18  1  0  0  0  0
 13 14  1  0  0  0  0
 13 32  1  0  0  0  0
 14 15  1  0  0  0  0
 14 33  1  0  0  0  0
 14 34  1  0  0  0  0
 15 16  1  0  0  0  0
 15 35  1  0  0  0  0
 15 36  1  0  0  0  0
 16 17  1  0  0  0  0
 17 18  1  0  0  0  0
 17 37  1  0  0  0  0
 17 38  1  0  0  0  0
 18 39  1  0  0  0  0
 18 40  1  0  0  0  0
M  END
> <s_m_source_file>
AV-unprocessed.smi

> <i_m_source_file_index>
2327

> <i_lp_mmshare_version>
43012

> <i_f3d_flags>
0

> <s_epik_input>
W0NIM11jMVtjSF1zYyhuMSlbQ0BIXShbQ0gzXSlbQ0gyXVtOSF1DKD1PKVtOSF1bQ0hdMltDSDJdW0NIMl1PW0NIMl1bQ0gyXTI=

> <s_epik_cmdline>
J2VwaWtfcHl0aG9uJywgJy1waCcsICc3LjAnLCAnLXRuJywgJzgnLCAnLW1hJywgJzIwMCcsICctbWV0YWxfYmluZGluZycsICctaW1hZScsICc8aW5maWxlLm1hZT4nLCAnLW9tYWUnLCAnPG91dGZpbGUubWFlPic=

> <r_epik_Ionization_Penalty>
0.0015425

> <r_epik_Ionization_Penalty_Charging>
0

> <r_epik_Ionization_Penalty_Neutral>
0.0015425

> <r_epik_State_Penalty>
0.000998134

> <r_epik_Charging_Adjusted_Penalty>
0.000998134

> <i_epik_Tot_Q>
0

> <i_epik_Tot_abs_Q>
0

> <r_epik_Metal_State_Penalty>
-0

> <b_epik_Metal_Only>
0

> <s_lp_Force_Field>
OPLS_2005

> <r_lp_Energy>
7.05585

> <b_lp_Chiralities_Consistent>
1

> <s_lp_Variant>
AV-unprocessed.smi:2327-1

> <Gold.Version>
5.8.1

> <Gold.Id.Protein>
6NUR|6NUR_protein|mol2

> <Gold.PLP.Fitness>
43.4571

> <Gold.PLP.PLP>
-35.5972

> <Gold.PLP.part.hbond>
-3.0000

> <Gold.PLP.part.metal>
0.0000

> <Gold.PLP.part.buried>
-4.8561

> <Gold.PLP.part.nonpolar>
-28.3171

> <Gold.PLP.part.repulsive>
0.1051

> <Gold.PLP.ligand.clash>
0.0000

> <Gold.PLP.ligand.torsion>
0.4868

> <Gold.PLP.Chemscore.Hbond>
2.9013

> <Gold.PLP.Chemscore.CHOScore>
0.0000

> <Gold.PLP.Chemscore.Metal>
0.0000

> <Gold.Chemscore.Hbonds>
donor molecule, donor type, donor heavy atom, donor atom, acceptor molecule, acceptor atom, score
      L1  H     9    30       P1  7948  0.96
      L1  H    12    31       P1  7948  0.80
      P1  H  7997  8008       L1    19  1.00

> <Gold.PLP.Chemscore.Internal.Correction>
0.1298

> <Gold.Rescore>
     Score         DG    S(hbond)    S(metal)    S(lipo)     H(rot)  DE(clash)    DE(int)     intcor
     15.54     -18.86       2.17        0.00      85.91       1.53       0.06       3.26       ----

> <Gold.Chemscore.Fitness>
15.5395

> <Gold.Chemscore.DG>
-18.8596

> <Gold.Chemscore.ZeroCoef>
-5.4800

> <Gold.Chemscore.Hbond>
2.1711

> <Gold.Chemscore.Metal>
0.0000

> <Gold.Chemscore.Lipo>
85.9086

> <Gold.Chemscore.Internal_Hbond>
0.0000

> <Gold.Chemscore.DEClash>
0.0618

> <Gold.Chemscore.DEInternal>
3.2583

> <Gold.Chemscore.Rot>
1.5325

> <Gold.Chemscore.Internal.Correction>
   9.000000E+99

> <Gold.Chemscore.Hbonds>
donor molecule, donor type, donor heavy atom, donor atom, acceptor molecule, acceptor atom, score
      L1  H     9    30       P1  7948  0.63
      L1  H    12    31       P1  7948  0.12
      P1  H  7997  8008       L1    19  0.60

> <Gold.Chemscore.Hbond.Weighted>
-7.2516

> <Gold.Chemscore.Metal.Weighted>
-0.0000

> <Gold.Chemscore.Lipo.Weighted>
-10.0513

> <Gold.Chemscore.Internal_Hbond.Weighted>
0.0000

> <Gold.Chemscore.DEClash.Weighted>
0.0618

> <Gold.Chemscore.DEInternal.Weighted>
3.2583

> <Gold.Chemscore.Rot.Weighted>
3.9233

> <Gold.Chemscore.Internal.Correction.Weighted>
   9.000000E+99

> <Gold.Protein.RotatedTorsions>
[ 6907 6896 6895 6894 ] final   71.18 input  -60.11 | X-H torsion
[ 7974 7965 7964 7962 ] final -122.11 input  175.53 | X-H torsion
[ 8008 7997 7996 7995 ] final  -67.15 input   59.86 | X-H torsion
[ 10167 10162 10161 10158 ] final   22.43 input  -65.29 | X-H torsion
[ 10718 10713 10712 10709 ] final   87.64 input   66.30 | X-H torsion
[ 10763 10752 10751 10750 ] final  -20.50 input  -60.55 | X-H torsion
[ 11005 11000 10999 10996 ] final    5.20 input  -57.11 | X-H torsion

> <Gold.Protein.ActiveResidues>
 VAL166  LYS551  ARG553  GLY616  TRP617  ASP618  TYR619  PRO620  LYS621  CYS622 
 ASP623  PHE694  ASN695  SER759  ASP760  ASP761  ALA762  ILE779  LEU786  VAL792 
 PHE793  MET794  SER795  GLU796  ALA797  LYS798  CYS799  TRP800  GLU811  SER814 

> <Gold.Protein.RotatedAtoms>
  152.4795  134.4758  159.9649 H   0  0  0  0  0  0  0  0  0  0  0  0  # atno 6907 bound_to 6896
  151.4767  133.3550  159.2839 H   0  0  0  0  0  0  0  0  0  0  0  0  # atno 6908 bound_to 6896
  150.8856  134.8280  159.7318 H   0  0  0  0  0  0  0  0  0  0  0  0  # atno 6909 bound_to 6896
  145.0330  140.8083  143.4312 H   0  0  0  0  0  0  0  0  0  0  0  0  # atno 7974 bound_to 7965
  154.4781  140.0898  156.7311 H   0  0  0  0  0  0  0  0  0  0  0  0  # atno 8008 bound_to 7997
  155.4543  140.3458  155.4286 H   0  0  0  0  0  0  0  0  0  0  0  0  # atno 8009 bound_to 7997
  156.1148  140.1458  156.9276 H   0  0  0  0  0  0  0  0  0  0  0  0  # atno 8010 bound_to 7997
  140.5349  143.9777  150.6486 H   0  0  0  0  0  0  0  0  0  0  0  0  # atno 10167 bound_to 10162
  157.6942  131.0263  150.3154 H   0  0  0  0  0  0  0  0  0  0  0  0  # atno 10718 bound_to 10713
  153.6215  135.6992  153.5309 H   0  0  0  0  0  0  0  0  0  0  0  0  # atno 10763 bound_to 10752
  153.2934  135.4150  155.1187 H   0  0  0  0  0  0  0  0  0  0  0  0  # atno 10764 bound_to 10752
  154.8542  135.3631  154.5756 H   0  0  0  0  0  0  0  0  0  0  0  0  # atno 10765 bound_to 10752
  140.5733  134.0081  155.8017 H   0  0  0  0  0  0  0  0  0  0  0  0  # atno 11005 bound_to 11000
  145.1746  139.2385  143.5324 LP  0  0  0  0  0  0  0  0  0  0  0  0  # atno 17320 bound_to 7965
  146.3501  140.1505  142.8592 LP  0  0  0  0  0  0  0  0  0  0  0  0  # atno 17321 bound_to 7965
  140.3162  143.3166  152.0829 LP  0  0  0  0  0  0  0  0  0  0  0  0  # atno 17342 bound_to 10162
  139.4967  144.6604  151.6478 LP  0  0  0  0  0  0  0  0  0  0  0  0  # atno 17343 bound_to 10162
  156.3649  130.3853  149.7221 LP  0  0  0  0  0  0  0  0  0  0  0  0  # atno 17370 bound_to 10713
  156.4655  130.7972  151.2991 LP  0  0  0  0  0  0  0  0  0  0  0  0  # atno 17371 bound_to 10713
  141.1042  133.9720  157.3026 LP  0  0  0  0  0  0  0  0  0  0  0  0  # atno 17394 bound_to 11000
  139.9351  135.0197  156.8530 LP  0  0  0  0  0  0  0  0  0  0  0  0  # atno 17395 bound_to 11000

$$$$
