AV-unprocessed.smi:1394|AV-procd|sdf|5668|dock4
  -GOLD-   22720 5293D 1   1.00000     0.00000
 Structure written by MMmdl.
 41 42  0  0  0  0  0  0  0  0  1 V2000
  148.7523  141.3326  154.3941 C   0  0  0  0  0  0  0  0  0  0  0  0
  149.1756  140.0509  155.1342 C   0  0  1  0  0  0  0  0  0  0  0  0
  148.5962  138.8058  154.4321 C   0  0  0  0  0  0  0  0  0  0  0  0
  148.9914  137.5067  155.1503 C   0  0  0  0  0  0  0  0  0  0  0  0
  150.5163  137.3890  155.2750 C   0  0  0  0  0  0  0  0  0  0  0  0
  151.1049  138.6143  155.9885 C   0  0  0  0  0  0  0  0  0  0  0  0
  150.7136  139.9294  155.2805 C   0  0  2  0  0  0  0  0  0  0  0  0
  151.2465  141.0693  156.0237 N   0  0  0  0  0  0  0  0  0  0  0  0
  150.7805  141.5200  157.1982 C   0  0  0  0  0  0  0  0  0  0  0  0
  149.8391  140.9984  157.7972 O   0  0  0  0  0  0  0  0  0  0  0  0
  151.5073  142.7359  157.7892 C   0  0  0  0  0  0  0  0  0  0  0  0
  152.1561  142.4489  159.0801 N   0  0  0  0  0  0  0  0  0  0  0  0
  151.9378  143.3673  160.1226 C   0  0  0  0  0  0  0  0  0  0  0  0
  152.4832  143.2008  161.3349 C   0  0  0  0  0  0  0  0  0  0  0  0
  153.3118  142.0410  161.5571 C   0  0  0  0  0  0  0  0  0  0  0  0
  153.5417  141.1410  160.5729 C   0  0  0  0  0  0  0  0  0  0  0  0
  154.4125  139.9058  160.7914 C   0  0  0  0  0  0  0  0  0  0  0  0
  155.4887  139.9460  160.0050 F   0  0  0  0  0  0  0  0  0  0  0  0
  154.8331  139.8132  162.0538 F   0  0  0  0  0  0  0  0  0  0  0  0
  153.7304  138.7953  160.5075 F   0  0  0  0  0  0  0  0  0  0  0  0
  152.9388  141.3366  159.2385 C   0  0  0  0  0  0  0  0  0  0  0  0
  153.1229  140.5477  158.3098 O   0  0  0  0  0  0  0  0  0  0  0  0
  149.1744  141.3654  153.3894 H   0  0  0  0  0  0  0  0  0  0  0  0
  149.0773  142.2299  154.9209 H   0  0  0  0  0  0  0  0  0  0  0  0
  147.6677  141.3897  154.2998 H   0  0  0  0  0  0  0  0  0  0  0  0
  148.7434  140.0942  156.1352 H   0  0  0  0  0  0  0  0  0  0  0  0
  147.5090  138.8763  154.3838 H   0  0  0  0  0  0  0  0  0  0  0  0
  148.9476  138.7691  153.4000 H   0  0  0  0  0  0  0  0  0  0  0  0
  148.5392  137.4835  156.1427 H   0  0  0  0  0  0  0  0  0  0  0  0
  148.5954  136.6472  154.6087 H   0  0  0  0  0  0  0  0  0  0  0  0
  150.7767  136.4807  155.8190 H   0  0  0  0  0  0  0  0  0  0  0  0
  150.9601  137.2940  154.2831 H   0  0  0  0  0  0  0  0  0  0  0  0
  150.7539  138.6327  157.0214 H   0  0  0  0  0  0  0  0  0  0  0  0
  152.1903  138.5182  156.0347 H   0  0  0  0  0  0  0  0  0  0  0  0
  151.1482  139.9276  154.2786 H   0  0  0  0  0  0  0  0  0  0  0  0
  152.0268  141.5564  155.6072 H   0  0  0  0  0  0  0  0  0  0  0  0
  152.2392  143.0795  157.0571 H   0  0  0  0  0  0  0  0  0  0  0  0
  150.8063  143.5654  157.9012 H   0  0  0  0  0  0  0  0  0  0  0  0
  151.3105  144.2104  159.8725 H   0  0  0  0  0  0  0  0  0  0  0  0
  152.3085  143.9171  162.1242 H   0  0  0  0  0  0  0  0  0  0  0  0
  153.7491  141.9033  162.5346 H   0  0  0  0  0  0  0  0  0  0  0  0
  1  2  1  0  0  0  0
  1 23  1  0  0  0  0
  1 24  1  0  0  0  0
  1 25  1  0  0  0  0
  2  7  1  0  0  0  0
  2  3  1  0  0  0  0
  2 26  1  0  0  0  0
  3  4  1  0  0  0  0
  3 27  1  0  0  0  0
  3 28  1  0  0  0  0
  4  5  1  0  0  0  0
  4 29  1  0  0  0  0
  4 30  1  0  0  0  0
  5  6  1  0  0  0  0
  5 31  1  0  0  0  0
  5 32  1  0  0  0  0
  6  7  1  0  0  0  0
  6 33  1  0  0  0  0
  6 34  1  0  0  0  0
  7  8  1  0  0  0  0
  7 35  1  0  0  0  0
  8  9  1  0  0  0  0
  8 36  1  0  0  0  0
  9 10  2  0  0  0  0
  9 11  1  0  0  0  0
 11 12  1  0  0  0  0
 11 37  1  0  0  0  0
 11 38  1  0  0  0  0
 12 21  1  0  0  0  0
 12 13  1  0  0  0  0
 13 14  2  0  0  0  0
 13 39  1  0  0  0  0
 14 15  1  0  0  0  0
 14 40  1  0  0  0  0
 15 16  2  0  0  0  0
 15 41  1  0  0  0  0
 16 17  1  0  0  0  0
 16 21  1  0  0  0  0
 17 18  1  0  0  0  0
 17 19  1  0  0  0  0
 17 20  1  0  0  0  0
 21 22  2  0  0  0  0
M  END
> <s_m_source_file>
AV-unprocessed.smi

> <i_m_source_file_index>
1394

> <i_lp_mmshare_version>
43012

> <i_f3d_flags>
0

> <s_epik_input>
W0NIM11bQ0BASF0xW0NIMl1bQ0gyXVtDSDJdW0NIMl1bQ0BIXTFbTkhdQyg9TylbQ0gyXW4yW2NIXVtjSF1bY0hdYyhDKEYpKEYpRiljMj1P

> <s_epik_cmdline>
J2VwaWtfcHl0aG9uJywgJy1waCcsICc3LjAnLCAnLXRuJywgJzgnLCAnLW1hJywgJzIwMCcsICctbWV0YWxfYmluZGluZycsICctaW1hZScsICc8aW5maWxlLm1hZT4nLCAnLW9tYWUnLCAnPG91dGZpbGUubWFlPic=

> <r_lp_tautomer_probability>
1

> <r_epik_Ionization_Penalty>
2.11487e-08

> <r_epik_Ionization_Penalty_Charging>
2.10183e-09

> <r_epik_Ionization_Penalty_Neutral>
1.90469e-08

> <r_epik_State_Penalty>
-0

> <r_epik_Charging_Adjusted_Penalty>
2.10183e-09

> <i_epik_Tot_Q>
0

> <i_epik_Tot_abs_Q>
0

> <r_epik_Metal_State_Penalty>
-0

> <b_epik_Metal_Only>
0

> <s_lp_Force_Field>
OPLS_2005

> <r_lp_Energy>
20.4612

> <b_lp_Chiralities_Consistent>
1

> <s_lp_Variant>
AV-unprocessed.smi:1394-4

> <Gold.Version>
5.8.1

> <Gold.Id.Protein>
6NUR|6NUR_protein|mol2

> <Gold.PLP.Fitness>
44.8232

> <Gold.PLP.PLP>
-43.0530

> <Gold.PLP.part.hbond>
-1.0000

> <Gold.PLP.part.metal>
0.0000

> <Gold.PLP.part.buried>
-2.0375

> <Gold.PLP.part.nonpolar>
-40.1618

> <Gold.PLP.part.repulsive>
0.1914

> <Gold.PLP.ligand.clash>
0.2522

> <Gold.PLP.ligand.torsion>
0.2904

> <Gold.PLP.Chemscore.Hbond>
0.7680

> <Gold.PLP.Chemscore.CHOScore>
0.0000

> <Gold.PLP.Chemscore.Metal>
0.0000

> <Gold.Chemscore.Hbonds>
donor molecule, donor type, donor heavy atom, donor atom, acceptor molecule, acceptor atom, score
      P1  H  7997  8009       L1    22  0.77

> <Gold.PLP.Chemscore.Internal.Correction>
0.2992

> <Gold.Rescore>
     Score         DG    S(hbond)    S(metal)    S(lipo)     H(rot)  DE(clash)    DE(int)     intcor
     10.86     -15.77       0.84        0.00      97.37       1.52       0.35       4.56       ----

> <Gold.Chemscore.Fitness>
10.8616

> <Gold.Chemscore.DG>
-15.7743

> <Gold.Chemscore.ZeroCoef>
-5.4800

> <Gold.Chemscore.Hbond>
0.8395

> <Gold.Chemscore.Metal>
0.0000

> <Gold.Chemscore.Lipo>
97.3686

> <Gold.Chemscore.Internal_Hbond>
0.0000

> <Gold.Chemscore.DEClash>
0.3486

> <Gold.Chemscore.DEInternal>
4.5642

> <Gold.Chemscore.Rot>
1.5242

> <Gold.Chemscore.Internal.Correction>
   9.000000E+99

> <Gold.Chemscore.Hbonds>
donor molecule, donor type, donor heavy atom, donor atom, acceptor molecule, acceptor atom, score
      P1  H  7997  8009       L1    22  0.75

> <Gold.Chemscore.Hbond.Weighted>
-2.8041

> <Gold.Chemscore.Metal.Weighted>
-0.0000

> <Gold.Chemscore.Lipo.Weighted>
-11.3921

> <Gold.Chemscore.Internal_Hbond.Weighted>
0.0000

> <Gold.Chemscore.DEClash.Weighted>
0.3486

> <Gold.Chemscore.DEInternal.Weighted>
4.5642

> <Gold.Chemscore.Rot.Weighted>
3.9019

> <Gold.Chemscore.Internal.Correction.Weighted>
   9.000000E+99

> <Gold.Protein.RotatedTorsions>
[ 6907 6896 6895 6894 ] final  -58.67 input  -60.11 | X-H torsion
[ 7974 7965 7964 7962 ] final -133.78 input  175.53 | X-H torsion
[ 8008 7997 7996 7995 ] final  158.25 input   59.86 | X-H torsion
[ 10167 10162 10161 10158 ] final   -8.30 input  -65.29 | X-H torsion
[ 10718 10713 10712 10709 ] final  130.61 input   66.30 | X-H torsion
[ 10763 10752 10751 10750 ] final   31.32 input  -60.55 | X-H torsion
[ 11005 11000 10999 10996 ] final -102.31 input  -57.11 | X-H torsion

> <Gold.Protein.ActiveResidues>
 VAL166  LYS551  ARG553  GLY616  TRP617  ASP618  TYR619  PRO620  LYS621  CYS622 
 ASP623  PHE694  ASN695  SER759  ASP760  ASP761  ALA762  ILE779  LEU786  VAL792 
 PHE793  MET794  SER795  GLU796  ALA797  LYS798  CYS799  TRP800  GLU811  SER814 

> <Gold.Protein.RotatedAtoms>
  150.7989  134.7068  159.6580 H   0  0  0  0  0  0  0  0  0  0  0  0  # atno 6907 bound_to 6896
  152.4104  134.6131  160.0040 H   0  0  0  0  0  0  0  0  0  0  0  0  # atno 6908 bound_to 6896
  151.6376  133.3291  159.3159 H   0  0  0  0  0  0  0  0  0  0  0  0  # atno 6909 bound_to 6896
  144.9162  140.6957  143.4994 H   0  0  0  0  0  0  0  0  0  0  0  0  # atno 7974 bound_to 7965
  156.2314  140.1863  156.7231 H   0  0  0  0  0  0  0  0  0  0  0  0  # atno 8008 bound_to 7997
  154.6030  140.0633  156.9421 H   0  0  0  0  0  0  0  0  0  0  0  0  # atno 8009 bound_to 7997
  155.2143  140.3302  155.4327 H   0  0  0  0  0  0  0  0  0  0  0  0  # atno 8010 bound_to 7997
  140.7055  143.5984  150.8822 H   0  0  0  0  0  0  0  0  0  0  0  0  # atno 10167 bound_to 10162
  157.5046  131.1095  150.9379 H   0  0  0  0  0  0  0  0  0  0  0  0  # atno 10718 bound_to 10713
  153.0322  135.6442  154.1181 H   0  0  0  0  0  0  0  0  0  0  0  0  # atno 10763 bound_to 10752
  154.0901  135.2867  155.3275 H   0  0  0  0  0  0  0  0  0  0  0  0  # atno 10764 bound_to 10752
  154.6470  135.5439  153.7920 H   0  0  0  0  0  0  0  0  0  0  0  0  # atno 10765 bound_to 10752
  141.1194  133.8548  157.1343 H   0  0  0  0  0  0  0  0  0  0  0  0  # atno 11005 bound_to 11000
  145.3371  139.1742  143.4505 LP  0  0  0  0  0  0  0  0  0  0  0  0  # atno 17320 bound_to 7965
  146.3183  140.3408  142.8648 LP  0  0  0  0  0  0  0  0  0  0  0  0  # atno 17321 bound_to 7965
  139.9709  143.6058  152.2974 LP  0  0  0  0  0  0  0  0  0  0  0  0  # atno 17342 bound_to 10162
  139.6644  144.7662  151.1901 LP  0  0  0  0  0  0  0  0  0  0  0  0  # atno 17343 bound_to 10162
  157.0039  130.5610  149.5314 LP  0  0  0  0  0  0  0  0  0  0  0  0  # atno 17370 bound_to 10713
  156.0250  130.5344  150.8382 LP  0  0  0  0  0  0  0  0  0  0  0  0  # atno 17371 bound_to 10713
  140.0140  134.9975  157.0455 LP  0  0  0  0  0  0  0  0  0  0  0  0  # atno 17394 bound_to 11000
  140.4550  134.1542  155.7185 LP  0  0  0  0  0  0  0  0  0  0  0  0  # atno 17395 bound_to 11000

$$$$
