AV-unprocessed.smi:1306|AV-procd|sdf|5435|dock6
  -GOLD-   22720 5 03D 1   1.00000     0.00000
 Structure written by MMmdl.
 38 39  0  0  0  0  0  0  0  0  2 V2000
  152.4323  136.8779  160.1012 O   0  0  0  0  0  0  0  0  0  0  0  0
  153.0523  137.3936  159.1700 C   0  0  0  0  0  0  0  0  0  0  0  0
  153.1335  136.7021  157.8023 C   0  0  0  0  0  0  0  0  0  0  0  0
  152.5883  137.5252  156.7109 N   0  0  0  0  0  0  0  0  0  0  0  0
  153.3277  138.6511  156.3079 C   0  0  0  0  0  0  0  0  0  0  0  0
  152.9087  139.4578  155.3144 C   0  0  0  0  0  0  0  0  0  0  0  0
  151.6509  139.1389  154.6503 C   0  0  0  0  0  0  0  0  0  0  0  0
  151.2512  139.8663  153.7433 O   0  0  0  0  0  0  0  0  0  0  0  0
  150.9711  138.0340  155.0754 N   0  5  0  0  0  0  0  0  0  0  0  0
  151.4106  137.2212  156.0859 C   0  0  0  0  0  0  0  0  0  0  0  0
  150.7822  136.2274  156.4525 O   0  0  0  0  0  0  0  0  0  0  0  0
  153.7113  138.5549  159.2833 N   0  0  0  0  0  0  0  0  0  0  0  0
  153.7469  139.3691  160.4909 C   0  0  0  0  0  0  0  0  0  0  0  0
  153.7759  140.8637  160.1453 C   0  0  0  0  0  0  0  0  0  0  0  0
  152.8094  141.8540  161.3220 S   0  0  0  0  0  0  0  0  0  0  0  0
  152.9067  143.4873  160.5351 C   0  0  0  0  0  0  0  0  0  0  0  0
  151.7899  144.4233  160.9948 C   0  0  0  0  0  0  0  0  0  0  0  0
  151.7262  145.4992  159.9087 C   0  0  0  0  0  0  0  0  0  0  0  0
  152.1979  144.8203  158.6140 C   0  0  0  0  0  0  0  0  0  0  0  0
  152.7299  143.4369  159.0145 C   0  0  0  0  0  0  0  0  0  0  0  0
  154.1683  136.4307  157.5839 H   0  0  0  0  0  0  0  0  0  0  0  0
  152.5973  135.7547  157.8698 H   0  0  0  0  0  0  0  0  0  0  0  0
  154.2498  138.8131  156.8465 H   0  0  0  0  0  0  0  0  0  0  0  0
  153.4899  140.3174  155.0147 H   0  0  0  0  0  0  0  0  0  0  0  0
  154.1945  138.9123  158.4720 H   0  0  0  0  0  0  0  0  0  0  0  0
  152.8816  139.1437  161.1162 H   0  0  0  0  0  0  0  0  0  0  0  0
  154.6354  139.1089  161.0681 H   0  0  0  0  0  0  0  0  0  0  0  0
  154.8049  141.2233  160.1584 H   0  0  0  0  0  0  0  0  0  0  0  0
  153.3957  141.0232  159.1361 H   0  0  0  0  0  0  0  0  0  0  0  0
  153.8691  143.9414  160.7761 H   0  0  0  0  0  0  0  0  0  0  0  0
  150.8418  143.8846  161.0286 H   0  0  0  0  0  0  0  0  0  0  0  0
  151.9719  144.8391  161.9862 H   0  0  0  0  0  0  0  0  0  0  0  0
  150.7266  145.9240  159.8133 H   0  0  0  0  0  0  0  0  0  0  0  0
  152.4053  146.3146  160.1605 H   0  0  0  0  0  0  0  0  0  0  0  0
  151.3828  144.7244  157.8960 H   0  0  0  0  0  0  0  0  0  0  0  0
  152.9798  145.4152  158.1408 H   0  0  0  0  0  0  0  0  0  0  0  0
  153.6560  143.1857  158.4967 H   0  0  0  0  0  0  0  0  0  0  0  0
  151.9910  142.6787  158.7509 H   0  0  0  0  0  0  0  0  0  0  0  0
  1  2  2  0  0  0  0
  2  3  1  0  0  0  0
  2 12  1  0  0  0  0
  3  4  1  0  0  0  0
  3 21  1  0  0  0  0
  3 22  1  0  0  0  0
  4 10  1  0  0  0  0
  4  5  1  0  0  0  0
  5  6  2  0  0  0  0
  5 23  1  0  0  0  0
  6  7  1  0  0  0  0
  6 24  1  0  0  0  0
  7  8  2  0  0  0  0
  7  9  1  0  0  0  0
  9 10  1  0  0  0  0
 10 11  2  0  0  0  0
 12 13  1  0  0  0  0
 12 25  1  0  0  0  0
 13 14  1  0  0  0  0
 13 26  1  0  0  0  0
 13 27  1  0  0  0  0
 14 15  1  0  0  0  0
 14 28  1  0  0  0  0
 14 29  1  0  0  0  0
 15 16  1  0  0  0  0
 16 20  1  0  0  0  0
 16 17  1  0  0  0  0
 16 30  1  0  0  0  0
 17 18  1  0  0  0  0
 17 31  1  0  0  0  0
 17 32  1  0  0  0  0
 18 19  1  0  0  0  0
 18 33  1  0  0  0  0
 18 34  1  0  0  0  0
 19 20  1  0  0  0  0
 19 35  1  0  0  0  0
 19 36  1  0  0  0  0
 20 37  1  0  0  0  0
 20 38  1  0  0  0  0
M  CHG  1   9  -1
M  END
> <s_m_source_file>
AV-unprocessed.smi

> <i_m_source_file_index>
1306

> <i_lp_mmshare_version>
43012

> <i_f3d_flags>
0

> <s_epik_input>
Tz1jMVtuSF1jKD1PKVtjSF1bY0hdbjFbQ0gyXUMoPU8pW05IXVtDSDJdW0NIMl1TW0NIXTJbQ0gyXVtDSDJdW0NIMl1bQ0gyXTI=

> <s_epik_cmdline>
J2VwaWtfcHl0aG9uJywgJy1waCcsICc3LjAnLCAnLXRuJywgJzgnLCAnLW1hJywgJzIwMCcsICctbWV0YWxfYmluZGluZycsICctaW1hZScsICc8aW5maWxlLm1hZT4nLCAnLW9tYWUnLCAnPG91dGZpbGUubWFlPic=

> <r_lp_tautomer_probability>
0.999537

> <r_epik_Ionization_Penalty>
3.06336

> <r_epik_Ionization_Penalty_Charging>
2.63481e-08

> <r_epik_Ionization_Penalty_Neutral>
3.06336

> <r_epik_State_Penalty>
3.06238

> <r_epik_Charging_Adjusted_Penalty>
3.06238

> <i_epik_Tot_Q>
-1

> <i_epik_Tot_abs_Q>
1

> <r_epik_Metal_State_Penalty>
0.458539

> <b_epik_Metal_Only>
1

> <s_lp_Force_Field>
OPLS_2005

> <r_lp_Energy>
29.7989

> <b_lp_Chiralities_Consistent>
1

> <s_lp_Variant>
AV-unprocessed.smi:1306-2

> <Gold.Version>
5.8.1

> <Gold.Id.Protein>
6NUR|6NUR_protein|mol2

> <Gold.PLP.Fitness>
45.8426

> <Gold.PLP.PLP>
-41.2174

> <Gold.PLP.part.hbond>
-2.0000

> <Gold.PLP.part.metal>
0.0000

> <Gold.PLP.part.buried>
-5.2015

> <Gold.PLP.part.nonpolar>
-35.1400

> <Gold.PLP.part.repulsive>
1.2229

> <Gold.PLP.ligand.clash>
0.0000

> <Gold.PLP.ligand.torsion>
0.7303

> <Gold.PLP.Chemscore.Hbond>
2.0000

> <Gold.PLP.Chemscore.CHOScore>
0.0000

> <Gold.PLP.Chemscore.Metal>
0.0000

> <Gold.Chemscore.Hbonds>
donor molecule, donor type, donor heavy atom, donor atom, acceptor molecule, acceptor atom, score
      P1  H  6896  6908       L1     1  1.00

> <Gold.PLP.Chemscore.Internal.Correction>
0.0858

> <Gold.Rescore>
     Score         DG    S(hbond)    S(metal)    S(lipo)     H(rot)  DE(clash)    DE(int)     intcor
     16.63     -18.17       1.77        0.00     109.77       2.38       0.56       0.97       ----

> <Gold.Chemscore.Fitness>
16.6278

> <Gold.Chemscore.DG>
-18.1661

> <Gold.Chemscore.ZeroCoef>
-5.4800

> <Gold.Chemscore.Hbond>
1.7746

> <Gold.Chemscore.Metal>
0.0000

> <Gold.Chemscore.Lipo>
109.7706

> <Gold.Chemscore.Internal_Hbond>
0.0000

> <Gold.Chemscore.DEClash>
0.5637

> <Gold.Chemscore.DEInternal>
0.9746

> <Gold.Chemscore.Rot>
2.3767

> <Gold.Chemscore.Internal.Correction>
   9.000000E+99

> <Gold.Chemscore.Hbonds>
donor molecule, donor type, donor heavy atom, donor atom, acceptor molecule, acceptor atom, score
      P1  H  6896  6908       L1     1  0.99
      P1  H  7989  7998       L1     8  0.03

> <Gold.Chemscore.Hbond.Weighted>
-5.9273

> <Gold.Chemscore.Metal.Weighted>
-0.0000

> <Gold.Chemscore.Lipo.Weighted>
-12.8432

> <Gold.Chemscore.Internal_Hbond.Weighted>
0.0000

> <Gold.Chemscore.DEClash.Weighted>
0.5637

> <Gold.Chemscore.DEInternal.Weighted>
0.9746

> <Gold.Chemscore.Rot.Weighted>
6.0844

> <Gold.Chemscore.Internal.Correction.Weighted>
   9.000000E+99

> <Gold.Protein.RotatedTorsions>
[ 6907 6896 6895 6894 ] final -103.72 input  -60.11 | X-H torsion
[ 7974 7965 7964 7962 ] final  -77.23 input  175.53 | X-H torsion
[ 8008 7997 7996 7995 ] final  -47.52 input   59.86 | X-H torsion
[ 10167 10162 10161 10158 ] final  114.81 input  -65.29 | X-H torsion
[ 10718 10713 10712 10709 ] final   -5.85 input   66.30 | X-H torsion
[ 10763 10752 10751 10750 ] final   87.38 input  -60.55 | X-H torsion
[ 11005 11000 10999 10996 ] final -101.27 input  -57.11 | X-H torsion

> <Gold.Protein.ActiveResidues>
 VAL166  LYS551  ARG553  GLY616  TRP617  ASP618  TYR619  PRO620  LYS621  CYS622 
 ASP623  PHE694  ASN695  SER759  ASP760  ASP761  ALA762  ILE779  LEU786  VAL792 
 PHE793  MET794  SER795  GLU796  ALA797  LYS798  CYS799  TRP800  GLU811  SER814 

> <Gold.Protein.RotatedAtoms>
  150.7253  134.0387  159.3757 H   0  0  0  0  0  0  0  0  0  0  0  0  # atno 6907 bound_to 6896
  151.8359  135.0604  160.0452 H   0  0  0  0  0  0  0  0  0  0  0  0  # atno 6908 bound_to 6896
  152.2898  133.5515  159.5587 H   0  0  0  0  0  0  0  0  0  0  0  0  # atno 6909 bound_to 6896
  145.6024  140.9406  143.1234 H   0  0  0  0  0  0  0  0  0  0  0  0  # atno 7974 bound_to 7965
  154.4017  140.1344  156.4188 H   0  0  0  0  0  0  0  0  0  0  0  0  # atno 8008 bound_to 7997
  155.7663  140.3485  155.5203 H   0  0  0  0  0  0  0  0  0  0  0  0  # atno 8009 bound_to 7997
  155.8810  140.0987  157.1475 H   0  0  0  0  0  0  0  0  0  0  0  0  # atno 8010 bound_to 7997
  139.6362  144.7120  151.2330 H   0  0  0  0  0  0  0  0  0  0  0  0  # atno 10167 bound_to 10162
  156.7405  130.5208  149.5825 H   0  0  0  0  0  0  0  0  0  0  0  0  # atno 10718 bound_to 10713
  153.1662  135.4546  154.9841 H   0  0  0  0  0  0  0  0  0  0  0  0  # atno 10763 bound_to 10752
  154.7934  135.3228  154.7727 H   0  0  0  0  0  0  0  0  0  0  0  0  # atno 10764 bound_to 10752
  153.8210  135.6947  153.4882 H   0  0  0  0  0  0  0  0  0  0  0  0  # atno 10765 bound_to 10752
  141.1238  133.8464  157.1210 H   0  0  0  0  0  0  0  0  0  0  0  0  # atno 11005 bound_to 11000
  144.7304  139.7743  143.7349 LP  0  0  0  0  0  0  0  0  0  0  0  0  # atno 17320 bound_to 7965
  146.1566  139.4666  143.0015 LP  0  0  0  0  0  0  0  0  0  0  0  0  # atno 17321 bound_to 7965
  140.7466  143.6392  150.8350 LP  0  0  0  0  0  0  0  0  0  0  0  0  # atno 17342 bound_to 10162
  140.0024  143.5730  152.2870 LP  0  0  0  0  0  0  0  0  0  0  0  0  # atno 17343 bound_to 10162
  156.1467  130.6282  151.0541 LP  0  0  0  0  0  0  0  0  0  0  0  0  # atno 17370 bound_to 10713
  157.6820  131.0835  150.7344 LP  0  0  0  0  0  0  0  0  0  0  0  0  # atno 17371 bound_to 10713
  140.0217  134.9942  157.0605 LP  0  0  0  0  0  0  0  0  0  0  0  0  # atno 17394 bound_to 11000
  140.4429  134.1663  155.7175 LP  0  0  0  0  0  0  0  0  0  0  0  0  # atno 17395 bound_to 11000

$$$$
