AV-unprocessed.smi:1433|AV-procd|sdf|5845|dock4
  -GOLD-   22720 5513D 1   1.00000     0.00000
 Structure written by MMmdl.
 45 46  0  0  0  0  0  0  0  0  2 V2000
  151.1699  145.1564  159.4677 C   0  0  0  0  0  0  0  0  0  0  0  0
  152.1647  143.9904  159.4765 C   0  0  2  0  0  0  0  0  0  0  0  0
  151.6113  142.7492  158.7495 C   0  0  0  0  0  0  0  0  0  0  0  0
  152.5620  141.6071  158.8407 N   0  3  2  0  0  0  0  0  0  0  0  0
  152.1567  140.3539  158.1226 C   0  0  2  0  0  0  0  0  0  0  0  0
  153.3156  139.3314  158.1609 C   0  0  0  0  0  0  0  0  0  0  0  0
  151.6786  140.5930  156.6634 C   0  0  0  0  0  0  0  0  0  0  0  0
  151.8717  139.4218  155.8128 N   0  0  0  0  0  0  0  0  0  0  0  0
  151.2685  139.2061  154.6324 C   0  0  0  0  0  0  0  0  0  0  0  0
  150.4286  139.9655  154.1504 O   0  0  0  0  0  0  0  0  0  0  0  0
  151.6881  137.9479  153.8697 C   0  0  0  0  0  0  0  0  0  0  0  0
  151.5901  136.7638  154.7066 N   0  0  0  0  0  0  0  0  0  0  0  0
  150.5931  135.8108  154.7306 C   0  0  0  0  0  0  0  0  0  0  0  0
  150.9292  134.8942  155.6852 C   0  0  0  0  0  0  0  0  0  0  0  0
  152.1662  135.3764  156.1964 C   0  0  0  0  0  0  0  0  0  0  0  0
  152.5589  136.4951  155.6095 N   0  0  0  0  0  0  0  0  0  0  0  0
  152.9012  141.3610  160.2685 C   0  0  0  0  0  0  0  0  0  0  0  0
  153.4298  142.6407  160.9417 C   0  0  2  0  0  0  0  0  0  0  0  0
  153.7287  142.4304  162.4302 C   0  0  0  0  0  0  0  0  0  0  0  0
  152.4440  143.6583  160.8297 O   0  0  0  0  0  0  0  0  0  0  0  0
  150.9300  145.4608  158.4486 H   0  0  0  0  0  0  0  0  0  0  0  0
  151.5811  146.0239  159.9846 H   0  0  0  0  0  0  0  0  0  0  0  0
  150.2380  144.8846  159.9641 H   0  0  0  0  0  0  0  0  0  0  0  0
  153.0852  144.3195  158.9908 H   0  0  0  0  0  0  0  0  0  0  0  0
  150.6490  142.4579  159.1741 H   0  0  0  0  0  0  0  0  0  0  0  0
  151.4420  143.0289  157.7102 H   0  0  0  0  0  0  0  0  0  0  0  0
  151.3098  139.9262  158.6620 H   0  0  0  0  0  0  0  0  0  0  0  0
  153.0207  138.3696  157.7414 H   0  0  0  0  0  0  0  0  0  0  0  0
  153.6596  139.1209  159.1717 H   0  0  0  0  0  0  0  0  0  0  0  0
  154.1729  139.6903  157.5906 H   0  0  0  0  0  0  0  0  0  0  0  0
  150.6083  140.7967  156.6394 H   0  0  0  0  0  0  0  0  0  0  0  0
  152.1730  141.4691  156.2401 H   0  0  0  0  0  0  0  0  0  0  0  0
  152.5441  138.7374  156.1277 H   0  0  0  0  0  0  0  0  0  0  0  0
  151.0521  137.8189  152.9929 H   0  0  0  0  0  0  0  0  0  0  0  0
  152.7141  138.0468  153.5120 H   0  0  0  0  0  0  0  0  0  0  0  0
  149.7366  135.8646  154.0747 H   0  0  0  0  0  0  0  0  0  0  0  0
  150.3770  134.0122  155.9735 H   0  0  0  0  0  0  0  0  0  0  0  0
  152.7860  134.9499  156.9713 H   0  0  0  0  0  0  0  0  0  0  0  0
  152.0139  141.0046  160.7946 H   0  0  0  0  0  0  0  0  0  0  0  0
  153.6546  140.5809  160.3618 H   0  0  0  0  0  0  0  0  0  0  0  0
  154.3465  142.9672  160.4471 H   0  0  0  0  0  0  0  0  0  0  0  0
  154.4899  141.6630  162.5735 H   0  0  0  0  0  0  0  0  0  0  0  0
  152.8352  142.1213  162.9734 H   0  0  0  0  0  0  0  0  0  0  0  0
  154.0944  143.3499  162.8880 H   0  0  0  0  0  0  0  0  0  0  0  0
  153.4082  141.9236  158.3889 H   0  0  0  0  0  0  0  0  0  0  0  0
  1  2  1  0  0  0  0
  1 21  1  0  0  0  0
  1 22  1  0  0  0  0
  1 23  1  0  0  0  0
  2 20  1  0  0  0  0
  2  3  1  0  0  0  0
  2 24  1  0  0  0  0
  3  4  1  0  0  0  0
  3 25  1  0  0  0  0
  3 26  1  0  0  0  0
  4  5  1  0  0  0  0
  4 17  1  0  0  0  0
  4 45  1  0  0  0  0
  5  6  1  0  0  0  0
  5  7  1  0  0  0  0
  5 27  1  0  0  0  0
  6 28  1  0  0  0  0
  6 29  1  0  0  0  0
  6 30  1  0  0  0  0
  7  8  1  0  0  0  0
  7 31  1  0  0  0  0
  7 32  1  0  0  0  0
  8  9  1  0  0  0  0
  8 33  1  0  0  0  0
  9 10  2  0  0  0  0
  9 11  1  0  0  0  0
 11 12  1  0  0  0  0
 11 34  1  0  0  0  0
 11 35  1  0  0  0  0
 12 16  1  0  0  0  0
 12 13  1  0  0  0  0
 13 14  2  0  0  0  0
 13 36  1  0  0  0  0
 14 15  1  0  0  0  0
 14 37  1  0  0  0  0
 15 16  2  0  0  0  0
 15 38  1  0  0  0  0
 17 18  1  0  0  0  0
 17 39  1  0  0  0  0
 17 40  1  0  0  0  0
 18 19  1  0  0  0  0
 18 20  1  0  0  0  0
 18 41  1  0  0  0  0
 19 42  1  0  0  0  0
 19 43  1  0  0  0  0
 19 44  1  0  0  0  0
M  CHG  1   4   1
M  END
> <s_m_source_file>
AV-unprocessed.smi

> <i_m_source_file_index>
1433

> <i_lp_mmshare_version>
43012

> <i_f3d_flags>
0

> <s_epik_input>
W0NIM11bQ0BASF0xW0NIMl1OKFtDSDJdW0NASF0oTzEpW0NIM10pW0NASF0oW0NIM10pW0NIMl1bTkhdQyg9TylbQ0gyXW4yW2NIXVtjSF1bY0hdbjI=

> <s_epik_cmdline>
J2VwaWtfcHl0aG9uJywgJy1waCcsICc3LjAnLCAnLXRuJywgJzgnLCAnLW1hJywgJzIwMCcsICctbWV0YWxfYmluZGluZycsICctaW1hZScsICc8aW5maWxlLm1hZT4nLCAnLW9tYWUnLCAnPG91dGZpbGUubWFlPic=

> <r_lp_tautomer_probability>
1

> <r_epik_Ionization_Penalty>
0.748405

> <r_epik_Ionization_Penalty_Charging>
0.748396

> <r_epik_Ionization_Penalty_Neutral>
8.54426e-06

> <r_epik_State_Penalty>
0.775162

> <r_epik_Charging_Adjusted_Penalty>
1.52356

> <i_epik_Tot_Q>
1

> <i_epik_Tot_abs_Q>
1

> <r_epik_Metal_State_Penalty>
0.775167

> <b_epik_Metal_Only>
0

> <s_lp_Force_Field>
OPLS_2005

> <r_lp_Energy>
19.9081

> <b_lp_Chiralities_Consistent>
1

> <s_lp_Variant>
AV-unprocessed.smi:1433-11

> <Gold.Version>
5.8.1

> <Gold.Id.Protein>
6NUR|6NUR_protein|mol2

> <Gold.PLP.Fitness>
48.7713

> <Gold.PLP.PLP>
-41.3980

> <Gold.PLP.part.hbond>
-2.0000

> <Gold.PLP.part.metal>
0.0000

> <Gold.PLP.part.buried>
-4.5241

> <Gold.PLP.part.nonpolar>
-35.5924

> <Gold.PLP.part.repulsive>
0.7360

> <Gold.PLP.ligand.clash>
0.0000

> <Gold.PLP.ligand.torsion>
0.8449

> <Gold.PLP.Chemscore.Hbond>
2.0000

> <Gold.PLP.Chemscore.CHOScore>
1.0000

> <Gold.PLP.Chemscore.Metal>
0.0000

> <Gold.Chemscore.Hbonds>
donor molecule, donor type, donor heavy atom, donor atom, acceptor molecule, acceptor atom, score
      P1  H  7989  7998       L1    10  0.50
      L1  C    13    36       P1  7948  1.00

> <Gold.PLP.Chemscore.Internal.Correction>
0.0630

> <Gold.Rescore>
     Score         DG    S(hbond)    S(metal)    S(lipo)     H(rot)  DE(clash)    DE(int)     intcor
     15.31     -16.08       0.98        0.00     103.38       1.87       0.02       0.75       ----

> <Gold.Chemscore.Fitness>
15.3135

> <Gold.Chemscore.DG>
-16.0824

> <Gold.Chemscore.ZeroCoef>
-5.4800

> <Gold.Chemscore.Hbond>
0.9828

> <Gold.Chemscore.Metal>
0.0000

> <Gold.Chemscore.Lipo>
103.3844

> <Gold.Chemscore.Internal_Hbond>
0.0000

> <Gold.Chemscore.DEClash>
0.0156

> <Gold.Chemscore.DEInternal>
0.7533

> <Gold.Chemscore.Rot>
1.8657

> <Gold.Chemscore.Internal.Correction>
   9.000000E+99

> <Gold.Chemscore.Hbonds>
donor molecule, donor type, donor heavy atom, donor atom, acceptor molecule, acceptor atom, score
      P1  H  7989  7998       L1    10  0.02

> <Gold.Chemscore.Hbond.Weighted>
-3.2825

> <Gold.Chemscore.Metal.Weighted>
-0.0000

> <Gold.Chemscore.Lipo.Weighted>
-12.0960

> <Gold.Chemscore.Internal_Hbond.Weighted>
0.0000

> <Gold.Chemscore.DEClash.Weighted>
0.0156

> <Gold.Chemscore.DEInternal.Weighted>
0.7533

> <Gold.Chemscore.Rot.Weighted>
4.7761

> <Gold.Chemscore.Internal.Correction.Weighted>
   9.000000E+99

> <Gold.Protein.RotatedTorsions>
[ 6907 6896 6895 6894 ] final   88.78 input  -60.11 | X-H torsion
[ 7974 7965 7964 7962 ] final  137.39 input  175.53 | X-H torsion
[ 8008 7997 7996 7995 ] final   15.15 input   59.86 | X-H torsion
[ 10167 10162 10161 10158 ] final -173.93 input  -65.29 | X-H torsion
[ 10718 10713 10712 10709 ] final  114.51 input   66.30 | X-H torsion
[ 10763 10752 10751 10750 ] final  -23.46 input  -60.55 | X-H torsion
[ 11005 11000 10999 10996 ] final   56.66 input  -57.11 | X-H torsion

> <Gold.Protein.ActiveResidues>
 VAL166  LYS551  ARG553  GLY616  TRP617  ASP618  TYR619  PRO620  LYS621  CYS622 
 ASP623  PHE694  ASN695  SER759  ASP760  ASP761  ALA762  ILE779  LEU786  VAL792 
 PHE793  MET794  SER795  GLU796  ALA797  LYS798  CYS799  TRP800  GLU811  SER814 

> <Gold.Protein.RotatedAtoms>
  152.5429  134.2069  159.8734 H   0  0  0  0  0  0  0  0  0  0  0  0  # atno 6907 bound_to 6896
  151.2054  133.4580  159.2604 H   0  0  0  0  0  0  0  0  0  0  0  0  # atno 6908 bound_to 6896
  151.0948  134.9950  159.8476 H   0  0  0  0  0  0  0  0  0  0  0  0  # atno 6909 bound_to 6896
  144.9473  139.4860  143.5543 H   0  0  0  0  0  0  0  0  0  0  0  0  # atno 7974 bound_to 7965
  154.8586  140.2940  155.5553 H   0  0  0  0  0  0  0  0  0  0  0  0  # atno 8008 bound_to 7997
  156.3019  140.2482  156.3488 H   0  0  0  0  0  0  0  0  0  0  0  0  # atno 8009 bound_to 7997
  154.8943  140.0393  157.1846 H   0  0  0  0  0  0  0  0  0  0  0  0  # atno 8010 bound_to 7997
  139.5661  144.1752  152.1314 H   0  0  0  0  0  0  0  0  0  0  0  0  # atno 10167 bound_to 10162
  157.6277  131.0999  150.7196 H   0  0  0  0  0  0  0  0  0  0  0  0  # atno 10718 bound_to 10713
  153.6682  135.6973  153.5155 H   0  0  0  0  0  0  0  0  0  0  0  0  # atno 10763 bound_to 10752
  153.2578  135.4254  155.0863 H   0  0  0  0  0  0  0  0  0  0  0  0  # atno 10764 bound_to 10752
  154.8434  135.3547  154.6227 H   0  0  0  0  0  0  0  0  0  0  0  0  # atno 10765 bound_to 10752
  140.0512  134.5734  155.9262 H   0  0  0  0  0  0  0  0  0  0  0  0  # atno 11005 bound_to 11000
  146.3308  139.8533  142.8869 LP  0  0  0  0  0  0  0  0  0  0  0  0  # atno 17320 bound_to 7965
  145.2899  141.0164  143.3669 LP  0  0  0  0  0  0  0  0  0  0  0  0  # atno 17321 bound_to 7965
  140.1275  144.5318  150.6823 LP  0  0  0  0  0  0  0  0  0  0  0  0  # atno 17342 bound_to 10162
  140.6945  143.2395  151.5040 LP  0  0  0  0  0  0  0  0  0  0  0  0  # atno 17343 bound_to 10162
  156.7542  130.4778  149.5450 LP  0  0  0  0  0  0  0  0  0  0  0  0  # atno 17370 bound_to 10713
  156.1459  130.6277  151.0531 LP  0  0  0  0  0  0  0  0  0  0  0  0  # atno 17371 bound_to 10713
  141.1931  133.6577  156.5532 LP  0  0  0  0  0  0  0  0  0  0  0  0  # atno 17394 bound_to 11000
  140.3915  134.7436  157.4724 LP  0  0  0  0  0  0  0  0  0  0  0  0  # atno 17395 bound_to 11000

$$$$
