AV-unprocessed.smi:3322|AV-procd|sdf|12774|dock9
  -GOLD-   2272019113D 1   1.00000     0.00000
 Structure written by MMmdl.
 39 40  0  0  0  0  0  0  0  0  2 V2000
  151.2055  141.6339  158.3593 C   0  0  0  0  0  0  0  0  0  0  0  0
  150.3562  142.9125  158.2622 C   0  0  1  0  0  0  0  0  0  0  0  0
  150.9730  143.8299  157.2743 N   0  3  0  0  0  0  0  0  0  0  0  0
  151.9443  144.7948  157.8328 C   0  0  0  0  0  0  0  0  0  0  0  0
  151.4869  145.3004  159.2078 C   0  0  0  0  0  0  0  0  0  0  0  0
  151.9290  144.4231  160.2740 N   0  0  0  0  0  0  0  0  0  0  0  0
  151.7137  144.5445  161.6306 C   0  0  0  0  0  0  0  0  0  0  0  0
  152.3193  143.4798  162.2340 C   0  0  0  0  0  0  0  0  0  0  0  0
  152.8883  142.7548  161.1497 C   0  0  0  0  0  0  0  0  0  0  0  0
  152.6529  143.3225  159.9775 N   0  0  0  0  0  0  0  0  0  0  0  0
  148.8993  142.5605  157.8877 C   0  0  0  0  0  0  0  0  0  0  0  0
  147.9987  142.9757  158.6199 O   0  0  0  0  0  0  0  0  0  0  0  0
  148.6367  141.8221  156.7801 N   0  0  0  0  0  0  0  0  0  0  0  0
  149.6066  141.3526  155.7833 C   0  0  0  0  0  0  0  0  0  0  0  0
  149.2635  141.9914  154.4245 C   0  0  0  0  0  0  0  0  0  0  0  0
  147.9263  141.6633  154.0591 O   0  0  0  0  0  0  0  0  0  0  0  0
  146.9660  142.0955  155.0185 C   0  0  0  0  0  0  0  0  0  0  0  0
  147.2754  141.4484  156.3796 C   0  0  0  0  0  0  0  0  0  0  0  0
  150.8141  140.9410  159.1041 H   0  0  0  0  0  0  0  0  0  0  0  0
  152.2315  141.8683  158.6450 H   0  0  0  0  0  0  0  0  0  0  0  0
  151.2414  141.1053  157.4057 H   0  0  0  0  0  0  0  0  0  0  0  0
  150.3849  143.4328  159.2191 H   0  0  0  0  0  0  0  0  0  0  0  0
  151.4610  143.2700  156.5899 H   0  0  0  0  0  0  0  0  0  0  0  0
  152.9239  144.3238  157.9236 H   0  0  0  0  0  0  0  0  0  0  0  0
  152.0528  145.6320  157.1419 H   0  0  0  0  0  0  0  0  0  0  0  0
  151.8744  146.3023  159.3989 H   0  0  0  0  0  0  0  0  0  0  0  0
  150.3987  145.3679  159.2441 H   0  0  0  0  0  0  0  0  0  0  0  0
  151.1533  145.3675  162.0498 H   0  0  0  0  0  0  0  0  0  0  0  0
  152.3517  143.2536  163.2895 H   0  0  0  0  0  0  0  0  0  0  0  0
  153.4611  141.8395  161.1794 H   0  0  0  0  0  0  0  0  0  0  0  0
  150.6422  141.5790  156.0242 H   0  0  0  0  0  0  0  0  0  0  0  0
  149.5476  140.2656  155.7113 H   0  0  0  0  0  0  0  0  0  0  0  0
  149.3824  143.0754  154.4623 H   0  0  0  0  0  0  0  0  0  0  0  0
  149.9393  141.6227  153.6528 H   0  0  0  0  0  0  0  0  0  0  0  0
  146.9739  143.1842  155.0928 H   0  0  0  0  0  0  0  0  0  0  0  0
  145.9720  141.8048  154.6786 H   0  0  0  0  0  0  0  0  0  0  0  0
  147.2080  140.3622  156.3021 H   0  0  0  0  0  0  0  0  0  0  0  0
  146.5169  141.7445  157.1052 H   0  0  0  0  0  0  0  0  0  0  0  0
  150.2342  144.3374  156.8082 H   0  0  0  0  0  0  0  0  0  0  0  0
  1  2  1  0  0  0  0
  1 19  1  0  0  0  0
  1 20  1  0  0  0  0
  1 21  1  0  0  0  0
  2  3  1  0  0  0  0
  2 11  1  0  0  0  0
  2 22  1  0  0  0  0
  3  4  1  0  0  0  0
  3 23  1  0  0  0  0
  3 39  1  0  0  0  0
  4  5  1  0  0  0  0
  4 24  1  0  0  0  0
  4 25  1  0  0  0  0
  5  6  1  0  0  0  0
  5 26  1  0  0  0  0
  5 27  1  0  0  0  0
  6 10  1  0  0  0  0
  6  7  1  0  0  0  0
  7  8  2  0  0  0  0
  7 28  1  0  0  0  0
  8  9  1  0  0  0  0
  8 29  1  0  0  0  0
  9 10  2  0  0  0  0
  9 30  1  0  0  0  0
 11 12  2  0  0  0  0
 11 13  1  0  0  0  0
 13 18  1  0  0  0  0
 13 14  1  0  0  0  0
 14 15  1  0  0  0  0
 14 31  1  0  0  0  0
 14 32  1  0  0  0  0
 15 16  1  0  0  0  0
 15 33  1  0  0  0  0
 15 34  1  0  0  0  0
 16 17  1  0  0  0  0
 17 18  1  0  0  0  0
 17 35  1  0  0  0  0
 17 36  1  0  0  0  0
 18 37  1  0  0  0  0
 18 38  1  0  0  0  0
M  CHG  1   3   1
M  END
> <s_m_source_file>
AV-unprocessed.smi

> <i_m_source_file_index>
3322

> <i_lp_mmshare_version>
43012

> <i_f3d_flags>
0

> <s_epik_input>
W0NIMl0xW0NIMl1PW0NIMl1bQ0gyXU4xQyg9TylbQ0BIXShbQ0gzXSlbTkhdW0NIMl1bQ0gyXW4yW2NIXVtjSF1bY0hdbjI=

> <s_epik_cmdline>
J2VwaWtfcHl0aG9uJywgJy1waCcsICc3LjAnLCAnLXRuJywgJzgnLCAnLW1hJywgJzIwMCcsICctbWV0YWxfYmluZGluZycsICctaW1hZScsICc8aW5maWxlLm1hZT4nLCAnLW9tYWUnLCAnPG91dGZpbGUubWFlPic=

> <r_lp_tautomer_probability>
1

> <r_epik_Ionization_Penalty>
0.3254

> <r_epik_Ionization_Penalty_Charging>
0.325398

> <r_epik_Ionization_Penalty_Neutral>
2.29478e-06

> <r_epik_State_Penalty>
0.320187

> <r_epik_Charging_Adjusted_Penalty>
0.645585

> <i_epik_Tot_Q>
1

> <i_epik_Tot_abs_Q>
1

> <r_epik_Metal_State_Penalty>
0.320558

> <b_epik_Metal_Only>
0

> <s_lp_Force_Field>
OPLS_2005

> <r_lp_Energy>
25.7531

> <b_lp_Chiralities_Consistent>
1

> <s_lp_Variant>
AV-unprocessed.smi:3322-2

> <Gold.Version>
5.8.1

> <Gold.Id.Protein>
6NUR|6NUR_protein|mol2

> <Gold.PLP.Fitness>
47.8848

> <Gold.PLP.PLP>
-43.4156

> <Gold.PLP.part.hbond>
-1.9418

> <Gold.PLP.part.metal>
0.0000

> <Gold.PLP.part.buried>
-6.0881

> <Gold.PLP.part.nonpolar>
-35.2432

> <Gold.PLP.part.repulsive>
0.2608

> <Gold.PLP.ligand.clash>
0.0000

> <Gold.PLP.ligand.torsion>
0.7744

> <Gold.PLP.Chemscore.Hbond>
2.0000

> <Gold.PLP.Chemscore.CHOScore>
0.0000

> <Gold.PLP.Chemscore.Metal>
0.0000

> <Gold.Chemscore.Hbonds>
donor molecule, donor type, donor heavy atom, donor atom, acceptor molecule, acceptor atom, score
      L1  H     3    39       P1  8028  2.00

> <Gold.PLP.Chemscore.Internal.Correction>
0.0180

> <Gold.Rescore>
     Score         DG    S(hbond)    S(metal)    S(lipo)     H(rot)  DE(clash)    DE(int)     intcor
     13.84     -14.79       1.00        0.00      92.79       1.91       0.09       0.86       ----

> <Gold.Chemscore.Fitness>
13.8415

> <Gold.Chemscore.DG>
-14.7866

> <Gold.Chemscore.ZeroCoef>
-5.4800

> <Gold.Chemscore.Hbond>
0.9997

> <Gold.Chemscore.Metal>
0.0000

> <Gold.Chemscore.Lipo>
92.7870

> <Gold.Chemscore.Internal_Hbond>
0.0000

> <Gold.Chemscore.DEClash>
0.0863

> <Gold.Chemscore.DEInternal>
0.8588

> <Gold.Chemscore.Rot>
1.9095

> <Gold.Chemscore.Internal.Correction>
   9.000000E+99

> <Gold.Chemscore.Hbonds>
donor molecule, donor type, donor heavy atom, donor atom, acceptor molecule, acceptor atom, score
      L1  H     3    39       P1  8028  0.94

> <Gold.Chemscore.Hbond.Weighted>
-3.3389

> <Gold.Chemscore.Metal.Weighted>
-0.0000

> <Gold.Chemscore.Lipo.Weighted>
-10.8561

> <Gold.Chemscore.Internal_Hbond.Weighted>
0.0000

> <Gold.Chemscore.DEClash.Weighted>
0.0863

> <Gold.Chemscore.DEInternal.Weighted>
0.8588

> <Gold.Chemscore.Rot.Weighted>
4.8884

> <Gold.Chemscore.Internal.Correction.Weighted>
   9.000000E+99

> <Gold.Protein.RotatedTorsions>
[ 6907 6896 6895 6894 ] final  175.85 input  -60.11 | X-H torsion
[ 7974 7965 7964 7962 ] final  126.78 input  175.53 | X-H torsion
[ 8008 7997 7996 7995 ] final  -39.94 input   59.86 | X-H torsion
[ 10167 10162 10161 10158 ] final   30.78 input  -65.29 | X-H torsion
[ 10718 10713 10712 10709 ] final  -92.52 input   66.30 | X-H torsion
[ 10763 10752 10751 10750 ] final   56.02 input  -60.55 | X-H torsion
[ 11005 11000 10999 10996 ] final  -69.41 input  -57.11 | X-H torsion

> <Gold.Protein.ActiveResidues>
 VAL166  LYS551  ARG553  GLY616  TRP617  ASP618  TYR619  PRO620  LYS621  CYS622 
 ASP623  PHE694  ASN695  SER759  ASP760  ASP761  ALA762  ILE779  LEU786  VAL792 
 PHE793  MET794  SER795  GLU796  ALA797  LYS798  CYS799  TRP800  GLU811  SER814 

> <Gold.Protein.RotatedAtoms>
  151.7295  133.3317  159.3336 H   0  0  0  0  0  0  0  0  0  0  0  0  # atno 6907 bound_to 6896
  150.7618  134.6376  159.6229 H   0  0  0  0  0  0  0  0  0  0  0  0  # atno 6908 bound_to 6896
  152.3601  134.6887  160.0261 H   0  0  0  0  0  0  0  0  0  0  0  0  # atno 6909 bound_to 6896
  145.0579  139.3829  143.5021 H   0  0  0  0  0  0  0  0  0  0  0  0  # atno 7974 bound_to 7965
  154.4017  140.1538  156.2946 H   0  0  0  0  0  0  0  0  0  0  0  0  # atno 8008 bound_to 7997
  155.8755  140.3446  155.5829 H   0  0  0  0  0  0  0  0  0  0  0  0  # atno 8009 bound_to 7997
  155.7726  140.0832  157.2090 H   0  0  0  0  0  0  0  0  0  0  0  0  # atno 8010 bound_to 7997
  140.4647  144.0854  150.6221 H   0  0  0  0  0  0  0  0  0  0  0  0  # atno 10167 bound_to 10162
  156.0003  130.4990  150.5638 H   0  0  0  0  0  0  0  0  0  0  0  0  # atno 10718 bound_to 10713
  152.9825  135.5690  154.5161 H   0  0  0  0  0  0  0  0  0  0  0  0  # atno 10763 bound_to 10752
  154.4657  135.2783  155.1682 H   0  0  0  0  0  0  0  0  0  0  0  0  # atno 10764 bound_to 10752
  154.3251  135.6261  153.5579 H   0  0  0  0  0  0  0  0  0  0  0  0  # atno 10765 bound_to 10752
  141.1553  133.6764  156.6595 H   0  0  0  0  0  0  0  0  0  0  0  0  # atno 11005 bound_to 11000
  146.3522  140.0262  142.8654 LP  0  0  0  0  0  0  0  0  0  0  0  0  # atno 17320 bound_to 7965
  145.1446  140.9590  143.4468 LP  0  0  0  0  0  0  0  0  0  0  0  0  # atno 17321 bound_to 7965
  140.4051  143.2684  151.9901 LP  0  0  0  0  0  0  0  0  0  0  0  0  # atno 17342 bound_to 10162
  139.4810  144.5964  151.7682 LP  0  0  0  0  0  0  0  0  0  0  0  0  # atno 17343 bound_to 10162
  157.3543  131.0739  151.1688 LP  0  0  0  0  0  0  0  0  0  0  0  0  # atno 17370 bound_to 10713
  157.2494  130.6607  149.5924 LP  0  0  0  0  0  0  0  0  0  0  0  0  # atno 17371 bound_to 10713
  140.3258  134.7970  157.4288 LP  0  0  0  0  0  0  0  0  0  0  0  0  # atno 17394 bound_to 11000
  140.1058  134.5411  155.8310 LP  0  0  0  0  0  0  0  0  0  0  0  0  # atno 17395 bound_to 11000

$$$$
