AV-unprocessed.smi:21|AV-procd|sdf|123|dock7
  -GOLD-   2262015303D 1   1.00000     0.00000
 Structure written by MMmdl.
 62 65  0  0  0  0  0  0  0  0  2 V2000
  145.9631  130.0159  151.8823 C   0  0  0  0  0  0  0  0  0  0  0  0
  146.0258  131.3289  151.3473 O   0  0  0  0  0  0  0  0  0  0  0  0
  145.5418  132.3279  152.2344 C   0  0  1  0  0  0  0  0  0  0  0  0
  146.3407  132.2747  153.5413 C   0  0  0  0  0  0  0  0  0  0  0  0
  147.3083  133.4567  153.4514 C   0  0  2  0  0  0  0  0  0  0  0  0
  147.8823  133.9418  154.8034 C   0  0  0  0  0  0  0  0  0  0  0  0
  149.0428  134.8153  154.6471 N   0  0  0  0  0  0  0  0  0  0  0  0
  150.1950  134.3096  153.9020 C   0  0  0  0  0  0  0  0  0  0  0  0
  149.0232  136.1246  155.0394 C   0  0  0  0  0  0  0  0  0  0  0  0
  147.8940  136.5875  155.6421 N   0  0  0  0  0  0  0  0  0  0  0  0
  147.7964  137.8547  156.0491 C   0  0  0  0  0  0  0  0  0  0  0  0
  148.7003  138.8282  155.9573 N   0  0  0  0  0  0  0  0  0  0  0  0
  149.8413  138.3855  155.3593 C   0  0  0  0  0  0  0  0  0  0  0  0
  150.0895  137.0666  154.8732 C   0  0  0  0  0  0  0  0  0  0  0  0
  151.3740  137.0171  154.3354 N   0  0  0  0  0  0  0  0  0  0  0  0
  151.8483  138.2216  154.4924 C   0  0  0  0  0  0  0  0  0  0  0  0
  150.9950  139.1064  155.1050 N   0  0  0  0  0  0  0  0  0  0  0  0
  151.2673  140.5017  155.4062 C   0  0  0  0  0  0  0  0  0  0  0  0
  150.0610  141.2336  156.0455 C   0  0  2  0  0  0  0  0  0  0  0  0
  149.0570  141.7630  154.9921 C   0  0  0  0  0  0  0  0  0  0  0  0
  149.0489  140.9542  153.8339 O   0  0  0  0  0  0  0  0  0  0  0  0
  150.5189  142.3425  157.0265 C   0  0  2  0  0  0  0  0  0  0  0  0
  151.2206  143.5219  156.3758 C   0  0  0  0  0  0  0  0  0  0  0  0
  151.9350  144.1634  157.5603 C   0  0  0  0  0  0  0  0  0  0  0  0
  152.2724  143.0909  158.4321 O   0  0  0  0  0  0  0  0  0  0  0  0
  151.5881  141.9070  158.0345 C   0  0  0  0  0  0  0  0  0  0  0  0
  146.5664  134.4864  152.6849 N   0  3  2  0  0  0  0  0  0  0  0  0
  145.7130  135.3956  153.4890 C   0  0  0  0  0  0  0  0  0  0  0  0
  145.7935  133.7403  151.6676 C   0  0  0  0  0  0  0  0  0  0  0  0
  144.4847  132.1660  152.4531 H   0  0  0  0  0  0  0  0  0  0  0  0
  148.1344  133.1516  152.8075 H   0  0  0  0  0  0  0  0  0  0  0  0
  146.3508  129.3061  151.1517 H   0  0  0  0  0  0  0  0  0  0  0  0
  144.9394  129.7250  152.1192 H   0  0  0  0  0  0  0  0  0  0  0  0
  146.5682  129.9295  152.7858 H   0  0  0  0  0  0  0  0  0  0  0  0
  145.6636  132.4138  154.3852 H   0  0  0  0  0  0  0  0  0  0  0  0
  146.8529  131.3231  153.6871 H   0  0  0  0  0  0  0  0  0  0  0  0
  147.1214  134.4444  155.3980 H   0  0  0  0  0  0  0  0  0  0  0  0
  148.1818  133.0830  155.4051 H   0  0  0  0  0  0  0  0  0  0  0  0
  151.0976  134.3521  154.5129 H   0  0  0  0  0  0  0  0  0  0  0  0
  150.3590  134.8973  152.9978 H   0  0  0  0  0  0  0  0  0  0  0  0
  150.0501  133.2719  153.6011 H   0  0  0  0  0  0  0  0  0  0  0  0
  146.8607  138.1276  156.5145 H   0  0  0  0  0  0  0  0  0  0  0  0
  152.8409  138.4993  154.1683 H   0  0  0  0  0  0  0  0  0  0  0  0
  152.1295  140.5292  156.0727 H   0  0  0  0  0  0  0  0  0  0  0  0
  151.5743  141.0054  154.4890 H   0  0  0  0  0  0  0  0  0  0  0  0
  149.5203  140.4910  156.6340 H   0  0  0  0  0  0  0  0  0  0  0  0
  148.0463  141.8043  155.3976 H   0  0  0  0  0  0  0  0  0  0  0  0
  149.3027  142.7839  154.7010 H   0  0  0  0  0  0  0  0  0  0  0  0
  148.3852  140.2890  153.9347 H   0  0  0  0  0  0  0  0  0  0  0  0
  149.6568  142.7216  157.5783 H   0  0  0  0  0  0  0  0  0  0  0  0
  151.9500  143.1761  155.6419 H   0  0  0  0  0  0  0  0  0  0  0  0
  150.5374  144.2123  155.8804 H   0  0  0  0  0  0  0  0  0  0  0  0
  152.8184  144.7276  157.2604 H   0  0  0  0  0  0  0  0  0  0  0  0
  151.2624  144.8406  158.0880 H   0  0  0  0  0  0  0  0  0  0  0  0
  151.1625  141.3939  158.8973 H   0  0  0  0  0  0  0  0  0  0  0  0
  152.3116  141.2376  157.5672 H   0  0  0  0  0  0  0  0  0  0  0  0
  144.9826  134.8393  154.0779 H   0  0  0  0  0  0  0  0  0  0  0  0
  145.1701  136.0809  152.8369 H   0  0  0  0  0  0  0  0  0  0  0  0
  146.3099  136.0074  154.1652 H   0  0  0  0  0  0  0  0  0  0  0  0
  146.4117  133.6810  150.7710 H   0  0  0  0  0  0  0  0  0  0  0  0
  144.8681  134.2430  151.3830 H   0  0  0  0  0  0  0  0  0  0  0  0
  147.2384  135.0716  152.2087 H   0  0  0  0  0  0  0  0  0  0  0  0
  1  2  1  0  0  0  0
  1 32  1  0  0  0  0
  1 33  1  0  0  0  0
  1 34  1  0  0  0  0
  2  3  1  0  0  0  0
  3 30  1  0  0  0  0
  3 29  1  0  0  0  0
  3  4  1  0  0  0  0
  4  5  1  0  0  0  0
  4 35  1  0  0  0  0
  4 36  1  0  0  0  0
  5 31  1  0  0  0  0
  5  6  1  0  0  0  0
  5 27  1  0  0  0  0
  6  7  1  0  0  0  0
  6 37  1  0  0  0  0
  6 38  1  0  0  0  0
  7  8  1  0  0  0  0
  7  9  1  0  0  0  0
  8 39  1  0  0  0  0
  8 40  1  0  0  0  0
  8 41  1  0  0  0  0
  9 14  1  0  0  0  0
  9 10  2  0  0  0  0
 10 11  1  0  0  0  0
 11 12  2  0  0  0  0
 11 42  1  0  0  0  0
 12 13  1  0  0  0  0
 13 17  1  0  0  0  0
 13 14  2  0  0  0  0
 14 15  1  0  0  0  0
 15 16  2  0  0  0  0
 16 17  1  0  0  0  0
 16 43  1  0  0  0  0
 17 18  1  0  0  0  0
 18 19  1  0  0  0  0
 18 44  1  0  0  0  0
 18 45  1  0  0  0  0
 19 20  1  0  0  0  0
 19 22  1  0  0  0  0
 19 46  1  0  0  0  0
 20 21  1  0  0  0  0
 20 47  1  0  0  0  0
 20 48  1  0  0  0  0
 21 49  1  0  0  0  0
 22 26  1  0  0  0  0
 22 23  1  0  0  0  0
 22 50  1  0  0  0  0
 23 24  1  0  0  0  0
 23 51  1  0  0  0  0
 23 52  1  0  0  0  0
 24 25  1  0  0  0  0
 24 53  1  0  0  0  0
 24 54  1  0  0  0  0
 25 26  1  0  0  0  0
 26 55  1  0  0  0  0
 26 56  1  0  0  0  0
 27 28  1  0  0  0  0
 27 29  1  0  0  0  0
 27 62  1  0  0  0  0
 28 57  1  0  0  0  0
 28 58  1  0  0  0  0
 28 59  1  0  0  0  0
 29 60  1  0  0  0  0
 29 61  1  0  0  0  0
M  CHG  1  27   1
M  END
> <s_m_source_file>
AV-unprocessed.smi

> <i_m_source_file_index>
21

> <i_lp_mmshare_version>
43012

> <i_f3d_flags>
0

> <s_epik_input>
W0NIM11PW0NASF0xW0NIMl1bQ0BIXShOKFtDSDNdKVtDSDJdMSlbQ0gyXU4oW0NIM10pYyhuW2NIXW4yKWMoYzIzKW5bY0hdbjNbQ0gyXVtDQEhdKFtDSDJdW09IXSlbQ0BASF00W0NIMl1bQ0gyXU9bQ0gyXTQ=

> <s_epik_cmdline>
J2VwaWtfcHl0aG9uJywgJy1waCcsICc3LjAnLCAnLXRuJywgJzgnLCAnLW1hJywgJzIwMCcsICctbWV0YWxfYmluZGluZycsICctaW1hZScsICc8aW5maWxlLm1hZT4nLCAnLW9tYWUnLCAnPG91dGZpbGUubWFlPic=

> <r_lp_tautomer_probability>
1

> <r_epik_Ionization_Penalty>
0.0157465

> <r_epik_Ionization_Penalty_Charging>
0.015354

> <r_epik_Ionization_Penalty_Neutral>
0.000392529

> <r_epik_State_Penalty>
0.0120612

> <r_epik_Charging_Adjusted_Penalty>
0.0274152

> <i_epik_Tot_Q>
1

> <i_epik_Tot_abs_Q>
1

> <r_epik_Metal_State_Penalty>
0.0121253

> <b_epik_Metal_Only>
0

> <s_lp_Force_Field>
OPLS_2005

> <r_lp_Energy>
63.0646

> <b_lp_Chiralities_Consistent>
1

> <s_lp_Variant>
AV-unprocessed.smi:21-3

> <Gold.Version>
5.8.1

> <Gold.Id.Protein>
6NUR|6NUR_protein|mol2

> <Gold.PLP.Fitness>
52.2617

> <Gold.PLP.PLP>
-41.3759

> <Gold.PLP.part.hbond>
-4.9489

> <Gold.PLP.part.metal>
0.0000

> <Gold.PLP.part.buried>
-5.1192

> <Gold.PLP.part.nonpolar>
-32.7567

> <Gold.PLP.part.repulsive>
1.1688

> <Gold.PLP.ligand.clash>
0.0000

> <Gold.PLP.ligand.torsion>
0.8389

> <Gold.PLP.Chemscore.Hbond>
4.0640

> <Gold.PLP.Chemscore.CHOScore>
0.0000

> <Gold.PLP.Chemscore.Metal>
0.0000

> <Gold.Chemscore.Hbonds>
donor molecule, donor type, donor heavy atom, donor atom, acceptor molecule, acceptor atom, score
      L1  H    27    62       P1  7948  1.82
      P1  H  8011  8017       L1    21  0.50
      P1  H 10752 10764       L1    15  0.86

> <Gold.PLP.Chemscore.Internal.Correction>
0.3716

> <Gold.Rescore>
     Score         DG    S(hbond)    S(metal)    S(lipo)     H(rot)  DE(clash)    DE(int)     intcor
      9.94     -16.20       1.97        0.00     102.78       3.08       0.12       6.14       ----

> <Gold.Chemscore.Fitness>
9.9448

> <Gold.Chemscore.DG>
-16.2003

> <Gold.Chemscore.ZeroCoef>
-5.4800

> <Gold.Chemscore.Hbond>
1.9669

> <Gold.Chemscore.Metal>
0.0000

> <Gold.Chemscore.Lipo>
102.7778

> <Gold.Chemscore.Internal_Hbond>
0.0000

> <Gold.Chemscore.DEClash>
0.1175

> <Gold.Chemscore.DEInternal>
6.1380

> <Gold.Chemscore.Rot>
3.0758

> <Gold.Chemscore.Internal.Correction>
   9.000000E+99

> <Gold.Chemscore.Hbonds>
donor molecule, donor type, donor heavy atom, donor atom, acceptor molecule, acceptor atom, score
      L1  H    27    62       P1  7948  0.86
      P1  H  8011  8017       L1    21  0.12
      P1  H 10752 10764       L1    15  0.62

> <Gold.Chemscore.Hbond.Weighted>
-6.5695

> <Gold.Chemscore.Metal.Weighted>
-0.0000

> <Gold.Chemscore.Lipo.Weighted>
-12.0250

> <Gold.Chemscore.Internal_Hbond.Weighted>
0.0000

> <Gold.Chemscore.DEClash.Weighted>
0.1175

> <Gold.Chemscore.DEInternal.Weighted>
6.1380

> <Gold.Chemscore.Rot.Weighted>
7.8741

> <Gold.Chemscore.Internal.Correction.Weighted>
   9.000000E+99

> <Gold.Protein.RotatedTorsions>
[ 6907 6896 6895 6894 ] final   -2.93 input  -60.11 | X-H torsion
[ 7974 7965 7964 7962 ] final  -22.05 input  175.53 | X-H torsion
[ 8008 7997 7996 7995 ] final  -22.50 input   59.86 | X-H torsion
[ 10167 10162 10161 10158 ] final    5.97 input  -65.29 | X-H torsion
[ 10718 10713 10712 10709 ] final  110.20 input   66.30 | X-H torsion
[ 10763 10752 10751 10750 ] final  -66.72 input  -60.55 | X-H torsion
[ 11005 11000 10999 10996 ] final  175.72 input  -57.11 | X-H torsion

> <Gold.Protein.ActiveResidues>
 VAL166  LYS551  ARG553  GLY616  TRP617  ASP618  TYR619  PRO620  LYS621  CYS622 
 ASP623  PHE694  ASN695  SER759  ASP760  ASP761  ALA762  ILE779  LEU786  VAL792 
 PHE793  MET794  SER795  GLU796  ALA797  LYS798  CYS799  TRP800  GLU811  SER814 

> <Gold.Protein.RotatedAtoms>
  151.5219  135.1067  159.9880 H   0  0  0  0  0  0  0  0  0  0  0  0  # atno 6907 bound_to 6896
  152.4617  133.7831  159.6872 H   0  0  0  0  0  0  0  0  0  0  0  0  # atno 6908 bound_to 6896
  150.8581  133.7619  159.3027 H   0  0  0  0  0  0  0  0  0  0  0  0  # atno 6909 bound_to 6896
  146.1698  140.4425  142.8537 H   0  0  0  0  0  0  0  0  0  0  0  0  # atno 7974 bound_to 7965
  154.4641  140.2006  156.0166 H   0  0  0  0  0  0  0  0  0  0  0  0  # atno 8008 bound_to 7997
  156.0894  140.3260  155.7767 H   0  0  0  0  0  0  0  0  0  0  0  0  # atno 8009 bound_to 7997
  155.4982  140.0551  157.2934 H   0  0  0  0  0  0  0  0  0  0  0  0  # atno 8010 bound_to 7997
  140.6453  143.7676  150.7490 H   0  0  0  0  0  0  0  0  0  0  0  0  # atno 10167 bound_to 10162
  157.6506  131.0928  150.6566 H   0  0  0  0  0  0  0  0  0  0  0  0  # atno 10718 bound_to 10713
  154.3640  135.6110  153.5705 H   0  0  0  0  0  0  0  0  0  0  0  0  # atno 10763 bound_to 10752
  152.9792  135.5822  154.4600 H   0  0  0  0  0  0  0  0  0  0  0  0  # atno 10764 bound_to 10752
  154.4343  135.2848  155.1869 H   0  0  0  0  0  0  0  0  0  0  0  0  # atno 10765 bound_to 10752
  140.3653  134.7077  157.4358 H   0  0  0  0  0  0  0  0  0  0  0  0  # atno 11005 bound_to 11000
  144.8146  140.6445  143.6393 LP  0  0  0  0  0  0  0  0  0  0  0  0  # atno 17320 bound_to 7965
  145.4371  139.1541  143.3991 LP  0  0  0  0  0  0  0  0  0  0  0  0  # atno 17321 bound_to 7965
  140.1316  143.4521  152.2250 LP  0  0  0  0  0  0  0  0  0  0  0  0  # atno 17342 bound_to 10162
  139.5664  144.7437  151.4012 LP  0  0  0  0  0  0  0  0  0  0  0  0  # atno 17343 bound_to 10162
  156.6878  130.4586  149.5609 LP  0  0  0  0  0  0  0  0  0  0  0  0  # atno 17370 bound_to 10713
  156.1883  130.6543  151.1032 LP  0  0  0  0  0  0  0  0  0  0  0  0  # atno 17371 bound_to 10713
  140.0594  134.6017  155.8766 LP  0  0  0  0  0  0  0  0  0  0  0  0  # atno 17394 bound_to 11000
  141.1971  133.6595  156.5727 LP  0  0  0  0  0  0  0  0  0  0  0  0  # atno 17395 bound_to 11000

$$$$
