AV-unprocessed.smi:2493|AV-procd|sdf|9819|dock8
  -GOLD-   2272013453D 1   1.00000     0.00000
 Structure written by MMmdl.
 41 42  0  0  0  0  0  0  0  0  1 V2000
  151.3927  144.9389  158.1570 C   0  0  0  0  0  0  0  0  0  0  0  0
  151.0793  143.6949  159.0202 C   0  0  0  0  0  0  0  0  0  0  0  0
  149.7736  143.0259  158.5039 C   0  0  0  0  0  0  0  0  0  0  0  0
  149.8840  142.5006  157.1438 N   0  0  0  0  0  0  0  0  0  0  0  0
  150.3640  141.2939  156.8037 C   0  0  0  0  0  0  0  0  0  0  0  0
  150.7878  140.4745  157.6182 O   0  0  0  0  0  0  0  0  0  0  0  0
  150.3761  140.9624  155.3112 C   0  0  0  0  0  0  0  0  0  0  0  0
  149.0125  141.1069  154.7149 C   0  0  0  0  0  0  0  0  0  0  0  0
  148.2089  140.2080  154.0703 C   0  0  0  0  0  0  0  0  0  0  0  0
  147.0414  140.9568  153.7439 C   0  0  0  0  0  0  0  0  0  0  0  0
  147.1079  142.2145  154.1506 N   0  0  0  0  0  0  0  0  0  0  0  0
  148.3141  142.2939  154.7432 N   0  0  0  0  0  0  0  0  0  0  0  0
  152.2512  142.6913  158.8361 C   0  0  0  0  0  0  0  0  0  0  0  0
  152.4015  141.6046  159.9173 C   0  0  0  0  0  0  0  0  0  0  0  0
  153.2955  142.0477  161.0877 C   0  0  0  0  0  0  0  0  0  0  0  0
  152.6572  143.0839  162.0235 C   0  0  0  0  0  0  0  0  0  0  0  0
  152.1646  144.3629  161.3248 C   0  0  0  0  0  0  0  0  0  0  0  0
  150.8846  144.1373  160.4986 C   0  0  0  0  0  0  0  0  0  0  0  0
  148.6468  143.1549  155.1539 H   0  0  0  0  0  0  0  0  0  0  0  0
  151.4840  144.6747  157.1027 H   0  0  0  0  0  0  0  0  0  0  0  0
  152.3289  145.4105  158.4567 H   0  0  0  0  0  0  0  0  0  0  0  0
  150.6166  145.7000  158.2356 H   0  0  0  0  0  0  0  0  0  0  0  0
  149.4504  142.2412  159.1904 H   0  0  0  0  0  0  0  0  0  0  0  0
  148.9624  143.7539  158.4945 H   0  0  0  0  0  0  0  0  0  0  0  0
  149.5604  143.1029  156.4008 H   0  0  0  0  0  0  0  0  0  0  0  0
  151.0807  141.6215  154.8025 H   0  0  0  0  0  0  0  0  0  0  0  0
  150.7428  139.9452  155.1666 H   0  0  0  0  0  0  0  0  0  0  0  0
  148.4228  139.1704  153.8605 H   0  0  0  0  0  0  0  0  0  0  0  0
  146.1534  140.6247  153.2262 H   0  0  0  0  0  0  0  0  0  0  0  0
  152.1420  142.2020  157.8671 H   0  0  0  0  0  0  0  0  0  0  0  0
  153.1972  143.2292  158.7585 H   0  0  0  0  0  0  0  0  0  0  0  0
  151.4323  141.2562  160.2748 H   0  0  0  0  0  0  0  0  0  0  0  0
  152.8740  140.7368  159.4557 H   0  0  0  0  0  0  0  0  0  0  0  0
  153.5572  141.1700  161.6793 H   0  0  0  0  0  0  0  0  0  0  0  0
  154.2401  142.4343  160.7031 H   0  0  0  0  0  0  0  0  0  0  0  0
  151.8345  142.6240  162.5720 H   0  0  0  0  0  0  0  0  0  0  0  0
  153.3941  143.3602  162.7782 H   0  0  0  0  0  0  0  0  0  0  0  0
  151.9352  145.0915  162.1032 H   0  0  0  0  0  0  0  0  0  0  0  0
  152.9549  144.8133  160.7242 H   0  0  0  0  0  0  0  0  0  0  0  0
  150.3029  145.0601  160.5139 H   0  0  0  0  0  0  0  0  0  0  0  0
  150.2595  143.4134  161.0231 H   0  0  0  0  0  0  0  0  0  0  0  0
  1  2  1  0  0  0  0
  1 20  1  0  0  0  0
  1 21  1  0  0  0  0
  1 22  1  0  0  0  0
  2 18  1  0  0  0  0
  2  3  1  0  0  0  0
  2 13  1  0  0  0  0
  3  4  1  0  0  0  0
  3 23  1  0  0  0  0
  3 24  1  0  0  0  0
  4  5  1  0  0  0  0
  4 25  1  0  0  0  0
  5  6  2  0  0  0  0
  5  7  1  0  0  0  0
  7  8  1  0  0  0  0
  7 26  1  0  0  0  0
  7 27  1  0  0  0  0
  8 12  1  0  0  0  0
  8  9  2  0  0  0  0
  9 10  1  0  0  0  0
  9 28  1  0  0  0  0
 10 11  2  0  0  0  0
 10 29  1  0  0  0  0
 11 12  1  0  0  0  0
 12 19  1  0  0  0  0
 13 14  1  0  0  0  0
 13 30  1  0  0  0  0
 13 31  1  0  0  0  0
 14 15  1  0  0  0  0
 14 32  1  0  0  0  0
 14 33  1  0  0  0  0
 15 16  1  0  0  0  0
 15 34  1  0  0  0  0
 15 35  1  0  0  0  0
 16 17  1  0  0  0  0
 16 36  1  0  0  0  0
 16 37  1  0  0  0  0
 17 18  1  0  0  0  0
 17 38  1  0  0  0  0
 17 39  1  0  0  0  0
 18 40  1  0  0  0  0
 18 41  1  0  0  0  0
M  END
> <s_m_source_file>
AV-unprocessed.smi

> <i_m_source_file_index>
2493

> <i_lp_mmshare_version>
43012

> <i_f3d_flags>
0

> <s_epik_input>
W0NIMl0xW0NIMl1bQ0gyXVtDSDJdW0NIMl1bQ0gyXUMxKFtDSDNdKVtDSDJdW05IXUMoPU8pW0NIMl1jMltjSF1bY0hdbltuSF0y

> <s_epik_cmdline>
J2VwaWtfcHl0aG9uJywgJy1waCcsICc3LjAnLCAnLXRuJywgJzgnLCAnLW1hJywgJzIwMCcsICctbWV0YWxfYmluZGluZycsICctaW1hZScsICc8aW5maWxlLm1hZT4nLCAnLW9tYWUnLCAnPG91dGZpbGUubWFlPic=

> <r_lp_tautomer_probability>
0.5

> <r_epik_Ionization_Penalty>
2.55018e-05

> <r_epik_Ionization_Penalty_Charging>
0

> <r_epik_Ionization_Penalty_Neutral>
2.55018e-05

> <r_epik_State_Penalty>
0.41068

> <r_epik_Charging_Adjusted_Penalty>
0.41068

> <i_epik_Tot_Q>
0

> <i_epik_Tot_abs_Q>
0

> <r_epik_Metal_State_Penalty>
0.410675

> <b_epik_Metal_Only>
0

> <s_lp_Force_Field>
OPLS_2005

> <r_lp_Energy>
19.8643

> <b_lp_Chiralities_Consistent>
1

> <s_lp_Variant>
AV-unprocessed.smi:2493-1

> <Gold.Version>
5.8.1

> <Gold.Id.Protein>
6NUR|6NUR_protein|mol2

> <Gold.PLP.Fitness>
49.4603

> <Gold.PLP.PLP>
-40.9393

> <Gold.PLP.part.hbond>
-1.9277

> <Gold.PLP.part.metal>
0.0000

> <Gold.PLP.part.buried>
-5.9563

> <Gold.PLP.part.nonpolar>
-34.0073

> <Gold.PLP.part.repulsive>
0.3928

> <Gold.PLP.ligand.clash>
0.0000

> <Gold.PLP.ligand.torsion>
0.2178

> <Gold.PLP.Chemscore.Hbond>
1.9913

> <Gold.PLP.Chemscore.CHOScore>
0.9919

> <Gold.PLP.Chemscore.Metal>
0.0000

> <Gold.Chemscore.Hbonds>
donor molecule, donor type, donor heavy atom, donor atom, acceptor molecule, acceptor atom, score
      L1  H     4    25       P1  8028  1.00
      L1  H    12    19       P1  8028  1.00
      L1  C    10    29       P1 10175  0.87

> <Gold.PLP.Chemscore.Internal.Correction>
0.0074

> <Gold.Rescore>
     Score         DG    S(hbond)    S(metal)    S(lipo)     H(rot)  DE(clash)    DE(int)     intcor
     20.32     -21.88       1.97        0.00     120.24       1.66       0.05       1.51       ----

> <Gold.Chemscore.Fitness>
20.3205

> <Gold.Chemscore.DG>
-21.8770

> <Gold.Chemscore.ZeroCoef>
-5.4800

> <Gold.Chemscore.Hbond>
1.9690

> <Gold.Chemscore.Metal>
0.0000

> <Gold.Chemscore.Lipo>
120.2397

> <Gold.Chemscore.Internal_Hbond>
0.0000

> <Gold.Chemscore.DEClash>
0.0477

> <Gold.Chemscore.DEInternal>
1.5087

> <Gold.Chemscore.Rot>
1.6592

> <Gold.Chemscore.Internal.Correction>
   9.000000E+99

> <Gold.Chemscore.Hbonds>
donor molecule, donor type, donor heavy atom, donor atom, acceptor molecule, acceptor atom, score
      L1  H     4    25       P1  8028  0.98
      L1  H    12    19       P1  8028  1.00

> <Gold.Chemscore.Hbond.Weighted>
-6.5765

> <Gold.Chemscore.Metal.Weighted>
-0.0000

> <Gold.Chemscore.Lipo.Weighted>
-14.0680

> <Gold.Chemscore.Internal_Hbond.Weighted>
0.0000

> <Gold.Chemscore.DEClash.Weighted>
0.0477

> <Gold.Chemscore.DEInternal.Weighted>
1.5087

> <Gold.Chemscore.Rot.Weighted>
4.2475

> <Gold.Chemscore.Internal.Correction.Weighted>
   9.000000E+99

> <Gold.Protein.RotatedTorsions>
[ 6907 6896 6895 6894 ] final  165.30 input  -60.11 | X-H torsion
[ 7974 7965 7964 7962 ] final -134.38 input  175.53 | X-H torsion
[ 8008 7997 7996 7995 ] final  -15.96 input   59.86 | X-H torsion
[ 10167 10162 10161 10158 ] final  -39.60 input  -65.29 | X-H torsion
[ 10718 10713 10712 10709 ] final   47.35 input   66.30 | X-H torsion
[ 10763 10752 10751 10750 ] final  162.88 input  -60.55 | X-H torsion
[ 11005 11000 10999 10996 ] final -170.67 input  -57.11 | X-H torsion

> <Gold.Protein.ActiveResidues>
 VAL166  LYS551  ARG553  GLY616  TRP617  ASP618  TYR619  PRO620  LYS621  CYS622 
 ASP623  PHE694  ASN695  SER759  ASP760  ASP761  ALA762  ILE779  LEU786  VAL792 
 PHE793  MET794  SER795  GLU796  ALA797  LYS798  CYS799  TRP800  GLU811  SER814 

> <Gold.Protein.RotatedAtoms>
  151.8965  133.3528  159.3815 H   0  0  0  0  0  0  0  0  0  0  0  0  # atno 6907 bound_to 6896
  150.7090  134.4871  159.5507 H   0  0  0  0  0  0  0  0  0  0  0  0  # atno 6908 bound_to 6896
  152.2451  134.8190  160.0505 H   0  0  0  0  0  0  0  0  0  0  0  0  # atno 6909 bound_to 6896
  144.9108  140.6892  143.5026 H   0  0  0  0  0  0  0  0  0  0  0  0  # atno 7974 bound_to 7965
  154.5089  140.2182  155.9195 H   0  0  0  0  0  0  0  0  0  0  0  0  # atno 8008 bound_to 7997
  156.1528  140.3158  155.8643 H   0  0  0  0  0  0  0  0  0  0  0  0  # atno 8009 bound_to 7997
  155.3905  140.0478  157.3031 H   0  0  0  0  0  0  0  0  0  0  0  0  # atno 8010 bound_to 7997
  140.7059  143.3204  151.2805 H   0  0  0  0  0  0  0  0  0  0  0  0  # atno 10167 bound_to 10162
  157.4576  130.8176  149.7852 H   0  0  0  0  0  0  0  0  0  0  0  0  # atno 10718 bound_to 10713
  154.2852  135.2762  155.2679 H   0  0  0  0  0  0  0  0  0  0  0  0  # atno 10763 bound_to 10752
  154.5183  135.5763  153.6663 H   0  0  0  0  0  0  0  0  0  0  0  0  # atno 10764 bound_to 10752
  152.9923  135.6198  154.3013 H   0  0  0  0  0  0  0  0  0  0  0  0  # atno 10765 bound_to 10752
  140.5169  134.5747  157.5036 H   0  0  0  0  0  0  0  0  0  0  0  0  # atno 11005 bound_to 11000
  145.3458  139.1719  143.4461 LP  0  0  0  0  0  0  0  0  0  0  0  0  # atno 17320 bound_to 7965
  146.3157  140.3504  142.8655 LP  0  0  0  0  0  0  0  0  0  0  0  0  # atno 17321 bound_to 7965
  139.6657  144.0110  152.2721 LP  0  0  0  0  0  0  0  0  0  0  0  0  # atno 17342 bound_to 10162
  139.9692  144.6505  150.8005 LP  0  0  0  0  0  0  0  0  0  0  0  0  # atno 17343 bound_to 10162
  156.0014  130.3878  150.2592 LP  0  0  0  0  0  0  0  0  0  0  0  0  # atno 17370 bound_to 10713
  157.0768  131.0132  151.3171 LP  0  0  0  0  0  0  0  0  0  0  0  0  # atno 17371 bound_to 10713
  139.9627  134.7424  156.0202 LP  0  0  0  0  0  0  0  0  0  0  0  0  # atno 17394 bound_to 11000
  141.1355  133.6576  156.3583 LP  0  0  0  0  0  0  0  0  0  0  0  0  # atno 17395 bound_to 11000

$$$$
