AV-unprocessed.smi:1048|AV-procd|sdf|4604|dock8
  -GOLD-   22720 3103D 1   1.00000     0.00000
 Structure written by MMmdl.
 46 47  0  0  0  0  0  0  0  0  2 V2000
  141.9995  144.1591  155.9057 C   0  0  0  0  0  0  0  0  0  0  0  0
  143.3095  143.3594  155.9326 C   0  0  2  0  0  0  0  0  0  0  0  0
  144.2013  143.6843  154.7222 C   0  0  0  0  0  0  0  0  0  0  0  0
  145.4961  142.8545  154.7427 C   0  0  0  0  0  0  0  0  0  0  0  0
  145.1991  141.3984  154.7945 N   0  3  1  0  0  0  0  0  0  0  0  0
  146.4119  140.5476  154.6832 C   0  0  0  0  0  0  0  0  0  0  0  0
  147.4439  141.1214  153.6908 C   0  0  2  0  0  0  0  0  0  0  0  0
  147.3020  140.3945  152.4860 O   0  0  0  0  0  0  0  0  0  0  0  0
  148.8868  140.9387  154.2053 C   0  0  0  0  0  0  0  0  0  0  0  0
  149.2089  141.8759  155.2766 N   0  0  0  0  0  0  0  0  0  0  0  0
  150.1100  141.6584  156.2447 C   0  0  0  0  0  0  0  0  0  0  0  0
  150.7893  140.6352  156.3193 O   0  0  0  0  0  0  0  0  0  0  0  0
  150.1822  142.7032  157.0867 N   0  0  0  0  0  0  0  0  0  0  0  0
  150.9829  142.8433  158.2525 C   0  0  0  0  0  0  0  0  0  0  0  0
  151.5333  141.6767  158.8220 C   0  0  0  0  0  0  0  0  0  0  0  0
  152.3482  141.7889  159.9645 C   0  0  0  0  0  0  0  0  0  0  0  0
  152.5905  143.0726  160.4904 C   0  0  0  0  0  0  0  0  0  0  0  0
  152.0843  144.2010  159.9501 N   0  0  0  0  0  0  0  0  0  0  0  0
  151.3013  144.0858  158.8556 C   0  0  0  0  0  0  0  0  0  0  0  0
  144.3700  141.0528  155.9772 C   0  0  0  0  0  0  0  0  0  0  0  0
  143.0511  141.8440  155.9790 C   0  0  0  0  0  0  0  0  0  0  0  0
  141.4069  143.9229  155.0213 H   0  0  0  0  0  0  0  0  0  0  0  0
  142.1951  145.2318  155.8984 H   0  0  0  0  0  0  0  0  0  0  0  0
  141.3890  143.9418  156.7826 H   0  0  0  0  0  0  0  0  0  0  0  0
  143.8499  143.6397  156.8381 H   0  0  0  0  0  0  0  0  0  0  0  0
  143.6577  143.4876  153.7968 H   0  0  0  0  0  0  0  0  0  0  0  0
  144.4476  144.7469  154.7152 H   0  0  0  0  0  0  0  0  0  0  0  0
  146.0821  143.0906  153.8552 H   0  0  0  0  0  0  0  0  0  0  0  0
  146.1045  143.1337  155.6045 H   0  0  0  0  0  0  0  0  0  0  0  0
  146.8539  140.4236  155.6730 H   0  0  0  0  0  0  0  0  0  0  0  0
  146.1351  139.5455  154.3505 H   0  0  0  0  0  0  0  0  0  0  0  0
  147.2509  142.1779  153.5044 H   0  0  0  0  0  0  0  0  0  0  0  0
  148.1552  140.3061  152.0859 H   0  0  0  0  0  0  0  0  0  0  0  0
  148.9935  139.9444  154.6397 H   0  0  0  0  0  0  0  0  0  0  0  0
  149.6152  140.9907  153.3936 H   0  0  0  0  0  0  0  0  0  0  0  0
  148.6979  142.7466  155.2899 H   0  0  0  0  0  0  0  0  0  0  0  0
  149.6277  143.5109  156.8434 H   0  0  0  0  0  0  0  0  0  0  0  0
  151.3322  140.7055  158.3938 H   0  0  0  0  0  0  0  0  0  0  0  0
  152.7787  140.9124  160.4257 H   0  0  0  0  0  0  0  0  0  0  0  0
  153.2127  143.1965  161.3642 H   0  0  0  0  0  0  0  0  0  0  0  0
  150.9495  145.0232  158.4543 H   0  0  0  0  0  0  0  0  0  0  0  0
  144.1437  139.9858  155.9697 H   0  0  0  0  0  0  0  0  0  0  0  0
  144.9333  141.2526  156.8899 H   0  0  0  0  0  0  0  0  0  0  0  0
  142.4730  141.5903  156.8682 H   0  0  0  0  0  0  0  0  0  0  0  0
  142.4461  141.5441  155.1219 H   0  0  0  0  0  0  0  0  0  0  0  0
  144.6331  141.1816  153.9860 H   0  0  0  0  0  0  0  0  0  0  0  0
  1  2  1  0  0  0  0
  1 22  1  0  0  0  0
  1 23  1  0  0  0  0
  1 24  1  0  0  0  0
  2 21  1  0  0  0  0
  2  3  1  0  0  0  0
  2 25  1  0  0  0  0
  3  4  1  0  0  0  0
  3 26  1  0  0  0  0
  3 27  1  0  0  0  0
  4  5  1  0  0  0  0
  4 28  1  0  0  0  0
  4 29  1  0  0  0  0
  5  6  1  0  0  0  0
  5 20  1  0  0  0  0
  5 46  1  0  0  0  0
  6  7  1  0  0  0  0
  6 30  1  0  0  0  0
  6 31  1  0  0  0  0
  7  8  1  0  0  0  0
  7  9  1  0  0  0  0
  7 32  1  0  0  0  0
  8 33  1  0  0  0  0
  9 10  1  0  0  0  0
  9 34  1  0  0  0  0
  9 35  1  0  0  0  0
 10 11  1  0  0  0  0
 10 36  1  0  0  0  0
 11 12  2  0  0  0  0
 11 13  1  0  0  0  0
 13 14  1  0  0  0  0
 13 37  1  0  0  0  0
 14 19  1  0  0  0  0
 14 15  2  0  0  0  0
 15 16  1  0  0  0  0
 15 38  1  0  0  0  0
 16 17  2  0  0  0  0
 16 39  1  0  0  0  0
 17 18  1  0  0  0  0
 17 40  1  0  0  0  0
 18 19  2  0  0  0  0
 19 41  1  0  0  0  0
 20 21  1  0  0  0  0
 20 42  1  0  0  0  0
 20 43  1  0  0  0  0
 21 44  1  0  0  0  0
 21 45  1  0  0  0  0
M  CHG  1   5   1
M  END
> <s_m_source_file>
AV-unprocessed.smi

> <i_m_source_file_index>
1048

> <i_lp_mmshare_version>
43012

> <i_f3d_flags>
0

> <s_epik_input>
W0NIM11bQ0hdMVtDSDJdW0NIMl1OKFtDSDJdW0NIMl0xKVtDSDJdW0NASF0oW09IXSlbQ0gyXVtOSF1DKD1PKVtOSF1jMltjSF1bY0hdW2NIXW5bY0hdMg==

> <s_epik_cmdline>
J2VwaWtfcHl0aG9uJywgJy1waCcsICc3LjAnLCAnLXRuJywgJzgnLCAnLW1hJywgJzIwMCcsICctbWV0YWxfYmluZGluZycsICctaW1hZScsICc8aW5maWxlLm1hZT4nLCAnLW9tYWUnLCAnPG91dGZpbGUubWFlPic=

> <r_lp_tautomer_probability>
1

> <r_epik_Ionization_Penalty>
0.00581049

> <r_epik_Ionization_Penalty_Charging>
0.00147689

> <r_epik_Ionization_Penalty_Neutral>
0.0043336

> <r_epik_State_Penalty>
-0

> <r_epik_Charging_Adjusted_Penalty>
0.00147689

> <i_epik_Tot_Q>
1

> <i_epik_Tot_abs_Q>
1

> <r_epik_Metal_State_Penalty>
-0

> <b_epik_Metal_Only>
0

> <s_lp_Force_Field>
OPLS_2005

> <r_lp_Energy>
22.5683

> <b_lp_Chiralities_Consistent>
1

> <s_lp_Variant>
AV-unprocessed.smi:1048-1

> <Gold.Version>
5.8.1

> <Gold.Id.Protein>
6NUR|6NUR_protein|mol2

> <Gold.PLP.Fitness>
53.7874

> <Gold.PLP.PLP>
-41.1845

> <Gold.PLP.part.hbond>
-4.0000

> <Gold.PLP.part.metal>
0.0000

> <Gold.PLP.part.buried>
-5.8484

> <Gold.PLP.part.nonpolar>
-32.3289

> <Gold.PLP.part.repulsive>
0.2769

> <Gold.PLP.ligand.clash>
0.0000

> <Gold.PLP.ligand.torsion>
1.0791

> <Gold.PLP.Chemscore.Hbond>
4.9027

> <Gold.PLP.Chemscore.CHOScore>
0.0000

> <Gold.PLP.Chemscore.Metal>
0.0000

> <Gold.Chemscore.Hbonds>
donor molecule, donor type, donor heavy atom, donor atom, acceptor molecule, acceptor atom, score
      L1  H     5    46       P1 10175  2.00
      L1  H     8    33       P1  7957  1.00
      L1  H    10    36       P1  8028  0.88
      L1  H    13    37       P1  8028  1.00

> <Gold.PLP.Chemscore.Internal.Correction>
0.0528

> <Gold.Rescore>
     Score         DG    S(hbond)    S(metal)    S(lipo)     H(rot)  DE(clash)    DE(int)     intcor
     20.16     -22.96       3.52        0.00      98.90       2.29       0.27       2.53       ----

> <Gold.Chemscore.Fitness>
20.1606

> <Gold.Chemscore.DG>
-22.9591

> <Gold.Chemscore.ZeroCoef>
-5.4800

> <Gold.Chemscore.Hbond>
3.5212

> <Gold.Chemscore.Metal>
0.0000

> <Gold.Chemscore.Lipo>
98.9029

> <Gold.Chemscore.Internal_Hbond>
0.0000

> <Gold.Chemscore.DEClash>
0.2711

> <Gold.Chemscore.DEInternal>
2.5274

> <Gold.Chemscore.Rot>
2.2865

> <Gold.Chemscore.Internal.Correction>
   9.000000E+99

> <Gold.Chemscore.Hbonds>
donor molecule, donor type, donor heavy atom, donor atom, acceptor molecule, acceptor atom, score
      L1  H     5    46       P1 10175  0.65
      L1  H     8    33       P1  7957  1.00
      L1  H    10    36       P1  8028  0.83
      L1  H    13    37       P1  8028  0.97

> <Gold.Chemscore.Hbond.Weighted>
-11.7610

> <Gold.Chemscore.Metal.Weighted>
-0.0000

> <Gold.Chemscore.Lipo.Weighted>
-11.5716

> <Gold.Chemscore.Internal_Hbond.Weighted>
0.0000

> <Gold.Chemscore.DEClash.Weighted>
0.2711

> <Gold.Chemscore.DEInternal.Weighted>
2.5274

> <Gold.Chemscore.Rot.Weighted>
5.8536

> <Gold.Chemscore.Internal.Correction.Weighted>
   9.000000E+99

> <Gold.Protein.RotatedTorsions>
[ 6907 6896 6895 6894 ] final  142.22 input  -60.11 | X-H torsion
[ 7974 7965 7964 7962 ] final   69.30 input  175.53 | X-H torsion
[ 8008 7997 7996 7995 ] final  104.94 input   59.86 | X-H torsion
[ 10167 10162 10161 10158 ] final  -95.67 input  -65.29 | X-H torsion
[ 10718 10713 10712 10709 ] final   81.06 input   66.30 | X-H torsion
[ 10763 10752 10751 10750 ] final -104.74 input  -60.55 | X-H torsion
[ 11005 11000 10999 10996 ] final   65.12 input  -57.11 | X-H torsion

> <Gold.Protein.ActiveResidues>
 VAL166  LYS551  ARG553  GLY616  TRP617  ASP618  TYR619  PRO620  LYS621  CYS622 
 ASP623  PHE694  ASN695  SER759  ASP760  ASP761  ALA762  ILE779  LEU786  VAL792 
 PHE793  MET794  SER795  GLU796  ALA797  LYS798  CYS799  TRP800  GLU811  SER814 

> <Gold.Protein.RotatedAtoms>
  152.2214  133.4986  159.5164 H   0  0  0  0  0  0  0  0  0  0  0  0  # atno 6907 bound_to 6896
  150.7014  134.1337  159.4088 H   0  0  0  0  0  0  0  0  0  0  0  0  # atno 6908 bound_to 6896
  151.9258  135.0278  160.0576 H   0  0  0  0  0  0  0  0  0  0  0  0  # atno 6909 bound_to 6896
  145.7921  139.2939  143.1204 H   0  0  0  0  0  0  0  0  0  0  0  0  # atno 7974 bound_to 7965
  156.1616  140.3139  155.8817 H   0  0  0  0  0  0  0  0  0  0  0  0  # atno 8008 bound_to 7997
  155.3770  140.0485  157.3061 H   0  0  0  0  0  0  0  0  0  0  0  0  # atno 8009 bound_to 7997
  154.5152  140.2179  155.9090 H   0  0  0  0  0  0  0  0  0  0  0  0  # atno 8010 bound_to 7997
  140.3017  143.3158  152.0241 H   0  0  0  0  0  0  0  0  0  0  0  0  # atno 10167 bound_to 10162
  157.6823  130.9987  150.2171 H   0  0  0  0  0  0  0  0  0  0  0  0  # atno 10718 bound_to 10713
  154.7899  135.4775  154.0029 H   0  0  0  0  0  0  0  0  0  0  0  0  # atno 10763 bound_to 10752
  153.1615  135.6809  153.8742 H   0  0  0  0  0  0  0  0  0  0  0  0  # atno 10764 bound_to 10752
  153.8354  135.3186  155.3400 H   0  0  0  0  0  0  0  0  0  0  0  0  # atno 10765 bound_to 10752
  139.9915  134.6584  156.0083 H   0  0  0  0  0  0  0  0  0  0  0  0  # atno 11005 bound_to 11000
  145.9966  140.8557  143.0039 LP  0  0  0  0  0  0  0  0  0  0  0  0  # atno 17320 bound_to 7965
  144.6780  140.2292  143.7357 LP  0  0  0  0  0  0  0  0  0  0  0  0  # atno 17321 bound_to 7965
  139.4913  144.6451  151.6796 LP  0  0  0  0  0  0  0  0  0  0  0  0  # atno 17342 bound_to 10162
  140.5645  144.0213  150.6186 LP  0  0  0  0  0  0  0  0  0  0  0  0  # atno 17343 bound_to 10162
  156.2830  130.3736  149.7916 LP  0  0  0  0  0  0  0  0  0  0  0  0  # atno 17370 bound_to 10713
  156.5599  130.8379  151.3325 LP  0  0  0  0  0  0  0  0  0  0  0  0  # atno 17371 bound_to 10713
  141.1569  133.6542  156.4192 LP  0  0  0  0  0  0  0  0  0  0  0  0  # atno 17394 bound_to 11000
  140.4900  134.6585  157.5206 LP  0  0  0  0  0  0  0  0  0  0  0  0  # atno 17395 bound_to 11000

$$$$
