AV-unprocessed.smi:2029|AV-procd|sdf|8223|dock4
  -GOLD-   2272010493D 1   1.00000     0.00000
 Structure written by MMmdl.
 29 30  0  0  0  0  0  0  0  0  2 V2000
  149.9006  140.2481  154.0791 O   0  0  0  0  0  0  0  0  0  0  0  0
  149.3929  141.2911  154.4937 C   0  0  0  0  0  0  0  0  0  0  0  0
  149.8926  141.9819  155.5283 N   0  0  0  0  0  0  0  0  0  0  0  0
  151.0719  141.5874  156.2865 C   0  0  0  0  0  0  0  0  0  0  0  0
  150.7775  141.5989  157.7927 C   0  0  0  0  0  0  0  0  0  0  0  0
  151.1999  142.8983  158.4512 C   0  0  0  0  0  0  0  0  0  0  0  0
  152.0857  142.9300  159.5503 C   0  0  0  0  0  0  0  0  0  0  0  0
  152.4411  144.1735  160.1133 C   0  0  0  0  0  0  0  0  0  0  0  0
  151.9046  145.3575  159.5661 C   0  0  0  0  0  0  0  0  0  0  0  0
  151.0260  145.2679  158.4672 C   0  0  0  0  0  0  0  0  0  0  0  0
  150.7095  144.0577  157.9559 N   0  3  0  0  0  0  0  0  0  0  0  0
  148.1672  141.8981  153.8932 C   0  0  0  0  0  0  0  0  0  0  0  0
  146.9518  142.0530  154.7845 C   0  0  0  0  0  0  0  0  0  0  0  0
  146.9599  141.0025  153.7028 C   0  0  0  0  0  0  0  0  0  0  0  0
  149.4205  142.8287  155.8105 H   0  0  0  0  0  0  0  0  0  0  0  0
  151.3831  140.5888  155.9753 H   0  0  0  0  0  0  0  0  0  0  0  0
  151.8928  142.2686  156.0565 H   0  0  0  0  0  0  0  0  0  0  0  0
  149.7120  141.4445  157.9681 H   0  0  0  0  0  0  0  0  0  0  0  0
  151.2933  140.7702  158.2797 H   0  0  0  0  0  0  0  0  0  0  0  0
  152.4905  142.0149  159.9579 H   0  0  0  0  0  0  0  0  0  0  0  0
  153.1171  144.2186  160.9546 H   0  0  0  0  0  0  0  0  0  0  0  0
  152.1642  146.3197  159.9829 H   0  0  0  0  0  0  0  0  0  0  0  0
  150.5704  146.1208  157.9857 H   0  0  0  0  0  0  0  0  0  0  0  0
  148.3240  142.6725  153.1437 H   0  0  0  0  0  0  0  0  0  0  0  0
  147.0145  141.7092  155.8156 H   0  0  0  0  0  0  0  0  0  0  0  0
  146.3380  142.9383  154.6322 H   0  0  0  0  0  0  0  0  0  0  0  0
  146.3505  141.1761  152.8182 H   0  0  0  0  0  0  0  0  0  0  0  0
  147.0280  139.9622  154.0165 H   0  0  0  0  0  0  0  0  0  0  0  0
  150.0726  144.0170  157.1598 H   0  0  0  0  0  0  0  0  0  0  0  0
  1  2  2  0  0  0  0
  2  3  1  0  0  0  0
  2 12  1  0  0  0  0
  3  4  1  0  0  0  0
  3 15  1  0  0  0  0
  4  5  1  0  0  0  0
  4 16  1  0  0  0  0
  4 17  1  0  0  0  0
  5  6  1  0  0  0  0
  5 18  1  0  0  0  0
  5 19  1  0  0  0  0
  6 11  1  0  0  0  0
  6  7  2  0  0  0  0
  7  8  1  0  0  0  0
  7 20  1  0  0  0  0
  8  9  2  0  0  0  0
  8 21  1  0  0  0  0
  9 10  1  0  0  0  0
  9 22  1  0  0  0  0
 10 11  2  0  0  0  0
 10 23  1  0  0  0  0
 11 29  1  0  0  0  0
 12 14  1  0  0  0  0
 12 13  1  0  0  0  0
 12 24  1  0  0  0  0
 13 14  1  0  0  0  0
 13 25  1  0  0  0  0
 13 26  1  0  0  0  0
 14 27  1  0  0  0  0
 14 28  1  0  0  0  0
M  CHG  1  11   1
M  END
> <s_m_source_file>
AV-unprocessed.smi

> <i_m_source_file_index>
2029

> <i_lp_mmshare_version>
43012

> <i_f3d_flags>
0

> <s_epik_input>
W0NIMl0xW0NIMl1bQ0hdMUMoPU8pW05IXVtDSDJdW0NIMl1jMltjSF1bY0hdW2NIXVtjSF1uMg==

> <s_epik_cmdline>
J2VwaWtfcHl0aG9uJywgJy1waCcsICc3LjAnLCAnLXRuJywgJzgnLCAnLW1hJywgJzIwMCcsICctbWV0YWxfYmluZGluZycsICctaW1hZScsICc8aW5maWxlLm1hZT4nLCAnLW9tYWUnLCAnPG91dGZpbGUubWFlPic=

> <r_epik_Ionization_Penalty>
1.82741

> <r_epik_Ionization_Penalty_Charging>
1.82741

> <r_epik_Ionization_Penalty_Neutral>
2.2197e-08

> <r_epik_State_Penalty>
1.94311

> <r_epik_Charging_Adjusted_Penalty>
3.77052

> <i_epik_Tot_Q>
1

> <i_epik_Tot_abs_Q>
1

> <r_epik_Metal_State_Penalty>
1.96982

> <b_epik_Metal_Only>
0

> <s_lp_Force_Field>
OPLS_2005

> <r_lp_Energy>
10.9876

> <b_lp_Chiralities_Consistent>
1

> <s_lp_Variant>
AV-unprocessed.smi:2029-2

> <Gold.Version>
5.8.1

> <Gold.Id.Protein>
6NUR|6NUR_protein|mol2

> <Gold.PLP.Fitness>
46.4503

> <Gold.PLP.PLP>
-35.7933

> <Gold.PLP.part.hbond>
-3.0000

> <Gold.PLP.part.metal>
0.0000

> <Gold.PLP.part.buried>
-4.4064

> <Gold.PLP.part.nonpolar>
-27.8093

> <Gold.PLP.part.repulsive>
1.4380

> <Gold.PLP.ligand.clash>
0.0000

> <Gold.PLP.ligand.torsion>
0.3858

> <Gold.PLP.Chemscore.Hbond>
3.7840

> <Gold.PLP.Chemscore.CHOScore>
0.0000

> <Gold.PLP.Chemscore.Metal>
0.0000

> <Gold.Chemscore.Hbonds>
donor molecule, donor type, donor heavy atom, donor atom, acceptor molecule, acceptor atom, score
      L1  H     3    15       P1  8028  1.00
      L1  H    11    29       P1  8028  2.00
      P1  H  7989  7998       L1     1  0.83

> <Gold.PLP.Chemscore.Internal.Correction>
0.0765

> <Gold.Rescore>
     Score         DG    S(hbond)    S(metal)    S(lipo)     H(rot)  DE(clash)    DE(int)     intcor
     17.68     -18.81       2.12        0.00      88.08       1.58       0.49       0.63       ----

> <Gold.Chemscore.Fitness>
17.6825

> <Gold.Chemscore.DG>
-18.8073

> <Gold.Chemscore.ZeroCoef>
-5.4800

> <Gold.Chemscore.Hbond>
2.1170

> <Gold.Chemscore.Metal>
0.0000

> <Gold.Chemscore.Lipo>
88.0762

> <Gold.Chemscore.Internal_Hbond>
0.0000

> <Gold.Chemscore.DEClash>
0.4916

> <Gold.Chemscore.DEInternal>
0.6332

> <Gold.Chemscore.Rot>
1.5813

> <Gold.Chemscore.Internal.Correction>
   9.000000E+99

> <Gold.Chemscore.Hbonds>
donor molecule, donor type, donor heavy atom, donor atom, acceptor molecule, acceptor atom, score
      L1  H     3    15       P1  8028  0.96
      L1  H    11    29       P1  8028  0.82
      P1  H  7989  7998       L1     1  0.24

> <Gold.Chemscore.Hbond.Weighted>
-7.0706

> <Gold.Chemscore.Metal.Weighted>
-0.0000

> <Gold.Chemscore.Lipo.Weighted>
-10.3049

> <Gold.Chemscore.Internal_Hbond.Weighted>
0.0000

> <Gold.Chemscore.DEClash.Weighted>
0.4916

> <Gold.Chemscore.DEInternal.Weighted>
0.6332

> <Gold.Chemscore.Rot.Weighted>
4.0482

> <Gold.Chemscore.Internal.Correction.Weighted>
   9.000000E+99

> <Gold.Protein.RotatedTorsions>
[ 6907 6896 6895 6894 ] final   21.39 input  -60.11 | X-H torsion
[ 7974 7965 7964 7962 ] final -150.10 input  175.53 | X-H torsion
[ 8008 7997 7996 7995 ] final  -19.57 input   59.86 | X-H torsion
[ 10167 10162 10161 10158 ] final  -21.43 input  -65.29 | X-H torsion
[ 10718 10713 10712 10709 ] final -106.19 input   66.30 | X-H torsion
[ 10763 10752 10751 10750 ] final    8.92 input  -60.55 | X-H torsion
[ 11005 11000 10999 10996 ] final  121.47 input  -57.11 | X-H torsion

> <Gold.Protein.ActiveResidues>
 VAL166  LYS551  ARG553  GLY616  TRP617  ASP618  TYR619  PRO620  LYS621  CYS622 
 ASP623  PHE694  ASN695  SER759  ASP760  ASP761  ALA762  ILE779  LEU786  VAL792 
 PHE793  MET794  SER795  GLU796  ALA797  LYS798  CYS799  TRP800  GLU811  SER814 

> <Gold.Protein.RotatedAtoms>
  151.9110  135.0339  160.0514 H   0  0  0  0  0  0  0  0  0  0  0  0  # atno 6907 bound_to 6896
  152.2279  133.5030  159.5207 H   0  0  0  0  0  0  0  0  0  0  0  0  # atno 6908 bound_to 6896
  150.7017  134.1172  159.4064 H   0  0  0  0  0  0  0  0  0  0  0  0  # atno 6909 bound_to 6896
  144.7928  140.4977  143.5761 H   0  0  0  0  0  0  0  0  0  0  0  0  # atno 7974 bound_to 7965
  154.4827  140.2085  155.9726 H   0  0  0  0  0  0  0  0  0  0  0  0  # atno 8008 bound_to 7997
  156.1190  140.3216  155.8150 H   0  0  0  0  0  0  0  0  0  0  0  0  # atno 8009 bound_to 7997
  155.4502  140.0516  157.2992 H   0  0  0  0  0  0  0  0  0  0  0  0  # atno 8010 bound_to 7997
  140.7282  143.4628  151.0355 H   0  0  0  0  0  0  0  0  0  0  0  0  # atno 10167 bound_to 10162
  156.0379  130.5601  150.7646 H   0  0  0  0  0  0  0  0  0  0  0  0  # atno 10718 bound_to 10713
  153.2197  135.6879  153.8015 H   0  0  0  0  0  0  0  0  0  0  0  0  # atno 10763 bound_to 10752
  153.7218  135.3266  155.3269 H   0  0  0  0  0  0  0  0  0  0  0  0  # atno 10764 bound_to 10752
  154.8263  135.4615  154.1039 H   0  0  0  0  0  0  0  0  0  0  0  0  # atno 10765 bound_to 10752
  139.9227  134.9639  156.7964 H   0  0  0  0  0  0  0  0  0  0  0  0  # atno 11005 bound_to 11000
  145.5751  139.1485  143.3266 LP  0  0  0  0  0  0  0  0  0  0  0  0  # atno 17320 bound_to 7965
  146.2185  140.5883  142.9027 LP  0  0  0  0  0  0  0  0  0  0  0  0  # atno 17321 bound_to 7965
  139.8314  143.7685  152.3180 LP  0  0  0  0  0  0  0  0  0  0  0  0  # atno 17342 bound_to 10162
  139.7802  144.7447  151.0098 LP  0  0  0  0  0  0  0  0  0  0  0  0  # atno 17343 bound_to 10162
  157.5156  131.0928  151.0143 LP  0  0  0  0  0  0  0  0  0  0  0  0  # atno 17370 bound_to 10713
  157.0487  130.5778  149.5367 LP  0  0  0  0  0  0  0  0  0  0  0  0  # atno 17371 bound_to 10713
  140.6426  133.9805  155.7715 LP  0  0  0  0  0  0  0  0  0  0  0  0  # atno 17394 bound_to 11000
  141.0761  134.0132  157.3455 LP  0  0  0  0  0  0  0  0  0  0  0  0  # atno 17395 bound_to 11000

$$$$
