AV-unprocessed.smi:2106|AV-procd|sdf|8595|dock5
  -GOLD-   2272011333D 1   1.00000     0.00000
 Structure written by MMmdl.
 47 48  0  0  0  0  0  0  0  0  1 V2000
  151.6211  145.0332  158.6919 C   0  0  0  0  0  0  0  0  0  0  0  0
  152.1792  144.1111  159.7353 C   0  0  0  0  0  0  0  0  0  0  0  0
  152.1116  144.2381  161.1508 C   0  0  0  0  0  0  0  0  0  0  0  0
  152.7768  143.1408  161.6207 C   0  0  0  0  0  0  0  0  0  0  0  0
  153.0498  142.7104  163.0245 C   0  0  0  0  0  0  0  0  0  0  0  0
  153.2003  142.4243  160.5147 N   0  0  0  0  0  0  0  0  0  0  0  0
  153.9591  141.1851  160.4571 C   0  0  0  0  0  0  0  0  0  0  0  0
  153.5734  140.3605  159.2288 C   0  0  0  0  0  0  0  0  0  0  0  0
  154.3276  139.4776  158.8207 O   0  0  0  0  0  0  0  0  0  0  0  0
  152.3988  140.6603  158.6529 N   0  0  0  0  0  0  0  0  0  0  0  0
  151.8279  139.9864  157.4915 C   0  0  0  0  0  0  0  0  0  0  0  0
  151.0610  140.9688  156.5842 C   0  0  0  0  0  0  0  0  0  0  0  0
  149.9084  140.4091  155.8781 N   0  0  0  0  0  0  0  0  0  0  0  0
  149.0838  141.4588  155.2951 C   0  0  0  0  0  0  0  0  0  0  0  0
  147.8345  140.8862  154.6014 C   0  0  1  0  0  0  0  0  0  0  0  0
  147.0075  141.9759  153.9111 C   0  0  0  0  0  0  0  0  0  0  0  0
  148.2326  139.9391  153.6117 O   0  0  0  0  0  0  0  0  0  0  0  0
  149.0781  138.8869  154.0798 C   0  0  2  0  0  0  0  0  0  0  0  0
  148.2976  137.8513  154.9073 C   0  0  0  0  0  0  0  0  0  0  0  0
  150.2938  139.4711  154.8261 C   0  0  0  0  0  0  0  0  0  0  0  0
  152.8307  143.0225  159.3606 N   0  0  0  0  0  0  0  0  0  0  0  0
  151.0882  145.8677  159.1483 H   0  0  0  0  0  0  0  0  0  0  0  0
  150.9217  144.5108  158.0390 H   0  0  0  0  0  0  0  0  0  0  0  0
  152.4149  145.4472  158.0696 H   0  0  0  0  0  0  0  0  0  0  0  0
  151.6466  145.0191  161.7339 H   0  0  0  0  0  0  0  0  0  0  0  0
  152.5901  143.3948  163.7377 H   0  0  0  0  0  0  0  0  0  0  0  0
  154.1211  142.6898  163.2236 H   0  0  0  0  0  0  0  0  0  0  0  0
  152.6488  141.7143  163.2126 H   0  0  0  0  0  0  0  0  0  0  0  0
  155.0246  141.4145  160.4281 H   0  0  0  0  0  0  0  0  0  0  0  0
  153.7861  140.6124  161.3700 H   0  0  0  0  0  0  0  0  0  0  0  0
  151.8544  141.4082  159.0573 H   0  0  0  0  0  0  0  0  0  0  0  0
  152.6587  139.5635  156.9267 H   0  0  0  0  0  0  0  0  0  0  0  0
  151.2120  139.1362  157.7861 H   0  0  0  0  0  0  0  0  0  0  0  0
  150.7286  141.8016  157.2057 H   0  0  0  0  0  0  0  0  0  0  0  0
  151.7533  141.4004  155.8600 H   0  0  0  0  0  0  0  0  0  0  0  0
  148.7719  142.1568  156.0729 H   0  0  0  0  0  0  0  0  0  0  0  0
  149.6712  142.0342  154.5776 H   0  0  0  0  0  0  0  0  0  0  0  0
  147.2021  140.3930  155.3403 H   0  0  0  0  0  0  0  0  0  0  0  0
  146.6668  142.7238  154.6277 H   0  0  0  0  0  0  0  0  0  0  0  0
  146.1263  141.5496  153.4313 H   0  0  0  0  0  0  0  0  0  0  0  0
  147.5900  142.4873  153.1443 H   0  0  0  0  0  0  0  0  0  0  0  0
  149.4464  138.3723  153.1921 H   0  0  0  0  0  0  0  0  0  0  0  0
  148.9321  137.0017  155.1605 H   0  0  0  0  0  0  0  0  0  0  0  0
  147.4432  137.4698  154.3484 H   0  0  0  0  0  0  0  0  0  0  0  0
  147.9268  138.2688  155.8430 H   0  0  0  0  0  0  0  0  0  0  0  0
  150.9375  139.9799  154.1067 H   0  0  0  0  0  0  0  0  0  0  0  0
  150.8823  138.6519  155.2364 H   0  0  0  0  0  0  0  0  0  0  0  0
  1  2  1  0  0  0  0
  1 22  1  0  0  0  0
  1 23  1  0  0  0  0
  1 24  1  0  0  0  0
  2 21  2  0  0  0  0
  2  3  1  0  0  0  0
  3  4  2  0  0  0  0
  3 25  1  0  0  0  0
  4  5  1  0  0  0  0
  4  6  1  0  0  0  0
  5 26  1  0  0  0  0
  5 27  1  0  0  0  0
  5 28  1  0  0  0  0
  6  7  1  0  0  0  0
  6 21  1  0  0  0  0
  7  8  1  0  0  0  0
  7 29  1  0  0  0  0
  7 30  1  0  0  0  0
  8  9  2  0  0  0  0
  8 10  1  0  0  0  0
 10 11  1  0  0  0  0
 10 31  1  0  0  0  0
 11 12  1  0  0  0  0
 11 32  1  0  0  0  0
 11 33  1  0  0  0  0
 12 13  1  0  0  0  0
 12 34  1  0  0  0  0
 12 35  1  0  0  0  0
 13 20  1  0  0  0  0
 13 14  1  0  0  0  0
 14 15  1  0  0  0  0
 14 36  1  0  0  0  0
 14 37  1  0  0  0  0
 15 16  1  0  0  0  0
 15 17  1  0  0  0  0
 15 38  1  0  0  0  0
 16 39  1  0  0  0  0
 16 40  1  0  0  0  0
 16 41  1  0  0  0  0
 17 18  1  0  0  0  0
 18 19  1  0  0  0  0
 18 20  1  0  0  0  0
 18 42  1  0  0  0  0
 19 43  1  0  0  0  0
 19 44  1  0  0  0  0
 19 45  1  0  0  0  0
 20 46  1  0  0  0  0
 20 47  1  0  0  0  0
M  END
> <s_m_source_file>
AV-unprocessed.smi

> <i_m_source_file_index>
2106

> <i_lp_mmshare_version>
43012

> <i_f3d_flags>
0

> <s_epik_input>
W0NIM11jMVtjSF1jKFtDSDNdKW4objEpW0NIMl1DKD1PKVtOSF1bQ0gyXVtDSDJdTjJbQ0gyXVtDQEBIXShbQ0gzXSlPW0NAQEhdKFtDSDNdKVtDSDJdMg==

> <s_epik_cmdline>
J2VwaWtfcHl0aG9uJywgJy1waCcsICc3LjAnLCAnLXRuJywgJzgnLCAnLW1hJywgJzIwMCcsICctbWV0YWxfYmluZGluZycsICctaW1hZScsICc8aW5maWxlLm1hZT4nLCAnLW9tYWUnLCAnPG91dGZpbGUubWFlPic=

> <r_lp_tautomer_probability>
1

> <r_epik_Ionization_Penalty>
0.197284

> <r_epik_Ionization_Penalty_Charging>
0

> <r_epik_Ionization_Penalty_Neutral>
0.197284

> <r_epik_State_Penalty>
0.186684

> <r_epik_Charging_Adjusted_Penalty>
0.186684

> <i_epik_Tot_Q>
0

> <i_epik_Tot_abs_Q>
0

> <r_epik_Metal_State_Penalty>
0.186634

> <b_epik_Metal_Only>
0

> <s_lp_Force_Field>
OPLS_2005

> <r_lp_Energy>
25.1516

> <b_lp_Chiralities_Consistent>
1

> <s_lp_Variant>
AV-unprocessed.smi:2106-3

> <Gold.Version>
5.8.1

> <Gold.Id.Protein>
6NUR|6NUR_protein|mol2

> <Gold.PLP.Fitness>
48.2621

> <Gold.PLP.PLP>
-47.4040

> <Gold.PLP.part.hbond>
-1.0000

> <Gold.PLP.part.metal>
0.0000

> <Gold.PLP.part.buried>
-7.0273

> <Gold.PLP.part.nonpolar>
-41.2165

> <Gold.PLP.part.repulsive>
1.7555

> <Gold.PLP.ligand.clash>
0.0000

> <Gold.PLP.ligand.torsion>
1.0794

> <Gold.PLP.Chemscore.Hbond>
1.0000

> <Gold.PLP.Chemscore.CHOScore>
0.0000

> <Gold.PLP.Chemscore.Metal>
0.0000

> <Gold.Chemscore.Hbonds>
donor molecule, donor type, donor heavy atom, donor atom, acceptor molecule, acceptor atom, score
      P1  H  7997  8009       L1     9  1.00

> <Gold.PLP.Chemscore.Internal.Correction>
0.0169

> <Gold.Rescore>
     Score         DG    S(hbond)    S(metal)    S(lipo)     H(rot)  DE(clash)    DE(int)     intcor
     14.96     -17.99       0.95        0.00     116.36       1.67       0.28       2.75       ----

> <Gold.Chemscore.Fitness>
14.9586

> <Gold.Chemscore.DG>
-17.9910

> <Gold.Chemscore.ZeroCoef>
-5.4800

> <Gold.Chemscore.Hbond>
0.9463

> <Gold.Chemscore.Metal>
0.0000

> <Gold.Chemscore.Lipo>
116.3615

> <Gold.Chemscore.Internal_Hbond>
0.0000

> <Gold.Chemscore.DEClash>
0.2816

> <Gold.Chemscore.DEInternal>
2.7508

> <Gold.Chemscore.Rot>
1.6657

> <Gold.Chemscore.Internal.Correction>
   9.000000E+99

> <Gold.Chemscore.Hbonds>
donor molecule, donor type, donor heavy atom, donor atom, acceptor molecule, acceptor atom, score
      P1  H  7997  8009       L1     9  0.55

> <Gold.Chemscore.Hbond.Weighted>
-3.1608

> <Gold.Chemscore.Metal.Weighted>
-0.0000

> <Gold.Chemscore.Lipo.Weighted>
-13.6143

> <Gold.Chemscore.Internal_Hbond.Weighted>
0.0000

> <Gold.Chemscore.DEClash.Weighted>
0.2816

> <Gold.Chemscore.DEInternal.Weighted>
2.7508

> <Gold.Chemscore.Rot.Weighted>
4.2641

> <Gold.Chemscore.Internal.Correction.Weighted>
   9.000000E+99

> <Gold.Protein.RotatedTorsions>
[ 6907 6896 6895 6894 ] final    0.57 input  -60.11 | X-H torsion
[ 7974 7965 7964 7962 ] final  -73.85 input  175.53 | X-H torsion
[ 8008 7997 7996 7995 ] final  134.92 input   59.86 | X-H torsion
[ 10167 10162 10161 10158 ] final   25.10 input  -65.29 | X-H torsion
[ 10718 10713 10712 10709 ] final -165.15 input   66.30 | X-H torsion
[ 10763 10752 10751 10750 ] final -165.72 input  -60.55 | X-H torsion
[ 11005 11000 10999 10996 ] final  -89.79 input  -57.11 | X-H torsion

> <Gold.Protein.ActiveResidues>
 VAL166  LYS551  ARG553  GLY616  TRP617  ASP618  TYR619  PRO620  LYS621  CYS622 
 ASP623  PHE694  ASN695  SER759  ASP760  ASP761  ALA762  ILE779  LEU786  VAL792 
 PHE793  MET794  SER795  GLU796  ALA797  LYS798  CYS799  TRP800  GLU811  SER814 

> <Gold.Protein.RotatedAtoms>
  151.5786  135.1059  160.0011 H   0  0  0  0  0  0  0  0  0  0  0  0  # atno 6907 bound_to 6896
  152.4365  133.7367  159.6628 H   0  0  0  0  0  0  0  0  0  0  0  0  # atno 6908 bound_to 6896
  150.8264  133.8095  159.3140 H   0  0  0  0  0  0  0  0  0  0  0  0  # atno 6909 bound_to 6896
  145.6467  140.9295  143.1006 H   0  0  0  0  0  0  0  0  0  0  0  0  # atno 7974 bound_to 7965
  156.3001  140.2484  156.3496 H   0  0  0  0  0  0  0  0  0  0  0  0  # atno 8008 bound_to 7997
  154.8978  140.0407  157.1895 H   0  0  0  0  0  0  0  0  0  0  0  0  # atno 8009 bound_to 7997
  154.8532  140.2909  155.5589 H   0  0  0  0  0  0  0  0  0  0  0  0  # atno 8010 bound_to 7997
  140.5134  144.0122  150.6383 H   0  0  0  0  0  0  0  0  0  0  0  0  # atno 10167 bound_to 10162
  156.6493  130.9001  151.3010 H   0  0  0  0  0  0  0  0  0  0  0  0  # atno 10718 bound_to 10713
  154.6904  135.2969  154.9488 H   0  0  0  0  0  0  0  0  0  0  0  0  # atno 10763 bound_to 10752
  154.0453  135.6652  153.4798 H   0  0  0  0  0  0  0  0  0  0  0  0  # atno 10764 bound_to 10752
  153.0608  135.5117  154.7993 H   0  0  0  0  0  0  0  0  0  0  0  0  # atno 10765 bound_to 10752
  141.1578  133.7652  156.9645 H   0  0  0  0  0  0  0  0  0  0  0  0  # atno 11005 bound_to 11000
  144.7137  139.8274  143.7406 LP  0  0  0  0  0  0  0  0  0  0  0  0  # atno 17320 bound_to 7965
  146.1237  139.4259  143.0212 LP  0  0  0  0  0  0  0  0  0  0  0  0  # atno 17321 bound_to 7965
  140.3451  143.2996  152.0546 LP  0  0  0  0  0  0  0  0  0  0  0  0  # atno 17342 bound_to 10162
  139.4902  144.6414  151.6869 LP  0  0  0  0  0  0  0  0  0  0  0  0  # atno 17343 bound_to 10162
  157.7146  130.9481  150.1209 LP  0  0  0  0  0  0  0  0  0  0  0  0  # atno 17370 bound_to 10713
  156.2097  130.3666  149.8685 LP  0  0  0  0  0  0  0  0  0  0  0  0  # atno 17371 bound_to 10713
  140.1171  134.9440  157.2149 LP  0  0  0  0  0  0  0  0  0  0  0  0  # atno 17394 bound_to 11000
  140.3120  134.3013  155.7265 LP  0  0  0  0  0  0  0  0  0  0  0  0  # atno 17395 bound_to 11000

$$$$
