AV-unprocessed.smi:103|AV-procd|sdf|983|dock2
  -GOLD-   2262017553D 1   1.00000     0.00000
 Structure written by MMmdl.
 53 55  0  0  0  0  0  0  0  0  1 V2000
  154.6277  133.8609  158.6180 C   0  0  0  0  0  0  0  0  0  0  0  0
  154.2715  135.0978  157.8041 C   0  0  0  0  0  0  0  0  0  0  0  0
  154.9305  135.4330  156.8198 O   0  0  0  0  0  0  0  0  0  0  0  0
  153.1961  135.7343  158.2893 O   0  0  0  0  0  0  0  0  0  0  0  0
  152.7259  136.9121  157.6546 C   0  0  0  0  0  0  0  0  0  0  0  0
  151.6860  137.5921  158.5524 C   0  0  2  0  0  0  0  0  0  0  0  0
  150.7224  136.6400  158.9741 O   0  0  0  0  0  0  0  0  0  0  0  0
  149.5305  137.2882  159.2875 C   0  0  2  0  0  0  0  0  0  0  0  0
  148.4044  136.4431  158.7664 N   0  0  0  0  0  0  0  0  0  0  0  0
  147.3711  135.8269  159.4444 C   0  0  0  0  0  0  0  0  0  0  0  0
  147.0637  135.8918  161.2065 S   0  0  0  0  0  0  0  0  0  0  0  0
  147.1586  134.1171  161.6805 C   0  0  0  0  0  0  0  0  0  0  0  0
  148.1945  136.6114  161.8136 O   0  0  0  0  0  0  0  0  0  0  0  0
  145.6866  136.3745  161.3898 O   0  0  0  0  0  0  0  0  0  0  0  0
  146.4904  135.1920  158.7192 N   0  0  0  0  0  0  0  0  0  0  0  0
  146.9660  135.3595  157.4268 C   0  0  0  0  0  0  0  0  0  0  0  0
  146.5180  134.9377  156.1496 C   0  0  0  0  0  0  0  0  0  0  0  0
  145.4143  134.1989  155.9686 N   0  0  0  0  0  0  0  0  0  0  0  0
  147.2357  135.2994  155.0606 N   0  0  0  0  0  0  0  0  0  0  0  0
  148.3387  136.0392  155.2140 C   0  0  0  0  0  0  0  0  0  0  0  0
  148.8807  136.5063  156.3416 N   0  0  0  0  0  0  0  0  0  0  0  0
  148.1593  136.1369  157.4412 C   0  0  0  0  0  0  0  0  0  0  0  0
  149.5662  138.6917  158.6442 C   0  0  2  0  0  0  0  0  0  0  0  0
  148.4452  138.9318  157.7980 O   0  0  0  0  0  0  0  0  0  0  0  0
  147.2075  139.0007  158.3099 C   0  0  0  0  0  0  0  0  0  0  0  0
  146.1655  139.3426  157.2539 C   0  0  0  0  0  0  0  0  0  0  0  0
  146.8971  138.8157  159.4866 O   0  0  0  0  0  0  0  0  0  0  0  0
  150.8618  138.6699  157.8472 C   0  0  1  0  0  0  0  0  0  0  0  0
  151.4922  139.9418  157.9397 O   0  0  0  0  0  0  0  0  0  0  0  0
  151.6328  140.7170  156.8504 C   0  0  0  0  0  0  0  0  0  0  0  0
  151.6353  142.2004  157.1926 C   0  0  0  0  0  0  0  0  0  0  0  0
  151.7581  140.3263  155.6900 O   0  0  0  0  0  0  0  0  0  0  0  0
  153.9390  133.0476  158.3895 H   0  0  0  0  0  0  0  0  0  0  0  0
  154.5677  134.0772  159.6850 H   0  0  0  0  0  0  0  0  0  0  0  0
  155.6415  133.5316  158.3896 H   0  0  0  0  0  0  0  0  0  0  0  0
  153.5474  137.6000  157.4473 H   0  0  0  0  0  0  0  0  0  0  0  0
  152.2770  136.6409  156.6984 H   0  0  0  0  0  0  0  0  0  0  0  0
  152.1571  137.9981  159.4496 H   0  0  0  0  0  0  0  0  0  0  0  0
  149.4043  137.3292  160.3658 H   0  0  0  0  0  0  0  0  0  0  0  0
  147.0370  134.0240  162.7593 H   0  0  0  0  0  0  0  0  0  0  0  0
  148.1282  133.7143  161.3882 H   0  0  0  0  0  0  0  0  0  0  0  0
  146.3688  133.5587  161.1806 H   0  0  0  0  0  0  0  0  0  0  0  0
  144.8604  133.9180  156.7651 H   0  0  0  0  0  0  0  0  0  0  0  0
  145.1427  133.9182  155.0377 H   0  0  0  0  0  0  0  0  0  0  0  0
  148.8618  136.2931  154.3038 H   0  0  0  0  0  0  0  0  0  0  0  0
  149.6223  139.4147  159.4600 H   0  0  0  0  0  0  0  0  0  0  0  0
  146.1699  138.5934  156.4621 H   0  0  0  0  0  0  0  0  0  0  0  0
  146.3807  140.3156  156.8122 H   0  0  0  0  0  0  0  0  0  0  0  0
  145.1689  139.3754  157.6946 H   0  0  0  0  0  0  0  0  0  0  0  0
  150.6509  138.3633  156.8213 H   0  0  0  0  0  0  0  0  0  0  0  0
  150.8660  142.4227  157.9323 H   0  0  0  0  0  0  0  0  0  0  0  0
  151.4400  142.7983  156.3024 H   0  0  0  0  0  0  0  0  0  0  0  0
  152.6038  142.4915  157.5996 H   0  0  0  0  0  0  0  0  0  0  0  0
  1  2  1  0  0  0  0
  1 33  1  0  0  0  0
  1 34  1  0  0  0  0
  1 35  1  0  0  0  0
  2  3  2  0  0  0  0
  2  4  1  0  0  0  0
  4  5  1  0  0  0  0
  5  6  1  0  0  0  0
  5 36  1  0  0  0  0
  5 37  1  0  0  0  0
  6 28  1  0  0  0  0
  6  7  1  0  0  0  0
  6 38  1  0  0  0  0
  7  8  1  0  0  0  0
  8  9  1  0  0  0  0
  8 23  1  0  0  0  0
  8 39  1  0  0  0  0
  9 22  1  0  0  0  0
  9 10  1  0  0  0  0
 10 11  1  0  0  0  0
 10 15  2  0  0  0  0
 11 12  1  0  0  0  0
 11 13  2  0  0  0  0
 11 14  2  0  0  0  0
 12 40  1  0  0  0  0
 12 41  1  0  0  0  0
 12 42  1  0  0  0  0
 15 16  1  0  0  0  0
 16 22  2  0  0  0  0
 16 17  1  0  0  0  0
 17 18  1  0  0  0  0
 17 19  2  0  0  0  0
 18 43  1  0  0  0  0
 18 44  1  0  0  0  0
 19 20  1  0  0  0  0
 20 21  2  0  0  0  0
 20 45  1  0  0  0  0
 21 22  1  0  0  0  0
 23 24  1  0  0  0  0
 23 28  1  0  0  0  0
 23 46  1  0  0  0  0
 24 25  1  0  0  0  0
 25 26  1  0  0  0  0
 25 27  2  0  0  0  0
 26 47  1  0  0  0  0
 26 48  1  0  0  0  0
 26 49  1  0  0  0  0
 28 29  1  0  0  0  0
 28 50  1  0  0  0  0
 29 30  1  0  0  0  0
 30 31  1  0  0  0  0
 30 32  2  0  0  0  0
 31 51  1  0  0  0  0
 31 52  1  0  0  0  0
 31 53  1  0  0  0  0
M  END
> <s_m_source_file>
AV-unprocessed.smi

> <i_m_source_file_index>
103

> <i_lp_mmshare_version>
43012

> <i_f3d_flags>
0

> <s_epik_input>
W0NIM11DKD1PKU9bQ0gyXVtDQEBIXTFPW0NASF0oW0NAQEhdKE9DKD1PKVtDSDNdKVtDQEhdMU9DKD1PKVtDSDNdKW4oYyhuMilTKD1PKSg9TylbQ0gzXSljKGMyMyluW2NIXW5jM1tOSDJd

> <s_epik_cmdline>
J2VwaWtfcHl0aG9uJywgJy1waCcsICc3LjAnLCAnLXRuJywgJzgnLCAnLW1hJywgJzIwMCcsICctbWV0YWxfYmluZGluZycsICctaW1hZScsICc8aW5maWxlLm1hZT4nLCAnLW9tYWUnLCAnPG91dGZpbGUubWFlPic=

> <r_lp_tautomer_probability>
1

> <r_epik_Ionization_Penalty>
1.51338e-05

> <r_epik_Ionization_Penalty_Charging>
0

> <r_epik_Ionization_Penalty_Neutral>
1.51338e-05

> <r_epik_State_Penalty>
-0

> <r_epik_Charging_Adjusted_Penalty>
0

> <i_epik_Tot_Q>
0

> <i_epik_Tot_abs_Q>
0

> <r_epik_Metal_State_Penalty>
-0

> <b_epik_Metal_Only>
0

> <s_epik_Chemistry_Notes>
This compound has an ester and may undergo hydrolysis at high or low pH. This compound contains an acetal/aminal-like group ( X-CH(R)-Y where X, Y are N, S, or O) that may be acid/base labile, releasing an aldehyde.

> <s_lp_Force_Field>
OPLS_2005

> <r_lp_Energy>
14.5233

> <b_lp_Chiralities_Consistent>
1

> <s_lp_Variant>
AV-unprocessed.smi:103-7

> <Gold.Version>
5.8.1

> <Gold.Id.Protein>
6NUR|6NUR_protein|mol2

> <Gold.PLP.Fitness>
44.6720

> <Gold.PLP.PLP>
-30.4055

> <Gold.PLP.part.hbond>
-5.6039

> <Gold.PLP.part.metal>
0.0000

> <Gold.PLP.part.buried>
-7.3439

> <Gold.PLP.part.nonpolar>
-17.1484

> <Gold.PLP.part.repulsive>
0.1181

> <Gold.PLP.ligand.clash>
0.0000

> <Gold.PLP.ligand.torsion>
2.2981

> <Gold.PLP.Chemscore.Hbond>
4.5120

> <Gold.PLP.Chemscore.CHOScore>
1.0000

> <Gold.PLP.Chemscore.Metal>
0.0000

> <Gold.Chemscore.Hbonds>
donor molecule, donor type, donor heavy atom, donor atom, acceptor molecule, acceptor atom, score
      P1  H  6896  6907       L1     7  1.00
      P1  H  6931  6943       L1    13  1.00
      P1  H  6934  6947       L1    27  0.17
      P1  H  7989  7998       L1    32  0.36
      P1  H 10752 10763       L1     3  1.00
      L1  C    20    45       P1  7948  1.00

> <Gold.PLP.Chemscore.Internal.Correction>
2.3266

> <Gold.Rescore>
     Score         DG    S(hbond)    S(metal)    S(lipo)     H(rot)  DE(clash)    DE(int)     intcor
      6.23     -12.08       4.07        0.00      33.12       4.25       0.09       5.76       ----

> <Gold.Chemscore.Fitness>
6.2334

> <Gold.Chemscore.DG>
-12.0798

> <Gold.Chemscore.ZeroCoef>
-5.4800

> <Gold.Chemscore.Hbond>
4.0698

> <Gold.Chemscore.Metal>
0.0000

> <Gold.Chemscore.Lipo>
33.1225

> <Gold.Chemscore.Internal_Hbond>
0.0000

> <Gold.Chemscore.DEClash>
0.0901

> <Gold.Chemscore.DEInternal>
5.7563

> <Gold.Chemscore.Rot>
4.2456

> <Gold.Chemscore.Internal.Correction>
   9.000000E+99

> <Gold.Chemscore.Hbonds>
donor molecule, donor type, donor heavy atom, donor atom, acceptor molecule, acceptor atom, score
      P1  H  6896  6907       L1     7  0.95
      P1  H  6931  6943       L1    13  1.00
      P1  H  6934  6947       L1    27  0.17
      P1  H  7989  7998       L1    32  0.35
      P1  H 10752 10763       L1     3  0.99

> <Gold.Chemscore.Hbond.Weighted>
-13.5931

> <Gold.Chemscore.Metal.Weighted>
-0.0000

> <Gold.Chemscore.Lipo.Weighted>
-3.8753

> <Gold.Chemscore.Internal_Hbond.Weighted>
0.0000

> <Gold.Chemscore.DEClash.Weighted>
0.0901

> <Gold.Chemscore.DEInternal.Weighted>
5.7563

> <Gold.Chemscore.Rot.Weighted>
10.8687

> <Gold.Chemscore.Internal.Correction.Weighted>
   9.000000E+99

> <Gold.Protein.RotatedTorsions>
[ 6907 6896 6895 6894 ] final  -27.53 input  -60.11 | X-H torsion
[ 7974 7965 7964 7962 ] final  -35.98 input  175.53 | X-H torsion
[ 8008 7997 7996 7995 ] final   94.09 input   59.86 | X-H torsion
[ 10167 10162 10161 10158 ] final   29.40 input  -65.29 | X-H torsion
[ 10718 10713 10712 10709 ] final   -8.76 input   66.30 | X-H torsion
[ 10763 10752 10751 10750 ] final  167.98 input  -60.55 | X-H torsion
[ 11005 11000 10999 10996 ] final   44.19 input  -57.11 | X-H torsion

> <Gold.Protein.ActiveResidues>
 VAL166  LYS551  ARG553  GLY616  TRP617  ASP618  TYR619  PRO620  LYS621  CYS622 
 ASP623  PHE694  ASN695  SER759  ASP760  ASP761  ALA762  ILE779  LEU786  VAL792 
 PHE793  MET794  SER795  GLU796  ALA797  LYS798  CYS799  TRP800  GLU811  SER814 

> <Gold.Protein.RotatedAtoms>
  151.1456  135.0201  159.8644 H   0  0  0  0  0  0  0  0  0  0  0  0  # atno 6907 bound_to 6896
  152.5453  134.1449  159.8504 H   0  0  0  0  0  0  0  0  0  0  0  0  # atno 6908 bound_to 6896
  151.1529  133.4850  159.2628 H   0  0  0  0  0  0  0  0  0  0  0  0  # atno 6909 bound_to 6896
  146.0700  140.6224  142.8957 H   0  0  0  0  0  0  0  0  0  0  0  0  # atno 7974 bound_to 7965
  156.0540  140.3304  155.7384 H   0  0  0  0  0  0  0  0  0  0  0  0  # atno 8008 bound_to 7997
  155.5557  140.0614  157.2857 H   0  0  0  0  0  0  0  0  0  0  0  0  # atno 8009 bound_to 7997
  154.4449  140.1886  156.0720 H   0  0  0  0  0  0  0  0  0  0  0  0  # atno 8010 bound_to 7997
  140.4769  144.0677  150.6253 H   0  0  0  0  0  0  0  0  0  0  0  0  # atno 10167 bound_to 10162
  156.6979  130.5084  149.5925 H   0  0  0  0  0  0  0  0  0  0  0  0  # atno 10718 bound_to 10713
  154.3618  135.2753  155.2315 H   0  0  0  0  0  0  0  0  0  0  0  0  # atno 10763 bound_to 10752
  154.4500  135.5933  153.6189 H   0  0  0  0  0  0  0  0  0  0  0  0  # atno 10764 bound_to 10752
  152.9843  135.6039  154.3840 H   0  0  0  0  0  0  0  0  0  0  0  0  # atno 10765 bound_to 10752
  140.1575  134.4383  155.8340 H   0  0  0  0  0  0  0  0  0  0  0  0  # atno 11005 bound_to 11000
  144.7226  140.4422  143.6997 LP  0  0  0  0  0  0  0  0  0  0  0  0  # atno 17320 bound_to 7965
  145.6408  139.1549  143.2917 LP  0  0  0  0  0  0  0  0  0  0  0  0  # atno 17321 bound_to 7965
  140.3907  143.2754  152.0063 LP  0  0  0  0  0  0  0  0  0  0  0  0  # atno 17342 bound_to 10162
  139.4827  144.6079  151.7487 LP  0  0  0  0  0  0  0  0  0  0  0  0  # atno 17343 bound_to 10162
  156.1750  130.6462  151.0884 LP  0  0  0  0  0  0  0  0  0  0  0  0  # atno 17370 bound_to 10713
  157.6984  131.0785  150.6896 LP  0  0  0  0  0  0  0  0  0  0  0  0  # atno 17371 bound_to 10713
  141.2206  133.6899  156.7534 LP  0  0  0  0  0  0  0  0  0  0  0  0  # atno 17394 bound_to 11000
  140.2530  134.8526  157.3685 LP  0  0  0  0  0  0  0  0  0  0  0  0  # atno 17395 bound_to 11000

$$$$
