AV-unprocessed.smi:1042|AV-procd|sdf|4538|dock7
  -GOLD-   22720 2563D 1   1.00000     0.00000
 Structure written by MMmdl.
 40 42  0  0  0  0  0  0  0  0  2 V2000
  146.0244  137.2189  154.5461 O   0  0  0  0  0  0  0  0  0  0  0  0
  145.3559  138.0604  153.9454 C   0  0  0  0  0  0  0  0  0  0  0  0
  144.1090  137.8342  153.5064 N   0  0  0  0  0  0  0  0  0  0  0  0
  143.3796  136.5792  153.6603 C   0  0  0  0  0  0  0  0  0  0  0  0
  143.9745  135.4432  152.8049 C   0  0  2  0  0  0  0  0  0  0  0  0
  144.5697  135.9091  151.4798 C   0  0  0  0  0  0  0  0  0  0  0  0
  144.6322  134.6139  150.6750 C   0  0  0  0  0  0  0  0  0  0  0  0
  143.4275  133.8497  151.0641 N   0  3  1  0  0  0  0  0  0  0  0  0
  143.6066  132.3829  151.0139 C   0  0  0  0  0  0  0  0  0  0  0  0
  144.9682  131.9236  151.4779 C   0  0  0  0  0  0  0  0  0  0  0  0
  144.6339  131.9358  150.0017 C   0  0  0  0  0  0  0  0  0  0  0  0
  142.9719  134.3600  152.3788 C   0  0  0  0  0  0  0  0  0  0  0  0
  145.7605  139.3065  153.6428 N   0  0  0  0  0  0  0  0  0  0  0  0
  146.9948  139.9308  153.9657 C   0  0  0  0  0  0  0  0  0  0  0  0
  148.1178  139.0729  153.9641 C   0  0  0  0  0  0  0  0  0  0  0  0
  149.3895  139.5958  154.2695 C   0  0  0  0  0  0  0  0  0  0  0  0
  149.5058  140.9654  154.5659 C   0  0  0  0  0  0  0  0  0  0  0  0
  148.3380  141.7500  154.5438 C   0  0  0  0  0  0  0  0  0  0  0  0
  147.1182  141.2507  154.2524 N   0  0  0  0  0  0  0  0  0  0  0  0
  143.6361  138.5787  153.0151 H   0  0  0  0  0  0  0  0  0  0  0  0
  143.4038  136.3051  154.7154 H   0  0  0  0  0  0  0  0  0  0  0  0
  142.3295  136.7327  153.4060 H   0  0  0  0  0  0  0  0  0  0  0  0
  144.7752  134.9565  153.3647 H   0  0  0  0  0  0  0  0  0  0  0  0
  143.9032  136.6210  150.9902 H   0  0  0  0  0  0  0  0  0  0  0  0
  145.5454  136.3822  151.5957 H   0  0  0  0  0  0  0  0  0  0  0  0
  144.6654  134.7876  149.5992 H   0  0  0  0  0  0  0  0  0  0  0  0
  145.5295  134.0582  150.9530 H   0  0  0  0  0  0  0  0  0  0  0  0
  142.7223  131.7784  151.2092 H   0  0  0  0  0  0  0  0  0  0  0  0
  145.6692  132.6731  151.8412 H   0  0  0  0  0  0  0  0  0  0  0  0
  145.0312  130.9533  151.9666 H   0  0  0  0  0  0  0  0  0  0  0  0
  144.4776  130.9735  149.5186 H   0  0  0  0  0  0  0  0  0  0  0  0
  145.1124  132.6936  149.3837 H   0  0  0  0  0  0  0  0  0  0  0  0
  142.8977  133.5725  153.1308 H   0  0  0  0  0  0  0  0  0  0  0  0
  141.9744  134.7812  152.2471 H   0  0  0  0  0  0  0  0  0  0  0  0
  145.1090  139.8781  153.1259 H   0  0  0  0  0  0  0  0  0  0  0  0
  148.0112  138.0228  153.7336 H   0  0  0  0  0  0  0  0  0  0  0  0
  150.2600  138.9565  154.2754 H   0  0  0  0  0  0  0  0  0  0  0  0
  150.4638  141.4031  154.8043 H   0  0  0  0  0  0  0  0  0  0  0  0
  148.3840  142.8058  154.7659 H   0  0  0  0  0  0  0  0  0  0  0  0
  142.7033  134.0887  150.4019 H   0  0  0  0  0  0  0  0  0  0  0  0
  1  2  2  0  0  0  0
  2  3  1  0  0  0  0
  2 13  1  0  0  0  0
  3  4  1  0  0  0  0
  3 20  1  0  0  0  0
  4  5  1  0  0  0  0
  4 21  1  0  0  0  0
  4 22  1  0  0  0  0
  5 12  1  0  0  0  0
  5  6  1  0  0  0  0
  5 23  1  0  0  0  0
  6  7  1  0  0  0  0
  6 24  1  0  0  0  0
  6 25  1  0  0  0  0
  7  8  1  0  0  0  0
  7 26  1  0  0  0  0
  7 27  1  0  0  0  0
  8  9  1  0  0  0  0
  8 12  1  0  0  0  0
  8 40  1  0  0  0  0
  9 11  1  0  0  0  0
  9 10  1  0  0  0  0
  9 28  1  0  0  0  0
 10 11  1  0  0  0  0
 10 29  1  0  0  0  0
 10 30  1  0  0  0  0
 11 31  1  0  0  0  0
 11 32  1  0  0  0  0
 12 33  1  0  0  0  0
 12 34  1  0  0  0  0
 13 14  1  0  0  0  0
 13 35  1  0  0  0  0
 14 19  1  0  0  0  0
 14 15  2  0  0  0  0
 15 16  1  0  0  0  0
 15 36  1  0  0  0  0
 16 17  2  0  0  0  0
 16 37  1  0  0  0  0
 17 18  1  0  0  0  0
 17 38  1  0  0  0  0
 18 19  2  0  0  0  0
 18 39  1  0  0  0  0
M  CHG  1   8   1
M  END
> <s_m_source_file>
AV-unprocessed.smi

> <i_m_source_file_index>
1042

> <i_lp_mmshare_version>
43012

> <i_f3d_flags>
0

> <s_epik_input>
bjFbY0hdW2NIXVtjSF1bY0hdYzFbTkhdQyg9TylbTkhdW0NIMl1bQ0BASF0yW0NIMl1bQ0gyXU4oW0NIMl0yKVtDSF0zW0NIMl1bQ0gyXTM=

> <s_epik_cmdline>
J2VwaWtfcHl0aG9uJywgJy1waCcsICc3LjAnLCAnLXRuJywgJzgnLCAnLW1hJywgJzIwMCcsICctbWV0YWxfYmluZGluZycsICctaW1hZScsICc8aW5maWxlLm1hZT4nLCAnLW9tYWUnLCAnPG91dGZpbGUubWFlPic=

> <r_lp_tautomer_probability>
1

> <r_epik_Ionization_Penalty>
0.000244736

> <r_epik_Ionization_Penalty_Charging>
0.000203384

> <r_epik_Ionization_Penalty_Neutral>
4.13519e-05

> <r_epik_State_Penalty>
-0

> <r_epik_Charging_Adjusted_Penalty>
0.000203384

> <i_epik_Tot_Q>
1

> <i_epik_Tot_abs_Q>
1

> <r_epik_Metal_State_Penalty>
-0

> <b_epik_Metal_Only>
0

> <s_lp_Force_Field>
OPLS_2005

> <r_lp_Energy>
38.555

> <b_lp_Chiralities_Consistent>
1

> <s_lp_Variant>
AV-unprocessed.smi:1042-3

> <Gold.Version>
5.8.1

> <Gold.Id.Protein>
6NUR|6NUR_protein|mol2

> <Gold.PLP.Fitness>
47.6555

> <Gold.PLP.PLP>
-33.8758

> <Gold.PLP.part.hbond>
-3.0000

> <Gold.PLP.part.metal>
0.0000

> <Gold.PLP.part.buried>
-3.4340

> <Gold.PLP.part.nonpolar>
-27.6568

> <Gold.PLP.part.repulsive>
0.2119

> <Gold.PLP.ligand.clash>
0.0000

> <Gold.PLP.ligand.torsion>
1.2280

> <Gold.PLP.Chemscore.Hbond>
3.9920

> <Gold.PLP.Chemscore.CHOScore>
1.0000

> <Gold.PLP.Chemscore.Metal>
0.0000

> <Gold.Chemscore.Hbonds>
donor molecule, donor type, donor heavy atom, donor atom, acceptor molecule, acceptor atom, score
      L1  H     3    20       P1 10175  0.96
      L1  H     8    40       P1 10186  2.00
      L1  H    13    35       P1 10175  1.00
      L1  C    18    39       P1  8028  1.00

> <Gold.PLP.Chemscore.Internal.Correction>
1.2596

> <Gold.Rescore>
     Score         DG    S(hbond)    S(metal)    S(lipo)     H(rot)  DE(clash)    DE(int)     intcor
     17.88     -20.76       2.92        0.00      79.37       1.47       0.60       2.28       ----

> <Gold.Chemscore.Fitness>
17.8805

> <Gold.Chemscore.DG>
-20.7628

> <Gold.Chemscore.ZeroCoef>
-5.4800

> <Gold.Chemscore.Hbond>
2.9226

> <Gold.Chemscore.Metal>
0.0000

> <Gold.Chemscore.Lipo>
79.3697

> <Gold.Chemscore.Internal_Hbond>
0.0000

> <Gold.Chemscore.DEClash>
0.6020

> <Gold.Chemscore.DEInternal>
2.2803

> <Gold.Chemscore.Rot>
1.4707

> <Gold.Chemscore.Internal.Correction>
   9.000000E+99

> <Gold.Chemscore.Hbonds>
donor molecule, donor type, donor heavy atom, donor atom, acceptor molecule, acceptor atom, score
      L1  H     3    20       P1 10175  0.92
      L1  H     8    40       P1 10186  0.88
      L1  H    13    35       P1 10175  1.00

> <Gold.Chemscore.Hbond.Weighted>
-9.7616

> <Gold.Chemscore.Metal.Weighted>
-0.0000

> <Gold.Chemscore.Lipo.Weighted>
-9.2863

> <Gold.Chemscore.Internal_Hbond.Weighted>
0.0000

> <Gold.Chemscore.DEClash.Weighted>
0.6020

> <Gold.Chemscore.DEInternal.Weighted>
2.2803

> <Gold.Chemscore.Rot.Weighted>
3.7650

> <Gold.Chemscore.Internal.Correction.Weighted>
   9.000000E+99

> <Gold.Protein.RotatedTorsions>
[ 6907 6896 6895 6894 ] final  109.46 input  -60.11 | X-H torsion
[ 7974 7965 7964 7962 ] final   30.72 input  175.53 | X-H torsion
[ 8008 7997 7996 7995 ] final   48.34 input   59.86 | X-H torsion
[ 10167 10162 10161 10158 ] final -154.07 input  -65.29 | X-H torsion
[ 10718 10713 10712 10709 ] final  102.35 input   66.30 | X-H torsion
[ 10763 10752 10751 10750 ] final -150.69 input  -60.55 | X-H torsion
[ 11005 11000 10999 10996 ] final -177.39 input  -57.11 | X-H torsion

> <Gold.Protein.ActiveResidues>
 VAL166  LYS551  ARG553  GLY616  TRP617  ASP618  TYR619  PRO620  LYS621  CYS622 
 ASP623  PHE694  ASN695  SER759  ASP760  ASP761  ALA762  ILE779  LEU786  VAL792 
 PHE793  MET794  SER795  GLU796  ALA797  LYS798  CYS799  TRP800  GLU811  SER814 

> <Gold.Protein.RotatedAtoms>
  152.5066  133.8941  159.7408 H   0  0  0  0  0  0  0  0  0  0  0  0  # atno 6907 bound_to 6896
  150.9373  133.6689  159.2805 H   0  0  0  0  0  0  0  0  0  0  0  0  # atno 6908 bound_to 6896
  151.4012  135.0976  159.9609 H   0  0  0  0  0  0  0  0  0  0  0  0  # atno 6909 bound_to 6896
  146.1594  139.6751  142.9044 H   0  0  0  0  0  0  0  0  0  0  0  0  # atno 7974 bound_to 7965
  155.3840  140.3430  155.4248 H   0  0  0  0  0  0  0  0  0  0  0  0  # atno 8008 bound_to 7997
  156.1595  140.1596  156.8670 H   0  0  0  0  0  0  0  0  0  0  0  0  # atno 8009 bound_to 7997
  154.5126  140.0786  156.8001 H   0  0  0  0  0  0  0  0  0  0  0  0  # atno 8010 bound_to 7997
  139.7044  143.9210  152.2442 H   0  0  0  0  0  0  0  0  0  0  0  0  # atno 10167 bound_to 10162
  157.6804  131.0750  150.5390 H   0  0  0  0  0  0  0  0  0  0  0  0  # atno 10718 bound_to 10713
  154.8103  135.3278  154.7322 H   0  0  0  0  0  0  0  0  0  0  0  0  # atno 10763 bound_to 10752
  153.7972  135.6906  153.4866 H   0  0  0  0  0  0  0  0  0  0  0  0  # atno 10764 bound_to 10752
  153.1877  135.4562  155.0056 H   0  0  0  0  0  0  0  0  0  0  0  0  # atno 10765 bound_to 10752
  140.4414  134.6428  157.4759 H   0  0  0  0  0  0  0  0  0  0  0  0  # atno 11005 bound_to 11000
  145.4626  141.0433  143.2743 LP  0  0  0  0  0  0  0  0  0  0  0  0  # atno 17320 bound_to 7965
  144.8007  139.6147  143.7073 LP  0  0  0  0  0  0  0  0  0  0  0  0  # atno 17321 bound_to 7965
  139.9062  144.6883  150.8612 LP  0  0  0  0  0  0  0  0  0  0  0  0  # atno 17342 bound_to 10162
  140.7718  143.3477  151.2077 LP  0  0  0  0  0  0  0  0  0  0  0  0  # atno 17343 bound_to 10162
  156.5698  130.4277  149.6025 LP  0  0  0  0  0  0  0  0  0  0  0  0  # atno 17370 bound_to 10713
  156.2750  130.7039  151.1847 LP  0  0  0  0  0  0  0  0  0  0  0  0  # atno 17371 bound_to 10713
  140.0067  134.6752  155.9444 LP  0  0  0  0  0  0  0  0  0  0  0  0  # atno 17394 bound_to 11000
  141.1704  133.6537  156.4630 LP  0  0  0  0  0  0  0  0  0  0  0  0  # atno 17395 bound_to 11000

$$$$
