AV-unprocessed.smi:699|AV-procd|sdf|3406|dock8
  -GOLD-   22720 0383D 1   1.00000     0.00000
 Structure written by MMmdl.
 35 36  0  0  0  0  0  0  0  0  2 V2000
  145.3219  132.7340  153.8691 N   0  0  0  0  0  0  0  0  0  0  0  0
  146.3440  133.1285  153.1056 C   0  0  0  0  0  0  0  0  0  0  0  0
  147.4744  132.6635  153.2382 O   0  0  0  0  0  0  0  0  0  0  0  0
  146.0510  134.1984  152.0428 C   0  0  1  0  0  0  0  0  0  0  0  0
  144.9904  133.7591  151.0229 C   0  0  0  0  0  0  0  0  0  0  0  0
  144.4097  135.0679  150.4963 C   0  0  0  0  0  0  0  0  0  0  0  0
  144.3701  135.9862  151.7172 C   0  0  0  0  0  0  0  0  0  0  0  0
  145.5118  135.5205  152.6433 C   0  0  2  0  0  0  0  0  0  0  0  0
  146.5761  136.5176  152.7469 N   0  0  0  0  0  0  0  0  0  0  0  0
  146.4628  137.7065  153.3560 C   0  0  0  0  0  0  0  0  0  0  0  0
  145.4257  138.0982  153.8900 O   0  0  0  0  0  0  0  0  0  0  0  0
  147.6119  138.4011  153.2842 N   0  0  0  0  0  0  0  0  0  0  0  0
  147.9080  139.6920  153.8025 C   0  0  0  0  0  0  0  0  0  0  0  0
  146.9118  140.6862  153.6791 C   0  0  0  0  0  0  0  0  0  0  0  0
  147.1605  141.9863  154.1647 C   0  0  0  0  0  0  0  0  0  0  0  0
  148.3499  142.2747  154.7345 N   0  3  0  0  0  0  0  0  0  0  0  0
  149.3377  141.3631  154.8631 C   0  0  0  0  0  0  0  0  0  0  0  0
  149.1467  140.0463  154.3966 C   0  0  0  0  0  0  0  0  0  0  0  0
  145.4721  132.0346  154.5819 H   0  0  0  0  0  0  0  0  0  0  0  0
  144.4054  133.1355  153.7355 H   0  0  0  0  0  0  0  0  0  0  0  0
  146.9662  134.4064  151.4844 H   0  0  0  0  0  0  0  0  0  0  0  0
  145.4132  133.1515  150.2221 H   0  0  0  0  0  0  0  0  0  0  0  0
  144.2001  133.1758  151.4984 H   0  0  0  0  0  0  0  0  0  0  0  0
  145.0774  135.4881  149.7430 H   0  0  0  0  0  0  0  0  0  0  0  0
  143.4292  134.9385  150.0372 H   0  0  0  0  0  0  0  0  0  0  0  0
  144.4394  137.0375  151.4347 H   0  0  0  0  0  0  0  0  0  0  0  0
  143.4177  135.8577  152.2331 H   0  0  0  0  0  0  0  0  0  0  0  0
  145.0989  135.3498  153.6403 H   0  0  0  0  0  0  0  0  0  0  0  0
  147.4614  136.2793  152.3248 H   0  0  0  0  0  0  0  0  0  0  0  0
  148.3514  137.9718  152.7475 H   0  0  0  0  0  0  0  0  0  0  0  0
  145.9604  140.4574  153.2207 H   0  0  0  0  0  0  0  0  0  0  0  0
  146.4495  142.7980  154.1123 H   0  0  0  0  0  0  0  0  0  0  0  0
  150.2484  141.7128  155.3273 H   0  0  0  0  0  0  0  0  0  0  0  0
  149.9585  139.3421  154.4942 H   0  0  0  0  0  0  0  0  0  0  0  0
  148.5110  143.2219  155.0779 H   0  0  0  0  0  0  0  0  0  0  0  0
  1  2  1  0  0  0  0
  1 19  1  0  0  0  0
  1 20  1  0  0  0  0
  2  3  2  0  0  0  0
  2  4  1  0  0  0  0
  4  8  1  0  0  0  0
  4  5  1  0  0  0  0
  4 21  1  0  0  0  0
  5  6  1  0  0  0  0
  5 22  1  0  0  0  0
  5 23  1  0  0  0  0
  6  7  1  0  0  0  0
  6 24  1  0  0  0  0
  6 25  1  0  0  0  0
  7  8  1  0  0  0  0
  7 26  1  0  0  0  0
  7 27  1  0  0  0  0
  8  9  1  0  0  0  0
  8 28  1  0  0  0  0
  9 10  1  0  0  0  0
  9 29  1  0  0  0  0
 10 11  2  0  0  0  0
 10 12  1  0  0  0  0
 12 13  1  0  0  0  0
 12 30  1  0  0  0  0
 13 18  1  0  0  0  0
 13 14  2  0  0  0  0
 14 15  1  0  0  0  0
 14 31  1  0  0  0  0
 15 16  2  0  0  0  0
 15 32  1  0  0  0  0
 16 17  1  0  0  0  0
 16 35  1  0  0  0  0
 17 18  2  0  0  0  0
 17 33  1  0  0  0  0
 18 34  1  0  0  0  0
M  CHG  1  16   1
M  END
> <s_m_source_file>
AV-unprocessed.smi

> <i_m_source_file_index>
699

> <i_lp_mmshare_version>
43012

> <i_f3d_flags>
0

> <s_epik_input>
W05IMl1DKD1PKVtDQEBIXTFbQ0gyXVtDSDJdW0NIMl1bQ0BIXTFbTkhdQyg9TylbTkhdYzJbY0hdW2NIXW5bY0hdW2NIXTI=

> <s_epik_cmdline>
J2VwaWtfcHl0aG9uJywgJy1waCcsICc3LjAnLCAnLXRuJywgJzgnLCAnLW1hJywgJzIwMCcsICctbWV0YWxfYmluZGluZycsICctaW1hZScsICc8aW5maWxlLm1hZT4nLCAnLW9tYWUnLCAnPG91dGZpbGUubWFlPic=

> <r_epik_Ionization_Penalty>
1.0332

> <r_epik_Ionization_Penalty_Charging>
1.03318

> <r_epik_Ionization_Penalty_Neutral>
1.91967e-05

> <r_epik_State_Penalty>
1.08452

> <r_epik_Charging_Adjusted_Penalty>
2.11769

> <i_epik_Tot_Q>
1

> <i_epik_Tot_abs_Q>
1

> <r_epik_Metal_State_Penalty>
1.18144

> <b_epik_Metal_Only>
0

> <s_lp_Force_Field>
OPLS_2005

> <r_lp_Energy>
26.7554

> <b_lp_Chiralities_Consistent>
1

> <s_lp_Variant>
AV-unprocessed.smi:699-8

> <Gold.Version>
5.8.1

> <Gold.Id.Protein>
6NUR|6NUR_protein|mol2

> <Gold.PLP.Fitness>
40.5567

> <Gold.PLP.PLP>
-29.5659

> <Gold.PLP.part.hbond>
-4.0350

> <Gold.PLP.part.metal>
0.0000

> <Gold.PLP.part.buried>
-4.9844

> <Gold.PLP.part.nonpolar>
-22.3762

> <Gold.PLP.part.repulsive>
0.5219

> <Gold.PLP.ligand.clash>
0.0000

> <Gold.PLP.ligand.torsion>
0.3737

> <Gold.PLP.Chemscore.Hbond>
3.9120

> <Gold.PLP.Chemscore.CHOScore>
0.0000

> <Gold.PLP.Chemscore.Metal>
0.0000

> <Gold.Chemscore.Hbonds>
donor molecule, donor type, donor heavy atom, donor atom, acceptor molecule, acceptor atom, score
      L1  H     9    29       P1  7948  1.00
      L1  H    12    30       P1  7948  0.90
      L1  H    16    35       P1  8028  2.00

> <Gold.PLP.Chemscore.Internal.Correction>
0.0021

> <Gold.Rescore>
     Score         DG    S(hbond)    S(metal)    S(lipo)     H(rot)  DE(clash)    DE(int)     intcor
     17.02     -18.52       3.01        0.00      58.52       1.50       0.04       1.47       ----

> <Gold.Chemscore.Fitness>
17.0181

> <Gold.Chemscore.DG>
-18.5210

> <Gold.Chemscore.ZeroCoef>
-5.4800

> <Gold.Chemscore.Hbond>
3.0070

> <Gold.Chemscore.Metal>
0.0000

> <Gold.Chemscore.Lipo>
58.5245

> <Gold.Chemscore.Internal_Hbond>
0.0000

> <Gold.Chemscore.DEClash>
0.0358

> <Gold.Chemscore.DEInternal>
1.4671

> <Gold.Chemscore.Rot>
1.5038

> <Gold.Chemscore.Internal.Correction>
   9.000000E+99

> <Gold.Chemscore.Hbonds>
donor molecule, donor type, donor heavy atom, donor atom, acceptor molecule, acceptor atom, score
      L1  H     1    20       P1 10957  0.01
      L1  H     9    29       P1  7948  0.95
      L1  H    12    30       P1  7948  0.82
      L1  H    16    35       P1  8028  0.99

> <Gold.Chemscore.Hbond.Weighted>
-10.0432

> <Gold.Chemscore.Metal.Weighted>
-0.0000

> <Gold.Chemscore.Lipo.Weighted>
-6.8474

> <Gold.Chemscore.Internal_Hbond.Weighted>
0.0000

> <Gold.Chemscore.DEClash.Weighted>
0.0358

> <Gold.Chemscore.DEInternal.Weighted>
1.4671

> <Gold.Chemscore.Rot.Weighted>
3.8496

> <Gold.Chemscore.Internal.Correction.Weighted>
   9.000000E+99

> <Gold.Protein.RotatedTorsions>
[ 6907 6896 6895 6894 ] final -132.00 input  -60.11 | X-H torsion
[ 7974 7965 7964 7962 ] final  -55.23 input  175.53 | X-H torsion
[ 8008 7997 7996 7995 ] final  174.03 input   59.86 | X-H torsion
[ 10167 10162 10161 10158 ] final   26.90 input  -65.29 | X-H torsion
[ 10718 10713 10712 10709 ] final   30.27 input   66.30 | X-H torsion
[ 10763 10752 10751 10750 ] final  -40.87 input  -60.55 | X-H torsion
[ 11005 11000 10999 10996 ] final -109.85 input  -57.11 | X-H torsion

> <Gold.Protein.ActiveResidues>
 VAL166  LYS551  ARG553  GLY616  TRP617  ASP618  TYR619  PRO620  LYS621  CYS622 
 ASP623  PHE694  ASN695  SER759  ASP760  ASP761  ALA762  ILE779  LEU786  VAL792 
 PHE793  MET794  SER795  GLU796  ALA797  LYS798  CYS799  TRP800  GLU811  SER814 

> <Gold.Protein.RotatedAtoms>
  150.9574  133.6482  159.2760 H   0  0  0  0  0  0  0  0  0  0  0  0  # atno 6907 bound_to 6896
  151.3817  135.0940  159.9508 H   0  0  0  0  0  0  0  0  0  0  0  0  # atno 6908 bound_to 6896
  152.5134  133.9107  159.7541 H   0  0  0  0  0  0  0  0  0  0  0  0  # atno 6909 bound_to 6896
  145.8765  140.8177  142.9861 H   0  0  0  0  0  0  0  0  0  0  0  0  # atno 7974 bound_to 7965
  156.1016  140.1445  156.9460 H   0  0  0  0  0  0  0  0  0  0  0  0  # atno 8008 bound_to 7997
  154.4706  140.0911  156.7179 H   0  0  0  0  0  0  0  0  0  0  0  0  # atno 8009 bound_to 7997
  155.4751  140.3443  155.4333 H   0  0  0  0  0  0  0  0  0  0  0  0  # atno 8010 bound_to 7997
  140.4984  144.0355  150.6323 H   0  0  0  0  0  0  0  0  0  0  0  0  # atno 10167 bound_to 10162
  157.2574  130.7144  149.6436 H   0  0  0  0  0  0  0  0  0  0  0  0  # atno 10718 bound_to 10713
  153.9531  135.6748  153.4744 H   0  0  0  0  0  0  0  0  0  0  0  0  # atno 10763 bound_to 10752
  153.0875  135.4891  154.8621 H   0  0  0  0  0  0  0  0  0  0  0  0  # atno 10764 bound_to 10752
  154.7314  135.3139  154.8843 H   0  0  0  0  0  0  0  0  0  0  0  0  # atno 10765 bound_to 10752
  141.0824  133.9196  157.2259 H   0  0  0  0  0  0  0  0  0  0  0  0  # atno 11005 bound_to 11000
  144.6726  140.1319  143.7443 LP  0  0  0  0  0  0  0  0  0  0  0  0  # atno 17320 bound_to 7965
  145.9074  139.2466  143.1457 LP  0  0  0  0  0  0  0  0  0  0  0  0  # atno 17321 bound_to 7965
  140.3644  143.2890  152.0348 LP  0  0  0  0  0  0  0  0  0  0  0  0  # atno 17342 bound_to 10162
  139.4866  144.6278  151.7129 LP  0  0  0  0  0  0  0  0  0  0  0  0  # atno 17343 bound_to 10162
  155.9664  130.4408  150.5315 LP  0  0  0  0  0  0  0  0  0  0  0  0  # atno 17370 bound_to 10713
  157.3212  131.0682  151.1930 LP  0  0  0  0  0  0  0  0  0  0  0  0  # atno 17371 bound_to 10713
  139.9639  135.0147  156.9336 LP  0  0  0  0  0  0  0  0  0  0  0  0  # atno 17394 bound_to 11000
  140.5438  134.0694  155.7349 LP  0  0  0  0  0  0  0  0  0  0  0  0  # atno 17395 bound_to 11000

$$$$
