AV-unprocessed.smi:249|AV-procd|sdf|1926|dock3
  -GOLD-   2262021 43D 1   1.00000     0.00000
 Structure written by MMmdl.
 64 67  0  0  0  0  0  0  0  0  2 V2000
  145.6377  131.3968  150.8356 C   0  0  0  0  0  0  0  0  0  0  0  0
  146.0579  130.8687  152.2144 C   0  0  0  0  0  0  0  0  0  0  0  0
  147.1401  131.6846  152.8226 N   0  3  2  0  0  0  0  0  0  0  0  0
  147.6465  131.1388  154.1109 C   0  0  0  0  0  0  0  0  0  0  0  0
  148.8992  131.8981  154.5745 C   0  0  0  0  0  0  0  0  0  0  0  0
  148.6241  133.4112  154.6986 C   0  0  1  0  0  0  0  0  0  0  0  0
  149.7717  134.1836  155.1925 N   0  0  0  0  0  0  0  0  0  0  0  0
  150.6976  133.5179  156.1009 C   0  0  0  0  0  0  0  0  0  0  0  0
  149.5806  135.4959  155.4643 C   0  0  0  0  0  0  0  0  0  0  0  0
  148.4749  135.8299  156.1754 N   0  0  0  0  0  0  0  0  0  0  0  0
  148.2340  137.1087  156.4782 C   0  0  0  0  0  0  0  0  0  0  0  0
  148.9550  138.1888  156.1711 N   0  0  0  0  0  0  0  0  0  0  0  0
  150.0617  137.8580  155.4458 C   0  0  0  0  0  0  0  0  0  0  0  0
  150.4490  136.5464  155.0515 C   0  0  0  0  0  0  0  0  0  0  0  0
  151.6405  136.5997  154.3380 N   0  0  0  0  0  0  0  0  0  0  0  0
  151.9419  137.8691  154.3146 C   0  0  0  0  0  0  0  0  0  0  0  0
  151.0374  138.6985  154.9388 N   0  0  0  0  0  0  0  0  0  0  0  0
  151.1321  140.1422  155.0698 C   0  0  0  0  0  0  0  0  0  0  0  0
  151.1804  140.6604  156.5315 C   0  0  1  0  0  0  0  0  0  0  0  0
  151.7461  139.5503  157.4472 C   0  0  0  0  0  0  0  0  0  0  0  0
  153.1361  139.3780  157.2586 O   0  0  0  0  0  0  0  0  0  0  0  0
  151.9258  142.0150  156.7132 C   0  0  1  0  0  0  0  0  0  0  0  0
  151.3226  143.2100  155.9892 C   0  0  0  0  0  0  0  0  0  0  0  0
  151.8891  144.4078  156.7480 C   0  0  0  0  0  0  0  0  0  0  0  0
  152.2190  143.9364  158.0485 O   0  0  0  0  0  0  0  0  0  0  0  0
  151.9114  142.5530  158.1480 C   0  0  0  0  0  0  0  0  0  0  0  0
  148.0691  133.9336  153.3555 C   0  0  0  0  0  0  0  0  0  0  0  0
  146.8290  133.1431  152.8913 C   0  0  2  0  0  0  0  0  0  0  0  0
  145.5750  133.4652  153.7327 C   0  0  0  0  0  0  0  0  0  0  0  0
  144.7976  130.8218  150.4455 H   0  0  0  0  0  0  0  0  0  0  0  0
  146.4438  131.3273  150.1059 H   0  0  0  0  0  0  0  0  0  0  0  0
  145.3243  132.4397  150.8927 H   0  0  0  0  0  0  0  0  0  0  0  0
  145.1787  130.8937  152.8595 H   0  0  0  0  0  0  0  0  0  0  0  0
  146.3654  129.8240  152.1481 H   0  0  0  0  0  0  0  0  0  0  0  0
  146.8686  131.1834  154.8736 H   0  0  0  0  0  0  0  0  0  0  0  0
  147.9021  130.0863  153.9957 H   0  0  0  0  0  0  0  0  0  0  0  0
  149.2368  131.4992  155.5316 H   0  0  0  0  0  0  0  0  0  0  0  0
  149.7002  131.7119  153.8579 H   0  0  0  0  0  0  0  0  0  0  0  0
  147.8473  133.5351  155.4537 H   0  0  0  0  0  0  0  0  0  0  0  0
  151.5653  134.1473  156.3031 H   0  0  0  0  0  0  0  0  0  0  0  0
  151.0571  132.5896  155.6567 H   0  0  0  0  0  0  0  0  0  0  0  0
  150.2228  133.2758  157.0514 H   0  0  0  0  0  0  0  0  0  0  0  0
  147.3348  137.2932  157.0474 H   0  0  0  0  0  0  0  0  0  0  0  0
  152.8321  138.2390  153.8266 H   0  0  0  0  0  0  0  0  0  0  0  0
  152.0322  140.4505  154.5366 H   0  0  0  0  0  0  0  0  0  0  0  0
  150.2938  140.5951  154.5389 H   0  0  0  0  0  0  0  0  0  0  0  0
  150.1526  140.8129  156.8613 H   0  0  0  0  0  0  0  0  0  0  0  0
  151.5565  139.7702  158.4977 H   0  0  0  0  0  0  0  0  0  0  0  0
  151.2487  138.6013  157.2444 H   0  0  0  0  0  0  0  0  0  0  0  0
  153.5599  139.4052  158.1029 H   0  0  0  0  0  0  0  0  0  0  0  0
  152.9645  141.9047  156.3973 H   0  0  0  0  0  0  0  0  0  0  0  0
  151.5808  143.2551  154.9328 H   0  0  0  0  0  0  0  0  0  0  0  0
  150.2348  143.1971  156.0743 H   0  0  0  0  0  0  0  0  0  0  0  0
  152.7998  144.7716  156.2713 H   0  0  0  0  0  0  0  0  0  0  0  0
  151.1789  145.2335  156.7952 H   0  0  0  0  0  0  0  0  0  0  0  0
  150.9186  142.4508  158.5886 H   0  0  0  0  0  0  0  0  0  0  0  0
  152.6247  142.0447  158.7970 H   0  0  0  0  0  0  0  0  0  0  0  0
  147.8213  134.9930  153.4251 H   0  0  0  0  0  0  0  0  0  0  0  0
  148.8369  133.8504  152.5860 H   0  0  0  0  0  0  0  0  0  0  0  0
  146.6178  133.4707  151.8722 H   0  0  0  0  0  0  0  0  0  0  0  0
  145.3821  134.5383  153.7392 H   0  0  0  0  0  0  0  0  0  0  0  0
  145.6764  133.1501  154.7707 H   0  0  0  0  0  0  0  0  0  0  0  0
  144.6838  132.9860  153.3280 H   0  0  0  0  0  0  0  0  0  0  0  0
  147.9140  131.6186  152.1766 H   0  0  0  0  0  0  0  0  0  0  0  0
  1  2  1  0  0  0  0
  1 30  1  0  0  0  0
  1 31  1  0  0  0  0
  1 32  1  0  0  0  0
  2  3  1  0  0  0  0
  2 33  1  0  0  0  0
  2 34  1  0  0  0  0
  3 28  1  0  0  0  0
  3  4  1  0  0  0  0
  3 64  1  0  0  0  0
  4  5  1  0  0  0  0
  4 35  1  0  0  0  0
  4 36  1  0  0  0  0
  5  6  1  0  0  0  0
  5 37  1  0  0  0  0
  5 38  1  0  0  0  0
  6  7  1  0  0  0  0
  6 27  1  0  0  0  0
  6 39  1  0  0  0  0
  7  8  1  0  0  0  0
  7  9  1  0  0  0  0
  8 40  1  0  0  0  0
  8 41  1  0  0  0  0
  8 42  1  0  0  0  0
  9 14  1  0  0  0  0
  9 10  2  0  0  0  0
 10 11  1  0  0  0  0
 11 12  2  0  0  0  0
 11 43  1  0  0  0  0
 12 13  1  0  0  0  0
 13 17  1  0  0  0  0
 13 14  2  0  0  0  0
 14 15  1  0  0  0  0
 15 16  2  0  0  0  0
 16 17  1  0  0  0  0
 16 44  1  0  0  0  0
 17 18  1  0  0  0  0
 18 19  1  0  0  0  0
 18 45  1  0  0  0  0
 18 46  1  0  0  0  0
 19 20  1  0  0  0  0
 19 22  1  0  0  0  0
 19 47  1  0  0  0  0
 20 21  1  0  0  0  0
 20 48  1  0  0  0  0
 20 49  1  0  0  0  0
 21 50  1  0  0  0  0
 22 26  1  0  0  0  0
 22 23  1  0  0  0  0
 22 51  1  0  0  0  0
 23 24  1  0  0  0  0
 23 52  1  0  0  0  0
 23 53  1  0  0  0  0
 24 25  1  0  0  0  0
 24 54  1  0  0  0  0
 24 55  1  0  0  0  0
 25 26  1  0  0  0  0
 26 56  1  0  0  0  0
 26 57  1  0  0  0  0
 27 28  1  0  0  0  0
 27 58  1  0  0  0  0
 27 59  1  0  0  0  0
 28 29  1  0  0  0  0
 28 60  1  0  0  0  0
 29 61  1  0  0  0  0
 29 62  1  0  0  0  0
 29 63  1  0  0  0  0
M  CHG  1   3   1
M  END
> <s_m_source_file>
AV-unprocessed.smi

> <i_m_source_file_index>
249

> <i_lp_mmshare_version>
43012

> <i_f3d_flags>
0

> <s_epik_input>
W0NIM11bQ0gyXU4xW0NIMl1bQ0gyXVtDQEhdKFtDSDJdW0NASF0xW0NIM10pTihbQ0gzXSljKG5bY0hdbjIpYyhjMjMpbltjSF1uM1tDSDJdW0NASF0oW0NIMl1bT0hdKVtDQEBIXTRbQ0gyXVtDSDJdT1tDSDJdNA==

> <s_epik_cmdline>
J2VwaWtfcHl0aG9uJywgJy1waCcsICc3LjAnLCAnLXRuJywgJzgnLCAnLW1hJywgJzIwMCcsICctbWV0YWxfYmluZGluZycsICctaW1hZScsICc8aW5maWxlLm1hZT4nLCAnLW9tYWUnLCAnPG91dGZpbGUubWFlPic=

> <r_lp_tautomer_probability>
1

> <r_epik_Ionization_Penalty>
0.00294688

> <r_epik_Ionization_Penalty_Charging>
0.00169971

> <r_epik_Ionization_Penalty_Neutral>
0.00124717

> <r_epik_State_Penalty>
-0

> <r_epik_Charging_Adjusted_Penalty>
0.00169971

> <i_epik_Tot_Q>
1

> <i_epik_Tot_abs_Q>
1

> <r_epik_Metal_State_Penalty>
-0

> <b_epik_Metal_Only>
0

> <s_lp_Force_Field>
OPLS_2005

> <r_lp_Energy>
54.3628

> <b_lp_Chiralities_Consistent>
1

> <s_lp_Variant>
AV-unprocessed.smi:249-29

> <Gold.Version>
5.8.1

> <Gold.Id.Protein>
6NUR|6NUR_protein|mol2

> <Gold.PLP.Fitness>
49.1793

> <Gold.PLP.PLP>
-42.0544

> <Gold.PLP.part.hbond>
-3.0000

> <Gold.PLP.part.metal>
0.0000

> <Gold.PLP.part.buried>
-4.3764

> <Gold.PLP.part.nonpolar>
-35.0231

> <Gold.PLP.part.repulsive>
0.5086

> <Gold.PLP.ligand.clash>
0.0000

> <Gold.PLP.ligand.torsion>
1.2852

> <Gold.PLP.Chemscore.Hbond>
2.9120

> <Gold.PLP.Chemscore.CHOScore>
0.0000

> <Gold.PLP.Chemscore.Metal>
0.0000

> <Gold.Chemscore.Hbonds>
donor molecule, donor type, donor heavy atom, donor atom, acceptor molecule, acceptor atom, score
      L1  H     3    64       P1 10747  0.32
      P1  H  7997  8008       L1    21  0.30
      P1  H 10752 10763       L1    15  1.00

> <Gold.PLP.Chemscore.Internal.Correction>
0.9593

> <Gold.Rescore>
     Score         DG    S(hbond)    S(metal)    S(lipo)     H(rot)  DE(clash)    DE(int)     intcor
     15.15     -16.73       1.90        0.00     105.31       2.90       0.28       1.29       ----

> <Gold.Chemscore.Fitness>
15.1543

> <Gold.Chemscore.DG>
-16.7279

> <Gold.Chemscore.ZeroCoef>
-5.4800

> <Gold.Chemscore.Hbond>
1.9020

> <Gold.Chemscore.Metal>
0.0000

> <Gold.Chemscore.Lipo>
105.3054

> <Gold.Chemscore.Internal_Hbond>
0.0000

> <Gold.Chemscore.DEClash>
0.2813

> <Gold.Chemscore.DEInternal>
1.2923

> <Gold.Chemscore.Rot>
2.9006

> <Gold.Chemscore.Internal.Correction>
   9.000000E+99

> <Gold.Chemscore.Hbonds>
donor molecule, donor type, donor heavy atom, donor atom, acceptor molecule, acceptor atom, score
      L1  H     3    64       P1 10747  0.32
      P1  H 10752 10763       L1    15  0.87

> <Gold.Chemscore.Hbond.Weighted>
-6.3528

> <Gold.Chemscore.Metal.Weighted>
-0.0000

> <Gold.Chemscore.Lipo.Weighted>
-12.3207

> <Gold.Chemscore.Internal_Hbond.Weighted>
0.0000

> <Gold.Chemscore.DEClash.Weighted>
0.2813

> <Gold.Chemscore.DEInternal.Weighted>
1.2923

> <Gold.Chemscore.Rot.Weighted>
7.4256

> <Gold.Chemscore.Internal.Correction.Weighted>
   9.000000E+99

> <Gold.Protein.RotatedTorsions>
[ 6907 6896 6895 6894 ] final   -1.28 input  -60.11 | X-H torsion
[ 7974 7965 7964 7962 ] final -119.33 input  175.53 | X-H torsion
[ 8008 7997 7996 7995 ] final  -64.86 input   59.86 | X-H torsion
[ 10167 10162 10161 10158 ] final    1.79 input  -65.29 | X-H torsion
[ 10718 10713 10712 10709 ] final  154.52 input   66.30 | X-H torsion
[ 10763 10752 10751 10750 ] final   48.18 input  -60.55 | X-H torsion
[ 11005 11000 10999 10996 ] final  145.40 input  -57.11 | X-H torsion

> <Gold.Protein.ActiveResidues>
 VAL166  LYS551  ARG553  GLY616  TRP617  ASP618  TYR619  PRO620  LYS621  CYS622 
 ASP623  PHE694  ASN695  SER759  ASP760  ASP761  ALA762  ILE779  LEU786  VAL792 
 PHE793  MET794  SER795  GLU796  ALA797  LYS798  CYS799  TRP800  GLU811  SER814 

> <Gold.Protein.RotatedAtoms>
  151.5486  135.1068  159.9943 H   0  0  0  0  0  0  0  0  0  0  0  0  # atno 6907 bound_to 6896
  152.4502  133.7610  159.6757 H   0  0  0  0  0  0  0  0  0  0  0  0  # atno 6908 bound_to 6896
  150.8428  133.7841  159.3078 H   0  0  0  0  0  0  0  0  0  0  0  0  # atno 6909 bound_to 6896
  145.0637  140.8309  143.4137 H   0  0  0  0  0  0  0  0  0  0  0  0  # atno 7974 bound_to 7965
  154.4637  140.0945  156.6961 H   0  0  0  0  0  0  0  0  0  0  0  0  # atno 8008 bound_to 7997
  155.4921  140.3471  155.4338 H   0  0  0  0  0  0  0  0  0  0  0  0  # atno 8009 bound_to 7997
  156.0917  140.1399  156.9572 H   0  0  0  0  0  0  0  0  0  0  0  0  # atno 8010 bound_to 7997
  140.6666  143.7163  150.7839 H   0  0  0  0  0  0  0  0  0  0  0  0  # atno 10167 bound_to 10162
  157.2305  131.0738  151.1856 H   0  0  0  0  0  0  0  0  0  0  0  0  # atno 10718 bound_to 10713
  152.9794  135.5952  154.3884 H   0  0  0  0  0  0  0  0  0  0  0  0  # atno 10763 bound_to 10752
  154.3542  135.2767  155.2357 H   0  0  0  0  0  0  0  0  0  0  0  0  # atno 10764 bound_to 10752
  154.4383  135.6019  153.6168 H   0  0  0  0  0  0  0  0  0  0  0  0  # atno 10765 bound_to 10752
  140.0709  134.9152  157.1343 H   0  0  0  0  0  0  0  0  0  0  0  0  # atno 11005 bound_to 11000
  145.1377  139.2592  143.5506 LP  0  0  0  0  0  0  0  0  0  0  0  0  # atno 17320 bound_to 7965
  146.3525  140.1045  142.8606 LP  0  0  0  0  0  0  0  0  0  0  0  0  # atno 17321 bound_to 7965
  140.0841  143.4940  152.2514 LP  0  0  0  0  0  0  0  0  0  0  0  0  # atno 17342 bound_to 10162
  139.5917  144.7552  151.3385 LP  0  0  0  0  0  0  0  0  0  0  0  0  # atno 17343 bound_to 10162
  157.3482  130.7068  149.6424 LP  0  0  0  0  0  0  0  0  0  0  0  0  # atno 17370 bound_to 10713
  155.9676  130.4260  150.4679 LP  0  0  0  0  0  0  0  0  0  0  0  0  # atno 17371 bound_to 10713
  140.3628  134.2475  155.7185 LP  0  0  0  0  0  0  0  0  0  0  0  0  # atno 17394 bound_to 11000
  141.2011  133.7970  157.0455 LP  0  0  0  0  0  0  0  0  0  0  0  0  # atno 17395 bound_to 11000

$$$$
