AV-unprocessed.smi:1372|AV-procd|sdf|5584|dock5
  -GOLD-   22720 5183D 1   1.00000     0.00000
 Structure written by MMmdl.
 42 44  0  0  0  0  0  0  0  0  2 V2000
  150.3092  135.6376  154.5845 C   0  0  0  0  0  0  0  0  0  0  0  0
  151.3735  136.6832  155.6594 S   0  0  0  0  0  0  0  0  0  0  0  0
  150.5668  137.1654  156.7906 O   0  0  0  0  0  0  0  0  0  0  0  0
  152.6272  135.9590  155.9200 O   0  0  0  0  0  0  0  0  0  0  0  0
  151.7462  138.1120  154.5540 C   0  0  0  0  0  0  0  0  0  0  0  0
  150.5192  138.9446  154.3513 C   0  0  0  0  0  0  0  0  0  0  0  0
  149.4398  138.6064  153.5888 N   0  3  0  0  0  0  0  0  0  0  0  0
  148.4959  139.6327  153.6191 C   0  0  0  0  0  0  0  0  0  0  0  0
  147.2565  139.7498  152.9979 C   0  0  0  0  0  0  0  0  0  0  0  0
  146.5399  140.9412  153.2354 C   0  0  0  0  0  0  0  0  0  0  0  0
  147.0600  141.9584  154.0619 C   0  0  0  0  0  0  0  0  0  0  0  0
  148.3176  141.8275  154.6873 C   0  0  0  0  0  0  0  0  0  0  0  0
  149.0186  140.6455  154.4484 C   0  0  0  0  0  0  0  0  0  0  0  0
  150.2615  140.1744  154.8863 N   0  0  0  0  0  0  0  0  0  0  0  0
  151.0641  141.0166  155.7880 C   0  0  0  0  0  0  0  0  0  0  0  0
  150.6727  140.8494  157.2696 C   0  0  2  0  0  0  0  0  0  0  0  0
  149.2817  141.0530  157.4231 O   0  0  0  0  0  0  0  0  0  0  0  0
  151.4881  141.7703  158.1625 C   0  0  0  0  0  0  0  0  0  0  0  0
  152.2942  141.2287  159.1864 C   0  0  0  0  0  0  0  0  0  0  0  0
  153.0588  142.0767  160.0112 C   0  0  0  0  0  0  0  0  0  0  0  0
  153.0234  143.4705  159.8154 C   0  0  0  0  0  0  0  0  0  0  0  0
  152.2231  144.0165  158.7940 C   0  0  0  0  0  0  0  0  0  0  0  0
  151.4583  143.1692  157.9690 C   0  0  0  0  0  0  0  0  0  0  0  0
  150.0154  134.7405  155.1294 H   0  0  0  0  0  0  0  0  0  0  0  0
  150.8605  135.3516  153.6888 H   0  0  0  0  0  0  0  0  0  0  0  0
  149.4166  136.1948  154.3006 H   0  0  0  0  0  0  0  0  0  0  0  0
  152.5374  138.7120  155.0033 H   0  0  0  0  0  0  0  0  0  0  0  0
  152.1096  137.7207  153.6047 H   0  0  0  0  0  0  0  0  0  0  0  0
  146.8574  138.9727  152.3624 H   0  0  0  0  0  0  0  0  0  0  0  0
  145.5729  141.0780  152.7733 H   0  0  0  0  0  0  0  0  0  0  0  0
  146.4831  142.8582  154.2196 H   0  0  0  0  0  0  0  0  0  0  0  0
  148.7077  142.6138  155.3164 H   0  0  0  0  0  0  0  0  0  0  0  0
  152.1177  140.7787  155.6373 H   0  0  0  0  0  0  0  0  0  0  0  0
  150.9465  142.0534  155.4728 H   0  0  0  0  0  0  0  0  0  0  0  0
  150.8696  139.8196  157.5705 H   0  0  0  0  0  0  0  0  0  0  0  0
  148.8292  140.5313  156.7778 H   0  0  0  0  0  0  0  0  0  0  0  0
  152.3310  140.1608  159.3432 H   0  0  0  0  0  0  0  0  0  0  0  0
  153.6734  141.6575  160.7943 H   0  0  0  0  0  0  0  0  0  0  0  0
  153.6101  144.1204  160.4479 H   0  0  0  0  0  0  0  0  0  0  0  0
  152.1967  145.0853  158.6425 H   0  0  0  0  0  0  0  0  0  0  0  0
  150.8499  143.5967  157.1854 H   0  0  0  0  0  0  0  0  0  0  0  0
  149.3647  137.7391  153.0720 H   0  0  0  0  0  0  0  0  0  0  0  0
  1  2  1  0  0  0  0
  1 24  1  0  0  0  0
  1 25  1  0  0  0  0
  1 26  1  0  0  0  0
  2  3  2  0  0  0  0
  2  4  2  0  0  0  0
  2  5  1  0  0  0  0
  5  6  1  0  0  0  0
  5 27  1  0  0  0  0
  5 28  1  0  0  0  0
  6 14  1  0  0  0  0
  6  7  2  0  0  0  0
  7  8  1  0  0  0  0
  7 42  1  0  0  0  0
  8 13  2  0  0  0  0
  8  9  1  0  0  0  0
  9 10  2  0  0  0  0
  9 29  1  0  0  0  0
 10 11  1  0  0  0  0
 10 30  1  0  0  0  0
 11 12  2  0  0  0  0
 11 31  1  0  0  0  0
 12 13  1  0  0  0  0
 12 32  1  0  0  0  0
 13 14  1  0  0  0  0
 14 15  1  0  0  0  0
 15 16  1  0  0  0  0
 15 33  1  0  0  0  0
 15 34  1  0  0  0  0
 16 17  1  0  0  0  0
 16 18  1  0  0  0  0
 16 35  1  0  0  0  0
 17 36  1  0  0  0  0
 18 23  1  0  0  0  0
 18 19  2  0  0  0  0
 19 20  1  0  0  0  0
 19 37  1  0  0  0  0
 20 21  2  0  0  0  0
 20 38  1  0  0  0  0
 21 22  1  0  0  0  0
 21 39  1  0  0  0  0
 22 23  2  0  0  0  0
 22 40  1  0  0  0  0
 23 41  1  0  0  0  0
M  CHG  1   7   1
M  END
> <s_m_source_file>
AV-unprocessed.smi

> <i_m_source_file_index>
1372

> <i_lp_mmshare_version>
43012

> <i_f3d_flags>
0

> <s_epik_input>
W2NIXTFbY0hdW2NIXVtjSF1jKGMxMiluKGMobjIpW0NIMl1TKD1PKSg9TylbQ0gzXSlbQ0gyXVtDQEhdKFtPSF0pYzNbY0hdW2NIXVtjSF1bY0hdW2NIXTM=

> <s_epik_cmdline>
J2VwaWtfcHl0aG9uJywgJy1waCcsICc3LjAnLCAnLXRuJywgJzgnLCAnLW1hJywgJzIwMCcsICctbWV0YWxfYmluZGluZycsICctaW1hZScsICc8aW5maWxlLm1hZT4nLCAnLW9tYWUnLCAnPG91dGZpbGUubWFlPic=

> <r_epik_Ionization_Penalty>
2.1801

> <r_epik_Ionization_Penalty_Charging>
2.1801

> <r_epik_Ionization_Penalty_Neutral>
1.34362e-06

> <r_epik_State_Penalty>
2.32206

> <r_epik_Charging_Adjusted_Penalty>
4.50216

> <i_epik_Tot_Q>
1

> <i_epik_Tot_abs_Q>
1

> <r_epik_Metal_State_Penalty>
6.40294

> <b_epik_Metal_Only>
0

> <s_lp_Force_Field>
OPLS_2005

> <r_lp_Energy>
10.6003

> <b_lp_Chiralities_Consistent>
1

> <s_lp_Variant>
AV-unprocessed.smi:1372-3

> <Gold.Version>
5.8.1

> <Gold.Id.Protein>
6NUR|6NUR_protein|mol2

> <Gold.PLP.Fitness>
56.4341

> <Gold.PLP.PLP>
-48.6751

> <Gold.PLP.part.hbond>
-3.0000

> <Gold.PLP.part.metal>
0.0000

> <Gold.PLP.part.buried>
1.5808

> <Gold.PLP.part.nonpolar>
-47.8780

> <Gold.PLP.part.repulsive>
0.0564

> <Gold.PLP.ligand.clash>
0.0000

> <Gold.PLP.ligand.torsion>
0.6908

> <Gold.PLP.Chemscore.Hbond>
3.0000

> <Gold.PLP.Chemscore.CHOScore>
0.0000

> <Gold.PLP.Chemscore.Metal>
0.0000

> <Gold.Chemscore.Hbonds>
donor molecule, donor type, donor heavy atom, donor atom, acceptor molecule, acceptor atom, score
      L1  H     7    42       P1  7948  2.00

> <Gold.PLP.Chemscore.Internal.Correction>
0.1406

> <Gold.Rescore>
     Score         DG    S(hbond)    S(metal)    S(lipo)     H(rot)  DE(clash)    DE(int)     intcor
     18.64     -21.01       1.93        0.00     129.90       2.40       1.66       0.70       ----

> <Gold.Chemscore.Fitness>
18.6428

> <Gold.Chemscore.DG>
-21.0054

> <Gold.Chemscore.ZeroCoef>
-5.4800

> <Gold.Chemscore.Hbond>
1.9335

> <Gold.Chemscore.Metal>
0.0000

> <Gold.Chemscore.Lipo>
129.9049

> <Gold.Chemscore.Internal_Hbond>
0.0000

> <Gold.Chemscore.DEClash>
1.6599

> <Gold.Chemscore.DEInternal>
0.7028

> <Gold.Chemscore.Rot>
2.3951

> <Gold.Chemscore.Internal.Correction>
   9.000000E+99

> <Gold.Chemscore.Hbonds>
donor molecule, donor type, donor heavy atom, donor atom, acceptor molecule, acceptor atom, score
      L1  H     7    42       P1  7948  0.94
      P1  H 10752 10765       L1     4  0.06

> <Gold.Chemscore.Hbond.Weighted>
-6.4580

> <Gold.Chemscore.Metal.Weighted>
-0.0000

> <Gold.Chemscore.Lipo.Weighted>
-15.1989

> <Gold.Chemscore.Internal_Hbond.Weighted>
0.0000

> <Gold.Chemscore.DEClash.Weighted>
1.6599

> <Gold.Chemscore.DEInternal.Weighted>
0.7028

> <Gold.Chemscore.Rot.Weighted>
6.1314

> <Gold.Chemscore.Internal.Correction.Weighted>
   9.000000E+99

> <Gold.Protein.RotatedTorsions>
[ 6907 6896 6895 6894 ] final   46.79 input  -60.11 | X-H torsion
[ 7974 7965 7964 7962 ] final  165.13 input  175.53 | X-H torsion
[ 8008 7997 7996 7995 ] final   16.76 input   59.86 | X-H torsion
[ 10167 10162 10161 10158 ] final   -7.53 input  -65.29 | X-H torsion
[ 10718 10713 10712 10709 ] final  -30.00 input   66.30 | X-H torsion
[ 10763 10752 10751 10750 ] final -153.22 input  -60.55 | X-H torsion
[ 11005 11000 10999 10996 ] final  -10.56 input  -57.11 | X-H torsion

> <Gold.Protein.ActiveResidues>
 VAL166  LYS551  ARG553  GLY616  TRP617  ASP618  TYR619  PRO620  LYS621  CYS622 
 ASP623  PHE694  ASN695  SER759  ASP760  ASP761  ALA762  ILE779  LEU786  VAL792 
 PHE793  MET794  SER795  GLU796  ALA797  LYS798  CYS799  TRP800  GLU811  SER814 

> <Gold.Protein.RotatedAtoms>
  152.2606  134.8038  160.0431 H   0  0  0  0  0  0  0  0  0  0  0  0  # atno 6907 bound_to 6896
  151.8686  133.3466  159.3735 H   0  0  0  0  0  0  0  0  0  0  0  0  # atno 6908 bound_to 6896
  150.7115  134.5062  159.5629 H   0  0  0  0  0  0  0  0  0  0  0  0  # atno 6909 bound_to 6896
  144.7515  139.8426  143.6364 H   0  0  0  0  0  0  0  0  0  0  0  0  # atno 7974 bound_to 7965
  154.8816  140.2974  155.5422 H   0  0  0  0  0  0  0  0  0  0  0  0  # atno 8008 bound_to 7997
  156.3022  140.2441  156.3753 H   0  0  0  0  0  0  0  0  0  0  0  0  # atno 8009 bound_to 7997
  154.8711  140.0401  157.1714 H   0  0  0  0  0  0  0  0  0  0  0  0  # atno 8010 bound_to 7997
  140.7032  143.6070  150.8741 H   0  0  0  0  0  0  0  0  0  0  0  0  # atno 10167 bound_to 10162
  156.4053  130.4398  149.7292 H   0  0  0  0  0  0  0  0  0  0  0  0  # atno 10718 bound_to 10713
  154.7942  135.3218  154.7705 H   0  0  0  0  0  0  0  0  0  0  0  0  # atno 10763 bound_to 10752
  153.8387  135.6873  153.4810 H   0  0  0  0  0  0  0  0  0  0  0  0  # atno 10764 bound_to 10752
  153.1626  135.4655  154.9734 H   0  0  0  0  0  0  0  0  0  0  0  0  # atno 10765 bound_to 10752
  140.7460  133.8631  155.9006 H   0  0  0  0  0  0  0  0  0  0  0  0  # atno 11005 bound_to 11000
  146.1472  139.4545  143.0071 LP  0  0  0  0  0  0  0  0  0  0  0  0  # atno 17320 bound_to 7965
  145.6926  141.0159  143.1547 LP  0  0  0  0  0  0  0  0  0  0  0  0  # atno 17321 bound_to 7965
  139.9794  143.5968  152.2948 LP  0  0  0  0  0  0  0  0  0  0  0  0  # atno 17342 bound_to 10162
  139.6583  144.7662  151.2011 LP  0  0  0  0  0  0  0  0  0  0  0  0  # atno 17343 bound_to 10162
  156.4292  130.7807  151.2826 LP  0  0  0  0  0  0  0  0  0  0  0  0  # atno 17370 bound_to 10713
  157.7505  131.0159  150.3523 LP  0  0  0  0  0  0  0  0  0  0  0  0  # atno 17371 bound_to 10713
  140.9794  134.1426  157.4508 LP  0  0  0  0  0  0  0  0  0  0  0  0  # atno 17394 bound_to 11000
  139.8796  135.0005  156.6015 LP  0  0  0  0  0  0  0  0  0  0  0  0  # atno 17395 bound_to 11000

$$$$
