AV-unprocessed.smi:55|AV-procd|sdf|571|dock2
  -GOLD-   2262016473D 1   1.00000     0.00000
 Structure written by MMmdl.
 30 31  0  0  0  0  0  0  0  0  2 V2000
  152.3630  137.6111  154.6427 C   0  0  0  0  0  0  0  0  0  0  0  0
  151.6955  138.8649  155.1801 C   0  0  0  0  0  0  0  0  0  0  0  0
  150.6424  139.4435  154.5607 C   0  0  0  0  0  0  0  0  0  0  0  0
  150.0370  140.5844  155.0568 N   0  0  0  0  0  0  0  0  0  0  0  0
  148.8469  141.1922  154.3541 C   0  0  2  0  0  0  0  0  0  0  0  0
  147.6365  141.2498  155.2774 C   0  0  0  0  0  0  0  0  0  0  0  0
  146.4782  141.1329  154.2936 C   0  0  2  0  0  0  0  0  0  0  0  0
  145.5094  140.2288  154.7920 O   0  0  0  0  0  0  0  0  0  0  0  0
  147.1288  140.7049  152.9546 C   0  0  2  0  0  0  0  0  0  0  0  0
  146.4732  139.5155  152.2276 C   0  0  0  0  0  0  0  0  0  0  0  0
  147.4314  138.5080  151.9812 O   0  0  0  0  0  0  0  0  0  0  0  0
  148.4693  140.3741  153.2977 O   0  0  0  0  0  0  0  0  0  0  0  0
  150.5020  141.1577  156.2682 C   0  0  0  0  0  0  0  0  0  0  0  0
  149.9126  142.1462  156.7061 O   0  0  0  0  0  0  0  0  0  0  0  0
  151.5703  140.5869  156.8951 N   0  5  0  0  0  0  0  0  0  0  0  0
  152.1986  139.4740  156.4177 C   0  0  0  0  0  0  0  0  0  0  0  0
  153.1633  138.9706  156.9929 O   0  0  0  0  0  0  0  0  0  0  0  0
  149.1529  142.1633  153.9602 H   0  0  0  0  0  0  0  0  0  0  0  0
  145.9976  142.1036  154.1661 H   0  0  0  0  0  0  0  0  0  0  0  0
  147.1514  141.5769  152.2984 H   0  0  0  0  0  0  0  0  0  0  0  0
  151.8851  137.2700  153.7241 H   0  0  0  0  0  0  0  0  0  0  0  0
  152.3030  136.8050  155.3747 H   0  0  0  0  0  0  0  0  0  0  0  0
  153.4143  137.8024  154.4256 H   0  0  0  0  0  0  0  0  0  0  0  0
  150.2609  138.9937  153.6560 H   0  0  0  0  0  0  0  0  0  0  0  0
  147.6657  140.3973  155.9588 H   0  0  0  0  0  0  0  0  0  0  0  0
  147.6326  142.1713  155.8601 H   0  0  0  0  0  0  0  0  0  0  0  0
  144.8863  140.0482  154.1052 H   0  0  0  0  0  0  0  0  0  0  0  0
  145.6370  139.1132  152.8006 H   0  0  0  0  0  0  0  0  0  0  0  0
  146.0873  139.8256  151.2563 H   0  0  0  0  0  0  0  0  0  0  0  0
  148.2241  138.9174  151.6699 H   0  0  0  0  0  0  0  0  0  0  0  0
  1  2  1  0  0  0  0
  1 21  1  0  0  0  0
  1 22  1  0  0  0  0
  1 23  1  0  0  0  0
  2 16  1  0  0  0  0
  2  3  2  0  0  0  0
  3  4  1  0  0  0  0
  3 24  1  0  0  0  0
  4  5  1  0  0  0  0
  4 13  1  0  0  0  0
  5 18  1  0  0  0  0
  5 12  1  0  0  0  0
  5  6  1  0  0  0  0
  6  7  1  0  0  0  0
  6 25  1  0  0  0  0
  6 26  1  0  0  0  0
  7 19  1  0  0  0  0
  7  8  1  0  0  0  0
  7  9  1  0  0  0  0
  8 27  1  0  0  0  0
  9 20  1  0  0  0  0
  9 10  1  0  0  0  0
  9 12  1  0  0  0  0
 10 11  1  0  0  0  0
 10 28  1  0  0  0  0
 10 29  1  0  0  0  0
 11 30  1  0  0  0  0
 13 14  2  0  0  0  0
 13 15  1  0  0  0  0
 15 16  1  0  0  0  0
 16 17  2  0  0  0  0
M  CHG  1  15  -1
M  END
> <s_m_source_file>
AV-unprocessed.smi

> <i_m_source_file_index>
55

> <i_lp_mmshare_version>
43012

> <i_f3d_flags>
0

> <s_epik_input>
Tz1jMVtuSF1jKD1PKW4oW2NIXWMxW0NIM10pW0NAQEhdMltDSDJdW0NAQEhdKFtPSF0pW0NAQEhdKE8yKVtDSDJdW09IXQ==

> <s_epik_cmdline>
J2VwaWtfcHl0aG9uJywgJy1waCcsICc3LjAnLCAnLXRuJywgJzgnLCAnLW1hJywgJzIwMCcsICctbWV0YWxfYmluZGluZycsICctaW1hZScsICc8aW5maWxlLm1hZT4nLCAnLW9tYWUnLCAnPG91dGZpbGUubWFlPic=

> <r_lp_tautomer_probability>
0.999537

> <r_epik_Ionization_Penalty>
3.66603

> <r_epik_Ionization_Penalty_Charging>
1.09773e-07

> <r_epik_Ionization_Penalty_Neutral>
3.66603

> <r_epik_State_Penalty>
3.66562

> <r_epik_Charging_Adjusted_Penalty>
3.66562

> <i_epik_Tot_Q>
-1

> <i_epik_Tot_abs_Q>
1

> <r_epik_Metal_State_Penalty>
0.234536

> <b_epik_Metal_Only>
1

> <s_epik_Chemistry_Notes>
This compound contains an acetal/aminal-like group ( X-CH(R)-Y where X, Y are N, S, or O) that may be acid/base labile, releasing an aldehyde.

> <s_lp_Force_Field>
OPLS_2005

> <r_lp_Energy>
40.7454

> <b_lp_Chiralities_Consistent>
1

> <s_lp_Variant>
AV-unprocessed.smi:55-11

> <Gold.Version>
5.8.1

> <Gold.Id.Protein>
6NUR|6NUR_protein|mol2

> <Gold.PLP.Fitness>
35.8033

> <Gold.PLP.PLP>
-25.5413

> <Gold.PLP.part.hbond>
-4.9240

> <Gold.PLP.part.metal>
0.0000

> <Gold.PLP.part.buried>
3.8842

> <Gold.PLP.part.nonpolar>
-27.8306

> <Gold.PLP.part.repulsive>
4.8421

> <Gold.PLP.ligand.clash>
0.0000

> <Gold.PLP.ligand.torsion>
0.7821

> <Gold.PLP.Chemscore.Hbond>
3.0000

> <Gold.PLP.Chemscore.CHOScore>
0.9340

> <Gold.PLP.Chemscore.Metal>
0.0000

> <Gold.Chemscore.Hbonds>
donor molecule, donor type, donor heavy atom, donor atom, acceptor molecule, acceptor atom, score
      L1  H     8    27       P1 10175  0.91
      L1  H    11    30       P1  7957  1.00
      P1  H  7997  8009       L1    17  1.00
      L1  C     3    24       P1  7957  0.39

> <Gold.PLP.Chemscore.Internal.Correction>
0.0242

> <Gold.Rescore>
     Score         DG    S(hbond)    S(metal)    S(lipo)     H(rot)  DE(clash)    DE(int)     intcor
      9.06     -14.10       2.81        0.00      52.39       2.69       2.96       2.08       ----

> <Gold.Chemscore.Fitness>
9.0555

> <Gold.Chemscore.DG>
-14.1040

> <Gold.Chemscore.ZeroCoef>
-5.4800

> <Gold.Chemscore.Hbond>
2.8066

> <Gold.Chemscore.Metal>
0.0000

> <Gold.Chemscore.Lipo>
52.3860

> <Gold.Chemscore.Internal_Hbond>
0.0000

> <Gold.Chemscore.DEClash>
2.9643

> <Gold.Chemscore.DEInternal>
2.0843

> <Gold.Chemscore.Rot>
2.6871

> <Gold.Chemscore.Internal.Correction>
   9.000000E+99

> <Gold.Chemscore.Hbonds>
donor molecule, donor type, donor heavy atom, donor atom, acceptor molecule, acceptor atom, score
      L1  H     8    27       P1 10175  0.86
      L1  H    11    30       P1  7957  0.82
      P1  H  7997  8009       L1    17  0.55

> <Gold.Chemscore.Hbond.Weighted>
-9.3739

> <Gold.Chemscore.Metal.Weighted>
-0.0000

> <Gold.Chemscore.Lipo.Weighted>
-6.1292

> <Gold.Chemscore.Internal_Hbond.Weighted>
0.0000

> <Gold.Chemscore.DEClash.Weighted>
2.9643

> <Gold.Chemscore.DEInternal.Weighted>
2.0843

> <Gold.Chemscore.Rot.Weighted>
6.8791

> <Gold.Chemscore.Internal.Correction.Weighted>
   9.000000E+99

> <Gold.Protein.RotatedTorsions>
[ 6907 6896 6895 6894 ] final  148.97 input  -60.11 | X-H torsion
[ 7974 7965 7964 7962 ] final  151.91 input  175.53 | X-H torsion
[ 8008 7997 7996 7995 ] final  169.73 input   59.86 | X-H torsion
[ 10167 10162 10161 10158 ] final  161.64 input  -65.29 | X-H torsion
[ 10718 10713 10712 10709 ] final -138.62 input   66.30 | X-H torsion
[ 10763 10752 10751 10750 ] final  104.65 input  -60.55 | X-H torsion
[ 11005 11000 10999 10996 ] final  -31.64 input  -57.11 | X-H torsion

> <Gold.Protein.ActiveResidues>
 VAL166  LYS551  ARG553  GLY616  TRP617  ASP618  TYR619  PRO620  LYS621  CYS622 
 ASP623  PHE694  ASN695  SER759  ASP760  ASP761  ALA762  ILE779  LEU786  VAL792 
 PHE793  MET794  SER795  GLU796  ALA797  LYS798  CYS799  TRP800  GLU811  SER814 

> <Gold.Protein.RotatedAtoms>
  152.1343  133.4426  159.4735 H   0  0  0  0  0  0  0  0  0  0  0  0  # atno 6907 bound_to 6896
  150.6880  134.2383  159.4471 H   0  0  0  0  0  0  0  0  0  0  0  0  # atno 6908 bound_to 6896
  152.0269  134.9790  160.0622 H   0  0  0  0  0  0  0  0  0  0  0  0  # atno 6909 bound_to 6896
  144.8259  139.6600  143.6080 H   0  0  0  0  0  0  0  0  0  0  0  0  # atno 7974 bound_to 7965
  156.1430  140.1556  156.8891 H   0  0  0  0  0  0  0  0  0  0  0  0  # atno 8008 bound_to 7997
  154.5004  140.0827  156.7823 H   0  0  0  0  0  0  0  0  0  0  0  0  # atno 8009 bound_to 7997
  155.4042  140.3416  155.4261 H   0  0  0  0  0  0  0  0  0  0  0  0  # atno 8010 bound_to 7997
  139.4851  144.4516  151.8822 H   0  0  0  0  0  0  0  0  0  0  0  0  # atno 10167 bound_to 10162
  156.3014  130.7430  151.1483 H   0  0  0  0  0  0  0  0  0  0  0  0  # atno 10718 bound_to 10713
  153.3688  135.3936  155.1773 H   0  0  0  0  0  0  0  0  0  0  0  0  # atno 10763 bound_to 10752
  154.8691  135.3697  154.5004 H   0  0  0  0  0  0  0  0  0  0  0  0  # atno 10764 bound_to 10752
  153.5470  135.7083  153.5670 H   0  0  0  0  0  0  0  0  0  0  0  0  # atno 10765 bound_to 10752
  140.9485  133.7235  156.1184 H   0  0  0  0  0  0  0  0  0  0  0  0  # atno 11005 bound_to 11000
  146.2564  139.6312  142.9392 LP  0  0  0  0  0  0  0  0  0  0  0  0  # atno 17320 bound_to 7965
  145.5002  141.0437  143.2545 LP  0  0  0  0  0  0  0  0  0  0  0  0  # atno 17321 bound_to 7965
  140.3973  144.2538  150.5895 LP  0  0  0  0  0  0  0  0  0  0  0  0  # atno 17342 bound_to 10162
  140.5090  143.2296  151.8564 LP  0  0  0  0  0  0  0  0  0  0  0  0  # atno 17343 bound_to 10162
  157.7369  131.0558  150.5389 LP  0  0  0  0  0  0  0  0  0  0  0  0  # atno 17370 bound_to 10713
  156.5517  130.4233  149.6105 LP  0  0  0  0  0  0  0  0  0  0  0  0  # atno 17371 bound_to 10713
  140.7635  134.3912  157.5521 LP  0  0  0  0  0  0  0  0  0  0  0  0  # atno 17394 bound_to 11000
  139.8840  134.8977  156.2728 LP  0  0  0  0  0  0  0  0  0  0  0  0  # atno 17395 bound_to 11000

$$$$
