AV-unprocessed.smi:3296|AV-procd|sdf|12637|dock6
  -GOLD-   2272018573D 1   1.00000     0.00000
 Structure written by MMmdl.
 37 38  0  0  0  0  0  0  0  0  1 V2000
  150.6486  134.9042  154.8856 C   0  0  0  0  0  0  0  0  0  0  0  0
  150.7150  136.2363  154.3054 N   0  0  0  0  0  0  0  0  0  0  0  0
  151.4404  137.2451  154.8107 C   0  0  0  0  0  0  0  0  0  0  0  0
  152.1154  137.1463  155.8352 O   0  0  0  0  0  0  0  0  0  0  0  0
  151.3992  138.5693  154.0463 C   0  0  0  0  0  0  0  0  0  0  0  0
  150.8524  139.6139  154.9652 C   0  0  0  0  0  0  0  0  0  0  0  0
  151.3512  139.8620  156.1799 N   0  0  0  0  0  0  0  0  0  0  0  0
  150.6576  140.8731  156.8514 C   0  0  0  0  0  0  0  0  0  0  0  0
  151.0668  141.2655  158.2383 C   0  0  0  0  0  0  0  0  0  0  0  0
  152.4944  141.8334  158.2811 C   0  0  0  0  0  0  0  0  0  0  0  0
  152.7791  142.6767  159.5366 C   0  0  0  0  0  0  0  0  0  0  0  0
  152.7442  141.8657  160.8330 C   0  0  0  0  0  0  0  0  0  0  0  0
  152.6000  142.9163  161.9350 C   0  0  0  0  0  0  0  0  0  0  0  0
  151.8288  144.0834  161.3021 C   0  0  0  0  0  0  0  0  0  0  0  0
  151.7626  143.7959  159.7953 C   0  0  0  0  0  0  0  0  0  0  0  0
  149.6244  141.4002  156.1175 C   0  0  0  0  0  0  0  0  0  0  0  0
  149.4825  140.6416  154.5559 S   0  0  0  0  0  0  0  0  0  0  0  0
  149.9850  134.2736  154.2942 H   0  0  0  0  0  0  0  0  0  0  0  0
  150.2644  134.9427  155.9058 H   0  0  0  0  0  0  0  0  0  0  0  0
  151.6353  134.4395  154.9015 H   0  0  0  0  0  0  0  0  0  0  0  0
  150.1911  136.3991  153.4573 H   0  0  0  0  0  0  0  0  0  0  0  0
  152.3973  138.8507  153.7076 H   0  0  0  0  0  0  0  0  0  0  0  0
  150.7600  138.4840  153.1668 H   0  0  0  0  0  0  0  0  0  0  0  0
  150.3697  142.0047  158.6348 H   0  0  0  0  0  0  0  0  0  0  0  0
  150.9954  140.4020  158.9003 H   0  0  0  0  0  0  0  0  0  0  0  0
  153.2151  141.0172  158.2138 H   0  0  0  0  0  0  0  0  0  0  0  0
  152.6553  142.4533  157.3980 H   0  0  0  0  0  0  0  0  0  0  0  0
  153.7706  143.1245  159.4486 H   0  0  0  0  0  0  0  0  0  0  0  0
  151.8740  141.2076  160.8399 H   0  0  0  0  0  0  0  0  0  0  0  0
  153.6309  141.2446  160.9633 H   0  0  0  0  0  0  0  0  0  0  0  0
  152.1004  142.5180  162.8186 H   0  0  0  0  0  0  0  0  0  0  0  0
  153.5885  143.2580  162.2439 H   0  0  0  0  0  0  0  0  0  0  0  0
  150.8246  144.1671  161.7192 H   0  0  0  0  0  0  0  0  0  0  0  0
  152.3419  145.0256  161.4979 H   0  0  0  0  0  0  0  0  0  0  0  0
  151.9675  144.6851  159.1985 H   0  0  0  0  0  0  0  0  0  0  0  0
  150.7587  143.4546  159.5383 H   0  0  0  0  0  0  0  0  0  0  0  0
  148.9375  142.1835  156.4018 H   0  0  0  0  0  0  0  0  0  0  0  0
  1  2  1  0  0  0  0
  1 18  1  0  0  0  0
  1 19  1  0  0  0  0
  1 20  1  0  0  0  0
  2  3  1  0  0  0  0
  2 21  1  0  0  0  0
  3  4  2  0  0  0  0
  3  5  1  0  0  0  0
  5  6  1  0  0  0  0
  5 22  1  0  0  0  0
  5 23  1  0  0  0  0
  6 17  1  0  0  0  0
  6  7  2  0  0  0  0
  7  8  1  0  0  0  0
  8  9  1  0  0  0  0
  8 16  2  0  0  0  0
  9 10  1  0  0  0  0
  9 24  1  0  0  0  0
  9 25  1  0  0  0  0
 10 11  1  0  0  0  0
 10 26  1  0  0  0  0
 10 27  1  0  0  0  0
 11 15  1  0  0  0  0
 11 12  1  0  0  0  0
 11 28  1  0  0  0  0
 12 13  1  0  0  0  0
 12 29  1  0  0  0  0
 12 30  1  0  0  0  0
 13 14  1  0  0  0  0
 13 31  1  0  0  0  0
 13 32  1  0  0  0  0
 14 15  1  0  0  0  0
 14 33  1  0  0  0  0
 14 34  1  0  0  0  0
 15 35  1  0  0  0  0
 15 36  1  0  0  0  0
 16 17  1  0  0  0  0
 16 37  1  0  0  0  0
M  END
> <s_m_source_file>
AV-unprocessed.smi

> <i_m_source_file_index>
3296

> <i_lp_mmshare_version>
43012

> <i_f3d_flags>
0

> <s_epik_input>
W0NIM11bTkhdQyg9TylbQ0gyXWMxbmMoW2NIXXMxKVtDSDJdW0NIMl1bQ0hdMltDSDJdW0NIMl1bQ0gyXVtDSDJdMg==

> <s_epik_cmdline>
J2VwaWtfcHl0aG9uJywgJy1waCcsICc3LjAnLCAnLXRuJywgJzgnLCAnLW1hJywgJzIwMCcsICctbWV0YWxfYmluZGluZycsICctaW1hZScsICc8aW5maWxlLm1hZT4nLCAnLW9tYWUnLCAnPG91dGZpbGUubWFlPic=

> <r_lp_tautomer_probability>
1

> <r_epik_Ionization_Penalty>
6.30814e-05

> <r_epik_Ionization_Penalty_Charging>
0

> <r_epik_Ionization_Penalty_Neutral>
6.30814e-05

> <r_epik_State_Penalty>
-0

> <r_epik_Charging_Adjusted_Penalty>
0

> <i_epik_Tot_Q>
0

> <i_epik_Tot_abs_Q>
0

> <r_epik_Metal_State_Penalty>
-0

> <b_epik_Metal_Only>
0

> <s_lp_Force_Field>
OPLS_2005

> <r_lp_Energy>
17.2937

> <b_lp_Chiralities_Consistent>
1

> <s_lp_Variant>
AV-unprocessed.smi:3296-1

> <Gold.Version>
5.8.1

> <Gold.Id.Protein>
6NUR|6NUR_protein|mol2

> <Gold.PLP.Fitness>
46.0077

> <Gold.PLP.PLP>
-40.3214

> <Gold.PLP.part.hbond>
-2.6196

> <Gold.PLP.part.metal>
0.0000

> <Gold.PLP.part.buried>
-4.3479

> <Gold.PLP.part.nonpolar>
-32.4212

> <Gold.PLP.part.repulsive>
0.0916

> <Gold.PLP.ligand.clash>
0.0000

> <Gold.PLP.ligand.torsion>
0.1612

> <Gold.PLP.Chemscore.Hbond>
1.0000

> <Gold.PLP.Chemscore.CHOScore>
0.9951

> <Gold.PLP.Chemscore.Metal>
0.0000

> <Gold.Chemscore.Hbonds>
donor molecule, donor type, donor heavy atom, donor atom, acceptor molecule, acceptor atom, score
      L1  H     2    21       P1  7948  0.50
      L1  C    16    37       P1  8028  0.72

> <Gold.PLP.Chemscore.Internal.Correction>
0.0234

> <Gold.Rescore>
     Score         DG    S(hbond)    S(metal)    S(lipo)     H(rot)  DE(clash)    DE(int)     intcor
     15.56     -17.41       0.93        0.00     112.10       1.68       0.29       1.56       ----

> <Gold.Chemscore.Fitness>
15.5640

> <Gold.Chemscore.DG>
-17.4132

> <Gold.Chemscore.ZeroCoef>
-5.4800

> <Gold.Chemscore.Hbond>
0.9329

> <Gold.Chemscore.Metal>
0.0000

> <Gold.Chemscore.Lipo>
112.1040

> <Gold.Chemscore.Internal_Hbond>
0.0000

> <Gold.Chemscore.DEClash>
0.2914

> <Gold.Chemscore.DEInternal>
1.5578

> <Gold.Chemscore.Rot>
1.6792

> <Gold.Chemscore.Internal.Correction>
   9.000000E+99

> <Gold.Chemscore.Hbonds>
donor molecule, donor type, donor heavy atom, donor atom, acceptor molecule, acceptor atom, score
      L1  H     2    21       P1  7948  0.02

> <Gold.Chemscore.Hbond.Weighted>
-3.1159

> <Gold.Chemscore.Metal.Weighted>
-0.0000

> <Gold.Chemscore.Lipo.Weighted>
-13.1162

> <Gold.Chemscore.Internal_Hbond.Weighted>
0.0000

> <Gold.Chemscore.DEClash.Weighted>
0.2914

> <Gold.Chemscore.DEInternal.Weighted>
1.5578

> <Gold.Chemscore.Rot.Weighted>
4.2988

> <Gold.Chemscore.Internal.Correction.Weighted>
   9.000000E+99

> <Gold.Protein.RotatedTorsions>
[ 6907 6896 6895 6894 ] final  -50.90 input  -60.11 | X-H torsion
[ 7974 7965 7964 7962 ] final  132.34 input  175.53 | X-H torsion
[ 8008 7997 7996 7995 ] final   70.09 input   59.86 | X-H torsion
[ 10167 10162 10161 10158 ] final   52.26 input  -65.29 | X-H torsion
[ 10718 10713 10712 10709 ] final  133.13 input   66.30 | X-H torsion
[ 10763 10752 10751 10750 ] final   29.82 input  -60.55 | X-H torsion
[ 11005 11000 10999 10996 ] final -158.31 input  -57.11 | X-H torsion

> <Gold.Protein.ActiveResidues>
 VAL166  LYS551  ARG553  GLY616  TRP617  ASP618  TYR619  PRO620  LYS621  CYS622 
 ASP623  PHE694  ASN695  SER759  ASP760  ASP761  ALA762  ILE779  LEU786  VAL792 
 PHE793  MET794  SER795  GLU796  ALA797  LYS798  CYS799  TRP800  GLU811  SER814 

> <Gold.Protein.RotatedAtoms>
  150.8662  134.8026  159.7120 H   0  0  0  0  0  0  0  0  0  0  0  0  # atno 6907 bound_to 6896
  152.4683  134.5019  159.9737 H   0  0  0  0  0  0  0  0  0  0  0  0  # atno 6908 bound_to 6896
  151.5115  133.3445  159.2921 H   0  0  0  0  0  0  0  0  0  0  0  0  # atno 6909 bound_to 6896
  144.9978  139.4341  143.5307 H   0  0  0  0  0  0  0  0  0  0  0  0  # atno 7974 bound_to 7965
  155.7336  140.3491  155.5071 H   0  0  0  0  0  0  0  0  0  0  0  0  # atno 8008 bound_to 7997
  155.9160  140.1058  157.1265 H   0  0  0  0  0  0  0  0  0  0  0  0  # atno 8009 bound_to 7997
  154.4062  140.1259  156.4604 H   0  0  0  0  0  0  0  0  0  0  0  0  # atno 8010 bound_to 7997
  140.2533  144.3455  150.6341 H   0  0  0  0  0  0  0  0  0  0  0  0  # atno 10167 bound_to 10162
  157.4803  131.1085  150.9690 H   0  0  0  0  0  0  0  0  0  0  0  0  # atno 10718 bound_to 10713
  153.0408  135.6479  154.0949 H   0  0  0  0  0  0  0  0  0  0  0  0  # atno 10763 bound_to 10752
  154.0656  135.2884  155.3319 H   0  0  0  0  0  0  0  0  0  0  0  0  # atno 10764 bound_to 10752
  154.6628  135.5385  153.8104 H   0  0  0  0  0  0  0  0  0  0  0  0  # atno 10765 bound_to 10752
  140.6550  134.4410  157.5235 H   0  0  0  0  0  0  0  0  0  0  0  0  # atno 11005 bound_to 11000
  146.3445  139.9349  142.8748 LP  0  0  0  0  0  0  0  0  0  0  0  0  # atno 17320 bound_to 7965
  145.2195  140.9929  143.4054 LP  0  0  0  0  0  0  0  0  0  0  0  0  # atno 17321 bound_to 7965
  140.6024  143.2167  151.7047 LP  0  0  0  0  0  0  0  0  0  0  0  0  # atno 17342 bound_to 10162
  139.5039  144.3772  152.0411 LP  0  0  0  0  0  0  0  0  0  0  0  0  # atno 17343 bound_to 10162
  157.0426  130.5755  149.5358 LP  0  0  0  0  0  0  0  0  0  0  0  0  # atno 17370 bound_to 10713
  156.0118  130.5210  150.8012 LP  0  0  0  0  0  0  0  0  0  0  0  0  # atno 17371 bound_to 10713
  139.9032  134.8507  156.1808 LP  0  0  0  0  0  0  0  0  0  0  0  0  # atno 17394 bound_to 11000
  141.0508  133.6889  156.1769 LP  0  0  0  0  0  0  0  0  0  0  0  0  # atno 17395 bound_to 11000

$$$$
