AV-unprocessed.smi:2391|AV-procd|sdf|9481|dock9
  -GOLD-   2272013113D 1   1.00000     0.00000
 Structure written by MMmdl.
 35 36  0  0  0  0  0  0  0  0  1 V2000
  145.9735  137.8748  154.8051 O   0  0  0  0  0  0  0  0  0  0  0  0
  146.7585  137.3836  153.9940 C   0  0  0  0  0  0  0  0  0  0  0  0
  147.9336  137.9240  153.6265 N   0  0  0  0  0  0  0  0  0  0  0  0
  148.5181  139.1379  154.0747 C   0  0  0  0  0  0  0  0  0  0  0  0
  147.6157  140.2033  154.2811 C   0  0  0  0  0  0  0  0  0  0  0  0
  148.1277  141.4350  154.7236 C   0  0  0  0  0  0  0  0  0  0  0  0
  149.5152  141.5176  154.9311 C   0  0  0  0  0  0  0  0  0  0  0  0
  150.3427  140.4710  154.7211 N   0  0  0  0  0  0  0  0  0  0  0  0
  149.8481  139.3018  154.2996 N   0  0  0  0  0  0  0  0  0  0  0  0
  146.5423  136.2224  153.3586 N   0  0  0  0  0  0  0  0  0  0  0  0
  145.3603  135.3686  153.4979 C   0  0  2  0  0  0  0  0  0  0  0  0
  145.7998  133.8817  153.4867 C   0  0  0  0  0  0  0  0  0  0  0  0
  146.5274  133.4041  154.7486 C   0  0  0  0  0  0  0  0  0  0  0  0
  147.2505  132.1212  154.3300 C   0  0  0  0  0  0  0  0  0  0  0  0
  147.4902  132.2399  152.8190 C   0  0  0  0  0  0  0  0  0  0  0  0
  146.7988  133.5336  152.3733 C   0  0  0  0  0  0  0  0  0  0  0  0
  144.3495  135.7362  152.3876 C   0  0  0  0  0  0  0  0  0  0  0  0
  144.9305  135.6229  151.1924 F   0  0  0  0  0  0  0  0  0  0  0  0
  143.2936  134.9225  152.4271 F   0  0  0  0  0  0  0  0  0  0  0  0
  143.9319  136.9947  152.5167 F   0  0  0  0  0  0  0  0  0  0  0  0
  148.4730  137.4073  152.9479 H   0  0  0  0  0  0  0  0  0  0  0  0
  146.5565  140.0830  154.1052 H   0  0  0  0  0  0  0  0  0  0  0  0
  147.4826  142.2834  154.8971 H   0  0  0  0  0  0  0  0  0  0  0  0
  149.9699  142.4366  155.2703 H   0  0  0  0  0  0  0  0  0  0  0  0
  147.2466  135.9033  152.7097 H   0  0  0  0  0  0  0  0  0  0  0  0
  144.8755  135.5662  154.4557 H   0  0  0  0  0  0  0  0  0  0  0  0
  144.9181  133.2532  153.3508 H   0  0  0  0  0  0  0  0  0  0  0  0
  147.2595  134.1498  155.0623 H   0  0  0  0  0  0  0  0  0  0  0  0
  145.8508  133.2289  155.5852 H   0  0  0  0  0  0  0  0  0  0  0  0
  148.1784  131.9809  154.8854 H   0  0  0  0  0  0  0  0  0  0  0  0
  146.6163  131.2569  154.5320 H   0  0  0  0  0  0  0  0  0  0  0  0
  148.5542  132.2639  152.5805 H   0  0  0  0  0  0  0  0  0  0  0  0
  147.0612  131.3792  152.3047 H   0  0  0  0  0  0  0  0  0  0  0  0
  146.3195  133.4275  151.3996 H   0  0  0  0  0  0  0  0  0  0  0  0
  147.5435  134.3262  152.2850 H   0  0  0  0  0  0  0  0  0  0  0  0
  1  2  2  0  0  0  0
  2  3  1  0  0  0  0
  2 10  1  0  0  0  0
  3  4  1  0  0  0  0
  3 21  1  0  0  0  0
  4  9  1  0  0  0  0
  4  5  2  0  0  0  0
  5  6  1  0  0  0  0
  5 22  1  0  0  0  0
  6  7  2  0  0  0  0
  6 23  1  0  0  0  0
  7  8  1  0  0  0  0
  7 24  1  0  0  0  0
  8  9  2  0  0  0  0
 10 11  1  0  0  0  0
 10 25  1  0  0  0  0
 11 12  1  0  0  0  0
 11 17  1  0  0  0  0
 11 26  1  0  0  0  0
 12 16  1  0  0  0  0
 12 13  1  0  0  0  0
 12 27  1  0  0  0  0
 13 14  1  0  0  0  0
 13 28  1  0  0  0  0
 13 29  1  0  0  0  0
 14 15  1  0  0  0  0
 14 30  1  0  0  0  0
 14 31  1  0  0  0  0
 15 16  1  0  0  0  0
 15 32  1  0  0  0  0
 15 33  1  0  0  0  0
 16 34  1  0  0  0  0
 16 35  1  0  0  0  0
 17 18  1  0  0  0  0
 17 19  1  0  0  0  0
 17 20  1  0  0  0  0
M  END
> <s_m_source_file>
AV-unprocessed.smi

> <i_m_source_file_index>
2391

> <i_lp_mmshare_version>
43012

> <i_f3d_flags>
0

> <s_epik_input>
W0NIMl0xW0NIMl1bQ0gyXVtDSDJdW0NIXTFbQ0BIXShDKEYpKEYpRilbTkhdQyg9TylbTkhdYzJbY0hdW2NIXVtjSF1ubjI=

> <s_epik_cmdline>
J2VwaWtfcHl0aG9uJywgJy1waCcsICc3LjAnLCAnLXRuJywgJzgnLCAnLW1hJywgJzIwMCcsICctbWV0YWxfYmluZGluZycsICctaW1hZScsICc8aW5maWxlLm1hZT4nLCAnLW9tYWUnLCAnPG91dGZpbGUubWFlPic=

> <r_lp_tautomer_probability>
1

> <r_epik_Ionization_Penalty>
0.00359591

> <r_epik_Ionization_Penalty_Charging>
0

> <r_epik_Ionization_Penalty_Neutral>
0.00359591

> <r_epik_State_Penalty>
0.0123658

> <r_epik_Charging_Adjusted_Penalty>
0.0123658

> <i_epik_Tot_Q>
0

> <i_epik_Tot_abs_Q>
0

> <r_epik_Metal_State_Penalty>
0.0410426

> <b_epik_Metal_Only>
0

> <s_lp_Force_Field>
OPLS_2005

> <r_lp_Energy>
31.4517

> <b_lp_Chiralities_Consistent>
1

> <s_lp_Variant>
AV-unprocessed.smi:2391-1

> <Gold.Version>
5.8.1

> <Gold.Id.Protein>
6NUR|6NUR_protein|mol2

> <Gold.PLP.Fitness>
37.9155

> <Gold.PLP.PLP>
-27.4277

> <Gold.PLP.part.hbond>
-3.0000

> <Gold.PLP.part.metal>
0.0000

> <Gold.PLP.part.buried>
-4.3758

> <Gold.PLP.part.nonpolar>
-20.9347

> <Gold.PLP.part.repulsive>
0.3467

> <Gold.PLP.ligand.clash>
0.0000

> <Gold.PLP.ligand.torsion>
0.8363

> <Gold.PLP.Chemscore.Hbond>
2.9520

> <Gold.PLP.Chemscore.CHOScore>
0.9999

> <Gold.PLP.Chemscore.Metal>
0.0000

> <Gold.Chemscore.Hbonds>
donor molecule, donor type, donor heavy atom, donor atom, acceptor molecule, acceptor atom, score
      L1  H     3    21       P1  7948  1.00
      L1  H    10    25       P1  7948  0.98
      P1  H  7989  7998       L1     8  0.99
      L1  C     7    24       P1  8028  0.93

> <Gold.PLP.Chemscore.Internal.Correction>
0.3048

> <Gold.Rescore>
     Score         DG    S(hbond)    S(metal)    S(lipo)     H(rot)  DE(clash)    DE(int)     intcor
     12.90     -15.16       2.43        0.00      42.34       1.33       0.04       2.21       ----

> <Gold.Chemscore.Fitness>
12.9046

> <Gold.Chemscore.DG>
-15.1580

> <Gold.Chemscore.ZeroCoef>
-5.4800

> <Gold.Chemscore.Hbond>
2.4342

> <Gold.Chemscore.Metal>
0.0000

> <Gold.Chemscore.Lipo>
42.3373

> <Gold.Chemscore.Internal_Hbond>
0.0000

> <Gold.Chemscore.DEClash>
0.0427

> <Gold.Chemscore.DEInternal>
2.2107

> <Gold.Chemscore.Rot>
1.3304

> <Gold.Chemscore.Internal.Correction>
   9.000000E+99

> <Gold.Chemscore.Hbonds>
donor molecule, donor type, donor heavy atom, donor atom, acceptor molecule, acceptor atom, score
      L1  H     3    21       P1  7948  1.00
      L1  H    10    25       P1  7948  0.93
      P1  H  7989  7998       L1     8  0.33

> <Gold.Chemscore.Hbond.Weighted>
-8.1303

> <Gold.Chemscore.Metal.Weighted>
-0.0000

> <Gold.Chemscore.Lipo.Weighted>
-4.9535

> <Gold.Chemscore.Internal_Hbond.Weighted>
0.0000

> <Gold.Chemscore.DEClash.Weighted>
0.0427

> <Gold.Chemscore.DEInternal.Weighted>
2.2107

> <Gold.Chemscore.Rot.Weighted>
3.4057

> <Gold.Chemscore.Internal.Correction.Weighted>
   9.000000E+99

> <Gold.Protein.RotatedTorsions>
[ 6907 6896 6895 6894 ] final    7.79 input  -60.11 | X-H torsion
[ 7974 7965 7964 7962 ] final -159.64 input  175.53 | X-H torsion
[ 8008 7997 7996 7995 ] final  149.48 input   59.86 | X-H torsion
[ 10167 10162 10161 10158 ] final  -49.69 input  -65.29 | X-H torsion
[ 10718 10713 10712 10709 ] final  148.41 input   66.30 | X-H torsion
[ 10763 10752 10751 10750 ] final   -8.92 input  -60.55 | X-H torsion
[ 11005 11000 10999 10996 ] final  156.11 input  -57.11 | X-H torsion

> <Gold.Protein.ActiveResidues>
 VAL166  LYS551  ARG553  GLY616  TRP617  ASP618  TYR619  PRO620  LYS621  CYS622 
 ASP623  PHE694  ASN695  SER759  ASP760  ASP761  ALA762  ILE779  LEU786  VAL792 
 PHE793  MET794  SER795  GLU796  ALA797  LYS798  CYS799  TRP800  GLU811  SER814 

> <Gold.Protein.RotatedAtoms>
  151.6956  135.0939  160.0241 H   0  0  0  0  0  0  0  0  0  0  0  0  # atno 6907 bound_to 6896
  152.3752  133.6467  159.6126 H   0  0  0  0  0  0  0  0  0  0  0  0  # atno 6908 bound_to 6896
  150.7703  133.9122  159.3414 H   0  0  0  0  0  0  0  0  0  0  0  0  # atno 6909 bound_to 6896
  144.7457  140.3657  143.6087 H   0  0  0  0  0  0  0  0  0  0  0  0  # atno 7974 bound_to 7965
  156.2753  140.2100  156.5865 H   0  0  0  0  0  0  0  0  0  0  0  0  # atno 8008 bound_to 7997
  154.7016  140.0520  157.0487 H   0  0  0  0  0  0  0  0  0  0  0  0  # atno 8009 bound_to 7997
  155.0727  140.3178  155.4628 H   0  0  0  0  0  0  0  0  0  0  0  0  # atno 8010 bound_to 7997
  140.6673  143.2687  151.4251 H   0  0  0  0  0  0  0  0  0  0  0  0  # atno 10167 bound_to 10162
  157.3089  131.0884  151.1332 H   0  0  0  0  0  0  0  0  0  0  0  0  # atno 10718 bound_to 10713
  153.4473  135.7014  153.6131 H   0  0  0  0  0  0  0  0  0  0  0  0  # atno 10763 bound_to 10752
  153.4480  135.3764  155.2267 H   0  0  0  0  0  0  0  0  0  0  0  0  # atno 10764 bound_to 10752
  154.8728  135.3990  154.3881 H   0  0  0  0  0  0  0  0  0  0  0  0  # atno 10765 bound_to 10752
  140.1644  134.8587  157.2614 H   0  0  0  0  0  0  0  0  0  0  0  0  # atno 11005 bound_to 11000
  145.7131  139.1690  143.2527 LP  0  0  0  0  0  0  0  0  0  0  0  0  # atno 17320 bound_to 7965
  146.1332  140.7157  142.9402 LP  0  0  0  0  0  0  0  0  0  0  0  0  # atno 17321 bound_to 7965
  139.5927  144.1464  152.2107 LP  0  0  0  0  0  0  0  0  0  0  0  0  # atno 17342 bound_to 10162
  140.0824  144.5690  150.7113 LP  0  0  0  0  0  0  0  0  0  0  0  0  # atno 17343 bound_to 10162
  157.2661  130.6682  149.5997 LP  0  0  0  0  0  0  0  0  0  0  0  0  # atno 17370 bound_to 10713
  155.9676  130.4493  150.5654 LP  0  0  0  0  0  0  0  0  0  0  0  0  # atno 17371 bound_to 10713
  140.2451  134.3749  155.7464 LP  0  0  0  0  0  0  0  0  0  0  0  0  # atno 17394 bound_to 11000
  141.2212  133.7286  156.8850 LP  0  0  0  0  0  0  0  0  0  0  0  0  # atno 17395 bound_to 11000

$$$$
