AV-unprocessed.smi:2787|AV-procd|sdf|10758|dock7
  -GOLD-   2272015193D 1   1.00000     0.00000
 Structure written by MMmdl.
 36 37  0  0  0  0  0  0  0  0  2 V2000
  148.0260  139.6569  153.1625 O   0  0  0  0  0  0  0  0  0  0  0  0
  147.6253  140.8690  153.7652 C   0  0  0  0  0  0  0  0  0  0  0  0
  148.8119  141.5303  154.4815 C   0  0  0  0  0  0  0  0  0  0  0  0
  149.3130  140.7197  155.6909 C   0  0  0  0  0  0  0  0  0  0  0  0
  150.1552  141.5193  156.6374 C   0  0  0  0  0  0  0  0  0  0  0  0
  150.2793  142.8777  156.6802 N   0  3  0  0  0  0  0  0  0  0  0  0
  151.1618  143.2426  157.6971 C   0  0  0  0  0  0  0  0  0  0  0  0
  151.5970  144.4951  158.1193 C   0  0  0  0  0  0  0  0  0  0  0  0
  152.5063  144.5187  159.1970 C   0  0  0  0  0  0  0  0  0  0  0  0
  152.9474  143.3287  159.8114 C   0  0  0  0  0  0  0  0  0  0  0  0
  152.4998  142.0648  159.3733 C   0  0  0  0  0  0  0  0  0  0  0  0
  151.6019  142.0495  158.3058 C   0  0  0  0  0  0  0  0  0  0  0  0
  150.9577  141.0135  157.6180 N   0  0  0  0  0  0  0  0  0  0  0  0
  151.2104  139.6142  158.0007 C   0  0  0  0  0  0  0  0  0  0  0  0
  152.7045  139.2349  157.9428 C   0  0  2  0  0  0  0  0  0  0  0  0
  153.1359  139.1943  156.5961 O   0  0  0  0  0  0  0  0  0  0  0  0
  153.0049  137.8814  158.6154 C   0  0  0  0  0  0  0  0  0  0  0  0
  152.5213  137.8689  159.8578 F   0  0  0  0  0  0  0  0  0  0  0  0
  152.4083  136.9046  157.9321 F   0  0  0  0  0  0  0  0  0  0  0  0
  154.3167  137.6426  158.6430 F   0  0  0  0  0  0  0  0  0  0  0  0
  148.4486  139.8541  152.3400 H   0  0  0  0  0  0  0  0  0  0  0  0
  147.2086  141.5330  153.0074 H   0  0  0  0  0  0  0  0  0  0  0  0
  146.8294  140.6534  154.4787 H   0  0  0  0  0  0  0  0  0  0  0  0
  149.6268  141.6429  153.7652 H   0  0  0  0  0  0  0  0  0  0  0  0
  148.5332  142.5379  154.7933 H   0  0  0  0  0  0  0  0  0  0  0  0
  148.4644  140.3162  156.2441 H   0  0  0  0  0  0  0  0  0  0  0  0
  149.8969  139.8655  155.3466 H   0  0  0  0  0  0  0  0  0  0  0  0
  151.2605  145.4083  157.6504 H   0  0  0  0  0  0  0  0  0  0  0  0
  152.8725  145.4683  159.5599 H   0  0  0  0  0  0  0  0  0  0  0  0
  153.6431  143.3856  160.6360 H   0  0  0  0  0  0  0  0  0  0  0  0
  152.8421  141.1610  159.8554 H   0  0  0  0  0  0  0  0  0  0  0  0
  150.8333  139.4856  159.0155 H   0  0  0  0  0  0  0  0  0  0  0  0
  150.6099  138.9556  157.3734 H   0  0  0  0  0  0  0  0  0  0  0  0
  153.2865  140.0090  158.4450 H   0  0  0  0  0  0  0  0  0  0  0  0
  152.7483  138.4393  156.1812 H   0  0  0  0  0  0  0  0  0  0  0  0
  149.7921  143.5077  156.0559 H   0  0  0  0  0  0  0  0  0  0  0  0
  1  2  1  0  0  0  0
  1 21  1  0  0  0  0
  2  3  1  0  0  0  0
  2 22  1  0  0  0  0
  2 23  1  0  0  0  0
  3  4  1  0  0  0  0
  3 24  1  0  0  0  0
  3 25  1  0  0  0  0
  4  5  1  0  0  0  0
  4 26  1  0  0  0  0
  4 27  1  0  0  0  0
  5 13  1  0  0  0  0
  5  6  2  0  0  0  0
  6  7  1  0  0  0  0
  6 36  1  0  0  0  0
  7 12  2  0  0  0  0
  7  8  1  0  0  0  0
  8  9  2  0  0  0  0
  8 28  1  0  0  0  0
  9 10  1  0  0  0  0
  9 29  1  0  0  0  0
 10 11  2  0  0  0  0
 10 30  1  0  0  0  0
 11 12  1  0  0  0  0
 11 31  1  0  0  0  0
 12 13  1  0  0  0  0
 13 14  1  0  0  0  0
 14 15  1  0  0  0  0
 14 32  1  0  0  0  0
 14 33  1  0  0  0  0
 15 16  1  0  0  0  0
 15 17  1  0  0  0  0
 15 34  1  0  0  0  0
 16 35  1  0  0  0  0
 17 18  1  0  0  0  0
 17 19  1  0  0  0  0
 17 20  1  0  0  0  0
M  CHG  1   6   1
M  END
> <s_m_source_file>
AV-unprocessed.smi

> <i_m_source_file_index>
2787

> <i_lp_mmshare_version>
43012

> <i_f3d_flags>
0

> <s_epik_input>
W09IXVtDSDJdW0NIMl1bQ0gyXWMobjEpbihbQ0gyXVtDQEhdKFtPSF0pQyhGKShGKUYpYyhjMTIpW2NIXVtjSF1bY0hdW2NIXTI=

> <s_epik_cmdline>
J2VwaWtfcHl0aG9uJywgJy1waCcsICc3LjAnLCAnLXRuJywgJzgnLCAnLW1hJywgJzIwMCcsICctbWV0YWxfYmluZGluZycsICctaW1hZScsICc8aW5maWxlLm1hZT4nLCAnLW9tYWUnLCAnPG91dGZpbGUubWFlPic=

> <r_epik_Ionization_Penalty>
0.964009

> <r_epik_Ionization_Penalty_Charging>
0.952215

> <r_epik_Ionization_Penalty_Neutral>
0.0117938

> <r_epik_State_Penalty>
1.09527

> <r_epik_Charging_Adjusted_Penalty>
2.04749

> <i_epik_Tot_Q>
1

> <i_epik_Tot_abs_Q>
1

> <r_epik_Metal_State_Penalty>
5.08046

> <b_epik_Metal_Only>
0

> <s_lp_Force_Field>
OPLS_2005

> <r_lp_Energy>
17.2873

> <b_lp_Chiralities_Consistent>
1

> <s_lp_Variant>
AV-unprocessed.smi:2787-3

> <Gold.Version>
5.8.1

> <Gold.Id.Protein>
6NUR|6NUR_protein|mol2

> <Gold.PLP.Fitness>
53.3514

> <Gold.PLP.PLP>
-42.0163

> <Gold.PLP.part.hbond>
-2.8870

> <Gold.PLP.part.metal>
0.0000

> <Gold.PLP.part.buried>
-6.0357

> <Gold.PLP.part.nonpolar>
-34.4405

> <Gold.PLP.part.repulsive>
0.0501

> <Gold.PLP.ligand.clash>
0.0000

> <Gold.PLP.ligand.torsion>
0.3729

> <Gold.PLP.Chemscore.Hbond>
4.0000

> <Gold.PLP.Chemscore.CHOScore>
0.0000

> <Gold.PLP.Chemscore.Metal>
0.0000

> <Gold.Chemscore.Hbonds>
donor molecule, donor type, donor heavy atom, donor atom, acceptor molecule, acceptor atom, score
      L1  H     1    21       P1  7957  1.00
      L1  H     6    36       P1  8028  2.00
      P1  H  7997  8010       L1    16  1.00

> <Gold.PLP.Chemscore.Internal.Correction>
0.0809

> <Gold.Rescore>
     Score         DG    S(hbond)    S(metal)    S(lipo)     H(rot)  DE(clash)    DE(int)     intcor
     18.11     -18.50       2.97        0.00     103.47       3.51       0.05       0.34       ----

> <Gold.Chemscore.Fitness>
18.1104

> <Gold.Chemscore.DG>
-18.5008

> <Gold.Chemscore.ZeroCoef>
-5.4800

> <Gold.Chemscore.Hbond>
2.9676

> <Gold.Chemscore.Metal>
0.0000

> <Gold.Chemscore.Lipo>
103.4688

> <Gold.Chemscore.Internal_Hbond>
0.0000

> <Gold.Chemscore.DEClash>
0.0460

> <Gold.Chemscore.DEInternal>
0.3444

> <Gold.Chemscore.Rot>
3.5143

> <Gold.Chemscore.Internal.Correction>
   9.000000E+99

> <Gold.Chemscore.Hbonds>
donor molecule, donor type, donor heavy atom, donor atom, acceptor molecule, acceptor atom, score
      L1  H     1    21       P1  7957  1.00
      L1  H     6    36       P1  8028  0.95
      P1  H  7997  8010       L1    16  0.28

> <Gold.Chemscore.Hbond.Weighted>
-9.9117

> <Gold.Chemscore.Metal.Weighted>
-0.0000

> <Gold.Chemscore.Lipo.Weighted>
-12.1058

> <Gold.Chemscore.Internal_Hbond.Weighted>
0.0000

> <Gold.Chemscore.DEClash.Weighted>
0.0460

> <Gold.Chemscore.DEInternal.Weighted>
0.3444

> <Gold.Chemscore.Rot.Weighted>
8.9967

> <Gold.Chemscore.Internal.Correction.Weighted>
   9.000000E+99

> <Gold.Protein.RotatedTorsions>
[ 6907 6896 6895 6894 ] final    4.53 input  -60.11 | X-H torsion
[ 7974 7965 7964 7962 ] final   49.41 input  175.53 | X-H torsion
[ 8008 7997 7996 7995 ] final   56.52 input   59.86 | X-H torsion
[ 10167 10162 10161 10158 ] final  153.18 input  -65.29 | X-H torsion
[ 10718 10713 10712 10709 ] final   73.30 input   66.30 | X-H torsion
[ 10763 10752 10751 10750 ] final  116.73 input  -60.55 | X-H torsion
[ 11005 11000 10999 10996 ] final  -24.69 input  -57.11 | X-H torsion

> <Gold.Protein.ActiveResidues>
 VAL166  LYS551  ARG553  GLY616  TRP617  ASP618  TYR619  PRO620  LYS621  CYS622 
 ASP623  PHE694  ASN695  SER759  ASP760  ASP761  ALA762  ILE779  LEU786  VAL792 
 PHE793  MET794  SER795  GLU796  ALA797  LYS798  CYS799  TRP800  GLU811  SER814 

> <Gold.Protein.RotatedAtoms>
  151.6428  135.1011  160.0144 H   0  0  0  0  0  0  0  0  0  0  0  0  # atno 6907 bound_to 6896
  152.4045  133.6863  159.6353 H   0  0  0  0  0  0  0  0  0  0  0  0  # atno 6908 bound_to 6896
  150.7941  133.8651  159.3283 H   0  0  0  0  0  0  0  0  0  0  0  0  # atno 6909 bound_to 6896
  146.0111  139.4545  142.9955 H   0  0  0  0  0  0  0  0  0  0  0  0  # atno 7974 bound_to 7965
  155.5188  140.3479  155.4402 H   0  0  0  0  0  0  0  0  0  0  0  0  # atno 8008 bound_to 7997
  156.0799  140.1384  156.9752 H   0  0  0  0  0  0  0  0  0  0  0  0  # atno 8009 bound_to 7997
  154.4574  140.0948  156.6772 H   0  0  0  0  0  0  0  0  0  0  0  0  # atno 8010 bound_to 7997
  139.4828  144.5295  151.7746 H   0  0  0  0  0  0  0  0  0  0  0  0  # atno 10167 bound_to 10162
  157.6541  130.9621  150.1050 H   0  0  0  0  0  0  0  0  0  0  0  0  # atno 10718 bound_to 10713
  153.5417  135.3557  155.2721 H   0  0  0  0  0  0  0  0  0  0  0  0  # atno 10763 bound_to 10752
  154.8716  135.4092  154.3036 H   0  0  0  0  0  0  0  0  0  0  0  0  # atno 10764 bound_to 10752
  153.3745  135.7065  153.6680 H   0  0  0  0  0  0  0  0  0  0  0  0  # atno 10765 bound_to 10752
  140.8869  133.7615  156.0371 H   0  0  0  0  0  0  0  0  0  0  0  0  # atno 11005 bound_to 11000
  145.7340  141.0032  143.1336 LP  0  0  0  0  0  0  0  0  0  0  0  0  # atno 17320 bound_to 7965
  144.6953  139.9018  143.7459 LP  0  0  0  0  0  0  0  0  0  0  0  0  # atno 17321 bound_to 7965
  140.4819  144.1436  150.5934 LP  0  0  0  0  0  0  0  0  0  0  0  0  # atno 17342 bound_to 10162
  140.4268  143.2586  151.9647 LP  0  0  0  0  0  0  0  0  0  0  0  0  # atno 17343 bound_to 10162
  156.1962  130.3657  149.8846 LP  0  0  0  0  0  0  0  0  0  0  0  0  # atno 17370 bound_to 10713
  156.6762  130.8840  151.3569 LP  0  0  0  0  0  0  0  0  0  0  0  0  # atno 17371 bound_to 10713
  140.8394  134.3084  157.5319 LP  0  0  0  0  0  0  0  0  0  0  0  0  # atno 17394 bound_to 11000
  139.8725  134.9408  156.3779 LP  0  0  0  0  0  0  0  0  0  0  0  0  # atno 17395 bound_to 11000

$$$$
