AV-unprocessed.smi:1516|AV-procd|sdf|6119|dock3
  -GOLD-   22720 6253D 1   1.00000     0.00000
 Structure written by MMmdl.
 46 47  0  0  0  0  0  0  0  0  2 V2000
  144.8687  135.5356  151.5713 C   0  0  0  0  0  0  0  0  0  0  0  0
  144.5393  136.1124  152.8772 N   0  0  0  0  0  0  0  0  0  0  0  0
  143.6165  135.3356  153.7090 C   0  0  0  0  0  0  0  0  0  0  0  0
  145.0587  137.3015  153.2613 C   0  0  0  0  0  0  0  0  0  0  0  0
  144.8195  137.7938  154.3662 O   0  0  0  0  0  0  0  0  0  0  0  0
  145.9876  138.0511  152.2845 C   0  0  0  0  0  0  0  0  0  0  0  0
  147.3207  138.3071  152.8282 N   0  0  0  0  0  0  0  0  0  0  0  0
  147.6391  139.3207  153.6468 C   0  0  0  0  0  0  0  0  0  0  0  0
  146.8347  140.1800  154.0073 O   0  0  0  0  0  0  0  0  0  0  0  0
  148.9359  139.2753  153.9976 N   0  0  0  0  0  0  0  0  0  0  0  0
  149.6381  140.1239  154.8956 C   0  0  0  0  0  0  0  0  0  0  0  0
  150.7632  139.5942  155.5612 C   0  0  0  0  0  0  0  0  0  0  0  0
  151.4783  140.3943  156.4757 C   0  0  0  0  0  0  0  0  0  0  0  0
  151.0604  141.7229  156.7279 C   0  0  0  0  0  0  0  0  0  0  0  0
  151.7364  142.5702  157.6334 N   0  0  0  0  0  0  0  0  0  0  0  0
  151.5587  144.0073  157.4125 C   0  0  0  0  0  0  0  0  0  0  0  0
  152.6297  144.8232  158.1571 C   0  0  0  0  0  0  0  0  0  0  0  0
  152.6699  144.4543  159.6471 C   0  0  0  0  0  0  0  0  0  0  0  0
  152.8741  142.9410  159.8060 C   0  0  0  0  0  0  0  0  0  0  0  0
  151.7991  142.1539  159.0373 C   0  0  0  0  0  0  0  0  0  0  0  0
  149.9627  142.1818  156.0770 N   0  3  0  0  0  0  0  0  0  0  0  0
  149.2497  141.4518  155.1924 C   0  0  0  0  0  0  0  0  0  0  0  0
  145.9367  135.6141  151.3602 H   0  0  0  0  0  0  0  0  0  0  0  0
  144.3270  136.0576  150.7819 H   0  0  0  0  0  0  0  0  0  0  0  0
  144.6151  134.4771  151.5087 H   0  0  0  0  0  0  0  0  0  0  0  0
  142.7972  135.9540  154.0771 H   0  0  0  0  0  0  0  0  0  0  0  0
  144.1409  134.9115  154.5658 H   0  0  0  0  0  0  0  0  0  0  0  0
  143.1602  134.5105  153.1616 H   0  0  0  0  0  0  0  0  0  0  0  0
  146.1069  137.4511  151.3822 H   0  0  0  0  0  0  0  0  0  0  0  0
  145.5330  138.9954  151.9808 H   0  0  0  0  0  0  0  0  0  0  0  0
  148.0433  137.6464  152.5828 H   0  0  0  0  0  0  0  0  0  0  0  0
  149.4915  138.5607  153.5504 H   0  0  0  0  0  0  0  0  0  0  0  0
  151.0807  138.5785  155.3746 H   0  0  0  0  0  0  0  0  0  0  0  0
  152.3300  139.9706  156.9866 H   0  0  0  0  0  0  0  0  0  0  0  0
  151.5977  144.2636  156.3551 H   0  0  0  0  0  0  0  0  0  0  0  0
  150.5660  144.2911  157.7647 H   0  0  0  0  0  0  0  0  0  0  0  0
  153.6066  144.6376  157.7089 H   0  0  0  0  0  0  0  0  0  0  0  0
  152.4337  145.8895  158.0409 H   0  0  0  0  0  0  0  0  0  0  0  0
  153.4706  144.9982  160.1493 H   0  0  0  0  0  0  0  0  0  0  0  0
  151.7376  144.7546  160.1274 H   0  0  0  0  0  0  0  0  0  0  0  0
  153.8625  142.6657  159.4353 H   0  0  0  0  0  0  0  0  0  0  0  0
  152.8527  142.6681  160.8616 H   0  0  0  0  0  0  0  0  0  0  0  0
  150.8227  142.3074  159.4988 H   0  0  0  0  0  0  0  0  0  0  0  0
  152.0261  141.0893  159.1075 H   0  0  0  0  0  0  0  0  0  0  0  0
  148.3940  141.9592  154.7731 H   0  0  0  0  0  0  0  0  0  0  0  0
  149.6549  143.1358  156.2659 H   0  0  0  0  0  0  0  0  0  0  0  0
  1  2  1  0  0  0  0
  1 23  1  0  0  0  0
  1 24  1  0  0  0  0
  1 25  1  0  0  0  0
  2  3  1  0  0  0  0
  2  4  1  0  0  0  0
  3 26  1  0  0  0  0
  3 27  1  0  0  0  0
  3 28  1  0  0  0  0
  4  5  2  0  0  0  0
  4  6  1  0  0  0  0
  6  7  1  0  0  0  0
  6 29  1  0  0  0  0
  6 30  1  0  0  0  0
  7  8  1  0  0  0  0
  7 31  1  0  0  0  0
  8  9  2  0  0  0  0
  8 10  1  0  0  0  0
 10 11  1  0  0  0  0
 10 32  1  0  0  0  0
 11 22  1  0  0  0  0
 11 12  2  0  0  0  0
 12 13  1  0  0  0  0
 12 33  1  0  0  0  0
 13 14  2  0  0  0  0
 13 34  1  0  0  0  0
 14 15  1  0  0  0  0
 14 21  1  0  0  0  0
 15 20  1  0  0  0  0
 15 16  1  0  0  0  0
 16 17  1  0  0  0  0
 16 35  1  0  0  0  0
 16 36  1  0  0  0  0
 17 18  1  0  0  0  0
 17 37  1  0  0  0  0
 17 38  1  0  0  0  0
 18 19  1  0  0  0  0
 18 39  1  0  0  0  0
 18 40  1  0  0  0  0
 19 20  1  0  0  0  0
 19 41  1  0  0  0  0
 19 42  1  0  0  0  0
 20 43  1  0  0  0  0
 20 44  1  0  0  0  0
 21 22  2  0  0  0  0
 21 46  1  0  0  0  0
 22 45  1  0  0  0  0
M  CHG  1  21   1
M  END
> <s_m_source_file>
AV-unprocessed.smi

> <i_m_source_file_index>
1516

> <i_lp_mmshare_version>
43012

> <i_f3d_flags>
0

> <s_epik_input>
W0NIM11OKFtDSDNdKUMoPU8pW0NIMl1bTkhdQyg9TylbTkhdYzFbY0hdW2NIXWMobltjSF0xKU4yW0NIMl1bQ0gyXVtDSDJdW0NIMl1bQ0gyXTI=

> <s_epik_cmdline>
J2VwaWtfcHl0aG9uJywgJy1waCcsICc3LjAnLCAnLXRuJywgJzgnLCAnLW1hJywgJzIwMCcsICctbWV0YWxfYmluZGluZycsICctaW1hZScsICc8aW5maWxlLm1hZT4nLCAnLW9tYWUnLCAnPG91dGZpbGUubWFlPic=

> <r_lp_tautomer_probability>
0.999994

> <r_epik_Ionization_Penalty>
0.630512

> <r_epik_Ionization_Penalty_Charging>
0.630494

> <r_epik_Ionization_Penalty_Neutral>
1.88157e-05

> <r_epik_State_Penalty>
0.647303

> <r_epik_Charging_Adjusted_Penalty>
1.2778

> <i_epik_Tot_Q>
1

> <i_epik_Tot_abs_Q>
1

> <r_epik_Metal_State_Penalty>
0.825198

> <b_epik_Metal_Only>
0

> <s_lp_Force_Field>
OPLS_2005

> <r_lp_Energy>
27.3098

> <b_lp_Chiralities_Consistent>
1

> <s_lp_Variant>
AV-unprocessed.smi:1516-2

> <Gold.Version>
5.8.1

> <Gold.Id.Protein>
6NUR|6NUR_protein|mol2

> <Gold.PLP.Fitness>
56.7029

> <Gold.PLP.PLP>
-48.5379

> <Gold.PLP.part.hbond>
-4.0000

> <Gold.PLP.part.metal>
0.0000

> <Gold.PLP.part.buried>
-1.2733

> <Gold.PLP.part.nonpolar>
-45.3870

> <Gold.PLP.part.repulsive>
0.6875

> <Gold.PLP.ligand.clash>
0.0000

> <Gold.PLP.ligand.torsion>
0.6476

> <Gold.PLP.Chemscore.Hbond>
3.0000

> <Gold.PLP.Chemscore.CHOScore>
0.0000

> <Gold.PLP.Chemscore.Metal>
0.0000

> <Gold.Chemscore.Hbonds>
donor molecule, donor type, donor heavy atom, donor atom, acceptor molecule, acceptor atom, score
      L1  H     7    31       P1  7948  1.00
      L1  H    21    46       P1  8028  1.98

> <Gold.PLP.Chemscore.Internal.Correction>
0.4603

> <Gold.Rescore>
     Score         DG    S(hbond)    S(metal)    S(lipo)     H(rot)  DE(clash)    DE(int)     intcor
     17.60     -20.78       1.95        0.00     108.37       1.52       1.48       1.70       ----

> <Gold.Chemscore.Fitness>
17.6004

> <Gold.Chemscore.DG>
-20.7836

> <Gold.Chemscore.ZeroCoef>
-5.4800

> <Gold.Chemscore.Hbond>
1.9475

> <Gold.Chemscore.Metal>
0.0000

> <Gold.Chemscore.Lipo>
108.3726

> <Gold.Chemscore.Internal_Hbond>
0.0000

> <Gold.Chemscore.DEClash>
1.4796

> <Gold.Chemscore.DEInternal>
1.7036

> <Gold.Chemscore.Rot>
1.5159

> <Gold.Chemscore.Internal.Correction>
   9.000000E+99

> <Gold.Chemscore.Hbonds>
donor molecule, donor type, donor heavy atom, donor atom, acceptor molecule, acceptor atom, score
      L1  H     7    31       P1  7948  1.00
      L1  H    21    46       P1  8028  0.94

> <Gold.Chemscore.Hbond.Weighted>
-6.5047

> <Gold.Chemscore.Metal.Weighted>
-0.0000

> <Gold.Chemscore.Lipo.Weighted>
-12.6796

> <Gold.Chemscore.Internal_Hbond.Weighted>
0.0000

> <Gold.Chemscore.DEClash.Weighted>
1.4796

> <Gold.Chemscore.DEInternal.Weighted>
1.7036

> <Gold.Chemscore.Rot.Weighted>
3.8807

> <Gold.Chemscore.Internal.Correction.Weighted>
   9.000000E+99

> <Gold.Protein.RotatedTorsions>
[ 6907 6896 6895 6894 ] final   67.12 input  -60.11 | X-H torsion
[ 7974 7965 7964 7962 ] final  133.90 input  175.53 | X-H torsion
[ 8008 7997 7996 7995 ] final  105.48 input   59.86 | X-H torsion
[ 10167 10162 10161 10158 ] final -149.49 input  -65.29 | X-H torsion
[ 10718 10713 10712 10709 ] final  -32.12 input   66.30 | X-H torsion
[ 10763 10752 10751 10750 ] final   95.13 input  -60.55 | X-H torsion
[ 11005 11000 10999 10996 ] final  153.42 input  -57.11 | X-H torsion

> <Gold.Protein.ActiveResidues>
 VAL166  LYS551  ARG553  GLY616  TRP617  ASP618  TYR619  PRO620  LYS621  CYS622 
 ASP623  PHE694  ASN695  SER759  ASP760  ASP761  ALA762  ILE779  LEU786  VAL792 
 PHE793  MET794  SER795  GLU796  ALA797  LYS798  CYS799  TRP800  GLU811  SER814 

> <Gold.Protein.RotatedAtoms>
  152.4529  134.5354  159.9823 H   0  0  0  0  0  0  0  0  0  0  0  0  # atno 6907 bound_to 6896
  151.5422  133.3425  159.2945 H   0  0  0  0  0  0  0  0  0  0  0  0  # atno 6908 bound_to 6896
  150.8464  134.7805  159.7037 H   0  0  0  0  0  0  0  0  0  0  0  0  # atno 6909 bound_to 6896
  144.9818  139.4496  143.5382 H   0  0  0  0  0  0  0  0  0  0  0  0  # atno 7974 bound_to 7965
  156.1662  140.3130  155.8893 H   0  0  0  0  0  0  0  0  0  0  0  0  # atno 8008 bound_to 7997
  155.3681  140.0480  157.3063 H   0  0  0  0  0  0  0  0  0  0  0  0  # atno 8009 bound_to 7997
  154.5195  140.2193  155.9013 H   0  0  0  0  0  0  0  0  0  0  0  0  # atno 8010 bound_to 7997
  139.7438  143.8622  152.2569 H   0  0  0  0  0  0  0  0  0  0  0  0  # atno 10167 bound_to 10162
  156.3789  130.4352  149.7485 H   0  0  0  0  0  0  0  0  0  0  0  0  # atno 10718 bound_to 10713
  153.2497  135.4265  155.0784 H   0  0  0  0  0  0  0  0  0  0  0  0  # atno 10763 bound_to 10752
  154.8376  135.3423  154.6531 H   0  0  0  0  0  0  0  0  0  0  0  0  # atno 10764 bound_to 10752
  153.6953  135.7031  153.5135 H   0  0  0  0  0  0  0  0  0  0  0  0  # atno 10765 bound_to 10752
  140.1397  134.8747  157.2314 H   0  0  0  0  0  0  0  0  0  0  0  0  # atno 11005 bound_to 11000
  146.3410  139.9096  142.8782 LP  0  0  0  0  0  0  0  0  0  0  0  0  # atno 17320 bound_to 7965
  145.2410  141.0009  143.3936 LP  0  0  0  0  0  0  0  0  0  0  0  0  # atno 17321 bound_to 7965
  139.8580  144.7131  150.9133 LP  0  0  0  0  0  0  0  0  0  0  0  0  # atno 17342 bound_to 10162
  140.7789  143.3841  151.1424 LP  0  0  0  0  0  0  0  0  0  0  0  0  # atno 17343 bound_to 10162
  156.4583  130.7940  151.2960 LP  0  0  0  0  0  0  0  0  0  0  0  0  # atno 17370 bound_to 10713
  157.7490  131.0073  150.3187 LP  0  0  0  0  0  0  0  0  0  0  0  0  # atno 17371 bound_to 10713
  140.2738  134.3429  155.7365 LP  0  0  0  0  0  0  0  0  0  0  0  0  # atno 17394 bound_to 11000
  141.2184  133.7439  156.9262 LP  0  0  0  0  0  0  0  0  0  0  0  0  # atno 17395 bound_to 11000

$$$$
