AV-unprocessed.smi:1600|AV-procd|sdf|6429|dock2
  -GOLD-   22720 7 73D 1   1.00000     0.00000
 Structure written by MMmdl.
 46 47  0  0  0  0  0  0  0  0  2 V2000
  153.6390  138.8177  154.7579 C   0  0  0  0  0  0  0  0  0  0  0  0
  152.1469  138.7281  154.6288 C   0  0  0  0  0  0  0  0  0  0  0  0
  151.3486  137.5579  154.4713 C   0  0  0  0  0  0  0  0  0  0  0  0
  150.0795  138.0654  154.4086 C   0  0  0  0  0  0  0  0  0  0  0  0
  148.9010  137.4044  154.2558 N   0  0  0  0  0  0  0  0  0  0  0  0
  148.0459  136.9827  155.2039 C   0  0  0  0  0  0  0  0  0  0  0  0
  148.1974  137.1231  156.4176 O   0  0  0  0  0  0  0  0  0  0  0  0
  146.9802  136.3762  154.6615 N   0  0  0  0  0  0  0  0  0  0  0  0
  145.8572  135.8276  155.4150 C   0  0  0  0  0  0  0  0  0  0  0  0
  145.3031  134.5368  154.7813 C   0  0  2  0  0  0  0  0  0  0  0  0
  146.3568  133.6236  154.1563 C   0  0  0  0  0  0  0  0  0  0  0  0
  145.5975  132.8281  153.0853 C   0  0  0  0  0  0  0  0  0  0  0  0
  144.2811  133.4898  152.8976 N   0  3  2  0  0  0  0  0  0  0  0  0
  143.8000  133.5583  151.4887 C   0  0  0  0  0  0  0  0  0  0  0  0
  143.7555  132.1652  150.8316 C   0  0  0  0  0  0  0  0  0  0  0  0
  144.6850  134.4961  150.6454 C   0  0  0  0  0  0  0  0  0  0  0  0
  144.3512  134.7824  153.6133 C   0  0  0  0  0  0  0  0  0  0  0  0
  150.1427  139.4368  154.5203 N   0  0  0  0  0  0  0  0  0  0  0  0
  149.0714  140.4139  154.5065 C   0  0  0  0  0  0  0  0  0  0  0  0
  151.4238  139.8421  154.6556 N   0  0  0  0  0  0  0  0  0  0  0  0
  154.0953  137.8276  154.7508 H   0  0  0  0  0  0  0  0  0  0  0  0
  153.9241  139.3072  155.6894 H   0  0  0  0  0  0  0  0  0  0  0  0
  154.0707  139.3874  153.9345 H   0  0  0  0  0  0  0  0  0  0  0  0
  151.6742  136.5302  154.4154 H   0  0  0  0  0  0  0  0  0  0  0  0
  148.6313  137.2242  153.3000 H   0  0  0  0  0  0  0  0  0  0  0  0
  146.9338  136.3037  153.6555 H   0  0  0  0  0  0  0  0  0  0  0  0
  146.1622  135.6408  156.4461 H   0  0  0  0  0  0  0  0  0  0  0  0
  145.0778  136.5887  155.4596 H   0  0  0  0  0  0  0  0  0  0  0  0
  144.7617  133.9662  155.5380 H   0  0  0  0  0  0  0  0  0  0  0  0
  147.1360  134.2212  153.6807 H   0  0  0  0  0  0  0  0  0  0  0  0
  146.8384  132.9789  154.8924 H   0  0  0  0  0  0  0  0  0  0  0  0
  146.1792  132.8078  152.1625 H   0  0  0  0  0  0  0  0  0  0  0  0
  145.4353  131.7964  153.3988 H   0  0  0  0  0  0  0  0  0  0  0  0
  142.7850  133.9593  151.4964 H   0  0  0  0  0  0  0  0  0  0  0  0
  143.4485  132.2365  149.7876 H   0  0  0  0  0  0  0  0  0  0  0  0
  143.0426  131.5028  151.3228 H   0  0  0  0  0  0  0  0  0  0  0  0
  144.7337  131.6833  150.8550 H   0  0  0  0  0  0  0  0  0  0  0  0
  144.3417  134.5306  149.6109 H   0  0  0  0  0  0  0  0  0  0  0  0
  145.7223  134.1592  150.6364 H   0  0  0  0  0  0  0  0  0  0  0  0
  144.6714  135.5206  151.0167 H   0  0  0  0  0  0  0  0  0  0  0  0
  143.3684  135.1125  153.9514 H   0  0  0  0  0  0  0  0  0  0  0  0
  144.7594  135.5474  152.9501 H   0  0  0  0  0  0  0  0  0  0  0  0
  148.2809  140.1031  155.1902 H   0  0  0  0  0  0  0  0  0  0  0  0
  148.6628  140.4940  153.4988 H   0  0  0  0  0  0  0  0  0  0  0  0
  149.4404  141.3919  154.8195 H   0  0  0  0  0  0  0  0  0  0  0  0
  143.6144  132.9304  153.4104 H   0  0  0  0  0  0  0  0  0  0  0  0
  1  2  1  0  0  0  0
  1 21  1  0  0  0  0
  1 22  1  0  0  0  0
  1 23  1  0  0  0  0
  2 20  2  0  0  0  0
  2  3  1  0  0  0  0
  3  4  2  0  0  0  0
  3 24  1  0  0  0  0
  4  5  1  0  0  0  0
  4 18  1  0  0  0  0
  5  6  1  0  0  0  0
  5 25  1  0  0  0  0
  6  7  2  0  0  0  0
  6  8  1  0  0  0  0
  8  9  1  0  0  0  0
  8 26  1  0  0  0  0
  9 10  1  0  0  0  0
  9 27  1  0  0  0  0
  9 28  1  0  0  0  0
 10 17  1  0  0  0  0
 10 11  1  0  0  0  0
 10 29  1  0  0  0  0
 11 12  1  0  0  0  0
 11 30  1  0  0  0  0
 11 31  1  0  0  0  0
 12 13  1  0  0  0  0
 12 32  1  0  0  0  0
 12 33  1  0  0  0  0
 13 14  1  0  0  0  0
 13 17  1  0  0  0  0
 13 46  1  0  0  0  0
 14 15  1  0  0  0  0
 14 16  1  0  0  0  0
 14 34  1  0  0  0  0
 15 35  1  0  0  0  0
 15 36  1  0  0  0  0
 15 37  1  0  0  0  0
 16 38  1  0  0  0  0
 16 39  1  0  0  0  0
 16 40  1  0  0  0  0
 17 41  1  0  0  0  0
 17 42  1  0  0  0  0
 18 19  1  0  0  0  0
 18 20  1  0  0  0  0
 19 43  1  0  0  0  0
 19 44  1  0  0  0  0
 19 45  1  0  0  0  0
M  CHG  1  13   1
M  END
> <s_m_source_file>
AV-unprocessed.smi

> <i_m_source_file_index>
1600

> <i_lp_mmshare_version>
43012

> <i_f3d_flags>
0

> <s_epik_input>
W0NIM11jMVtjSF1jKG4objEpW0NIM10pW05IXUMoPU8pW05IXVtDSDJdW0NAQEhdMltDSDJdW0NIMl1OKFtDSDJdMilbQ0hdKFtDSDNdKVtDSDNd

> <s_epik_cmdline>
J2VwaWtfcHl0aG9uJywgJy1waCcsICc3LjAnLCAnLXRuJywgJzgnLCAnLW1hJywgJzIwMCcsICctbWV0YWxfYmluZGluZycsICctaW1hZScsICc8aW5maWxlLm1hZT4nLCAnLW9tYWUnLCAnPG91dGZpbGUubWFlPic=

> <r_lp_tautomer_probability>
1

> <r_epik_Ionization_Penalty>
0.000297652

> <r_epik_Ionization_Penalty_Charging>
0.000213653

> <r_epik_Ionization_Penalty_Neutral>
8.3999e-05

> <r_epik_State_Penalty>
-0

> <r_epik_Charging_Adjusted_Penalty>
0.000213653

> <i_epik_Tot_Q>
1

> <i_epik_Tot_abs_Q>
1

> <r_epik_Metal_State_Penalty>
-0

> <b_epik_Metal_Only>
0

> <s_lp_Force_Field>
OPLS_2005

> <r_lp_Energy>
32.0246

> <b_lp_Chiralities_Consistent>
1

> <s_lp_Variant>
AV-unprocessed.smi:1600-3

> <Gold.Version>
5.8.1

> <Gold.Id.Protein>
6NUR|6NUR_protein|mol2

> <Gold.PLP.Fitness>
40.5282

> <Gold.PLP.PLP>
-31.0763

> <Gold.PLP.part.hbond>
-3.0000

> <Gold.PLP.part.metal>
0.0000

> <Gold.PLP.part.buried>
-3.1298

> <Gold.PLP.part.nonpolar>
-26.1123

> <Gold.PLP.part.repulsive>
0.0852

> <Gold.PLP.ligand.clash>
0.0000

> <Gold.PLP.ligand.torsion>
1.1694

> <Gold.PLP.Chemscore.Hbond>
3.9120

> <Gold.PLP.Chemscore.CHOScore>
0.0000

> <Gold.PLP.Chemscore.Metal>
0.0000

> <Gold.Chemscore.Hbonds>
donor molecule, donor type, donor heavy atom, donor atom, acceptor molecule, acceptor atom, score
      L1  H     5    25       P1  7948  0.90
      L1  H    13    46       P1 10957  2.00
      P1  H  7989  7998       L1    20  1.00

> <Gold.PLP.Chemscore.Internal.Correction>
0.0547

> <Gold.Rescore>
     Score         DG    S(hbond)    S(metal)    S(lipo)     H(rot)  DE(clash)    DE(int)     intcor
     16.35     -17.71       2.57        0.00      62.68       1.44       0.18       1.18       ----

> <Gold.Chemscore.Fitness>
16.3526

> <Gold.Chemscore.DG>
-17.7130

> <Gold.Chemscore.ZeroCoef>
-5.4800

> <Gold.Chemscore.Hbond>
2.5682

> <Gold.Chemscore.Metal>
0.0000

> <Gold.Chemscore.Lipo>
62.6809

> <Gold.Chemscore.Internal_Hbond>
0.0000

> <Gold.Chemscore.DEClash>
0.1754

> <Gold.Chemscore.DEInternal>
1.1850

> <Gold.Chemscore.Rot>
1.4369

> <Gold.Chemscore.Internal.Correction>
   9.000000E+99

> <Gold.Chemscore.Hbonds>
donor molecule, donor type, donor heavy atom, donor atom, acceptor molecule, acceptor atom, score
      L1  H     5    25       P1  7948  0.87
      L1  H    13    46       P1 10957  0.70
      P1  H  7989  7998       L1    20  0.45

> <Gold.Chemscore.Hbond.Weighted>
-8.5778

> <Gold.Chemscore.Metal.Weighted>
-0.0000

> <Gold.Chemscore.Lipo.Weighted>
-7.3337

> <Gold.Chemscore.Internal_Hbond.Weighted>
0.0000

> <Gold.Chemscore.DEClash.Weighted>
0.1754

> <Gold.Chemscore.DEInternal.Weighted>
1.1850

> <Gold.Chemscore.Rot.Weighted>
3.6785

> <Gold.Chemscore.Internal.Correction.Weighted>
   9.000000E+99

> <Gold.Protein.RotatedTorsions>
[ 6907 6896 6895 6894 ] final   86.94 input  -60.11 | X-H torsion
[ 7974 7965 7964 7962 ] final -149.27 input  175.53 | X-H torsion
[ 8008 7997 7996 7995 ] final   -6.92 input   59.86 | X-H torsion
[ 10167 10162 10161 10158 ] final  -12.01 input  -65.29 | X-H torsion
[ 10718 10713 10712 10709 ] final   39.21 input   66.30 | X-H torsion
[ 10763 10752 10751 10750 ] final -147.83 input  -60.55 | X-H torsion
[ 11005 11000 10999 10996 ] final  -87.89 input  -57.11 | X-H torsion

> <Gold.Protein.ActiveResidues>
 VAL166  LYS551  ARG553  GLY616  TRP617  ASP618  TYR619  PRO620  LYS621  CYS622 
 ASP623  PHE694  ASN695  SER759  ASP760  ASP761  ALA762  ILE779  LEU786  VAL792 
 PHE793  MET794  SER795  GLU796  ALA797  LYS798  CYS799  TRP800  GLU811  SER814 

> <Gold.Protein.RotatedAtoms>
  152.5403  134.2353  159.8840 H   0  0  0  0  0  0  0  0  0  0  0  0  # atno 6907 bound_to 6896
  151.2323  133.4437  159.2612 H   0  0  0  0  0  0  0  0  0  0  0  0  # atno 6908 bound_to 6896
  151.0704  134.9808  159.8361 H   0  0  0  0  0  0  0  0  0  0  0  0  # atno 6909 bound_to 6896
  144.7978  140.5087  143.5728 H   0  0  0  0  0  0  0  0  0  0  0  0  # atno 7974 bound_to 7965
  154.5889  140.2420  155.7948 H   0  0  0  0  0  0  0  0  0  0  0  0  # atno 8008 bound_to 7997
  156.2233  140.2990  155.9960 H   0  0  0  0  0  0  0  0  0  0  0  0  # atno 8009 bound_to 7997
  155.2409  140.0407  157.2965 H   0  0  0  0  0  0  0  0  0  0  0  0  # atno 8010 bound_to 7997
  140.7152  143.5578  150.9229 H   0  0  0  0  0  0  0  0  0  0  0  0  # atno 10167 bound_to 10162
  157.3679  130.7685  149.7097 H   0  0  0  0  0  0  0  0  0  0  0  0  # atno 10718 bound_to 10713
  154.8265  135.3350  154.6879 H   0  0  0  0  0  0  0  0  0  0  0  0  # atno 10763 bound_to 10752
  153.7504  135.6939  153.4951 H   0  0  0  0  0  0  0  0  0  0  0  0  # atno 10764 bound_to 10752
  153.2181  135.4458  155.0407 H   0  0  0  0  0  0  0  0  0  0  0  0  # atno 10765 bound_to 10752
  141.1610  133.7537  156.9372 H   0  0  0  0  0  0  0  0  0  0  0  0  # atno 11005 bound_to 11000
  145.5629  139.1480  143.3331 LP  0  0  0  0  0  0  0  0  0  0  0  0  # atno 17320 bound_to 7965
  146.2251  140.5765  142.9000 LP  0  0  0  0  0  0  0  0  0  0  0  0  # atno 17321 bound_to 7965
  139.9303  143.6501  152.3078 LP  0  0  0  0  0  0  0  0  0  0  0  0  # atno 17342 bound_to 10162
  139.6949  144.7642  151.1373 LP  0  0  0  0  0  0  0  0  0  0  0  0  # atno 17343 bound_to 10162
  155.9750  130.4095  150.3884 LP  0  0  0  0  0  0  0  0  0  0  0  0  # atno 17370 bound_to 10713
  157.1970  131.0429  151.2670 LP  0  0  0  0  0  0  0  0  0  0  0  0  # atno 17371 bound_to 10713
  140.1346  134.9333  157.2384 LP  0  0  0  0  0  0  0  0  0  0  0  0  # atno 17394 bound_to 11000
  140.2911  134.3240  155.7315 LP  0  0  0  0  0  0  0  0  0  0  0  0  # atno 17395 bound_to 11000

$$$$
