AV-unprocessed.smi:2452|AV-procd|sdf|9686|dock9
  -GOLD-   2272013323D 1   1.00000     0.00000
 Structure written by MMmdl.
 34 35  0  0  0  0  0  0  0  0  1 V2000
  151.2647  138.1169  154.3756 C   0  0  0  0  0  0  0  0  0  0  0  0
  150.3591  139.3139  154.4171 C   0  0  0  0  0  0  0  0  0  0  0  0
  150.7613  140.4278  155.0070 N   0  0  0  0  0  0  0  0  0  0  0  0
  149.7011  141.3398  154.8899 O   0  0  0  0  0  0  0  0  0  0  0  0
  148.6725  140.7496  154.2224 C   0  0  0  0  0  0  0  0  0  0  0  0
  147.4362  141.5715  154.0618 C   0  0  0  0  0  0  0  0  0  0  0  0
  149.0548  139.4792  153.8820 C   0  0  0  0  0  0  0  0  0  0  0  0
  148.3276  138.4644  153.2084 N   0  0  0  0  0  0  0  0  0  0  0  0
  146.9951  138.3119  153.1616 C   0  0  0  0  0  0  0  0  0  0  0  0
  146.1782  139.0712  153.6818 O   0  0  0  0  0  0  0  0  0  0  0  0
  146.6531  137.2294  152.4501 N   0  0  0  0  0  0  0  0  0  0  0  0
  145.2851  136.7841  152.2103 C   0  0  0  0  0  0  0  0  0  0  0  0
  145.2418  135.5714  151.2658 C   0  0  1  0  0  0  0  0  0  0  0  0
  146.1653  134.4288  151.6835 C   0  0  0  0  0  0  0  0  0  0  0  0
  145.5037  133.1959  151.0849 C   0  0  0  0  0  0  0  0  0  0  0  0
  144.1042  133.6754  150.6888 C   0  0  0  0  0  0  0  0  0  0  0  0
  143.9655  134.9523  151.2951 O   0  0  0  0  0  0  0  0  0  0  0  0
  150.6973  137.1955  154.2441 H   0  0  0  0  0  0  0  0  0  0  0  0
  151.8380  138.0206  155.2983 H   0  0  0  0  0  0  0  0  0  0  0  0
  151.9719  138.1919  153.5494 H   0  0  0  0  0  0  0  0  0  0  0  0
  146.5426  140.9530  154.1457 H   0  0  0  0  0  0  0  0  0  0  0  0
  147.4227  142.0644  153.0898 H   0  0  0  0  0  0  0  0  0  0  0  0
  147.3788  142.3433  154.8294 H   0  0  0  0  0  0  0  0  0  0  0  0
  148.8742  137.8347  152.6396 H   0  0  0  0  0  0  0  0  0  0  0  0
  147.3903  136.6635  152.0562 H   0  0  0  0  0  0  0  0  0  0  0  0
  144.8050  136.5404  153.1595 H   0  0  0  0  0  0  0  0  0  0  0  0
  144.7225  137.6146  151.7827 H   0  0  0  0  0  0  0  0  0  0  0  0
  145.4707  135.8694  150.2406 H   0  0  0  0  0  0  0  0  0  0  0  0
  147.1898  134.5717  151.3385 H   0  0  0  0  0  0  0  0  0  0  0  0
  146.1866  134.3376  152.7705 H   0  0  0  0  0  0  0  0  0  0  0  0
  146.0473  132.8308  150.2127 H   0  0  0  0  0  0  0  0  0  0  0  0
  145.4598  132.3877  151.8157 H   0  0  0  0  0  0  0  0  0  0  0  0
  144.0284  133.7835  149.6058 H   0  0  0  0  0  0  0  0  0  0  0  0
  143.3181  132.9952  151.0182 H   0  0  0  0  0  0  0  0  0  0  0  0
  1  2  1  0  0  0  0
  1 18  1  0  0  0  0
  1 19  1  0  0  0  0
  1 20  1  0  0  0  0
  2  7  1  0  0  0  0
  2  3  2  0  0  0  0
  3  4  1  0  0  0  0
  4  5  1  0  0  0  0
  5  6  1  0  0  0  0
  5  7  2  0  0  0  0
  6 21  1  0  0  0  0
  6 22  1  0  0  0  0
  6 23  1  0  0  0  0
  7  8  1  0  0  0  0
  8  9  1  0  0  0  0
  8 24  1  0  0  0  0
  9 10  2  0  0  0  0
  9 11  1  0  0  0  0
 11 12  1  0  0  0  0
 11 25  1  0  0  0  0
 12 13  1  0  0  0  0
 12 26  1  0  0  0  0
 12 27  1  0  0  0  0
 13 17  1  0  0  0  0
 13 14  1  0  0  0  0
 13 28  1  0  0  0  0
 14 15  1  0  0  0  0
 14 29  1  0  0  0  0
 14 30  1  0  0  0  0
 15 16  1  0  0  0  0
 15 31  1  0  0  0  0
 15 32  1  0  0  0  0
 16 17  1  0  0  0  0
 16 33  1  0  0  0  0
 16 34  1  0  0  0  0
M  END
> <s_m_source_file>
AV-unprocessed.smi

> <i_m_source_file_index>
2452

> <i_lp_mmshare_version>
43012

> <i_f3d_flags>
0

> <s_epik_input>
W0NIM11jMW5vYyhbQ0gzXSljMVtOSF1DKD1PKVtOSF1bQ0gyXVtDQEBIXTJbQ0gyXVtDSDJdW0NIMl1PMg==

> <s_epik_cmdline>
J2VwaWtfcHl0aG9uJywgJy1waCcsICc3LjAnLCAnLXRuJywgJzgnLCAnLW1hJywgJzIwMCcsICctbWV0YWxfYmluZGluZycsICctaW1hZScsICc8aW5maWxlLm1hZT4nLCAnLW9tYWUnLCAnPG91dGZpbGUubWFlPic=

> <r_lp_tautomer_probability>
1

> <r_epik_Ionization_Penalty>
3.28451e-05

> <r_epik_Ionization_Penalty_Charging>
0

> <r_epik_Ionization_Penalty_Neutral>
3.28451e-05

> <r_epik_State_Penalty>
-0

> <r_epik_Charging_Adjusted_Penalty>
0

> <i_epik_Tot_Q>
0

> <i_epik_Tot_abs_Q>
0

> <r_epik_Metal_State_Penalty>
-0

> <b_epik_Metal_Only>
0

> <s_lp_Force_Field>
OPLS_2005

> <r_lp_Energy>
18.1661

> <b_lp_Chiralities_Consistent>
1

> <s_lp_Variant>
AV-unprocessed.smi:2452-2

> <Gold.Version>
5.8.1

> <Gold.Id.Protein>
6NUR|6NUR_protein|mol2

> <Gold.PLP.Fitness>
38.1477

> <Gold.PLP.PLP>
-31.2587

> <Gold.PLP.part.hbond>
-4.8462

> <Gold.PLP.part.metal>
0.0000

> <Gold.PLP.part.buried>
-1.7366

> <Gold.PLP.part.nonpolar>
-25.7549

> <Gold.PLP.part.repulsive>
0.8172

> <Gold.PLP.ligand.clash>
0.0000

> <Gold.PLP.ligand.torsion>
0.2419

> <Gold.PLP.Chemscore.Hbond>
2.4100

> <Gold.PLP.Chemscore.CHOScore>
0.0000

> <Gold.PLP.Chemscore.Metal>
0.0000

> <Gold.Chemscore.Hbonds>
donor molecule, donor type, donor heavy atom, donor atom, acceptor molecule, acceptor atom, score
      L1  H     8    24       P1  7948  0.96
      L1  H    11    25       P1  7948  1.00
      P1  H  7989  7998       L1     3  0.38

> <Gold.PLP.Chemscore.Internal.Correction>
0.1429

> <Gold.Rescore>
     Score         DG    S(hbond)    S(metal)    S(lipo)     H(rot)  DE(clash)    DE(int)     intcor
     15.59     -16.08       1.91        0.00      62.99       1.23       0.06       0.44       ----

> <Gold.Chemscore.Fitness>
15.5886

> <Gold.Chemscore.DG>
-16.0843

> <Gold.Chemscore.ZeroCoef>
-5.4800

> <Gold.Chemscore.Hbond>
1.9141

> <Gold.Chemscore.Metal>
0.0000

> <Gold.Chemscore.Lipo>
62.9855

> <Gold.Chemscore.Internal_Hbond>
0.0000

> <Gold.Chemscore.DEClash>
0.0561

> <Gold.Chemscore.DEInternal>
0.4395

> <Gold.Chemscore.Rot>
1.2337

> <Gold.Chemscore.Internal.Correction>
   9.000000E+99

> <Gold.Chemscore.Hbonds>
donor molecule, donor type, donor heavy atom, donor atom, acceptor molecule, acceptor atom, score
      L1  H     8    24       P1  7948  0.92
      L1  H    11    25       P1  7948  0.97

> <Gold.Chemscore.Hbond.Weighted>
-6.3932

> <Gold.Chemscore.Metal.Weighted>
-0.0000

> <Gold.Chemscore.Lipo.Weighted>
-7.3693

> <Gold.Chemscore.Internal_Hbond.Weighted>
0.0000

> <Gold.Chemscore.DEClash.Weighted>
0.0561

> <Gold.Chemscore.DEInternal.Weighted>
0.4395

> <Gold.Chemscore.Rot.Weighted>
3.1582

> <Gold.Chemscore.Internal.Correction.Weighted>
   9.000000E+99

> <Gold.Protein.RotatedTorsions>
[ 6907 6896 6895 6894 ] final   74.93 input  -60.11 | X-H torsion
[ 7974 7965 7964 7962 ] final   43.41 input  175.53 | X-H torsion
[ 8008 7997 7996 7995 ] final    0.94 input   59.86 | X-H torsion
[ 10167 10162 10161 10158 ] final  -71.47 input  -65.29 | X-H torsion
[ 10718 10713 10712 10709 ] final   91.23 input   66.30 | X-H torsion
[ 10763 10752 10751 10750 ] final   37.77 input  -60.55 | X-H torsion
[ 11005 11000 10999 10996 ] final -130.55 input  -57.11 | X-H torsion

> <Gold.Protein.ActiveResidues>
 VAL166  LYS551  ARG553  GLY616  TRP617  ASP618  TYR619  PRO620  LYS621  CYS622 
 ASP623  PHE694  ASN695  SER759  ASP760  ASP761  ALA762  ILE779  LEU786  VAL792 
 PHE793  MET794  SER795  GLU796  ALA797  LYS798  CYS799  TRP800  GLU811  SER814 

> <Gold.Protein.RotatedAtoms>
  152.5000  134.4197  159.9476 H   0  0  0  0  0  0  0  0  0  0  0  0  # atno 6907 bound_to 6896
  151.4170  133.3704  159.2759 H   0  0  0  0  0  0  0  0  0  0  0  0  # atno 6908 bound_to 6896
  150.9250  134.8689  159.7573 H   0  0  0  0  0  0  0  0  0  0  0  0  # atno 6909 bound_to 6896
  146.0658  139.5190  142.9629 H   0  0  0  0  0  0  0  0  0  0  0  0  # atno 7974 bound_to 7965
  154.6739  140.2618  155.6978 H   0  0  0  0  0  0  0  0  0  0  0  0  # atno 8008 bound_to 7997
  156.2670  140.2823  156.1181 H   0  0  0  0  0  0  0  0  0  0  0  0  # atno 8009 bound_to 7997
  155.1128  140.0376  157.2719 H   0  0  0  0  0  0  0  0  0  0  0  0  # atno 8010 bound_to 7997
  140.5270  143.2325  151.7329 H   0  0  0  0  0  0  0  0  0  0  0  0  # atno 10167 bound_to 10162
  157.6960  131.0400  150.3698 H   0  0  0  0  0  0  0  0  0  0  0  0  # atno 10718 bound_to 10713
  153.0025  135.6268  154.2199 H   0  0  0  0  0  0  0  0  0  0  0  0  # atno 10763 bound_to 10752
  154.1942  135.2807  155.3014 H   0  0  0  0  0  0  0  0  0  0  0  0  # atno 10764 bound_to 10752
  154.5736  135.5669  153.7177 H   0  0  0  0  0  0  0  0  0  0  0  0  # atno 10765 bound_to 10752
  140.9336  134.1287  157.4213 H   0  0  0  0  0  0  0  0  0  0  0  0  # atno 11005 bound_to 11000
  145.6480  141.0269  143.1775 LP  0  0  0  0  0  0  0  0  0  0  0  0  # atno 17320 bound_to 7965
  144.7201  139.8059  143.7385 LP  0  0  0  0  0  0  0  0  0  0  0  0  # atno 17321 bound_to 7965
  139.4941  144.4170  152.0019 LP  0  0  0  0  0  0  0  0  0  0  0  0  # atno 17342 bound_to 10162
  140.3270  144.3361  150.5996 LP  0  0  0  0  0  0  0  0  0  0  0  0  # atno 17343 bound_to 10162
  156.4125  130.3937  149.6882 LP  0  0  0  0  0  0  0  0  0  0  0  0  # atno 17370 bound_to 10713
  156.4161  130.7746  151.2761 LP  0  0  0  0  0  0  0  0  0  0  0  0  # atno 17371 bound_to 10713
  139.8802  135.0013  156.6061 LP  0  0  0  0  0  0  0  0  0  0  0  0  # atno 17394 bound_to 11000
  140.7830  133.8645  155.8583 LP  0  0  0  0  0  0  0  0  0  0  0  0  # atno 17395 bound_to 11000

$$$$
