AV-unprocessed.smi:189|AV-procd|sdf|1485|dock1
  -GOLD-   2262019303D 1   1.00000     0.00000
 Structure written by MMmdl.
 53 57  0  0  0  0  0  0  0  0  1 V2000
  150.4386  141.9886  155.7876 C   0  0  0  0  0  0  0  0  0  0  0  0
  150.3198  141.5584  157.2646 C   0  0  2  0  0  0  0  0  0  0  0  0
  150.7220  142.7176  158.2095 C   0  0  0  0  0  0  0  0  0  0  0  0
  151.6056  142.0414  159.2532 C   0  0  2  0  0  0  0  0  0  0  0  0
  152.6476  142.8859  159.9964 C   0  0  0  0  0  0  0  0  0  0  0  0
  153.4636  141.9684  160.9313 C   0  0  0  0  0  0  0  0  0  0  0  0
  154.0648  140.7538  160.1873 C   0  0  0  0  0  0  0  0  0  0  0  0
  153.0088  139.9765  159.3730 C   0  0  0  0  0  0  0  0  0  0  0  0
  152.2825  140.9551  158.4312 C   0  0  1  0  0  0  0  0  0  0  0  0
  151.1835  140.4280  157.6368 N   0  0  0  0  0  0  0  0  0  0  0  0
  151.3464  139.4027  156.7628 C   0  0  0  0  0  0  0  0  0  0  0  0
  152.2729  139.4953  155.7732 N   0  0  0  0  0  0  0  0  0  0  0  0
  152.4266  138.4972  154.8986 C   0  0  0  0  0  0  0  0  0  0  0  0
  151.7684  137.3382  154.8308 N   0  0  0  0  0  0  0  0  0  0  0  0
  150.8370  137.2394  155.8221 C   0  0  0  0  0  0  0  0  0  0  0  0
  150.5622  138.2172  156.8195 C   0  0  0  0  0  0  0  0  0  0  0  0
  149.5484  137.7680  157.6571 N   0  0  0  0  0  0  0  0  0  0  0  0
  149.2389  136.5936  157.1796 C   0  0  0  0  0  0  0  0  0  0  0  0
  149.9674  136.1944  156.0817 N   0  0  0  0  0  0  0  0  0  0  0  0
  149.8304  134.9407  155.3562 C   0  0  0  0  0  0  0  0  0  0  0  0
  148.3901  134.6710  154.8620 C   0  0  2  0  0  0  0  0  0  0  0  0
  147.8760  135.8517  154.2694 O   0  0  0  0  0  0  0  0  0  0  0  0
  147.4292  134.2191  155.9581 C   0  0  0  0  0  0  0  0  0  0  0  0
  146.4721  133.2995  155.2130 C   0  0  0  0  0  0  0  0  0  0  0  0
  147.3355  132.6104  154.3250 O   0  0  0  0  0  0  0  0  0  0  0  0
  148.3021  133.5308  153.8279 C   0  0  0  0  0  0  0  0  0  0  0  0
  149.8451  142.8829  155.5971 H   0  0  0  0  0  0  0  0  0  0  0  0
  150.0782  141.2164  155.1083 H   0  0  0  0  0  0  0  0  0  0  0  0
  151.4720  142.2134  155.5208 H   0  0  0  0  0  0  0  0  0  0  0  0
  149.2898  141.2718  157.4787 H   0  0  0  0  0  0  0  0  0  0  0  0
  151.3004  143.4726  157.6746 H   0  0  0  0  0  0  0  0  0  0  0  0
  149.8586  143.2140  158.6531 H   0  0  0  0  0  0  0  0  0  0  0  0
  150.9479  141.5738  159.9893 H   0  0  0  0  0  0  0  0  0  0  0  0
  153.3110  143.3788  159.2846 H   0  0  0  0  0  0  0  0  0  0  0  0
  152.1588  143.6727  160.5713 H   0  0  0  0  0  0  0  0  0  0  0  0
  154.2580  142.5399  161.4117 H   0  0  0  0  0  0  0  0  0  0  0  0
  152.8174  141.6098  161.7335 H   0  0  0  0  0  0  0  0  0  0  0  0
  154.8487  141.1015  159.5131 H   0  0  0  0  0  0  0  0  0  0  0  0
  154.5492  140.0855  160.8999 H   0  0  0  0  0  0  0  0  0  0  0  0
  153.4958  139.1758  158.8174 H   0  0  0  0  0  0  0  0  0  0  0  0
  152.2944  139.5001  160.0455 H   0  0  0  0  0  0  0  0  0  0  0  0
  153.0072  141.4049  157.7496 H   0  0  0  0  0  0  0  0  0  0  0  0
  153.1846  138.6499  154.1447 H   0  0  0  0  0  0  0  0  0  0  0  0
  148.4682  135.9785  157.6214 H   0  0  0  0  0  0  0  0  0  0  0  0
  150.5234  134.9540  154.5140 H   0  0  0  0  0  0  0  0  0  0  0  0
  150.1604  134.1314  156.0088 H   0  0  0  0  0  0  0  0  0  0  0  0
  148.1844  135.8974  153.3771 H   0  0  0  0  0  0  0  0  0  0  0  0
  147.9611  133.6318  156.7074 H   0  0  0  0  0  0  0  0  0  0  0  0
  146.9284  135.0397  156.4736 H   0  0  0  0  0  0  0  0  0  0  0  0
  145.9432  132.6135  155.8749 H   0  0  0  0  0  0  0  0  0  0  0  0
  145.7367  133.8719  154.6453 H   0  0  0  0  0  0  0  0  0  0  0  0
  147.9926  133.8902  152.8451 H   0  0  0  0  0  0  0  0  0  0  0  0
  149.2530  133.0126  153.6991 H   0  0  0  0  0  0  0  0  0  0  0  0
  1  2  1  0  0  0  0
  1 27  1  0  0  0  0
  1 28  1  0  0  0  0
  1 29  1  0  0  0  0
  2 10  1  0  0  0  0
  2  3  1  0  0  0  0
  2 30  1  0  0  0  0
  3  4  1  0  0  0  0
  3 31  1  0  0  0  0
  3 32  1  0  0  0  0
  4  9  1  0  0  0  0
  4  5  1  0  0  0  0
  4 33  1  0  0  0  0
  5  6  1  0  0  0  0
  5 34  1  0  0  0  0
  5 35  1  0  0  0  0
  6  7  1  0  0  0  0
  6 36  1  0  0  0  0
  6 37  1  0  0  0  0
  7  8  1  0  0  0  0
  7 38  1  0  0  0  0
  7 39  1  0  0  0  0
  8  9  1  0  0  0  0
  8 40  1  0  0  0  0
  8 41  1  0  0  0  0
  9 10  1  0  0  0  0
  9 42  1  0  0  0  0
 10 11  1  0  0  0  0
 11 16  1  0  0  0  0
 11 12  2  0  0  0  0
 12 13  1  0  0  0  0
 13 14  2  0  0  0  0
 13 43  1  0  0  0  0
 14 15  1  0  0  0  0
 15 19  1  0  0  0  0
 15 16  2  0  0  0  0
 16 17  1  0  0  0  0
 17 18  2  0  0  0  0
 18 19  1  0  0  0  0
 18 44  1  0  0  0  0
 19 20  1  0  0  0  0
 20 21  1  0  0  0  0
 20 45  1  0  0  0  0
 20 46  1  0  0  0  0
 21 26  1  0  0  0  0
 21 22  1  0  0  0  0
 21 23  1  0  0  0  0
 22 47  1  0  0  0  0
 23 24  1  0  0  0  0
 23 48  1  0  0  0  0
 23 49  1  0  0  0  0
 24 25  1  0  0  0  0
 24 50  1  0  0  0  0
 24 51  1  0  0  0  0
 25 26  1  0  0  0  0
 26 52  1  0  0  0  0
 26 53  1  0  0  0  0
M  END
> <s_m_source_file>
AV-unprocessed.smi

> <i_m_source_file_index>
189

> <i_lp_mmshare_version>
43012

> <i_f3d_flags>
0

> <s_epik_input>
W0NIMl0xW0NIMl1bQ0gyXVtDSDJdW0NASF0oW0NASF0xMilOKFtDQEhdKFtDSDNdKVtDSDJdMiljKG5bY0hdbjMpYyhjMzQpbltjSF1uNFtDSDJdW0NAQF01KFtPSF0pW0NIMl1bQ0gyXU9bQ0gyXTU=

> <s_epik_cmdline>
J2VwaWtfcHl0aG9uJywgJy1waCcsICc3LjAnLCAnLXRuJywgJzgnLCAnLW1hJywgJzIwMCcsICctbWV0YWxfYmluZGluZycsICctaW1hZScsICc8aW5maWxlLm1hZT4nLCAnLW9tYWUnLCAnPG91dGZpbGUubWFlPic=

> <r_lp_tautomer_probability>
1

> <r_epik_Ionization_Penalty>
0.00594261

> <r_epik_Ionization_Penalty_Charging>
0

> <r_epik_Ionization_Penalty_Neutral>
0.00594261

> <r_epik_State_Penalty>
0.00429776

> <r_epik_Charging_Adjusted_Penalty>
0.00429776

> <i_epik_Tot_Q>
0

> <i_epik_Tot_abs_Q>
0

> <r_epik_Metal_State_Penalty>
-0

> <b_epik_Metal_Only>
0

> <s_lp_Force_Field>
OPLS_2005

> <r_lp_Energy>
58.6518

> <b_lp_Chiralities_Consistent>
1

> <s_lp_Variant>
AV-unprocessed.smi:189-11

> <Gold.Version>
5.8.1

> <Gold.Id.Protein>
6NUR|6NUR_protein|mol2

> <Gold.PLP.Fitness>
50.1792

> <Gold.PLP.PLP>
-42.5749

> <Gold.PLP.part.hbond>
-2.7913

> <Gold.PLP.part.metal>
0.0000

> <Gold.PLP.part.buried>
-7.0268

> <Gold.PLP.part.nonpolar>
-33.0661

> <Gold.PLP.part.repulsive>
0.1573

> <Gold.PLP.ligand.clash>
0.0000

> <Gold.PLP.ligand.torsion>
0.5453

> <Gold.PLP.Chemscore.Hbond>
2.7680

> <Gold.PLP.Chemscore.CHOScore>
0.0000

> <Gold.PLP.Chemscore.Metal>
0.0000

> <Gold.Chemscore.Hbonds>
donor molecule, donor type, donor heavy atom, donor atom, acceptor molecule, acceptor atom, score
      L1  H    22    47       P1  7948  1.00
      P1  H  7997  8010       L1    12  0.54
      P1  H 10752 10763       L1    14  0.81

> <Gold.PLP.Chemscore.Internal.Correction>
0.3909

> <Gold.Rescore>
     Score         DG    S(hbond)    S(metal)    S(lipo)     H(rot)  DE(clash)    DE(int)     intcor
     19.59     -20.46       2.57        0.00      99.16       2.03       0.21       0.66       ----

> <Gold.Chemscore.Fitness>
19.5856

> <Gold.Chemscore.DG>
-20.4552

> <Gold.Chemscore.ZeroCoef>
-5.4800

> <Gold.Chemscore.Hbond>
2.5658

> <Gold.Chemscore.Metal>
0.0000

> <Gold.Chemscore.Lipo>
99.1558

> <Gold.Chemscore.Internal_Hbond>
0.0000

> <Gold.Chemscore.DEClash>
0.2061

> <Gold.Chemscore.DEInternal>
0.6635

> <Gold.Chemscore.Rot>
2.0297

> <Gold.Chemscore.Internal.Correction>
   9.000000E+99

> <Gold.Chemscore.Hbonds>
donor molecule, donor type, donor heavy atom, donor atom, acceptor molecule, acceptor atom, score
      L1  H    22    47       P1  7948  1.00
      P1  H  7997  8010       L1    12  0.21
      P1  H 10752 10763       L1    14  0.68

> <Gold.Chemscore.Hbond.Weighted>
-8.5699

> <Gold.Chemscore.Metal.Weighted>
-0.0000

> <Gold.Chemscore.Lipo.Weighted>
-11.6012

> <Gold.Chemscore.Internal_Hbond.Weighted>
0.0000

> <Gold.Chemscore.DEClash.Weighted>
0.2061

> <Gold.Chemscore.DEInternal.Weighted>
0.6635

> <Gold.Chemscore.Rot.Weighted>
5.1960

> <Gold.Chemscore.Internal.Correction.Weighted>
   9.000000E+99

> <Gold.Protein.RotatedTorsions>
[ 6907 6896 6895 6894 ] final   81.11 input  -60.11 | X-H torsion
[ 7974 7965 7964 7962 ] final   12.94 input  175.53 | X-H torsion
[ 8008 7997 7996 7995 ] final   86.39 input   59.86 | X-H torsion
[ 10167 10162 10161 10158 ] final   66.44 input  -65.29 | X-H torsion
[ 10718 10713 10712 10709 ] final   20.85 input   66.30 | X-H torsion
[ 10763 10752 10751 10750 ] final   47.92 input  -60.55 | X-H torsion
[ 11005 11000 10999 10996 ] final  142.29 input  -57.11 | X-H torsion

> <Gold.Protein.ActiveResidues>
 VAL166  LYS551  ARG553  GLY616  TRP617  ASP618  TYR619  PRO620  LYS621  CYS622 
 ASP623  PHE694  ASN695  SER759  ASP760  ASP761  ALA762  ILE779  LEU786  VAL792 
 PHE793  MET794  SER795  GLU796  ALA797  LYS798  CYS799  TRP800  GLU811  SER814 

> <Gold.Protein.RotatedAtoms>
  152.5257  134.3255  159.9163 H   0  0  0  0  0  0  0  0  0  0  0  0  # atno 6907 bound_to 6896
  151.3204  133.4036  159.2661 H   0  0  0  0  0  0  0  0  0  0  0  0  # atno 6908 bound_to 6896
  150.9964  134.9304  159.7986 H   0  0  0  0  0  0  0  0  0  0  0  0  # atno 6909 bound_to 6896
  146.2340  139.9262  142.8503 H   0  0  0  0  0  0  0  0  0  0  0  0  # atno 7974 bound_to 7965
  155.9622  140.3392  155.6501 H   0  0  0  0  0  0  0  0  0  0  0  0  # atno 8008 bound_to 7997
  155.6783  140.0735  157.2512 H   0  0  0  0  0  0  0  0  0  0  0  0  # atno 8009 bound_to 7997
  154.4146  140.1679  156.1942 H   0  0  0  0  0  0  0  0  0  0  0  0  # atno 8010 bound_to 7997
  140.1004  144.4909  150.7041 H   0  0  0  0  0  0  0  0  0  0  0  0  # atno 10167 bound_to 10162
  157.1302  130.6588  149.5949 H   0  0  0  0  0  0  0  0  0  0  0  0  # atno 10718 bound_to 10713
  152.9796  135.5961  154.3841 H   0  0  0  0  0  0  0  0  0  0  0  0  # atno 10763 bound_to 10752
  154.3503  135.2767  155.2377 H   0  0  0  0  0  0  0  0  0  0  0  0  # atno 10764 bound_to 10752
  154.4420  135.6011  153.6190 H   0  0  0  0  0  0  0  0  0  0  0  0  # atno 10765 bound_to 10752
  140.0466  134.9277  157.0941 H   0  0  0  0  0  0  0  0  0  0  0  0  # atno 11005 bound_to 11000
  145.2088  140.9887  143.4112 LP  0  0  0  0  0  0  0  0  0  0  0  0  # atno 17320 bound_to 7965
  144.9709  139.3881  143.6309 LP  0  0  0  0  0  0  0  0  0  0  0  0  # atno 17321 bound_to 7965
  140.6981  143.2417  151.4943 LP  0  0  0  0  0  0  0  0  0  0  0  0  # atno 17342 bound_to 10162
  139.5675  144.2008  152.1786 LP  0  0  0  0  0  0  0  0  0  0  0  0  # atno 17343 bound_to 10162
  155.9809  130.4813  150.6801 LP  0  0  0  0  0  0  0  0  0  0  0  0  # atno 17370 bound_to 10713
  157.4399  131.0860  151.0954 LP  0  0  0  0  0  0  0  0  0  0  0  0  # atno 17371 bound_to 10713
  140.3984  134.2109  155.7164 LP  0  0  0  0  0  0  0  0  0  0  0  0  # atno 17394 bound_to 11000
  141.1910  133.8205  157.0897 LP  0  0  0  0  0  0  0  0  0  0  0  0  # atno 17395 bound_to 11000

$$$$
