AV-unprocessed.smi:1668|AV-procd|sdf|6682|dock9
  -GOLD-   22720 7403D 1   1.00000     0.00000
 Structure written by MMmdl.
 44 46  0  0  0  0  0  0  0  0  1 V2000
  156.4019  141.3705  167.2343 C   0  0  0  0  0  0  0  0  0  0  0  0
  156.4253  141.5147  165.8217 O   0  0  0  0  0  0  0  0  0  0  0  0
  156.0442  140.4358  165.0531 C   0  0  0  0  0  0  0  0  0  0  0  0
  155.7211  139.1612  165.5744 C   0  0  0  0  0  0  0  0  0  0  0  0
  155.3452  138.1132  164.7141 C   0  0  0  0  0  0  0  0  0  0  0  0
  155.2771  138.3116  163.3125 C   0  0  0  0  0  0  0  0  0  0  0  0
  154.9233  137.3169  162.4236 O   0  0  0  0  0  0  0  0  0  0  0  0
  154.5312  136.0535  162.9391 C   0  0  0  0  0  0  0  0  0  0  0  0
  155.5913  139.5893  162.7877 C   0  0  0  0  0  0  0  0  0  0  0  0
  155.5417  139.8386  161.2817 C   0  0  1  0  0  0  0  0  0  0  0  0
  156.6037  139.1938  160.6040 O   0  0  0  0  0  0  0  0  0  0  0  0
  154.2066  139.3441  160.6899 C   0  0  0  0  0  0  0  0  0  0  0  0
  153.4388  140.4351  160.0925 N   0  0  0  0  0  0  0  0  0  0  0  0
  152.8738  140.4439  158.8619 C   0  0  0  0  0  0  0  0  0  0  0  0
  152.8998  139.5214  158.0475 O   0  0  0  0  0  0  0  0  0  0  0  0
  152.2797  141.6472  158.6826 N   0  0  0  0  0  0  0  0  0  0  0  0
  151.5532  142.0998  157.5023 C   0  0  0  0  0  0  0  0  0  0  0  0
  152.4793  142.4335  159.8242 C   0  0  0  0  0  0  0  0  0  0  0  0
  152.0736  143.7452  160.1238 C   0  0  0  0  0  0  0  0  0  0  0  0
  152.4429  144.2624  161.3879 C   0  0  0  0  0  0  0  0  0  0  0  0
  153.1916  143.4783  162.3039 C   0  0  0  0  0  0  0  0  0  0  0  0
  153.5863  142.1602  161.9756 C   0  0  0  0  0  0  0  0  0  0  0  0
  153.2070  141.6712  160.7132 C   0  0  0  0  0  0  0  0  0  0  0  0
  155.9787  140.6312  163.6606 C   0  0  0  0  0  0  0  0  0  0  0  0
  156.7170  142.3058  167.6965 H   0  0  0  0  0  0  0  0  0  0  0  0
  157.0878  140.5905  167.5676 H   0  0  0  0  0  0  0  0  0  0  0  0
  155.3971  141.1472  167.5954 H   0  0  0  0  0  0  0  0  0  0  0  0
  155.7578  138.9586  166.6339 H   0  0  0  0  0  0  0  0  0  0  0  0
  155.1145  137.1583  165.1606 H   0  0  0  0  0  0  0  0  0  0  0  0
  154.2893  135.3889  162.1098 H   0  0  0  0  0  0  0  0  0  0  0  0
  153.6419  136.1364  163.5653 H   0  0  0  0  0  0  0  0  0  0  0  0
  155.3355  135.5885  163.5105 H   0  0  0  0  0  0  0  0  0  0  0  0
  155.6590  140.9061  161.0933 H   0  0  0  0  0  0  0  0  0  0  0  0
  156.2950  138.3570  160.2919 H   0  0  0  0  0  0  0  0  0  0  0  0
  154.3686  138.5334  159.9775 H   0  0  0  0  0  0  0  0  0  0  0  0
  153.5914  138.9185  161.4839 H   0  0  0  0  0  0  0  0  0  0  0  0
  150.5889  142.5202  157.7884 H   0  0  0  0  0  0  0  0  0  0  0  0
  151.3675  141.2866  156.7996 H   0  0  0  0  0  0  0  0  0  0  0  0
  152.1227  142.8716  156.9841 H   0  0  0  0  0  0  0  0  0  0  0  0
  151.5044  144.3358  159.4210 H   0  0  0  0  0  0  0  0  0  0  0  0
  152.1512  145.2663  161.6591 H   0  0  0  0  0  0  0  0  0  0  0  0
  153.4629  143.8919  163.2639 H   0  0  0  0  0  0  0  0  0  0  0  0
  154.1540  141.5589  162.6694 H   0  0  0  0  0  0  0  0  0  0  0  0
  156.2345  141.6015  163.2607 H   0  0  0  0  0  0  0  0  0  0  0  0
  1  2  1  0  0  0  0
  1 25  1  0  0  0  0
  1 26  1  0  0  0  0
  1 27  1  0  0  0  0
  2  3  1  0  0  0  0
  3 24  1  0  0  0  0
  3  4  2  0  0  0  0
  4  5  1  0  0  0  0
  4 28  1  0  0  0  0
  5  6  2  0  0  0  0
  5 29  1  0  0  0  0
  6  7  1  0  0  0  0
  6  9  1  0  0  0  0
  7  8  1  0  0  0  0
  8 30  1  0  0  0  0
  8 31  1  0  0  0  0
  8 32  1  0  0  0  0
  9 10  1  0  0  0  0
  9 24  2  0  0  0  0
 10 11  1  0  0  0  0
 10 12  1  0  0  0  0
 10 33  1  0  0  0  0
 11 34  1  0  0  0  0
 12 13  1  0  0  0  0
 12 35  1  0  0  0  0
 12 36  1  0  0  0  0
 13 23  1  0  0  0  0
 13 14  1  0  0  0  0
 14 15  2  0  0  0  0
 14 16  1  0  0  0  0
 16 17  1  0  0  0  0
 16 18  1  0  0  0  0
 17 37  1  0  0  0  0
 17 38  1  0  0  0  0
 17 39  1  0  0  0  0
 18 23  2  0  0  0  0
 18 19  1  0  0  0  0
 19 20  2  0  0  0  0
 19 40  1  0  0  0  0
 20 21  1  0  0  0  0
 20 41  1  0  0  0  0
 21 22  2  0  0  0  0
 21 42  1  0  0  0  0
 22 23  1  0  0  0  0
 22 43  1  0  0  0  0
 24 44  1  0  0  0  0
M  END
> <s_m_source_file>
AV-unprocessed.smi

> <i_m_source_file_index>
1668

> <i_lp_mmshare_version>
43012

> <i_f3d_flags>
0

> <s_epik_input>
W0NIM11PYzFbY0hdW2NIXWMoT1tDSDNdKWMoW2NIXTEpW0NASF0oW09IXSlbQ0gyXW4oYyg9TyluMltDSDNdKWMoYzIzKVtjSF1bY0hdW2NIXVtjSF0z

> <s_epik_cmdline>
J2VwaWtfcHl0aG9uJywgJy1waCcsICc3LjAnLCAnLXRuJywgJzgnLCAnLW1hJywgJzIwMCcsICctbWV0YWxfYmluZGluZycsICctaW1hZScsICc8aW5maWxlLm1hZT4nLCAnLW9tYWUnLCAnPG91dGZpbGUubWFlPic=

> <r_lp_tautomer_probability>
1

> <r_epik_Ionization_Penalty>
1.34538e-06

> <r_epik_Ionization_Penalty_Charging>
1.76928e-09

> <r_epik_Ionization_Penalty_Neutral>
1.34362e-06

> <r_epik_State_Penalty>
-0

> <r_epik_Charging_Adjusted_Penalty>
1.76928e-09

> <i_epik_Tot_Q>
0

> <i_epik_Tot_abs_Q>
0

> <r_epik_Metal_State_Penalty>
-0

> <b_epik_Metal_Only>
0

> <s_lp_Force_Field>
OPLS_2005

> <r_lp_Energy>
50.494

> <b_lp_Chiralities_Consistent>
1

> <s_lp_Variant>
AV-unprocessed.smi:1668-2

> <Gold.Version>
5.8.1

> <Gold.Id.Protein>
6NUR|6NUR_protein|mol2

> <Gold.PLP.Fitness>
52.3616

> <Gold.PLP.PLP>
-51.6193

> <Gold.PLP.part.hbond>
-1.0000

> <Gold.PLP.part.metal>
0.0000

> <Gold.PLP.part.buried>
-6.0645

> <Gold.PLP.part.nonpolar>
-42.9424

> <Gold.PLP.part.repulsive>
0.0000

> <Gold.PLP.ligand.clash>
0.0000

> <Gold.PLP.ligand.torsion>
1.1388

> <Gold.PLP.Chemscore.Hbond>
1.0000

> <Gold.PLP.Chemscore.CHOScore>
0.0000

> <Gold.PLP.Chemscore.Metal>
0.0000

> <Gold.Chemscore.Hbonds>
donor molecule, donor type, donor heavy atom, donor atom, acceptor molecule, acceptor atom, score
      P1  H  7997  8009       L1    15  0.99

> <Gold.PLP.Chemscore.Internal.Correction>
0.0200

> <Gold.Rescore>
     Score         DG    S(hbond)    S(metal)    S(lipo)     H(rot)  DE(clash)    DE(int)     intcor
     16.00     -17.93       0.92        0.00     129.28       2.24       0.03       1.91       ----

> <Gold.Chemscore.Fitness>
15.9954

> <Gold.Chemscore.DG>
-17.9335

> <Gold.Chemscore.ZeroCoef>
-5.4800

> <Gold.Chemscore.Hbond>
0.9206

> <Gold.Chemscore.Metal>
0.0000

> <Gold.Chemscore.Lipo>
129.2775

> <Gold.Chemscore.Internal_Hbond>
0.0000

> <Gold.Chemscore.DEClash>
0.0314

> <Gold.Chemscore.DEInternal>
1.9067

> <Gold.Chemscore.Rot>
2.2448

> <Gold.Chemscore.Internal.Correction>
   9.000000E+99

> <Gold.Chemscore.Hbonds>
donor molecule, donor type, donor heavy atom, donor atom, acceptor molecule, acceptor atom, score
      P1  H  7997  8009       L1    15  0.24

> <Gold.Chemscore.Hbond.Weighted>
-3.0747

> <Gold.Chemscore.Metal.Weighted>
-0.0000

> <Gold.Chemscore.Lipo.Weighted>
-15.1255

> <Gold.Chemscore.Internal_Hbond.Weighted>
0.0000

> <Gold.Chemscore.DEClash.Weighted>
0.0314

> <Gold.Chemscore.DEInternal.Weighted>
1.9067

> <Gold.Chemscore.Rot.Weighted>
5.7467

> <Gold.Chemscore.Internal.Correction.Weighted>
   9.000000E+99

> <Gold.Protein.RotatedTorsions>
[ 6907 6896 6895 6894 ] final    1.70 input  -60.11 | X-H torsion
[ 7974 7965 7964 7962 ] final   -6.99 input  175.53 | X-H torsion
[ 8008 7997 7996 7995 ] final  159.59 input   59.86 | X-H torsion
[ 10167 10162 10161 10158 ] final  143.91 input  -65.29 | X-H torsion
[ 10718 10713 10712 10709 ] final   31.58 input   66.30 | X-H torsion
[ 10763 10752 10751 10750 ] final    3.94 input  -60.55 | X-H torsion
[ 11005 11000 10999 10996 ] final  -53.07 input  -57.11 | X-H torsion

> <Gold.Protein.ActiveResidues>
 VAL166  LYS551  ARG553  GLY616  TRP617  ASP618  TYR619  PRO620  LYS621  CYS622 
 ASP623  PHE694  ASN695  SER759  ASP760  ASP761  ALA762  ILE779  LEU786  VAL792 
 PHE793  MET794  SER795  GLU796  ALA797  LYS798  CYS799  TRP800  GLU811  SER814 

> <Gold.Protein.RotatedAtoms>
  151.5969  135.1050  160.0051 H   0  0  0  0  0  0  0  0  0  0  0  0  # atno 6907 bound_to 6896
  152.4277  133.7220  159.6549 H   0  0  0  0  0  0  0  0  0  0  0  0  # atno 6908 bound_to 6896
  150.8167  133.8252  159.3179 H   0  0  0  0  0  0  0  0  0  0  0  0  # atno 6909 bound_to 6896
  146.2318  140.2253  142.8338 H   0  0  0  0  0  0  0  0  0  0  0  0  # atno 7974 bound_to 7965
  156.2229  140.1827  156.7434 H   0  0  0  0  0  0  0  0  0  0  0  0  # atno 8008 bound_to 7997
  154.5893  140.0653  156.9245 H   0  0  0  0  0  0  0  0  0  0  0  0  # atno 8009 bound_to 7997
  155.2364  140.3318  155.4300 H   0  0  0  0  0  0  0  0  0  0  0  0  # atno 8010 bound_to 7997
  139.4959  144.6008  151.6484 H   0  0  0  0  0  0  0  0  0  0  0  0  # atno 10167 bound_to 10162
  157.2743  130.7223  149.6521 H   0  0  0  0  0  0  0  0  0  0  0  0  # atno 10718 bound_to 10713
  153.2773  135.6937  153.7421 H   0  0  0  0  0  0  0  0  0  0  0  0  # atno 10763 bound_to 10752
  153.6422  135.3391  155.3075 H   0  0  0  0  0  0  0  0  0  0  0  0  # atno 10764 bound_to 10752
  154.8483  135.4434  154.1814 H   0  0  0  0  0  0  0  0  0  0  0  0  # atno 10765 bound_to 10752
  141.0957  133.6625  156.4118 H   0  0  0  0  0  0  0  0  0  0  0  0  # atno 11005 bound_to 11000
  144.9600  140.8265  143.5519 LP  0  0  0  0  0  0  0  0  0  0  0  0  # atno 17320 bound_to 7965
  145.2223  139.2153  143.5086 LP  0  0  0  0  0  0  0  0  0  0  0  0  # atno 17321 bound_to 7965
  140.5658  144.0193  150.6191 LP  0  0  0  0  0  0  0  0  0  0  0  0  # atno 17342 bound_to 10162
  140.3294  143.3087  152.0703 LP  0  0  0  0  0  0  0  0  0  0  0  0  # atno 17343 bound_to 10162
  155.9663  130.4358  150.5106 LP  0  0  0  0  0  0  0  0  0  0  0  0  # atno 17370 bound_to 10713
  157.3037  131.0650  151.2050 LP  0  0  0  0  0  0  0  0  0  0  0  0  # atno 17371 bound_to 10713
  140.5146  134.6363  157.5296 LP  0  0  0  0  0  0  0  0  0  0  0  0  # atno 17394 bound_to 11000
  139.9793  134.7163  155.9889 LP  0  0  0  0  0  0  0  0  0  0  0  0  # atno 17395 bound_to 11000

$$$$
