AV-unprocessed.smi:2711|AV-procd|sdf|10472|dock8
  -GOLD-   2272014513D 1   1.00000     0.00000
 Structure written by MMmdl.
 34 35  0  0  0  0  0  0  0  0  1 V2000
  146.9368  138.6348  152.6848 C   0  0  0  0  0  0  0  0  0  0  0  0
  147.8837  139.3388  153.5968 C   0  0  0  0  0  0  0  0  0  0  0  0
  148.9593  138.8045  154.2642 C   0  0  0  0  0  0  0  0  0  0  0  0
  149.6552  139.7281  155.0475 N   0  0  0  0  0  0  0  0  0  0  0  0
  149.1182  140.9508  154.9763 C   0  0  0  0  0  0  0  0  0  0  0  0
  149.6157  142.0863  155.6683 N   0  0  0  0  0  0  0  0  0  0  0  0
  150.7429  142.1895  156.3938 C   0  0  0  0  0  0  0  0  0  0  0  0
  151.5530  141.2818  156.5843 O   0  0  0  0  0  0  0  0  0  0  0  0
  150.8870  143.4255  156.8952 N   0  0  0  0  0  0  0  0  0  0  0  0
  152.0168  143.8767  157.7061 C   0  0  0  0  0  0  0  0  0  0  0  0
  151.6008  144.4224  159.0851 C   0  0  0  0  0  0  0  0  0  0  0  0
  150.8321  145.3828  159.1604 O   0  0  0  0  0  0  0  0  0  0  0  0
  152.0884  143.8107  160.1845 N   0  0  0  0  0  0  0  0  0  0  0  0
  152.9900  142.6585  160.1941 C   0  0  0  0  0  0  0  0  0  0  0  0
  153.3955  142.4598  161.6554 C   0  0  0  0  0  0  0  0  0  0  0  0
  152.2585  143.0877  162.4493 C   0  0  0  0  0  0  0  0  0  0  0  0
  151.7520  144.2141  161.5486 C   0  0  0  0  0  0  0  0  0  0  0  0
  147.7086  141.0428  153.9322 S   0  0  0  0  0  0  0  0  0  0  0  0
  147.0309  137.5528  152.7812 H   0  0  0  0  0  0  0  0  0  0  0  0
  147.1332  138.8993  151.6456 H   0  0  0  0  0  0  0  0  0  0  0  0
  145.9053  138.9035  152.9131 H   0  0  0  0  0  0  0  0  0  0  0  0
  149.3004  137.7801  154.2399 H   0  0  0  0  0  0  0  0  0  0  0  0
  149.0503  142.9192  155.5967 H   0  0  0  0  0  0  0  0  0  0  0  0
  150.1772  144.1114  156.6847 H   0  0  0  0  0  0  0  0  0  0  0  0
  152.6871  143.0294  157.8514 H   0  0  0  0  0  0  0  0  0  0  0  0
  152.5786  144.6343  157.1575 H   0  0  0  0  0  0  0  0  0  0  0  0
  152.4555  141.7826  159.8241 H   0  0  0  0  0  0  0  0  0  0  0  0
  153.8694  142.8129  159.5680 H   0  0  0  0  0  0  0  0  0  0  0  0
  153.5611  141.4126  161.9101 H   0  0  0  0  0  0  0  0  0  0  0  0
  154.3210  143.0019  161.8543 H   0  0  0  0  0  0  0  0  0  0  0  0
  151.4661  142.3521  162.5943 H   0  0  0  0  0  0  0  0  0  0  0  0
  152.5714  143.4400  163.4327 H   0  0  0  0  0  0  0  0  0  0  0  0
  152.2656  145.1492  161.7768 H   0  0  0  0  0  0  0  0  0  0  0  0
  150.6807  144.3746  161.6808 H   0  0  0  0  0  0  0  0  0  0  0  0
  1  2  1  0  0  0  0
  1 19  1  0  0  0  0
  1 20  1  0  0  0  0
  1 21  1  0  0  0  0
  2 18  1  0  0  0  0
  2  3  2  0  0  0  0
  3  4  1  0  0  0  0
  3 22  1  0  0  0  0
  4  5  2  0  0  0  0
  5  6  1  0  0  0  0
  5 18  1  0  0  0  0
  6  7  1  0  0  0  0
  6 23  1  0  0  0  0
  7  8  2  0  0  0  0
  7  9  1  0  0  0  0
  9 10  1  0  0  0  0
  9 24  1  0  0  0  0
 10 11  1  0  0  0  0
 10 25  1  0  0  0  0
 10 26  1  0  0  0  0
 11 12  2  0  0  0  0
 11 13  1  0  0  0  0
 13 17  1  0  0  0  0
 13 14  1  0  0  0  0
 14 15  1  0  0  0  0
 14 27  1  0  0  0  0
 14 28  1  0  0  0  0
 15 16  1  0  0  0  0
 15 29  1  0  0  0  0
 15 30  1  0  0  0  0
 16 17  1  0  0  0  0
 16 31  1  0  0  0  0
 16 32  1  0  0  0  0
 17 33  1  0  0  0  0
 17 34  1  0  0  0  0
M  END
> <s_m_source_file>
AV-unprocessed.smi

> <i_m_source_file_index>
2711

> <i_lp_mmshare_version>
43012

> <i_f3d_flags>
0

> <s_epik_input>
W0NIM11jMVtjSF1uYyhzMSlbTkhdQyg9TylbTkhdW0NIMl1DKD1PKU4yW0NIMl1bQ0gyXVtDSDJdW0NIMl0y

> <s_epik_cmdline>
J2VwaWtfcHl0aG9uJywgJy1waCcsICc3LjAnLCAnLXRuJywgJzgnLCAnLW1hJywgJzIwMCcsICctbWV0YWxfYmluZGluZycsICctaW1hZScsICc8aW5maWxlLm1hZT4nLCAnLW9tYWUnLCAnPG91dGZpbGUubWFlPic=

> <r_lp_tautomer_probability>
1

> <r_epik_Ionization_Penalty>
0.000145478

> <r_epik_Ionization_Penalty_Charging>
0

> <r_epik_Ionization_Penalty_Neutral>
0.000145478

> <r_epik_State_Penalty>
-0

> <r_epik_Charging_Adjusted_Penalty>
0

> <i_epik_Tot_Q>
0

> <i_epik_Tot_abs_Q>
0

> <r_epik_Metal_State_Penalty>
0.0331427

> <b_epik_Metal_Only>
0

> <s_lp_Force_Field>
OPLS_2005

> <r_lp_Energy>
22.8553

> <b_lp_Chiralities_Consistent>
1

> <s_lp_Variant>
AV-unprocessed.smi:2711-1

> <Gold.Version>
5.8.1

> <Gold.Id.Protein>
6NUR|6NUR_protein|mol2

> <Gold.PLP.Fitness>
51.9199

> <Gold.PLP.PLP>
-42.9720

> <Gold.PLP.part.hbond>
-2.0000

> <Gold.PLP.part.metal>
0.0000

> <Gold.PLP.part.buried>
-4.0133

> <Gold.PLP.part.nonpolar>
-37.6134

> <Gold.PLP.part.repulsive>
0.4719

> <Gold.PLP.ligand.clash>
0.0000

> <Gold.PLP.ligand.torsion>
0.0140

> <Gold.PLP.Chemscore.Hbond>
2.0000

> <Gold.PLP.Chemscore.CHOScore>
0.9915

> <Gold.PLP.Chemscore.Metal>
0.0000

> <Gold.Chemscore.Hbonds>
donor molecule, donor type, donor heavy atom, donor atom, acceptor molecule, acceptor atom, score
      L1  H     6    23       P1  8028  1.00
      L1  H     9    24       P1  8028  1.00
      L1  C     3    22       P1  7948  0.19

> <Gold.PLP.Chemscore.Internal.Correction>
0.0014

> <Gold.Rescore>
     Score         DG    S(hbond)    S(metal)    S(lipo)     H(rot)  DE(clash)    DE(int)     intcor
     16.43     -18.67       1.95        0.00      85.85       1.32       0.96       1.28       ----

> <Gold.Chemscore.Fitness>
16.4295

> <Gold.Chemscore.DG>
-18.6678

> <Gold.Chemscore.ZeroCoef>
-5.4800

> <Gold.Chemscore.Hbond>
1.9543

> <Gold.Chemscore.Metal>
0.0000

> <Gold.Chemscore.Lipo>
85.8526

> <Gold.Chemscore.Internal_Hbond>
0.0000

> <Gold.Chemscore.DEClash>
0.9596

> <Gold.Chemscore.DEInternal>
1.2788

> <Gold.Chemscore.Rot>
1.3219

> <Gold.Chemscore.Internal.Correction>
   9.000000E+99

> <Gold.Chemscore.Hbonds>
donor molecule, donor type, donor heavy atom, donor atom, acceptor molecule, acceptor atom, score
      L1  H     6    23       P1  8028  0.95
      L1  H     9    24       P1  8028  0.96

> <Gold.Chemscore.Hbond.Weighted>
-6.5272

> <Gold.Chemscore.Metal.Weighted>
-0.0000

> <Gold.Chemscore.Lipo.Weighted>
-10.0448

> <Gold.Chemscore.Internal_Hbond.Weighted>
0.0000

> <Gold.Chemscore.DEClash.Weighted>
0.9596

> <Gold.Chemscore.DEInternal.Weighted>
1.2788

> <Gold.Chemscore.Rot.Weighted>
3.3841

> <Gold.Chemscore.Internal.Correction.Weighted>
   9.000000E+99

> <Gold.Protein.RotatedTorsions>
[ 6907 6896 6895 6894 ] final  -24.21 input  -60.11 | X-H torsion
[ 7974 7965 7964 7962 ] final  165.55 input  175.53 | X-H torsion
[ 8008 7997 7996 7995 ] final  -55.94 input   59.86 | X-H torsion
[ 10167 10162 10161 10158 ] final  -21.38 input  -65.29 | X-H torsion
[ 10718 10713 10712 10709 ] final  139.39 input   66.30 | X-H torsion
[ 10763 10752 10751 10750 ] final  -62.38 input  -60.55 | X-H torsion
[ 11005 11000 10999 10996 ] final    6.45 input  -57.11 | X-H torsion

> <Gold.Protein.ActiveResidues>
 VAL166  LYS551  ARG553  GLY616  TRP617  ASP618  TYR619  PRO620  LYS621  CYS622 
 ASP623  PHE694  ASN695  SER759  ASP760  ASP761  ALA762  ILE779  LEU786  VAL792 
 PHE793  MET794  SER795  GLU796  ALA797  LYS798  CYS799  TRP800  GLU811  SER814 

> <Gold.Protein.RotatedAtoms>
  151.1928  135.0410  159.8839 H   0  0  0  0  0  0  0  0  0  0  0  0  # atno 6907 bound_to 6896
  152.5438  134.0937  159.8298 H   0  0  0  0  0  0  0  0  0  0  0  0  # atno 6908 bound_to 6896
  151.1068  133.5155  159.2639 H   0  0  0  0  0  0  0  0  0  0  0  0  # atno 6909 bound_to 6896
  144.7498  139.8486  143.6370 H   0  0  0  0  0  0  0  0  0  0  0  0  # atno 7974 bound_to 7965
  154.4212  140.1141  156.5557 H   0  0  0  0  0  0  0  0  0  0  0  0  # atno 8008 bound_to 7997
  155.6363  140.3496  155.4681 H   0  0  0  0  0  0  0  0  0  0  0  0  # atno 8009 bound_to 7997
  155.9907  140.1179  157.0631 H   0  0  0  0  0  0  0  0  0  0  0  0  # atno 8010 bound_to 7997
  140.7281  143.4633  151.0348 H   0  0  0  0  0  0  0  0  0  0  0  0  # atno 10167 bound_to 10162
  157.4149  131.1032  151.0415 H   0  0  0  0  0  0  0  0  0  0  0  0  # atno 10718 bound_to 10713
  154.2989  135.6238  153.5416 H   0  0  0  0  0  0  0  0  0  0  0  0  # atno 10763 bound_to 10752
  152.9843  135.5673  154.5306 H   0  0  0  0  0  0  0  0  0  0  0  0  # atno 10764 bound_to 10752
  154.4932  135.2868  155.1456 H   0  0  0  0  0  0  0  0  0  0  0  0  # atno 10765 bound_to 10752
  140.5593  134.0207  155.7966 H   0  0  0  0  0  0  0  0  0  0  0  0  # atno 11005 bound_to 11000
  146.1432  139.4494  143.0096 LP  0  0  0  0  0  0  0  0  0  0  0  0  # atno 17320 bound_to 7965
  145.6986  141.0143  143.1517 LP  0  0  0  0  0  0  0  0  0  0  0  0  # atno 17321 bound_to 7965
  139.8320  143.7678  152.3180 LP  0  0  0  0  0  0  0  0  0  0  0  0  # atno 17342 bound_to 10162
  139.7797  144.7448  151.0105 LP  0  0  0  0  0  0  0  0  0  0  0  0  # atno 17343 bound_to 10162
  157.1366  130.6125  149.5544 LP  0  0  0  0  0  0  0  0  0  0  0  0  # atno 17370 bound_to 10713
  155.9862  130.4895  150.7067 LP  0  0  0  0  0  0  0  0  0  0  0  0  # atno 17371 bound_to 10713
  141.1124  133.9595  157.2885 LP  0  0  0  0  0  0  0  0  0  0  0  0  # atno 17394 bound_to 11000
  139.9415  135.0190  156.8724 LP  0  0  0  0  0  0  0  0  0  0  0  0  # atno 17395 bound_to 11000

$$$$
