AV-unprocessed.smi:3046|AV-procd|sdf|11615|dock7
  -GOLD-   2272016593D 1   1.00000     0.00000
 Structure written by MMmdl.
 38 38  0  0  0  0  0  0  0  0  2 V2000
  145.2612  135.0343  150.9010 C   0  0  0  0  0  0  0  0  0  0  0  0
  145.5455  134.4197  152.0587 C   0  0  0  0  0  0  0  0  0  0  0  0
  146.1649  135.1018  153.2627 C   0  0  0  0  0  0  0  0  0  0  0  0
  146.7374  136.3944  152.9066 N   0  0  0  0  0  0  0  0  0  0  0  0
  146.3771  137.5719  153.4406 C   0  0  0  0  0  0  0  0  0  0  0  0
  145.5207  137.6817  154.3189 O   0  0  0  0  0  0  0  0  0  0  0  0
  147.0967  138.8149  152.9007 C   0  0  2  0  0  0  0  0  0  0  0  0
  146.7306  139.0313  151.4244 C   0  0  0  0  0  0  0  0  0  0  0  0
  148.5678  138.6928  153.0311 N   0  3  0  0  0  0  0  0  0  0  0  0
  149.1267  138.7851  154.4027 C   0  0  1  0  0  0  0  0  0  0  0  0
  150.3561  137.8768  154.5746 C   0  0  0  0  0  0  0  0  0  0  0  0
  149.4827  140.2493  154.7278 C   0  0  0  0  0  0  0  0  0  0  0  0
  148.3229  141.1226  154.6811 N   0  0  0  0  0  0  0  0  0  0  0  0
  147.7106  141.6753  153.5757 C   0  0  0  0  0  0  0  0  0  0  0  0
  146.6671  142.4324  154.0256 C   0  0  0  0  0  0  0  0  0  0  0  0
  146.7206  142.2773  155.4391 C   0  0  0  0  0  0  0  0  0  0  0  0
  147.7145  141.4949  155.8285 N   0  0  0  0  0  0  0  0  0  0  0  0
  145.4615  136.0864  150.7586 H   0  0  0  0  0  0  0  0  0  0  0  0
  144.8227  134.4899  150.0774 H   0  0  0  0  0  0  0  0  0  0  0  0
  145.3340  133.3647  152.1590 H   0  0  0  0  0  0  0  0  0  0  0  0
  145.4065  135.2211  154.0381 H   0  0  0  0  0  0  0  0  0  0  0  0
  146.9512  134.4748  153.6842 H   0  0  0  0  0  0  0  0  0  0  0  0
  147.4555  136.3921  152.1965 H   0  0  0  0  0  0  0  0  0  0  0  0
  146.7598  139.6901  153.4589 H   0  0  0  0  0  0  0  0  0  0  0  0
  145.6542  139.1499  151.2940 H   0  0  0  0  0  0  0  0  0  0  0  0
  147.0507  138.1928  150.8042 H   0  0  0  0  0  0  0  0  0  0  0  0
  147.2061  139.9315  151.0332 H   0  0  0  0  0  0  0  0  0  0  0  0
  148.8712  137.8345  152.5926 H   0  0  0  0  0  0  0  0  0  0  0  0
  148.3620  138.4676  155.1133 H   0  0  0  0  0  0  0  0  0  0  0  0
  150.7919  137.9929  155.5674 H   0  0  0  0  0  0  0  0  0  0  0  0
  151.1304  138.1133  153.8436 H   0  0  0  0  0  0  0  0  0  0  0  0
  150.0993  136.8237  154.4630 H   0  0  0  0  0  0  0  0  0  0  0  0
  149.9102  140.3180  155.7290 H   0  0  0  0  0  0  0  0  0  0  0  0
  150.2419  140.6268  154.0404 H   0  0  0  0  0  0  0  0  0  0  0  0
  148.0648  141.4878  152.5725 H   0  0  0  0  0  0  0  0  0  0  0  0
  145.9703  143.0086  153.4350 H   0  0  0  0  0  0  0  0  0  0  0  0
  146.0730  142.7081  156.1884 H   0  0  0  0  0  0  0  0  0  0  0  0
  148.9664  139.4648  152.5151 H   0  0  0  0  0  0  0  0  0  0  0  0
  1  2  2  0  0  0  0
  1 18  1  0  0  0  0
  1 19  1  0  0  0  0
  2  3  1  0  0  0  0
  2 20  1  0  0  0  0
  3  4  1  0  0  0  0
  3 21  1  0  0  0  0
  3 22  1  0  0  0  0
  4  5  1  0  0  0  0
  4 23  1  0  0  0  0
  5  6  2  0  0  0  0
  5  7  1  0  0  0  0
  7  8  1  0  0  0  0
  7  9  1  0  0  0  0
  7 24  1  0  0  0  0
  8 25  1  0  0  0  0
  8 26  1  0  0  0  0
  8 27  1  0  0  0  0
  9 10  1  0  0  0  0
  9 28  1  0  0  0  0
  9 38  1  0  0  0  0
 10 11  1  0  0  0  0
 10 12  1  0  0  0  0
 10 29  1  0  0  0  0
 11 30  1  0  0  0  0
 11 31  1  0  0  0  0
 11 32  1  0  0  0  0
 12 13  1  0  0  0  0
 12 33  1  0  0  0  0
 12 34  1  0  0  0  0
 13 17  1  0  0  0  0
 13 14  1  0  0  0  0
 14 15  2  0  0  0  0
 14 35  1  0  0  0  0
 15 16  1  0  0  0  0
 15 36  1  0  0  0  0
 16 17  2  0  0  0  0
 16 37  1  0  0  0  0
M  CHG  1   9   1
M  END
> <s_m_source_file>
AV-unprocessed.smi

> <i_m_source_file_index>
3046

> <i_lp_mmshare_version>
43012

> <i_f3d_flags>
0

> <s_epik_input>
W0NIMl09W0NIXVtDSDJdW05IXUMoPU8pW0NASF0oW0NIM10pW05IXVtDQEhdKFtDSDNdKVtDSDJdbjFbY0hdW2NIXVtjSF1uMQ==

> <s_epik_cmdline>
J2VwaWtfcHl0aG9uJywgJy1waCcsICc3LjAnLCAnLXRuJywgJzgnLCAnLW1hJywgJzIwMCcsICctbWV0YWxfYmluZGluZycsICctaW1hZScsICc8aW5maWxlLm1hZT4nLCAnLW9tYWUnLCAnPG91dGZpbGUubWFlPic=

> <r_lp_tautomer_probability>
1

> <r_epik_Ionization_Penalty>
0.132961

> <r_epik_Ionization_Penalty_Charging>
0.132956

> <r_epik_Ionization_Penalty_Neutral>
5.00268e-06

> <r_epik_State_Penalty>
0.122332

> <r_epik_Charging_Adjusted_Penalty>
0.255288

> <i_epik_Tot_Q>
1

> <i_epik_Tot_abs_Q>
1

> <r_epik_Metal_State_Penalty>
0.122338

> <b_epik_Metal_Only>
0

> <s_lp_Force_Field>
OPLS_2005

> <r_lp_Energy>
6.26821

> <b_lp_Chiralities_Consistent>
1

> <s_lp_Variant>
AV-unprocessed.smi:3046-3

> <Gold.Version>
5.8.1

> <Gold.Id.Protein>
6NUR|6NUR_protein|mol2

> <Gold.PLP.Fitness>
45.6992

> <Gold.PLP.PLP>
-32.4815

> <Gold.PLP.part.hbond>
-2.6318

> <Gold.PLP.part.metal>
0.0000

> <Gold.PLP.part.buried>
-1.8411

> <Gold.PLP.part.nonpolar>
-27.7462

> <Gold.PLP.part.repulsive>
0.2875

> <Gold.PLP.ligand.clash>
0.0000

> <Gold.PLP.ligand.torsion>
0.9310

> <Gold.PLP.Chemscore.Hbond>
3.9753

> <Gold.PLP.Chemscore.CHOScore>
1.0000

> <Gold.PLP.Chemscore.Metal>
0.0000

> <Gold.Chemscore.Hbonds>
donor molecule, donor type, donor heavy atom, donor atom, acceptor molecule, acceptor atom, score
      L1  H     4    23       P1  7948  0.97
      L1  H     9    28       P1  7948  2.00
      L1  H     9    38       P1  7957  0.98
      L1  C    14    35       P1  7957  1.00

> <Gold.PLP.Chemscore.Internal.Correction>
0.1538

> <Gold.Rescore>
     Score         DG    S(hbond)    S(metal)    S(lipo)     H(rot)  DE(clash)    DE(int)     intcor
     16.08     -17.31       2.95        0.00      66.48       2.26       0.08       1.15       ----

> <Gold.Chemscore.Fitness>
16.0818

> <Gold.Chemscore.DG>
-17.3121

> <Gold.Chemscore.ZeroCoef>
-5.4800

> <Gold.Chemscore.Hbond>
2.9480

> <Gold.Chemscore.Metal>
0.0000

> <Gold.Chemscore.Lipo>
66.4789

> <Gold.Chemscore.Internal_Hbond>
0.0000

> <Gold.Chemscore.DEClash>
0.0807

> <Gold.Chemscore.DEInternal>
1.1497

> <Gold.Chemscore.Rot>
2.2626

> <Gold.Chemscore.Internal.Correction>
   9.000000E+99

> <Gold.Chemscore.Hbonds>
donor molecule, donor type, donor heavy atom, donor atom, acceptor molecule, acceptor atom, score
      L1  H     4    23       P1  7948  0.86
      L1  H     9    28       P1  7948  1.00
      L1  H     9    38       P1  7957  0.92

> <Gold.Chemscore.Hbond.Weighted>
-9.8463

> <Gold.Chemscore.Metal.Weighted>
-0.0000

> <Gold.Chemscore.Lipo.Weighted>
-7.7780

> <Gold.Chemscore.Internal_Hbond.Weighted>
0.0000

> <Gold.Chemscore.DEClash.Weighted>
0.0807

> <Gold.Chemscore.DEInternal.Weighted>
1.1497

> <Gold.Chemscore.Rot.Weighted>
5.7922

> <Gold.Chemscore.Internal.Correction.Weighted>
   9.000000E+99

> <Gold.Protein.RotatedTorsions>
[ 6907 6896 6895 6894 ] final -103.51 input  -60.11 | X-H torsion
[ 7974 7965 7964 7962 ] final   16.00 input  175.53 | X-H torsion
[ 8008 7997 7996 7995 ] final   94.50 input   59.86 | X-H torsion
[ 10167 10162 10161 10158 ] final  -21.61 input  -65.29 | X-H torsion
[ 10718 10713 10712 10709 ] final   94.88 input   66.30 | X-H torsion
[ 10763 10752 10751 10750 ] final  -35.17 input  -60.55 | X-H torsion
[ 11005 11000 10999 10996 ] final   13.75 input  -57.11 | X-H torsion

> <Gold.Protein.ActiveResidues>
 VAL166  LYS551  ARG553  GLY616  TRP617  ASP618  TYR619  PRO620  LYS621  CYS622 
 ASP623  PHE694  ASN695  SER759  ASP760  ASP761  ALA762  ILE779  LEU786  VAL792 
 PHE793  MET794  SER795  GLU796  ALA797  LYS798  CYS799  TRP800  GLU811  SER814 

> <Gold.Protein.RotatedAtoms>
  150.7244  134.0418  159.3768 H   0  0  0  0  0  0  0  0  0  0  0  0  # atno 6907 bound_to 6896
  151.8392  135.0594  160.0455 H   0  0  0  0  0  0  0  0  0  0  0  0  # atno 6908 bound_to 6896
  152.2875  133.5493  159.5573 H   0  0  0  0  0  0  0  0  0  0  0  0  # atno 6909 bound_to 6896
  146.2262  139.8811  142.8570 H   0  0  0  0  0  0  0  0  0  0  0  0  # atno 7974 bound_to 7965
  156.0586  140.3299  155.7435 H   0  0  0  0  0  0  0  0  0  0  0  0  # atno 8008 bound_to 7997
  155.5490  140.0608  157.2871 H   0  0  0  0  0  0  0  0  0  0  0  0  # atno 8009 bound_to 7997
  154.4470  140.1897  156.0655 H   0  0  0  0  0  0  0  0  0  0  0  0  # atno 8010 bound_to 7997
  140.7283  143.4611  151.0378 H   0  0  0  0  0  0  0  0  0  0  0  0  # atno 10167 bound_to 10162
  157.6944  131.0527  150.4254 H   0  0  0  0  0  0  0  0  0  0  0  0  # atno 10718 bound_to 10713
  153.8588  135.6842  153.4785 H   0  0  0  0  0  0  0  0  0  0  0  0  # atno 10763 bound_to 10752
  153.1354  135.4680  154.9412 H   0  0  0  0  0  0  0  0  0  0  0  0  # atno 10764 bound_to 10752
  154.7768  135.3256  154.8023 H   0  0  0  0  0  0  0  0  0  0  0  0  # atno 10765 bound_to 10752
  140.4772  134.0971  155.7744 H   0  0  0  0  0  0  0  0  0  0  0  0  # atno 11005 bound_to 11000
  145.2511  141.0044  143.3880 LP  0  0  0  0  0  0  0  0  0  0  0  0  # atno 17320 bound_to 7965
  144.9374  139.4229  143.6466 LP  0  0  0  0  0  0  0  0  0  0  0  0  # atno 17321 bound_to 7965
  139.8296  143.7709  152.3179 LP  0  0  0  0  0  0  0  0  0  0  0  0  # atno 17342 bound_to 10162
  139.7820  144.7441  151.0075 LP  0  0  0  0  0  0  0  0  0  0  0  0  # atno 17343 bound_to 10162
  156.4626  130.4035  149.6567 LP  0  0  0  0  0  0  0  0  0  0  0  0  # atno 17370 bound_to 10713
  156.3677  130.7514  151.2494 LP  0  0  0  0  0  0  0  0  0  0  0  0  # atno 17371 bound_to 10713
  141.1548  133.8902  157.2004 LP  0  0  0  0  0  0  0  0  0  0  0  0  # atno 17394 bound_to 11000
  139.9848  135.0085  156.9837 LP  0  0  0  0  0  0  0  0  0  0  0  0  # atno 17395 bound_to 11000

$$$$
