AV-unprocessed.smi:3165|AV-procd|sdf|12086|dock3
  -GOLD-   2272017513D 1   1.00000     0.00000
 Structure written by MMmdl.
 38 39  0  0  0  0  0  0  0  0  2 V2000
  149.5602  141.7862  154.9113 C   0  0  0  0  0  0  0  0  0  0  0  0
  150.1027  141.7024  156.3518 C   0  0  1  0  0  0  0  0  0  0  0  0
  151.4858  141.0206  156.4181 C   0  0  0  0  0  0  0  0  0  0  0  0
  151.5023  139.6995  155.8155 N   0  0  0  0  0  0  0  0  0  0  0  0
  151.7510  138.4836  156.4173 C   0  0  0  0  0  0  0  0  0  0  0  0
  151.6432  137.5235  155.4525 C   0  0  0  0  0  0  0  0  0  0  0  0
  151.3145  138.2582  154.2791 C   0  0  0  0  0  0  0  0  0  0  0  0
  151.2264  139.5600  154.5008 N   0  0  0  0  0  0  0  0  0  0  0  0
  150.1922  143.0436  156.9713 N   0  3  0  0  0  0  0  0  0  0  0  0
  151.4807  143.7457  156.7901 C   0  0  0  0  0  0  0  0  0  0  0  0
  152.0933  144.1238  158.1460 C   0  0  2  0  0  0  0  0  0  0  0  0
  152.3634  142.8835  159.0198 C   0  0  0  0  0  0  0  0  0  0  0  0
  152.8854  143.2980  160.4004 C   0  0  0  0  0  0  0  0  0  0  0  0
  151.9284  144.3145  161.0316 C   0  0  0  0  0  0  0  0  0  0  0  0
  151.6696  145.4780  160.0617 C   0  0  0  0  0  0  0  0  0  0  0  0
  151.1727  144.9769  158.8241 O   0  0  0  0  0  0  0  0  0  0  0  0
  149.4745  140.7978  154.4595 H   0  0  0  0  0  0  0  0  0  0  0  0
  150.2146  142.3841  154.2761 H   0  0  0  0  0  0  0  0  0  0  0  0
  148.5658  142.2303  154.8768 H   0  0  0  0  0  0  0  0  0  0  0  0
  149.4092  141.1082  156.9489 H   0  0  0  0  0  0  0  0  0  0  0  0
  152.2336  141.6361  155.9156 H   0  0  0  0  0  0  0  0  0  0  0  0
  151.8105  140.9218  157.4551 H   0  0  0  0  0  0  0  0  0  0  0  0
  151.9833  138.4026  157.4690 H   0  0  0  0  0  0  0  0  0  0  0  0
  151.7761  136.4581  155.5674 H   0  0  0  0  0  0  0  0  0  0  0  0
  151.1365  137.8868  153.2807 H   0  0  0  0  0  0  0  0  0  0  0  0
  149.4772  143.6206  156.5516 H   0  0  0  0  0  0  0  0  0  0  0  0
  152.1784  143.1241  156.2292 H   0  0  0  0  0  0  0  0  0  0  0  0
  151.3084  144.6483  156.2026 H   0  0  0  0  0  0  0  0  0  0  0  0
  153.0298  144.6592  157.9779 H   0  0  0  0  0  0  0  0  0  0  0  0
  151.4443  142.3075  159.1366 H   0  0  0  0  0  0  0  0  0  0  0  0
  153.0841  142.2260  158.5326 H   0  0  0  0  0  0  0  0  0  0  0  0
  152.9931  142.4253  161.0450 H   0  0  0  0  0  0  0  0  0  0  0  0
  153.8779  143.7396  160.3011 H   0  0  0  0  0  0  0  0  0  0  0  0
  150.9834  143.8274  161.2751 H   0  0  0  0  0  0  0  0  0  0  0  0
  152.3389  144.6878  161.9703 H   0  0  0  0  0  0  0  0  0  0  0  0
  150.9340  146.1615  160.4858 H   0  0  0  0  0  0  0  0  0  0  0  0
  152.5802  146.0552  159.8938 H   0  0  0  0  0  0  0  0  0  0  0  0
  149.9973  142.9636  157.9593 H   0  0  0  0  0  0  0  0  0  0  0  0
  1  2  1  0  0  0  0
  1 17  1  0  0  0  0
  1 18  1  0  0  0  0
  1 19  1  0  0  0  0
  2  3  1  0  0  0  0
  2  9  1  0  0  0  0
  2 20  1  0  0  0  0
  3  4  1  0  0  0  0
  3 21  1  0  0  0  0
  3 22  1  0  0  0  0
  4  8  1  0  0  0  0
  4  5  1  0  0  0  0
  5  6  2  0  0  0  0
  5 23  1  0  0  0  0
  6  7  1  0  0  0  0
  6 24  1  0  0  0  0
  7  8  2  0  0  0  0
  7 25  1  0  0  0  0
  9 10  1  0  0  0  0
  9 26  1  0  0  0  0
  9 38  1  0  0  0  0
 10 11  1  0  0  0  0
 10 27  1  0  0  0  0
 10 28  1  0  0  0  0
 11 16  1  0  0  0  0
 11 12  1  0  0  0  0
 11 29  1  0  0  0  0
 12 13  1  0  0  0  0
 12 30  1  0  0  0  0
 12 31  1  0  0  0  0
 13 14  1  0  0  0  0
 13 32  1  0  0  0  0
 13 33  1  0  0  0  0
 14 15  1  0  0  0  0
 14 34  1  0  0  0  0
 14 35  1  0  0  0  0
 15 16  1  0  0  0  0
 15 36  1  0  0  0  0
 15 37  1  0  0  0  0
M  CHG  1   9   1
M  END
> <s_m_source_file>
AV-unprocessed.smi

> <i_m_source_file_index>
3165

> <i_lp_mmshare_version>
43012

> <i_f3d_flags>
0

> <s_epik_input>
bjFbY0hdW2NIXVtjSF1uMVtDSDJdW0NAQEhdKFtDSDNdKVtOSF1bQ0gyXVtDQEBIXTJbQ0gyXVtDSDJdW0NIMl1bQ0gyXU8y

> <s_epik_cmdline>
J2VwaWtfcHl0aG9uJywgJy1waCcsICc3LjAnLCAnLXRuJywgJzgnLCAnLW1hJywgJzIwMCcsICctbWV0YWxfYmluZGluZycsICctaW1hZScsICc8aW5maWxlLm1hZT4nLCAnLW9tYWUnLCAnPG91dGZpbGUubWFlPic=

> <r_lp_tautomer_probability>
1

> <r_epik_Ionization_Penalty>
0.00849196

> <r_epik_Ionization_Penalty_Charging>
0.00848754

> <r_epik_Ionization_Penalty_Neutral>
4.42049e-06

> <r_epik_State_Penalty>
0.00639836

> <r_epik_Charging_Adjusted_Penalty>
0.0148859

> <i_epik_Tot_Q>
1

> <i_epik_Tot_abs_Q>
1

> <r_epik_Metal_State_Penalty>
0.00639878

> <b_epik_Metal_Only>
0

> <s_lp_Force_Field>
OPLS_2005

> <r_lp_Energy>
12.7684

> <b_lp_Chiralities_Consistent>
1

> <s_lp_Variant>
AV-unprocessed.smi:3165-2

> <Gold.Version>
5.8.1

> <Gold.Id.Protein>
6NUR|6NUR_protein|mol2

> <Gold.PLP.Fitness>
50.2011

> <Gold.PLP.PLP>
-39.3354

> <Gold.PLP.part.hbond>
-2.0000

> <Gold.PLP.part.metal>
0.0000

> <Gold.PLP.part.buried>
-3.2422

> <Gold.PLP.part.nonpolar>
-33.6658

> <Gold.PLP.part.repulsive>
0.2517

> <Gold.PLP.ligand.clash>
0.0000

> <Gold.PLP.ligand.torsion>
0.7266

> <Gold.PLP.Chemscore.Hbond>
3.0000

> <Gold.PLP.Chemscore.CHOScore>
1.0801

> <Gold.PLP.Chemscore.Metal>
0.0000

> <Gold.Chemscore.Hbonds>
donor molecule, donor type, donor heavy atom, donor atom, acceptor molecule, acceptor atom, score
      L1  H     9    26       P1  8028  1.98
      P1  H  7989  7998       L1     8  1.00
      L1  C     7    25       P1  7949  0.81

> <Gold.PLP.Chemscore.Internal.Correction>
0.0785

> <Gold.Rescore>
     Score         DG    S(hbond)    S(metal)    S(lipo)     H(rot)  DE(clash)    DE(int)     intcor
     18.81     -20.53       1.94        0.00     109.12       1.64       0.04       1.68       ----

> <Gold.Chemscore.Fitness>
18.8065

> <Gold.Chemscore.DG>
-20.5263

> <Gold.Chemscore.ZeroCoef>
-5.4800

> <Gold.Chemscore.Hbond>
1.9430

> <Gold.Chemscore.Metal>
0.0000

> <Gold.Chemscore.Lipo>
109.1152

> <Gold.Chemscore.Internal_Hbond>
0.0000

> <Gold.Chemscore.DEClash>
0.0411

> <Gold.Chemscore.DEInternal>
1.6787

> <Gold.Chemscore.Rot>
1.6444

> <Gold.Chemscore.Internal.Correction>
   9.000000E+99

> <Gold.Chemscore.Hbonds>
donor molecule, donor type, donor heavy atom, donor atom, acceptor molecule, acceptor atom, score
      L1  H     9    26       P1  8028  0.91
      P1  H  7989  7998       L1     8  0.94

> <Gold.Chemscore.Hbond.Weighted>
-6.4895

> <Gold.Chemscore.Metal.Weighted>
-0.0000

> <Gold.Chemscore.Lipo.Weighted>
-12.7665

> <Gold.Chemscore.Internal_Hbond.Weighted>
0.0000

> <Gold.Chemscore.DEClash.Weighted>
0.0411

> <Gold.Chemscore.DEInternal.Weighted>
1.6787

> <Gold.Chemscore.Rot.Weighted>
4.2097

> <Gold.Chemscore.Internal.Correction.Weighted>
   9.000000E+99

> <Gold.Protein.RotatedTorsions>
[ 6907 6896 6895 6894 ] final -168.47 input  -60.11 | X-H torsion
[ 7974 7965 7964 7962 ] final -147.26 input  175.53 | X-H torsion
[ 8008 7997 7996 7995 ] final  103.98 input   59.86 | X-H torsion
[ 10167 10162 10161 10158 ] final  -26.17 input  -65.29 | X-H torsion
[ 10718 10713 10712 10709 ] final -162.30 input   66.30 | X-H torsion
[ 10763 10752 10751 10750 ] final  114.68 input  -60.55 | X-H torsion
[ 11005 11000 10999 10996 ] final  113.84 input  -57.11 | X-H torsion

> <Gold.Protein.ActiveResidues>
 VAL166  LYS551  ARG553  GLY616  TRP617  ASP618  TYR619  PRO620  LYS621  CYS622 
 ASP623  PHE694  ASN695  SER759  ASP760  ASP761  ALA762  ILE779  LEU786  VAL792 
 PHE793  MET794  SER795  GLU796  ALA797  LYS798  CYS799  TRP800  GLU811  SER814 

> <Gold.Protein.RotatedAtoms>
  151.4761  133.3557  159.2830 H   0  0  0  0  0  0  0  0  0  0  0  0  # atno 6907 bound_to 6896
  150.8928  134.8335  159.7316 H   0  0  0  0  0  0  0  0  0  0  0  0  # atno 6908 bound_to 6896
  152.4833  134.4673  159.9676 H   0  0  0  0  0  0  0  0  0  0  0  0  # atno 6909 bound_to 6896
  144.8105  140.5349  143.5646 H   0  0  0  0  0  0  0  0  0  0  0  0  # atno 7974 bound_to 7965
  156.1532  140.3155  155.8682 H   0  0  0  0  0  0  0  0  0  0  0  0  # atno 8008 bound_to 7997
  155.3930  140.0495  157.3057 H   0  0  0  0  0  0  0  0  0  0  0  0  # atno 8009 bound_to 7997
  154.5077  140.2153  155.9229 H   0  0  0  0  0  0  0  0  0  0  0  0  # atno 8010 bound_to 7997
  140.7284  143.4202  151.0964 H   0  0  0  0  0  0  0  0  0  0  0  0  # atno 10167 bound_to 10162
  156.6085  130.8840  151.2931 H   0  0  0  0  0  0  0  0  0  0  0  0  # atno 10718 bound_to 10713
  153.5109  135.3618  155.2586 H   0  0  0  0  0  0  0  0  0  0  0  0  # atno 10763 bound_to 10752
  154.8742  135.4022  154.3370 H   0  0  0  0  0  0  0  0  0  0  0  0  # atno 10764 bound_to 10752
  153.4023  135.7075  153.6484 H   0  0  0  0  0  0  0  0  0  0  0  0  # atno 10765 bound_to 10752
  139.8964  134.9557  156.6801 H   0  0  0  0  0  0  0  0  0  0  0  0  # atno 11005 bound_to 11000
  145.5336  139.1475  143.3486 LP  0  0  0  0  0  0  0  0  0  0  0  0  # atno 17320 bound_to 7965
  146.2403  140.5476  142.8937 LP  0  0  0  0  0  0  0  0  0  0  0  0  # atno 17321 bound_to 7965
  139.7846  143.8306  152.3143 LP  0  0  0  0  0  0  0  0  0  0  0  0  # atno 17342 bound_to 10162
  139.8269  144.7271  150.9501 LP  0  0  0  0  0  0  0  0  0  0  0  0  # atno 17343 bound_to 10162
  157.7261  130.9624  150.1640 LP  0  0  0  0  0  0  0  0  0  0  0  0  # atno 17370 bound_to 10713
  156.2410  130.3691  149.8337 LP  0  0  0  0  0  0  0  0  0  0  0  0  # atno 17371 bound_to 10713
  140.7306  133.9062  155.8209 LP  0  0  0  0  0  0  0  0  0  0  0  0  # atno 17394 bound_to 11000
  141.0156  134.0960  157.4175 LP  0  0  0  0  0  0  0  0  0  0  0  0  # atno 17395 bound_to 11000

$$$$
