AV-unprocessed.smi:498|AV-procd|sdf|2730|dock1
  -GOLD-   2262023183D 1   1.00000     0.00000
 Structure written by MMmdl.
 41 43  0  0  0  0  0  0  0  0  2 V2000
  146.7340  140.3822  152.6484 C   0  0  0  0  0  0  0  0  0  0  0  0
  148.1085  140.2586  153.3089 C   0  0  0  0  0  0  0  0  0  0  0  0
  148.0582  140.8776  154.5819 O   0  0  0  0  0  0  0  0  0  0  0  0
  149.2441  140.6836  155.3350 C   0  0  0  0  0  0  0  0  0  0  0  0
  149.0757  141.2845  156.7396 C   0  0  0  0  0  0  0  0  0  0  0  0
  149.9968  140.6967  157.7182 N   0  0  0  0  0  0  0  0  0  0  0  0
  150.0508  139.4327  158.2422 C   0  0  0  0  0  0  0  0  0  0  0  0
  149.0930  138.3178  157.8908 C   0  0  0  0  0  0  0  0  0  0  0  0
  148.6450  137.6040  159.0832 N   0  5  0  0  0  0  0  0  0  0  0  0
  148.7527  136.2580  159.2543 C   0  0  0  0  0  0  0  0  0  0  0  0
  149.3138  135.4124  158.5494 O   0  0  0  0  0  0  0  0  0  0  0  0
  148.1042  135.8089  160.5070 C   0  0  0  0  0  0  0  0  0  0  0  0
  147.8486  134.5572  161.0077 C   0  0  0  0  0  0  0  0  0  0  0  0
  147.2327  134.7399  162.2765 C   0  0  0  0  0  0  0  0  0  0  0  0
  147.1635  136.0896  162.4675 C   0  0  0  0  0  0  0  0  0  0  0  0
  147.6971  136.7529  161.4060 O   0  0  0  0  0  0  0  0  0  0  0  0
  151.0311  139.2236  159.1250 N   0  0  0  0  0  0  0  0  0  0  0  0
  151.6626  140.4480  159.1911 C   0  0  0  0  0  0  0  0  0  0  0  0
  152.7752  140.8651  159.9563 C   0  0  0  0  0  0  0  0  0  0  0  0
  153.2518  142.1886  159.8602 C   0  0  0  0  0  0  0  0  0  0  0  0
  152.6237  143.1113  158.9994 C   0  0  0  0  0  0  0  0  0  0  0  0
  151.5150  142.7143  158.2274 C   0  0  0  0  0  0  0  0  0  0  0  0
  151.0426  141.3909  158.3256 C   0  0  0  0  0  0  0  0  0  0  0  0
  146.7298  139.9101  151.6660 H   0  0  0  0  0  0  0  0  0  0  0  0
  146.4553  141.4281  152.5194 H   0  0  0  0  0  0  0  0  0  0  0  0
  145.9652  139.9029  153.2547 H   0  0  0  0  0  0  0  0  0  0  0  0
  148.3769  139.2064  153.4125 H   0  0  0  0  0  0  0  0  0  0  0  0
  148.8676  140.7352  152.6871 H   0  0  0  0  0  0  0  0  0  0  0  0
  149.4697  139.6201  155.4059 H   0  0  0  0  0  0  0  0  0  0  0  0
  150.0864  141.1558  154.8280 H   0  0  0  0  0  0  0  0  0  0  0  0
  149.1960  142.3673  156.7096 H   0  0  0  0  0  0  0  0  0  0  0  0
  148.0560  141.1154  157.0860 H   0  0  0  0  0  0  0  0  0  0  0  0
  148.2656  138.7569  157.3319 H   0  0  0  0  0  0  0  0  0  0  0  0
  149.5863  137.6444  157.1888 H   0  0  0  0  0  0  0  0  0  0  0  0
  148.0790  133.6222  160.5184 H   0  0  0  0  0  0  0  0  0  0  0  0
  146.8882  133.9806  162.9625 H   0  0  0  0  0  0  0  0  0  0  0  0
  146.7889  136.7173  163.2624 H   0  0  0  0  0  0  0  0  0  0  0  0
  153.2606  140.1648  160.6194 H   0  0  0  0  0  0  0  0  0  0  0  0
  154.1019  142.4975  160.4505 H   0  0  0  0  0  0  0  0  0  0  0  0
  152.9924  144.1243  158.9325 H   0  0  0  0  0  0  0  0  0  0  0  0
  151.0292  143.4206  157.5708 H   0  0  0  0  0  0  0  0  0  0  0  0
  1  2  1  0  0  0  0
  1 24  1  0  0  0  0
  1 25  1  0  0  0  0
  1 26  1  0  0  0  0
  2  3  1  0  0  0  0
  2 27  1  0  0  0  0
  2 28  1  0  0  0  0
  3  4  1  0  0  0  0
  4  5  1  0  0  0  0
  4 29  1  0  0  0  0
  4 30  1  0  0  0  0
  5  6  1  0  0  0  0
  5 31  1  0  0  0  0
  5 32  1  0  0  0  0
  6 23  1  0  0  0  0
  6  7  1  0  0  0  0
  7  8  1  0  0  0  0
  7 17  2  0  0  0  0
  8  9  1  0  0  0  0
  8 33  1  0  0  0  0
  8 34  1  0  0  0  0
  9 10  1  0  0  0  0
 10 11  2  0  0  0  0
 10 12  1  0  0  0  0
 12 16  1  0  0  0  0
 12 13  2  0  0  0  0
 13 14  1  0  0  0  0
 13 35  1  0  0  0  0
 14 15  2  0  0  0  0
 14 36  1  0  0  0  0
 15 16  1  0  0  0  0
 15 37  1  0  0  0  0
 17 18  1  0  0  0  0
 18 23  2  0  0  0  0
 18 19  1  0  0  0  0
 19 20  2  0  0  0  0
 19 38  1  0  0  0  0
 20 21  1  0  0  0  0
 20 39  1  0  0  0  0
 21 22  2  0  0  0  0
 21 40  1  0  0  0  0
 22 23  1  0  0  0  0
 22 41  1  0  0  0  0
M  CHG  1   9  -1
M  END
> <s_m_source_file>
AV-unprocessed.smi

> <i_m_source_file_index>
498

> <i_lp_mmshare_version>
43012

> <i_f3d_flags>
0

> <s_epik_input>
W0NIM11bQ0gyXU9bQ0gyXVtDSDJdbihjKGMxMilbY0hdW2NIXVtjSF1bY0hdMiljKG4xKVtDSDJdW05IXUMoPU8pYzNbY0hdW2NIXVtjSF1vMw==

> <s_epik_cmdline>
J2VwaWtfcHl0aG9uJywgJy1waCcsICc3LjAnLCAnLXRuJywgJzgnLCAnLW1hJywgJzIwMCcsICctbWV0YWxfYmluZGluZycsICctaW1hZScsICc8aW5maWxlLm1hZT4nLCAnLW9tYWUnLCAnPG91dGZpbGUubWFlPic=

> <r_epik_Ionization_Penalty>
7.14443

> <r_epik_Ionization_Penalty_Charging>
6.27046

> <r_epik_Ionization_Penalty_Neutral>
0.873973

> <r_epik_State_Penalty>
6.33192

> <r_epik_Charging_Adjusted_Penalty>
12.6024

> <i_epik_Tot_Q>
-1

> <i_epik_Tot_abs_Q>
1

> <r_epik_Metal_State_Penalty>
2.32923

> <b_epik_Metal_Only>
1

> <s_lp_Force_Field>
OPLS_2005

> <r_lp_Energy>
15.7295

> <b_lp_Chiralities_Consistent>
1

> <s_lp_Variant>
AV-unprocessed.smi:498-3

> <Gold.Version>
5.8.1

> <Gold.Id.Protein>
6NUR|6NUR_protein|mol2

> <Gold.PLP.Fitness>
51.9814

> <Gold.PLP.PLP>
-44.4127

> <Gold.PLP.part.hbond>
-5.0005

> <Gold.PLP.part.metal>
0.0000

> <Gold.PLP.part.buried>
-0.5201

> <Gold.PLP.part.nonpolar>
-39.6548

> <Gold.PLP.part.repulsive>
0.1183

> <Gold.PLP.ligand.clash>
0.0000

> <Gold.PLP.ligand.torsion>
0.4465

> <Gold.PLP.Chemscore.Hbond>
2.7680

> <Gold.PLP.Chemscore.CHOScore>
0.0000

> <Gold.PLP.Chemscore.Metal>
0.0000

> <Gold.Chemscore.Hbonds>
donor molecule, donor type, donor heavy atom, donor atom, acceptor molecule, acceptor atom, score
      P1  H  6896  6909       L1    11  1.00
      P1  H  6931  6943       L1    16  0.91
      P1  H  6934  6947       L1    16  0.13

> <Gold.PLP.Chemscore.Internal.Correction>
0.1576

> <Gold.Rescore>
     Score         DG    S(hbond)    S(metal)    S(lipo)     H(rot)  DE(clash)    DE(int)     intcor
     20.18     -22.24       2.34        0.00     118.04       1.90       1.53       0.54       ----

> <Gold.Chemscore.Fitness>
20.1772

> <Gold.Chemscore.DG>
-22.2384

> <Gold.Chemscore.ZeroCoef>
-5.4800

> <Gold.Chemscore.Hbond>
2.3382

> <Gold.Chemscore.Metal>
0.0000

> <Gold.Chemscore.Lipo>
118.0423

> <Gold.Chemscore.Internal_Hbond>
0.0000

> <Gold.Chemscore.DEClash>
1.5262

> <Gold.Chemscore.DEInternal>
0.5350

> <Gold.Chemscore.Rot>
1.8992

> <Gold.Chemscore.Internal.Correction>
   9.000000E+99

> <Gold.Chemscore.Hbonds>
donor molecule, donor type, donor heavy atom, donor atom, acceptor molecule, acceptor atom, score
      P1  H  6896  6909       L1    11  0.85
      P1  H  6931  6943       L1    16  0.75
      P1  H  6934  6947       L1    16  0.15

> <Gold.Chemscore.Hbond.Weighted>
-7.8095

> <Gold.Chemscore.Metal.Weighted>
-0.0000

> <Gold.Chemscore.Lipo.Weighted>
-13.8109

> <Gold.Chemscore.Internal_Hbond.Weighted>
0.0000

> <Gold.Chemscore.DEClash.Weighted>
1.5262

> <Gold.Chemscore.DEInternal.Weighted>
0.5350

> <Gold.Chemscore.Rot.Weighted>
4.8621

> <Gold.Chemscore.Internal.Correction.Weighted>
   9.000000E+99

> <Gold.Protein.RotatedTorsions>
[ 6907 6896 6895 6894 ] final   38.91 input  -60.11 | X-H torsion
[ 7974 7965 7964 7962 ] final   40.76 input  175.53 | X-H torsion
[ 8008 7997 7996 7995 ] final   -7.48 input   59.86 | X-H torsion
[ 10167 10162 10161 10158 ] final  -23.53 input  -65.29 | X-H torsion
[ 10718 10713 10712 10709 ] final -156.61 input   66.30 | X-H torsion
[ 10763 10752 10751 10750 ] final   20.76 input  -60.55 | X-H torsion
[ 11005 11000 10999 10996 ] final  -20.20 input  -57.11 | X-H torsion

> <Gold.Protein.ActiveResidues>
 VAL166  LYS551  ARG553  GLY616  TRP617  ASP618  TYR619  PRO620  LYS621  CYS622 
 ASP623  PHE694  ASN695  SER759  ASP760  ASP761  ALA762  ILE779  LEU786  VAL792 
 PHE793  MET794  SER795  GLU796  ALA797  LYS798  CYS799  TRP800  GLU811  SER814 

> <Gold.Protein.RotatedAtoms>
  152.1627  134.8899  160.0540 H   0  0  0  0  0  0  0  0  0  0  0  0  # atno 6907 bound_to 6896
  151.9889  133.3779  159.4144 H   0  0  0  0  0  0  0  0  0  0  0  0  # atno 6908 bound_to 6896
  150.6890  134.3881  159.5108 H   0  0  0  0  0  0  0  0  0  0  0  0  # atno 6909 bound_to 6896
  146.0878  139.5494  142.9495 H   0  0  0  0  0  0  0  0  0  0  0  0  # atno 7974 bound_to 7965
  154.5834  140.2406  155.8022 H   0  0  0  0  0  0  0  0  0  0  0  0  # atno 8008 bound_to 7997
  156.2195  140.3002  155.9875 H   0  0  0  0  0  0  0  0  0  0  0  0  # atno 8009 bound_to 7997
  155.2501  140.0410  157.2976 H   0  0  0  0  0  0  0  0  0  0  0  0  # atno 8010 bound_to 7997
  140.7288  143.4434  151.0622 H   0  0  0  0  0  0  0  0  0  0  0  0  # atno 10167 bound_to 10162
  156.5289  130.8512  151.2709 H   0  0  0  0  0  0  0  0  0  0  0  0  # atno 10718 bound_to 10713
  153.1051  135.6682  153.9601 H   0  0  0  0  0  0  0  0  0  0  0  0  # atno 10763 bound_to 10752
  153.9161  135.3019  155.3449 H   0  0  0  0  0  0  0  0  0  0  0  0  # atno 10764 bound_to 10752
  154.7472  135.5052  153.9301 H   0  0  0  0  0  0  0  0  0  0  0  0  # atno 10765 bound_to 10752
  140.8441  133.7904  155.9893 H   0  0  0  0  0  0  0  0  0  0  0  0  # atno 11005 bound_to 11000
  145.6096  141.0342  143.1974 LP  0  0  0  0  0  0  0  0  0  0  0  0  # atno 17320 bound_to 7965
  144.7338  139.7645  143.7337 LP  0  0  0  0  0  0  0  0  0  0  0  0  # atno 17321 bound_to 7965
  139.8104  143.7959  152.3171 LP  0  0  0  0  0  0  0  0  0  0  0  0  # atno 17342 bound_to 10162
  139.8007  144.7375  150.9829 LP  0  0  0  0  0  0  0  0  0  0  0  0  # atno 17343 bound_to 10162
  157.7425  130.9892  150.2521 LP  0  0  0  0  0  0  0  0  0  0  0  0  # atno 17370 bound_to 10713
  156.3079  130.3767  149.7689 LP  0  0  0  0  0  0  0  0  0  0  0  0  # atno 17371 bound_to 10713
  140.8863  134.2550  157.5118 LP  0  0  0  0  0  0  0  0  0  0  0  0  # atno 17394 bound_to 11000
  139.8703  134.9639  156.4479 LP  0  0  0  0  0  0  0  0  0  0  0  0  # atno 17395 bound_to 11000

$$$$
