AV-unprocessed.smi:3214|AV-procd|sdf|12284|dock10
  -GOLD-   2272018123D 1   1.00000     0.00000
 Structure written by MMmdl.
 37 37  0  0  0  0  0  0  0  0  2 V2000
  146.3348  139.0672  151.5585 C   0  0  0  0  0  0  0  0  0  0  0  0
  146.4506  139.3463  153.0603 C   0  0  0  0  0  0  0  0  0  0  0  0
  147.5177  140.3018  153.3238 N   0  0  0  0  0  0  0  0  0  0  0  0
  147.8915  140.7002  154.5481 C   0  0  0  0  0  0  0  0  0  0  0  0
  147.3584  140.2935  155.5806 O   0  0  0  0  0  0  0  0  0  0  0  0
  149.0358  141.7166  154.6132 C   0  0  0  0  0  0  0  0  0  0  0  0
  150.1051  141.3436  155.6536 C   0  0  0  0  0  0  0  0  0  0  0  0
  150.6728  142.5538  156.2852 N   0  3  0  0  0  0  0  0  0  0  0  0
  150.8748  142.4747  157.7510 C   0  0  1  0  0  0  0  0  0  0  0  0
  151.3598  141.0646  158.1140 C   0  0  0  0  0  0  0  0  0  0  0  0
  151.8859  143.5340  158.2475 C   0  0  0  0  0  0  0  0  0  0  0  0
  152.3454  143.3104  159.6064 N   0  0  0  0  0  0  0  0  0  0  0  0
  152.1138  144.0794  160.7280 C   0  0  0  0  0  0  0  0  0  0  0  0
  152.7538  143.4765  161.7727 C   0  0  0  0  0  0  0  0  0  0  0  0
  153.3684  142.3374  161.1816 C   0  0  0  0  0  0  0  0  0  0  0  0
  153.1262  142.2438  159.8840 N   0  0  0  0  0  0  0  0  0  0  0  0
  145.5353  138.3537  151.3583 H   0  0  0  0  0  0  0  0  0  0  0  0
  147.2601  138.6477  151.1620 H   0  0  0  0  0  0  0  0  0  0  0  0
  146.1130  139.9787  151.0028 H   0  0  0  0  0  0  0  0  0  0  0  0
  145.5063  139.7408  153.4388 H   0  0  0  0  0  0  0  0  0  0  0  0
  146.6508  138.4170  153.5958 H   0  0  0  0  0  0  0  0  0  0  0  0
  148.0006  140.6833  152.5232 H   0  0  0  0  0  0  0  0  0  0  0  0
  149.4970  141.8066  153.6282 H   0  0  0  0  0  0  0  0  0  0  0  0
  148.6092  142.6920  154.8513 H   0  0  0  0  0  0  0  0  0  0  0  0
  149.6706  140.7002  156.4170 H   0  0  0  0  0  0  0  0  0  0  0  0
  150.9089  140.7797  155.1774 H   0  0  0  0  0  0  0  0  0  0  0  0
  151.5780  142.7054  155.8639 H   0  0  0  0  0  0  0  0  0  0  0  0
  149.9161  142.6183  158.2521 H   0  0  0  0  0  0  0  0  0  0  0  0
  151.4787  140.9563  159.1926 H   0  0  0  0  0  0  0  0  0  0  0  0
  152.3212  140.8412  157.6500 H   0  0  0  0  0  0  0  0  0  0  0  0
  150.6475  140.3063  157.7870 H   0  0  0  0  0  0  0  0  0  0  0  0
  152.7662  143.5390  157.6032 H   0  0  0  0  0  0  0  0  0  0  0  0
  151.4533  144.5336  158.1835 H   0  0  0  0  0  0  0  0  0  0  0  0
  151.5169  144.9789  160.6922 H   0  0  0  0  0  0  0  0  0  0  0  0
  152.7832  143.8018  162.8021 H   0  0  0  0  0  0  0  0  0  0  0  0
  153.9800  141.5822  161.6528 H   0  0  0  0  0  0  0  0  0  0  0  0
  150.0877  143.3506  156.0781 H   0  0  0  0  0  0  0  0  0  0  0  0
  1  2  1  0  0  0  0
  1 17  1  0  0  0  0
  1 18  1  0  0  0  0
  1 19  1  0  0  0  0
  2  3  1  0  0  0  0
  2 20  1  0  0  0  0
  2 21  1  0  0  0  0
  3  4  1  0  0  0  0
  3 22  1  0  0  0  0
  4  5  2  0  0  0  0
  4  6  1  0  0  0  0
  6  7  1  0  0  0  0
  6 23  1  0  0  0  0
  6 24  1  0  0  0  0
  7  8  1  0  0  0  0
  7 25  1  0  0  0  0
  7 26  1  0  0  0  0
  8  9  1  0  0  0  0
  8 27  1  0  0  0  0
  8 37  1  0  0  0  0
  9 10  1  0  0  0  0
  9 11  1  0  0  0  0
  9 28  1  0  0  0  0
 10 29  1  0  0  0  0
 10 30  1  0  0  0  0
 10 31  1  0  0  0  0
 11 12  1  0  0  0  0
 11 32  1  0  0  0  0
 11 33  1  0  0  0  0
 12 16  1  0  0  0  0
 12 13  1  0  0  0  0
 13 14  2  0  0  0  0
 13 34  1  0  0  0  0
 14 15  1  0  0  0  0
 14 35  1  0  0  0  0
 15 16  2  0  0  0  0
 15 36  1  0  0  0  0
M  CHG  1   8   1
M  END
> <s_m_source_file>
AV-unprocessed.smi

> <i_m_source_file_index>
3214

> <i_lp_mmshare_version>
43012

> <i_f3d_flags>
0

> <s_epik_input>
W0NIM11bQ0gyXVtOSF1DKD1PKVtDSDJdW0NIMl1bTkhdW0NASF0oW0NIM10pW0NIMl1uMVtjSF1bY0hdW2NIXW4x

> <s_epik_cmdline>
J2VwaWtfcHl0aG9uJywgJy1waCcsICc3LjAnLCAnLXRuJywgJzgnLCAnLW1hJywgJzIwMCcsICctbWV0YWxfYmluZGluZycsICctaW1hZScsICc8aW5maWxlLm1hZT4nLCAnLW9tYWUnLCAnPG91dGZpbGUubWFlPic=

> <r_lp_tautomer_probability>
1

> <r_epik_Ionization_Penalty>
0.00598156

> <r_epik_Ionization_Penalty_Charging>
0.00597743

> <r_epik_Ionization_Penalty_Neutral>
4.12922e-06

> <r_epik_State_Penalty>
0.00439883

> <r_epik_Charging_Adjusted_Penalty>
0.0103763

> <i_epik_Tot_Q>
1

> <i_epik_Tot_abs_Q>
1

> <r_epik_Metal_State_Penalty>
-0

> <b_epik_Metal_Only>
0

> <s_lp_Force_Field>
OPLS_2005

> <r_lp_Energy>
6.42892

> <b_lp_Chiralities_Consistent>
1

> <s_lp_Variant>
AV-unprocessed.smi:3214-2

> <Gold.Version>
5.8.1

> <Gold.Id.Protein>
6NUR|6NUR_protein|mol2

> <Gold.PLP.Fitness>
47.3945

> <Gold.PLP.PLP>
-41.0010

> <Gold.PLP.part.hbond>
-2.0000

> <Gold.PLP.part.metal>
0.0000

> <Gold.PLP.part.buried>
-1.3116

> <Gold.PLP.part.nonpolar>
-36.3500

> <Gold.PLP.part.repulsive>
0.2085

> <Gold.PLP.ligand.clash>
0.0000

> <Gold.PLP.ligand.torsion>
1.0339

> <Gold.PLP.Chemscore.Hbond>
2.7680

> <Gold.PLP.Chemscore.CHOScore>
0.0000

> <Gold.PLP.Chemscore.Metal>
0.0000

> <Gold.Chemscore.Hbonds>
donor molecule, donor type, donor heavy atom, donor atom, acceptor molecule, acceptor atom, score
      L1  H     3    22       P1  7957  0.45
      L1  H     8    37       P1  8028  2.00

> <Gold.PLP.Chemscore.Internal.Correction>
0.1573

> <Gold.Rescore>
     Score         DG    S(hbond)    S(metal)    S(lipo)     H(rot)  DE(clash)    DE(int)     intcor
     14.37     -16.98       1.98        0.00      94.30       2.39       0.06       2.55       ----

> <Gold.Chemscore.Fitness>
14.3714

> <Gold.Chemscore.DG>
-16.9797

> <Gold.Chemscore.ZeroCoef>
-5.4800

> <Gold.Chemscore.Hbond>
1.9751

> <Gold.Chemscore.Metal>
0.0000

> <Gold.Chemscore.Lipo>
94.3027

> <Gold.Chemscore.Internal_Hbond>
0.0000

> <Gold.Chemscore.DEClash>
0.0596

> <Gold.Chemscore.DEInternal>
2.5487

> <Gold.Chemscore.Rot>
2.3948

> <Gold.Chemscore.Internal.Correction>
   9.000000E+99

> <Gold.Chemscore.Hbonds>
donor molecule, donor type, donor heavy atom, donor atom, acceptor molecule, acceptor atom, score
      L1  H     3    22       P1  7957  0.46
      L1  H     8    37       P1  8028  1.00

> <Gold.Chemscore.Hbond.Weighted>
-6.5969

> <Gold.Chemscore.Metal.Weighted>
-0.0000

> <Gold.Chemscore.Lipo.Weighted>
-11.0334

> <Gold.Chemscore.Internal_Hbond.Weighted>
0.0000

> <Gold.Chemscore.DEClash.Weighted>
0.0596

> <Gold.Chemscore.DEInternal.Weighted>
2.5487

> <Gold.Chemscore.Rot.Weighted>
6.1306

> <Gold.Chemscore.Internal.Correction.Weighted>
   9.000000E+99

> <Gold.Protein.RotatedTorsions>
[ 6907 6896 6895 6894 ] final  -19.86 input  -60.11 | X-H torsion
[ 7974 7965 7964 7962 ] final  168.82 input  175.53 | X-H torsion
[ 8008 7997 7996 7995 ] final  165.95 input   59.86 | X-H torsion
[ 10167 10162 10161 10158 ] final  -80.72 input  -65.29 | X-H torsion
[ 10718 10713 10712 10709 ] final   44.32 input   66.30 | X-H torsion
[ 10763 10752 10751 10750 ] final   45.77 input  -60.55 | X-H torsion
[ 11005 11000 10999 10996 ] final  -53.06 input  -57.11 | X-H torsion

> <Gold.Protein.ActiveResidues>
 VAL166  LYS551  ARG553  GLY616  TRP617  ASP618  TYR619  PRO620  LYS621  CYS622 
 ASP623  PHE694  ASN695  SER759  ASP760  ASP761  ALA762  ILE779  LEU786  VAL792 
 PHE793  MET794  SER795  GLU796  ALA797  LYS798  CYS799  TRP800  GLU811  SER814 

> <Gold.Protein.RotatedAtoms>
  151.2568  135.0640  159.9082 H   0  0  0  0  0  0  0  0  0  0  0  0  # atno 6907 bound_to 6896
  152.5372  134.0274  159.8019 H   0  0  0  0  0  0  0  0  0  0  0  0  # atno 6908 bound_to 6896
  151.0490  133.5591  159.2675 H   0  0  0  0  0  0  0  0  0  0  0  0  # atno 6909 bound_to 6896
  144.7376  139.8963  143.6406 H   0  0  0  0  0  0  0  0  0  0  0  0  # atno 7974 bound_to 7965
  156.1759  140.1656  156.8364 H   0  0  0  0  0  0  0  0  0  0  0  0  # atno 8008 bound_to 7997
  154.5306  140.0757  156.8371 H   0  0  0  0  0  0  0  0  0  0  0  0  # atno 8009 bound_to 7997
  155.3415  140.3385  155.4241 H   0  0  0  0  0  0  0  0  0  0  0  0  # atno 8010 bound_to 7997
  140.4477  143.2493  151.8534 H   0  0  0  0  0  0  0  0  0  0  0  0  # atno 10167 bound_to 10162
  157.4255  130.7994  149.7554 H   0  0  0  0  0  0  0  0  0  0  0  0  # atno 10718 bound_to 10713
  152.9820  135.6029  154.3490 H   0  0  0  0  0  0  0  0  0  0  0  0  # atno 10763 bound_to 10752
  154.3181  135.2770  155.2535 H   0  0  0  0  0  0  0  0  0  0  0  0  # atno 10764 bound_to 10752
  154.4714  135.5941  153.6380 H   0  0  0  0  0  0  0  0  0  0  0  0  # atno 10765 bound_to 10752
  141.0957  133.6625  156.4117 H   0  0  0  0  0  0  0  0  0  0  0  0  # atno 11005 bound_to 11000
  146.1105  139.4109  143.0291 LP  0  0  0  0  0  0  0  0  0  0  0  0  # atno 17320 bound_to 7965
  145.7450  140.9994  143.1281 LP  0  0  0  0  0  0  0  0  0  0  0  0  # atno 17321 bound_to 7965
  139.4794  144.5156  151.8873 LP  0  0  0  0  0  0  0  0  0  0  0  0  # atno 17342 bound_to 10162
  140.4244  144.2200  150.5887 LP  0  0  0  0  0  0  0  0  0  0  0  0  # atno 17343 bound_to 10162
  155.9895  130.3951  150.3070 LP  0  0  0  0  0  0  0  0  0  0  0  0  # atno 17370 bound_to 10713
  157.1222  131.0250  151.3004 LP  0  0  0  0  0  0  0  0  0  0  0  0  # atno 17371 bound_to 10713
  140.5146  134.6362  157.5296 LP  0  0  0  0  0  0  0  0  0  0  0  0  # atno 17394 bound_to 11000
  139.9793  134.7164  155.9890 LP  0  0  0  0  0  0  0  0  0  0  0  0  # atno 17395 bound_to 11000

$$$$
