AV-unprocessed.smi:720|AV-procd|sdf|3502|dock5
  -GOLD-   22720 0493D 1   1.00000     0.00000
 Structure written by MMmdl.
 46 48  0  0  0  0  0  0  0  0  1 V2000
  151.2967  141.6988  159.0944 C   0  0  0  0  0  0  0  0  0  0  0  0
  151.7678  142.4356  157.9278 N   0  0  0  0  0  0  0  0  0  0  0  0
  151.7917  143.8531  158.2641 C   0  0  0  0  0  0  0  0  0  0  0  0
  150.8992  142.2392  156.7659 C   0  0  0  0  0  0  0  0  0  0  0  0
  150.9804  140.8202  156.1630 C   0  0  0  0  0  0  0  0  0  0  0  0
  149.8446  140.4848  155.3211 N   0  0  0  0  0  0  0  0  0  0  0  0
  148.8322  141.3128  154.8771 C   0  0  0  0  0  0  0  0  0  0  0  0
  148.0018  140.5646  154.0920 C   0  0  0  0  0  0  0  0  0  0  0  0
  148.6071  139.2785  154.1100 C   0  0  0  0  0  0  0  0  0  0  0  0
  148.0284  138.1988  153.3970 N   0  0  0  0  0  0  0  0  0  0  0  0
  146.7211  137.8985  153.2706 C   0  0  0  0  0  0  0  0  0  0  0  0
  145.8040  138.5414  153.7783 O   0  0  0  0  0  0  0  0  0  0  0  0
  146.4762  136.8128  152.5151 N   0  0  0  0  0  0  0  0  0  0  0  0
  145.1772  136.2218  152.1815 C   0  0  1  0  0  0  0  0  0  0  0  0
  145.1030  135.8480  150.6846 C   0  0  0  0  0  0  0  0  0  0  0  0
  144.7960  134.3395  150.7153 C   0  0  1  0  0  0  0  0  0  0  0  0
  146.0435  133.5685  151.1876 C   0  0  0  0  0  0  0  0  0  0  0  0
  146.0938  133.8911  152.6930 C   0  0  0  0  0  0  0  0  0  0  0  0
  144.9040  134.8588  152.8702 C   0  0  2  0  0  0  0  0  0  0  0  0
  143.8804  134.2351  151.9276 C   0  0  0  0  0  0  0  0  0  0  0  0
  149.7175  139.2317  154.8323 N   0  0  0  0  0  0  0  0  0  0  0  0
  151.3802  140.6249  158.9402 H   0  0  0  0  0  0  0  0  0  0  0  0
  150.2574  141.9364  159.3244 H   0  0  0  0  0  0  0  0  0  0  0  0
  151.9031  141.9384  159.9687 H   0  0  0  0  0  0  0  0  0  0  0  0
  152.1707  144.4410  157.4275 H   0  0  0  0  0  0  0  0  0  0  0  0
  152.4481  144.0358  159.1156 H   0  0  0  0  0  0  0  0  0  0  0  0
  150.7952  144.2194  158.5161 H   0  0  0  0  0  0  0  0  0  0  0  0
  149.8699  142.5177  156.9966 H   0  0  0  0  0  0  0  0  0  0  0  0
  151.2317  142.9306  155.9904 H   0  0  0  0  0  0  0  0  0  0  0  0
  151.8693  140.7521  155.5351 H   0  0  0  0  0  0  0  0  0  0  0  0
  151.1015  140.0690  156.9454 H   0  0  0  0  0  0  0  0  0  0  0  0
  148.7865  142.3550  155.1564 H   0  0  0  0  0  0  0  0  0  0  0  0
  147.1047  140.8882  153.5853 H   0  0  0  0  0  0  0  0  0  0  0  0
  148.6770  137.5935  152.9160 H   0  0  0  0  0  0  0  0  0  0  0  0
  147.2822  136.3508  152.1194 H   0  0  0  0  0  0  0  0  0  0  0  0
  144.3771  136.9286  152.4101 H   0  0  0  0  0  0  0  0  0  0  0  0
  144.2949  136.3949  150.1970 H   0  0  0  0  0  0  0  0  0  0  0  0
  146.0213  136.0649  150.1369 H   0  0  0  0  0  0  0  0  0  0  0  0
  144.3745  133.9608  149.7838 H   0  0  0  0  0  0  0  0  0  0  0  0
  145.9241  132.4960  151.0293 H   0  0  0  0  0  0  0  0  0  0  0  0
  146.9462  133.8863  150.6647 H   0  0  0  0  0  0  0  0  0  0  0  0
  145.9353  132.9843  153.2780 H   0  0  0  0  0  0  0  0  0  0  0  0
  147.0504  134.3115  153.0029 H   0  0  0  0  0  0  0  0  0  0  0  0
  144.5710  134.9494  153.9046 H   0  0  0  0  0  0  0  0  0  0  0  0
  142.9658  134.8228  151.8314 H   0  0  0  0  0  0  0  0  0  0  0  0
  143.6193  133.2071  152.1865 H   0  0  0  0  0  0  0  0  0  0  0  0
  1  2  1  0  0  0  0
  1 22  1  0  0  0  0
  1 23  1  0  0  0  0
  1 24  1  0  0  0  0
  2  3  1  0  0  0  0
  2  4  1  0  0  0  0
  3 25  1  0  0  0  0
  3 26  1  0  0  0  0
  3 27  1  0  0  0  0
  4  5  1  0  0  0  0
  4 28  1  0  0  0  0
  4 29  1  0  0  0  0
  5  6  1  0  0  0  0
  5 30  1  0  0  0  0
  5 31  1  0  0  0  0
  6 21  1  0  0  0  0
  6  7  1  0  0  0  0
  7  8  2  0  0  0  0
  7 32  1  0  0  0  0
  8  9  1  0  0  0  0
  8 33  1  0  0  0  0
  9 10  1  0  0  0  0
  9 21  2  0  0  0  0
 10 11  1  0  0  0  0
 10 34  1  0  0  0  0
 11 12  2  0  0  0  0
 11 13  1  0  0  0  0
 13 14  1  0  0  0  0
 13 35  1  0  0  0  0
 14 19  1  0  0  0  0
 14 15  1  0  0  0  0
 14 36  1  0  0  0  0
 15 16  1  0  0  0  0
 15 37  1  0  0  0  0
 15 38  1  0  0  0  0
 16 20  1  0  0  0  0
 16 17  1  0  0  0  0
 16 39  1  0  0  0  0
 17 18  1  0  0  0  0
 17 40  1  0  0  0  0
 17 41  1  0  0  0  0
 18 19  1  0  0  0  0
 18 42  1  0  0  0  0
 18 43  1  0  0  0  0
 19 20  1  0  0  0  0
 19 44  1  0  0  0  0
 20 45  1  0  0  0  0
 20 46  1  0  0  0  0
M  END
> <s_m_source_file>
AV-unprocessed.smi

> <i_m_source_file_index>
720

> <i_lp_mmshare_version>
43012

> <i_f3d_flags>
0

> <s_epik_input>
W0NIM11OKFtDSDNdKVtDSDJdW0NIMl1uMVtjSF1bY0hdYyhuMSlbTkhdQyg9TylbTkhdW0NASF0oW0NIMl1bQ0BIXTIzKVtDQEhdKFtDSDJdMylbQ0gyXVtDSDJdMg==

> <s_epik_cmdline>
J2VwaWtfcHl0aG9uJywgJy1waCcsICc3LjAnLCAnLXRuJywgJzgnLCAnLW1hJywgJzIwMCcsICctbWV0YWxfYmluZGluZycsICctaW1hZScsICc8aW5maWxlLm1hZT4nLCAnLW9tYWUnLCAnPG91dGZpbGUubWFlPic=

> <r_lp_tautomer_probability>
1

> <r_epik_Ionization_Penalty>
1.83819

> <r_epik_Ionization_Penalty_Charging>
0

> <r_epik_Ionization_Penalty_Neutral>
1.83819

> <r_epik_State_Penalty>
1.95467

> <r_epik_Charging_Adjusted_Penalty>
1.95467

> <i_epik_Tot_Q>
0

> <i_epik_Tot_abs_Q>
0

> <r_epik_Metal_State_Penalty>
1.95467

> <b_epik_Metal_Only>
0

> <s_lp_Force_Field>
OPLS_2005

> <r_lp_Energy>
62.953

> <b_lp_Chiralities_Consistent>
1

> <s_lp_Variant>
AV-unprocessed.smi:720-8

> <Gold.Version>
5.8.1

> <Gold.Id.Protein>
6NUR|6NUR_protein|mol2

> <Gold.PLP.Fitness>
43.7726

> <Gold.PLP.PLP>
-36.0204

> <Gold.PLP.part.hbond>
-2.2745

> <Gold.PLP.part.metal>
0.0000

> <Gold.PLP.part.buried>
-2.5728

> <Gold.PLP.part.nonpolar>
-32.2695

> <Gold.PLP.part.repulsive>
0.4270

> <Gold.PLP.ligand.clash>
0.0000

> <Gold.PLP.ligand.torsion>
0.6458

> <Gold.PLP.Chemscore.Hbond>
1.9920

> <Gold.PLP.Chemscore.CHOScore>
1.0000

> <Gold.PLP.Chemscore.Metal>
0.0000

> <Gold.Chemscore.Hbonds>
donor molecule, donor type, donor heavy atom, donor atom, acceptor molecule, acceptor atom, score
      L1  H    10    34       P1  7948  1.00
      L1  H    13    35       P1  7948  1.00
      L1  C     7    32       P1  8028  1.00

> <Gold.PLP.Chemscore.Internal.Correction>
0.0677

> <Gold.Rescore>
     Score         DG    S(hbond)    S(metal)    S(lipo)     H(rot)  DE(clash)    DE(int)     intcor
     16.15     -17.59       1.91        0.00      82.56       1.53       0.11       1.34       ----

> <Gold.Chemscore.Fitness>
16.1478

> <Gold.Chemscore.DG>
-17.5935

> <Gold.Chemscore.ZeroCoef>
-5.4800

> <Gold.Chemscore.Hbond>
1.9085

> <Gold.Chemscore.Metal>
0.0000

> <Gold.Chemscore.Lipo>
82.5567

> <Gold.Chemscore.Internal_Hbond>
0.0000

> <Gold.Chemscore.DEClash>
0.1096

> <Gold.Chemscore.DEInternal>
1.3361

> <Gold.Chemscore.Rot>
1.5312

> <Gold.Chemscore.Internal.Correction>
   9.000000E+99

> <Gold.Chemscore.Hbonds>
donor molecule, donor type, donor heavy atom, donor atom, acceptor molecule, acceptor atom, score
      L1  H    10    34       P1  7948  0.94
      L1  H    13    35       P1  7948  0.97

> <Gold.Chemscore.Hbond.Weighted>
-6.3742

> <Gold.Chemscore.Metal.Weighted>
-0.0000

> <Gold.Chemscore.Lipo.Weighted>
-9.6591

> <Gold.Chemscore.Internal_Hbond.Weighted>
0.0000

> <Gold.Chemscore.DEClash.Weighted>
0.1096

> <Gold.Chemscore.DEInternal.Weighted>
1.3361

> <Gold.Chemscore.Rot.Weighted>
3.9199

> <Gold.Chemscore.Internal.Correction.Weighted>
   9.000000E+99

> <Gold.Protein.RotatedTorsions>
[ 6907 6896 6895 6894 ] final   15.46 input  -60.11 | X-H torsion
[ 7974 7965 7964 7962 ] final  117.95 input  175.53 | X-H torsion
[ 8008 7997 7996 7995 ] final   78.04 input   59.86 | X-H torsion
[ 10167 10162 10161 10158 ] final  -98.78 input  -65.29 | X-H torsion
[ 10718 10713 10712 10709 ] final  -37.81 input   66.30 | X-H torsion
[ 10763 10752 10751 10750 ] final -175.30 input  -60.55 | X-H torsion
[ 11005 11000 10999 10996 ] final -175.92 input  -57.11 | X-H torsion

> <Gold.Protein.ActiveResidues>
 VAL166  LYS551  ARG553  GLY616  TRP617  ASP618  TYR619  PRO620  LYS621  CYS622 
 ASP623  PHE694  ASN695  SER759  ASP760  ASP761  ALA762  ILE779  LEU786  VAL792 
 PHE793  MET794  SER795  GLU796  ALA797  LYS798  CYS799  TRP800  GLU811  SER814 

> <Gold.Protein.RotatedAtoms>
  151.8184  135.0659  160.0421 H   0  0  0  0  0  0  0  0  0  0  0  0  # atno 6907 bound_to 6896
  152.2969  133.5612  159.5602 H   0  0  0  0  0  0  0  0  0  0  0  0  # atno 6908 bound_to 6896
  150.7255  134.0264  159.3760 H   0  0  0  0  0  0  0  0  0  0  0  0  # atno 6909 bound_to 6896
  145.1611  139.3154  143.4516 H   0  0  0  0  0  0  0  0  0  0  0  0  # atno 7974 bound_to 7965
  155.8501  140.3458  155.5687 H   0  0  0  0  0  0  0  0  0  0  0  0  # atno 8008 bound_to 7997
  155.8047  140.0890  157.1957 H   0  0  0  0  0  0  0  0  0  0  0  0  # atno 8009 bound_to 7997
  154.4007  140.1459  156.3303 H   0  0  0  0  0  0  0  0  0  0  0  0  # atno 8010 bound_to 7997
  140.2693  143.3354  152.0550 H   0  0  0  0  0  0  0  0  0  0  0  0  # atno 10167 bound_to 10162
  156.3110  130.4252  149.8051 H   0  0  0  0  0  0  0  0  0  0  0  0  # atno 10718 bound_to 10713
  154.5860  135.2840  155.0684 H   0  0  0  0  0  0  0  0  0  0  0  0  # atno 10763 bound_to 10752
  154.2003  135.6425  153.5089 H   0  0  0  0  0  0  0  0  0  0  0  0  # atno 10764 bound_to 10752
  153.0104  135.5467  154.6530 H   0  0  0  0  0  0  0  0  0  0  0  0  # atno 10765 bound_to 10752
  140.4579  134.6282  157.4830 H   0  0  0  0  0  0  0  0  0  0  0  0  # atno 11005 bound_to 11000
  146.3482  140.1722  142.8589 LP  0  0  0  0  0  0  0  0  0  0  0  0  # atno 17320 bound_to 7965
  145.0330  140.8886  143.5098 LP  0  0  0  0  0  0  0  0  0  0  0  0  # atno 17321 bound_to 7965
  139.4993  144.6667  151.6340 LP  0  0  0  0  0  0  0  0  0  0  0  0  # atno 17342 bound_to 10162
  140.5902  143.9792  150.6320 LP  0  0  0  0  0  0  0  0  0  0  0  0  # atno 17343 bound_to 10162
  156.5394  130.8293  151.3264 LP  0  0  0  0  0  0  0  0  0  0  0  0  # atno 17370 bound_to 10713
  157.7391  130.9825  150.2291 LP  0  0  0  0  0  0  0  0  0  0  0  0  # atno 17371 bound_to 10713
  139.9964  134.6904  155.9602 LP  0  0  0  0  0  0  0  0  0  0  0  0  # atno 17394 bound_to 11000
  141.1635  133.6538  156.4398 LP  0  0  0  0  0  0  0  0  0  0  0  0  # atno 17395 bound_to 11000

$$$$
