AV-unprocessed.smi:1987|AV-procd|sdf|8057|dock7
  -GOLD-   2272010263D 1   1.00000     0.00000
 Structure written by MMmdl.
 37 39  0  0  0  0  0  0  0  0  2 V2000
  149.9142  136.2212  156.7665 O   0  0  0  0  0  0  0  0  0  0  0  0
  149.6472  136.2607  155.5661 C   0  0  0  0  0  0  0  0  0  0  0  0
  149.8519  137.5518  154.7753 C   0  0  0  0  0  0  0  0  0  0  0  0
  151.1980  138.0526  154.9846 N   0  0  0  0  0  0  0  0  0  0  0  0
  151.6356  139.1860  155.5371 C   0  0  0  0  0  0  0  0  0  0  0  0
  152.9585  139.2279  155.5828 N   0  0  0  0  0  0  0  0  0  0  0  0
  153.3325  138.0262  155.0056 N   0  0  0  0  0  0  0  0  0  0  0  0
  152.2925  137.3239  154.6495 N   0  0  0  0  0  0  0  0  0  0  0  0
  149.2218  135.1985  154.8652 N   0  0  0  0  0  0  0  0  0  0  0  0
  149.1685  133.8294  155.3624 C   0  0  0  0  0  0  0  0  0  0  0  0
  148.7909  132.8372  154.2434 C   0  0  1  0  0  0  0  0  0  0  0  0
  148.1638  131.5355  154.7377 C   0  0  0  0  0  0  0  0  0  0  0  0
  147.3890  131.0035  153.5239 C   0  0  0  0  0  0  0  0  0  0  0  0
  147.2244  132.1400  152.5872 N   0  3  1  0  0  0  0  0  0  0  0  0
  145.8593  132.2905  152.0411 C   0  0  0  0  0  0  0  0  0  0  0  0
  145.3920  131.0952  151.2461 C   0  0  0  0  0  0  0  0  0  0  0  0
  145.8187  132.3605  150.5332 C   0  0  0  0  0  0  0  0  0  0  0  0
  147.7370  133.3490  153.2600 C   0  0  0  0  0  0  0  0  0  0  0  0
  149.6871  137.3775  153.7107 H   0  0  0  0  0  0  0  0  0  0  0  0
  149.1374  138.3105  155.0975 H   0  0  0  0  0  0  0  0  0  0  0  0
  150.9912  139.9649  155.9178 H   0  0  0  0  0  0  0  0  0  0  0  0
  149.0078  135.3351  153.8874 H   0  0  0  0  0  0  0  0  0  0  0  0
  150.1246  133.5552  155.8110 H   0  0  0  0  0  0  0  0  0  0  0  0
  148.4281  133.7946  156.1621 H   0  0  0  0  0  0  0  0  0  0  0  0
  149.6871  132.5823  153.6752 H   0  0  0  0  0  0  0  0  0  0  0  0
  148.9043  130.8260  155.1077 H   0  0  0  0  0  0  0  0  0  0  0  0
  147.4666  131.7416  155.5510 H   0  0  0  0  0  0  0  0  0  0  0  0
  147.9497  130.2177  153.0169 H   0  0  0  0  0  0  0  0  0  0  0  0
  146.4314  130.5795  153.8305 H   0  0  0  0  0  0  0  0  0  0  0  0
  145.1569  132.8688  152.6392 H   0  0  0  0  0  0  0  0  0  0  0  0
  146.0518  130.2321  151.1769 H   0  0  0  0  0  0  0  0  0  0  0  0
  144.3282  130.8669  151.2610 H   0  0  0  0  0  0  0  0  0  0  0  0
  145.0362  132.9654  150.0797 H   0  0  0  0  0  0  0  0  0  0  0  0
  146.7621  132.3384  149.9903 H   0  0  0  0  0  0  0  0  0  0  0  0
  146.9280  133.8416  153.8026 H   0  0  0  0  0  0  0  0  0  0  0  0
  148.1426  134.0603  152.5392 H   0  0  0  0  0  0  0  0  0  0  0  0
  147.8446  131.9590  151.8108 H   0  0  0  0  0  0  0  0  0  0  0  0
  1  2  2  0  0  0  0
  2  3  1  0  0  0  0
  2  9  1  0  0  0  0
  3  4  1  0  0  0  0
  3 19  1  0  0  0  0
  3 20  1  0  0  0  0
  4  8  1  0  0  0  0
  4  5  1  0  0  0  0
  5  6  2  0  0  0  0
  5 21  1  0  0  0  0
  6  7  1  0  0  0  0
  7  8  2  0  0  0  0
  9 10  1  0  0  0  0
  9 22  1  0  0  0  0
 10 11  1  0  0  0  0
 10 23  1  0  0  0  0
 10 24  1  0  0  0  0
 11 18  1  0  0  0  0
 11 12  1  0  0  0  0
 11 25  1  0  0  0  0
 12 13  1  0  0  0  0
 12 26  1  0  0  0  0
 12 27  1  0  0  0  0
 13 14  1  0  0  0  0
 13 28  1  0  0  0  0
 13 29  1  0  0  0  0
 14 15  1  0  0  0  0
 14 18  1  0  0  0  0
 14 37  1  0  0  0  0
 15 17  1  0  0  0  0
 15 16  1  0  0  0  0
 15 30  1  0  0  0  0
 16 17  1  0  0  0  0
 16 31  1  0  0  0  0
 16 32  1  0  0  0  0
 17 33  1  0  0  0  0
 17 34  1  0  0  0  0
 18 35  1  0  0  0  0
 18 36  1  0  0  0  0
M  CHG  1  14   1
M  END
> <s_m_source_file>
AV-unprocessed.smi

> <i_m_source_file_index>
1987

> <i_lp_mmshare_version>
43012

> <i_f3d_flags>
0

> <s_epik_input>
bjFubltjSF1uMVtDSDJdQyg9TylbTkhdW0NIMl1bQ0BASF0yW0NIMl1bQ0gyXU4oW0NIMl0yKVtDSF0zW0NIMl1bQ0gyXTM=

> <s_epik_cmdline>
J2VwaWtfcHl0aG9uJywgJy1waCcsICc3LjAnLCAnLXRuJywgJzgnLCAnLW1hJywgJzIwMCcsICctbWV0YWxfYmluZGluZycsICctaW1hZScsICc8aW5maWxlLm1hZT4nLCAnLW9tYWUnLCAnPG91dGZpbGUubWFlPic=

> <r_lp_tautomer_probability>
1

> <r_epik_Ionization_Penalty>
0.000242849

> <r_epik_Ionization_Penalty_Charging>
0.000241326

> <r_epik_Ionization_Penalty_Neutral>
1.52322e-06

> <r_epik_State_Penalty>
-0

> <r_epik_Charging_Adjusted_Penalty>
0.000241326

> <i_epik_Tot_Q>
1

> <i_epik_Tot_abs_Q>
1

> <r_epik_Metal_State_Penalty>
-0

> <b_epik_Metal_Only>
0

> <s_lp_Force_Field>
OPLS_2005

> <r_lp_Energy>
37.5901

> <b_lp_Chiralities_Consistent>
1

> <s_lp_Variant>
AV-unprocessed.smi:1987-4

> <Gold.Version>
5.8.1

> <Gold.Id.Protein>
6NUR|6NUR_protein|mol2

> <Gold.PLP.Fitness>
45.5787

> <Gold.PLP.PLP>
-35.3720

> <Gold.PLP.part.hbond>
-4.8932

> <Gold.PLP.part.metal>
0.0000

> <Gold.PLP.part.buried>
-3.6427

> <Gold.PLP.part.nonpolar>
-27.1229

> <Gold.PLP.part.repulsive>
0.2056

> <Gold.PLP.ligand.clash>
0.0000

> <Gold.PLP.ligand.torsion>
1.0228

> <Gold.PLP.Chemscore.Hbond>
3.6560

> <Gold.PLP.Chemscore.CHOScore>
0.0000

> <Gold.PLP.Chemscore.Metal>
0.0000

> <Gold.Chemscore.Hbonds>
donor molecule, donor type, donor heavy atom, donor atom, acceptor molecule, acceptor atom, score
      L1  H     9    22       P1  7948  0.60
      L1  H    14    37       P1 10747  0.57
      P1  H  7997  8008       L1     6  1.00
      P1  H 10752 10765       L1     8  0.69

> <Gold.PLP.Chemscore.Internal.Correction>
1.2843

> <Gold.Rescore>
     Score         DG    S(hbond)    S(metal)    S(lipo)     H(rot)  DE(clash)    DE(int)     intcor
     13.79     -14.72       2.72        0.00      58.90       2.62       0.00       0.93       ----

> <Gold.Chemscore.Fitness>
13.7947

> <Gold.Chemscore.DG>
-14.7243

> <Gold.Chemscore.ZeroCoef>
-5.4800

> <Gold.Chemscore.Hbond>
2.7161

> <Gold.Chemscore.Metal>
0.0000

> <Gold.Chemscore.Lipo>
58.8982

> <Gold.Chemscore.Internal_Hbond>
0.0000

> <Gold.Chemscore.DEClash>
0.0000

> <Gold.Chemscore.DEInternal>
0.9297

> <Gold.Chemscore.Rot>
2.6244

> <Gold.Chemscore.Internal.Correction>
   9.000000E+99

> <Gold.Chemscore.Hbonds>
donor molecule, donor type, donor heavy atom, donor atom, acceptor molecule, acceptor atom, score
      L1  H     9    22       P1  7948  0.42
      L1  H    14    37       P1 10747  0.58
      P1  H  7997  8008       L1     6  0.74
      P1  H 10752 10765       L1     8  0.31

> <Gold.Chemscore.Hbond.Weighted>
-9.0718

> <Gold.Chemscore.Metal.Weighted>
-0.0000

> <Gold.Chemscore.Lipo.Weighted>
-6.8911

> <Gold.Chemscore.Internal_Hbond.Weighted>
0.0000

> <Gold.Chemscore.DEClash.Weighted>
0.0000

> <Gold.Chemscore.DEInternal.Weighted>
0.9297

> <Gold.Chemscore.Rot.Weighted>
6.7186

> <Gold.Chemscore.Internal.Correction.Weighted>
   9.000000E+99

> <Gold.Protein.RotatedTorsions>
[ 6907 6896 6895 6894 ] final  -56.22 input  -60.11 | X-H torsion
[ 7974 7965 7964 7962 ] final -127.58 input  175.53 | X-H torsion
[ 8008 7997 7996 7995 ] final  -23.20 input   59.86 | X-H torsion
[ 10167 10162 10161 10158 ] final  166.34 input  -65.29 | X-H torsion
[ 10718 10713 10712 10709 ] final   87.97 input   66.30 | X-H torsion
[ 10763 10752 10751 10750 ] final  152.90 input  -60.55 | X-H torsion
[ 11005 11000 10999 10996 ] final  137.39 input  -57.11 | X-H torsion

> <Gold.Protein.ActiveResidues>
 VAL166  LYS551  ARG553  GLY616  TRP617  ASP618  TYR619  PRO620  LYS621  CYS622 
 ASP623  PHE694  ASN695  SER759  ASP760  ASP761  ALA762  ILE779  LEU786  VAL792 
 PHE793  MET794  SER795  GLU796  ALA797  LYS798  CYS799  TRP800  GLU811  SER814 

> <Gold.Protein.RotatedAtoms>
  150.8186  134.7381  159.6751 H   0  0  0  0  0  0  0  0  0  0  0  0  # atno 6907 bound_to 6896
  152.4303  134.5787  159.9951 H   0  0  0  0  0  0  0  0  0  0  0  0  # atno 6908 bound_to 6896
  151.5977  133.3322  159.3077 H   0  0  0  0  0  0  0  0  0  0  0  0  # atno 6909 bound_to 6896
  144.9757  140.7590  143.4643 H   0  0  0  0  0  0  0  0  0  0  0  0  # atno 7974 bound_to 7965
  154.4599  140.1987  156.0274 H   0  0  0  0  0  0  0  0  0  0  0  0  # atno 8008 bound_to 7997
  156.0819  140.3270  155.7677 H   0  0  0  0  0  0  0  0  0  0  0  0  # atno 8009 bound_to 7997
  155.5097  140.0560  157.2916 H   0  0  0  0  0  0  0  0  0  0  0  0  # atno 8010 bound_to 7997
  139.4923  144.4038  151.9379 H   0  0  0  0  0  0  0  0  0  0  0  0  # atno 10167 bound_to 10162
  157.6945  131.0276  150.3204 H   0  0  0  0  0  0  0  0  0  0  0  0  # atno 10718 bound_to 10713
  154.1275  135.2829  155.3193 H   0  0  0  0  0  0  0  0  0  0  0  0  # atno 10763 bound_to 10752
  154.6379  135.5412  153.7758 H   0  0  0  0  0  0  0  0  0  0  0  0  # atno 10764 bound_to 10752
  153.0292  135.6479  154.1427 H   0  0  0  0  0  0  0  0  0  0  0  0  # atno 10765 bound_to 10752
  140.0110  134.9439  157.0278 H   0  0  0  0  0  0  0  0  0  0  0  0  # atno 11005 bound_to 11000
  145.2494  139.2038  143.4950 LP  0  0  0  0  0  0  0  0  0  0  0  0  # atno 17320 bound_to 7965
  146.3394  140.2404  142.8595 LP  0  0  0  0  0  0  0  0  0  0  0  0  # atno 17321 bound_to 7965
  140.3478  144.3126  150.5955 LP  0  0  0  0  0  0  0  0  0  0  0  0  # atno 17342 bound_to 10162
  140.5511  143.2206  151.7925 LP  0  0  0  0  0  0  0  0  0  0  0  0  # atno 17343 bound_to 10162
  156.3692  130.3860  149.7189 LP  0  0  0  0  0  0  0  0  0  0  0  0  # atno 17370 bound_to 10713
  156.4609  130.7951  151.2971 LP  0  0  0  0  0  0  0  0  0  0  0  0  # atno 17371 bound_to 10713
  140.4554  134.1539  155.7185 LP  0  0  0  0  0  0  0  0  0  0  0  0  # atno 17394 bound_to 11000
  141.1711  133.8607  157.1567 LP  0  0  0  0  0  0  0  0  0  0  0  0  # atno 17395 bound_to 11000

$$$$
