AV-unprocessed.smi:1007|AV-procd|sdf|4405|dock5
  -GOLD-   22720 2343D 1   1.00000     0.00000
 Structure written by MMmdl.
 57 59  0  0  0  0  0  0  0  0  3 V2000
  147.4459  136.4596  162.3368 C   0  0  0  0  0  0  0  0  0  0  0  0
  147.9824  137.0934  161.1886 O   0  0  0  0  0  0  0  0  0  0  0  0
  148.8598  136.2501  160.4607 C   0  0  0  0  0  0  0  0  0  0  0  0
  148.0288  135.3600  159.5243 C   0  0  0  0  0  0  0  0  0  0  0  0
  148.2505  135.6811  158.0919 N   0  3  0  0  0  0  0  0  0  0  0  0
  149.6912  135.7718  157.7471 C   0  0  0  0  0  0  0  0  0  0  0  0
  149.8586  136.0082  156.2337 C   0  0  0  0  0  0  0  0  0  0  0  0
  149.1946  137.2236  155.7611 N   0  0  0  0  0  0  0  0  0  0  0  0
  149.8721  138.4498  156.2093 C   0  0  0  0  0  0  0  0  0  0  0  0
  151.0896  138.9080  155.3764 C   0  0  1  0  0  0  0  0  0  0  0  0
  150.6412  139.4022  154.1302 O   0  0  0  0  0  0  0  0  0  0  0  0
  152.0417  139.9187  156.0455 C   0  0  0  0  0  0  0  0  0  0  0  0
  151.3478  141.1414  156.4702 N   0  0  0  0  0  0  0  0  0  0  0  0
  150.3553  141.8416  155.8566 C   0  0  0  0  0  0  0  0  0  0  0  0
  150.0589  142.9110  156.6459 N   0  3  0  0  0  0  0  0  0  0  0  0
  150.8745  142.8937  157.7795 C   0  0  0  0  0  0  0  0  0  0  0  0
  150.9500  143.7633  158.8610 C   0  0  0  0  0  0  0  0  0  0  0  0
  151.9021  143.4661  159.8623 C   0  0  0  0  0  0  0  0  0  0  0  0
  152.0145  144.3994  161.0558 C   0  0  0  0  0  0  0  0  0  0  0  0
  152.7383  142.3240  159.7589 C   0  0  0  0  0  0  0  0  0  0  0  0
  153.7587  142.0146  160.8412 C   0  0  0  0  0  0  0  0  0  0  0  0
  152.6446  141.4504  158.6518 C   0  0  0  0  0  0  0  0  0  0  0  0
  151.7030  141.7598  157.6736 C   0  0  0  0  0  0  0  0  0  0  0  0
  147.7749  137.1346  156.1251 C   0  0  0  0  0  0  0  0  0  0  0  0
  147.5290  136.8968  157.6312 C   0  0  0  0  0  0  0  0  0  0  0  0
  146.7833  137.1490  162.8600 H   0  0  0  0  0  0  0  0  0  0  0  0
  148.2353  136.1622  163.0283 H   0  0  0  0  0  0  0  0  0  0  0  0
  146.8665  135.5762  162.0654 H   0  0  0  0  0  0  0  0  0  0  0  0
  149.5926  136.8388  159.9085 H   0  0  0  0  0  0  0  0  0  0  0  0
  149.4167  135.6199  161.1559 H   0  0  0  0  0  0  0  0  0  0  0  0
  148.2494  134.3064  159.7030 H   0  0  0  0  0  0  0  0  0  0  0  0
  146.9755  135.4993  159.7723 H   0  0  0  0  0  0  0  0  0  0  0  0
  150.1637  136.5702  158.3216 H   0  0  0  0  0  0  0  0  0  0  0  0
  150.1926  134.8432  158.0226 H   0  0  0  0  0  0  0  0  0  0  0  0
  150.9185  136.0403  155.9783 H   0  0  0  0  0  0  0  0  0  0  0  0
  149.4541  135.1496  155.6956 H   0  0  0  0  0  0  0  0  0  0  0  0
  149.1610  139.2705  156.2948 H   0  0  0  0  0  0  0  0  0  0  0  0
  150.2418  138.2960  157.2243 H   0  0  0  0  0  0  0  0  0  0  0  0
  151.6653  138.0092  155.1532 H   0  0  0  0  0  0  0  0  0  0  0  0
  150.0593  138.7629  153.7478 H   0  0  0  0  0  0  0  0  0  0  0  0
  152.4905  139.4886  156.9407 H   0  0  0  0  0  0  0  0  0  0  0  0
  152.8574  140.1976  155.3776 H   0  0  0  0  0  0  0  0  0  0  0  0
  149.8918  141.5972  154.9116 H   0  0  0  0  0  0  0  0  0  0  0  0
  150.3108  144.6312  158.9322 H   0  0  0  0  0  0  0  0  0  0  0  0
  151.8216  143.8607  161.9837 H   0  0  0  0  0  0  0  0  0  0  0  0
  151.2978  145.2186  160.9911 H   0  0  0  0  0  0  0  0  0  0  0  0
  153.0129  144.8345  161.1080 H   0  0  0  0  0  0  0  0  0  0  0  0
  154.3300  141.1158  160.6068 H   0  0  0  0  0  0  0  0  0  0  0  0
  153.2635  141.8538  161.7991 H   0  0  0  0  0  0  0  0  0  0  0  0
  154.4646  142.8383  160.9494 H   0  0  0  0  0  0  0  0  0  0  0  0
  153.2822  140.5826  158.5716 H   0  0  0  0  0  0  0  0  0  0  0  0
  147.2344  138.0239  155.8136 H   0  0  0  0  0  0  0  0  0  0  0  0
  147.3230  136.3131  155.5676 H   0  0  0  0  0  0  0  0  0  0  0  0
  146.4586  136.7808  157.7961 H   0  0  0  0  0  0  0  0  0  0  0  0
  147.8400  137.7604  158.2195 H   0  0  0  0  0  0  0  0  0  0  0  0
  147.8852  134.9012  157.5635 H   0  0  0  0  0  0  0  0  0  0  0  0
  149.3546  143.6026  156.4223 H   0  0  0  0  0  0  0  0  0  0  0  0
  1  2  1  0  0  0  0
  1 26  1  0  0  0  0
  1 27  1  0  0  0  0
  1 28  1  0  0  0  0
  2  3  1  0  0  0  0
  3  4  1  0  0  0  0
  3 29  1  0  0  0  0
  3 30  1  0  0  0  0
  4  5  1  0  0  0  0
  4 31  1  0  0  0  0
  4 32  1  0  0  0  0
  5 25  1  0  0  0  0
  5  6  1  0  0  0  0
  5 56  1  0  0  0  0
  6  7  1  0  0  0  0
  6 33  1  0  0  0  0
  6 34  1  0  0  0  0
  7  8  1  0  0  0  0
  7 35  1  0  0  0  0
  7 36  1  0  0  0  0
  8  9  1  0  0  0  0
  8 24  1  0  0  0  0
  9 10  1  0  0  0  0
  9 37  1  0  0  0  0
  9 38  1  0  0  0  0
 10 11  1  0  0  0  0
 10 12  1  0  0  0  0
 10 39  1  0  0  0  0
 11 40  1  0  0  0  0
 12 13  1  0  0  0  0
 12 41  1  0  0  0  0
 12 42  1  0  0  0  0
 13 23  1  0  0  0  0
 13 14  1  0  0  0  0
 14 15  2  0  0  0  0
 14 43  1  0  0  0  0
 15 16  1  0  0  0  0
 15 57  1  0  0  0  0
 16 23  2  0  0  0  0
 16 17  1  0  0  0  0
 17 18  2  0  0  0  0
 17 44  1  0  0  0  0
 18 19  1  0  0  0  0
 18 20  1  0  0  0  0
 19 45  1  0  0  0  0
 19 46  1  0  0  0  0
 19 47  1  0  0  0  0
 20 21  1  0  0  0  0
 20 22  2  0  0  0  0
 21 48  1  0  0  0  0
 21 49  1  0  0  0  0
 21 50  1  0  0  0  0
 22 23  1  0  0  0  0
 22 51  1  0  0  0  0
 24 25  1  0  0  0  0
 24 52  1  0  0  0  0
 24 53  1  0  0  0  0
 25 54  1  0  0  0  0
 25 55  1  0  0  0  0
M  CHG  1   5   1
M  CHG  1  15   1
M  END
> <s_m_source_file>
AV-unprocessed.smi

> <i_m_source_file_index>
1007

> <i_lp_mmshare_version>
43012

> <i_f3d_flags>
0

> <s_epik_input>
W0NIM11PW0NIMl1bQ0gyXU4xW0NIMl1bQ0gyXU4oW0NIMl1bQ0gyXTEpW0NIMl1bQ0BIXShbT0hdKVtDSDJdbihbY0hdbjIpYyhjMjMpW2NIXWMoW0NIM10pYyhbY0hdMylbQ0gzXQ==

> <s_epik_cmdline>
J2VwaWtfcHl0aG9uJywgJy1waCcsICc3LjAnLCAnLXRuJywgJzgnLCAnLW1hJywgJzIwMCcsICctbWV0YWxfYmluZGluZycsICctaW1hZScsICc8aW5maWxlLm1hZT4nLCAnLW9tYWUnLCAnPG91dGZpbGUubWFlPic=

> <r_epik_Ionization_Penalty>
1.34507

> <r_epik_Ionization_Penalty_Charging>
1.29906

> <r_epik_Ionization_Penalty_Neutral>
0.0460038

> <r_epik_State_Penalty>
2.55679

> <r_epik_Charging_Adjusted_Penalty>
3.85586

> <i_epik_Tot_Q>
2

> <i_epik_Tot_abs_Q>
2

> <r_epik_Metal_State_Penalty>
6.56928

> <b_epik_Metal_Only>
0

> <s_lp_Force_Field>
OPLS_2005

> <r_lp_Energy>
47.3521

> <b_lp_Chiralities_Consistent>
1

> <s_lp_Variant>
AV-unprocessed.smi:1007-8

> <Gold.Version>
5.8.1

> <Gold.Id.Protein>
6NUR|6NUR_protein|mol2

> <Gold.PLP.Fitness>
57.6423

> <Gold.PLP.PLP>
-45.3701

> <Gold.PLP.part.hbond>
-4.3162

> <Gold.PLP.part.metal>
0.0000

> <Gold.PLP.part.buried>
-6.5178

> <Gold.PLP.part.nonpolar>
-35.7498

> <Gold.PLP.part.repulsive>
0.1129

> <Gold.PLP.ligand.clash>
0.0000

> <Gold.PLP.ligand.torsion>
1.2976

> <Gold.PLP.Chemscore.Hbond>
4.8720

> <Gold.PLP.Chemscore.CHOScore>
0.0000

> <Gold.PLP.Chemscore.Metal>
0.0000

> <Gold.Chemscore.Hbonds>
donor molecule, donor type, donor heavy atom, donor atom, acceptor molecule, acceptor atom, score
      L1  H    15    57       P1  8028  1.50
      P1  H  6931  6943       L1     2  1.00
      P1  H  6934  6947       L1     2  0.61
      P1  H  7989  7998       L1    11  1.00

> <Gold.PLP.Chemscore.Internal.Correction>
0.2514

> <Gold.Rescore>
     Score         DG    S(hbond)    S(metal)    S(lipo)     H(rot)  DE(clash)    DE(int)     intcor
     20.80     -23.09       2.97        0.00     123.66       2.64       0.15       2.14       ----

> <Gold.Chemscore.Fitness>
20.7972

> <Gold.Chemscore.DG>
-23.0886

> <Gold.Chemscore.ZeroCoef>
-5.4800

> <Gold.Chemscore.Hbond>
2.9660

> <Gold.Chemscore.Metal>
0.0000

> <Gold.Chemscore.Lipo>
123.6649

> <Gold.Chemscore.Internal_Hbond>
0.0000

> <Gold.Chemscore.DEClash>
0.1547

> <Gold.Chemscore.DEInternal>
2.1367

> <Gold.Chemscore.Rot>
2.6432

> <Gold.Chemscore.Internal.Correction>
   9.000000E+99

> <Gold.Chemscore.Hbonds>
donor molecule, donor type, donor heavy atom, donor atom, acceptor molecule, acceptor atom, score
      L1  H    15    57       P1  8028  0.72
      P1  H  6931  6943       L1     2  0.13
      P1  H  6934  6947       L1     2  0.50
      P1  H  7989  7998       L1    11  0.88

> <Gold.Chemscore.Hbond.Weighted>
-9.9064

> <Gold.Chemscore.Metal.Weighted>
-0.0000

> <Gold.Chemscore.Lipo.Weighted>
-14.4688

> <Gold.Chemscore.Internal_Hbond.Weighted>
0.0000

> <Gold.Chemscore.DEClash.Weighted>
0.1547

> <Gold.Chemscore.DEInternal.Weighted>
2.1367

> <Gold.Chemscore.Rot.Weighted>
6.7665

> <Gold.Chemscore.Internal.Correction.Weighted>
   9.000000E+99

> <Gold.Protein.RotatedTorsions>
[ 6907 6896 6895 6894 ] final -122.99 input  -60.11 | X-H torsion
[ 7974 7965 7964 7962 ] final   45.53 input  175.53 | X-H torsion
[ 8008 7997 7996 7995 ] final  118.52 input   59.86 | X-H torsion
[ 10167 10162 10161 10158 ] final -163.59 input  -65.29 | X-H torsion
[ 10718 10713 10712 10709 ] final -115.06 input   66.30 | X-H torsion
[ 10763 10752 10751 10750 ] final  -17.97 input  -60.55 | X-H torsion
[ 11005 11000 10999 10996 ] final   22.37 input  -57.11 | X-H torsion

> <Gold.Protein.ActiveResidues>
 VAL166  LYS551  ARG553  GLY616  TRP617  ASP618  TYR619  PRO620  LYS621  CYS622 
 ASP623  PHE694  ASN695  SER759  ASP760  ASP761  ALA762  ILE779  LEU786  VAL792 
 PHE793  MET794  SER795  GLU796  ALA797  LYS798  CYS799  TRP800  GLU811  SER814 

> <Gold.Protein.RotatedAtoms>
  150.8628  133.7619  159.2986 H   0  0  0  0  0  0  0  0  0  0  0  0  # atno 6907 bound_to 6896
  151.5256  135.1066  159.9899 H   0  0  0  0  0  0  0  0  0  0  0  0  # atno 6908 bound_to 6896
  152.4639  133.7836  159.6919 H   0  0  0  0  0  0  0  0  0  0  0  0  # atno 6909 bound_to 6896
  146.0472  139.4954  142.9741 H   0  0  0  0  0  0  0  0  0  0  0  0  # atno 7974 bound_to 7965
  156.2550  140.2873  156.0848 H   0  0  0  0  0  0  0  0  0  0  0  0  # atno 8008 bound_to 7997
  155.1527  140.0398  157.2842 H   0  0  0  0  0  0  0  0  0  0  0  0  # atno 8009 bound_to 7997
  154.6449  140.2531  155.7286 H   0  0  0  0  0  0  0  0  0  0  0  0  # atno 8010 bound_to 7997
  139.6310  144.0440  152.2015 H   0  0  0  0  0  0  0  0  0  0  0  0  # atno 10167 bound_to 10162
  156.0870  130.6060  150.8856 H   0  0  0  0  0  0  0  0  0  0  0  0  # atno 10718 bound_to 10713
  153.5821  135.7005  153.5459 H   0  0  0  0  0  0  0  0  0  0  0  0  # atno 10763 bound_to 10752
  153.3252  135.4063  155.1449 H   0  0  0  0  0  0  0  0  0  0  0  0  # atno 10764 bound_to 10752
  154.8615  135.3705  154.5349 H   0  0  0  0  0  0  0  0  0  0  0  0  # atno 10765 bound_to 10752
  140.3814  134.1917  155.7663 H   0  0  0  0  0  0  0  0  0  0  0  0  # atno 11005 bound_to 11000
  145.6786  141.0197  143.1618 LP  0  0  0  0  0  0  0  0  0  0  0  0  # atno 17320 bound_to 7965
  144.7104  139.8395  143.7416 LP  0  0  0  0  0  0  0  0  0  0  0  0  # atno 17321 bound_to 7965
  140.0105  144.6227  150.7651 LP  0  0  0  0  0  0  0  0  0  0  0  0  # atno 17342 bound_to 10162
  140.7439  143.2853  151.3482 LP  0  0  0  0  0  0  0  0  0  0  0  0  # atno 17343 bound_to 10162
  157.6008  131.0941  150.8964 LP  0  0  0  0  0  0  0  0  0  0  0  0  # atno 17370 bound_to 10713
  156.9121  130.5284  149.5280 LP  0  0  0  0  0  0  0  0  0  0  0  0  # atno 17371 bound_to 10713
  141.1922  133.8178  157.0848 LP  0  0  0  0  0  0  0  0  0  0  0  0  # atno 17394 bound_to 11000
  140.0476  134.9822  157.1077 LP  0  0  0  0  0  0  0  0  0  0  0  0  # atno 17395 bound_to 11000

$$$$
