AV-unprocessed.smi:750|AV-procd|sdf|3592|dock3
  -GOLD-   22720 0583D 1   1.00000     0.00000
 Structure written by MMmdl.
 22 23  0  0  0  0  0  0  0  0  2 V2000
  150.8610  139.6297  158.6379 C   0  0  0  0  0  0  0  0  0  0  0  0
  151.3960  140.6006  157.5628 C   0  0  1  0  0  0  0  0  0  0  0  0
  151.7218  141.9846  158.1566 C   0  0  0  0  0  0  0  0  0  0  0  0
  152.6597  142.1649  159.2036 C   0  0  0  0  0  0  0  0  0  0  0  0
  152.9079  143.4611  159.6944 C   0  0  0  0  0  0  0  0  0  0  0  0
  152.2081  144.5400  159.1235 C   0  0  0  0  0  0  0  0  0  0  0  0
  151.3113  144.3941  158.1272 N   0  0  0  0  0  0  0  0  0  0  0  0
  151.0812  143.1473  157.6624 C   0  0  0  0  0  0  0  0  0  0  0  0
  152.5172  139.9669  156.8779 N   0  5  0  0  0  0  0  0  0  0  0  0
  152.2140  139.8306  155.5657 C   0  0  0  0  0  0  0  0  0  0  0  0
  152.9161  139.3552  154.6762 O   0  0  0  0  0  0  0  0  0  0  0  0
  150.9867  140.2947  155.3166 N   0  0  0  0  0  0  0  0  0  0  0  0
  150.3999  140.7520  156.4181 C   0  0  0  0  0  0  0  0  0  0  0  0
  149.2615  141.2101  156.5141 O   0  0  0  0  0  0  0  0  0  0  0  0
  149.9440  139.9930  159.1017 H   0  0  0  0  0  0  0  0  0  0  0  0
  151.5941  139.4838  159.4321 H   0  0  0  0  0  0  0  0  0  0  0  0
  150.6367  138.6478  158.2178 H   0  0  0  0  0  0  0  0  0  0  0  0
  153.1943  141.3336  159.6381 H   0  0  0  0  0  0  0  0  0  0  0  0
  153.6193  143.6227  160.4904 H   0  0  0  0  0  0  0  0  0  0  0  0
  152.3741  145.5472  159.4760 H   0  0  0  0  0  0  0  0  0  0  0  0
  150.3609  143.0821  156.8608 H   0  0  0  0  0  0  0  0  0  0  0  0
  150.5520  140.2827  154.4061 H   0  0  0  0  0  0  0  0  0  0  0  0
  1  2  1  0  0  0  0
  1 15  1  0  0  0  0
  1 16  1  0  0  0  0
  1 17  1  0  0  0  0
  2 13  1  0  0  0  0
  2  3  1  0  0  0  0
  2  9  1  0  0  0  0
  3  8  1  0  0  0  0
  3  4  2  0  0  0  0
  4  5  1  0  0  0  0
  4 18  1  0  0  0  0
  5  6  2  0  0  0  0
  5 19  1  0  0  0  0
  6  7  1  0  0  0  0
  6 20  1  0  0  0  0
  7  8  2  0  0  0  0
  8 21  1  0  0  0  0
  9 10  1  0  0  0  0
 10 11  2  0  0  0  0
 10 12  1  0  0  0  0
 12 13  1  0  0  0  0
 12 22  1  0  0  0  0
 13 14  2  0  0  0  0
M  CHG  1   9  -1
M  END
> <s_m_source_file>
AV-unprocessed.smi

> <i_m_source_file_index>
750

> <i_lp_mmshare_version>
43012

> <i_f3d_flags>
0

> <s_epik_input>
Tz1DMVtOSF1DKD1PKVtOSF1bQ0BAXTEoW0NIM10pYzJbY0hdW2NIXVtjSF1uW2NIXTI=

> <s_epik_cmdline>
J2VwaWtfcHl0aG9uJywgJy1waCcsICc3LjAnLCAnLXRuJywgJzgnLCAnLW1hJywgJzIwMCcsICctbWV0YWxfYmluZGluZycsICctaW1hZScsICc8aW5maWxlLm1hZT4nLCAnLW9tYWUnLCAnPG91dGZpbGUubWFlPic=

> <r_lp_tautomer_probability>
1

> <r_epik_Ionization_Penalty>
4.84674

> <r_epik_Ionization_Penalty_Charging>
4.8337

> <r_epik_Ionization_Penalty_Neutral>
0.0130349

> <r_epik_State_Penalty>
4.85653

> <r_epik_Charging_Adjusted_Penalty>
9.69023

> <i_epik_Tot_Q>
-1

> <i_epik_Tot_abs_Q>
1

> <r_epik_Metal_State_Penalty>
1.3191

> <b_epik_Metal_Only>
1

> <s_lp_Force_Field>
OPLS_2005

> <r_lp_Energy>
14.3278

> <b_lp_Chiralities_Consistent>
1

> <s_lp_Variant>
AV-unprocessed.smi:750-5

> <Gold.Version>
5.8.1

> <Gold.Id.Protein>
6NUR|6NUR_protein|mol2

> <Gold.PLP.Fitness>
37.0380

> <Gold.PLP.PLP>
-28.0471

> <Gold.PLP.part.hbond>
-2.6213

> <Gold.PLP.part.metal>
0.0000

> <Gold.PLP.part.buried>
-4.1213

> <Gold.PLP.part.nonpolar>
-22.4230

> <Gold.PLP.part.repulsive>
1.3912

> <Gold.PLP.ligand.clash>
0.0000

> <Gold.PLP.ligand.torsion>
0.0319

> <Gold.PLP.Chemscore.Hbond>
2.0000

> <Gold.PLP.Chemscore.CHOScore>
1.0000

> <Gold.PLP.Chemscore.Metal>
0.0000

> <Gold.Chemscore.Hbonds>
donor molecule, donor type, donor heavy atom, donor atom, acceptor molecule, acceptor atom, score
      P1  H  7997  8010       L1     9  1.98
      L1  C     8    21       P1  8028  1.00

> <Gold.PLP.Chemscore.Internal.Correction>
0.0547

> <Gold.Rescore>
     Score         DG    S(hbond)    S(metal)    S(lipo)     H(rot)  DE(clash)    DE(int)     intcor
     14.74     -16.28       1.68        0.00      66.33       1.00       0.22       1.31       ----

> <Gold.Chemscore.Fitness>
14.7446

> <Gold.Chemscore.DG>
-16.2792

> <Gold.Chemscore.ZeroCoef>
-5.4800

> <Gold.Chemscore.Hbond>
1.6761

> <Gold.Chemscore.Metal>
0.0000

> <Gold.Chemscore.Lipo>
66.3323

> <Gold.Chemscore.Internal_Hbond>
0.0000

> <Gold.Chemscore.DEClash>
0.2217

> <Gold.Chemscore.DEInternal>
1.3129

> <Gold.Chemscore.Rot>
1.0000

> <Gold.Chemscore.Internal.Correction>
   9.000000E+99

> <Gold.Chemscore.Hbonds>
donor molecule, donor type, donor heavy atom, donor atom, acceptor molecule, acceptor atom, score
      P1  H  7997  8010       L1     9  0.24

> <Gold.Chemscore.Hbond.Weighted>
-5.5983

> <Gold.Chemscore.Metal.Weighted>
-0.0000

> <Gold.Chemscore.Lipo.Weighted>
-7.7609

> <Gold.Chemscore.Internal_Hbond.Weighted>
0.0000

> <Gold.Chemscore.DEClash.Weighted>
0.2217

> <Gold.Chemscore.DEInternal.Weighted>
1.3129

> <Gold.Chemscore.Rot.Weighted>
2.5600

> <Gold.Chemscore.Internal.Correction.Weighted>
   9.000000E+99

> <Gold.Protein.RotatedTorsions>
[ 6907 6896 6895 6894 ] final  -53.93 input  -60.11 | X-H torsion
[ 7974 7965 7964 7962 ] final   10.09 input  175.53 | X-H torsion
[ 8008 7997 7996 7995 ] final   49.82 input   59.86 | X-H torsion
[ 10167 10162 10161 10158 ] final  -92.06 input  -65.29 | X-H torsion
[ 10718 10713 10712 10709 ] final  130.47 input   66.30 | X-H torsion
[ 10763 10752 10751 10750 ] final -158.58 input  -60.55 | X-H torsion
[ 11005 11000 10999 10996 ] final   93.52 input  -57.11 | X-H torsion

> <Gold.Protein.ActiveResidues>
 VAL166  LYS551  ARG553  GLY616  TRP617  ASP618  TYR619  PRO620  LYS621  CYS622 
 ASP623  PHE694  ASN695  SER759  ASP760  ASP761  ALA762  ILE779  LEU786  VAL792 
 PHE793  MET794  SER795  GLU796  ALA797  LYS798  CYS799  TRP800  GLU811  SER814 

> <Gold.Protein.RotatedAtoms>
  150.8383  134.7665  159.6910 H   0  0  0  0  0  0  0  0  0  0  0  0  # atno 6907 bound_to 6896
  152.4475  134.5460  159.9863 H   0  0  0  0  0  0  0  0  0  0  0  0  # atno 6908 bound_to 6896
  151.5605  133.3366  159.3006 H   0  0  0  0  0  0  0  0  0  0  0  0  # atno 6909 bound_to 6896
  146.2394  139.9686  142.8450 H   0  0  0  0  0  0  0  0  0  0  0  0  # atno 7974 bound_to 7965
  155.4086  140.3441  155.4262 H   0  0  0  0  0  0  0  0  0  0  0  0  # atno 8008 bound_to 7997
  156.1462  140.1557  156.8875 H   0  0  0  0  0  0  0  0  0  0  0  0  # atno 8009 bound_to 7997
  154.5012  140.0814  156.7783 H   0  0  0  0  0  0  0  0  0  0  0  0  # atno 8010 bound_to 7997
  140.3386  143.2955  151.9861 H   0  0  0  0  0  0  0  0  0  0  0  0  # atno 10167 bound_to 10162
  157.5058  131.1095  150.9362 H   0  0  0  0  0  0  0  0  0  0  0  0  # atno 10718 bound_to 10713
  154.7545  135.3101  154.8496 H   0  0  0  0  0  0  0  0  0  0  0  0  # atno 10763 bound_to 10752
  153.9273  135.6789  153.4750 H   0  0  0  0  0  0  0  0  0  0  0  0  # atno 10764 bound_to 10752
  153.1142  135.4852  154.9016 H   0  0  0  0  0  0  0  0  0  0  0  0  # atno 10765 bound_to 10752
  139.8809  134.8795  156.3731 H   0  0  0  0  0  0  0  0  0  0  0  0  # atno 11005 bound_to 11000
  145.1702  140.9717  143.4326 LP  0  0  0  0  0  0  0  0  0  0  0  0  # atno 17320 bound_to 7965
  145.0035  139.3576  143.6155 LP  0  0  0  0  0  0  0  0  0  0  0  0  # atno 17321 bound_to 7965
  139.4844  144.6176  151.7317 LP  0  0  0  0  0  0  0  0  0  0  0  0  # atno 17342 bound_to 10162
  140.5330  144.0700  150.6060 LP  0  0  0  0  0  0  0  0  0  0  0  0  # atno 17343 bound_to 10162
  157.0019  130.5603  149.5312 LP  0  0  0  0  0  0  0  0  0  0  0  0  # atno 17370 bound_to 10713
  156.0258  130.5351  150.8401 LP  0  0  0  0  0  0  0  0  0  0  0  0  # atno 17371 bound_to 10713
  140.9451  133.7488  156.0197 LP  0  0  0  0  0  0  0  0  0  0  0  0  # atno 17394 bound_to 11000
  140.8173  134.3330  157.5393 LP  0  0  0  0  0  0  0  0  0  0  0  0  # atno 17395 bound_to 11000

$$$$
