AV-unprocessed.smi:883|AV-procd|sdf|4039|dock2
  -GOLD-   22720 1533D 1   1.00000     0.00000
 Structure written by MMmdl.
 29 31  0  0  0  0  0  0  0  0  1 V2000
  151.0823  136.4518  154.4849 N   0  0  0  0  0  0  0  0  0  0  0  0
  151.0716  137.5425  154.8709 C   0  0  0  0  0  0  0  0  0  0  0  0
  151.0585  138.9117  155.3559 C   0  0  0  0  0  0  0  0  0  0  0  0
  151.7761  139.2754  156.5123 C   0  0  0  0  0  0  0  0  0  0  0  0
  151.7368  140.6169  156.9406 C   0  0  0  0  0  0  0  0  0  0  0  0
  150.9803  141.5476  156.1974 C   0  0  0  0  0  0  0  0  0  0  0  0
  150.9476  142.8811  156.6296 N   0  0  0  0  0  0  0  0  0  0  0  0
  151.9680  143.4135  157.5276 C   0  0  1  0  0  0  0  0  0  0  0  0
  152.0467  144.9419  157.5069 C   0  0  0  0  0  0  0  0  0  0  0  0
  151.9187  145.2846  158.9981 C   0  0  1  0  0  0  0  0  0  0  0  0
  150.4765  145.1161  159.4927 C   0  0  0  0  0  0  0  0  0  0  0  0
  150.3330  143.5957  159.5176 C   0  0  0  0  0  0  0  0  0  0  0  0
  151.7158  143.1366  159.0237 C   0  0  2  0  0  0  0  0  0  0  0  0
  152.5284  144.1502  159.5914 O   0  0  0  0  0  0  0  0  0  0  0  0
  150.2856  141.1975  155.0885 N   0  0  0  0  0  0  0  0  0  0  0  0
  150.3280  139.9106  154.6811 C   0  0  0  0  0  0  0  0  0  0  0  0
  152.3496  138.5446  157.0645 H   0  0  0  0  0  0  0  0  0  0  0  0
  152.2803  140.9220  157.8229 H   0  0  0  0  0  0  0  0  0  0  0  0
  150.1175  143.4321  156.4664 H   0  0  0  0  0  0  0  0  0  0  0  0
  152.9424  143.0136  157.2431 H   0  0  0  0  0  0  0  0  0  0  0  0
  153.0115  145.2644  157.1141 H   0  0  0  0  0  0  0  0  0  0  0  0
  151.2646  145.4161  156.9120 H   0  0  0  0  0  0  0  0  0  0  0  0
  152.3721  146.2368  159.2741 H   0  0  0  0  0  0  0  0  0  0  0  0
  150.3586  145.5271  160.4960 H   0  0  0  0  0  0  0  0  0  0  0  0
  149.7523  145.6007  158.8373 H   0  0  0  0  0  0  0  0  0  0  0  0
  150.1573  143.2498  160.5368 H   0  0  0  0  0  0  0  0  0  0  0  0
  149.5139  143.2339  158.8959 H   0  0  0  0  0  0  0  0  0  0  0  0
  151.9824  142.1277  159.3397 H   0  0  0  0  0  0  0  0  0  0  0  0
  149.7622  139.6776  153.7904 H   0  0  0  0  0  0  0  0  0  0  0  0
  1  2  3  0  0  0  0
  2  3  1  0  0  0  0
  3 16  1  0  0  0  0
  3  4  2  0  0  0  0
  4  5  1  0  0  0  0
  4 17  1  0  0  0  0
  5  6  2  0  0  0  0
  5 18  1  0  0  0  0
  6  7  1  0  0  0  0
  6 15  1  0  0  0  0
  7  8  1  0  0  0  0
  7 19  1  0  0  0  0
  8 13  1  0  0  0  0
  8  9  1  0  0  0  0
  8 20  1  0  0  0  0
  9 10  1  0  0  0  0
  9 21  1  0  0  0  0
  9 22  1  0  0  0  0
 10 14  1  0  0  0  0
 10 11  1  0  0  0  0
 10 23  1  0  0  0  0
 11 12  1  0  0  0  0
 11 24  1  0  0  0  0
 11 25  1  0  0  0  0
 12 13  1  0  0  0  0
 12 26  1  0  0  0  0
 12 27  1  0  0  0  0
 13 14  1  0  0  0  0
 13 28  1  0  0  0  0
 15 16  2  0  0  0  0
 16 29  1  0  0  0  0
M  END
> <s_m_source_file>
AV-unprocessed.smi

> <i_m_source_file_index>
883

> <i_lp_mmshare_version>
43012

> <i_f3d_flags>
0

> <s_epik_input>
TiNDYzFbY0hdW2NIXWMobltjSF0xKVtOSF1bQ0BIXShbQ0gyXVtDQEBIXTIzKVtDQEBIXShPMylbQ0gyXVtDSDJdMg==

> <s_epik_cmdline>
J2VwaWtfcHl0aG9uJywgJy1waCcsICc3LjAnLCAnLXRuJywgJzgnLCAnLW1hJywgJzIwMCcsICctbWV0YWxfYmluZGluZycsICctaW1hZScsICc8aW5maWxlLm1hZT4nLCAnLW9tYWUnLCAnPG91dGZpbGUubWFlPic=

> <r_lp_tautomer_probability>
1

> <r_epik_Ionization_Penalty>
1.50983e-05

> <r_epik_Ionization_Penalty_Charging>
0

> <r_epik_Ionization_Penalty_Neutral>
1.50983e-05

> <r_epik_State_Penalty>
-0

> <r_epik_Charging_Adjusted_Penalty>
0

> <i_epik_Tot_Q>
0

> <i_epik_Tot_abs_Q>
0

> <r_epik_Metal_State_Penalty>
-0

> <b_epik_Metal_Only>
0

> <s_lp_Force_Field>
OPLS_2005

> <r_lp_Energy>
39.3985

> <b_lp_Chiralities_Consistent>
1

> <s_lp_Variant>
AV-unprocessed.smi:883-2

> <Gold.Version>
5.8.1

> <Gold.Id.Protein>
6NUR|6NUR_protein|mol2

> <Gold.PLP.Fitness>
38.5431

> <Gold.PLP.PLP>
-30.8528

> <Gold.PLP.part.hbond>
-3.0000

> <Gold.PLP.part.metal>
0.0000

> <Gold.PLP.part.buried>
-3.0945

> <Gold.PLP.part.nonpolar>
-25.5266

> <Gold.PLP.part.repulsive>
1.4977

> <Gold.PLP.ligand.clash>
0.0000

> <Gold.PLP.ligand.torsion>
0.3882

> <Gold.PLP.Chemscore.Hbond>
2.0000

> <Gold.PLP.Chemscore.CHOScore>
0.8192

> <Gold.PLP.Chemscore.Metal>
0.0000

> <Gold.Chemscore.Hbonds>
donor molecule, donor type, donor heavy atom, donor atom, acceptor molecule, acceptor atom, score
      L1  H     7    19       P1  8028  1.00
      P1  H 10752 10764       L1     1  0.98
      L1  C    16    29       P1  7957  0.68

> <Gold.PLP.Chemscore.Internal.Correction>
0.0092

> <Gold.Rescore>
     Score         DG    S(hbond)    S(metal)    S(lipo)     H(rot)  DE(clash)    DE(int)     intcor
     18.17     -19.75       1.78        0.00      92.97       1.00       1.24       0.34       ----

> <Gold.Chemscore.Fitness>
18.1740

> <Gold.Chemscore.DG>
-19.7485

> <Gold.Chemscore.ZeroCoef>
-5.4800

> <Gold.Chemscore.Hbond>
1.7817

> <Gold.Chemscore.Metal>
0.0000

> <Gold.Chemscore.Lipo>
92.9721

> <Gold.Chemscore.Internal_Hbond>
0.0000

> <Gold.Chemscore.DEClash>
1.2363

> <Gold.Chemscore.DEInternal>
0.3381

> <Gold.Chemscore.Rot>
1.0000

> <Gold.Chemscore.Internal.Correction>
   9.000000E+99

> <Gold.Chemscore.Hbonds>
donor molecule, donor type, donor heavy atom, donor atom, acceptor molecule, acceptor atom, score
      L1  H     7    19       P1  8028  0.98
      P1  H 10752 10764       L1     1  0.84

> <Gold.Chemscore.Hbond.Weighted>
-5.9507

> <Gold.Chemscore.Metal.Weighted>
-0.0000

> <Gold.Chemscore.Lipo.Weighted>
-10.8777

> <Gold.Chemscore.Internal_Hbond.Weighted>
0.0000

> <Gold.Chemscore.DEClash.Weighted>
1.2363

> <Gold.Chemscore.DEInternal.Weighted>
0.3381

> <Gold.Chemscore.Rot.Weighted>
2.5600

> <Gold.Chemscore.Internal.Correction.Weighted>
   9.000000E+99

> <Gold.Protein.RotatedTorsions>
[ 6907 6896 6895 6894 ] final -123.95 input  -60.11 | X-H torsion
[ 7974 7965 7964 7962 ] final -161.28 input  175.53 | X-H torsion
[ 8008 7997 7996 7995 ] final   37.13 input   59.86 | X-H torsion
[ 10167 10162 10161 10158 ] final  105.48 input  -65.29 | X-H torsion
[ 10718 10713 10712 10709 ] final   28.49 input   66.30 | X-H torsion
[ 10763 10752 10751 10750 ] final  -82.15 input  -60.55 | X-H torsion
[ 11005 11000 10999 10996 ] final -157.42 input  -57.11 | X-H torsion

> <Gold.Protein.ActiveResidues>
 VAL166  LYS551  ARG553  GLY616  TRP617  ASP618  TYR619  PRO620  LYS621  CYS622 
 ASP623  PHE694  ASN695  SER759  ASP760  ASP761  ALA762  ILE779  LEU786  VAL792 
 PHE793  MET794  SER795  GLU796  ALA797  LYS798  CYS799  TRP800  GLU811  SER814 

> <Gold.Protein.RotatedAtoms>
  150.8720  133.7491  159.2958 H   0  0  0  0  0  0  0  0  0  0  0  0  # atno 6907 bound_to 6896
  151.5100  135.1063  159.9861 H   0  0  0  0  0  0  0  0  0  0  0  0  # atno 6908 bound_to 6896
  152.4702  133.7967  159.6987 H   0  0  0  0  0  0  0  0  0  0  0  0  # atno 6909 bound_to 6896
  144.7396  140.3420  143.6133 H   0  0  0  0  0  0  0  0  0  0  0  0  # atno 7974 bound_to 7965
  155.1988  140.3314  155.4346 H   0  0  0  0  0  0  0  0  0  0  0  0  # atno 8008 bound_to 7997
  156.2415  140.1897  156.7026 H   0  0  0  0  0  0  0  0  0  0  0  0  # atno 8009 bound_to 7997
  154.6156  140.0603  156.9535 H   0  0  0  0  0  0  0  0  0  0  0  0  # atno 8010 bound_to 7997
  139.7089  144.7081  151.1059 H   0  0  0  0  0  0  0  0  0  0  0  0  # atno 10167 bound_to 10162
  157.2341  130.7038  149.6327 H   0  0  0  0  0  0  0  0  0  0  0  0  # atno 10718 bound_to 10713
  154.5722  135.5601  153.7106 H   0  0  0  0  0  0  0  0  0  0  0  0  # atno 10763 bound_to 10752
  153.0052  135.6300  154.2098 H   0  0  0  0  0  0  0  0  0  0  0  0  # atno 10764 bound_to 10752
  154.2038  135.2876  155.2962 H   0  0  0  0  0  0  0  0  0  0  0  0  # atno 10765 bound_to 10752
  140.6648  134.4310  157.5233 H   0  0  0  0  0  0  0  0  0  0  0  0  # atno 11005 bound_to 11000
  145.7365  139.1751  143.2401 LP  0  0  0  0  0  0  0  0  0  0  0  0  # atno 17320 bound_to 7965
  146.1167  140.7361  142.9477 LP  0  0  0  0  0  0  0  0  0  0  0  0  # atno 17321 bound_to 7965
  140.7728  143.5320  150.9412 LP  0  0  0  0  0  0  0  0  0  0  0  0  # atno 17342 bound_to 10162
  139.9004  143.6843  152.3132 LP  0  0  0  0  0  0  0  0  0  0  0  0  # atno 17343 bound_to 10162
  155.9673  130.4479  150.5599 LP  0  0  0  0  0  0  0  0  0  0  0  0  # atno 17370 bound_to 10713
  157.3447  131.0723  151.1760 LP  0  0  0  0  0  0  0  0  0  0  0  0  # atno 17371 bound_to 10713
  139.9001  134.8577  156.1934 LP  0  0  0  0  0  0  0  0  0  0  0  0  # atno 17394 bound_to 11000
  141.0437  133.6924  156.1645 LP  0  0  0  0  0  0  0  0  0  0  0  0  # atno 17395 bound_to 11000

$$$$
