AV-unprocessed.smi:2079|AV-procd|sdf|8476|dock2
  -GOLD-   2272011183D 1   1.00000     0.00000
 Structure written by MMmdl.
 42 43  0  0  0  0  0  0  0  0  2 V2000
  147.4352  133.8004  162.6584 C   0  0  0  0  0  0  0  0  0  0  0  0
  147.5579  134.9243  161.6872 C   0  0  0  0  0  0  0  0  0  0  0  0
  147.6759  134.9694  160.3263 C   0  0  0  0  0  0  0  0  0  0  0  0
  147.7510  136.3622  160.0584 C   0  0  0  0  0  0  0  0  0  0  0  0
  147.8855  136.8427  158.7308 N   0  0  0  0  0  0  0  0  0  0  0  0
  147.8793  136.1222  157.5964 C   0  0  0  0  0  0  0  0  0  0  0  0
  147.7671  134.8975  157.5323 O   0  0  0  0  0  0  0  0  0  0  0  0
  148.0167  136.9058  156.5167 N   0  0  0  0  0  0  0  0  0  0  0  0
  148.0343  136.4243  155.1402 C   0  0  0  0  0  0  0  0  0  0  0  0
  146.7850  136.8884  154.3644 C   0  0  0  0  0  0  0  0  0  0  0  0
  146.5788  136.1608  153.0830 N   0  3  1  0  0  0  0  0  0  0  0  0
  146.3201  134.7120  153.3051 C   0  0  0  0  0  0  0  0  0  0  0  0
  146.3194  133.9301  151.9822 C   0  0  0  0  0  0  0  0  0  0  0  0
  145.3050  134.5186  150.9964 C   0  0  0  0  0  0  0  0  0  0  0  0
  145.5833  136.0142  150.7955 C   0  0  0  0  0  0  0  0  0  0  0  0
  145.6074  136.7885  152.1309 C   0  0  1  0  0  0  0  0  0  0  0  0
  144.1930  136.9772  152.7210 C   0  0  0  0  0  0  0  0  0  0  0  0
  147.6837  137.1006  161.1558 N   0  0  0  0  0  0  0  0  0  0  0  0
  147.5604  136.1827  162.2054 O   0  0  0  0  0  0  0  0  0  0  0  0
  147.1074  132.8886  162.1590 H   0  0  0  0  0  0  0  0  0  0  0  0
  146.7099  134.0376  163.4369 H   0  0  0  0  0  0  0  0  0  0  0  0
  148.3933  133.5989  163.1378 H   0  0  0  0  0  0  0  0  0  0  0  0
  147.7050  134.1382  159.6375 H   0  0  0  0  0  0  0  0  0  0  0  0
  147.9896  137.8419  158.6358 H   0  0  0  0  0  0  0  0  0  0  0  0
  148.1019  137.9022  156.6553 H   0  0  0  0  0  0  0  0  0  0  0  0
  148.9537  136.7683  154.6660 H   0  0  0  0  0  0  0  0  0  0  0  0
  148.0790  135.3350  155.1593 H   0  0  0  0  0  0  0  0  0  0  0  0
  145.9160  136.7157  155.0008 H   0  0  0  0  0  0  0  0  0  0  0  0
  146.8099  137.9630  154.1835 H   0  0  0  0  0  0  0  0  0  0  0  0
  147.0919  134.2982  153.9550 H   0  0  0  0  0  0  0  0  0  0  0  0
  145.3725  134.5765  153.8272 H   0  0  0  0  0  0  0  0  0  0  0  0
  147.3168  133.9551  151.5411 H   0  0  0  0  0  0  0  0  0  0  0  0
  146.0906  132.8807  152.1699 H   0  0  0  0  0  0  0  0  0  0  0  0
  145.3612  133.9943  150.0420 H   0  0  0  0  0  0  0  0  0  0  0  0
  144.2919  134.3708  151.3717 H   0  0  0  0  0  0  0  0  0  0  0  0
  146.5470  136.1307  150.2974 H   0  0  0  0  0  0  0  0  0  0  0  0
  144.8425  136.4445  150.1206 H   0  0  0  0  0  0  0  0  0  0  0  0
  145.9792  137.7817  151.8825 H   0  0  0  0  0  0  0  0  0  0  0  0
  143.5213  137.4090  151.9786 H   0  0  0  0  0  0  0  0  0  0  0  0
  144.1960  137.6591  153.5710 H   0  0  0  0  0  0  0  0  0  0  0  0
  143.7505  136.0372  153.0490 H   0  0  0  0  0  0  0  0  0  0  0  0
  147.4717  136.1965  152.6123 H   0  0  0  0  0  0  0  0  0  0  0  0
  1  2  1  0  0  0  0
  1 20  1  0  0  0  0
  1 21  1  0  0  0  0
  1 22  1  0  0  0  0
  2 19  1  0  0  0  0
  2  3  2  0  0  0  0
  3  4  1  0  0  0  0
  3 23  1  0  0  0  0
  4  5  1  0  0  0  0
  4 18  2  0  0  0  0
  5  6  1  0  0  0  0
  5 24  1  0  0  0  0
  6  7  2  0  0  0  0
  6  8  1  0  0  0  0
  8  9  1  0  0  0  0
  8 25  1  0  0  0  0
  9 10  1  0  0  0  0
  9 26  1  0  0  0  0
  9 27  1  0  0  0  0
 10 11  1  0  0  0  0
 10 28  1  0  0  0  0
 10 29  1  0  0  0  0
 11 16  1  0  0  0  0
 11 12  1  0  0  0  0
 11 42  1  0  0  0  0
 12 13  1  0  0  0  0
 12 30  1  0  0  0  0
 12 31  1  0  0  0  0
 13 14  1  0  0  0  0
 13 32  1  0  0  0  0
 13 33  1  0  0  0  0
 14 15  1  0  0  0  0
 14 34  1  0  0  0  0
 14 35  1  0  0  0  0
 15 16  1  0  0  0  0
 15 36  1  0  0  0  0
 15 37  1  0  0  0  0
 16 17  1  0  0  0  0
 16 38  1  0  0  0  0
 17 39  1  0  0  0  0
 17 40  1  0  0  0  0
 17 41  1  0  0  0  0
 18 19  1  0  0  0  0
M  CHG  1  11   1
M  END
> <s_m_source_file>
AV-unprocessed.smi

> <i_m_source_file_index>
2079

> <i_lp_mmshare_version>
43012

> <i_f3d_flags>
0

> <s_epik_input>
W0NIM11jMVtjSF1jKG5vMSlbTkhdQyg9TylbTkhdW0NIMl1bQ0gyXU4yW0NIMl1bQ0gyXVtDSDJdW0NIMl1bQ0BIXTJbQ0gzXQ==

> <s_epik_cmdline>
J2VwaWtfcHl0aG9uJywgJy1waCcsICc3LjAnLCAnLXRuJywgJzgnLCAnLW1hJywgJzIwMCcsICctbWV0YWxfYmluZGluZycsICctaW1hZScsICc8aW5maWxlLm1hZT4nLCAnLW9tYWUnLCAnPG91dGZpbGUubWFlPic=

> <r_epik_Ionization_Penalty>
0.00265971

> <r_epik_Ionization_Penalty_Charging>
0.00262393

> <r_epik_Ionization_Penalty_Neutral>
3.57846e-05

> <r_epik_State_Penalty>
0.00182566

> <r_epik_Charging_Adjusted_Penalty>
0.00444959

> <i_epik_Tot_Q>
1

> <i_epik_Tot_abs_Q>
1

> <r_epik_Metal_State_Penalty>
0.0216344

> <b_epik_Metal_Only>
0

> <s_lp_Force_Field>
OPLS_2005

> <r_lp_Energy>
16.3098

> <b_lp_Chiralities_Consistent>
1

> <s_lp_Variant>
AV-unprocessed.smi:2079-2

> <Gold.Version>
5.8.1

> <Gold.Id.Protein>
6NUR|6NUR_protein|mol2

> <Gold.PLP.Fitness>
37.9858

> <Gold.PLP.PLP>
-26.6072

> <Gold.PLP.part.hbond>
-3.0000

> <Gold.PLP.part.metal>
0.0000

> <Gold.PLP.part.buried>
-4.4761

> <Gold.PLP.part.nonpolar>
-20.4879

> <Gold.PLP.part.repulsive>
0.1077

> <Gold.PLP.ligand.clash>
0.0000

> <Gold.PLP.ligand.torsion>
0.1420

> <Gold.PLP.Chemscore.Hbond>
3.8720

> <Gold.PLP.Chemscore.CHOScore>
0.0000

> <Gold.PLP.Chemscore.Metal>
0.0000

> <Gold.Chemscore.Hbonds>
donor molecule, donor type, donor heavy atom, donor atom, acceptor molecule, acceptor atom, score
      L1  H    11    42       P1  7948  2.00
      P1  H  6931  6943       L1    18  0.98
      P1  H  6934  6947       L1    18  0.88

> <Gold.PLP.Chemscore.Internal.Correction>
0.0466

> <Gold.Rescore>
     Score         DG    S(hbond)    S(metal)    S(lipo)     H(rot)  DE(clash)    DE(int)     intcor
     14.25     -15.88       2.40        0.00      54.65       1.57       0.05       1.58       ----

> <Gold.Chemscore.Fitness>
14.2507

> <Gold.Chemscore.DG>
-15.8789

> <Gold.Chemscore.ZeroCoef>
-5.4800

> <Gold.Chemscore.Hbond>
2.4022

> <Gold.Chemscore.Metal>
0.0000

> <Gold.Chemscore.Lipo>
54.6515

> <Gold.Chemscore.Internal_Hbond>
0.0000

> <Gold.Chemscore.DEClash>
0.0504

> <Gold.Chemscore.DEInternal>
1.5778

> <Gold.Chemscore.Rot>
1.5697

> <Gold.Chemscore.Internal.Correction>
   9.000000E+99

> <Gold.Chemscore.Hbonds>
donor molecule, donor type, donor heavy atom, donor atom, acceptor molecule, acceptor atom, score
      L1  H    11    42       P1  7948  1.00
      P1  H  6931  6943       L1    18  0.24
      P1  H  6934  6947       L1    18  0.79

> <Gold.Chemscore.Hbond.Weighted>
-8.0232

> <Gold.Chemscore.Metal.Weighted>
-0.0000

> <Gold.Chemscore.Lipo.Weighted>
-6.3942

> <Gold.Chemscore.Internal_Hbond.Weighted>
0.0000

> <Gold.Chemscore.DEClash.Weighted>
0.0504

> <Gold.Chemscore.DEInternal.Weighted>
1.5778

> <Gold.Chemscore.Rot.Weighted>
4.0185

> <Gold.Chemscore.Internal.Correction.Weighted>
   9.000000E+99

> <Gold.Protein.RotatedTorsions>
[ 6907 6896 6895 6894 ] final    4.28 input  -60.11 | X-H torsion
[ 7974 7965 7964 7962 ] final  -60.16 input  175.53 | X-H torsion
[ 8008 7997 7996 7995 ] final  101.02 input   59.86 | X-H torsion
[ 10167 10162 10161 10158 ] final -178.00 input  -65.29 | X-H torsion
[ 10718 10713 10712 10709 ] final  160.24 input   66.30 | X-H torsion
[ 10763 10752 10751 10750 ] final  108.61 input  -60.55 | X-H torsion
[ 11005 11000 10999 10996 ] final -137.45 input  -57.11 | X-H torsion

> <Gold.Protein.ActiveResidues>
 VAL166  LYS551  ARG553  GLY616  TRP617  ASP618  TYR619  PRO620  LYS621  CYS622 
 ASP623  PHE694  ASN695  SER759  ASP760  ASP761  ALA762  ILE779  LEU786  VAL792 
 PHE793  MET794  SER795  GLU796  ALA797  LYS798  CYS799  TRP800  GLU811  SER814 

> <Gold.Protein.RotatedAtoms>
  151.6387  135.1015  160.0136 H   0  0  0  0  0  0  0  0  0  0  0  0  # atno 6907 bound_to 6896
  152.4066  133.6894  159.6370 H   0  0  0  0  0  0  0  0  0  0  0  0  # atno 6908 bound_to 6896
  150.7960  133.8615  159.3274 H   0  0  0  0  0  0  0  0  0  0  0  0  # atno 6909 bound_to 6896
  145.8188  140.8553  143.0143 H   0  0  0  0  0  0  0  0  0  0  0  0  # atno 7974 bound_to 7965
  156.1260  140.3204  155.8277 H   0  0  0  0  0  0  0  0  0  0  0  0  # atno 8008 bound_to 7997
  155.4419  140.0526  157.3026 H   0  0  0  0  0  0  0  0  0  0  0  0  # atno 8009 bound_to 7997
  154.4862  140.2074  155.9662 H   0  0  0  0  0  0  0  0  0  0  0  0  # atno 8010 bound_to 7997
  139.5453  144.2252  152.0975 H   0  0  0  0  0  0  0  0  0  0  0  0  # atno 10167 bound_to 10162
  157.1532  131.0569  151.2270 H   0  0  0  0  0  0  0  0  0  0  0  0  # atno 10718 bound_to 10713
  153.4231  135.3806  155.2124 H   0  0  0  0  0  0  0  0  0  0  0  0  # atno 10763 bound_to 10752
  154.8746  135.3822  154.4359 H   0  0  0  0  0  0  0  0  0  0  0  0  # atno 10764 bound_to 10752
  153.4882  135.7088  153.5962 H   0  0  0  0  0  0  0  0  0  0  0  0  # atno 10765 bound_to 10752
  140.8709  134.2052  157.4651 H   0  0  0  0  0  0  0  0  0  0  0  0  # atno 11005 bound_to 11000
  144.6750  140.0503  143.7479 LP  0  0  0  0  0  0  0  0  0  0  0  0  # atno 17320 bound_to 7965
  145.9697  139.2861  143.1106 LP  0  0  0  0  0  0  0  0  0  0  0  0  # atno 17321 bound_to 7965
  140.1738  144.4910  150.6565 LP  0  0  0  0  0  0  0  0  0  0  0  0  # atno 17342 bound_to 10162
  140.6699  143.2281  151.5652 LP  0  0  0  0  0  0  0  0  0  0  0  0  # atno 17343 bound_to 10162
  157.4201  130.7433  149.6907 LP  0  0  0  0  0  0  0  0  0  0  0  0  # atno 17370 bound_to 10713
  155.9767  130.4072  150.3763 LP  0  0  0  0  0  0  0  0  0  0  0  0  # atno 17371 bound_to 10713
  139.8712  134.9774  156.4957 LP  0  0  0  0  0  0  0  0  0  0  0  0  # atno 17394 bound_to 11000
  140.8574  133.8086  155.9230 LP  0  0  0  0  0  0  0  0  0  0  0  0  # atno 17395 bound_to 11000

$$$$
