AV-unprocessed.smi:2184|AV-procd|sdf|8869|dock3
  -GOLD-   2272012 63D 1   1.00000     0.00000
 Structure written by MMmdl.
 47 48  0  0  0  0  0  0  0  0  1 V2000
  149.7109  132.2553  155.1498 C   0  0  0  0  0  0  0  0  0  0  0  0
  149.0457  133.7394  154.3475 S   0  0  0  0  0  0  0  0  0  0  0  0
  149.1878  134.9569  155.6908 C   0  0  2  0  0  0  0  0  0  0  0  0
  147.8795  135.7517  155.8251 C   0  0  0  0  0  0  0  0  0  0  0  0
  150.3822  135.8974  155.4896 C   0  0  0  0  0  0  0  0  0  0  0  0
  151.3250  135.8830  156.2819 O   0  0  0  0  0  0  0  0  0  0  0  0
  150.3244  136.7224  154.4323 N   0  0  0  0  0  0  0  0  0  0  0  0
  151.3406  137.7118  154.0917 C   0  0  0  0  0  0  0  0  0  0  0  0
  151.5117  138.7849  155.1539 C   0  0  0  0  0  0  0  0  0  0  0  0
  150.5927  139.8466  155.2617 C   0  0  0  0  0  0  0  0  0  0  0  0
  150.7924  140.8232  156.2559 C   0  0  0  0  0  0  0  0  0  0  0  0
  151.9068  140.7111  157.1212 C   0  0  0  0  0  0  0  0  0  0  0  0
  152.1267  141.6808  158.1229 N   0  0  0  0  0  0  0  0  0  0  0  0
  152.3160  141.2177  159.4957 C   0  0  0  0  0  0  0  0  0  0  0  0
  152.8347  142.3641  160.3833 C   0  0  2  0  0  0  0  0  0  0  0  0
  152.9347  141.9515  161.8555 C   0  0  0  0  0  0  0  0  0  0  0  0
  151.9406  143.4695  160.2876 O   0  0  0  0  0  0  0  0  0  0  0  0
  151.8482  143.9818  158.9610 C   0  0  2  0  0  0  0  0  0  0  0  0
  150.9417  145.2170  158.9849 C   0  0  0  0  0  0  0  0  0  0  0  0
  151.3035  142.8831  158.0286 C   0  0  0  0  0  0  0  0  0  0  0  0
  152.7889  139.6864  157.0131 N   0  0  0  0  0  0  0  0  0  0  0  0
  152.5911  138.7522  156.0600 C   0  0  0  0  0  0  0  0  0  0  0  0
  149.6259  131.3993  154.4806 H   0  0  0  0  0  0  0  0  0  0  0  0
  149.1610  132.0348  156.0648 H   0  0  0  0  0  0  0  0  0  0  0  0
  150.7632  132.3906  155.3969 H   0  0  0  0  0  0  0  0  0  0  0  0
  149.3322  134.3986  156.6171 H   0  0  0  0  0  0  0  0  0  0  0  0
  147.9455  136.4953  156.6203 H   0  0  0  0  0  0  0  0  0  0  0  0
  147.0468  135.0903  156.0654 H   0  0  0  0  0  0  0  0  0  0  0  0
  147.6294  136.2728  154.8999 H   0  0  0  0  0  0  0  0  0  0  0  0
  149.5157  136.6696  153.8299 H   0  0  0  0  0  0  0  0  0  0  0  0
  152.2931  137.2161  153.8956 H   0  0  0  0  0  0  0  0  0  0  0  0
  151.0475  138.1954  153.1596 H   0  0  0  0  0  0  0  0  0  0  0  0
  149.7509  139.9201  154.5890 H   0  0  0  0  0  0  0  0  0  0  0  0
  150.1029  141.6508  156.3314 H   0  0  0  0  0  0  0  0  0  0  0  0
  151.3676  140.8416  159.8821 H   0  0  0  0  0  0  0  0  0  0  0  0
  153.0287  140.3920  159.5178 H   0  0  0  0  0  0  0  0  0  0  0  0
  153.8242  142.6739  160.0421 H   0  0  0  0  0  0  0  0  0  0  0  0
  153.6183  141.1117  161.9820 H   0  0  0  0  0  0  0  0  0  0  0  0
  151.9620  141.6545  162.2487 H   0  0  0  0  0  0  0  0  0  0  0  0
  153.3036  142.7756  162.4667 H   0  0  0  0  0  0  0  0  0  0  0  0
  152.8410  144.2880  158.6260 H   0  0  0  0  0  0  0  0  0  0  0  0
  150.8478  145.6539  157.9905 H   0  0  0  0  0  0  0  0  0  0  0  0
  151.3446  145.9829  159.6479 H   0  0  0  0  0  0  0  0  0  0  0  0
  149.9405  144.9652  159.3362 H   0  0  0  0  0  0  0  0  0  0  0  0
  151.2680  143.2668  157.0099 H   0  0  0  0  0  0  0  0  0  0  0  0
  150.2801  142.6275  158.3064 H   0  0  0  0  0  0  0  0  0  0  0  0
  153.3198  137.9560  156.0197 H   0  0  0  0  0  0  0  0  0  0  0  0
  1  2  1  0  0  0  0
  1 23  1  0  0  0  0
  1 24  1  0  0  0  0
  1 25  1  0  0  0  0
  2  3  1  0  0  0  0
  3  4  1  0  0  0  0
  3  5  1  0  0  0  0
  3 26  1  0  0  0  0
  4 27  1  0  0  0  0
  4 28  1  0  0  0  0
  4 29  1  0  0  0  0
  5  6  2  0  0  0  0
  5  7  1  0  0  0  0
  7  8  1  0  0  0  0
  7 30  1  0  0  0  0
  8  9  1  0  0  0  0
  8 31  1  0  0  0  0
  8 32  1  0  0  0  0
  9 22  1  0  0  0  0
  9 10  2  0  0  0  0
 10 11  1  0  0  0  0
 10 33  1  0  0  0  0
 11 12  2  0  0  0  0
 11 34  1  0  0  0  0
 12 13  1  0  0  0  0
 12 21  1  0  0  0  0
 13 20  1  0  0  0  0
 13 14  1  0  0  0  0
 14 15  1  0  0  0  0
 14 35  1  0  0  0  0
 14 36  1  0  0  0  0
 15 16  1  0  0  0  0
 15 17  1  0  0  0  0
 15 37  1  0  0  0  0
 16 38  1  0  0  0  0
 16 39  1  0  0  0  0
 16 40  1  0  0  0  0
 17 18  1  0  0  0  0
 18 19  1  0  0  0  0
 18 20  1  0  0  0  0
 18 41  1  0  0  0  0
 19 42  1  0  0  0  0
 19 43  1  0  0  0  0
 19 44  1  0  0  0  0
 20 45  1  0  0  0  0
 20 46  1  0  0  0  0
 21 22  2  0  0  0  0
 22 47  1  0  0  0  0
M  END
> <s_m_source_file>
AV-unprocessed.smi

> <i_m_source_file_index>
2184

> <i_lp_mmshare_version>
43012

> <i_f3d_flags>
0

> <s_epik_input>
W0NIM11TW0NASF0oW0NIM10pQyg9TylbTkhdW0NIMl1jMVtjSF1bY0hdYyhuW2NIXTEpTjJbQ0gyXVtDQEBIXShbQ0gzXSlPW0NAQEhdKFtDSDNdKVtDSDJdMg==

> <s_epik_cmdline>
J2VwaWtfcHl0aG9uJywgJy1waCcsICc3LjAnLCAnLXRuJywgJzgnLCAnLW1hJywgJzIwMCcsICctbWV0YWxfYmluZGluZycsICctaW1hZScsICc8aW5maWxlLm1hZT4nLCAnLW9tYWUnLCAnPG91dGZpbGUubWFlPic=

> <r_lp_tautomer_probability>
1

> <r_epik_Ionization_Penalty>
0.00551702

> <r_epik_Ionization_Penalty_Charging>
0

> <r_epik_Ionization_Penalty_Neutral>
0.00551702

> <r_epik_State_Penalty>
0.00403758

> <r_epik_Charging_Adjusted_Penalty>
0.00403758

> <i_epik_Tot_Q>
0

> <i_epik_Tot_abs_Q>
0

> <r_epik_Metal_State_Penalty>
-0

> <b_epik_Metal_Only>
0

> <s_lp_Force_Field>
OPLS_2005

> <r_lp_Energy>
14.0724

> <b_lp_Chiralities_Consistent>
1

> <s_lp_Variant>
AV-unprocessed.smi:2184-1

> <Gold.Version>
5.8.1

> <Gold.Id.Protein>
6NUR|6NUR_protein|mol2

> <Gold.PLP.Fitness>
51.1095

> <Gold.PLP.PLP>
-44.4925

> <Gold.PLP.part.hbond>
-3.9892

> <Gold.PLP.part.metal>
0.0000

> <Gold.PLP.part.buried>
-2.2083

> <Gold.PLP.part.nonpolar>
-38.2817

> <Gold.PLP.part.repulsive>
0.1332

> <Gold.PLP.ligand.clash>
0.0000

> <Gold.PLP.ligand.torsion>
1.0880

> <Gold.PLP.Chemscore.Hbond>
2.8130

> <Gold.PLP.Chemscore.CHOScore>
0.0000

> <Gold.PLP.Chemscore.Metal>
0.0000

> <Gold.Chemscore.Hbonds>
donor molecule, donor type, donor heavy atom, donor atom, acceptor molecule, acceptor atom, score
      L1  H     7    30       P1  7948  0.74
      P1  H  7997  8010       L1    21  1.00
      P1  H 10752 10763       L1     6  0.52

> <Gold.PLP.Chemscore.Internal.Correction>
0.3538

> <Gold.Rescore>
     Score         DG    S(hbond)    S(metal)    S(lipo)     H(rot)  DE(clash)    DE(int)     intcor
     20.64     -21.66       2.14        0.00     112.18       1.59       0.13       0.90       ----

> <Gold.Chemscore.Fitness>
20.6432

> <Gold.Chemscore.DG>
-21.6638

> <Gold.Chemscore.ZeroCoef>
-5.4800

> <Gold.Chemscore.Hbond>
2.1380

> <Gold.Chemscore.Metal>
0.0000

> <Gold.Chemscore.Lipo>
112.1827

> <Gold.Chemscore.Internal_Hbond>
0.0000

> <Gold.Chemscore.DEClash>
0.1252

> <Gold.Chemscore.DEInternal>
0.8953

> <Gold.Chemscore.Rot>
1.5947

> <Gold.Chemscore.Internal.Correction>
   9.000000E+99

> <Gold.Chemscore.Hbonds>
donor molecule, donor type, donor heavy atom, donor atom, acceptor molecule, acceptor atom, score
      L1  H     7    30       P1  7948  0.57
      P1  H  7997  8010       L1    21  0.24
      P1  H 10752 10763       L1     6  0.21

> <Gold.Chemscore.Hbond.Weighted>
-7.1408

> <Gold.Chemscore.Metal.Weighted>
-0.0000

> <Gold.Chemscore.Lipo.Weighted>
-13.1254

> <Gold.Chemscore.Internal_Hbond.Weighted>
0.0000

> <Gold.Chemscore.DEClash.Weighted>
0.1252

> <Gold.Chemscore.DEInternal.Weighted>
0.8953

> <Gold.Chemscore.Rot.Weighted>
4.0824

> <Gold.Chemscore.Internal.Correction.Weighted>
   9.000000E+99

> <Gold.Protein.RotatedTorsions>
[ 6907 6896 6895 6894 ] final   31.29 input  -60.11 | X-H torsion
[ 7974 7965 7964 7962 ] final    4.41 input  175.53 | X-H torsion
[ 8008 7997 7996 7995 ] final   56.26 input   59.86 | X-H torsion
[ 10167 10162 10161 10158 ] final  161.65 input  -65.29 | X-H torsion
[ 10718 10713 10712 10709 ] final  104.65 input   66.30 | X-H torsion
[ 10763 10752 10751 10750 ] final   83.28 input  -60.55 | X-H torsion
[ 11005 11000 10999 10996 ] final    9.25 input  -57.11 | X-H torsion

> <Gold.Protein.ActiveResidues>
 VAL166  LYS551  ARG553  GLY616  TRP617  ASP618  TYR619  PRO620  LYS621  CYS622 
 ASP623  PHE694  ASN695  SER759  ASP760  ASP761  ALA762  ILE779  LEU786  VAL792 
 PHE793  MET794  SER795  GLU796  ALA797  LYS798  CYS799  TRP800  GLU811  SER814 

> <Gold.Protein.RotatedAtoms>
  152.0581  134.9611  160.0574 H   0  0  0  0  0  0  0  0  0  0  0  0  # atno 6907 bound_to 6896
  152.0985  133.4233  159.4584 H   0  0  0  0  0  0  0  0  0  0  0  0  # atno 6908 bound_to 6896
  150.6838  134.2707  159.4630 H   0  0  0  0  0  0  0  0  0  0  0  0  # atno 6909 bound_to 6896
  146.2444  140.0539  142.8373 H   0  0  0  0  0  0  0  0  0  0  0  0  # atno 7974 bound_to 7965
  155.5146  140.3478  155.4395 H   0  0  0  0  0  0  0  0  0  0  0  0  # atno 8008 bound_to 7997
  156.0826  140.1390  156.9720 H   0  0  0  0  0  0  0  0  0  0  0  0  # atno 8009 bound_to 7997
  154.4588  140.0943  156.6811 H   0  0  0  0  0  0  0  0  0  0  0  0  # atno 8010 bound_to 7997
  139.4851  144.4515  151.8823 H   0  0  0  0  0  0  0  0  0  0  0  0  # atno 10167 bound_to 10162
  157.6733  131.0809  150.5738 H   0  0  0  0  0  0  0  0  0  0  0  0  # atno 10718 bound_to 10713
  153.1277  135.4697  154.9298 H   0  0  0  0  0  0  0  0  0  0  0  0  # atno 10763 bound_to 10752
  154.7635  135.3138  154.8334 H   0  0  0  0  0  0  0  0  0  0  0  0  # atno 10764 bound_to 10752
  153.8883  135.6887  153.4816 H   0  0  0  0  0  0  0  0  0  0  0  0  # atno 10765 bound_to 10752
  140.5278  134.0496  155.7864 H   0  0  0  0  0  0  0  0  0  0  0  0  # atno 11005 bound_to 11000
  145.0960  140.9315  143.4741 LP  0  0  0  0  0  0  0  0  0  0  0  0  # atno 17320 bound_to 7965
  145.0721  139.3023  143.5826 LP  0  0  0  0  0  0  0  0  0  0  0  0  # atno 17321 bound_to 7965
  140.3973  144.2539  150.5895 LP  0  0  0  0  0  0  0  0  0  0  0  0  # atno 17342 bound_to 10162
  140.5090  143.2296  151.8563 LP  0  0  0  0  0  0  0  0  0  0  0  0  # atno 17343 bound_to 10162
  156.6039  130.4362  149.5886 LP  0  0  0  0  0  0  0  0  0  0  0  0  # atno 17370 bound_to 10713
  156.2484  130.6892  151.1622 LP  0  0  0  0  0  0  0  0  0  0  0  0  # atno 17371 bound_to 10713
  141.1298  133.9321  157.2559 LP  0  0  0  0  0  0  0  0  0  0  0  0  # atno 17394 bound_to 11000
  139.9570  135.0163  156.9157 LP  0  0  0  0  0  0  0  0  0  0  0  0  # atno 17395 bound_to 11000

$$$$
