AV-unprocessed.smi:113|AV-procd|sdf|1104|dock1
  -GOLD-   2262018213D 1   1.00000     0.00000
 Structure written by MMmdl.
 53 56  0  0  0  0  0  0  0  0  2 V2000
  148.6839  141.4669  154.6028 C   0  0  0  0  0  0  0  0  0  0  0  0
  149.7195  141.3477  155.7005 C   0  0  0  0  0  0  0  0  0  0  0  0
  150.2707  140.1091  156.0807 C   0  0  0  0  0  0  0  0  0  0  0  0
  151.2387  140.0520  157.1140 C   0  0  0  0  0  0  0  0  0  0  0  0
  151.8564  138.7172  157.5449 C   0  0  0  0  0  0  0  0  0  0  0  0
  150.9648  137.5668  157.5969 N   0  0  0  0  0  0  0  0  0  0  0  0
  150.1091  137.4482  158.7194 C   0  0  0  0  0  0  0  0  0  0  0  0
  150.1034  138.2938  159.6166 O   0  0  0  0  0  0  0  0  0  0  0  0
  149.2374  136.2708  158.7165 C   0  0  0  0  0  0  0  0  0  0  0  0
  148.3243  136.0511  159.9125 C   0  0  0  0  0  0  0  0  0  0  0  0
  149.2695  135.4139  157.6680 C   0  0  0  0  0  0  0  0  0  0  0  0
  150.0856  135.5787  156.5618 N   0  0  0  0  0  0  0  0  0  0  0  0
  150.0568  134.5896  155.4182 C   0  0  1  0  0  0  0  0  0  0  0  0
  150.4995  133.2028  155.8882 C   0  0  0  0  0  0  0  0  0  0  0  0
  149.5674  132.3059  155.1003 C   0  0  1  0  0  0  0  0  0  0  0  0
  149.3984  131.0623  155.7495 O   0  0  0  0  0  0  0  0  0  0  0  0
  148.2824  133.1387  155.0711 C   0  0  2  0  0  0  0  0  0  0  0  0
  147.3257  132.8115  153.9144 C   0  0  0  0  0  0  0  0  0  0  0  0
  148.0044  132.8757  152.6783 O   0  0  0  0  0  0  0  0  0  0  0  0
  148.7481  134.4805  154.9376 O   0  0  0  0  0  0  0  0  0  0  0  0
  150.9784  136.6684  156.5060 C   0  0  0  0  0  0  0  0  0  0  0  0
  151.7278  136.8297  155.5401 O   0  0  0  0  0  0  0  0  0  0  0  0
  151.6290  141.2682  157.7395 C   0  0  0  0  0  0  0  0  0  0  0  0
  152.5950  141.3097  158.7737 C   0  0  0  0  0  0  0  0  0  0  0  0
  152.9509  142.5345  159.3721 C   0  0  0  0  0  0  0  0  0  0  0  0
  152.3494  143.7335  158.9469 C   0  0  0  0  0  0  0  0  0  0  0  0
  151.3898  143.7111  157.9179 C   0  0  0  0  0  0  0  0  0  0  0  0
  151.0331  142.4874  157.3172 C   0  0  0  0  0  0  0  0  0  0  0  0
  150.1149  142.4740  156.3279 N   0  3  0  0  0  0  0  0  0  0  0  0
  148.6758  140.5748  153.9757 H   0  0  0  0  0  0  0  0  0  0  0  0
  148.8948  142.3261  153.9653 H   0  0  0  0  0  0  0  0  0  0  0  0
  147.6903  141.5923  155.0334 H   0  0  0  0  0  0  0  0  0  0  0  0
  149.9427  139.2154  155.5712 H   0  0  0  0  0  0  0  0  0  0  0  0
  152.6888  138.4616  156.8876 H   0  0  0  0  0  0  0  0  0  0  0  0
  152.3128  138.8107  158.5316 H   0  0  0  0  0  0  0  0  0  0  0  0
  147.7054  135.1614  159.7933 H   0  0  0  0  0  0  0  0  0  0  0  0
  147.6578  136.9038  160.0478 H   0  0  0  0  0  0  0  0  0  0  0  0
  148.9125  135.9283  160.8227 H   0  0  0  0  0  0  0  0  0  0  0  0
  148.6209  134.5519  157.7047 H   0  0  0  0  0  0  0  0  0  0  0  0
  150.6704  134.9935  154.6121 H   0  0  0  0  0  0  0  0  0  0  0  0
  151.5572  133.0333  155.6843 H   0  0  0  0  0  0  0  0  0  0  0  0
  150.3213  133.1042  156.9607 H   0  0  0  0  0  0  0  0  0  0  0  0
  149.9557  132.1568  154.0916 H   0  0  0  0  0  0  0  0  0  0  0  0
  148.9683  131.2103  156.5781 H   0  0  0  0  0  0  0  0  0  0  0  0
  147.7619  133.0628  156.0273 H   0  0  0  0  0  0  0  0  0  0  0  0
  146.9318  131.8015  154.0307 H   0  0  0  0  0  0  0  0  0  0  0  0
  146.4729  133.4910  153.9037 H   0  0  0  0  0  0  0  0  0  0  0  0
  148.0939  131.9980  152.3384 H   0  0  0  0  0  0  0  0  0  0  0  0
  153.0792  140.4117  159.1258 H   0  0  0  0  0  0  0  0  0  0  0  0
  153.6886  142.5534  160.1611 H   0  0  0  0  0  0  0  0  0  0  0  0
  152.6252  144.6703  159.4091 H   0  0  0  0  0  0  0  0  0  0  0  0
  150.9321  144.6351  157.5946 H   0  0  0  0  0  0  0  0  0  0  0  0
  149.7010  143.3599  156.0385 H   0  0  0  0  0  0  0  0  0  0  0  0
  1  2  1  0  0  0  0
  1 30  1  0  0  0  0
  1 31  1  0  0  0  0
  1 32  1  0  0  0  0
  2 29  1  0  0  0  0
  2  3  2  0  0  0  0
  3  4  1  0  0  0  0
  3 33  1  0  0  0  0
  4  5  1  0  0  0  0
  4 23  2  0  0  0  0
  5  6  1  0  0  0  0
  5 34  1  0  0  0  0
  5 35  1  0  0  0  0
  6 21  1  0  0  0  0
  6  7  1  0  0  0  0
  7  8  2  0  0  0  0
  7  9  1  0  0  0  0
  9 10  1  0  0  0  0
  9 11  2  0  0  0  0
 10 36  1  0  0  0  0
 10 37  1  0  0  0  0
 10 38  1  0  0  0  0
 11 12  1  0  0  0  0
 11 39  1  0  0  0  0
 12 13  1  0  0  0  0
 12 21  1  0  0  0  0
 13 20  1  0  0  0  0
 13 14  1  0  0  0  0
 13 40  1  0  0  0  0
 14 15  1  0  0  0  0
 14 41  1  0  0  0  0
 14 42  1  0  0  0  0
 15 16  1  0  0  0  0
 15 17  1  0  0  0  0
 15 43  1  0  0  0  0
 16 44  1  0  0  0  0
 17 18  1  0  0  0  0
 17 20  1  0  0  0  0
 17 45  1  0  0  0  0
 18 19  1  0  0  0  0
 18 46  1  0  0  0  0
 18 47  1  0  0  0  0
 19 48  1  0  0  0  0
 21 22  2  0  0  0  0
 23 28  1  0  0  0  0
 23 24  1  0  0  0  0
 24 25  2  0  0  0  0
 24 49  1  0  0  0  0
 25 26  1  0  0  0  0
 25 50  1  0  0  0  0
 26 27  2  0  0  0  0
 26 51  1  0  0  0  0
 27 28  1  0  0  0  0
 27 52  1  0  0  0  0
 28 29  2  0  0  0  0
 29 53  1  0  0  0  0
M  CHG  1  29   1
M  END
> <s_m_source_file>
AV-unprocessed.smi

> <i_m_source_file_index>
113

> <i_lp_mmshare_version>
43012

> <i_f3d_flags>
0

> <s_epik_input>
W2NIXTFbY0hdW2NIXVtjSF1jKGMxMiluYyhbQ0gzXSlbY0hdYzJbQ0gyXW4zYyg9TyljKFtDSDNdKVtjSF1uKGMzPU8pW0NAQEhdNFtDSDJdW0NAQEhdKFtPSF0pW0NASF0oTzQpW0NIMl1bT0hd

> <s_epik_cmdline>
J2VwaWtfcHl0aG9uJywgJy1waCcsICc3LjAnLCAnLXRuJywgJzgnLCAnLW1hJywgJzIwMCcsICctbWV0YWxfYmluZGluZycsICctaW1hZScsICc8aW5maWxlLm1hZT4nLCAnLW9tYWUnLCAnPG91dGZpbGUubWFlPic=

> <r_lp_tautomer_probability>
1

> <r_epik_Ionization_Penalty>
0.705471

> <r_epik_Ionization_Penalty_Charging>
0.70547

> <r_epik_Ionization_Penalty_Neutral>
1.19947e-07

> <r_epik_State_Penalty>
0.728574

> <r_epik_Charging_Adjusted_Penalty>
1.43404

> <i_epik_Tot_Q>
1

> <i_epik_Tot_abs_Q>
1

> <r_epik_Metal_State_Penalty>
4.61665

> <b_epik_Metal_Only>
0

> <s_epik_Chemistry_Notes>
This compound contains an acetal/aminal-like group ( X-CH(R)-Y where X, Y are N, S, or O) that may be acid/base labile, releasing an aldehyde.

> <s_lp_Force_Field>
OPLS_2005

> <r_lp_Energy>
41.2196

> <b_lp_Chiralities_Consistent>
1

> <s_lp_Variant>
AV-unprocessed.smi:113-14

> <Gold.Version>
5.8.1

> <Gold.Id.Protein>
6NUR|6NUR_protein|mol2

> <Gold.PLP.Fitness>
60.1683

> <Gold.PLP.PLP>
-49.3594

> <Gold.PLP.part.hbond>
-4.1278

> <Gold.PLP.part.metal>
0.0000

> <Gold.PLP.part.buried>
-6.8018

> <Gold.PLP.part.nonpolar>
-39.7322

> <Gold.PLP.part.repulsive>
0.6333

> <Gold.PLP.ligand.clash>
0.0000

> <Gold.PLP.ligand.torsion>
0.6220

> <Gold.PLP.Chemscore.Hbond>
4.0000

> <Gold.PLP.Chemscore.CHOScore>
0.0000

> <Gold.PLP.Chemscore.Metal>
0.0000

> <Gold.Chemscore.Hbonds>
donor molecule, donor type, donor heavy atom, donor atom, acceptor molecule, acceptor atom, score
      L1  H    29    53       P1  8028  2.00
      P1  H 10752 10764       L1    22  1.00

> <Gold.PLP.Chemscore.Internal.Correction>
0.0528

> <Gold.Rescore>
     Score         DG    S(hbond)    S(metal)    S(lipo)     H(rot)  DE(clash)    DE(int)     intcor
     20.84     -21.48       2.84        0.00     121.50       3.01       0.05       0.59       ----

> <Gold.Chemscore.Fitness>
20.8367

> <Gold.Chemscore.DG>
-21.4766

> <Gold.Chemscore.ZeroCoef>
-5.4800

> <Gold.Chemscore.Hbond>
2.8419

> <Gold.Chemscore.Metal>
0.0000

> <Gold.Chemscore.Lipo>
121.4984

> <Gold.Chemscore.Internal_Hbond>
0.0000

> <Gold.Chemscore.DEClash>
0.0528

> <Gold.Chemscore.DEInternal>
0.5870

> <Gold.Chemscore.Rot>
3.0120

> <Gold.Chemscore.Internal.Correction>
   9.000000E+99

> <Gold.Chemscore.Hbonds>
donor molecule, donor type, donor heavy atom, donor atom, acceptor molecule, acceptor atom, score
      L1  H    19    48       P1 10747  0.01
      L1  H    29    53       P1  8028  0.99
      P1  H 10752 10764       L1    22  0.93

> <Gold.Chemscore.Hbond.Weighted>
-9.4920

> <Gold.Chemscore.Metal.Weighted>
-0.0000

> <Gold.Chemscore.Lipo.Weighted>
-14.2153

> <Gold.Chemscore.Internal_Hbond.Weighted>
0.0000

> <Gold.Chemscore.DEClash.Weighted>
0.0528

> <Gold.Chemscore.DEInternal.Weighted>
0.5870

> <Gold.Chemscore.Rot.Weighted>
7.7108

> <Gold.Chemscore.Internal.Correction.Weighted>
   9.000000E+99

> <Gold.Protein.RotatedTorsions>
[ 6907 6896 6895 6894 ] final  -40.73 input  -60.11 | X-H torsion
[ 7974 7965 7964 7962 ] final  -29.11 input  175.53 | X-H torsion
[ 8008 7997 7996 7995 ] final -144.90 input   59.86 | X-H torsion
[ 10167 10162 10161 10158 ] final   62.77 input  -65.29 | X-H torsion
[ 10718 10713 10712 10709 ] final   62.40 input   66.30 | X-H torsion
[ 10763 10752 10751 10750 ] final  -64.20 input  -60.55 | X-H torsion
[ 11005 11000 10999 10996 ] final  162.62 input  -57.11 | X-H torsion

> <Gold.Protein.ActiveResidues>
 VAL166  LYS551  ARG553  GLY616  TRP617  ASP618  TYR619  PRO620  LYS621  CYS622 
 ASP623  PHE694  ASN695  SER759  ASP760  ASP761  ALA762  ILE779  LEU786  VAL792 
 PHE793  MET794  SER795  GLU796  ALA797  LYS798  CYS799  TRP800  GLU811  SER814 

> <Gold.Protein.RotatedAtoms>
  150.9750  134.9116  159.7810 H   0  0  0  0  0  0  0  0  0  0  0  0  # atno 6907 bound_to 6896
  152.5203  134.3488  159.9253 H   0  0  0  0  0  0  0  0  0  0  0  0  # atno 6908 bound_to 6896
  151.3496  133.3889  159.2713 H   0  0  0  0  0  0  0  0  0  0  0  0  # atno 6909 bound_to 6896
  146.1240  140.5370  142.8723 H   0  0  0  0  0  0  0  0  0  0  0  0  # atno 7974 bound_to 7965
  155.5344  140.0602  157.2882 H   0  0  0  0  0  0  0  0  0  0  0  0  # atno 8008 bound_to 7997
  154.4473  140.1930  156.0572 H   0  0  0  0  0  0  0  0  0  0  0  0  # atno 8009 bound_to 7997
  156.0629  140.3270  155.7487 H   0  0  0  0  0  0  0  0  0  0  0  0  # atno 8010 bound_to 7997
  140.1402  144.4560  150.6815 H   0  0  0  0  0  0  0  0  0  0  0  0  # atno 10167 bound_to 10162
  157.5898  130.9048  149.9583 H   0  0  0  0  0  0  0  0  0  0  0  0  # atno 10718 bound_to 10713
  154.3266  135.6185  153.5532 H   0  0  0  0  0  0  0  0  0  0  0  0  # atno 10763 bound_to 10752
  152.9815  135.5736  154.5010 H   0  0  0  0  0  0  0  0  0  0  0  0  # atno 10764 bound_to 10752
  154.4688  135.2858  155.1635 H   0  0  0  0  0  0  0  0  0  0  0  0  # atno 10765 bound_to 10752
  140.2276  134.8149  157.3284 H   0  0  0  0  0  0  0  0  0  0  0  0  # atno 11005 bound_to 11000
  144.7624  140.5453  143.6726 LP  0  0  0  0  0  0  0  0  0  0  0  0  # atno 17320 bound_to 7965
  145.5406  139.1475  143.3449 LP  0  0  0  0  0  0  0  0  0  0  0  0  # atno 17321 bound_to 7965
  140.6765  143.2307  151.5495 LP  0  0  0  0  0  0  0  0  0  0  0  0  # atno 17342 bound_to 10162
  139.5475  144.2481  152.1470 LP  0  0  0  0  0  0  0  0  0  0  0  0  # atno 17343 bound_to 10162
  156.0951  130.3660  150.0322 LP  0  0  0  0  0  0  0  0  0  0  0  0  # atno 17370 bound_to 10713
  156.8447  130.9438  151.3629 LP  0  0  0  0  0  0  0  0  0  0  0  0  # atno 17371 bound_to 10713
  140.1784  134.4520  155.7787 LP  0  0  0  0  0  0  0  0  0  0  0  0  # atno 17394 bound_to 11000
  141.2220  133.6973  156.7827 LP  0  0  0  0  0  0  0  0  0  0  0  0  # atno 17395 bound_to 11000

$$$$
