AV-unprocessed.smi:749|AV-procd|sdf|3584|dock7
  -GOLD-   22720 0583D 1   1.00000     0.00000
 Structure written by MMmdl.
 43 44  0  0  0  0  0  0  0  0  1 V2000
  152.4175  144.7499  161.9453 C   0  0  0  0  0  0  0  0  0  0  0  0
  152.2828  144.2419  160.5791 N   0  0  0  0  0  0  0  0  0  0  0  0
  152.6150  142.8183  160.4133 C   0  0  0  0  0  0  0  0  0  0  0  0
  152.8107  142.3817  158.9485 C   0  0  1  0  0  0  0  0  0  0  0  0
  152.8021  140.9272  158.8344 N   0  0  0  0  0  0  0  0  0  0  0  0
  153.3826  140.0721  159.6926 C   0  0  0  0  0  0  0  0  0  0  0  0
  153.9995  140.4456  160.6889 O   0  0  0  0  0  0  0  0  0  0  0  0
  153.2593  138.7600  159.4008 N   0  0  0  0  0  0  0  0  0  0  0  0
  153.7406  137.6047  160.0798 C   0  0  0  0  0  0  0  0  0  0  0  0
  154.2836  137.7162  161.3873 C   0  0  0  0  0  0  0  0  0  0  0  0
  154.6171  136.4273  161.7046 C   0  0  0  0  0  0  0  0  0  0  0  0
  155.2308  135.7853  162.9175 C   0  0  0  0  0  0  0  0  0  0  0  0
  156.6933  136.2384  163.0979 C   0  0  0  0  0  0  0  0  0  0  0  0
  155.2124  134.2524  162.7691 C   0  0  0  0  0  0  0  0  0  0  0  0
  154.4409  136.1828  164.1788 C   0  0  0  0  0  0  0  0  0  0  0  0
  154.2964  135.5990  160.6713 O   0  0  0  0  0  0  0  0  0  0  0  0
  153.7369  136.3566  159.6370 N   0  0  0  0  0  0  0  0  0  0  0  0
  151.6989  142.9742  158.0810 C   0  0  0  0  0  0  0  0  0  0  0  0
  151.7180  144.5051  158.1603 C   0  0  0  0  0  0  0  0  0  0  0  0
  151.8118  145.0459  159.5951 C   0  0  0  0  0  0  0  0  0  0  0  0
  151.4810  146.2148  159.7968 O   0  0  0  0  0  0  0  0  0  0  0  0
  153.1569  145.5511  161.9833 H   0  0  0  0  0  0  0  0  0  0  0  0
  152.7334  143.9743  162.6442 H   0  0  0  0  0  0  0  0  0  0  0  0
  151.4667  145.1442  162.3069 H   0  0  0  0  0  0  0  0  0  0  0  0
  153.5162  142.5813  160.9811 H   0  0  0  0  0  0  0  0  0  0  0  0
  151.8040  142.2431  160.8630 H   0  0  0  0  0  0  0  0  0  0  0  0
  153.7666  142.7640  158.5845 H   0  0  0  0  0  0  0  0  0  0  0  0
  152.3143  140.5363  158.0407 H   0  0  0  0  0  0  0  0  0  0  0  0
  152.7596  138.5647  158.5455 H   0  0  0  0  0  0  0  0  0  0  0  0
  154.4084  138.5991  161.9962 H   0  0  0  0  0  0  0  0  0  0  0  0
  157.1469  135.7789  163.9769 H   0  0  0  0  0  0  0  0  0  0  0  0
  156.7638  137.3197  163.2232 H   0  0  0  0  0  0  0  0  0  0  0  0
  157.3041  135.9658  162.2362 H   0  0  0  0  0  0  0  0  0  0  0  0
  155.7666  133.9338  161.8854 H   0  0  0  0  0  0  0  0  0  0  0  0
  154.1950  133.8719  162.6724 H   0  0  0  0  0  0  0  0  0  0  0  0
  155.6625  133.7626  163.6336 H   0  0  0  0  0  0  0  0  0  0  0  0
  154.8705  135.7361  165.0762 H   0  0  0  0  0  0  0  0  0  0  0  0
  153.4014  135.8582  164.1186 H   0  0  0  0  0  0  0  0  0  0  0  0
  154.4384  137.2645  164.3189 H   0  0  0  0  0  0  0  0  0  0  0  0
  151.8223  142.6611  157.0434 H   0  0  0  0  0  0  0  0  0  0  0  0
  150.7269  142.5990  158.4054 H   0  0  0  0  0  0  0  0  0  0  0  0
  152.5771  144.8873  157.6074 H   0  0  0  0  0  0  0  0  0  0  0  0
  150.8302  144.9127  157.6758 H   0  0  0  0  0  0  0  0  0  0  0  0
  1  2  1  0  0  0  0
  1 22  1  0  0  0  0
  1 23  1  0  0  0  0
  1 24  1  0  0  0  0
  2 20  1  0  0  0  0
  2  3  1  0  0  0  0
  3  4  1  0  0  0  0
  3 25  1  0  0  0  0
  3 26  1  0  0  0  0
  4  5  1  0  0  0  0
  4 18  1  0  0  0  0
  4 27  1  0  0  0  0
  5  6  1  0  0  0  0
  5 28  1  0  0  0  0
  6  7  2  0  0  0  0
  6  8  1  0  0  0  0
  8  9  1  0  0  0  0
  8 29  1  0  0  0  0
  9 17  2  0  0  0  0
  9 10  1  0  0  0  0
 10 11  2  0  0  0  0
 10 30  1  0  0  0  0
 11 12  1  0  0  0  0
 11 16  1  0  0  0  0
 12 13  1  0  0  0  0
 12 14  1  0  0  0  0
 12 15  1  0  0  0  0
 13 31  1  0  0  0  0
 13 32  1  0  0  0  0
 13 33  1  0  0  0  0
 14 34  1  0  0  0  0
 14 35  1  0  0  0  0
 14 36  1  0  0  0  0
 15 37  1  0  0  0  0
 15 38  1  0  0  0  0
 15 39  1  0  0  0  0
 16 17  1  0  0  0  0
 18 19  1  0  0  0  0
 18 40  1  0  0  0  0
 18 41  1  0  0  0  0
 19 20  1  0  0  0  0
 19 42  1  0  0  0  0
 19 43  1  0  0  0  0
 20 21  2  0  0  0  0
M  END
> <s_m_source_file>
AV-unprocessed.smi

> <i_m_source_file_index>
749

> <i_lp_mmshare_version>
43012

> <i_f3d_flags>
0

> <s_epik_input>
Tz1DMVtDSDJdW0NIMl1bQ0BASF0oW0NIMl1OMVtDSDNdKVtOSF1DKD1PKVtOSF1jMltjSF1jKG9uMilDKFtDSDNdKShbQ0gzXSlbQ0gzXQ==

> <s_epik_cmdline>
J2VwaWtfcHl0aG9uJywgJy1waCcsICc3LjAnLCAnLXRuJywgJzgnLCAnLW1hJywgJzIwMCcsICctbWV0YWxfYmluZGluZycsICctaW1hZScsICc8aW5maWxlLm1hZT4nLCAnLW9tYWUnLCAnPG91dGZpbGUubWFlPic=

> <r_lp_tautomer_probability>
1

> <r_epik_Ionization_Penalty>
2.91905e-05

> <r_epik_Ionization_Penalty_Charging>
0

> <r_epik_Ionization_Penalty_Neutral>
2.91905e-05

> <r_epik_State_Penalty>
-0

> <r_epik_Charging_Adjusted_Penalty>
0

> <i_epik_Tot_Q>
0

> <i_epik_Tot_abs_Q>
0

> <r_epik_Metal_State_Penalty>
0.0102923

> <b_epik_Metal_Only>
0

> <s_lp_Force_Field>
OPLS_2005

> <r_lp_Energy>
15.3283

> <b_lp_Chiralities_Consistent>
1

> <s_lp_Variant>
AV-unprocessed.smi:749-1

> <Gold.Version>
5.8.1

> <Gold.Id.Protein>
6NUR|6NUR_protein|mol2

> <Gold.PLP.Fitness>
41.7622

> <Gold.PLP.PLP>
-42.4558

> <Gold.PLP.part.hbond>
-4.0000

> <Gold.PLP.part.metal>
0.0000

> <Gold.PLP.part.buried>
-1.5029

> <Gold.PLP.part.nonpolar>
-36.5135

> <Gold.PLP.part.repulsive>
0.3943

> <Gold.PLP.ligand.clash>
0.0000

> <Gold.PLP.ligand.torsion>
0.4317

> <Gold.PLP.Chemscore.Hbond>
0.0549

> <Gold.PLP.Chemscore.CHOScore>
0.0000

> <Gold.PLP.Chemscore.Metal>
0.0000

> <Gold.Chemscore.Hbonds>
donor molecule, donor type, donor heavy atom, donor atom, acceptor molecule, acceptor atom, score
      P1  H  6896  6907       L1    17  0.05

> <Gold.PLP.Chemscore.Internal.Correction>
0.0050

> <Gold.Rescore>
     Score         DG    S(hbond)    S(metal)    S(lipo)     H(rot)  DE(clash)    DE(int)     intcor
     10.22     -13.28       0.07        0.00      91.61       1.23       0.07       2.99       ----

> <Gold.Chemscore.Fitness>
10.2229

> <Gold.Chemscore.DG>
-13.2808

> <Gold.Chemscore.ZeroCoef>
-5.4800

> <Gold.Chemscore.Hbond>
0.0705

> <Gold.Chemscore.Metal>
0.0000

> <Gold.Chemscore.Lipo>
91.6115

> <Gold.Chemscore.Internal_Hbond>
0.0000

> <Gold.Chemscore.DEClash>
0.0663

> <Gold.Chemscore.DEInternal>
2.9916

> <Gold.Chemscore.Rot>
1.2317

> <Gold.Chemscore.Internal.Correction>
   9.000000E+99

> <Gold.Chemscore.Hbond.Weighted>
-0.2354

> <Gold.Chemscore.Metal.Weighted>
-0.0000

> <Gold.Chemscore.Lipo.Weighted>
-10.7185

> <Gold.Chemscore.Internal_Hbond.Weighted>
0.0000

> <Gold.Chemscore.DEClash.Weighted>
0.0663

> <Gold.Chemscore.DEInternal.Weighted>
2.9916

> <Gold.Chemscore.Rot.Weighted>
3.1531

> <Gold.Chemscore.Internal.Correction.Weighted>
   9.000000E+99

> <Gold.Protein.RotatedTorsions>
[ 6907 6896 6895 6894 ] final   11.81 input  -60.11 | X-H torsion
[ 7974 7965 7964 7962 ] final -110.17 input  175.53 | X-H torsion
[ 8008 7997 7996 7995 ] final  -38.64 input   59.86 | X-H torsion
[ 10167 10162 10161 10158 ] final -127.49 input  -65.29 | X-H torsion
[ 10718 10713 10712 10709 ] final -137.84 input   66.30 | X-H torsion
[ 10763 10752 10751 10750 ] final -158.36 input  -60.55 | X-H torsion
[ 11005 11000 10999 10996 ] final -122.06 input  -57.11 | X-H torsion

> <Gold.Protein.ActiveResidues>
 VAL166  LYS551  ARG553  GLY616  TRP617  ASP618  TYR619  PRO620  LYS621  CYS622 
 ASP623  PHE694  ASN695  SER759  ASP760  ASP761  ALA762  ILE779  LEU786  VAL792 
 PHE793  MET794  SER795  GLU796  ALA797  LYS798  CYS799  TRP800  GLU811  SER814 

> <Gold.Protein.RotatedAtoms>
  151.7603  135.0811  160.0344 H   0  0  0  0  0  0  0  0  0  0  0  0  # atno 6907 bound_to 6896
  152.3357  133.6005  159.5849 H   0  0  0  0  0  0  0  0  0  0  0  0  # atno 6908 bound_to 6896
  150.7449  133.9715  159.3589 H   0  0  0  0  0  0  0  0  0  0  0  0  # atno 6909 bound_to 6896
  145.1715  140.8928  143.3532 H   0  0  0  0  0  0  0  0  0  0  0  0  # atno 7974 bound_to 7965
  154.4034  140.1572  156.2733 H   0  0  0  0  0  0  0  0  0  0  0  0  # atno 8008 bound_to 7997
  155.8934  140.3437  155.5951 H   0  0  0  0  0  0  0  0  0  0  0  0  # atno 8009 bound_to 7997
  155.7532  140.0807  157.2182 H   0  0  0  0  0  0  0  0  0  0  0  0  # atno 8010 bound_to 7997
  139.9603  143.5957  152.2447 H   0  0  0  0  0  0  0  0  0  0  0  0  # atno 10167 bound_to 10162
  156.2927  130.7384  151.1414 H   0  0  0  0  0  0  0  0  0  0  0  0  # atno 10718 bound_to 10713
  154.7562  135.3105  154.8465 H   0  0  0  0  0  0  0  0  0  0  0  0  # atno 10763 bound_to 10752
  153.9238  135.6793  153.4751 H   0  0  0  0  0  0  0  0  0  0  0  0  # atno 10764 bound_to 10752
  153.1160  135.4844  154.9046 H   0  0  0  0  0  0  0  0  0  0  0  0  # atno 10765 bound_to 10752
  141.0023  134.0385  157.3521 H   0  0  0  0  0  0  0  0  0  0  0  0  # atno 11005 bound_to 11000
  145.0228  139.3409  143.6064 LP  0  0  0  0  0  0  0  0  0  0  0  0  # atno 17320 bound_to 7965
  146.3468  139.9535  142.8726 LP  0  0  0  0  0  0  0  0  0  0  0  0  # atno 17321 bound_to 7965
  139.6559  144.7662  151.2057 LP  0  0  0  0  0  0  0  0  0  0  0  0  # atno 17342 bound_to 10162
  140.7555  143.6087  150.8627 LP  0  0  0  0  0  0  0  0  0  0  0  0  # atno 17343 bound_to 10162
  157.7347  131.0579  150.5512 LP  0  0  0  0  0  0  0  0  0  0  0  0  # atno 17370 bound_to 10713
  156.5630  130.4260  149.6054 LP  0  0  0  0  0  0  0  0  0  0  0  0  # atno 17371 bound_to 10713
  139.9045  135.0175  156.7423 LP  0  0  0  0  0  0  0  0  0  0  0  0  # atno 17394 bound_to 11000
  140.6869  133.9425  155.7943 LP  0  0  0  0  0  0  0  0  0  0  0  0  # atno 17395 bound_to 11000

$$$$
