AV-unprocessed.smi:2330|AV-procd|sdf|9311|dock5
  -GOLD-   2272012533D 1   1.00000     0.00000
 Structure written by MMmdl.
 42 43  0  0  0  0  0  0  0  0  1 V2000
  146.5231  138.4248  152.0441 C   0  0  0  0  0  0  0  0  0  0  0  0
  147.3663  139.3907  152.8884 C   0  0  2  0  0  0  0  0  0  0  0  0
  147.5755  138.8553  154.3179 C   0  0  0  0  0  0  0  0  0  0  0  0
  148.4186  139.8204  155.1675 C   0  0  0  0  0  0  0  0  0  0  0  0
  147.8037  141.2324  155.1983 C   0  0  1  0  0  0  0  0  0  0  0  0
  148.6778  142.1428  155.9313 N   0  0  0  0  0  0  0  0  0  0  0  0
  149.0855  141.9847  157.1979 C   0  0  0  0  0  0  0  0  0  0  0  0
  148.7797  141.0310  157.9136 O   0  0  0  0  0  0  0  0  0  0  0  0
  149.8537  143.0064  157.5982 N   0  0  0  0  0  0  0  0  0  0  0  0
  150.3766  143.1841  158.9497 C   0  0  0  0  0  0  0  0  0  0  0  0
  151.9119  143.3541  158.9783 C   0  0  1  0  0  0  0  0  0  0  0  0
  152.3710  144.7319  158.4806 C   0  0  0  0  0  0  0  0  0  0  0  0
  152.5201  142.9984  160.3018 C   0  0  0  0  0  0  0  0  0  0  0  0
  152.2344  143.6303  161.4448 N   0  0  0  0  0  0  0  0  0  0  0  0
  152.9131  143.0898  162.5397 C   0  0  0  0  0  0  0  0  0  0  0  0
  153.7222  142.0311  162.2140 C   0  0  0  0  0  0  0  0  0  0  0  0
  153.6621  141.6733  160.5102 S   0  0  0  0  0  0  0  0  0  0  0  0
  147.5856  141.7670  153.7713 C   0  0  0  0  0  0  0  0  0  0  0  0
  146.7396  140.7974  152.9307 C   0  0  0  0  0  0  0  0  0  0  0  0
  145.5282  138.2910  152.4699 H   0  0  0  0  0  0  0  0  0  0  0  0
  146.9944  137.4434  151.9828 H   0  0  0  0  0  0  0  0  0  0  0  0
  146.4027  138.7959  151.0259 H   0  0  0  0  0  0  0  0  0  0  0  0
  148.3449  139.4727  152.4128 H   0  0  0  0  0  0  0  0  0  0  0  0
  146.6087  138.7002  154.7991 H   0  0  0  0  0  0  0  0  0  0  0  0
  148.0624  137.8801  154.2838 H   0  0  0  0  0  0  0  0  0  0  0  0
  148.5108  139.4305  156.1820 H   0  0  0  0  0  0  0  0  0  0  0  0
  149.4302  139.8667  154.7615 H   0  0  0  0  0  0  0  0  0  0  0  0
  146.8292  141.1756  155.6871 H   0  0  0  0  0  0  0  0  0  0  0  0
  148.9867  142.9667  155.4367 H   0  0  0  0  0  0  0  0  0  0  0  0
  150.0525  143.7410  156.9350 H   0  0  0  0  0  0  0  0  0  0  0  0
  149.8863  144.0287  159.4370 H   0  0  0  0  0  0  0  0  0  0  0  0
  150.0987  142.2970  159.5196 H   0  0  0  0  0  0  0  0  0  0  0  0
  152.3134  142.6338  158.2645 H   0  0  0  0  0  0  0  0  0  0  0  0
  153.4583  144.7831  158.4158 H   0  0  0  0  0  0  0  0  0  0  0  0
  152.0390  145.5262  159.1499 H   0  0  0  0  0  0  0  0  0  0  0  0
  151.9706  144.9444  157.4890 H   0  0  0  0  0  0  0  0  0  0  0  0
  152.7598  143.5205  163.5180 H   0  0  0  0  0  0  0  0  0  0  0  0
  154.3464  141.4426  162.8697 H   0  0  0  0  0  0  0  0  0  0  0  0
  147.0975  142.7417  153.8089 H   0  0  0  0  0  0  0  0  0  0  0  0
  148.5482  141.9223  153.2815 H   0  0  0  0  0  0  0  0  0  0  0  0
  146.6338  141.1904  151.9190 H   0  0  0  0  0  0  0  0  0  0  0  0
  145.7325  140.7409  153.3461 H   0  0  0  0  0  0  0  0  0  0  0  0
  1  2  1  0  0  0  0
  1 20  1  0  0  0  0
  1 21  1  0  0  0  0
  1 22  1  0  0  0  0
  2 19  1  0  0  0  0
  2  3  1  0  0  0  0
  2 23  1  0  0  0  0
  3  4  1  0  0  0  0
  3 24  1  0  0  0  0
  3 25  1  0  0  0  0
  4  5  1  0  0  0  0
  4 26  1  0  0  0  0
  4 27  1  0  0  0  0
  5  6  1  0  0  0  0
  5 18  1  0  0  0  0
  5 28  1  0  0  0  0
  6  7  1  0  0  0  0
  6 29  1  0  0  0  0
  7  8  2  0  0  0  0
  7  9  1  0  0  0  0
  9 10  1  0  0  0  0
  9 30  1  0  0  0  0
 10 11  1  0  0  0  0
 10 31  1  0  0  0  0
 10 32  1  0  0  0  0
 11 12  1  0  0  0  0
 11 13  1  0  0  0  0
 11 33  1  0  0  0  0
 12 34  1  0  0  0  0
 12 35  1  0  0  0  0
 12 36  1  0  0  0  0
 13 17  1  0  0  0  0
 13 14  2  0  0  0  0
 14 15  1  0  0  0  0
 15 16  2  0  0  0  0
 15 37  1  0  0  0  0
 16 17  1  0  0  0  0
 16 38  1  0  0  0  0
 18 19  1  0  0  0  0
 18 39  1  0  0  0  0
 18 40  1  0  0  0  0
 19 41  1  0  0  0  0
 19 42  1  0  0  0  0
M  END
> <s_m_source_file>
AV-unprocessed.smi

> <i_m_source_file_index>
2330

> <i_lp_mmshare_version>
43012

> <i_f3d_flags>
0

> <s_epik_input>
W0NIM11bQ0BASF0xW0NIMl1bQ0gyXVtDQEhdKFtDSDJdW0NIMl0xKVtOSF1DKD1PKVtOSF1bQ0gyXVtDQEhdKFtDSDNdKWMybltjSF1bY0hdczI=

> <s_epik_cmdline>
J2VwaWtfcHl0aG9uJywgJy1waCcsICc3LjAnLCAnLXRuJywgJzgnLCAnLW1hJywgJzIwMCcsICctbWV0YWxfYmluZGluZycsICctaW1hZScsICc8aW5maWxlLm1hZT4nLCAnLW9tYWUnLCAnPG91dGZpbGUubWFlPic=

> <r_lp_tautomer_probability>
1

> <r_epik_Ionization_Penalty>
0.000331107

> <r_epik_Ionization_Penalty_Charging>
0

> <r_epik_Ionization_Penalty_Neutral>
0.000331107

> <r_epik_State_Penalty>
-0

> <r_epik_Charging_Adjusted_Penalty>
0

> <i_epik_Tot_Q>
0

> <i_epik_Tot_abs_Q>
0

> <r_epik_Metal_State_Penalty>
-0

> <b_epik_Metal_Only>
0

> <s_lp_Force_Field>
OPLS_2005

> <r_lp_Energy>
-1.29202

> <b_lp_Chiralities_Consistent>
1

> <s_lp_Variant>
AV-unprocessed.smi:2330-2

> <Gold.Version>
5.8.1

> <Gold.Id.Protein>
6NUR|6NUR_protein|mol2

> <Gold.PLP.Fitness>
45.5782

> <Gold.PLP.PLP>
-41.9058

> <Gold.PLP.part.hbond>
-2.0000

> <Gold.PLP.part.metal>
0.0000

> <Gold.PLP.part.buried>
-1.7740

> <Gold.PLP.part.nonpolar>
-38.1890

> <Gold.PLP.part.repulsive>
0.2804

> <Gold.PLP.ligand.clash>
0.0000

> <Gold.PLP.ligand.torsion>
0.2366

> <Gold.PLP.Chemscore.Hbond>
1.3440

> <Gold.PLP.Chemscore.CHOScore>
0.0000

> <Gold.PLP.Chemscore.Metal>
0.0000

> <Gold.Chemscore.Hbonds>
donor molecule, donor type, donor heavy atom, donor atom, acceptor molecule, acceptor atom, score
      L1  H     6    29       P1  8028  0.74
      L1  H     9    30       P1  8028  0.64

> <Gold.PLP.Chemscore.Internal.Correction>
0.1137

> <Gold.Rescore>
     Score         DG    S(hbond)    S(metal)    S(lipo)     H(rot)  DE(clash)    DE(int)     intcor
     19.90     -21.01       1.54        0.00     120.60       1.45       0.82       0.29       ----

> <Gold.Chemscore.Fitness>
19.9045

> <Gold.Chemscore.DG>
-21.0114

> <Gold.Chemscore.ZeroCoef>
-5.4800

> <Gold.Chemscore.Hbond>
1.5395

> <Gold.Chemscore.Metal>
0.0000

> <Gold.Chemscore.Lipo>
120.6047

> <Gold.Chemscore.Internal_Hbond>
0.0000

> <Gold.Chemscore.DEClash>
0.8207

> <Gold.Chemscore.DEInternal>
0.2863

> <Gold.Chemscore.Rot>
1.4536

> <Gold.Chemscore.Internal.Correction>
   9.000000E+99

> <Gold.Chemscore.Hbonds>
donor molecule, donor type, donor heavy atom, donor atom, acceptor molecule, acceptor atom, score
      L1  H     6    29       P1  8028  0.74
      L1  H     9    30       P1  8028  0.62

> <Gold.Chemscore.Hbond.Weighted>
-5.1418

> <Gold.Chemscore.Metal.Weighted>
-0.0000

> <Gold.Chemscore.Lipo.Weighted>
-14.1108

> <Gold.Chemscore.Internal_Hbond.Weighted>
0.0000

> <Gold.Chemscore.DEClash.Weighted>
0.8207

> <Gold.Chemscore.DEInternal.Weighted>
0.2863

> <Gold.Chemscore.Rot.Weighted>
3.7212

> <Gold.Chemscore.Internal.Correction.Weighted>
   9.000000E+99

> <Gold.Protein.RotatedTorsions>
[ 6907 6896 6895 6894 ] final  -58.23 input  -60.11 | X-H torsion
[ 7974 7965 7964 7962 ] final   59.69 input  175.53 | X-H torsion
[ 8008 7997 7996 7995 ] final -127.83 input   59.86 | X-H torsion
[ 10167 10162 10161 10158 ] final  -45.69 input  -65.29 | X-H torsion
[ 10718 10713 10712 10709 ] final  -86.77 input   66.30 | X-H torsion
[ 10763 10752 10751 10750 ] final  125.31 input  -60.55 | X-H torsion
[ 11005 11000 10999 10996 ] final   78.19 input  -57.11 | X-H torsion

> <Gold.Protein.ActiveResidues>
 VAL166  LYS551  ARG553  GLY616  TRP617  ASP618  TYR619  PRO620  LYS621  CYS622 
 ASP623  PHE694  ASN695  SER759  ASP760  ASP761  ALA762  ILE779  LEU786  VAL792 
 PHE793  MET794  SER795  GLU796  ALA797  LYS798  CYS799  TRP800  GLU811  SER814 

> <Gold.Protein.RotatedAtoms>
  150.8023  134.7125  159.6611 H   0  0  0  0  0  0  0  0  0  0  0  0  # atno 6907 bound_to 6896
  152.4141  134.6070  160.0025 H   0  0  0  0  0  0  0  0  0  0  0  0  # atno 6908 bound_to 6896
  151.6304  133.3295  159.3143 H   0  0  0  0  0  0  0  0  0  0  0  0  # atno 6909 bound_to 6896
  145.9043  139.3605  143.0573 H   0  0  0  0  0  0  0  0  0  0  0  0  # atno 7974 bound_to 7965
  155.2526  140.0433  157.2988 H   0  0  0  0  0  0  0  0  0  0  0  0  # atno 8008 bound_to 7997
  154.5759  140.2387  155.8092 H   0  0  0  0  0  0  0  0  0  0  0  0  # atno 8009 bound_to 7997
  156.2158  140.2985  155.9843 H   0  0  0  0  0  0  0  0  0  0  0  0  # atno 8010 bound_to 7997
  140.6848  143.2867  151.3675 H   0  0  0  0  0  0  0  0  0  0  0  0  # atno 10167 bound_to 10162
  155.9988  130.4776  150.4765 H   0  0  0  0  0  0  0  0  0  0  0  0  # atno 10718 bound_to 10713
  153.6753  135.3323  155.3164 H   0  0  0  0  0  0  0  0  0  0  0  0  # atno 10763 bound_to 10752
  154.8480  135.4396  154.1663 H   0  0  0  0  0  0  0  0  0  0  0  0  # atno 10764 bound_to 10752
  153.2665  135.6996  153.7601 H   0  0  0  0  0  0  0  0  0  0  0  0  # atno 10765 bound_to 10752
  139.9223  134.7743  156.1617 H   0  0  0  0  0  0  0  0  0  0  0  0  # atno 11005 bound_to 11000
  145.8751  140.9396  143.0630 LP  0  0  0  0  0  0  0  0  0  0  0  0  # atno 17320 bound_to 7965
  144.6738  140.0706  143.7473 LP  0  0  0  0  0  0  0  0  0  0  0  0  # atno 17321 bound_to 7965
  139.6198  144.0931  152.2380 LP  0  0  0  0  0  0  0  0  0  0  0  0  # atno 17342 bound_to 10162
  140.0371  144.6036  150.7441 LP  0  0  0  0  0  0  0  0  0  0  0  0  # atno 17343 bound_to 10162
  157.2775  131.0600  151.2219 LP  0  0  0  0  0  0  0  0  0  0  0  0  # atno 17370 bound_to 10713
  157.3278  130.6969  149.6306 LP  0  0  0  0  0  0  0  0  0  0  0  0  # atno 17371 bound_to 10713
  141.0754  133.6778  156.2225 LP  0  0  0  0  0  0  0  0  0  0  0  0  # atno 17394 bound_to 11000
  140.6438  134.5138  157.5572 LP  0  0  0  0  0  0  0  0  0  0  0  0  # atno 17395 bound_to 11000

$$$$
