AV-unprocessed.smi:766|AV-procd|sdf|3655|dock9
  -GOLD-   22720 1 63D 1   1.00000     0.00000
 Structure written by MMmdl.
 46 48  0  0  0  0  0  0  0  0  1 V2000
  152.5110  144.1310  161.6800 C   0  0  0  0  0  0  0  0  0  0  0  0
  152.3484  143.1908  160.4988 C   0  0  0  0  0  0  0  0  0  0  0  0
  152.7805  141.8510  160.6225 C   0  0  0  0  0  0  0  0  0  0  0  0
  152.6465  140.9445  159.5481 C   0  0  0  0  0  0  0  0  0  0  0  0
  152.9962  139.6086  159.4502 N   0  0  0  0  0  0  0  0  0  0  0  0
  152.6201  139.3241  158.2066 C   0  0  0  0  0  0  0  0  0  0  0  0
  152.0665  140.3187  157.4863 N   0  0  0  0  0  0  0  0  0  0  0  0
  151.5885  140.2503  156.1165 C   0  0  0  0  0  0  0  0  0  0  0  0
  151.8851  138.8926  155.4502 C   0  0  2  0  0  0  0  0  0  0  0  0
  153.2112  138.9000  154.9576 O   0  0  0  0  0  0  0  0  0  0  0  0
  150.9296  138.6137  154.2777 C   0  0  0  0  0  0  0  0  0  0  0  0
  150.6516  137.1873  154.1510 N   0  0  0  0  0  0  0  0  0  0  0  0
  150.0792  136.5984  155.3588 C   0  0  0  0  0  0  0  0  0  0  0  0
  150.8248  135.3200  155.7749 C   0  0  0  0  0  0  0  0  0  0  0  0
  150.2768  134.1314  155.1462 N   0  0  0  0  0  0  0  0  0  0  0  0
  149.3592  134.0499  154.1202 C   0  0  0  0  0  0  0  0  0  0  0  0
  149.1511  132.7247  153.8652 C   0  0  0  0  0  0  0  0  0  0  0  0
  149.9953  132.0643  154.8010 C   0  0  0  0  0  0  0  0  0  0  0  0
  150.6655  132.9086  155.5685 N   0  0  0  0  0  0  0  0  0  0  0  0
  152.0649  141.4193  158.3362 C   0  0  0  0  0  0  0  0  0  0  0  0
  151.6329  142.7504  158.2002 C   0  0  0  0  0  0  0  0  0  0  0  0
  151.7713  143.6420  159.2844 C   0  0  0  0  0  0  0  0  0  0  0  0
  151.2960  145.0759  159.1294 C   0  0  0  0  0  0  0  0  0  0  0  0
  153.0127  143.6393  162.5141 H   0  0  0  0  0  0  0  0  0  0  0  0
  151.5377  144.4752  162.0302 H   0  0  0  0  0  0  0  0  0  0  0  0
  153.1059  145.0004  161.3992 H   0  0  0  0  0  0  0  0  0  0  0  0
  153.2188  141.5063  161.5475 H   0  0  0  0  0  0  0  0  0  0  0  0
  152.7539  138.3340  157.7958 H   0  0  0  0  0  0  0  0  0  0  0  0
  150.5140  140.4366  156.1263 H   0  0  0  0  0  0  0  0  0  0  0  0
  152.0407  141.0629  155.5458 H   0  0  0  0  0  0  0  0  0  0  0  0
  151.7944  138.1046  156.1995 H   0  0  0  0  0  0  0  0  0  0  0  0
  153.2426  138.3767  154.1715 H   0  0  0  0  0  0  0  0  0  0  0  0
  149.9881  139.1368  154.4499 H   0  0  0  0  0  0  0  0  0  0  0  0
  151.3376  139.0158  153.3492 H   0  0  0  0  0  0  0  0  0  0  0  0
  150.0310  137.0299  153.3630 H   0  0  0  0  0  0  0  0  0  0  0  0
  150.0969  137.3202  156.1764 H   0  0  0  0  0  0  0  0  0  0  0  0
  149.0306  136.3552  155.1841 H   0  0  0  0  0  0  0  0  0  0  0  0
  151.8768  135.3978  155.4971 H   0  0  0  0  0  0  0  0  0  0  0  0
  150.7976  135.1933  156.8580 H   0  0  0  0  0  0  0  0  0  0  0  0
  148.9379  134.9316  153.6607 H   0  0  0  0  0  0  0  0  0  0  0  0
  148.4961  132.2928  153.1234 H   0  0  0  0  0  0  0  0  0  0  0  0
  150.1394  131.0036  154.9443 H   0  0  0  0  0  0  0  0  0  0  0  0
  151.1955  143.0803  157.2693 H   0  0  0  0  0  0  0  0  0  0  0  0
  150.8499  145.2432  158.1486 H   0  0  0  0  0  0  0  0  0  0  0  0
  152.1307  145.7683  159.2405 H   0  0  0  0  0  0  0  0  0  0  0  0
  150.5449  145.3139  159.8829 H   0  0  0  0  0  0  0  0  0  0  0  0
  1  2  1  0  0  0  0
  1 24  1  0  0  0  0
  1 25  1  0  0  0  0
  1 26  1  0  0  0  0
  2 22  1  0  0  0  0
  2  3  2  0  0  0  0
  3  4  1  0  0  0  0
  3 27  1  0  0  0  0
  4 20  2  0  0  0  0
  4  5  1  0  0  0  0
  5  6  2  0  0  0  0
  6  7  1  0  0  0  0
  6 28  1  0  0  0  0
  7  8  1  0  0  0  0
  7 20  1  0  0  0  0
  8  9  1  0  0  0  0
  8 29  1  0  0  0  0
  8 30  1  0  0  0  0
  9 10  1  0  0  0  0
  9 11  1  0  0  0  0
  9 31  1  0  0  0  0
 10 32  1  0  0  0  0
 11 12  1  0  0  0  0
 11 33  1  0  0  0  0
 11 34  1  0  0  0  0
 12 13  1  0  0  0  0
 12 35  1  0  0  0  0
 13 14  1  0  0  0  0
 13 36  1  0  0  0  0
 13 37  1  0  0  0  0
 14 15  1  0  0  0  0
 14 38  1  0  0  0  0
 14 39  1  0  0  0  0
 15 19  1  0  0  0  0
 15 16  1  0  0  0  0
 16 17  2  0  0  0  0
 16 40  1  0  0  0  0
 17 18  1  0  0  0  0
 17 41  1  0  0  0  0
 18 19  2  0  0  0  0
 18 42  1  0  0  0  0
 20 21  1  0  0  0  0
 21 22  2  0  0  0  0
 21 43  1  0  0  0  0
 22 23  1  0  0  0  0
 23 44  1  0  0  0  0
 23 45  1  0  0  0  0
 23 46  1  0  0  0  0
M  END
> <s_m_source_file>
AV-unprocessed.smi

> <i_m_source_file_index>
766

> <i_lp_mmshare_version>
43012

> <i_f3d_flags>
0

> <s_epik_input>
W0NIM11jKFtjSF0xKWMoW0NIM10pW2NIXWMoYzEyKW4oW2NIXW4yKVtDSDJdW0NASF0oW09IXSlbQ0gyXVtOSF1bQ0gyXVtDSDJdbjNbY0hdW2NIXVtjSF1uMw==

> <s_epik_cmdline>
J2VwaWtfcHl0aG9uJywgJy1waCcsICc3LjAnLCAnLXRuJywgJzgnLCAnLW1hJywgJzIwMCcsICctbWV0YWxfYmluZGluZycsICctaW1hZScsICc8aW5maWxlLm1hZT4nLCAnLW9tYWUnLCAnPG91dGZpbGUubWFlPic=

> <r_lp_tautomer_probability>
1

> <r_epik_Ionization_Penalty>
1.68727

> <r_epik_Ionization_Penalty_Charging>
0

> <r_epik_Ionization_Penalty_Neutral>
1.68727

> <r_epik_State_Penalty>
1.78741

> <r_epik_Charging_Adjusted_Penalty>
1.78741

> <i_epik_Tot_Q>
0

> <i_epik_Tot_abs_Q>
0

> <r_epik_Metal_State_Penalty>
1.73664

> <b_epik_Metal_Only>
0

> <s_lp_Force_Field>
OPLS_2005

> <r_lp_Energy>
17.6974

> <b_lp_Chiralities_Consistent>
1

> <s_lp_Variant>
AV-unprocessed.smi:766-5

> <Gold.Version>
5.8.1

> <Gold.Id.Protein>
6NUR|6NUR_protein|mol2

> <Gold.PLP.Fitness>
58.8157

> <Gold.PLP.PLP>
-52.4798

> <Gold.PLP.part.hbond>
-3.0000

> <Gold.PLP.part.metal>
0.0000

> <Gold.PLP.part.buried>
-6.9086

> <Gold.PLP.part.nonpolar>
-42.1857

> <Gold.PLP.part.repulsive>
0.0000

> <Gold.PLP.ligand.clash>
0.0000

> <Gold.PLP.ligand.torsion>
1.3243

> <Gold.PLP.Chemscore.Hbond>
1.9500

> <Gold.PLP.Chemscore.CHOScore>
1.0000

> <Gold.PLP.Chemscore.Metal>
0.0000

> <Gold.Chemscore.Hbonds>
donor molecule, donor type, donor heavy atom, donor atom, acceptor molecule, acceptor atom, score
      L1  H    12    35       P1  7948  0.95
      P1  H  7997  8010       L1    10  1.00
      L1  C    16    40       P1  7948  1.00

> <Gold.PLP.Chemscore.Internal.Correction>
0.1346

> <Gold.Rescore>
     Score         DG    S(hbond)    S(metal)    S(lipo)     H(rot)  DE(clash)    DE(int)     intcor
     16.48     -17.75       1.41        0.00     126.67       2.83       0.01       1.26       ----

> <Gold.Chemscore.Fitness>
16.4832

> <Gold.Chemscore.DG>
-17.7531

> <Gold.Chemscore.ZeroCoef>
-5.4800

> <Gold.Chemscore.Hbond>
1.4103

> <Gold.Chemscore.Metal>
0.0000

> <Gold.Chemscore.Lipo>
126.6655

> <Gold.Chemscore.Internal_Hbond>
0.0000

> <Gold.Chemscore.DEClash>
0.0089

> <Gold.Chemscore.DEInternal>
1.2610

> <Gold.Chemscore.Rot>
2.8348

> <Gold.Chemscore.Internal.Correction>
   9.000000E+99

> <Gold.Chemscore.Hbonds>
donor molecule, donor type, donor heavy atom, donor atom, acceptor molecule, acceptor atom, score
      L1  H    12    35       P1  7948  0.21
      P1  H  7997  8010       L1    10  0.80

> <Gold.Chemscore.Hbond.Weighted>
-4.7104

> <Gold.Chemscore.Metal.Weighted>
-0.0000

> <Gold.Chemscore.Lipo.Weighted>
-14.8199

> <Gold.Chemscore.Internal_Hbond.Weighted>
0.0000

> <Gold.Chemscore.DEClash.Weighted>
0.0089

> <Gold.Chemscore.DEInternal.Weighted>
1.2610

> <Gold.Chemscore.Rot.Weighted>
7.2572

> <Gold.Chemscore.Internal.Correction.Weighted>
   9.000000E+99

> <Gold.Protein.RotatedTorsions>
[ 6907 6896 6895 6894 ] final   63.05 input  -60.11 | X-H torsion
[ 7974 7965 7964 7962 ] final   10.51 input  175.53 | X-H torsion
[ 8008 7997 7996 7995 ] final   98.87 input   59.86 | X-H torsion
[ 10167 10162 10161 10158 ] final  -99.79 input  -65.29 | X-H torsion
[ 10718 10713 10712 10709 ] final  129.68 input   66.30 | X-H torsion
[ 10763 10752 10751 10750 ] final  178.25 input  -60.55 | X-H torsion
[ 11005 11000 10999 10996 ] final  174.11 input  -57.11 | X-H torsion

> <Gold.Protein.ActiveResidues>
 VAL166  LYS551  ARG553  GLY616  TRP617  ASP618  TYR619  PRO620  LYS621  CYS622 
 ASP623  PHE694  ASN695  SER759  ASP760  ASP761  ALA762  ILE779  LEU786  VAL792 
 PHE793  MET794  SER795  GLU796  ALA797  LYS798  CYS799  TRP800  GLU811  SER814 

> <Gold.Protein.RotatedAtoms>
  152.4222  134.5935  159.9980 H   0  0  0  0  0  0  0  0  0  0  0  0  # atno 6907 bound_to 6896
  151.6081  133.3344  159.3069 H   0  0  0  0  0  0  0  0  0  0  0  0  # atno 6908 bound_to 6896
  150.8110  134.7302  159.6753 H   0  0  0  0  0  0  0  0  0  0  0  0  # atno 6909 bound_to 6896
  146.2387  139.9623  142.8457 H   0  0  0  0  0  0  0  0  0  0  0  0  # atno 7974 bound_to 7965
  156.1048  140.3237  155.7990 H   0  0  0  0  0  0  0  0  0  0  0  0  # atno 8008 bound_to 7997
  155.4775  140.0551  157.2989 H   0  0  0  0  0  0  0  0  0  0  0  0  # atno 8009 bound_to 7997
  154.4720  140.2015  155.9986 H   0  0  0  0  0  0  0  0  0  0  0  0  # atno 8010 bound_to 7997
  140.2587  143.3422  152.0646 H   0  0  0  0  0  0  0  0  0  0  0  0  # atno 10167 bound_to 10162
  157.5132  131.1097  150.9263 H   0  0  0  0  0  0  0  0  0  0  0  0  # atno 10718 bound_to 10713
  154.5051  135.2785  155.1388 H   0  0  0  0  0  0  0  0  0  0  0  0  # atno 10763 bound_to 10752
  154.3006  135.6249  153.5427 H   0  0  0  0  0  0  0  0  0  0  0  0  # atno 10764 bound_to 10752
  152.9909  135.5696  154.5504 H   0  0  0  0  0  0  0  0  0  0  0  0  # atno 10765 bound_to 10752
  140.3477  134.7221  157.4247 H   0  0  0  0  0  0  0  0  0  0  0  0  # atno 11005 bound_to 11000
  145.1759  140.9744  143.4294 LP  0  0  0  0  0  0  0  0  0  0  0  0  # atno 17320 bound_to 7965
  144.9986  139.3620  143.6179 LP  0  0  0  0  0  0  0  0  0  0  0  0  # atno 17321 bound_to 7965
  139.5023  144.6732  151.6191 LP  0  0  0  0  0  0  0  0  0  0  0  0  # atno 17342 bound_to 10162
  140.5983  143.9656  150.6369 LP  0  0  0  0  0  0  0  0  0  0  0  0  # atno 17343 bound_to 10162
  156.9896  130.5558  149.5302 LP  0  0  0  0  0  0  0  0  0  0  0  0  # atno 17370 bound_to 10713
  156.0303  130.5394  150.8516 LP  0  0  0  0  0  0  0  0  0  0  0  0  # atno 17371 bound_to 10713
  140.0728  134.5838  155.8623 LP  0  0  0  0  0  0  0  0  0  0  0  0  # atno 17394 bound_to 11000
  141.2021  133.6622  156.5986 LP  0  0  0  0  0  0  0  0  0  0  0  0  # atno 17395 bound_to 11000

$$$$
