AV-unprocessed.smi:290|AV-procd|sdf|2222|dock5
  -GOLD-   2262022 73D 1   1.00000     0.00000
 Structure written by MMmdl.
 59 62  0  0  0  0  0  0  0  0  2 V2000
  151.4574  140.3355  157.6602 C   0  0  0  0  0  0  0  0  0  0  0  0
  151.6340  140.1326  156.1471 C   0  0  1  0  0  0  0  0  0  0  0  0
  152.9287  139.5450  156.0015 O   0  0  0  0  0  0  0  0  0  0  0  0
  152.8846  138.4630  155.0863 C   0  0  0  0  0  0  0  0  0  0  0  0
  151.4828  137.9023  155.2722 C   0  0  0  0  0  0  0  0  0  0  0  0
  150.6421  139.1590  155.4482 C   0  0  2  0  0  0  0  0  0  0  0  0
  150.3756  139.6659  154.1513 O   0  0  0  0  0  0  0  0  0  0  0  0
  149.2816  138.8614  156.1386 C   0  0  0  0  0  0  0  0  0  0  0  0
  148.5044  137.7629  155.5724 N   0  0  0  0  0  0  0  0  0  0  0  0
  147.5057  137.8304  154.6224 C   0  0  0  0  0  0  0  0  0  0  0  0
  146.9901  136.6851  154.2674 N   0  0  0  0  0  0  0  0  0  0  0  0
  147.7057  135.7535  155.0048 C   0  0  0  0  0  0  0  0  0  0  0  0
  147.6767  134.3382  155.0956 C   0  0  0  0  0  0  0  0  0  0  0  0
  146.8125  133.5991  154.3638 N   0  0  0  0  0  0  0  0  0  0  0  0
  147.4216  132.8958  153.2515 C   0  0  0  0  0  0  0  0  0  0  0  0
  146.2638  132.4893  152.3398 C   0  0  0  0  0  0  0  0  0  0  0  0
  145.0450  133.3183  152.7987 C   0  0  2  0  0  0  0  0  0  0  0  0
  144.3355  133.9336  151.6325 N   0  3  1  0  0  0  0  0  0  0  0  0
  145.2845  134.6751  150.7613 C   0  0  0  0  0  0  0  0  0  0  0  0
  143.4591  133.0084  150.8582 C   0  0  0  0  0  0  0  0  0  0  0  0
  144.0754  132.5210  149.5333 C   0  0  0  0  0  0  0  0  0  0  0  0
  143.0620  132.0901  148.6489 O   0  0  0  0  0  0  0  0  0  0  0  0
  145.6444  134.2957  153.8391 C   0  0  1  0  0  0  0  0  0  0  0  0
  144.6857  134.6614  154.9942 C   0  0  0  0  0  0  0  0  0  0  0  0
  148.5598  133.7342  155.9340 N   0  0  0  0  0  0  0  0  0  0  0  0
  149.4186  134.4748  156.6413 C   0  0  0  0  0  0  0  0  0  0  0  0
  149.5591  135.8024  156.6576 N   0  0  0  0  0  0  0  0  0  0  0  0
  148.6710  136.4090  155.8174 C   0  0  0  0  0  0  0  0  0  0  0  0
  144.3517  132.6541  153.3187 H   0  0  0  0  0  0  0  0  0  0  0  0
  145.9811  135.2015  153.3324 H   0  0  0  0  0  0  0  0  0  0  0  0
  150.5765  140.9317  157.8873 H   0  0  0  0  0  0  0  0  0  0  0  0
  152.3103  140.8719  158.0764 H   0  0  0  0  0  0  0  0  0  0  0  0
  151.3783  139.3845  158.1873 H   0  0  0  0  0  0  0  0  0  0  0  0
  151.6313  141.1093  155.6604 H   0  0  0  0  0  0  0  0  0  0  0  0
  153.0264  138.8384  154.0718 H   0  0  0  0  0  0  0  0  0  0  0  0
  153.6640  137.7298  155.2939 H   0  0  0  0  0  0  0  0  0  0  0  0
  151.1614  137.2693  154.4439 H   0  0  0  0  0  0  0  0  0  0  0  0
  151.4566  137.2994  156.1811 H   0  0  0  0  0  0  0  0  0  0  0  0
  149.4546  139.5571  153.9702 H   0  0  0  0  0  0  0  0  0  0  0  0
  149.4430  138.6409  157.1945 H   0  0  0  0  0  0  0  0  0  0  0  0
  148.6637  139.7595  156.1201 H   0  0  0  0  0  0  0  0  0  0  0  0
  147.1628  138.7568  154.1872 H   0  0  0  0  0  0  0  0  0  0  0  0
  148.1144  133.5445  152.7131 H   0  0  0  0  0  0  0  0  0  0  0  0
  147.9789  132.0262  153.6016 H   0  0  0  0  0  0  0  0  0  0  0  0
  146.5340  132.6747  151.2993 H   0  0  0  0  0  0  0  0  0  0  0  0
  146.0517  131.4237  152.4362 H   0  0  0  0  0  0  0  0  0  0  0  0
  145.8894  133.9864  150.1701 H   0  0  0  0  0  0  0  0  0  0  0  0
  145.9644  135.2996  151.3400 H   0  0  0  0  0  0  0  0  0  0  0  0
  144.7624  135.3474  150.0820 H   0  0  0  0  0  0  0  0  0  0  0  0
  143.2047  132.1509  151.4826 H   0  0  0  0  0  0  0  0  0  0  0  0
  142.5253  133.5033  150.5979 H   0  0  0  0  0  0  0  0  0  0  0  0
  144.6918  133.2812  149.0551 H   0  0  0  0  0  0  0  0  0  0  0  0
  144.7356  131.6753  149.7274 H   0  0  0  0  0  0  0  0  0  0  0  0
  142.6056  132.8487  148.3172 H   0  0  0  0  0  0  0  0  0  0  0  0
  143.7661  135.1306  154.6521 H   0  0  0  0  0  0  0  0  0  0  0  0
  145.1550  135.3576  155.6898 H   0  0  0  0  0  0  0  0  0  0  0  0
  144.4032  133.7745  155.5624 H   0  0  0  0  0  0  0  0  0  0  0  0
  150.0897  133.9265  157.2860 H   0  0  0  0  0  0  0  0  0  0  0  0
  143.7119  134.6233  152.0280 H   0  0  0  0  0  0  0  0  0  0  0  0
  1  2  1  0  0  0  0
  1 31  1  0  0  0  0
  1 32  1  0  0  0  0
  1 33  1  0  0  0  0
  2  6  1  0  0  0  0
  2  3  1  0  0  0  0
  2 34  1  0  0  0  0
  3  4  1  0  0  0  0
  4  5  1  0  0  0  0
  4 35  1  0  0  0  0
  4 36  1  0  0  0  0
  5  6  1  0  0  0  0
  5 37  1  0  0  0  0
  5 38  1  0  0  0  0
  6  7  1  0  0  0  0
  6  8  1  0  0  0  0
  7 39  1  0  0  0  0
  8  9  1  0  0  0  0
  8 40  1  0  0  0  0
  8 41  1  0  0  0  0
  9 28  1  0  0  0  0
  9 10  1  0  0  0  0
 10 11  2  0  0  0  0
 10 42  1  0  0  0  0
 11 12  1  0  0  0  0
 12 28  2  0  0  0  0
 12 13  1  0  0  0  0
 13 14  1  0  0  0  0
 13 25  2  0  0  0  0
 14 23  1  0  0  0  0
 14 15  1  0  0  0  0
 15 16  1  0  0  0  0
 15 43  1  0  0  0  0
 15 44  1  0  0  0  0
 16 17  1  0  0  0  0
 16 45  1  0  0  0  0
 16 46  1  0  0  0  0
 17 29  1  0  0  0  0
 17 18  1  0  0  0  0
 17 23  1  0  0  0  0
 18 19  1  0  0  0  0
 18 20  1  0  0  0  0
 18 59  1  0  0  0  0
 19 47  1  0  0  0  0
 19 48  1  0  0  0  0
 19 49  1  0  0  0  0
 20 21  1  0  0  0  0
 20 50  1  0  0  0  0
 20 51  1  0  0  0  0
 21 22  1  0  0  0  0
 21 52  1  0  0  0  0
 21 53  1  0  0  0  0
 22 54  1  0  0  0  0
 23 30  1  0  0  0  0
 23 24  1  0  0  0  0
 24 55  1  0  0  0  0
 24 56  1  0  0  0  0
 24 57  1  0  0  0  0
 25 26  1  0  0  0  0
 26 27  2  0  0  0  0
 26 58  1  0  0  0  0
 27 28  1  0  0  0  0
M  CHG  1  18   1
M  END
> <s_m_source_file>
AV-unprocessed.smi

> <i_m_source_file_index>
290

> <i_lp_mmshare_version>
43012

> <i_f3d_flags>
0

> <s_epik_input>
W0NIMl0xW0NIMl1PW0NAQEhdKFtDSDNdKVtDQEBdMShbT0hdKVtDSDJdbihbY0hdbjIpYyhjMjMpbltjSF1uYzNONFtDSDJdW0NIMl1bQ0BIXShbQ0BIXTRbQ0gzXSlOKFtDSDNdKVtDSDJdW0NIMl1bT0hd

> <s_epik_cmdline>
J2VwaWtfcHl0aG9uJywgJy1waCcsICc3LjAnLCAnLXRuJywgJzgnLCAnLW1hJywgJzIwMCcsICctbWV0YWxfYmluZGluZycsICctaW1hZScsICc8aW5maWxlLm1hZT4nLCAnLW9tYWUnLCAnPG91dGZpbGUubWFlPic=

> <r_lp_tautomer_probability>
1

> <r_epik_Ionization_Penalty>
0.0036983

> <r_epik_Ionization_Penalty_Charging>
0.0032725

> <r_epik_Ionization_Penalty_Neutral>
0.000425798

> <r_epik_State_Penalty>
-0

> <r_epik_Charging_Adjusted_Penalty>
0.0032725

> <i_epik_Tot_Q>
1

> <i_epik_Tot_abs_Q>
1

> <r_epik_Metal_State_Penalty>
-0

> <b_epik_Metal_Only>
0

> <s_lp_Force_Field>
OPLS_2005

> <r_lp_Energy>
67.3345

> <b_lp_Chiralities_Consistent>
1

> <s_lp_Variant>
AV-unprocessed.smi:290-8

> <Gold.Version>
5.8.1

> <Gold.Id.Protein>
6NUR|6NUR_protein|mol2

> <Gold.PLP.Fitness>
50.2056

> <Gold.PLP.PLP>
-41.7239

> <Gold.PLP.part.hbond>
-5.7455

> <Gold.PLP.part.metal>
0.0000

> <Gold.PLP.part.buried>
-7.1794

> <Gold.PLP.part.nonpolar>
-30.0566

> <Gold.PLP.part.repulsive>
0.8597

> <Gold.PLP.ligand.clash>
0.0000

> <Gold.PLP.ligand.torsion>
1.6477

> <Gold.PLP.Chemscore.Hbond>
3.8775

> <Gold.PLP.Chemscore.CHOScore>
0.0000

> <Gold.PLP.Chemscore.Metal>
0.0000

> <Gold.Chemscore.Hbonds>
donor molecule, donor type, donor heavy atom, donor atom, acceptor molecule, acceptor atom, score
      P1  H  7989  7998       L1     7  1.00
      P1  H  7997  8009       L1     3  1.00
      P1  H 10785 10796       L1    22  0.93

> <Gold.PLP.Chemscore.Internal.Correction>
0.1446

> <Gold.Rescore>
     Score         DG    S(hbond)    S(metal)    S(lipo)     H(rot)  DE(clash)    DE(int)     intcor
     13.49     -16.70       3.41        0.00      78.77       3.67       0.00       3.22       ----

> <Gold.Chemscore.Fitness>
13.4867

> <Gold.Chemscore.DG>
-16.7048

> <Gold.Chemscore.ZeroCoef>
-5.4800

> <Gold.Chemscore.Hbond>
3.4110

> <Gold.Chemscore.Metal>
0.0000

> <Gold.Chemscore.Lipo>
78.7739

> <Gold.Chemscore.Internal_Hbond>
0.0000

> <Gold.Chemscore.DEClash>
0.0000

> <Gold.Chemscore.DEInternal>
3.2181

> <Gold.Chemscore.Rot>
3.6658

> <Gold.Chemscore.Internal.Correction>
   9.000000E+99

> <Gold.Chemscore.Hbonds>
donor molecule, donor type, donor heavy atom, donor atom, acceptor molecule, acceptor atom, score
      P1  H  7989  7998       L1     7  0.92
      P1  H  7997  8009       L1     3  0.88
      P1  H 10785 10796       L1    22  0.40

> <Gold.Chemscore.Hbond.Weighted>
-11.3926

> <Gold.Chemscore.Metal.Weighted>
-0.0000

> <Gold.Chemscore.Lipo.Weighted>
-9.2166

> <Gold.Chemscore.Internal_Hbond.Weighted>
0.0000

> <Gold.Chemscore.DEClash.Weighted>
0.0000

> <Gold.Chemscore.DEInternal.Weighted>
3.2181

> <Gold.Chemscore.Rot.Weighted>
9.3844

> <Gold.Chemscore.Internal.Correction.Weighted>
   9.000000E+99

> <Gold.Protein.RotatedTorsions>
[ 6907 6896 6895 6894 ] final  -14.50 input  -60.11 | X-H torsion
[ 7974 7965 7964 7962 ] final  145.90 input  175.53 | X-H torsion
[ 8008 7997 7996 7995 ] final -159.42 input   59.86 | X-H torsion
[ 10167 10162 10161 10158 ] final   89.91 input  -65.29 | X-H torsion
[ 10718 10713 10712 10709 ] final  -81.53 input   66.30 | X-H torsion
[ 10763 10752 10751 10750 ] final  146.97 input  -60.55 | X-H torsion
[ 11005 11000 10999 10996 ] final   34.21 input  -57.11 | X-H torsion

> <Gold.Protein.ActiveResidues>
 VAL166  LYS551  ARG553  GLY616  TRP617  ASP618  TYR619  PRO620  LYS621  CYS622 
 ASP623  PHE694  ASN695  SER759  ASP760  ASP761  ALA762  ILE779  LEU786  VAL792 
 PHE793  MET794  SER795  GLU796  ALA797  LYS798  CYS799  TRP800  GLU811  SER814 

> <Gold.Protein.RotatedAtoms>
  151.3384  135.0858  159.9362 H   0  0  0  0  0  0  0  0  0  0  0  0  # atno 6907 bound_to 6896
  152.5217  133.9472  159.7665 H   0  0  0  0  0  0  0  0  0  0  0  0  # atno 6908 bound_to 6896
  150.9824  133.6178  159.2750 H   0  0  0  0  0  0  0  0  0  0  0  0  # atno 6909 bound_to 6896
  144.8714  139.5840  143.5885 H   0  0  0  0  0  0  0  0  0  0  0  0  # atno 7974 bound_to 7965
  155.7624  140.0841  157.2149 H   0  0  0  0  0  0  0  0  0  0  0  0  # atno 8008 bound_to 7997
  154.4002  140.1540  156.2904 H   0  0  0  0  0  0  0  0  0  0  0  0  # atno 8009 bound_to 7997
  155.8827  140.3419  155.5902 H   0  0  0  0  0  0  0  0  0  0  0  0  # atno 8010 bound_to 7997
  139.8526  144.6586  150.9152 H   0  0  0  0  0  0  0  0  0  0  0  0  # atno 10167 bound_to 10162
  156.0049  130.4606  150.3966 H   0  0  0  0  0  0  0  0  0  0  0  0  # atno 10718 bound_to 10713
  154.0307  135.2898  155.3369 H   0  0  0  0  0  0  0  0  0  0  0  0  # atno 10763 bound_to 10752
  154.6990  135.5196  153.8502 H   0  0  0  0  0  0  0  0  0  0  0  0  # atno 10764 bound_to 10752
  153.0641  135.6624  154.0520 H   0  0  0  0  0  0  0  0  0  0  0  0  # atno 10765 bound_to 10752
  140.2552  134.3256  155.7876 H   0  0  0  0  0  0  0  0  0  0  0  0  # atno 11005 bound_to 11000
  146.2933  139.7202  142.9145 LP  0  0  0  0  0  0  0  0  0  0  0  0  # atno 17320 bound_to 7965
  145.4123  141.0398  143.3010 LP  0  0  0  0  0  0  0  0  0  0  0  0  # atno 17321 bound_to 7965
  140.7785  143.3814  151.1470 LP  0  0  0  0  0  0  0  0  0  0  0  0  # atno 17342 bound_to 10162
  139.7451  143.8865  152.3061 LP  0  0  0  0  0  0  0  0  0  0  0  0  # atno 17343 bound_to 10162
  157.2037  131.0444  151.2636 LP  0  0  0  0  0  0  0  0  0  0  0  0  # atno 17370 bound_to 10713
  157.3952  130.7303  149.6726 LP  0  0  0  0  0  0  0  0  0  0  0  0  # atno 17371 bound_to 10713
  141.2197  133.7377  156.9100 LP  0  0  0  0  0  0  0  0  0  0  0  0  # atno 17394 bound_to 11000
  140.1519  134.9224  157.2603 LP  0  0  0  0  0  0  0  0  0  0  0  0  # atno 17395 bound_to 11000

$$$$
