AV-unprocessed.smi:2032|AV-procd|sdf|8242|dock10
  -GOLD-   2272010513D 1   1.00000     0.00000
 Structure written by MMmdl.
 43 44  0  0  0  0  0  0  0  0  2 V2000
  145.9738  129.5917  151.0995 C   0  0  0  0  0  0  0  0  0  0  0  0
  145.5829  130.5667  152.2246 C   0  0  1  0  0  0  0  0  0  0  0  0
  146.7248  130.8428  153.2241 C   0  0  0  0  0  0  0  0  0  0  0  0
  147.7614  131.7391  152.6416 N   0  3  2  0  0  0  0  0  0  0  0  0
  148.9507  132.0267  153.5100 C   0  0  2  0  0  0  0  0  0  0  0  0
  149.4814  130.7086  154.1186 C   0  0  0  0  0  0  0  0  0  0  0  0
  148.6751  133.0787  154.6205 C   0  0  0  0  0  0  0  0  0  0  0  0
  149.0916  134.4291  154.2477 N   0  0  0  0  0  0  0  0  0  0  0  0
  149.8982  135.2196  154.9717 C   0  0  0  0  0  0  0  0  0  0  0  0
  150.3981  134.8775  156.0438 O   0  0  0  0  0  0  0  0  0  0  0  0
  150.0849  136.4075  154.3706 N   0  0  0  0  0  0  0  0  0  0  0  0
  150.8953  137.4902  154.8022 C   0  0  0  0  0  0  0  0  0  0  0  0
  151.9940  137.3572  155.5545 N   0  0  0  0  0  0  0  0  0  0  0  0
  152.5969  138.5882  155.8246 C   0  0  0  0  0  0  0  0  0  0  0  0
  151.9394  139.6556  155.2654 C   0  0  0  0  0  0  0  0  0  0  0  0
  150.5283  139.1544  154.3725 S   0  0  0  0  0  0  0  0  0  0  0  0
  147.1111  132.9773  152.1377 C   0  0  0  0  0  0  0  0  0  0  0  0
  146.0157  132.6440  151.1112 C   0  0  2  0  0  0  0  0  0  0  0  0
  145.2865  133.9000  150.6214 C   0  0  0  0  0  0  0  0  0  0  0  0
  145.0529  131.7893  151.7175 O   0  0  0  0  0  0  0  0  0  0  0  0
  146.2310  128.6141  151.5077 H   0  0  0  0  0  0  0  0  0  0  0  0
  146.8346  129.9397  150.5291 H   0  0  0  0  0  0  0  0  0  0  0  0
  145.1461  129.4487  150.4044 H   0  0  0  0  0  0  0  0  0  0  0  0
  144.7693  130.0949  152.7765 H   0  0  0  0  0  0  0  0  0  0  0  0
  146.3218  131.3050  154.1267 H   0  0  0  0  0  0  0  0  0  0  0  0
  147.1478  129.8816  153.5148 H   0  0  0  0  0  0  0  0  0  0  0  0
  149.7302  132.4442  152.8702 H   0  0  0  0  0  0  0  0  0  0  0  0
  150.4121  130.8619  154.6638 H   0  0  0  0  0  0  0  0  0  0  0  0
  149.6998  129.9528  153.3666 H   0  0  0  0  0  0  0  0  0  0  0  0
  148.7590  130.2799  154.8137 H   0  0  0  0  0  0  0  0  0  0  0  0
  147.6058  133.1526  154.8172 H   0  0  0  0  0  0  0  0  0  0  0  0
  149.1435  132.7750  155.5585 H   0  0  0  0  0  0  0  0  0  0  0  0
  148.7286  134.7925  153.3783 H   0  0  0  0  0  0  0  0  0  0  0  0
  149.6008  136.5514  153.4968 H   0  0  0  0  0  0  0  0  0  0  0  0
  153.4949  138.6128  156.4240 H   0  0  0  0  0  0  0  0  0  0  0  0
  152.1994  140.7021  155.3239 H   0  0  0  0  0  0  0  0  0  0  0  0
  146.6826  133.5287  152.9765 H   0  0  0  0  0  0  0  0  0  0  0  0
  147.8368  133.6393  151.6686 H   0  0  0  0  0  0  0  0  0  0  0  0
  146.4593  132.1519  150.2452 H   0  0  0  0  0  0  0  0  0  0  0  0
  145.9769  134.5932  150.1398 H   0  0  0  0  0  0  0  0  0  0  0  0
  144.8058  134.4254  151.4469 H   0  0  0  0  0  0  0  0  0  0  0  0
  144.5144  133.6437  149.8955 H   0  0  0  0  0  0  0  0  0  0  0  0
  148.1214  131.2478  151.8355 H   0  0  0  0  0  0  0  0  0  0  0  0
  1  2  1  0  0  0  0
  1 21  1  0  0  0  0
  1 22  1  0  0  0  0
  1 23  1  0  0  0  0
  2 20  1  0  0  0  0
  2  3  1  0  0  0  0
  2 24  1  0  0  0  0
  3  4  1  0  0  0  0
  3 25  1  0  0  0  0
  3 26  1  0  0  0  0
  4  5  1  0  0  0  0
  4 17  1  0  0  0  0
  4 43  1  0  0  0  0
  5  6  1  0  0  0  0
  5  7  1  0  0  0  0
  5 27  1  0  0  0  0
  6 28  1  0  0  0  0
  6 29  1  0  0  0  0
  6 30  1  0  0  0  0
  7  8  1  0  0  0  0
  7 31  1  0  0  0  0
  7 32  1  0  0  0  0
  8  9  1  0  0  0  0
  8 33  1  0  0  0  0
  9 10  2  0  0  0  0
  9 11  1  0  0  0  0
 11 12  1  0  0  0  0
 11 34  1  0  0  0  0
 12 16  1  0  0  0  0
 12 13  2  0  0  0  0
 13 14  1  0  0  0  0
 14 15  2  0  0  0  0
 14 35  1  0  0  0  0
 15 16  1  0  0  0  0
 15 36  1  0  0  0  0
 17 18  1  0  0  0  0
 17 37  1  0  0  0  0
 17 38  1  0  0  0  0
 18 19  1  0  0  0  0
 18 20  1  0  0  0  0
 18 39  1  0  0  0  0
 19 40  1  0  0  0  0
 19 41  1  0  0  0  0
 19 42  1  0  0  0  0
M  CHG  1   4   1
M  END
> <s_m_source_file>
AV-unprocessed.smi

> <i_m_source_file_index>
2032

> <i_lp_mmshare_version>
43012

> <i_f3d_flags>
0

> <s_epik_input>
W0NIM11bQ0BASF0xW0NIMl1OKFtDSDJdW0NASF0oTzEpW0NIM10pW0NASF0oW0NIM10pW0NIMl1bTkhdQyg9TylbTkhdYzJuW2NIXVtjSF1zMg==

> <s_epik_cmdline>
J2VwaWtfcHl0aG9uJywgJy1waCcsICc3LjAnLCAnLXRuJywgJzgnLCAnLW1hJywgJzIwMCcsICctbWV0YWxfYmluZGluZycsICctaW1hZScsICc8aW5maWxlLm1hZT4nLCAnLW9tYWUnLCAnPG91dGZpbGUubWFlPic=

> <r_lp_tautomer_probability>
0.999

> <r_epik_Ionization_Penalty>
0.695838

> <r_epik_Ionization_Penalty_Charging>
0.695697

> <r_epik_Ionization_Penalty_Neutral>
0.000141198

> <r_epik_State_Penalty>
0.717972

> <r_epik_Charging_Adjusted_Penalty>
1.41367

> <i_epik_Tot_Q>
1

> <i_epik_Tot_abs_Q>
1

> <r_epik_Metal_State_Penalty>
0.756405

> <b_epik_Metal_Only>
0

> <s_lp_Force_Field>
OPLS_2005

> <r_lp_Energy>
21.4223

> <b_lp_Chiralities_Consistent>
1

> <s_lp_Variant>
AV-unprocessed.smi:2032-12

> <Gold.Version>
5.8.1

> <Gold.Id.Protein>
6NUR|6NUR_protein|mol2

> <Gold.PLP.Fitness>
46.7325

> <Gold.PLP.PLP>
-37.2929

> <Gold.PLP.part.hbond>
-4.9030

> <Gold.PLP.part.metal>
0.0000

> <Gold.PLP.part.buried>
-3.4601

> <Gold.PLP.part.nonpolar>
-29.1486

> <Gold.PLP.part.repulsive>
0.2712

> <Gold.PLP.ligand.clash>
0.0000

> <Gold.PLP.ligand.torsion>
0.8835

> <Gold.PLP.Chemscore.Hbond>
3.7204

> <Gold.PLP.Chemscore.CHOScore>
0.0000

> <Gold.PLP.Chemscore.Metal>
0.0000

> <Gold.Chemscore.Hbonds>
donor molecule, donor type, donor heavy atom, donor atom, acceptor molecule, acceptor atom, score
      L1  H     4    43       P1 10747  1.00
      L1  H     8    33       P1  7948  0.83
      L1  H    11    34       P1  7948  1.00
      P1  H 10752 10765       L1    13  0.55

> <Gold.PLP.Chemscore.Internal.Correction>
0.0452

> <Gold.Rescore>
     Score         DG    S(hbond)    S(metal)    S(lipo)     H(rot)  DE(clash)    DE(int)     intcor
     18.34     -20.57       2.75        0.00      85.69       1.61       1.36       0.87       ----

> <Gold.Chemscore.Fitness>
18.3401

> <Gold.Chemscore.DG>
-20.5664

> <Gold.Chemscore.ZeroCoef>
-5.4800

> <Gold.Chemscore.Hbond>
2.7499

> <Gold.Chemscore.Metal>
0.0000

> <Gold.Chemscore.Lipo>
85.6929

> <Gold.Chemscore.Internal_Hbond>
0.0000

> <Gold.Chemscore.DEClash>
1.3602

> <Gold.Chemscore.DEInternal>
0.8661

> <Gold.Chemscore.Rot>
1.6110

> <Gold.Chemscore.Internal.Correction>
   9.000000E+99

> <Gold.Chemscore.Hbonds>
donor molecule, donor type, donor heavy atom, donor atom, acceptor molecule, acceptor atom, score
      L1  H     4    43       P1 10747  1.00
      L1  H     8    33       P1  7948  0.35
      L1  H    11    34       P1  7948  0.60
      P1  H 10752 10765       L1    13  0.27

> <Gold.Chemscore.Hbond.Weighted>
-9.1845

> <Gold.Chemscore.Metal.Weighted>
-0.0000

> <Gold.Chemscore.Lipo.Weighted>
-10.0261

> <Gold.Chemscore.Internal_Hbond.Weighted>
0.0000

> <Gold.Chemscore.DEClash.Weighted>
1.3602

> <Gold.Chemscore.DEInternal.Weighted>
0.8661

> <Gold.Chemscore.Rot.Weighted>
4.1242

> <Gold.Chemscore.Internal.Correction.Weighted>
   9.000000E+99

> <Gold.Protein.RotatedTorsions>
[ 6907 6896 6895 6894 ] final  104.51 input  -60.11 | X-H torsion
[ 7974 7965 7964 7962 ] final  110.66 input  175.53 | X-H torsion
[ 8008 7997 7996 7995 ] final  104.84 input   59.86 | X-H torsion
[ 10167 10162 10161 10158 ] final -165.55 input  -65.29 | X-H torsion
[ 10718 10713 10712 10709 ] final   11.24 input   66.30 | X-H torsion
[ 10763 10752 10751 10750 ] final -169.95 input  -60.55 | X-H torsion
[ 11005 11000 10999 10996 ] final  113.72 input  -57.11 | X-H torsion

> <Gold.Protein.ActiveResidues>
 VAL166  LYS551  ARG553  GLY616  TRP617  ASP618  TYR619  PRO620  LYS621  CYS622 
 ASP623  PHE694  ASN695  SER759  ASP760  ASP761  ALA762  ILE779  LEU786  VAL792 
 PHE793  MET794  SER795  GLU796  ALA797  LYS798  CYS799  TRP800  GLU811  SER814 

> <Gold.Protein.RotatedAtoms>
  152.5262  133.9667  159.7742 H   0  0  0  0  0  0  0  0  0  0  0  0  # atno 6907 bound_to 6896
  150.9947  133.6107  159.2710 H   0  0  0  0  0  0  0  0  0  0  0  0  # atno 6908 bound_to 6896
  151.3238  135.0831  159.9368 H   0  0  0  0  0  0  0  0  0  0  0  0  # atno 6909 bound_to 6896
  145.2521  139.2735  143.4062 H   0  0  0  0  0  0  0  0  0  0  0  0  # atno 7974 bound_to 7965
  156.1608  140.3141  155.8803 H   0  0  0  0  0  0  0  0  0  0  0  0  # atno 8008 bound_to 7997
  155.3786  140.0486  157.3061 H   0  0  0  0  0  0  0  0  0  0  0  0  # atno 8009 bound_to 7997
  154.5144  140.2176  155.9104 H   0  0  0  0  0  0  0  0  0  0  0  0  # atno 8010 bound_to 7997
  139.6175  144.0691  152.1901 H   0  0  0  0  0  0  0  0  0  0  0  0  # atno 10167 bound_to 10162
  156.9926  130.6048  149.5687 H   0  0  0  0  0  0  0  0  0  0  0  0  # atno 10718 bound_to 10713
  154.6467  135.2906  155.0037 H   0  0  0  0  0  0  0  0  0  0  0  0  # atno 10763 bound_to 10752
  154.1144  135.6557  153.4895 H   0  0  0  0  0  0  0  0  0  0  0  0  # atno 10764 bound_to 10752
  153.0355  135.5273  154.7358 H   0  0  0  0  0  0  0  0  0  0  0  0  # atno 10765 bound_to 10752
  139.8960  134.9555  156.6782 H   0  0  0  0  0  0  0  0  0  0  0  0  # atno 11005 bound_to 11000
  146.3299  140.2915  142.8615 LP  0  0  0  0  0  0  0  0  0  0  0  0  # atno 17320 bound_to 7965
  144.9493  140.8162  143.5581 LP  0  0  0  0  0  0  0  0  0  0  0  0  # atno 17321 bound_to 7965
  140.0325  144.6070  150.7476 LP  0  0  0  0  0  0  0  0  0  0  0  0  # atno 17342 bound_to 10162
  140.7360  143.2748  151.3776 LP  0  0  0  0  0  0  0  0  0  0  0  0  # atno 17343 bound_to 10162
  156.0201  130.5296  150.8251 LP  0  0  0  0  0  0  0  0  0  0  0  0  # atno 17370 bound_to 10713
  157.5447  131.0942  150.9778 LP  0  0  0  0  0  0  0  0  0  0  0  0  # atno 17371 bound_to 10713
  140.7320  133.9051  155.8218 LP  0  0  0  0  0  0  0  0  0  0  0  0  # atno 17394 bound_to 11000
  141.0146  134.0974  157.4186 LP  0  0  0  0  0  0  0  0  0  0  0  0  # atno 17395 bound_to 11000

$$$$
