AV-unprocessed.smi:2047|AV-procd|sdf|8317|dock1
  -GOLD-   2272010583D 1   1.00000     0.00000
 Structure written by MMmdl.
 43 45  0  0  0  0  0  0  0  0  2 V2000
  150.2133  134.6339  155.7692 O   0  0  0  0  0  0  0  0  0  0  0  0
  149.7463  135.0955  154.7283 C   0  0  0  0  0  0  0  0  0  0  0  0
  149.1506  134.3776  153.7611 N   0  0  0  0  0  0  0  0  0  0  0  0
  148.9423  132.9686  153.7055 C   0  0  0  0  0  0  0  0  0  0  0  0
  149.8552  132.0447  154.2769 C   0  0  0  0  0  0  0  0  0  0  0  0
  149.6021  130.6623  154.1865 C   0  0  0  0  0  0  0  0  0  0  0  0
  148.4461  130.2220  153.5183 C   0  0  0  0  0  0  0  0  0  0  0  0
  147.6062  131.1244  152.9704 N   0  3  0  0  0  0  0  0  0  0  0  0
  147.7976  132.4657  153.0282 C   0  0  0  0  0  0  0  0  0  0  0  0
  146.8680  133.3151  152.3923 N   0  0  0  0  0  0  0  0  0  0  0  0
  146.7950  133.1298  150.9451 C   0  0  0  0  0  0  0  0  0  0  0  0
  145.3232  133.2939  150.5593 C   0  0  0  0  0  0  0  0  0  0  0  0
  144.5853  132.8965  151.8315 C   0  0  0  0  0  0  0  0  0  0  0  0
  145.5112  133.4242  152.9257 C   0  0  0  0  0  0  0  0  0  0  0  0
  149.7535  136.4025  154.4302 N   0  0  0  0  0  0  0  0  0  0  0  0
  150.3200  137.4494  155.2760 C   0  0  2  0  0  0  0  0  0  0  0  0
  149.8393  138.8561  154.8637 C   0  0  0  0  0  0  0  0  0  0  0  0
  150.7439  139.9011  155.5289 C   0  0  0  0  0  0  0  0  0  0  0  0
  152.3900  139.1140  155.7075 S   0  0  0  0  0  0  0  0  0  0  0  0
  153.3073  139.6491  154.6900 O   0  0  0  0  0  0  0  0  0  0  0  0
  152.7607  139.1022  157.1306 O   0  0  0  0  0  0  0  0  0  0  0  0
  151.8531  137.4355  155.2048 C   0  0  0  0  0  0  0  0  0  0  0  0
  148.7284  134.9082  153.0133 H   0  0  0  0  0  0  0  0  0  0  0  0
  150.7559  132.3706  154.7741 H   0  0  0  0  0  0  0  0  0  0  0  0
  150.2897  129.9505  154.6196 H   0  0  0  0  0  0  0  0  0  0  0  0
  148.1740  129.1834  153.3975 H   0  0  0  0  0  0  0  0  0  0  0  0
  147.4231  133.8524  150.4236 H   0  0  0  0  0  0  0  0  0  0  0  0
  147.1405  132.1303  150.6749 H   0  0  0  0  0  0  0  0  0  0  0  0
  145.1153  134.3391  150.3251 H   0  0  0  0  0  0  0  0  0  0  0  0
  145.0413  132.6917  149.6951 H   0  0  0  0  0  0  0  0  0  0  0  0
  143.5782  133.3109  151.8901 H   0  0  0  0  0  0  0  0  0  0  0  0
  144.5114  131.8099  151.8961 H   0  0  0  0  0  0  0  0  0  0  0  0
  145.3526  132.9100  153.8737 H   0  0  0  0  0  0  0  0  0  0  0  0
  145.3101  134.4813  153.1035 H   0  0  0  0  0  0  0  0  0  0  0  0
  149.3421  136.6966  153.5565 H   0  0  0  0  0  0  0  0  0  0  0  0
  150.0314  137.2759  156.3145 H   0  0  0  0  0  0  0  0  0  0  0  0
  149.9241  138.9607  153.7810 H   0  0  0  0  0  0  0  0  0  0  0  0
  148.7914  139.0197  155.1169 H   0  0  0  0  0  0  0  0  0  0  0  0
  150.8260  140.8221  154.9516 H   0  0  0  0  0  0  0  0  0  0  0  0
  150.3802  140.1479  156.5268 H   0  0  0  0  0  0  0  0  0  0  0  0
  152.3056  136.6860  155.8546 H   0  0  0  0  0  0  0  0  0  0  0  0
  152.2022  137.2698  154.1850 H   0  0  0  0  0  0  0  0  0  0  0  0
  146.7821  130.7759  152.4802 H   0  0  0  0  0  0  0  0  0  0  0  0
  1  2  2  0  0  0  0
  2  3  1  0  0  0  0
  2 15  1  0  0  0  0
  3  4  1  0  0  0  0
  3 23  1  0  0  0  0
  4  9  1  0  0  0  0
  4  5  2  0  0  0  0
  5  6  1  0  0  0  0
  5 24  1  0  0  0  0
  6  7  2  0  0  0  0
  6 25  1  0  0  0  0
  7  8  1  0  0  0  0
  7 26  1  0  0  0  0
  8  9  2  0  0  0  0
  8 43  1  0  0  0  0
  9 10  1  0  0  0  0
 10 14  1  0  0  0  0
 10 11  1  0  0  0  0
 11 12  1  0  0  0  0
 11 27  1  0  0  0  0
 11 28  1  0  0  0  0
 12 13  1  0  0  0  0
 12 29  1  0  0  0  0
 12 30  1  0  0  0  0
 13 14  1  0  0  0  0
 13 31  1  0  0  0  0
 13 32  1  0  0  0  0
 14 33  1  0  0  0  0
 14 34  1  0  0  0  0
 15 16  1  0  0  0  0
 15 35  1  0  0  0  0
 16 22  1  0  0  0  0
 16 17  1  0  0  0  0
 16 36  1  0  0  0  0
 17 18  1  0  0  0  0
 17 37  1  0  0  0  0
 17 38  1  0  0  0  0
 18 19  1  0  0  0  0
 18 39  1  0  0  0  0
 18 40  1  0  0  0  0
 19 20  2  0  0  0  0
 19 21  2  0  0  0  0
 19 22  1  0  0  0  0
 22 41  1  0  0  0  0
 22 42  1  0  0  0  0
M  CHG  1   8   1
M  END
> <s_m_source_file>
AV-unprocessed.smi

> <i_m_source_file_index>
2047

> <i_lp_mmshare_version>
43012

> <i_f3d_flags>
0

> <s_epik_input>
Tz1TMSg9TylbQ0gyXVtDSDJdW0NASF0oW0NIMl0xKVtOSF1DKD1PKVtOSF1jMltjSF1bY0hdW2NIXW5jMk4zW0NIMl1bQ0gyXVtDSDJdW0NIMl0z

> <s_epik_cmdline>
J2VwaWtfcHl0aG9uJywgJy1waCcsICc3LjAnLCAnLXRuJywgJzgnLCAnLW1hJywgJzIwMCcsICctbWV0YWxfYmluZGluZycsICctaW1hZScsICc8aW5maWxlLm1hZT4nLCAnLW9tYWUnLCAnPG91dGZpbGUubWFlPic=

> <r_lp_tautomer_probability>
0.999994

> <r_epik_Ionization_Penalty>
1.20225

> <r_epik_Ionization_Penalty_Charging>
1.20223

> <r_epik_Ionization_Penalty_Neutral>
2.10783e-05

> <r_epik_State_Penalty>
1.26794

> <r_epik_Charging_Adjusted_Penalty>
2.47017

> <i_epik_Tot_Q>
1

> <i_epik_Tot_abs_Q>
1

> <r_epik_Metal_State_Penalty>
1.34322

> <b_epik_Metal_Only>
0

> <s_lp_Force_Field>
OPLS_2005

> <r_lp_Energy>
42.4659

> <b_lp_Chiralities_Consistent>
1

> <s_lp_Variant>
AV-unprocessed.smi:2047-3

> <Gold.Version>
5.8.1

> <Gold.Id.Protein>
6NUR|6NUR_protein|mol2

> <Gold.PLP.Fitness>
43.9874

> <Gold.PLP.PLP>
-36.1861

> <Gold.PLP.part.hbond>
-6.0715

> <Gold.PLP.part.metal>
0.0000

> <Gold.PLP.part.buried>
-0.5145

> <Gold.PLP.part.nonpolar>
-29.0393

> <Gold.PLP.part.repulsive>
0.2555

> <Gold.PLP.ligand.clash>
0.0000

> <Gold.PLP.ligand.torsion>
0.4752

> <Gold.PLP.Chemscore.Hbond>
2.8600

> <Gold.PLP.Chemscore.CHOScore>
0.0000

> <Gold.PLP.Chemscore.Metal>
0.0000

> <Gold.Chemscore.Hbonds>
donor molecule, donor type, donor heavy atom, donor atom, acceptor molecule, acceptor atom, score
      L1  H     3    23       P1  7948  0.90
      L1  H    15    35       P1  7948  0.90
      P1  H  7989  7998       L1    20  0.05
      P1  H  7997  8009       L1    20  1.00

> <Gold.PLP.Chemscore.Internal.Correction>
0.1718

> <Gold.Rescore>
     Score         DG    S(hbond)    S(metal)    S(lipo)     H(rot)  DE(clash)    DE(int)     intcor
     17.15     -18.50       2.68        0.00      62.29       1.26       0.00       1.35       ----

> <Gold.Chemscore.Fitness>
17.1519

> <Gold.Chemscore.DG>
-18.5043

> <Gold.Chemscore.ZeroCoef>
-5.4800

> <Gold.Chemscore.Hbond>
2.6826

> <Gold.Chemscore.Metal>
0.0000

> <Gold.Chemscore.Lipo>
62.2852

> <Gold.Chemscore.Internal_Hbond>
0.0000

> <Gold.Chemscore.DEClash>
0.0029

> <Gold.Chemscore.DEInternal>
1.3495

> <Gold.Chemscore.Rot>
1.2590

> <Gold.Chemscore.Internal.Correction>
   9.000000E+99

> <Gold.Chemscore.Hbonds>
donor molecule, donor type, donor heavy atom, donor atom, acceptor molecule, acceptor atom, score
      L1  H     3    23       P1  7948  0.26
      L1  H    15    35       P1  7948  0.82
      P1  H  7989  7998       L1    20  0.01
      P1  H  7997  8009       L1    20  0.30

> <Gold.Chemscore.Hbond.Weighted>
-8.9600

> <Gold.Chemscore.Metal.Weighted>
-0.0000

> <Gold.Chemscore.Lipo.Weighted>
-7.2874

> <Gold.Chemscore.Internal_Hbond.Weighted>
0.0000

> <Gold.Chemscore.DEClash.Weighted>
0.0029

> <Gold.Chemscore.DEInternal.Weighted>
1.3495

> <Gold.Chemscore.Rot.Weighted>
3.2231

> <Gold.Chemscore.Internal.Correction.Weighted>
   9.000000E+99

> <Gold.Protein.RotatedTorsions>
[ 6907 6896 6895 6894 ] final  -35.04 input  -60.11 | X-H torsion
[ 7974 7965 7964 7962 ] final  -97.73 input  175.53 | X-H torsion
[ 8008 7997 7996 7995 ] final -121.66 input   59.86 | X-H torsion
[ 10167 10162 10161 10158 ] final   12.61 input  -65.29 | X-H torsion
[ 10718 10713 10712 10709 ] final  143.09 input   66.30 | X-H torsion
[ 10763 10752 10751 10750 ] final  -25.96 input  -60.55 | X-H torsion
[ 11005 11000 10999 10996 ] final   88.13 input  -57.11 | X-H torsion

> <Gold.Protein.ActiveResidues>
 VAL166  LYS551  ARG553  GLY616  TRP617  ASP618  TYR619  PRO620  LYS621  CYS622 
 ASP623  PHE694  ASN695  SER759  ASP760  ASP761  ALA762  ILE779  LEU786  VAL792 
 PHE793  MET794  SER795  GLU796  ALA797  LYS798  CYS799  TRP800  GLU811  SER814 

> <Gold.Protein.RotatedAtoms>
  151.0449  134.9633  159.8180 H   0  0  0  0  0  0  0  0  0  0  0  0  # atno 6907 bound_to 6896
  152.5371  134.2611  159.8945 H   0  0  0  0  0  0  0  0  0  0  0  0  # atno 6908 bound_to 6896
  151.2624  133.4252  159.2650 H   0  0  0  0  0  0  0  0  0  0  0  0  # atno 6909 bound_to 6896
  145.3299  140.9439  143.2668 H   0  0  0  0  0  0  0  0  0  0  0  0  # atno 7974 bound_to 7965
  155.1517  140.0404  157.2822 H   0  0  0  0  0  0  0  0  0  0  0  0  # atno 8008 bound_to 7997
  154.6399  140.2544  155.7307 H   0  0  0  0  0  0  0  0  0  0  0  0  # atno 8009 bound_to 7997
  156.2527  140.2858  156.0789 H   0  0  0  0  0  0  0  0  0  0  0  0  # atno 8010 bound_to 7997
  140.6056  143.8514  150.7011 H   0  0  0  0  0  0  0  0  0  0  0  0  # atno 10167 bound_to 10162
  157.3730  131.0981  151.0810 H   0  0  0  0  0  0  0  0  0  0  0  0  # atno 10718 bound_to 10713
  153.7082  135.6952  153.5044 H   0  0  0  0  0  0  0  0  0  0  0  0  # atno 10763 bound_to 10752
  153.2292  135.4343  155.0575 H   0  0  0  0  0  0  0  0  0  0  0  0  # atno 10764 bound_to 10752
  154.8323  135.3480  154.6620 H   0  0  0  0  0  0  0  0  0  0  0  0  # atno 10765 bound_to 10752
  139.8903  134.8467  156.2957 H   0  0  0  0  0  0  0  0  0  0  0  0  # atno 11005 bound_to 11000
  144.8872  139.4823  143.6695 LP  0  0  0  0  0  0  0  0  0  0  0  0  # atno 17320 bound_to 7965
  146.3050  139.7549  142.9063 LP  0  0  0  0  0  0  0  0  0  0  0  0  # atno 17321 bound_to 7965
  140.2070  143.3913  152.1747 LP  0  0  0  0  0  0  0  0  0  0  0  0  # atno 17342 bound_to 10162
  139.5323  144.7172  151.5014 LP  0  0  0  0  0  0  0  0  0  0  0  0  # atno 17343 bound_to 10162
  157.1908  130.6351  149.5703 LP  0  0  0  0  0  0  0  0  0  0  0  0  # atno 17370 bound_to 10713
  155.9759  130.4723  150.6494 LP  0  0  0  0  0  0  0  0  0  0  0  0  # atno 17371 bound_to 10713
  140.9947  133.7187  156.0867 LP  0  0  0  0  0  0  0  0  0  0  0  0  # atno 17394 bound_to 11000
  140.7578  134.3972  157.5531 LP  0  0  0  0  0  0  0  0  0  0  0  0  # atno 17395 bound_to 11000

$$$$
