AV-unprocessed.smi:1318|AV-procd|sdf|5457|dock5
  -GOLD-   22720 5 23D 1   1.00000     0.00000
 Structure written by MMmdl.
 28 29  0  0  0  0  0  0  0  0  1 V2000
  152.3838  143.8724  162.0927 C   0  0  0  0  0  0  0  0  0  0  0  0
  151.7763  143.8875  160.7322 C   0  0  0  0  0  0  0  0  0  0  0  0
  151.4619  142.7793  160.0570 N   0  0  0  0  0  0  0  0  0  0  0  0
  150.9057  143.0516  158.8030 C   0  0  0  0  0  0  0  0  0  0  0  0
  150.4961  141.9237  157.9054 C   0  0  0  0  0  0  0  0  0  0  0  0
  151.0381  142.0929  156.4762 C   0  0  0  0  0  0  0  0  0  0  0  0
  149.9599  142.2009  155.4997 N   0  0  0  0  0  0  0  0  0  0  0  0
  149.6343  141.2587  154.6017 C   0  0  0  0  0  0  0  0  0  0  0  0
  150.2290  140.1838  154.5111 O   0  0  0  0  0  0  0  0  0  0  0  0
  148.4846  141.6303  153.7235 C   0  0  0  0  0  0  0  0  0  0  0  0
  147.1748  141.9891  154.3958 C   0  0  0  0  0  0  0  0  0  0  0  0
  147.3081  140.6771  153.6644 C   0  0  0  0  0  0  0  0  0  0  0  0
  150.8037  144.3944  158.5368 C   0  0  0  0  0  0  0  0  0  0  0  0
  151.4026  145.3656  159.8534 S   0  0  0  0  0  0  0  0  0  0  0  0
  151.7455  143.3199  162.7822 H   0  0  0  0  0  0  0  0  0  0  0  0
  152.5034  144.8895  162.4662 H   0  0  0  0  0  0  0  0  0  0  0  0
  153.3629  143.3943  162.0597 H   0  0  0  0  0  0  0  0  0  0  0  0
  150.8446  140.9781  158.3227 H   0  0  0  0  0  0  0  0  0  0  0  0
  149.4081  141.8521  157.8734 H   0  0  0  0  0  0  0  0  0  0  0  0
  151.6399  142.9999  156.4140 H   0  0  0  0  0  0  0  0  0  0  0  0
  151.6982  141.2641  156.2146 H   0  0  0  0  0  0  0  0  0  0  0  0
  149.4230  143.0559  155.5057 H   0  0  0  0  0  0  0  0  0  0  0  0
  148.7256  142.1663  152.8066 H   0  0  0  0  0  0  0  0  0  0  0  0
  147.1205  141.9537  155.4825 H   0  0  0  0  0  0  0  0  0  0  0  0
  146.5814  142.7746  153.9322 H   0  0  0  0  0  0  0  0  0  0  0  0
  146.8053  140.5736  152.7052 H   0  0  0  0  0  0  0  0  0  0  0  0
  147.3422  139.7699  154.2655 H   0  0  0  0  0  0  0  0  0  0  0  0
  150.4145  144.8698  157.6488 H   0  0  0  0  0  0  0  0  0  0  0  0
  1  2  1  0  0  0  0
  1 15  1  0  0  0  0
  1 16  1  0  0  0  0
  1 17  1  0  0  0  0
  2 14  1  0  0  0  0
  2  3  2  0  0  0  0
  3  4  1  0  0  0  0
  4  5  1  0  0  0  0
  4 13  2  0  0  0  0
  5  6  1  0  0  0  0
  5 18  1  0  0  0  0
  5 19  1  0  0  0  0
  6  7  1  0  0  0  0
  6 20  1  0  0  0  0
  6 21  1  0  0  0  0
  7  8  1  0  0  0  0
  7 22  1  0  0  0  0
  8  9  2  0  0  0  0
  8 10  1  0  0  0  0
 10 12  1  0  0  0  0
 10 11  1  0  0  0  0
 10 23  1  0  0  0  0
 11 12  1  0  0  0  0
 11 24  1  0  0  0  0
 11 25  1  0  0  0  0
 12 26  1  0  0  0  0
 12 27  1  0  0  0  0
 13 14  1  0  0  0  0
 13 28  1  0  0  0  0
M  END
> <s_m_source_file>
AV-unprocessed.smi

> <i_m_source_file_index>
1318

> <i_lp_mmshare_version>
43012

> <i_f3d_flags>
0

> <s_epik_input>
W0NIM11jMW5jKFtjSF1zMSlbQ0gyXVtDSDJdW05IXUMoPU8pW0NIXTJbQ0gyXVtDSDJdMg==

> <s_epik_cmdline>
J2VwaWtfcHl0aG9uJywgJy1waCcsICc3LjAnLCAnLXRuJywgJzgnLCAnLW1hJywgJzIwMCcsICctbWV0YWxfYmluZGluZycsICctaW1hZScsICc8aW5maWxlLm1hZT4nLCAnLW9tYWUnLCAnPG91dGZpbGUubWFlPic=

> <r_epik_Ionization_Penalty>
0.00109668

> <r_epik_Ionization_Penalty_Charging>
0

> <r_epik_Ionization_Penalty_Neutral>
0.00109668

> <r_epik_State_Penalty>
0.000719322

> <r_epik_Charging_Adjusted_Penalty>
0.000719322

> <i_epik_Tot_Q>
0

> <i_epik_Tot_abs_Q>
0

> <r_epik_Metal_State_Penalty>
-0

> <b_epik_Metal_Only>
0

> <s_lp_Force_Field>
OPLS_2005

> <r_lp_Energy>
0.582663

> <b_lp_Chiralities_Consistent>
1

> <s_lp_Variant>
AV-unprocessed.smi:1318-1

> <Gold.Version>
5.8.1

> <Gold.Id.Protein>
6NUR|6NUR_protein|mol2

> <Gold.PLP.Fitness>
43.3117

> <Gold.PLP.PLP>
-35.4323

> <Gold.PLP.part.hbond>
-2.4267

> <Gold.PLP.part.metal>
0.0000

> <Gold.PLP.part.buried>
-4.5726

> <Gold.PLP.part.nonpolar>
-27.1376

> <Gold.PLP.part.repulsive>
0.2912

> <Gold.PLP.ligand.clash>
0.0000

> <Gold.PLP.ligand.torsion>
0.5803

> <Gold.PLP.Chemscore.Hbond>
1.9920

> <Gold.PLP.Chemscore.CHOScore>
0.9975

> <Gold.PLP.Chemscore.Metal>
0.0000

> <Gold.Chemscore.Hbonds>
donor molecule, donor type, donor heavy atom, donor atom, acceptor molecule, acceptor atom, score
      L1  H     7    22       P1  8028  1.00
      P1  H  7989  7998       L1     9  0.70
      L1  C    13    28       P1  8028  0.86
      L1  C    13    28       P1  8029  0.11

> <Gold.PLP.Chemscore.Internal.Correction>
0.0716

> <Gold.Rescore>
     Score         DG    S(hbond)    S(metal)    S(lipo)     H(rot)  DE(clash)    DE(int)     intcor
     14.50     -15.39       1.00        0.00      88.83       1.49       0.02       0.87       ----

> <Gold.Chemscore.Fitness>
14.5027

> <Gold.Chemscore.DG>
-15.3918

> <Gold.Chemscore.ZeroCoef>
-5.4800

> <Gold.Chemscore.Hbond>
0.9994

> <Gold.Chemscore.Metal>
0.0000

> <Gold.Chemscore.Lipo>
88.8296

> <Gold.Chemscore.Internal_Hbond>
0.0000

> <Gold.Chemscore.DEClash>
0.0155

> <Gold.Chemscore.DEInternal>
0.8736

> <Gold.Chemscore.Rot>
1.4919

> <Gold.Chemscore.Internal.Correction>
   9.000000E+99

> <Gold.Chemscore.Hbonds>
donor molecule, donor type, donor heavy atom, donor atom, acceptor molecule, acceptor atom, score
      L1  H     7    22       P1  8028  1.00
      P1  H  7989  7998       L1     9  0.07

> <Gold.Chemscore.Hbond.Weighted>
-3.3379

> <Gold.Chemscore.Metal.Weighted>
-0.0000

> <Gold.Chemscore.Lipo.Weighted>
-10.3931

> <Gold.Chemscore.Internal_Hbond.Weighted>
0.0000

> <Gold.Chemscore.DEClash.Weighted>
0.0155

> <Gold.Chemscore.DEInternal.Weighted>
0.8736

> <Gold.Chemscore.Rot.Weighted>
3.8192

> <Gold.Chemscore.Internal.Correction.Weighted>
   9.000000E+99

> <Gold.Protein.RotatedTorsions>
[ 6907 6896 6895 6894 ] final -114.15 input  -60.11 | X-H torsion
[ 7974 7965 7964 7962 ] final  139.15 input  175.53 | X-H torsion
[ 8008 7997 7996 7995 ] final  -24.56 input   59.86 | X-H torsion
[ 10167 10162 10161 10158 ] final    6.30 input  -65.29 | X-H torsion
[ 10718 10713 10712 10709 ] final   55.52 input   66.30 | X-H torsion
[ 10763 10752 10751 10750 ] final  107.35 input  -60.55 | X-H torsion
[ 11005 11000 10999 10996 ] final -165.48 input  -57.11 | X-H torsion

> <Gold.Protein.ActiveResidues>
 VAL166  LYS551  ARG553  GLY616  TRP617  ASP618  TYR619  PRO620  LYS621  CYS622 
 ASP623  PHE694  ASN695  SER759  ASP760  ASP761  ALA762  ILE779  LEU786  VAL792 
 PHE793  MET794  SER795  GLU796  ALA797  LYS798  CYS799  TRP800  GLU811  SER814 

> <Gold.Protein.RotatedAtoms>
  150.7881  133.8842  159.3294 H   0  0  0  0  0  0  0  0  0  0  0  0  # atno 6907 bound_to 6896
  151.6687  135.0977  160.0203 H   0  0  0  0  0  0  0  0  0  0  0  0  # atno 6908 bound_to 6896
  152.3950  133.6694  159.6304 H   0  0  0  0  0  0  0  0  0  0  0  0  # atno 6909 bound_to 6896
  144.9305  139.5053  143.5620 H   0  0  0  0  0  0  0  0  0  0  0  0  # atno 7974 bound_to 7965
  154.4523  140.1950  156.0483 H   0  0  0  0  0  0  0  0  0  0  0  0  # atno 8008 bound_to 7997
  156.0673  140.3289  155.7506 H   0  0  0  0  0  0  0  0  0  0  0  0  # atno 8009 bound_to 7997
  155.5318  140.0578  157.2878 H   0  0  0  0  0  0  0  0  0  0  0  0  # atno 8010 bound_to 7997
  140.6435  143.7717  150.7464 H   0  0  0  0  0  0  0  0  0  0  0  0  # atno 10167 bound_to 10162
  157.5352  130.8658  149.8743 H   0  0  0  0  0  0  0  0  0  0  0  0  # atno 10718 bound_to 10713
  153.4055  135.3847  155.2016 H   0  0  0  0  0  0  0  0  0  0  0  0  # atno 10763 bound_to 10752
  154.8733  135.3781  154.4566 H   0  0  0  0  0  0  0  0  0  0  0  0  # atno 10764 bound_to 10752
  153.5068  135.7087  153.5864 H   0  0  0  0  0  0  0  0  0  0  0  0  # atno 10765 bound_to 10752
  140.5752  134.5197  157.5169 H   0  0  0  0  0  0  0  0  0  0  0  0  # atno 11005 bound_to 11000
  146.3245  139.8252  142.8919 LP  0  0  0  0  0  0  0  0  0  0  0  0  # atno 17320 bound_to 7965
  145.3149  141.0229  143.3533 LP  0  0  0  0  0  0  0  0  0  0  0  0  # atno 17321 bound_to 7965
  140.1354  143.4489  152.2228 LP  0  0  0  0  0  0  0  0  0  0  0  0  # atno 17342 bound_to 10162
  139.5645  144.7426  151.4062 LP  0  0  0  0  0  0  0  0  0  0  0  0  # atno 17343 bound_to 10162
  156.0453  130.3729  150.1333 LP  0  0  0  0  0  0  0  0  0  0  0  0  # atno 17370 bound_to 10713
  156.9516  130.9776  151.3497 LP  0  0  0  0  0  0  0  0  0  0  0  0  # atno 17371 bound_to 10713
  139.9343  134.7905  156.0846 LP  0  0  0  0  0  0  0  0  0  0  0  0  # atno 17394 bound_to 11000
  141.1031  133.6670  156.2800 LP  0  0  0  0  0  0  0  0  0  0  0  0  # atno 17395 bound_to 11000

$$$$
