AV-unprocessed.smi:910|AV-procd|sdf|4131|dock8
  -GOLD-   22720 2 33D 1   1.00000     0.00000
 Structure written by MMmdl.
 47 48  0  0  0  0  0  0  0  0  2 V2000
  149.0304  132.6521  152.7219 C   0  0  0  0  0  0  0  0  0  0  0  0
  149.7107  133.3073  153.8827 C   0  0  0  0  0  0  0  0  0  0  0  0
  149.8195  134.6476  154.1710 N   0  3  0  0  0  0  0  0  0  0  0  0
  150.5089  134.8057  155.2984 C   0  0  0  0  0  0  0  0  0  0  0  0
  150.8012  136.0605  155.8806 N   0  0  0  0  0  0  0  0  0  0  0  0
  150.6361  136.3800  157.1730 C   0  0  0  0  0  0  0  0  0  0  0  0
  150.2325  135.6027  158.0385 O   0  0  0  0  0  0  0  0  0  0  0  0
  150.9648  137.6583  157.4123 N   0  0  0  0  0  0  0  0  0  0  0  0
  150.8609  138.3237  158.7071 C   0  0  0  0  0  0  0  0  0  0  0  0
  152.2320  138.4527  159.3857 C   0  0  0  0  0  0  0  0  0  0  0  0
  152.8249  139.6855  159.0069 O   0  0  0  0  0  0  0  0  0  0  0  0
  152.2571  140.8303  159.6281 C   0  0  1  0  0  0  0  0  0  0  0  0
  153.2953  141.4495  160.5873 C   0  0  0  0  0  0  0  0  0  0  0  0
  152.7950  142.7731  161.1839 C   0  0  0  0  0  0  0  0  0  0  0  0
  152.4128  143.7662  160.0773 C   0  0  0  0  0  0  0  0  0  0  0  0
  151.3730  143.1567  159.1247 C   0  0  0  0  0  0  0  0  0  0  0  0
  151.8640  141.8278  158.5153 C   0  0  2  0  0  0  0  0  0  0  0  0
  150.8029  141.2385  157.5715 C   0  0  0  0  0  0  0  0  0  0  0  0
  150.8815  133.5994  155.8042 O   0  0  0  0  0  0  0  0  0  0  0  0
  150.3745  132.6762  154.9126 C   0  0  0  0  0  0  0  0  0  0  0  0
  150.6277  131.2366  155.2093 C   0  0  0  0  0  0  0  0  0  0  0  0
  149.6838  131.9235  152.2416 H   0  0  0  0  0  0  0  0  0  0  0  0
  148.7409  133.3830  151.9667 H   0  0  0  0  0  0  0  0  0  0  0  0
  148.1281  132.1291  153.0392 H   0  0  0  0  0  0  0  0  0  0  0  0
  149.4212  135.3718  153.5867 H   0  0  0  0  0  0  0  0  0  0  0  0
  151.2917  138.2224  156.6414 H   0  0  0  0  0  0  0  0  0  0  0  0
  150.3824  139.3000  158.6116 H   0  0  0  0  0  0  0  0  0  0  0  0
  150.2048  137.7191  159.3336 H   0  0  0  0  0  0  0  0  0  0  0  0
  152.1082  138.4355  160.4692 H   0  0  0  0  0  0  0  0  0  0  0  0
  152.8646  137.6058  159.1182 H   0  0  0  0  0  0  0  0  0  0  0  0
  151.3573  140.5560  160.1828 H   0  0  0  0  0  0  0  0  0  0  0  0
  153.5324  140.7581  161.3954 H   0  0  0  0  0  0  0  0  0  0  0  0
  154.2281  141.6248  160.0496 H   0  0  0  0  0  0  0  0  0  0  0  0
  151.9307  142.5835  161.8215 H   0  0  0  0  0  0  0  0  0  0  0  0
  153.5634  143.2071  161.8243 H   0  0  0  0  0  0  0  0  0  0  0  0
  152.0202  144.6823  160.5193 H   0  0  0  0  0  0  0  0  0  0  0  0
  153.3035  144.0503  159.5155 H   0  0  0  0  0  0  0  0  0  0  0  0
  150.4406  142.9910  159.6662 H   0  0  0  0  0  0  0  0  0  0  0  0
  151.1454  143.8692  158.3312 H   0  0  0  0  0  0  0  0  0  0  0  0
  152.7540  142.0410  157.9208 H   0  0  0  0  0  0  0  0  0  0  0  0
  149.8875  140.9899  158.1095 H   0  0  0  0  0  0  0  0  0  0  0  0
  151.1616  140.3290  157.0889 H   0  0  0  0  0  0  0  0  0  0  0  0
  150.5438  141.9449  156.7826 H   0  0  0  0  0  0  0  0  0  0  0  0
  149.8280  130.6103  154.8131 H   0  0  0  0  0  0  0  0  0  0  0  0
  150.6873  131.0645  156.2841 H   0  0  0  0  0  0  0  0  0  0  0  0
  151.5662  130.9103  154.7612 H   0  0  0  0  0  0  0  0  0  0  0  0
  151.1530  136.7758  155.2617 H   0  0  0  0  0  0  0  0  0  0  0  0
  1 22  1  0  0  0  0
  1 23  1  0  0  0  0
  1 24  1  0  0  0  0
  1  2  1  0  0  0  0
  2  3  1  0  0  0  0
  2 20  2  0  0  0  0
  3 25  1  0  0  0  0
  3  4  2  0  0  0  0
  4 19  1  0  0  0  0
  4  5  1  0  0  0  0
  5  6  1  0  0  0  0
  5 47  1  0  0  0  0
  6  8  1  0  0  0  0
  6  7  2  0  0  0  0
  8  9  1  0  0  0  0
  8 26  1  0  0  0  0
  9 10  1  0  0  0  0
  9 27  1  0  0  0  0
  9 28  1  0  0  0  0
 10 11  1  0  0  0  0
 10 29  1  0  0  0  0
 10 30  1  0  0  0  0
 11 12  1  0  0  0  0
 12 17  1  0  0  0  0
 12 13  1  0  0  0  0
 12 31  1  0  0  0  0
 13 14  1  0  0  0  0
 13 32  1  0  0  0  0
 13 33  1  0  0  0  0
 14 15  1  0  0  0  0
 14 34  1  0  0  0  0
 14 35  1  0  0  0  0
 15 16  1  0  0  0  0
 15 36  1  0  0  0  0
 15 37  1  0  0  0  0
 16 17  1  0  0  0  0
 16 38  1  0  0  0  0
 16 39  1  0  0  0  0
 17 18  1  0  0  0  0
 17 40  1  0  0  0  0
 18 41  1  0  0  0  0
 18 42  1  0  0  0  0
 18 43  1  0  0  0  0
 19 20  1  0  0  0  0
 20 21  1  0  0  0  0
 21 44  1  0  0  0  0
 21 45  1  0  0  0  0
 21 46  1  0  0  0  0
M  CHG  1   3   1
M  END
> <s_m_source_file>
AV-unprocessed.smi

> <i_m_source_file_index>
910

> <i_lp_mmshare_version>
43012

> <i_f3d_flags>
0

> <s_epik_input>
W0NIM11jMW5jKG9jMVtDSDNdKVtOSF1DKD1PKVtOSF1bQ0gyXVtDSDJdT1tDQEBIXTJbQ0gyXVtDSDJdW0NIMl1bQ0gyXVtDQEhdMltDSDNd

> <s_epik_cmdline>
J2VwaWtfcHl0aG9uJywgJy1waCcsICc3LjAnLCAnLXRuJywgJzgnLCAnLW1hJywgJzIwMCcsICctbWV0YWxfYmluZGluZycsICctaW1hZScsICc8aW5maWxlLm1hZT4nLCAnLW9tYWUnLCAnPG91dGZpbGUubWFlPic=

> <r_epik_Ionization_Penalty>
7.32931

> <r_epik_Ionization_Penalty_Charging>
7.12214

> <r_epik_Ionization_Penalty_Neutral>
0.207166

> <r_epik_State_Penalty>
2.61278

> <r_epik_Charging_Adjusted_Penalty>
9.73492

> <i_epik_Tot_Q>
1

> <i_epik_Tot_abs_Q>
1

> <r_epik_Metal_State_Penalty>
2.64585

> <b_epik_Metal_Only>
0

> <s_lp_Force_Field>
OPLS_2005

> <r_lp_Energy>
16.7683

> <b_lp_Chiralities_Consistent>
1

> <s_lp_Variant>
AV-unprocessed.smi:910-16

> <Gold.Version>
5.8.1

> <Gold.Id.Protein>
6NUR|6NUR_protein|mol2

> <Gold.PLP.Fitness>
43.9448

> <Gold.PLP.PLP>
-38.1530

> <Gold.PLP.part.hbond>
-2.0000

> <Gold.PLP.part.metal>
0.0000

> <Gold.PLP.part.buried>
-4.9609

> <Gold.PLP.part.nonpolar>
-31.3076

> <Gold.PLP.part.repulsive>
0.1477

> <Gold.PLP.ligand.clash>
0.0000

> <Gold.PLP.ligand.torsion>
1.4882

> <Gold.PLP.Chemscore.Hbond>
2.9120

> <Gold.PLP.Chemscore.CHOScore>
0.0000

> <Gold.PLP.Chemscore.Metal>
0.0000

> <Gold.Chemscore.Hbonds>
donor molecule, donor type, donor heavy atom, donor atom, acceptor molecule, acceptor atom, score
      L1  H     3    25       P1  7948  1.80
      P1  H  6896  6907       L1     7  0.77

> <Gold.PLP.Chemscore.Internal.Correction>
0.0322

> <Gold.Rescore>
     Score         DG    S(hbond)    S(metal)    S(lipo)     H(rot)  DE(clash)    DE(int)     intcor
     16.16     -17.66       1.47        0.00      99.23       1.69       0.00       1.50       ----

> <Gold.Chemscore.Fitness>
16.1588

> <Gold.Chemscore.DG>
-17.6624

> <Gold.Chemscore.ZeroCoef>
-5.4800

> <Gold.Chemscore.Hbond>
1.4707

> <Gold.Chemscore.Metal>
0.0000

> <Gold.Chemscore.Lipo>
99.2250

> <Gold.Chemscore.Internal_Hbond>
0.0000

> <Gold.Chemscore.DEClash>
0.0000

> <Gold.Chemscore.DEInternal>
1.5035

> <Gold.Chemscore.Rot>
1.6949

> <Gold.Chemscore.Internal.Correction>
   9.000000E+99

> <Gold.Chemscore.Hbonds>
donor molecule, donor type, donor heavy atom, donor atom, acceptor molecule, acceptor atom, score
      L1  H     3    25       P1  7948  0.17
      P1  H  6896  6907       L1     7  0.78

> <Gold.Chemscore.Hbond.Weighted>
-4.9120

> <Gold.Chemscore.Metal.Weighted>
-0.0000

> <Gold.Chemscore.Lipo.Weighted>
-11.6093

> <Gold.Chemscore.Internal_Hbond.Weighted>
0.0000

> <Gold.Chemscore.DEClash.Weighted>
0.0000

> <Gold.Chemscore.DEInternal.Weighted>
1.5035

> <Gold.Chemscore.Rot.Weighted>
4.3390

> <Gold.Chemscore.Internal.Correction.Weighted>
   9.000000E+99

> <Gold.Protein.RotatedTorsions>
[ 6907 6896 6895 6894 ] final  -73.09 input  -60.11 | X-H torsion
[ 7974 7965 7964 7962 ] final  -61.43 input  175.53 | X-H torsion
[ 8008 7997 7996 7995 ] final  103.12 input   59.86 | X-H torsion
[ 10167 10162 10161 10158 ] final -138.89 input  -65.29 | X-H torsion
[ 10718 10713 10712 10709 ] final  114.03 input   66.30 | X-H torsion
[ 10763 10752 10751 10750 ] final  -67.30 input  -60.55 | X-H torsion
[ 11005 11000 10999 10996 ] final    8.98 input  -57.11 | X-H torsion

> <Gold.Protein.ActiveResidues>
 VAL166  LYS551  ARG553  GLY616  TRP617  ASP618  TYR619  PRO620  LYS621  CYS622 
 ASP623  PHE694  ASN695  SER759  ASP760  ASP761  ALA762  ILE779  LEU786  VAL792 
 PHE793  MET794  SER795  GLU796  ALA797  LYS798  CYS799  TRP800  GLU811  SER814 

> <Gold.Protein.RotatedAtoms>
  150.7144  134.5067  159.5587 H   0  0  0  0  0  0  0  0  0  0  0  0  # atno 6907 bound_to 6896
  152.2653  134.7988  160.0433 H   0  0  0  0  0  0  0  0  0  0  0  0  # atno 6908 bound_to 6896
  151.8687  133.3436  159.3764 H   0  0  0  0  0  0  0  0  0  0  0  0  # atno 6909 bound_to 6896
  145.8035  140.8641  143.0219 H   0  0  0  0  0  0  0  0  0  0  0  0  # atno 7974 bound_to 7965
  156.1455  140.3170  155.8563 H   0  0  0  0  0  0  0  0  0  0  0  0  # atno 8008 bound_to 7997
  155.4072  140.0503  157.3051 H   0  0  0  0  0  0  0  0  0  0  0  0  # atno 8009 bound_to 7997
  154.5012  140.2130  155.9354 H   0  0  0  0  0  0  0  0  0  0  0  0  # atno 8010 bound_to 7997
  139.8434  143.7293  152.2662 H   0  0  0  0  0  0  0  0  0  0  0  0  # atno 10167 bound_to 10162
  157.6304  131.0992  150.7127 H   0  0  0  0  0  0  0  0  0  0  0  0  # atno 10718 bound_to 10713
  154.3725  135.6092  153.5747 H   0  0  0  0  0  0  0  0  0  0  0  0  # atno 10763 bound_to 10752
  152.9790  135.5841  154.4505 H   0  0  0  0  0  0  0  0  0  0  0  0  # atno 10764 bound_to 10752
  154.4261  135.2847  155.1921 H   0  0  0  0  0  0  0  0  0  0  0  0  # atno 10765 bound_to 10752
  140.5309  134.0467  155.7873 H   0  0  0  0  0  0  0  0  0  0  0  0  # atno 11005 bound_to 11000
  144.6766  140.0293  143.7483 LP  0  0  0  0  0  0  0  0  0  0  0  0  # atno 17320 bound_to 7965
  145.9853  139.2972  143.1017 LP  0  0  0  0  0  0  0  0  0  0  0  0  # atno 17321 bound_to 7965
  139.7537  144.7527  151.0468 LP  0  0  0  0  0  0  0  0  0  0  0  0  # atno 17342 bound_to 10162
  140.7795  143.4831  150.9992 LP  0  0  0  0  0  0  0  0  0  0  0  0  # atno 17343 bound_to 10162
  156.7467  130.4756  149.5465 LP  0  0  0  0  0  0  0  0  0  0  0  0  # atno 17370 bound_to 10713
  156.1504  130.6306  151.0588 LP  0  0  0  0  0  0  0  0  0  0  0  0  # atno 17371 bound_to 10713
  141.1282  133.9347  157.2591 LP  0  0  0  0  0  0  0  0  0  0  0  0  # atno 17394 bound_to 11000
  139.9555  135.0166  156.9115 LP  0  0  0  0  0  0  0  0  0  0  0  0  # atno 17395 bound_to 11000

$$$$
