AV-unprocessed.smi:473|AV-procd|sdf|2661|dock9
  -GOLD-   2262023 73D 1   1.00000     0.00000
 Structure written by MMmdl.
 42 44  0  0  0  0  0  0  0  0  1 V2000
  153.0696  143.1047  161.2696 C   0  0  0  0  0  0  0  0  0  0  0  0
  152.4719  142.5784  159.9767 C   0  0  0  0  0  0  0  0  0  0  0  0
  152.8707  141.3082  159.5024 C   0  0  0  0  0  0  0  0  0  0  0  0
  152.3364  140.7813  158.3062 C   0  0  0  0  0  0  0  0  0  0  0  0
  152.5794  139.5780  157.6660 N   0  0  0  0  0  0  0  0  0  0  0  0
  151.7819  139.6732  156.6059 C   0  0  0  0  0  0  0  0  0  0  0  0
  151.0504  140.7976  156.4833 N   0  0  0  0  0  0  0  0  0  0  0  0
  150.1176  141.1293  155.4211 C   0  0  0  0  0  0  0  0  0  0  0  0
  149.5084  139.8778  154.7595 C   0  0  2  0  0  0  0  0  0  0  0  0
  150.4209  139.3748  153.8028 O   0  0  0  0  0  0  0  0  0  0  0  0
  148.1791  140.1915  154.0553 C   0  0  0  0  0  0  0  0  0  0  0  0
  147.6585  138.9934  153.4948 O   0  0  0  0  0  0  0  0  0  0  0  0
  146.9477  139.1828  152.2777 C   0  0  0  0  0  0  0  0  0  0  0  0
  146.1508  137.9493  151.9812 C   0  0  0  0  0  0  0  0  0  0  0  0
  145.1131  137.3320  152.6229 C   0  0  0  0  0  0  0  0  0  0  0  0
  144.7707  136.1975  151.8365 C   0  0  0  0  0  0  0  0  0  0  0  0
  145.6197  136.2106  150.7670 C   0  0  0  0  0  0  0  0  0  0  0  0
  146.4648  137.2746  150.8371 O   0  0  0  0  0  0  0  0  0  0  0  0
  151.3859  141.5672  157.5912 C   0  0  0  0  0  0  0  0  0  0  0  0
  150.9820  142.8326  158.0519 C   0  0  0  0  0  0  0  0  0  0  0  0
  151.5246  143.3434  159.2497 C   0  0  0  0  0  0  0  0  0  0  0  0
  151.0791  144.7092  159.7414 C   0  0  0  0  0  0  0  0  0  0  0  0
  153.7767  142.3947  161.6993 H   0  0  0  0  0  0  0  0  0  0  0  0
  152.2868  143.2847  162.0067 H   0  0  0  0  0  0  0  0  0  0  0  0
  153.6009  144.0399  161.0920 H   0  0  0  0  0  0  0  0  0  0  0  0
  153.5916  140.7249  160.0560 H   0  0  0  0  0  0  0  0  0  0  0  0
  151.7241  138.8785  155.8763 H   0  0  0  0  0  0  0  0  0  0  0  0
  149.3297  141.7506  155.8488 H   0  0  0  0  0  0  0  0  0  0  0  0
  150.6317  141.7433  154.6800 H   0  0  0  0  0  0  0  0  0  0  0  0
  149.3434  139.1175  155.5242 H   0  0  0  0  0  0  0  0  0  0  0  0
  149.9904  139.3472  152.9622 H   0  0  0  0  0  0  0  0  0  0  0  0
  147.4681  140.5794  154.7861 H   0  0  0  0  0  0  0  0  0  0  0  0
  148.3066  140.9625  153.2935 H   0  0  0  0  0  0  0  0  0  0  0  0
  146.3108  140.0675  152.3209 H   0  0  0  0  0  0  0  0  0  0  0  0
  147.6703  139.3462  151.4782 H   0  0  0  0  0  0  0  0  0  0  0  0
  144.6578  137.6569  153.5467 H   0  0  0  0  0  0  0  0  0  0  0  0
  143.9989  135.4664  152.0274 H   0  0  0  0  0  0  0  0  0  0  0  0
  145.7515  135.5733  149.9049 H   0  0  0  0  0  0  0  0  0  0  0  0
  150.2585  143.4031  157.4883 H   0  0  0  0  0  0  0  0  0  0  0  0
  150.3667  145.1665  159.0541 H   0  0  0  0  0  0  0  0  0  0  0  0
  151.9331  145.3805  159.8330 H   0  0  0  0  0  0  0  0  0  0  0  0
  150.5975  144.6252  160.7158 H   0  0  0  0  0  0  0  0  0  0  0  0
  1  2  1  0  0  0  0
  1 23  1  0  0  0  0
  1 24  1  0  0  0  0
  1 25  1  0  0  0  0
  2 21  1  0  0  0  0
  2  3  2  0  0  0  0
  3  4  1  0  0  0  0
  3 26  1  0  0  0  0
  4 19  2  0  0  0  0
  4  5  1  0  0  0  0
  5  6  2  0  0  0  0
  6  7  1  0  0  0  0
  6 27  1  0  0  0  0
  7  8  1  0  0  0  0
  7 19  1  0  0  0  0
  8  9  1  0  0  0  0
  8 28  1  0  0  0  0
  8 29  1  0  0  0  0
  9 10  1  0  0  0  0
  9 11  1  0  0  0  0
  9 30  1  0  0  0  0
 10 31  1  0  0  0  0
 11 12  1  0  0  0  0
 11 32  1  0  0  0  0
 11 33  1  0  0  0  0
 12 13  1  0  0  0  0
 13 14  1  0  0  0  0
 13 34  1  0  0  0  0
 13 35  1  0  0  0  0
 14 18  1  0  0  0  0
 14 15  2  0  0  0  0
 15 16  1  0  0  0  0
 15 36  1  0  0  0  0
 16 17  2  0  0  0  0
 16 37  1  0  0  0  0
 17 18  1  0  0  0  0
 17 38  1  0  0  0  0
 19 20  1  0  0  0  0
 20 21  2  0  0  0  0
 20 39  1  0  0  0  0
 21 22  1  0  0  0  0
 22 40  1  0  0  0  0
 22 41  1  0  0  0  0
 22 42  1  0  0  0  0
M  END
> <s_m_source_file>
AV-unprocessed.smi

> <i_m_source_file_index>
473

> <i_lp_mmshare_version>
43012

> <i_f3d_flags>
0

> <s_epik_input>
W0NIM11jKFtjSF0xKWMoW0NIM10pW2NIXWMoYzEyKW4oW2NIXW4yKVtDSDJdW0NASF0oW09IXSlbQ0gyXU9bQ0gyXWMzW2NIXVtjSF1bY0hdbzM=

> <s_epik_cmdline>
J2VwaWtfcHl0aG9uJywgJy1waCcsICc3LjAnLCAnLXRuJywgJzgnLCAnLW1hJywgJzIwMCcsICctbWV0YWxfYmluZGluZycsICctaW1hZScsICc8aW5maWxlLm1hZT4nLCAnLW9tYWUnLCAnPG91dGZpbGUubWFlPic=

> <r_epik_Ionization_Penalty>
0.112477

> <r_epik_Ionization_Penalty_Charging>
0

> <r_epik_Ionization_Penalty_Neutral>
0.112477

> <r_epik_State_Penalty>
0.102177

> <r_epik_Charging_Adjusted_Penalty>
0.102177

> <i_epik_Tot_Q>
0

> <i_epik_Tot_abs_Q>
0

> <r_epik_Metal_State_Penalty>
0.000111506

> <b_epik_Metal_Only>
0

> <s_lp_Force_Field>
OPLS_2005

> <r_lp_Energy>
9.85232

> <b_lp_Chiralities_Consistent>
1

> <s_lp_Variant>
AV-unprocessed.smi:473-1

> <Gold.Version>
5.8.1

> <Gold.Id.Protein>
6NUR|6NUR_protein|mol2

> <Gold.PLP.Fitness>
57.7253

> <Gold.PLP.PLP>
-44.4385

> <Gold.PLP.part.hbond>
-4.0000

> <Gold.PLP.part.metal>
0.0000

> <Gold.PLP.part.buried>
-1.6925

> <Gold.PLP.part.nonpolar>
-41.3354

> <Gold.PLP.part.repulsive>
2.7058

> <Gold.PLP.ligand.clash>
0.0000

> <Gold.PLP.ligand.torsion>
0.8714

> <Gold.PLP.Chemscore.Hbond>
3.9760

> <Gold.PLP.Chemscore.CHOScore>
1.0000

> <Gold.PLP.Chemscore.Metal>
0.0000

> <Gold.Chemscore.Hbonds>
donor molecule, donor type, donor heavy atom, donor atom, acceptor molecule, acceptor atom, score
      L1  H    10    31       P1  7957  1.00
      P1  H  7954  7966       L1    18  1.00
      P1  H  7989  7998       L1    10  0.90
      P1  H  7997  8010       L1     5  0.73
      L1  C    17    38       P1  7921  1.00

> <Gold.PLP.Chemscore.Internal.Correction>
0.1016

> <Gold.Rescore>
     Score         DG    S(hbond)    S(metal)    S(lipo)     H(rot)  DE(clash)    DE(int)     intcor
     19.38     -22.52       2.36        0.00     131.07       2.41       2.19       0.94       ----

> <Gold.Chemscore.Fitness>
19.3830

> <Gold.Chemscore.DG>
-22.5176

> <Gold.Chemscore.ZeroCoef>
-5.4800

> <Gold.Chemscore.Hbond>
2.3557

> <Gold.Chemscore.Metal>
0.0000

> <Gold.Chemscore.Lipo>
131.0673

> <Gold.Chemscore.Internal_Hbond>
0.0000

> <Gold.Chemscore.DEClash>
2.1947

> <Gold.Chemscore.DEInternal>
0.9398

> <Gold.Chemscore.Rot>
2.4083

> <Gold.Chemscore.Internal.Correction>
   9.000000E+99

> <Gold.Chemscore.Hbonds>
donor molecule, donor type, donor heavy atom, donor atom, acceptor molecule, acceptor atom, score
      L1  H    10    31       P1  7957  0.93
      P1  H  7954  7966       L1    18  0.86
      P1  H  7989  7998       L1    10  0.08
      P1  H  7997  8010       L1     5  0.04

> <Gold.Chemscore.Hbond.Weighted>
-7.8680

> <Gold.Chemscore.Metal.Weighted>
-0.0000

> <Gold.Chemscore.Lipo.Weighted>
-15.3349

> <Gold.Chemscore.Internal_Hbond.Weighted>
0.0000

> <Gold.Chemscore.DEClash.Weighted>
2.1947

> <Gold.Chemscore.DEInternal.Weighted>
0.9398

> <Gold.Chemscore.Rot.Weighted>
6.1653

> <Gold.Chemscore.Internal.Correction.Weighted>
   9.000000E+99

> <Gold.Protein.RotatedTorsions>
[ 6907 6896 6895 6894 ] final -155.44 input  -60.11 | X-H torsion
[ 7974 7965 7964 7962 ] final -131.88 input  175.53 | X-H torsion
[ 8008 7997 7996 7995 ] final   52.49 input   59.86 | X-H torsion
[ 10167 10162 10161 10158 ] final   22.86 input  -65.29 | X-H torsion
[ 10718 10713 10712 10709 ] final  119.15 input   66.30 | X-H torsion
[ 10763 10752 10751 10750 ] final -165.62 input  -60.55 | X-H torsion
[ 11005 11000 10999 10996 ] final  126.33 input  -57.11 | X-H torsion

> <Gold.Protein.ActiveResidues>
 VAL166  LYS551  ARG553  GLY616  TRP617  ASP618  TYR619  PRO620  LYS621  CYS622 
 ASP623  PHE694  ASN695  SER759  ASP760  ASP761  ALA762  ILE779  LEU786  VAL792 
 PHE793  MET794  SER795  GLU796  ALA797  LYS798  CYS799  TRP800  GLU811  SER814 

> <Gold.Protein.RotatedAtoms>
  151.2725  133.4248  159.2621 H   0  0  0  0  0  0  0  0  0  0  0  0  # atno 6907 bound_to 6896
  151.0432  134.9622  159.8183 H   0  0  0  0  0  0  0  0  0  0  0  0  # atno 6908 bound_to 6896
  152.5369  134.2682  159.9014 H   0  0  0  0  0  0  0  0  0  0  0  0  # atno 6909 bound_to 6896
  144.9338  140.7159  143.4889 H   0  0  0  0  0  0  0  0  0  0  0  0  # atno 7974 bound_to 7965
  155.4526  140.3459  155.4303 H   0  0  0  0  0  0  0  0  0  0  0  0  # atno 8008 bound_to 7997
  156.1210  140.1487  156.9233 H   0  0  0  0  0  0  0  0  0  0  0  0  # atno 8009 bound_to 7997
  154.4824  140.0866  156.7387 H   0  0  0  0  0  0  0  0  0  0  0  0  # atno 8010 bound_to 7997
  140.5315  143.9833  150.6468 H   0  0  0  0  0  0  0  0  0  0  0  0  # atno 10167 bound_to 10162
  157.5981  131.1055  150.7856 H   0  0  0  0  0  0  0  0  0  0  0  0  # atno 10718 bound_to 10713
  154.6914  135.2971  154.9474 H   0  0  0  0  0  0  0  0  0  0  0  0  # atno 10763 bound_to 10752
  154.0436  135.6654  153.4796 H   0  0  0  0  0  0  0  0  0  0  0  0  # atno 10764 bound_to 10752
  153.0615  135.5113  154.8009 H   0  0  0  0  0  0  0  0  0  0  0  0  # atno 10765 bound_to 10752
  139.9451  134.9631  156.8691 H   0  0  0  0  0  0  0  0  0  0  0  0  # atno 11005 bound_to 11000
  145.3099  139.1822  143.4644 LP  0  0  0  0  0  0  0  0  0  0  0  0  # atno 17320 bound_to 7965
  146.3258  140.3102  142.8626 LP  0  0  0  0  0  0  0  0  0  0  0  0  # atno 17321 bound_to 7965
  140.3209  143.3138  152.0785 LP  0  0  0  0  0  0  0  0  0  0  0  0  # atno 17342 bound_to 10162
  139.4956  144.6574  151.6542 LP  0  0  0  0  0  0  0  0  0  0  0  0  # atno 17343 bound_to 10162
  156.8261  130.5000  149.5337 LP  0  0  0  0  0  0  0  0  0  0  0  0  # atno 17370 bound_to 10713
  156.1048  130.5996  150.9953 LP  0  0  0  0  0  0  0  0  0  0  0  0  # atno 17371 bound_to 10713
  140.5856  134.0311  155.7480 LP  0  0  0  0  0  0  0  0  0  0  0  0  # atno 17394 bound_to 11000
  141.1098  133.9634  157.2930 LP  0  0  0  0  0  0  0  0  0  0  0  0  # atno 17395 bound_to 11000

$$$$
