AV-unprocessed.smi:2510|AV-procd|sdf|9885|dock5
  -GOLD-   2272013523D 1   1.00000     0.00000
 Structure written by MMmdl.
 48 49  0  0  0  0  0  0  0  0  1 V2000
  146.3340  137.7384  153.4902 C   0  0  0  0  0  0  0  0  0  0  0  0
  147.3653  138.8452  153.2127 C   0  0  0  0  0  0  0  0  0  0  0  0
  147.5836  139.8482  154.3714 C   0  0  0  0  0  0  0  0  0  0  0  0
  148.2727  139.1013  155.5448 C   0  0  0  0  0  0  0  0  0  0  0  0
  149.3802  138.1180  155.1344 C   0  0  0  0  0  0  0  0  0  0  0  0
  148.1868  141.2113  153.9131 C   0  0  2  0  0  0  0  0  0  0  0  0
  148.9584  141.8899  154.9533 N   0  0  0  0  0  0  0  0  0  0  0  0
  150.1272  141.4592  155.4498 C   0  0  0  0  0  0  0  0  0  0  0  0
  150.7498  140.5005  154.9938 O   0  0  0  0  0  0  0  0  0  0  0  0
  150.6510  142.2034  156.6779 C   0  0  0  0  0  0  0  0  0  0  0  0
  151.2223  141.2325  157.6617 C   0  0  0  0  0  0  0  0  0  0  0  0
  152.4399  141.1862  158.2816 C   0  0  0  0  0  0  0  0  0  0  0  0
  152.3533  140.0547  159.1444 C   0  0  0  0  0  0  0  0  0  0  0  0
  153.3900  139.5326  160.0945 C   0  0  0  0  0  0  0  0  0  0  0  0
  151.1837  139.4391  159.0559 N   0  0  0  0  0  0  0  0  0  0  0  0
  150.5044  140.1631  158.1474 N   0  0  0  0  0  0  0  0  0  0  0  0
  146.7624  141.7802  153.7939 C   0  0  2  0  0  0  0  0  0  0  0  0
  146.4649  143.2461  154.1038 C   0  0  0  0  0  0  0  0  0  0  0  0
  146.3095  140.6553  154.7428 C   0  0  2  0  0  0  0  0  0  0  0  0
  146.3144  141.0626  156.1074 O   0  0  0  0  0  0  0  0  0  0  0  0
  145.1880  141.8471  156.4594 C   0  0  0  0  0  0  0  0  0  0  0  0
  149.5584  139.9276  157.8824 H   0  0  0  0  0  0  0  0  0  0  0  0
  146.3381  137.0031  152.6854 H   0  0  0  0  0  0  0  0  0  0  0  0
  145.3208  138.1339  153.5543 H   0  0  0  0  0  0  0  0  0  0  0  0
  146.5489  137.2098  154.4189 H   0  0  0  0  0  0  0  0  0  0  0  0
  148.3065  138.3511  152.9715 H   0  0  0  0  0  0  0  0  0  0  0  0
  147.0959  139.3657  152.2943 H   0  0  0  0  0  0  0  0  0  0  0  0
  148.6625  139.8046  156.2798 H   0  0  0  0  0  0  0  0  0  0  0  0
  147.5426  138.5147  156.1000 H   0  0  0  0  0  0  0  0  0  0  0  0
  149.7133  137.5412  155.9973 H   0  0  0  0  0  0  0  0  0  0  0  0
  150.2545  138.6306  154.7348 H   0  0  0  0  0  0  0  0  0  0  0  0
  149.0266  137.4108  154.3838 H   0  0  0  0  0  0  0  0  0  0  0  0
  148.6927  141.1735  152.9471 H   0  0  0  0  0  0  0  0  0  0  0  0
  148.5205  142.6859  155.3944 H   0  0  0  0  0  0  0  0  0  0  0  0
  151.4087  142.9277  156.3761 H   0  0  0  0  0  0  0  0  0  0  0  0
  149.8372  142.7686  157.1334 H   0  0  0  0  0  0  0  0  0  0  0  0
  153.2635  141.8732  158.1549 H   0  0  0  0  0  0  0  0  0  0  0  0
  154.3565  140.0056  159.9215 H   0  0  0  0  0  0  0  0  0  0  0  0
  153.5229  138.4561  159.9825 H   0  0  0  0  0  0  0  0  0  0  0  0
  153.1051  139.7289  161.1284 H   0  0  0  0  0  0  0  0  0  0  0  0
  146.3924  141.5489  152.7937 H   0  0  0  0  0  0  0  0  0  0  0  0
  146.7434  143.5148  155.1230 H   0  0  0  0  0  0  0  0  0  0  0  0
  145.4035  143.4642  153.9866 H   0  0  0  0  0  0  0  0  0  0  0  0
  147.0105  143.9069  153.4304 H   0  0  0  0  0  0  0  0  0  0  0  0
  145.3869  140.1548  154.4424 H   0  0  0  0  0  0  0  0  0  0  0  0
  145.2758  142.1660  157.4977 H   0  0  0  0  0  0  0  0  0  0  0  0
  144.2669  141.2711  156.3614 H   0  0  0  0  0  0  0  0  0  0  0  0
  145.1081  142.7391  155.8381 H   0  0  0  0  0  0  0  0  0  0  0  0
  1  2  1  0  0  0  0
  1 23  1  0  0  0  0
  1 24  1  0  0  0  0
  1 25  1  0  0  0  0
  2  3  1  0  0  0  0
  2 26  1  0  0  0  0
  2 27  1  0  0  0  0
  3 19  1  0  0  0  0
  3  4  1  0  0  0  0
  3  6  1  0  0  0  0
  4  5  1  0  0  0  0
  4 28  1  0  0  0  0
  4 29  1  0  0  0  0
  5 30  1  0  0  0  0
  5 31  1  0  0  0  0
  5 32  1  0  0  0  0
  6  7  1  0  0  0  0
  6 17  1  0  0  0  0
  6 33  1  0  0  0  0
  7  8  1  0  0  0  0
  7 34  1  0  0  0  0
  8  9  2  0  0  0  0
  8 10  1  0  0  0  0
 10 35  1  0  0  0  0
 10 36  1  0  0  0  0
 10 11  1  0  0  0  0
 11 16  1  0  0  0  0
 11 12  2  0  0  0  0
 12 13  1  0  0  0  0
 12 37  1  0  0  0  0
 13 14  1  0  0  0  0
 13 15  2  0  0  0  0
 14 38  1  0  0  0  0
 14 39  1  0  0  0  0
 14 40  1  0  0  0  0
 15 16  1  0  0  0  0
 16 22  1  0  0  0  0
 17 18  1  0  0  0  0
 17 19  1  0  0  0  0
 17 41  1  0  0  0  0
 18 42  1  0  0  0  0
 18 43  1  0  0  0  0
 18 44  1  0  0  0  0
 19 20  1  0  0  0  0
 19 45  1  0  0  0  0
 20 21  1  0  0  0  0
 21 46  1  0  0  0  0
 21 47  1  0  0  0  0
 21 48  1  0  0  0  0
M  END
> <s_m_source_file>
AV-unprocessed.smi

> <i_m_source_file_index>
2510

> <i_lp_mmshare_version>
43012

> <i_f3d_flags>
0

> <s_epik_input>
W0NIM11PW0NAQEhdMVtDQEhdKFtDSDNdKVtDQEBIXShDMShbQ0gyXVtDSDNdKVtDSDJdW0NIM10pW05IXUMoPU8pW0NIMl1jMltjSF1jKFtDSDNdKVtuSF1uMg==

> <s_epik_cmdline>
J2VwaWtfcHl0aG9uJywgJy1waCcsICc3LjAnLCAnLXRuJywgJzgnLCAnLW1hJywgJzIwMCcsICctbWV0YWxfYmluZGluZycsICctaW1hZScsICc8aW5maWxlLm1hZT4nLCAnLW9tYWUnLCAnPG91dGZpbGUubWFlPic=

> <r_lp_tautomer_probability>
0.5

> <r_epik_Ionization_Penalty>
0.000134763

> <r_epik_Ionization_Penalty_Charging>
0

> <r_epik_Ionization_Penalty_Neutral>
0.000134763

> <r_epik_State_Penalty>
0.41068

> <r_epik_Charging_Adjusted_Penalty>
0.41068

> <i_epik_Tot_Q>
0

> <i_epik_Tot_abs_Q>
0

> <r_epik_Metal_State_Penalty>
0.410661

> <b_epik_Metal_Only>
0

> <s_lp_Force_Field>
OPLS_2005

> <r_lp_Energy>
25.7229

> <b_lp_Chiralities_Consistent>
1

> <s_lp_Variant>
AV-unprocessed.smi:2510-16

> <Gold.Version>
5.8.1

> <Gold.Id.Protein>
6NUR|6NUR_protein|mol2

> <Gold.PLP.Fitness>
33.7642

> <Gold.PLP.PLP>
-29.9966

> <Gold.PLP.part.hbond>
-2.0000

> <Gold.PLP.part.metal>
0.0000

> <Gold.PLP.part.buried>
-3.3780

> <Gold.PLP.part.nonpolar>
-23.7213

> <Gold.PLP.part.repulsive>
0.4488

> <Gold.PLP.ligand.clash>
0.0000

> <Gold.PLP.ligand.torsion>
0.9262

> <Gold.PLP.Chemscore.Hbond>
1.6614

> <Gold.PLP.Chemscore.CHOScore>
0.0000

> <Gold.PLP.Chemscore.Metal>
0.0000

> <Gold.Chemscore.Hbonds>
donor molecule, donor type, donor heavy atom, donor atom, acceptor molecule, acceptor atom, score
      L1  H     7    34       P1  8028  0.70
      P1  H  7989  7998       L1     9  1.00

> <Gold.PLP.Chemscore.Internal.Correction>
0.6357

> <Gold.Rescore>
     Score         DG    S(hbond)    S(metal)    S(lipo)     H(rot)  DE(clash)    DE(int)     intcor
     11.12     -16.12       1.61        0.00      84.53       1.81       0.13       4.87       ----

> <Gold.Chemscore.Fitness>
11.1183

> <Gold.Chemscore.DG>
-16.1249

> <Gold.Chemscore.ZeroCoef>
-5.4800

> <Gold.Chemscore.Hbond>
1.6136

> <Gold.Chemscore.Metal>
0.0000

> <Gold.Chemscore.Lipo>
84.5256

> <Gold.Chemscore.Internal_Hbond>
0.0000

> <Gold.Chemscore.DEClash>
0.1317

> <Gold.Chemscore.DEInternal>
4.8749

> <Gold.Chemscore.Rot>
1.8102

> <Gold.Chemscore.Internal.Correction>
   9.000000E+99

> <Gold.Chemscore.Hbonds>
donor molecule, donor type, donor heavy atom, donor atom, acceptor molecule, acceptor atom, score
      L1  H     7    34       P1  8028  0.68
      P1  H  7989  7998       L1     9  0.81

> <Gold.Chemscore.Hbond.Weighted>
-5.3895

> <Gold.Chemscore.Metal.Weighted>
-0.0000

> <Gold.Chemscore.Lipo.Weighted>
-9.8895

> <Gold.Chemscore.Internal_Hbond.Weighted>
0.0000

> <Gold.Chemscore.DEClash.Weighted>
0.1317

> <Gold.Chemscore.DEInternal.Weighted>
4.8749

> <Gold.Chemscore.Rot.Weighted>
4.6341

> <Gold.Chemscore.Internal.Correction.Weighted>
   9.000000E+99

> <Gold.Protein.RotatedTorsions>
[ 6907 6896 6895 6894 ] final -160.21 input  -60.11 | X-H torsion
[ 7974 7965 7964 7962 ] final   48.11 input  175.53 | X-H torsion
[ 8008 7997 7996 7995 ] final  -99.99 input   59.86 | X-H torsion
[ 10167 10162 10161 10158 ] final -159.03 input  -65.29 | X-H torsion
[ 10718 10713 10712 10709 ] final -157.98 input   66.30 | X-H torsion
[ 10763 10752 10751 10750 ] final  -79.96 input  -60.55 | X-H torsion
[ 11005 11000 10999 10996 ] final   85.96 input  -57.11 | X-H torsion

> <Gold.Protein.ActiveResidues>
 VAL166  LYS551  ARG553  GLY616  TRP617  ASP618  TYR619  PRO620  LYS621  CYS622 
 ASP623  PHE694  ASN695  SER759  ASP760  ASP761  ALA762  ILE779  LEU786  VAL792 
 PHE793  MET794  SER795  GLU796  ALA797  LYS798  CYS799  TRP800  GLU811  SER814 

> <Gold.Protein.RotatedAtoms>
  151.3455  133.3945  159.2674 H   0  0  0  0  0  0  0  0  0  0  0  0  # atno 6907 bound_to 6896
  150.9843  134.9193  159.7873 H   0  0  0  0  0  0  0  0  0  0  0  0  # atno 6908 bound_to 6896
  152.5227  134.3419  159.9272 H   0  0  0  0  0  0  0  0  0  0  0  0  # atno 6909 bound_to 6896
  146.0235  139.4678  142.9882 H   0  0  0  0  0  0  0  0  0  0  0  0  # atno 7974 bound_to 7965
  154.8224  140.0444  157.1420 H   0  0  0  0  0  0  0  0  0  0  0  0  # atno 8008 bound_to 7997
  154.9244  140.3031  155.5179 H   0  0  0  0  0  0  0  0  0  0  0  0  # atno 8009 bound_to 7997
  156.2981  140.2334  156.4298 H   0  0  0  0  0  0  0  0  0  0  0  0  # atno 8010 bound_to 7997
  139.6646  143.9851  152.2247 H   0  0  0  0  0  0  0  0  0  0  0  0  # atno 10167 bound_to 10162
  156.5478  130.8592  151.2770 H   0  0  0  0  0  0  0  0  0  0  0  0  # atno 10718 bound_to 10713
  154.5452  135.5677  153.6874 H   0  0  0  0  0  0  0  0  0  0  0  0  # atno 10763 bound_to 10752
  152.9974  135.6237  154.2448 H   0  0  0  0  0  0  0  0  0  0  0  0  # atno 10764 bound_to 10752
  154.2381  135.2863  155.2844 H   0  0  0  0  0  0  0  0  0  0  0  0  # atno 10765 bound_to 10752
  139.8957  134.8323  156.2654 H   0  0  0  0  0  0  0  0  0  0  0  0  # atno 11005 bound_to 11000
  145.7156  141.0092  143.1430 LP  0  0  0  0  0  0  0  0  0  0  0  0  # atno 17320 bound_to 7965
  144.6999  139.8809  143.7447 LP  0  0  0  0  0  0  0  0  0  0  0  0  # atno 17321 bound_to 7965
  139.9600  144.6564  150.8089 LP  0  0  0  0  0  0  0  0  0  0  0  0  # atno 17342 bound_to 10162
  140.7594  143.3128  151.2804 LP  0  0  0  0  0  0  0  0  0  0  0  0  # atno 17343 bound_to 10162
  157.7393  130.9829  150.2306 LP  0  0  0  0  0  0  0  0  0  0  0  0  # atno 17370 bound_to 10713
  156.2912  130.3746  149.7840 LP  0  0  0  0  0  0  0  0  0  0  0  0  # atno 17371 bound_to 10713
  141.0135  133.7082  156.1150 LP  0  0  0  0  0  0  0  0  0  0  0  0  # atno 17394 bound_to 11000
  140.7334  134.4229  157.5563 LP  0  0  0  0  0  0  0  0  0  0  0  0  # atno 17395 bound_to 11000

$$$$
