AV-unprocessed.smi:3303|AV-procd|sdf|12673|dock3
  -GOLD-   2272019 03D 1   1.00000     0.00000
 Structure written by MMmdl.
 44 45  0  0  0  0  0  0  0  0  2 V2000
  148.2442  142.1447  154.6322 C   0  0  0  0  0  0  0  0  0  0  0  0
  149.6011  141.4954  154.9547 C   0  0  2  0  0  0  0  0  0  0  0  0
  149.6399  140.0530  154.4132 C   0  0  0  0  0  0  0  0  0  0  0  0
  150.9370  139.4177  154.6609 N   0  0  0  0  0  0  0  0  0  0  0  0
  150.9074  138.1080  154.0152 C   0  0  0  0  0  0  0  0  0  0  0  0
  151.1853  139.3141  156.1091 C   0  0  1  0  0  0  0  0  0  0  0  0
  152.5152  138.5981  156.4219 C   0  0  0  0  0  0  0  0  0  0  0  0
  151.2102  140.7320  156.7178 C   0  0  0  0  0  0  0  0  0  0  0  0
  149.9025  141.4950  156.4659 C   0  0  1  0  0  0  0  0  0  0  0  0
  150.0266  142.8768  156.9819 N   0  3  0  0  0  0  0  0  0  0  0  0
  149.9599  142.9975  158.4519 C   0  0  0  0  0  0  0  0  0  0  0  0
  151.1077  143.8657  158.9852 C   0  0  0  0  0  0  0  0  0  0  0  0
  151.9894  143.1145  159.9643 C   0  0  0  0  0  0  0  0  0  0  0  0
  152.7752  142.0232  159.5363 C   0  0  0  0  0  0  0  0  0  0  0  0
  153.5814  141.3646  160.4851 C   0  0  0  0  0  0  0  0  0  0  0  0
  153.5708  141.8204  161.8173 C   0  0  0  0  0  0  0  0  0  0  0  0
  152.7519  142.9198  162.1434 C   0  0  0  0  0  0  0  0  0  0  0  0
  151.9770  143.5601  161.2407 N   0  0  0  0  0  0  0  0  0  0  0  0
  147.4272  141.6282  155.1372 H   0  0  0  0  0  0  0  0  0  0  0  0
  148.0419  142.1159  153.5612 H   0  0  0  0  0  0  0  0  0  0  0  0
  148.2163  143.1908  154.9376 H   0  0  0  0  0  0  0  0  0  0  0  0
  150.3767  142.0678  154.4424 H   0  0  0  0  0  0  0  0  0  0  0  0
  148.8421  139.4578  154.8613 H   0  0  0  0  0  0  0  0  0  0  0  0
  149.4516  140.0749  153.3387 H   0  0  0  0  0  0  0  0  0  0  0  0
  151.8845  137.6270  154.0445 H   0  0  0  0  0  0  0  0  0  0  0  0
  150.6414  138.2041  152.9618 H   0  0  0  0  0  0  0  0  0  0  0  0
  150.1813  137.4461  154.4896 H   0  0  0  0  0  0  0  0  0  0  0  0
  150.3730  138.7473  156.5678 H   0  0  0  0  0  0  0  0  0  0  0  0
  152.7406  138.6475  157.4876 H   0  0  0  0  0  0  0  0  0  0  0  0
  153.3500  139.0544  155.8886 H   0  0  0  0  0  0  0  0  0  0  0  0
  152.4846  137.5398  156.1633 H   0  0  0  0  0  0  0  0  0  0  0  0
  151.3878  140.6673  157.7922 H   0  0  0  0  0  0  0  0  0  0  0  0
  152.0505  141.2910  156.3020 H   0  0  0  0  0  0  0  0  0  0  0  0
  149.0968  140.9739  156.9867 H   0  0  0  0  0  0  0  0  0  0  0  0
  150.9091  143.2558  156.6692 H   0  0  0  0  0  0  0  0  0  0  0  0
  149.0020  143.4368  158.7342 H   0  0  0  0  0  0  0  0  0  0  0  0
  150.0031  142.0010  158.8934 H   0  0  0  0  0  0  0  0  0  0  0  0
  151.7233  144.2226  158.1580 H   0  0  0  0  0  0  0  0  0  0  0  0
  150.7067  144.7541  159.4752 H   0  0  0  0  0  0  0  0  0  0  0  0
  152.7631  141.6965  158.5069 H   0  0  0  0  0  0  0  0  0  0  0  0
  154.1969  140.5256  160.1959 H   0  0  0  0  0  0  0  0  0  0  0  0
  154.1758  141.3389  162.5715 H   0  0  0  0  0  0  0  0  0  0  0  0
  152.7192  143.2957  163.1554 H   0  0  0  0  0  0  0  0  0  0  0  0
  149.2820  143.4291  156.5815 H   0  0  0  0  0  0  0  0  0  0  0  0
  1  2  1  0  0  0  0
  1 19  1  0  0  0  0
  1 20  1  0  0  0  0
  1 21  1  0  0  0  0
  2  9  1  0  0  0  0
  2  3  1  0  0  0  0
  2 22  1  0  0  0  0
  3  4  1  0  0  0  0
  3 23  1  0  0  0  0
  3 24  1  0  0  0  0
  4  5  1  0  0  0  0
  4  6  1  0  0  0  0
  5 25  1  0  0  0  0
  5 26  1  0  0  0  0
  5 27  1  0  0  0  0
  6  7  1  0  0  0  0
  6  8  1  0  0  0  0
  6 28  1  0  0  0  0
  7 29  1  0  0  0  0
  7 30  1  0  0  0  0
  7 31  1  0  0  0  0
  8  9  1  0  0  0  0
  8 32  1  0  0  0  0
  8 33  1  0  0  0  0
  9 10  1  0  0  0  0
  9 34  1  0  0  0  0
 10 11  1  0  0  0  0
 10 35  1  0  0  0  0
 10 44  1  0  0  0  0
 11 12  1  0  0  0  0
 11 36  1  0  0  0  0
 11 37  1  0  0  0  0
 12 13  1  0  0  0  0
 12 38  1  0  0  0  0
 12 39  1  0  0  0  0
 13 18  1  0  0  0  0
 13 14  2  0  0  0  0
 14 15  1  0  0  0  0
 14 40  1  0  0  0  0
 15 16  2  0  0  0  0
 15 41  1  0  0  0  0
 16 17  1  0  0  0  0
 16 42  1  0  0  0  0
 17 18  2  0  0  0  0
 17 43  1  0  0  0  0
M  CHG  1  10   1
M  END
> <s_m_source_file>
AV-unprocessed.smi

> <i_m_source_file_index>
3303

> <i_lp_mmshare_version>
43012

> <i_f3d_flags>
0

> <s_epik_input>
W0NIM11bQ0BASF0xW0NIMl1OKFtDSDNdKVtDQEBIXShbQ0gzXSlbQ0gyXVtDQEhdMVtOSF1bQ0gyXVtDSDJdYzJbY0hdW2NIXVtjSF1bY0hdbjI=

> <s_epik_cmdline>
J2VwaWtfcHl0aG9uJywgJy1waCcsICc3LjAnLCAnLXRuJywgJzgnLCAnLW1hJywgJzIwMCcsICctbWV0YWxfYmluZGluZycsICctaW1hZScsICc8aW5maWxlLm1hZT4nLCAnLW9tYWUnLCAnPG91dGZpbGUubWFlPic=

> <r_epik_Ionization_Penalty>
1.37325

> <r_epik_Ionization_Penalty_Charging>
0.000251572

> <r_epik_Ionization_Penalty_Neutral>
1.373

> <r_epik_State_Penalty>
1.46343

> <r_epik_Charging_Adjusted_Penalty>
1.46368

> <i_epik_Tot_Q>
1

> <i_epik_Tot_abs_Q>
1

> <r_epik_Metal_State_Penalty>
1.46331

> <b_epik_Metal_Only>
0

> <s_lp_Force_Field>
OPLS_2005

> <r_lp_Energy>
21.6133

> <b_lp_Chiralities_Consistent>
1

> <s_lp_Variant>
AV-unprocessed.smi:3303-17

> <Gold.Version>
5.8.1

> <Gold.Id.Protein>
6NUR|6NUR_protein|mol2

> <Gold.PLP.Fitness>
47.3101

> <Gold.PLP.PLP>
-43.0262

> <Gold.PLP.part.hbond>
-1.9796

> <Gold.PLP.part.metal>
0.0000

> <Gold.PLP.part.buried>
-3.4841

> <Gold.PLP.part.nonpolar>
-38.5840

> <Gold.PLP.part.repulsive>
0.2264

> <Gold.PLP.ligand.clash>
0.0000

> <Gold.PLP.ligand.torsion>
0.8643

> <Gold.PLP.Chemscore.Hbond>
1.9960

> <Gold.PLP.Chemscore.CHOScore>
0.0000

> <Gold.PLP.Chemscore.Metal>
0.0000

> <Gold.Chemscore.Hbonds>
donor molecule, donor type, donor heavy atom, donor atom, acceptor molecule, acceptor atom, score
      L1  H    10    44       P1  8028  1.86
      P1  H  7989  7998       L1     4  0.20

> <Gold.PLP.Chemscore.Internal.Correction>
0.0244

> <Gold.Rescore>
     Score         DG    S(hbond)    S(metal)    S(lipo)     H(rot)  DE(clash)    DE(int)     intcor
     18.95     -20.02       0.94        0.00     126.52       1.33       0.21       0.86       ----

> <Gold.Chemscore.Fitness>
18.9511

> <Gold.Chemscore.DG>
-20.0174

> <Gold.Chemscore.ZeroCoef>
-5.4800

> <Gold.Chemscore.Hbond>
0.9399

> <Gold.Chemscore.Metal>
0.0000

> <Gold.Chemscore.Lipo>
126.5163

> <Gold.Chemscore.Internal_Hbond>
0.0000

> <Gold.Chemscore.DEClash>
0.2098

> <Gold.Chemscore.DEInternal>
0.8564

> <Gold.Chemscore.Rot>
1.3298

> <Gold.Chemscore.Internal.Correction>
   9.000000E+99

> <Gold.Chemscore.Hbonds>
donor molecule, donor type, donor heavy atom, donor atom, acceptor molecule, acceptor atom, score
      L1  H    10    44       P1  8028  0.90

> <Gold.Chemscore.Hbond.Weighted>
-3.1393

> <Gold.Chemscore.Metal.Weighted>
-0.0000

> <Gold.Chemscore.Lipo.Weighted>
-14.8024

> <Gold.Chemscore.Internal_Hbond.Weighted>
0.0000

> <Gold.Chemscore.DEClash.Weighted>
0.2098

> <Gold.Chemscore.DEInternal.Weighted>
0.8564

> <Gold.Chemscore.Rot.Weighted>
3.4043

> <Gold.Chemscore.Internal.Correction.Weighted>
   9.000000E+99

> <Gold.Protein.RotatedTorsions>
[ 6907 6896 6895 6894 ] final   28.99 input  -60.11 | X-H torsion
[ 7974 7965 7964 7962 ] final  118.51 input  175.53 | X-H torsion
[ 8008 7997 7996 7995 ] final   87.23 input   59.86 | X-H torsion
[ 10167 10162 10161 10158 ] final -126.08 input  -65.29 | X-H torsion
[ 10718 10713 10712 10709 ] final  -43.59 input   66.30 | X-H torsion
[ 10763 10752 10751 10750 ] final  171.20 input  -60.55 | X-H torsion
[ 11005 11000 10999 10996 ] final  178.79 input  -57.11 | X-H torsion

> <Gold.Protein.ActiveResidues>
 VAL166  LYS551  ARG553  GLY616  TRP617  ASP618  TYR619  PRO620  LYS621  CYS622 
 ASP623  PHE694  ASN695  SER759  ASP760  ASP761  ALA762  ILE779  LEU786  VAL792 
 PHE793  MET794  SER795  GLU796  ALA797  LYS798  CYS799  TRP800  GLU811  SER814 

> <Gold.Protein.RotatedAtoms>
  152.0250  134.9801  160.0571 H   0  0  0  0  0  0  0  0  0  0  0  0  # atno 6907 bound_to 6896
  152.1300  133.4397  159.4724 H   0  0  0  0  0  0  0  0  0  0  0  0  # atno 6908 bound_to 6896
  150.6855  134.2350  159.4493 H   0  0  0  0  0  0  0  0  0  0  0  0  # atno 6909 bound_to 6896
  145.1544  139.3191  143.4550 H   0  0  0  0  0  0  0  0  0  0  0  0  # atno 7974 bound_to 7965
  155.9728  140.3384  155.6591 H   0  0  0  0  0  0  0  0  0  0  0  0  # atno 8008 bound_to 7997
  155.6652  140.0720  157.2558 H   0  0  0  0  0  0  0  0  0  0  0  0  # atno 8009 bound_to 7997
  154.4171  140.1701  156.1807 H   0  0  0  0  0  0  0  0  0  0  0  0  # atno 8010 bound_to 7997
  139.9753  143.5801  152.2398 H   0  0  0  0  0  0  0  0  0  0  0  0  # atno 10167 bound_to 10162
  156.2474  130.4185  149.8689 H   0  0  0  0  0  0  0  0  0  0  0  0  # atno 10718 bound_to 10713
  154.4086  135.2756  155.2051 H   0  0  0  0  0  0  0  0  0  0  0  0  # atno 10763 bound_to 10752
  154.4047  135.6036  153.5921 H   0  0  0  0  0  0  0  0  0  0  0  0  # atno 10764 bound_to 10752
  152.9831  135.5935  154.4364 H   0  0  0  0  0  0  0  0  0  0  0  0  # atno 10765 bound_to 10752
  140.3990  134.6794  157.4551 H   0  0  0  0  0  0  0  0  0  0  0  0  # atno 11005 bound_to 11000
  146.3490  140.1630  142.8590 LP  0  0  0  0  0  0  0  0  0  0  0  0  # atno 17320 bound_to 7965
  145.0397  140.8936  143.5060 LP  0  0  0  0  0  0  0  0  0  0  0  0  # atno 17321 bound_to 7965
  139.6450  144.7657  151.2261 LP  0  0  0  0  0  0  0  0  0  0  0  0  # atno 17342 bound_to 10162
  140.7508  143.6254  150.8474 LP  0  0  0  0  0  0  0  0  0  0  0  0  # atno 17343 bound_to 10162
  156.6249  130.8642  151.3483 LP  0  0  0  0  0  0  0  0  0  0  0  0  # atno 17370 bound_to 10713
  157.7201  130.9547  150.1404 LP  0  0  0  0  0  0  0  0  0  0  0  0  # atno 17371 bound_to 10713
  140.0350  134.6350  155.9055 LP  0  0  0  0  0  0  0  0  0  0  0  0  # atno 17394 bound_to 11000
  141.1864  133.6557  156.5236 LP  0  0  0  0  0  0  0  0  0  0  0  0  # atno 17395 bound_to 11000

$$$$
