AV-unprocessed.smi:1627|AV-procd|sdf|6519|dock2
  -GOLD-   22720 7193D 1   1.00000     0.00000
 Structure written by MMmdl.
 44 45  0  0  0  0  0  0  0  0  2 V2000
  138.8651  139.5049  154.3283 C   0  0  0  0  0  0  0  0  0  0  0  0
  139.1422  138.4524  155.4118 C   0  0  1  0  0  0  0  0  0  0  0  0
  137.8841  138.0463  155.9436 O   0  0  0  0  0  0  0  0  0  0  0  0
  136.9510  137.5437  154.9928 C   0  0  0  0  0  0  0  0  0  0  0  0
  135.5396  137.5970  155.5899 C   0  0  0  0  0  0  0  0  0  0  0  0
  134.6614  137.1822  154.6776 F   0  0  0  0  0  0  0  0  0  0  0  0
  135.4581  136.8004  156.6553 F   0  0  0  0  0  0  0  0  0  0  0  0
  135.2356  138.8465  155.9394 F   0  0  0  0  0  0  0  0  0  0  0  0
  139.8902  137.2410  154.8317 C   0  0  0  0  0  0  0  0  0  0  0  0
  139.4672  136.1054  155.0462 O   0  0  0  0  0  0  0  0  0  0  0  0
  141.0111  137.5188  154.1400 N   0  0  0  0  0  0  0  0  0  0  0  0
  141.8988  136.6156  153.4952 C   0  0  0  0  0  0  0  0  0  0  0  0
  142.8392  136.9975  152.5074 C   0  0  0  0  0  0  0  0  0  0  0  0
  143.6873  136.0237  151.9410 C   0  0  0  0  0  0  0  0  0  0  0  0
  143.6031  134.6767  152.3672 C   0  0  0  0  0  0  0  0  0  0  0  0
  144.4273  133.6621  151.8331 N   0  0  0  0  0  0  0  0  0  0  0  0
  143.7495  132.4133  151.4767 C   0  0  0  0  0  0  0  0  0  0  0  0
  144.7553  131.2609  151.3123 C   0  0  0  0  0  0  0  0  0  0  0  0
  145.8670  131.6336  150.3208 C   0  0  0  0  0  0  0  0  0  0  0  0
  146.5430  132.9403  150.7594 C   0  0  0  0  0  0  0  0  0  0  0  0
  145.5105  134.0674  150.9329 C   0  0  0  0  0  0  0  0  0  0  0  0
  142.6930  134.3644  153.3229 N   0  3  0  0  0  0  0  0  0  0  0  0
  141.8629  135.2642  153.8930 C   0  0  0  0  0  0  0  0  0  0  0  0
  139.7899  139.8532  153.8669 H   0  0  0  0  0  0  0  0  0  0  0  0
  138.3630  140.3737  154.7543 H   0  0  0  0  0  0  0  0  0  0  0  0
  138.2240  139.1103  153.5390 H   0  0  0  0  0  0  0  0  0  0  0  0
  139.7374  138.9194  156.1990 H   0  0  0  0  0  0  0  0  0  0  0  0
  136.9769  138.1264  154.0714 H   0  0  0  0  0  0  0  0  0  0  0  0
  137.2041  136.5142  154.7348 H   0  0  0  0  0  0  0  0  0  0  0  0
  141.2893  138.4895  154.1234 H   0  0  0  0  0  0  0  0  0  0  0  0
  142.9357  138.0204  152.1779 H   0  0  0  0  0  0  0  0  0  0  0  0
  144.3865  136.3235  151.1748 H   0  0  0  0  0  0  0  0  0  0  0  0
  143.0084  132.1265  152.2209 H   0  0  0  0  0  0  0  0  0  0  0  0
  143.2083  132.5679  150.5422 H   0  0  0  0  0  0  0  0  0  0  0  0
  145.1961  131.0207  152.2808 H   0  0  0  0  0  0  0  0  0  0  0  0
  144.2397  130.3611  150.9755 H   0  0  0  0  0  0  0  0  0  0  0  0
  146.6021  130.8306  150.2592 H   0  0  0  0  0  0  0  0  0  0  0  0
  145.4471  131.7523  149.3211 H   0  0  0  0  0  0  0  0  0  0  0  0
  147.0689  132.7796  151.7015 H   0  0  0  0  0  0  0  0  0  0  0  0
  147.2983  133.2348  150.0301 H   0  0  0  0  0  0  0  0  0  0  0  0
  145.0872  134.3380  149.9646 H   0  0  0  0  0  0  0  0  0  0  0  0
  146.0172  134.9507  151.3234 H   0  0  0  0  0  0  0  0  0  0  0  0
  141.1923  134.8720  154.6440 H   0  0  0  0  0  0  0  0  0  0  0  0
  142.6338  133.3942  153.6323 H   0  0  0  0  0  0  0  0  0  0  0  0
  1  2  1  0  0  0  0
  1 24  1  0  0  0  0
  1 25  1  0  0  0  0
  1 26  1  0  0  0  0
  2  3  1  0  0  0  0
  2  9  1  0  0  0  0
  2 27  1  0  0  0  0
  3  4  1  0  0  0  0
  4  5  1  0  0  0  0
  4 28  1  0  0  0  0
  4 29  1  0  0  0  0
  5  6  1  0  0  0  0
  5  7  1  0  0  0  0
  5  8  1  0  0  0  0
  9 10  2  0  0  0  0
  9 11  1  0  0  0  0
 11 12  1  0  0  0  0
 11 30  1  0  0  0  0
 12 23  1  0  0  0  0
 12 13  2  0  0  0  0
 13 14  1  0  0  0  0
 13 31  1  0  0  0  0
 14 15  2  0  0  0  0
 14 32  1  0  0  0  0
 15 16  1  0  0  0  0
 15 22  1  0  0  0  0
 16 21  1  0  0  0  0
 16 17  1  0  0  0  0
 17 18  1  0  0  0  0
 17 33  1  0  0  0  0
 17 34  1  0  0  0  0
 18 19  1  0  0  0  0
 18 35  1  0  0  0  0
 18 36  1  0  0  0  0
 19 20  1  0  0  0  0
 19 37  1  0  0  0  0
 19 38  1  0  0  0  0
 20 21  1  0  0  0  0
 20 39  1  0  0  0  0
 20 40  1  0  0  0  0
 21 41  1  0  0  0  0
 21 42  1  0  0  0  0
 22 23  2  0  0  0  0
 22 44  1  0  0  0  0
 23 43  1  0  0  0  0
M  CHG  1  22   1
M  END
> <s_m_source_file>
AV-unprocessed.smi

> <i_m_source_file_index>
1627

> <i_lp_mmshare_version>
43012

> <i_f3d_flags>
0

> <s_epik_input>
RkMoRikoRilbQ0gyXU9bQ0BASF0oW0NIM10pQyg9TylbTkhdYzFbY0hdW2NIXWMobltjSF0xKU4yW0NIMl1bQ0gyXVtDSDJdW0NIMl1bQ0gyXTI=

> <s_epik_cmdline>
J2VwaWtfcHl0aG9uJywgJy1waCcsICc3LjAnLCAnLXRuJywgJzgnLCAnLW1hJywgJzIwMCcsICctbWV0YWxfYmluZGluZycsICctaW1hZScsICc8aW5maWxlLm1hZT4nLCAnLW9tYWUnLCAnPG91dGZpbGUubWFlPic=

> <r_lp_tautomer_probability>
0.999994

> <r_epik_Ionization_Penalty>
1.93197

> <r_epik_Ionization_Penalty_Charging>
1.93197

> <r_epik_Ionization_Penalty_Neutral>
3.16684e-06

> <r_epik_State_Penalty>
2.05557

> <r_epik_Charging_Adjusted_Penalty>
3.98754

> <i_epik_Tot_Q>
1

> <i_epik_Tot_abs_Q>
1

> <r_epik_Metal_State_Penalty>
2.08108

> <b_epik_Metal_Only>
0

> <s_lp_Force_Field>
OPLS_2005

> <r_lp_Energy>
31.3841

> <b_lp_Chiralities_Consistent>
1

> <s_lp_Variant>
AV-unprocessed.smi:1627-4

> <Gold.Version>
5.8.1

> <Gold.Id.Protein>
6NUR|6NUR_protein|mol2

> <Gold.PLP.Fitness>
45.8207

> <Gold.PLP.PLP>
-38.2573

> <Gold.PLP.part.hbond>
-2.1386

> <Gold.PLP.part.metal>
0.0000

> <Gold.PLP.part.buried>
-5.7927

> <Gold.PLP.part.nonpolar>
-32.3547

> <Gold.PLP.part.repulsive>
0.2678

> <Gold.PLP.ligand.clash>
0.0000

> <Gold.PLP.ligand.torsion>
0.5656

> <Gold.PLP.Chemscore.Hbond>
2.7225

> <Gold.PLP.Chemscore.CHOScore>
0.0000

> <Gold.PLP.Chemscore.Metal>
0.0000

> <Gold.Chemscore.Hbonds>
donor molecule, donor type, donor heavy atom, donor atom, acceptor molecule, acceptor atom, score
      L1  H    22    44       P1 10957  2.00
      P1  H 11000 11005       L1    10  1.00

> <Gold.PLP.Chemscore.Internal.Correction>
0.5271

> <Gold.Rescore>
     Score         DG    S(hbond)    S(metal)    S(lipo)     H(rot)  DE(clash)    DE(int)     intcor
     14.37     -16.60       1.93        0.00      81.45       1.90       0.06       2.16       ----

> <Gold.Chemscore.Fitness>
14.3741

> <Gold.Chemscore.DG>
-16.5971

> <Gold.Chemscore.ZeroCoef>
-5.4800

> <Gold.Chemscore.Hbond>
1.9319

> <Gold.Chemscore.Metal>
0.0000

> <Gold.Chemscore.Lipo>
81.4544

> <Gold.Chemscore.Internal_Hbond>
0.0000

> <Gold.Chemscore.DEClash>
0.0624

> <Gold.Chemscore.DEInternal>
2.1606

> <Gold.Chemscore.Rot>
1.9007

> <Gold.Chemscore.Internal.Correction>
   9.000000E+99

> <Gold.Chemscore.Hbonds>
donor molecule, donor type, donor heavy atom, donor atom, acceptor molecule, acceptor atom, score
      L1  H    22    44       P1 10957  0.97
      P1  H 11000 11005       L1    10  0.97

> <Gold.Chemscore.Hbond.Weighted>
-6.4527

> <Gold.Chemscore.Metal.Weighted>
-0.0000

> <Gold.Chemscore.Lipo.Weighted>
-9.5302

> <Gold.Chemscore.Internal_Hbond.Weighted>
0.0000

> <Gold.Chemscore.DEClash.Weighted>
0.0624

> <Gold.Chemscore.DEInternal.Weighted>
2.1606

> <Gold.Chemscore.Rot.Weighted>
4.8657

> <Gold.Chemscore.Internal.Correction.Weighted>
   9.000000E+99

> <Gold.Protein.RotatedTorsions>
[ 6907 6896 6895 6894 ] final  150.42 input  -60.11 | X-H torsion
[ 7974 7965 7964 7962 ] final  -23.70 input  175.53 | X-H torsion
[ 8008 7997 7996 7995 ] final -158.29 input   59.86 | X-H torsion
[ 10167 10162 10161 10158 ] final  -99.18 input  -65.29 | X-H torsion
[ 10718 10713 10712 10709 ] final   99.23 input   66.30 | X-H torsion
[ 10763 10752 10751 10750 ] final   43.24 input  -60.55 | X-H torsion
[ 11005 11000 10999 10996 ] final   57.70 input  -57.11 | X-H torsion

> <Gold.Protein.ActiveResidues>
 VAL166  LYS551  ARG553  GLY616  TRP617  ASP618  TYR619  PRO620  LYS621  CYS622 
 ASP623  PHE694  ASN695  SER759  ASP760  ASP761  ALA762  ILE779  LEU786  VAL792 
 PHE793  MET794  SER795  GLU796  ALA797  LYS798  CYS799  TRP800  GLU811  SER814 

> <Gold.Protein.RotatedAtoms>
  152.1146  133.4319  159.4646 H   0  0  0  0  0  0  0  0  0  0  0  0  # atno 6907 bound_to 6896
  150.6869  134.2607  159.4557 H   0  0  0  0  0  0  0  0  0  0  0  0  # atno 6908 bound_to 6896
  152.0479  134.9671  160.0625 H   0  0  0  0  0  0  0  0  0  0  0  0  # atno 6909 bound_to 6896
  146.1600  140.4652  142.8575 H   0  0  0  0  0  0  0  0  0  0  0  0  # atno 7974 bound_to 7965
  155.7454  140.0819  157.2226 H   0  0  0  0  0  0  0  0  0  0  0  0  # atno 8008 bound_to 7997
  154.4017  140.1570  156.2719 H   0  0  0  0  0  0  0  0  0  0  0  0  # atno 8009 bound_to 7997
  155.8981  140.3411  155.6008 H   0  0  0  0  0  0  0  0  0  0  0  0  # atno 8010 bound_to 7997
  140.2652  143.3381  152.0588 H   0  0  0  0  0  0  0  0  0  0  0  0  # atno 10167 bound_to 10162
  157.6880  131.0663  150.4917 H   0  0  0  0  0  0  0  0  0  0  0  0  # atno 10718 bound_to 10713
  152.9865  135.6107  154.3079 H   0  0  0  0  0  0  0  0  0  0  0  0  # atno 10763 bound_to 10752
  154.2796  135.2777  155.2705 H   0  0  0  0  0  0  0  0  0  0  0  0  # atno 10764 bound_to 10752
  154.5050  135.5856  153.6617 H   0  0  0  0  0  0  0  0  0  0  0  0  # atno 10765 bound_to 10752
  140.0433  134.5842  155.9354 H   0  0  0  0  0  0  0  0  0  0  0  0  # atno 11005 bound_to 11000
  144.8014  140.6220  143.6476 LP  0  0  0  0  0  0  0  0  0  0  0  0  # atno 17320 bound_to 7965
  145.4613  139.1512  143.3865 LP  0  0  0  0  0  0  0  0  0  0  0  0  # atno 17321 bound_to 7965
  139.5005  144.6693  151.6282 LP  0  0  0  0  0  0  0  0  0  0  0  0  # atno 17342 bound_to 10162
  140.5934  143.9739  150.6339 LP  0  0  0  0  0  0  0  0  0  0  0  0  # atno 17343 bound_to 10162
  156.5243  130.4169  149.6234 LP  0  0  0  0  0  0  0  0  0  0  0  0  # atno 17370 bound_to 10713
  156.3126  130.7237  151.2133 LP  0  0  0  0  0  0  0  0  0  0  0  0  # atno 17371 bound_to 10713
  141.1894  133.6565  156.5366 LP  0  0  0  0  0  0  0  0  0  0  0  0  # atno 17394 bound_to 11000
  140.4034  134.7336  157.4793 LP  0  0  0  0  0  0  0  0  0  0  0  0  # atno 17395 bound_to 11000

$$$$
