AV-unprocessed.smi:2889|AV-procd|sdf|11114|dock8
  -GOLD-   2272015583D 1   1.00000     0.00000
 Structure written by MMmdl.
 35 36  0  0  0  0  0  0  0  0  2 V2000
  152.2944  138.6072  154.6231 C   0  0  0  0  0  0  0  0  0  0  0  0
  150.5330  138.2514  154.8796 S   0  0  0  0  0  0  0  0  0  0  0  0
  149.9384  139.8198  155.6006 C   0  0  2  0  0  0  0  0  0  0  0  0
  151.1065  140.8349  155.7369 C   0  0  0  0  0  0  0  0  0  0  0  0
  150.6476  142.2081  156.2704 C   0  0  0  0  0  0  0  0  0  0  0  0
  149.8775  142.0231  157.5936 C   0  0  0  0  0  0  0  0  0  0  0  0
  148.7117  141.0076  157.4704 C   0  0  0  0  0  0  0  0  0  0  0  0
  149.1357  139.6204  156.9219 C   0  0  2  0  0  0  0  0  0  0  0  0
  149.9373  138.9160  157.9154 N   0  5  0  0  0  0  0  0  0  0  0  0
  149.6333  137.3584  158.2447 S   0  0  0  0  0  0  0  0  0  0  0  0
  149.6876  136.4998  157.0494 O   0  0  0  0  0  0  0  0  0  0  0  0
  150.3614  136.8935  159.4365 O   0  0  0  0  0  0  0  0  0  0  0  0
  147.8581  137.4544  158.7454 C   0  0  0  0  0  0  0  0  0  0  0  0
  147.6387  136.7588  160.0609 C   0  0  0  0  0  0  0  0  0  0  0  0
  147.9137  135.4052  160.4014 C   0  0  0  0  0  0  0  0  0  0  0  0
  147.5249  135.3190  161.7068 C   0  0  0  0  0  0  0  0  0  0  0  0
  147.0603  136.5159  162.1448 O   0  0  0  0  0  0  0  0  0  0  0  0
  147.1422  137.4306  161.0889 N   0  0  0  0  0  0  0  0  0  0  0  0
  152.7994  137.7235  154.2339 H   0  0  0  0  0  0  0  0  0  0  0  0
  152.7681  138.8883  155.5635 H   0  0  0  0  0  0  0  0  0  0  0  0
  152.4279  139.4182  153.9074 H   0  0  0  0  0  0  0  0  0  0  0  0
  149.2525  140.2424  154.8654 H   0  0  0  0  0  0  0  0  0  0  0  0
  151.8844  140.4338  156.3899 H   0  0  0  0  0  0  0  0  0  0  0  0
  151.5808  140.9736  154.7650 H   0  0  0  0  0  0  0  0  0  0  0  0
  151.5052  142.8650  156.4177 H   0  0  0  0  0  0  0  0  0  0  0  0
  150.0032  142.6909  155.5349 H   0  0  0  0  0  0  0  0  0  0  0  0
  150.5704  141.7065  158.3759 H   0  0  0  0  0  0  0  0  0  0  0  0
  149.4848  142.9861  157.9205 H   0  0  0  0  0  0  0  0  0  0  0  0
  148.2143  140.8996  158.4348 H   0  0  0  0  0  0  0  0  0  0  0  0
  147.9611  141.4281  156.8001 H   0  0  0  0  0  0  0  0  0  0  0  0
  148.2313  139.0596  156.6831 H   0  0  0  0  0  0  0  0  0  0  0  0
  147.5983  138.5087  158.8321 H   0  0  0  0  0  0  0  0  0  0  0  0
  147.2457  137.0316  157.9486 H   0  0  0  0  0  0  0  0  0  0  0  0
  148.3220  134.6214  159.7812 H   0  0  0  0  0  0  0  0  0  0  0  0
  147.5189  134.5147  162.4272 H   0  0  0  0  0  0  0  0  0  0  0  0
  1  2  1  0  0  0  0
  1 19  1  0  0  0  0
  1 20  1  0  0  0  0
  1 21  1  0  0  0  0
  2  3  1  0  0  0  0
  3  8  1  0  0  0  0
  3  4  1  0  0  0  0
  3 22  1  0  0  0  0
  4  5  1  0  0  0  0
  4 23  1  0  0  0  0
  4 24  1  0  0  0  0
  5  6  1  0  0  0  0
  5 25  1  0  0  0  0
  5 26  1  0  0  0  0
  6  7  1  0  0  0  0
  6 27  1  0  0  0  0
  6 28  1  0  0  0  0
  7  8  1  0  0  0  0
  7 29  1  0  0  0  0
  7 30  1  0  0  0  0
  8  9  1  0  0  0  0
  8 31  1  0  0  0  0
  9 10  1  0  0  0  0
 10 11  2  0  0  0  0
 10 12  2  0  0  0  0
 10 13  1  0  0  0  0
 13 14  1  0  0  0  0
 13 32  1  0  0  0  0
 13 33  1  0  0  0  0
 14 18  2  0  0  0  0
 14 15  1  0  0  0  0
 15 16  2  0  0  0  0
 15 34  1  0  0  0  0
 16 17  1  0  0  0  0
 16 35  1  0  0  0  0
 17 18  1  0  0  0  0
M  CHG  1   9  -1
M  END
> <s_m_source_file>
AV-unprocessed.smi

> <i_m_source_file_index>
2889

> <i_lp_mmshare_version>
43012

> <i_f3d_flags>
0

> <s_epik_input>
W0NIM11TW0NAQEhdMVtDSDJdW0NIMl1bQ0gyXVtDSDJdW0NASF0xW05IXVMoPU8pKD1PKVtDSDJdYzJbY0hdW2NIXW9uMg==

> <s_epik_cmdline>
J2VwaWtfcHl0aG9uJywgJy1waCcsICc3LjAnLCAnLXRuJywgJzgnLCAnLW1hJywgJzIwMCcsICctbWV0YWxfYmluZGluZycsICctaW1hZScsICc8aW5maWxlLm1hZT4nLCAnLW9tYWUnLCAnPG91dGZpbGUubWFlPic=

> <r_lp_tautomer_probability>
1

> <r_epik_Ionization_Penalty>
4.65467

> <r_epik_Ionization_Penalty_Charging>
4.65467

> <r_epik_Ionization_Penalty_Neutral>
2.71476e-10

> <r_epik_State_Penalty>
4.65444

> <r_epik_Charging_Adjusted_Penalty>
9.30911

> <i_epik_Tot_Q>
-1

> <i_epik_Tot_abs_Q>
1

> <r_epik_Metal_State_Penalty>
0.901484

> <b_epik_Metal_Only>
1

> <s_lp_Force_Field>
OPLS_2005

> <r_lp_Energy>
12.0464

> <b_lp_Chiralities_Consistent>
1

> <s_lp_Variant>
AV-unprocessed.smi:2889-7

> <Gold.Version>
5.8.1

> <Gold.Id.Protein>
6NUR|6NUR_protein|mol2

> <Gold.PLP.Fitness>
35.1537

> <Gold.PLP.PLP>
-28.7159

> <Gold.PLP.part.hbond>
-3.0000

> <Gold.PLP.part.metal>
0.0000

> <Gold.PLP.part.buried>
-5.8928

> <Gold.PLP.part.nonpolar>
-20.2730

> <Gold.PLP.part.repulsive>
0.0000

> <Gold.PLP.ligand.clash>
0.0000

> <Gold.PLP.ligand.torsion>
1.5840

> <Gold.PLP.Chemscore.Hbond>
2.8560

> <Gold.PLP.Chemscore.CHOScore>
0.0000

> <Gold.PLP.Chemscore.Metal>
0.0000

> <Gold.Chemscore.Hbonds>
donor molecule, donor type, donor heavy atom, donor atom, acceptor molecule, acceptor atom, score
      P1  H  6896  6909       L1    12  1.00
      P1  H  6931  6943       L1    18  0.20
      P1  H  6934  6947       L1    18  1.00

> <Gold.PLP.Chemscore.Internal.Correction>
1.0378

> <Gold.Rescore>
     Score         DG    S(hbond)    S(metal)    S(lipo)     H(rot)  DE(clash)    DE(int)     intcor
     13.03     -15.76       2.00        0.00      64.35       1.53       0.00       2.72       ----

> <Gold.Chemscore.Fitness>
13.0334

> <Gold.Chemscore.DG>
-15.7569

> <Gold.Chemscore.ZeroCoef>
-5.4800

> <Gold.Chemscore.Hbond>
1.9966

> <Gold.Chemscore.Metal>
0.0000

> <Gold.Chemscore.Lipo>
64.3466

> <Gold.Chemscore.Internal_Hbond>
0.0000

> <Gold.Chemscore.DEClash>
0.0029

> <Gold.Chemscore.DEInternal>
2.7206

> <Gold.Chemscore.Rot>
1.5314

> <Gold.Chemscore.Internal.Correction>
   9.000000E+99

> <Gold.Chemscore.Hbonds>
donor molecule, donor type, donor heavy atom, donor atom, acceptor molecule, acceptor atom, score
      P1  H  6896  6909       L1    12  0.95
      P1  H  6934  6947       L1    18  0.89

> <Gold.Chemscore.Hbond.Weighted>
-6.6688

> <Gold.Chemscore.Metal.Weighted>
-0.0000

> <Gold.Chemscore.Lipo.Weighted>
-7.5286

> <Gold.Chemscore.Internal_Hbond.Weighted>
0.0000

> <Gold.Chemscore.DEClash.Weighted>
0.0029

> <Gold.Chemscore.DEInternal.Weighted>
2.7206

> <Gold.Chemscore.Rot.Weighted>
3.9205

> <Gold.Chemscore.Internal.Correction.Weighted>
   9.000000E+99

> <Gold.Protein.RotatedTorsions>
[ 6907 6896 6895 6894 ] final   87.29 input  -60.11 | X-H torsion
[ 7974 7965 7964 7962 ] final -174.49 input  175.53 | X-H torsion
[ 8008 7997 7996 7995 ] final   96.02 input   59.86 | X-H torsion
[ 10167 10162 10161 10158 ] final   61.88 input  -65.29 | X-H torsion
[ 10718 10713 10712 10709 ] final -110.11 input   66.30 | X-H torsion
[ 10763 10752 10751 10750 ] final  -53.56 input  -60.55 | X-H torsion
[ 11005 11000 10999 10996 ] final  127.79 input  -57.11 | X-H torsion

> <Gold.Protein.ActiveResidues>
 VAL166  LYS551  ARG553  GLY616  TRP617  ASP618  TYR619  PRO620  LYS621  CYS622 
 ASP623  PHE694  ASN695  SER759  ASP760  ASP761  ALA762  ILE779  LEU786  VAL792 
 PHE793  MET794  SER795  GLU796  ALA797  LYS798  CYS799  TRP800  GLU811  SER814 

> <Gold.Protein.RotatedAtoms>
  152.5409  134.2299  159.8820 H   0  0  0  0  0  0  0  0  0  0  0  0  # atno 6907 bound_to 6896
  151.2272  133.4463  159.2610 H   0  0  0  0  0  0  0  0  0  0  0  0  # atno 6908 bound_to 6896
  151.0750  134.9836  159.8383 H   0  0  0  0  0  0  0  0  0  0  0  0  # atno 6909 bound_to 6896
  144.7132  140.1463  143.6388 H   0  0  0  0  0  0  0  0  0  0  0  0  # atno 7974 bound_to 7965
  156.0751  140.3278  155.7624 H   0  0  0  0  0  0  0  0  0  0  0  0  # atno 8008 bound_to 7997
  155.5243  140.0588  157.2918 H   0  0  0  0  0  0  0  0  0  0  0  0  # atno 8009 bound_to 7997
  154.4551  140.1938  156.0421 H   0  0  0  0  0  0  0  0  0  0  0  0  # atno 8010 bound_to 7997
  140.1499  144.4472  150.6765 H   0  0  0  0  0  0  0  0  0  0  0  0  # atno 10167 bound_to 10162
  156.0573  130.5798  150.8192 H   0  0  0  0  0  0  0  0  0  0  0  0  # atno 10718 bound_to 10713
  154.1608  135.6475  153.4985 H   0  0  0  0  0  0  0  0  0  0  0  0  # atno 10763 bound_to 10752
  153.0111  135.5360  154.6713 H   0  0  0  0  0  0  0  0  0  0  0  0  # atno 10764 bound_to 10752
  154.6026  135.2945  155.0491 H   0  0  0  0  0  0  0  0  0  0  0  0  # atno 10765 bound_to 10752
  139.9526  134.9619  156.8907 H   0  0  0  0  0  0  0  0  0  0  0  0  # atno 11005 bound_to 11000
  145.9156  139.2514  143.1411 LP  0  0  0  0  0  0  0  0  0  0  0  0  # atno 17320 bound_to 7965
  145.9672  140.8789  143.0181 LP  0  0  0  0  0  0  0  0  0  0  0  0  # atno 17321 bound_to 7965
  140.6709  143.2285  151.5628 LP  0  0  0  0  0  0  0  0  0  0  0  0  # atno 17342 bound_to 10162
  139.5431  144.2594  152.1389 LP  0  0  0  0  0  0  0  0  0  0  0  0  # atno 17343 bound_to 10162
  157.5553  131.0945  150.9637 LP  0  0  0  0  0  0  0  0  0  0  0  0  # atno 17370 bound_to 10713
  156.9887  130.5555  149.5301 LP  0  0  0  0  0  0  0  0  0  0  0  0  # atno 17371 bound_to 10713
  140.5683  134.0468  155.7422 LP  0  0  0  0  0  0  0  0  0  0  0  0  # atno 17394 bound_to 11000
  141.1192  133.9489  157.2763 LP  0  0  0  0  0  0  0  0  0  0  0  0  # atno 17395 bound_to 11000

$$$$
