AV-unprocessed.smi:1712|AV-procd|sdf|6903|dock1
  -GOLD-   22720 8103D 1   1.00000     0.00000
 Structure written by MMmdl.
 38 39  0  0  0  0  0  0  0  0  2 V2000
  146.8129  139.6564  151.2915 C   0  0  0  0  0  0  0  0  0  0  0  0
  146.7697  139.3790  152.8148 C   0  0  2  0  0  0  0  0  0  0  0  0
  145.9109  138.1192  153.1219 C   0  0  0  0  0  0  0  0  0  0  0  0
  146.3221  136.9348  152.3706 N   0  0  0  0  0  0  0  0  0  0  0  0
  145.5067  135.9473  151.9711 C   0  0  0  0  0  0  0  0  0  0  0  0
  144.2918  135.9466  152.1697 O   0  0  0  0  0  0  0  0  0  0  0  0
  146.1853  134.9807  151.3314 N   0  0  0  0  0  0  0  0  0  0  0  0
  145.6581  133.7978  150.7540 C   0  0  0  0  0  0  0  0  0  0  0  0
  144.2868  133.5902  150.4431 C   0  0  0  0  0  0  0  0  0  0  0  0
  144.0865  132.3912  149.9151 N   0  0  0  0  0  0  0  0  0  0  0  0
  145.3169  131.8314  149.8856 N   0  0  0  0  0  0  0  0  0  0  0  0
  146.3043  132.6508  150.3862 C   0  0  0  0  0  0  0  0  0  0  0  0
  146.3017  140.5836  153.5821 N   0  3  0  0  0  0  0  0  0  0  0  0
  146.3842  140.4295  155.0630 C   0  0  0  0  0  0  0  0  0  0  0  0
  145.9013  141.6921  155.7963 C   0  0  0  0  0  0  0  0  0  0  0  0
  146.6542  142.8142  155.3670 O   0  0  0  0  0  0  0  0  0  0  0  0
  146.4672  143.0537  153.9821 C   0  0  0  0  0  0  0  0  0  0  0  0
  146.9761  141.8489  153.1732 C   0  0  0  0  0  0  0  0  0  0  0  0
  145.4652  130.8995  149.5251 H   0  0  0  0  0  0  0  0  0  0  0  0
  147.1264  138.7809  150.7253 H   0  0  0  0  0  0  0  0  0  0  0  0
  147.5327  140.4282  151.0251 H   0  0  0  0  0  0  0  0  0  0  0  0
  145.8346  139.9573  150.9156 H   0  0  0  0  0  0  0  0  0  0  0  0
  147.7898  139.1643  153.1381 H   0  0  0  0  0  0  0  0  0  0  0  0
  146.0143  137.8252  154.1651 H   0  0  0  0  0  0  0  0  0  0  0  0
  144.8526  138.3364  152.9661 H   0  0  0  0  0  0  0  0  0  0  0  0
  147.3056  136.8511  152.1574 H   0  0  0  0  0  0  0  0  0  0  0  0
  147.1832  135.1044  151.2430 H   0  0  0  0  0  0  0  0  0  0  0  0
  143.4467  134.2550  150.5810 H   0  0  0  0  0  0  0  0  0  0  0  0
  147.3395  132.3470  150.4314 H   0  0  0  0  0  0  0  0  0  0  0  0
  145.7583  139.6080  155.4067 H   0  0  0  0  0  0  0  0  0  0  0  0
  147.4118  140.2014  155.3506 H   0  0  0  0  0  0  0  0  0  0  0  0
  144.8370  141.8614  155.6240 H   0  0  0  0  0  0  0  0  0  0  0  0
  146.0323  141.5725  156.8720 H   0  0  0  0  0  0  0  0  0  0  0  0
  145.4152  143.2514  153.7694 H   0  0  0  0  0  0  0  0  0  0  0  0
  147.0202  143.9512  153.7039 H   0  0  0  0  0  0  0  0  0  0  0  0
  148.0549  141.7450  153.2988 H   0  0  0  0  0  0  0  0  0  0  0  0
  146.7914  142.0711  152.1241 H   0  0  0  0  0  0  0  0  0  0  0  0
  145.3221  140.6992  153.3641 H   0  0  0  0  0  0  0  0  0  0  0  0
  1  2  1  0  0  0  0
  1 20  1  0  0  0  0
  1 21  1  0  0  0  0
  1 22  1  0  0  0  0
  2  3  1  0  0  0  0
  2 13  1  0  0  0  0
  2 23  1  0  0  0  0
  3  4  1  0  0  0  0
  3 24  1  0  0  0  0
  3 25  1  0  0  0  0
  4  5  1  0  0  0  0
  4 26  1  0  0  0  0
  5  6  2  0  0  0  0
  5  7  1  0  0  0  0
  7  8  1  0  0  0  0
  7 27  1  0  0  0  0
  8 12  2  0  0  0  0
  8  9  1  0  0  0  0
  9 10  2  0  0  0  0
  9 28  1  0  0  0  0
 10 11  1  0  0  0  0
 11 19  1  0  0  0  0
 11 12  1  0  0  0  0
 12 29  1  0  0  0  0
 13 18  1  0  0  0  0
 13 14  1  0  0  0  0
 13 38  1  0  0  0  0
 14 15  1  0  0  0  0
 14 30  1  0  0  0  0
 14 31  1  0  0  0  0
 15 16  1  0  0  0  0
 15 32  1  0  0  0  0
 15 33  1  0  0  0  0
 16 17  1  0  0  0  0
 17 18  1  0  0  0  0
 17 34  1  0  0  0  0
 17 35  1  0  0  0  0
 18 36  1  0  0  0  0
 18 37  1  0  0  0  0
M  CHG  1  13   1
M  END
> <s_m_source_file>
AV-unprocessed.smi

> <i_m_source_file_index>
1712

> <i_lp_mmshare_version>
43012

> <i_f3d_flags>
0

> <s_epik_input>
W0NIMl0xW0NIMl1PW0NIMl1bQ0gyXU4xW0NASF0oW0NIM10pW0NIMl1bTkhdQyg9TylbTkhdYzJbY0hdbltuSF1bY0hdMg==

> <s_epik_cmdline>
J2VwaWtfcHl0aG9uJywgJy1waCcsICc3LjAnLCAnLXRuJywgJzgnLCAnLW1hJywgJzIwMCcsICctbWV0YWxfYmluZGluZycsICctaW1hZScsICc8aW5maWxlLm1hZT4nLCAnLW9tYWUnLCAnPG91dGZpbGUubWFlPic=

> <r_lp_tautomer_probability>
0.5

> <r_epik_Ionization_Penalty>
0.646007

> <r_epik_Ionization_Penalty_Charging>
0.645968

> <r_epik_Ionization_Penalty_Neutral>
3.91929e-05

> <r_epik_State_Penalty>
0.664063

> <r_epik_Charging_Adjusted_Penalty>
1.31003

> <i_epik_Tot_Q>
1

> <i_epik_Tot_abs_Q>
1

> <r_epik_Metal_State_Penalty>
0.664064

> <b_epik_Metal_Only>
0

> <s_lp_Force_Field>
OPLS_2005

> <r_lp_Energy>
23.9653

> <b_lp_Chiralities_Consistent>
1

> <s_lp_Variant>
AV-unprocessed.smi:1712-3

> <Gold.Version>
5.8.1

> <Gold.Id.Protein>
6NUR|6NUR_protein|mol2

> <Gold.PLP.Fitness>
42.3747

> <Gold.PLP.PLP>
-26.2138

> <Gold.PLP.part.hbond>
-2.7805

> <Gold.PLP.part.metal>
0.0000

> <Gold.PLP.part.buried>
-2.8324

> <Gold.PLP.part.nonpolar>
-21.7985

> <Gold.PLP.part.repulsive>
1.0674

> <Gold.PLP.ligand.clash>
0.0000

> <Gold.PLP.ligand.torsion>
0.3341

> <Gold.PLP.Chemscore.Hbond>
3.6126

> <Gold.PLP.Chemscore.CHOScore>
1.9654

> <Gold.PLP.Chemscore.Metal>
0.0000

> <Gold.Chemscore.Hbonds>
donor molecule, donor type, donor heavy atom, donor atom, acceptor molecule, acceptor atom, score
      L1  H     4    26       P1  7948  1.00
      L1  H     7    27       P1  7948  0.73
      L1  H    13    38       P1 10175  2.00
      L1  C     9    28       P1 10186  0.71
      L1  C    12    29       P1 10747  1.00

> <Gold.PLP.Chemscore.Internal.Correction>
0.0950

> <Gold.Rescore>
     Score         DG    S(hbond)    S(metal)    S(lipo)     H(rot)  DE(clash)    DE(int)     intcor
     14.71     -17.70       2.70        0.00      64.11       1.68       1.42       1.57       ----

> <Gold.Chemscore.Fitness>
14.7125

> <Gold.Chemscore.DG>
-17.6965

> <Gold.Chemscore.ZeroCoef>
-5.4800

> <Gold.Chemscore.Hbond>
2.6973

> <Gold.Chemscore.Metal>
0.0000

> <Gold.Chemscore.Lipo>
64.1108

> <Gold.Chemscore.Internal_Hbond>
0.0000

> <Gold.Chemscore.DEClash>
1.4187

> <Gold.Chemscore.DEInternal>
1.5654

> <Gold.Chemscore.Rot>
1.6771

> <Gold.Chemscore.Internal.Correction>
   9.000000E+99

> <Gold.Chemscore.Hbonds>
donor molecule, donor type, donor heavy atom, donor atom, acceptor molecule, acceptor atom, score
      L1  H     4    26       P1  7948  1.00
      L1  H     7    27       P1  7948  0.49
      L1  H    13    38       P1 10175  0.88

> <Gold.Chemscore.Hbond.Weighted>
-9.0091

> <Gold.Chemscore.Metal.Weighted>
-0.0000

> <Gold.Chemscore.Lipo.Weighted>
-7.5010

> <Gold.Chemscore.Internal_Hbond.Weighted>
0.0000

> <Gold.Chemscore.DEClash.Weighted>
1.4187

> <Gold.Chemscore.DEInternal.Weighted>
1.5654

> <Gold.Chemscore.Rot.Weighted>
4.2935

> <Gold.Chemscore.Internal.Correction.Weighted>
   9.000000E+99

> <Gold.Protein.RotatedTorsions>
[ 6907 6896 6895 6894 ] final  -52.64 input  -60.11 | X-H torsion
[ 7974 7965 7964 7962 ] final   87.68 input  175.53 | X-H torsion
[ 8008 7997 7996 7995 ] final  -81.15 input   59.86 | X-H torsion
[ 10167 10162 10161 10158 ] final -102.92 input  -65.29 | X-H torsion
[ 10718 10713 10712 10709 ] final  -31.38 input   66.30 | X-H torsion
[ 10763 10752 10751 10750 ] final -102.21 input  -60.55 | X-H torsion
[ 11005 11000 10999 10996 ] final   89.20 input  -57.11 | X-H torsion

> <Gold.Protein.ActiveResidues>
 VAL166  LYS551  ARG553  GLY616  TRP617  ASP618  TYR619  PRO620  LYS621  CYS622 
 ASP623  PHE694  ASN695  SER759  ASP760  ASP761  ALA762  ILE779  LEU786  VAL792 
 PHE793  MET794  SER795  GLU796  ALA797  LYS798  CYS799  TRP800  GLU811  SER814 

> <Gold.Protein.RotatedAtoms>
  150.8499  134.7821  159.7000 H   0  0  0  0  0  0  0  0  0  0  0  0  # atno 6907 bound_to 6896
  152.4567  134.5273  159.9810 H   0  0  0  0  0  0  0  0  0  0  0  0  # atno 6908 bound_to 6896
  151.5396  133.3397  159.2968 H   0  0  0  0  0  0  0  0  0  0  0  0  # atno 6909 bound_to 6896
  145.5558  139.2299  143.2487 H   0  0  0  0  0  0  0  0  0  0  0  0  # atno 7974 bound_to 7965
  154.5954  140.0652  156.9296 H   0  0  0  0  0  0  0  0  0  0  0  0  # atno 8008 bound_to 7997
  155.2223  140.3331  155.4296 H   0  0  0  0  0  0  0  0  0  0  0  0  # atno 8009 bound_to 7997
  156.2284  140.1829  156.7290 H   0  0  0  0  0  0  0  0  0  0  0  0  # atno 8010 bound_to 7997
  140.2255  143.3645  152.0932 H   0  0  0  0  0  0  0  0  0  0  0  0  # atno 10167 bound_to 10162
  156.3879  130.4367  149.7417 H   0  0  0  0  0  0  0  0  0  0  0  0  # atno 10718 bound_to 10713
  154.7716  135.4869  153.9661 H   0  0  0  0  0  0  0  0  0  0  0  0  # atno 10763 bound_to 10752
  153.1376  135.6766  153.9086 H   0  0  0  0  0  0  0  0  0  0  0  0  # atno 10764 bound_to 10752
  153.8771  135.3136  155.3422 H   0  0  0  0  0  0  0  0  0  0  0  0  # atno 10765 bound_to 10752
  139.8880  134.8536  156.3108 H   0  0  0  0  0  0  0  0  0  0  0  0  # atno 11005 bound_to 11000
  146.1885  140.6382  142.9156 LP  0  0  0  0  0  0  0  0  0  0  0  0  # atno 17320 bound_to 7965
  144.7507  140.5183  143.6804 LP  0  0  0  0  0  0  0  0  0  0  0  0  # atno 17321 bound_to 7965
  139.5129  144.6923  151.5725 LP  0  0  0  0  0  0  0  0  0  0  0  0  # atno 17342 bound_to 10162
  140.6224  143.9234  150.6536 LP  0  0  0  0  0  0  0  0  0  0  0  0  # atno 17343 bound_to 10162
  156.4482  130.7894  151.2915 LP  0  0  0  0  0  0  0  0  0  0  0  0  # atno 17370 bound_to 10713
  157.7497  131.0104  150.3303 LP  0  0  0  0  0  0  0  0  0  0  0  0  # atno 17371 bound_to 10713
  140.9851  133.7243  156.0730 LP  0  0  0  0  0  0  0  0  0  0  0  0  # atno 17394 bound_to 11000
  140.7698  134.3845  157.5510 LP  0  0  0  0  0  0  0  0  0  0  0  0  # atno 17395 bound_to 11000

$$$$
