AV-unprocessed.smi:1390|AV-procd|sdf|5657|dock3
  -GOLD-   22720 5283D 1   1.00000     0.00000
 Structure written by MMmdl.
 44 45  0  0  0  0  0  0  0  0  1 V2000
  151.4878  145.2625  159.2076 C   0  0  0  0  0  0  0  0  0  0  0  0
  151.6171  143.7458  159.3818 C   0  0  1  0  0  0  0  0  0  0  0  0
  151.7160  143.0162  158.0288 C   0  0  0  0  0  0  0  0  0  0  0  0
  151.9457  141.5863  158.2304 N   0  0  0  0  0  0  0  0  0  0  0  0
  151.8057  140.7311  157.1146 C   0  0  0  0  0  0  0  0  0  0  0  0
  150.5795  140.6713  156.4087 C   0  0  0  0  0  0  0  0  0  0  0  0
  150.4631  139.8057  155.3041 C   0  0  0  0  0  0  0  0  0  0  0  0
  151.5747  139.0272  154.9279 C   0  0  0  0  0  0  0  0  0  0  0  0
  151.4959  138.0702  153.7553 C   0  0  0  0  0  0  0  0  0  0  0  0
  150.7205  136.8830  154.0875 N   0  0  0  0  0  0  0  0  0  0  0  0
  151.0504  135.9810  155.0243 C   0  0  0  0  0  0  0  0  0  0  0  0
  152.0857  136.0388  155.6872 O   0  0  0  0  0  0  0  0  0  0  0  0
  150.0716  134.8268  155.2389 C   0  0  0  0  0  0  0  0  0  0  0  0
  150.5197  133.6913  154.5140 O   0  0  0  0  0  0  0  0  0  0  0  0
  149.6618  133.3509  153.4370 C   0  0  0  0  0  0  0  0  0  0  0  0
  149.0270  131.9805  153.7041 C   0  0  0  0  0  0  0  0  0  0  0  0
  148.4858  131.9762  154.9215 F   0  0  0  0  0  0  0  0  0  0  0  0
  148.0710  131.7332  152.8089 F   0  0  0  0  0  0  0  0  0  0  0  0
  149.9534  131.0241  153.6452 F   0  0  0  0  0  0  0  0  0  0  0  0
  152.7577  139.1548  155.6822 C   0  0  0  0  0  0  0  0  0  0  0  0
  152.8733  139.9815  156.7425 N   0  0  0  0  0  0  0  0  0  0  0  0
  153.0764  141.3038  159.1113 C   0  0  0  0  0  0  0  0  0  0  0  0
  152.9432  142.0927  160.4250 C   0  0  0  0  0  0  0  0  0  0  0  0
  152.7919  143.4797  160.1424 O   0  0  0  0  0  0  0  0  0  0  0  0
  150.5953  145.5165  158.6351 H   0  0  0  0  0  0  0  0  0  0  0  0
  152.3502  145.6744  158.6829 H   0  0  0  0  0  0  0  0  0  0  0  0
  151.4159  145.7612  160.1745 H   0  0  0  0  0  0  0  0  0  0  0  0
  150.7459  143.3840  159.9311 H   0  0  0  0  0  0  0  0  0  0  0  0
  150.7942  143.1736  157.4674 H   0  0  0  0  0  0  0  0  0  0  0  0
  152.5341  143.4299  157.4368 H   0  0  0  0  0  0  0  0  0  0  0  0
  149.7359  141.2835  156.6902 H   0  0  0  0  0  0  0  0  0  0  0  0
  149.5352  139.7431  154.7547 H   0  0  0  0  0  0  0  0  0  0  0  0
  151.0286  138.5754  152.9091 H   0  0  0  0  0  0  0  0  0  0  0  0
  152.5064  137.7998  153.4436 H   0  0  0  0  0  0  0  0  0  0  0  0
  149.8510  136.7506  153.5911 H   0  0  0  0  0  0  0  0  0  0  0  0
  150.0147  134.6034  156.3051 H   0  0  0  0  0  0  0  0  0  0  0  0
  149.0760  135.1220  154.9031 H   0  0  0  0  0  0  0  0  0  0  0  0
  148.8822  134.1064  153.3281 H   0  0  0  0  0  0  0  0  0  0  0  0
  150.2258  133.3256  152.5034 H   0  0  0  0  0  0  0  0  0  0  0  0
  153.6351  138.5754  155.4347 H   0  0  0  0  0  0  0  0  0  0  0  0
  153.1549  140.2430  159.3449 H   0  0  0  0  0  0  0  0  0  0  0  0
  153.9978  141.5846  158.5999 H   0  0  0  0  0  0  0  0  0  0  0  0
  152.0942  141.7346  161.0095 H   0  0  0  0  0  0  0  0  0  0  0  0
  153.8329  141.9514  161.0385 H   0  0  0  0  0  0  0  0  0  0  0  0
  1  2  1  0  0  0  0
  1 25  1  0  0  0  0
  1 26  1  0  0  0  0
  1 27  1  0  0  0  0
  2 24  1  0  0  0  0
  2  3  1  0  0  0  0
  2 28  1  0  0  0  0
  3  4  1  0  0  0  0
  3 29  1  0  0  0  0
  3 30  1  0  0  0  0
  4  5  1  0  0  0  0
  4 22  1  0  0  0  0
  5 21  1  0  0  0  0
  5  6  2  0  0  0  0
  6  7  1  0  0  0  0
  6 31  1  0  0  0  0
  7  8  2  0  0  0  0
  7 32  1  0  0  0  0
  8  9  1  0  0  0  0
  8 20  1  0  0  0  0
  9 10  1  0  0  0  0
  9 33  1  0  0  0  0
  9 34  1  0  0  0  0
 10 11  1  0  0  0  0
 10 35  1  0  0  0  0
 11 12  2  0  0  0  0
 11 13  1  0  0  0  0
 13 14  1  0  0  0  0
 13 36  1  0  0  0  0
 13 37  1  0  0  0  0
 14 15  1  0  0  0  0
 15 16  1  0  0  0  0
 15 38  1  0  0  0  0
 15 39  1  0  0  0  0
 16 17  1  0  0  0  0
 16 18  1  0  0  0  0
 16 19  1  0  0  0  0
 20 21  2  0  0  0  0
 20 40  1  0  0  0  0
 22 23  1  0  0  0  0
 22 41  1  0  0  0  0
 22 42  1  0  0  0  0
 23 24  1  0  0  0  0
 23 43  1  0  0  0  0
 23 44  1  0  0  0  0
M  END
> <s_m_source_file>
AV-unprocessed.smi

> <i_m_source_file_index>
1390

> <i_lp_mmshare_version>
43012

> <i_f3d_flags>
0

> <s_epik_input>
W0NIM11bQ0BASF0xW0NIMl1OKFtDSDJdW0NIMl1PMSljMltjSF1bY0hdYyhbY0hdbjIpW0NIMl1bTkhdQyg9TylbQ0gyXU9bQ0gyXUMoRikoRilG

> <s_epik_cmdline>
J2VwaWtfcHl0aG9uJywgJy1waCcsICc3LjAnLCAnLXRuJywgJzgnLCAnLW1hJywgJzIwMCcsICctbWV0YWxfYmluZGluZycsICctaW1hZScsICc8aW5maWxlLm1hZT4nLCAnLW9tYWUnLCAnPG91dGZpbGUubWFlPic=

> <r_lp_tautomer_probability>
1

> <r_epik_Ionization_Penalty>
0.00481831

> <r_epik_Ionization_Penalty_Charging>
0

> <r_epik_Ionization_Penalty_Neutral>
0.00481831

> <r_epik_State_Penalty>
0.00349373

> <r_epik_Charging_Adjusted_Penalty>
0.00349373

> <i_epik_Tot_Q>
0

> <i_epik_Tot_abs_Q>
0

> <r_epik_Metal_State_Penalty>
-0

> <b_epik_Metal_Only>
0

> <s_lp_Force_Field>
OPLS_2005

> <r_lp_Energy>
17.1102

> <b_lp_Chiralities_Consistent>
1

> <s_lp_Variant>
AV-unprocessed.smi:1390-2

> <Gold.Version>
5.8.1

> <Gold.Id.Protein>
6NUR|6NUR_protein|mol2

> <Gold.PLP.Fitness>
53.1527

> <Gold.PLP.PLP>
-47.2129

> <Gold.PLP.part.hbond>
-4.0000

> <Gold.PLP.part.metal>
0.0000

> <Gold.PLP.part.buried>
-3.4106

> <Gold.PLP.part.nonpolar>
-40.0808

> <Gold.PLP.part.repulsive>
0.1946

> <Gold.PLP.ligand.clash>
0.0000

> <Gold.PLP.ligand.torsion>
1.5170

> <Gold.PLP.Chemscore.Hbond>
2.8460

> <Gold.PLP.Chemscore.CHOScore>
0.0000

> <Gold.PLP.Chemscore.Metal>
0.0000

> <Gold.Chemscore.Hbonds>
donor molecule, donor type, donor heavy atom, donor atom, acceptor molecule, acceptor atom, score
      L1  H    10    35       P1  7948  0.91
      P1  H  7997  8009       L1    21  0.83
      P1  H 10752 10764       L1    12  0.63

> <Gold.PLP.Chemscore.Internal.Correction>
0.4358

> <Gold.Rescore>
     Score         DG    S(hbond)    S(metal)    S(lipo)     H(rot)  DE(clash)    DE(int)     intcor
     16.76     -18.29       2.12        0.00     105.23       2.57       0.22       1.31       ----

> <Gold.Chemscore.Fitness>
16.7626

> <Gold.Chemscore.DG>
-18.2918

> <Gold.Chemscore.ZeroCoef>
-5.4800

> <Gold.Chemscore.Hbond>
2.1161

> <Gold.Chemscore.Metal>
0.0000

> <Gold.Chemscore.Lipo>
105.2309

> <Gold.Chemscore.Internal_Hbond>
0.0000

> <Gold.Chemscore.DEClash>
0.2156

> <Gold.Chemscore.DEInternal>
1.3136

> <Gold.Chemscore.Rot>
2.5657

> <Gold.Chemscore.Internal.Correction>
   9.000000E+99

> <Gold.Chemscore.Hbonds>
donor molecule, donor type, donor heavy atom, donor atom, acceptor molecule, acceptor atom, score
      L1  H    10    35       P1  7948  0.34
      P1  H  7997  8009       L1    21  0.21
      P1  H 10752 10764       L1    12  0.59

> <Gold.Chemscore.Hbond.Weighted>
-7.0679

> <Gold.Chemscore.Metal.Weighted>
-0.0000

> <Gold.Chemscore.Lipo.Weighted>
-12.3120

> <Gold.Chemscore.Internal_Hbond.Weighted>
0.0000

> <Gold.Chemscore.DEClash.Weighted>
0.2156

> <Gold.Chemscore.DEInternal.Weighted>
1.3136

> <Gold.Chemscore.Rot.Weighted>
6.5682

> <Gold.Chemscore.Internal.Correction.Weighted>
   9.000000E+99

> <Gold.Protein.RotatedTorsions>
[ 6907 6896 6895 6894 ] final  -19.92 input  -60.11 | X-H torsion
[ 7974 7965 7964 7962 ] final  131.38 input  175.53 | X-H torsion
[ 8008 7997 7996 7995 ] final  165.59 input   59.86 | X-H torsion
[ 10167 10162 10161 10158 ] final  111.20 input  -65.29 | X-H torsion
[ 10718 10713 10712 10709 ] final -140.75 input   66.30 | X-H torsion
[ 10763 10752 10751 10750 ] final  -22.97 input  -60.55 | X-H torsion
[ 11005 11000 10999 10996 ] final -142.30 input  -57.11 | X-H torsion

> <Gold.Protein.ActiveResidues>
 VAL166  LYS551  ARG553  GLY616  TRP617  ASP618  TYR619  PRO620  LYS621  CYS622 
 ASP623  PHE694  ASN695  SER759  ASP760  ASP761  ALA762  ILE779  LEU786  VAL792 
 PHE793  MET794  SER795  GLU796  ALA797  LYS798  CYS799  TRP800  GLU811  SER814 

> <Gold.Protein.RotatedAtoms>
  151.2559  135.0638  159.9079 H   0  0  0  0  0  0  0  0  0  0  0  0  # atno 6907 bound_to 6896
  152.5373  134.0282  159.8023 H   0  0  0  0  0  0  0  0  0  0  0  0  # atno 6908 bound_to 6896
  151.0497  133.5585  159.2674 H   0  0  0  0  0  0  0  0  0  0  0  0  # atno 6909 bound_to 6896
  145.0079  139.4249  143.5260 H   0  0  0  0  0  0  0  0  0  0  0  0  # atno 7974 bound_to 7965
  156.1788  140.1666  156.8312 H   0  0  0  0  0  0  0  0  0  0  0  0  # atno 8008 bound_to 7997
  154.5337  140.0751  156.8423 H   0  0  0  0  0  0  0  0  0  0  0  0  # atno 8009 bound_to 7997
  155.3355  140.3381  155.4241 H   0  0  0  0  0  0  0  0  0  0  0  0  # atno 8010 bound_to 7997
  139.6629  144.7128  151.1831 H   0  0  0  0  0  0  0  0  0  0  0  0  # atno 10167 bound_to 10162
  156.3259  130.7560  151.1667 H   0  0  0  0  0  0  0  0  0  0  0  0  # atno 10718 bound_to 10713
  153.6604  135.6976  153.5179 H   0  0  0  0  0  0  0  0  0  0  0  0  # atno 10763 bound_to 10752
  153.2636  135.4237  155.0918 H   0  0  0  0  0  0  0  0  0  0  0  0  # atno 10764 bound_to 10752
  154.8453  135.3561  154.6149 H   0  0  0  0  0  0  0  0  0  0  0  0  # atno 10765 bound_to 10752
  140.8239  134.2598  157.4888 H   0  0  0  0  0  0  0  0  0  0  0  0  # atno 11005 bound_to 11000
  146.3464  139.9505  142.8729 LP  0  0  0  0  0  0  0  0  0  0  0  0  # atno 17320 bound_to 7965
  145.2064  140.9876  143.4126 LP  0  0  0  0  0  0  0  0  0  0  0  0  # atno 17321 bound_to 7965
  140.7587  143.5965  150.8743 LP  0  0  0  0  0  0  0  0  0  0  0  0  # atno 17342 bound_to 10162
  139.9624  143.6149  152.2998 LP  0  0  0  0  0  0  0  0  0  0  0  0  # atno 17343 bound_to 10162
  157.7421  131.0494  150.5048 LP  0  0  0  0  0  0  0  0  0  0  0  0  # atno 17370 bound_to 10713
  156.5207  130.4161  149.6252 LP  0  0  0  0  0  0  0  0  0  0  0  0  # atno 17371 bound_to 10713
  139.8707  134.9550  156.4193 LP  0  0  0  0  0  0  0  0  0  0  0  0  # atno 17394 bound_to 11000
  140.9070  133.7739  155.9746 LP  0  0  0  0  0  0  0  0  0  0  0  0  # atno 17395 bound_to 11000

$$$$
