AV-unprocessed.smi:794|AV-procd|sdf|3762|dock6
  -GOLD-   22720 1193D 1   1.00000     0.00000
 Structure written by MMmdl.
 41 43  0  0  0  0  0  0  0  0  1 V2000
  147.4649  136.6842  163.2261 C   0  0  0  0  0  0  0  0  0  0  0  0
  147.5300  136.1048  161.8442 C   0  0  0  0  0  0  0  0  0  0  0  0
  148.0162  136.9134  160.8125 N   0  0  0  0  0  0  0  0  0  0  0  0
  148.0246  136.2872  159.6323 C   0  0  0  0  0  0  0  0  0  0  0  0
  148.4646  136.8739  158.4168 N   0  0  0  0  0  0  0  0  0  0  0  0
  149.6920  136.8272  157.8696 C   0  0  0  0  0  0  0  0  0  0  0  0
  150.6593  136.2319  158.3451 O   0  0  0  0  0  0  0  0  0  0  0  0
  149.7340  137.5143  156.7192 N   0  0  0  0  0  0  0  0  0  0  0  0
  150.9065  137.6694  155.8547 C   0  0  2  0  0  0  0  0  0  0  0  0
  152.0588  138.4379  156.5491 C   0  0  2  0  0  0  0  0  0  0  0  0
  151.5546  139.7448  157.1977 C   0  0  0  0  0  0  0  0  0  0  0  0
  151.2247  140.6192  155.9745 C   0  0  0  0  0  0  0  0  0  0  0  0
  151.6238  139.7181  154.7862 C   0  0  1  0  0  0  0  0  0  0  0  0
  152.8358  138.9925  155.3590 C   0  0  0  0  0  0  0  0  0  0  0  0
  150.6412  138.5372  154.5919 C   0  0  2  0  0  0  0  0  0  0  0  0
  149.1735  138.9134  154.2871 C   0  0  0  0  0  0  0  0  0  0  0  0
  149.1217  139.9371  153.3161 O   0  0  0  0  0  0  0  0  0  0  0  0
  147.4242  134.6417  159.7083 S   0  0  0  0  0  0  0  0  0  0  0  0
  147.1668  134.8420  161.4246 C   0  0  0  0  0  0  0  0  0  0  0  0
  146.6152  133.7049  162.2228 C   0  0  0  0  0  0  0  0  0  0  0  0
  147.0687  135.9818  163.9572 H   0  0  0  0  0  0  0  0  0  0  0  0
  146.8276  137.5685  163.2484 H   0  0  0  0  0  0  0  0  0  0  0  0
  148.4547  136.9858  163.5697 H   0  0  0  0  0  0  0  0  0  0  0  0
  147.7626  137.3871  157.9044 H   0  0  0  0  0  0  0  0  0  0  0  0
  148.8881  137.9716  156.4121 H   0  0  0  0  0  0  0  0  0  0  0  0
  151.2797  136.6946  155.5346 H   0  0  0  0  0  0  0  0  0  0  0  0
  152.6457  137.8179  157.2273 H   0  0  0  0  0  0  0  0  0  0  0  0
  150.7018  139.6087  157.8626 H   0  0  0  0  0  0  0  0  0  0  0  0
  152.3491  140.2057  157.7861 H   0  0  0  0  0  0  0  0  0  0  0  0
  150.1815  140.9308  155.9489 H   0  0  0  0  0  0  0  0  0  0  0  0
  151.8316  141.5255  155.9868 H   0  0  0  0  0  0  0  0  0  0  0  0
  151.8223  140.2722  153.8683 H   0  0  0  0  0  0  0  0  0  0  0  0
  153.6488  139.6627  155.6446 H   0  0  0  0  0  0  0  0  0  0  0  0
  153.2309  138.2172  154.7000 H   0  0  0  0  0  0  0  0  0  0  0  0
  150.9950  137.9641  153.7326 H   0  0  0  0  0  0  0  0  0  0  0  0
  148.6413  138.0468  153.8932 H   0  0  0  0  0  0  0  0  0  0  0  0
  148.6350  139.2360  155.1773 H   0  0  0  0  0  0  0  0  0  0  0  0
  149.5309  139.6225  152.5244 H   0  0  0  0  0  0  0  0  0  0  0  0
  146.4787  133.9634  163.2714 H   0  0  0  0  0  0  0  0  0  0  0  0
  147.2845  132.8456  162.1785 H   0  0  0  0  0  0  0  0  0  0  0  0
  145.6465  133.3952  161.8305 H   0  0  0  0  0  0  0  0  0  0  0  0
  1  2  1  0  0  0  0
  1 21  1  0  0  0  0
  1 22  1  0  0  0  0
  1 23  1  0  0  0  0
  2 19  2  0  0  0  0
  2  3  1  0  0  0  0
  3  4  2  0  0  0  0
  4  5  1  0  0  0  0
  4 18  1  0  0  0  0
  5  6  1  0  0  0  0
  5 24  1  0  0  0  0
  6  7  2  0  0  0  0
  6  8  1  0  0  0  0
  8  9  1  0  0  0  0
  8 25  1  0  0  0  0
  9 15  1  0  0  0  0
  9 10  1  0  0  0  0
  9 26  1  0  0  0  0
 10 14  1  0  0  0  0
 10 11  1  0  0  0  0
 10 27  1  0  0  0  0
 11 12  1  0  0  0  0
 11 28  1  0  0  0  0
 11 29  1  0  0  0  0
 12 13  1  0  0  0  0
 12 30  1  0  0  0  0
 12 31  1  0  0  0  0
 13 14  1  0  0  0  0
 13 15  1  0  0  0  0
 13 32  1  0  0  0  0
 14 33  1  0  0  0  0
 14 34  1  0  0  0  0
 15 16  1  0  0  0  0
 15 35  1  0  0  0  0
 16 17  1  0  0  0  0
 16 36  1  0  0  0  0
 16 37  1  0  0  0  0
 17 38  1  0  0  0  0
 18 19  1  0  0  0  0
 19 20  1  0  0  0  0
 20 39  1  0  0  0  0
 20 40  1  0  0  0  0
 20 41  1  0  0  0  0
M  END
> <s_m_source_file>
AV-unprocessed.smi

> <i_m_source_file_index>
794

> <i_lp_mmshare_version>
43012

> <i_f3d_flags>
0

> <s_epik_input>
W0NIM11jMW5jKHNjMVtDSDNdKVtOSF1DKD1PKVtOSF1bQ0BIXShbQ0BASF0yMylbQ0BIXShbQ0gyXVtPSF0pW0NAQEhdKFtDSDJdMylbQ0gyXVtDSDJdMg==

> <s_epik_cmdline>
J2VwaWtfcHl0aG9uJywgJy1waCcsICc3LjAnLCAnLXRuJywgJzgnLCAnLW1hJywgJzIwMCcsICctbWV0YWxfYmluZGluZycsICctaW1hZScsICc8aW5maWxlLm1hZT4nLCAnLW9tYWUnLCAnPG91dGZpbGUubWFlPic=

> <r_lp_tautomer_probability>
0.999

> <r_epik_Ionization_Penalty>
0.000713029

> <r_epik_Ionization_Penalty_Charging>
0

> <r_epik_Ionization_Penalty_Neutral>
0.000713029

> <r_epik_State_Penalty>
0.000177984

> <r_epik_Charging_Adjusted_Penalty>
0.000177984

> <i_epik_Tot_Q>
0

> <i_epik_Tot_abs_Q>
0

> <r_epik_Metal_State_Penalty>
-0

> <b_epik_Metal_Only>
0

> <s_lp_Force_Field>
OPLS_2005

> <r_lp_Energy>
49.8561

> <b_lp_Chiralities_Consistent>
1

> <s_lp_Variant>
AV-unprocessed.smi:794-7

> <Gold.Version>
5.8.1

> <Gold.Id.Protein>
6NUR|6NUR_protein|mol2

> <Gold.PLP.Fitness>
45.5824

> <Gold.PLP.PLP>
-36.7219

> <Gold.PLP.part.hbond>
-3.7827

> <Gold.PLP.part.metal>
0.0000

> <Gold.PLP.part.buried>
-0.9862

> <Gold.PLP.part.nonpolar>
-32.1738

> <Gold.PLP.part.repulsive>
0.1245

> <Gold.PLP.ligand.clash>
0.0000

> <Gold.PLP.ligand.torsion>
0.8576

> <Gold.PLP.Chemscore.Hbond>
3.5219

> <Gold.PLP.Chemscore.CHOScore>
0.0000

> <Gold.PLP.Chemscore.Metal>
0.0000

> <Gold.Chemscore.Hbonds>
donor molecule, donor type, donor heavy atom, donor atom, acceptor molecule, acceptor atom, score
      L1  H    17    38       P1  7957  0.55
      P1  H  6896  6909       L1     7  0.78
      P1  H  6931  6943       L1     3  0.99
      P1  H  6934  6947       L1     3  0.33

> <Gold.PLP.Chemscore.Internal.Correction>
0.0101

> <Gold.Rescore>
     Score         DG    S(hbond)    S(metal)    S(lipo)     H(rot)  DE(clash)    DE(int)     intcor
     18.49     -21.05       3.00        0.00      86.47       1.78       1.70       0.87       ----

> <Gold.Chemscore.Fitness>
18.4872

> <Gold.Chemscore.DG>
-21.0508

> <Gold.Chemscore.ZeroCoef>
-5.4800

> <Gold.Chemscore.Hbond>
2.9971

> <Gold.Chemscore.Metal>
0.0000

> <Gold.Chemscore.Lipo>
86.4679

> <Gold.Chemscore.Internal_Hbond>
0.0000

> <Gold.Chemscore.DEClash>
1.6950

> <Gold.Chemscore.DEInternal>
0.8685

> <Gold.Chemscore.Rot>
1.7798

> <Gold.Chemscore.Internal.Correction>
   9.000000E+99

> <Gold.Chemscore.Hbonds>
donor molecule, donor type, donor heavy atom, donor atom, acceptor molecule, acceptor atom, score
      L1  H    17    38       P1  7957  0.54
      P1  H  6896  6909       L1     7  0.77
      P1  H  6931  6943       L1     3  0.23
      P1  H  6934  6947       L1     3  0.26

> <Gold.Chemscore.Hbond.Weighted>
-10.0102

> <Gold.Chemscore.Metal.Weighted>
-0.0000

> <Gold.Chemscore.Lipo.Weighted>
-10.1167

> <Gold.Chemscore.Internal_Hbond.Weighted>
0.0000

> <Gold.Chemscore.DEClash.Weighted>
1.6950

> <Gold.Chemscore.DEInternal.Weighted>
0.8685

> <Gold.Chemscore.Rot.Weighted>
4.5562

> <Gold.Chemscore.Internal.Correction.Weighted>
   9.000000E+99

> <Gold.Protein.RotatedTorsions>
[ 6907 6896 6895 6894 ] final   76.02 input  -60.11 | X-H torsion
[ 7974 7965 7964 7962 ] final  -56.95 input  175.53 | X-H torsion
[ 8008 7997 7996 7995 ] final  177.76 input   59.86 | X-H torsion
[ 10167 10162 10161 10158 ] final   54.45 input  -65.29 | X-H torsion
[ 10718 10713 10712 10709 ] final  -64.16 input   66.30 | X-H torsion
[ 10763 10752 10751 10750 ] final  -87.38 input  -60.55 | X-H torsion
[ 11005 11000 10999 10996 ] final  130.33 input  -57.11 | X-H torsion

> <Gold.Protein.ActiveResidues>
 VAL166  LYS551  ARG553  GLY616  TRP617  ASP618  TYR619  PRO620  LYS621  CYS622 
 ASP623  PHE694  ASN695  SER759  ASP760  ASP761  ALA762  ILE779  LEU786  VAL792 
 PHE793  MET794  SER795  GLU796  ALA797  LYS798  CYS799  TRP800  GLU811  SER814 

> <Gold.Protein.RotatedAtoms>
  152.5053  134.4032  159.9423 H   0  0  0  0  0  0  0  0  0  0  0  0  # atno 6907 bound_to 6896
  151.3997  133.3755  159.2738 H   0  0  0  0  0  0  0  0  0  0  0  0  # atno 6908 bound_to 6896
  150.9371  134.8804  159.7647 H   0  0  0  0  0  0  0  0  0  0  0  0  # atno 6909 bound_to 6896
  145.8567  140.8314  142.9958 H   0  0  0  0  0  0  0  0  0  0  0  0  # atno 7974 bound_to 7965
  156.0621  140.1350  156.9929 H   0  0  0  0  0  0  0  0  0  0  0  0  # atno 8008 bound_to 7997
  154.4487  140.0989  156.6604 H   0  0  0  0  0  0  0  0  0  0  0  0  # atno 8009 bound_to 7997
  155.5361  140.3460  155.4439 H   0  0  0  0  0  0  0  0  0  0  0  0  # atno 8010 bound_to 7997
  140.2300  144.3697  150.6418 H   0  0  0  0  0  0  0  0  0  0  0  0  # atno 10167 bound_to 10162
  156.0746  130.4230  150.1381 H   0  0  0  0  0  0  0  0  0  0  0  0  # atno 10718 bound_to 10713
  154.6329  135.5415  153.7701 H   0  0  0  0  0  0  0  0  0  0  0  0  # atno 10763 bound_to 10752
  153.0294  135.6440  154.1274 H   0  0  0  0  0  0  0  0  0  0  0  0  # atno 10764 bound_to 10752
  154.1203  135.2921  155.3190 H   0  0  0  0  0  0  0  0  0  0  0  0  # atno 10765 bound_to 10752
  139.9666  134.9589  156.9278 H   0  0  0  0  0  0  0  0  0  0  0  0  # atno 11005 bound_to 11000
  144.6727  140.1034  143.7459 LP  0  0  0  0  0  0  0  0  0  0  0  0  # atno 17320 bound_to 7965
  145.9295  139.2597  143.1333 LP  0  0  0  0  0  0  0  0  0  0  0  0  # atno 17321 bound_to 7965
  140.6192  143.2175  151.6729 LP  0  0  0  0  0  0  0  0  0  0  0  0  # atno 17342 bound_to 10162
  139.5113  144.3513  152.0650 LP  0  0  0  0  0  0  0  0  0  0  0  0  # atno 17343 bound_to 10162
  156.9425  130.9749  151.3513 LP  0  0  0  0  0  0  0  0  0  0  0  0  # atno 17370 bound_to 10713
  157.5834  130.8393  149.8555 LP  0  0  0  0  0  0  0  0  0  0  0  0  # atno 17371 bound_to 10713
  140.5383  134.0745  155.7334 LP  0  0  0  0  0  0  0  0  0  0  0  0  # atno 17394 bound_to 11000
  141.1346  133.9244  157.2463 LP  0  0  0  0  0  0  0  0  0  0  0  0  # atno 17395 bound_to 11000

$$$$
