AV-unprocessed.smi:34|AV-procd|sdf|227|dock3
  -GOLD-   2262015553D 1   1.00000     0.00000
 Structure written by MMmdl.
 55 59  0  0  0  0  0  0  0  0  1 V2000
  152.8411  140.5519  158.1689 O   0  0  0  0  0  0  0  0  0  0  0  0
  151.9234  141.3386  158.4045 C   0  0  0  0  0  0  0  0  0  0  0  0
  150.6943  141.3451  157.6312 N   0  0  0  0  0  0  0  0  0  0  0  0
  150.3182  140.4849  156.6563 C   0  0  0  0  0  0  0  0  0  0  0  0
  150.1771  140.8700  155.3603 N   0  0  0  0  0  0  0  0  0  0  0  0
  149.8113  139.9831  154.4301 C   0  0  0  0  0  0  0  0  0  0  0  0
  149.5460  138.6829  154.5753 N   0  0  0  0  0  0  0  0  0  0  0  0
  149.6924  138.2890  155.8735 C   0  0  0  0  0  0  0  0  0  0  0  0
  150.0725  139.1210  156.9624 C   0  0  0  0  0  0  0  0  0  0  0  0
  150.1161  138.3722  158.1313 N   0  0  0  0  0  0  0  0  0  0  0  0
  149.7800  137.1690  157.7492 C   0  0  0  0  0  0  0  0  0  0  0  0
  149.5160  137.0288  156.4023 N   0  0  0  0  0  0  0  0  0  0  0  0
  149.1072  135.8085  155.6321 C   0  0  2  0  0  0  0  0  0  0  0  0
  148.7945  134.8038  156.5532 O   0  0  0  0  0  0  0  0  0  0  0  0
  149.8038  133.7896  156.5762 C   0  0  1  0  0  0  0  0  0  0  0  0
  149.1887  132.5066  155.9984 C   0  0  0  0  0  0  0  0  0  0  0  0
  148.1666  132.8486  155.0762 O   0  0  0  0  0  0  0  0  0  0  0  0
  147.3278  131.9020  154.6121 C   0  0  0  0  0  0  0  0  0  0  0  0
  147.0202  130.8914  155.2474 O   0  0  0  0  0  0  0  0  0  0  0  0
  146.8036  132.2100  153.2503 C   0  0  0  0  0  0  0  0  0  0  0  0
  147.1092  133.4566  152.6556 C   0  0  0  0  0  0  0  0  0  0  0  0
  146.6310  133.7745  151.3695 C   0  0  0  0  0  0  0  0  0  0  0  0
  145.8405  132.8498  150.6625 C   0  0  0  0  0  0  0  0  0  0  0  0
  145.5290  131.6067  151.2431 C   0  0  0  0  0  0  0  0  0  0  0  0
  146.0069  131.2866  152.5289 C   0  0  0  0  0  0  0  0  0  0  0  0
  150.9657  134.3314  155.7344 C   0  0  2  0  0  0  0  0  0  0  0  0
  151.7964  135.0005  156.5369 F   0  0  0  0  0  0  0  0  0  0  0  0
  150.2545  135.2623  154.7685 C   0  0  2  0  0  0  0  0  0  0  0  0
  151.1220  136.2310  154.2092 O   0  0  0  0  0  0  0  0  0  0  0  0
  152.0522  142.4111  159.4466 C   0  0  0  0  0  0  0  0  0  0  0  0
  151.6221  143.7272  159.1636 C   0  0  0  0  0  0  0  0  0  0  0  0
  151.7556  144.7441  160.1291 C   0  0  0  0  0  0  0  0  0  0  0  0
  152.3277  144.4555  161.3824 C   0  0  0  0  0  0  0  0  0  0  0  0
  152.7700  143.1501  161.6685 C   0  0  0  0  0  0  0  0  0  0  0  0
  152.6363  142.1320  160.7039 C   0  0  0  0  0  0  0  0  0  0  0  0
  150.0354  142.0766  157.8542 H   0  0  0  0  0  0  0  0  0  0  0  0
  149.7195  140.3712  153.4263 H   0  0  0  0  0  0  0  0  0  0  0  0
  149.7187  136.3470  158.4476 H   0  0  0  0  0  0  0  0  0  0  0  0
  148.2301  136.1215  155.0646 H   0  0  0  0  0  0  0  0  0  0  0  0
  150.1135  133.6092  157.6065 H   0  0  0  0  0  0  0  0  0  0  0  0
  149.9520  131.9247  155.4806 H   0  0  0  0  0  0  0  0  0  0  0  0
  148.7925  131.8838  156.8017 H   0  0  0  0  0  0  0  0  0  0  0  0
  147.7157  134.1820  153.1787 H   0  0  0  0  0  0  0  0  0  0  0  0
  146.8713  134.7289  150.9250 H   0  0  0  0  0  0  0  0  0  0  0  0
  145.4735  133.0937  149.6764 H   0  0  0  0  0  0  0  0  0  0  0  0
  144.9220  130.8963  150.7016 H   0  0  0  0  0  0  0  0  0  0  0  0
  145.7484  130.3240  152.9447 H   0  0  0  0  0  0  0  0  0  0  0  0
  151.5520  133.5579  155.2374 H   0  0  0  0  0  0  0  0  0  0  0  0
  149.8096  134.6791  153.9614 H   0  0  0  0  0  0  0  0  0  0  0  0
  150.8709  136.3755  153.3094 H   0  0  0  0  0  0  0  0  0  0  0  0
  151.1822  143.9650  158.2058 H   0  0  0  0  0  0  0  0  0  0  0  0
  151.4197  145.7462  159.9069 H   0  0  0  0  0  0  0  0  0  0  0  0
  152.4309  145.2357  162.1222 H   0  0  0  0  0  0  0  0  0  0  0  0
  153.2151  142.9298  162.6277 H   0  0  0  0  0  0  0  0  0  0  0  0
  152.9908  141.1391  160.9405 H   0  0  0  0  0  0  0  0  0  0  0  0
  1  2  2  0  0  0  0
  2  3  1  0  0  0  0
  2 30  1  0  0  0  0
  3  4  1  0  0  0  0
  3 36  1  0  0  0  0
  4  9  1  0  0  0  0
  4  5  2  0  0  0  0
  5  6  1  0  0  0  0
  6  7  2  0  0  0  0
  6 37  1  0  0  0  0
  7  8  1  0  0  0  0
  8 12  1  0  0  0  0
  8  9  2  0  0  0  0
  9 10  1  0  0  0  0
 10 11  2  0  0  0  0
 11 12  1  0  0  0  0
 11 38  1  0  0  0  0
 12 13  1  0  0  0  0
 13 28  1  0  0  0  0
 13 14  1  0  0  0  0
 13 39  1  0  0  0  0
 14 15  1  0  0  0  0
 15 16  1  0  0  0  0
 15 26  1  0  0  0  0
 15 40  1  0  0  0  0
 16 17  1  0  0  0  0
 16 41  1  0  0  0  0
 16 42  1  0  0  0  0
 17 18  1  0  0  0  0
 18 19  2  0  0  0  0
 18 20  1  0  0  0  0
 20 25  1  0  0  0  0
 20 21  2  0  0  0  0
 21 22  1  0  0  0  0
 21 43  1  0  0  0  0
 22 23  2  0  0  0  0
 22 44  1  0  0  0  0
 23 24  1  0  0  0  0
 23 45  1  0  0  0  0
 24 25  2  0  0  0  0
 24 46  1  0  0  0  0
 25 47  1  0  0  0  0
 26 27  1  0  0  0  0
 26 28  1  0  0  0  0
 26 48  1  0  0  0  0
 28 29  1  0  0  0  0
 28 49  1  0  0  0  0
 29 50  1  0  0  0  0
 30 35  1  0  0  0  0
 30 31  2  0  0  0  0
 31 32  1  0  0  0  0
 31 51  1  0  0  0  0
 32 33  2  0  0  0  0
 32 52  1  0  0  0  0
 33 34  1  0  0  0  0
 33 53  1  0  0  0  0
 34 35  2  0  0  0  0
 34 54  1  0  0  0  0
 35 55  1  0  0  0  0
M  END
> <s_m_source_file>
AV-unprocessed.smi

> <i_m_source_file_index>
34

> <i_lp_mmshare_version>
43012

> <i_f3d_flags>
0

> <s_epik_input>
W2NIXTFbY0hdW2NIXVtjSF1bY0hdYzFDKD1PKVtOSF1jKG5bY0hdbjIpYyhjMjMpbltjSF1uM1tDQEBIXTRPW0NASF0oW0NAQEhdKEYpW0NASF00W09IXSlbQ0gyXU9DKD1PKWM1W2NIXVtjSF1bY0hdW2NIXVtjSF01

> <s_epik_cmdline>
J2VwaWtfcHl0aG9uJywgJy1waCcsICc3LjAnLCAnLXRuJywgJzgnLCAnLW1hJywgJzIwMCcsICctbWV0YWxfYmluZGluZycsICctaW1hZScsICc8aW5maWxlLm1hZT4nLCAnLW9tYWUnLCAnPG91dGZpbGUubWFlPic=

> <r_lp_tautomer_probability>
1

> <r_epik_Ionization_Penalty>
0.00257489

> <r_epik_Ionization_Penalty_Charging>
0

> <r_epik_Ionization_Penalty_Neutral>
0.00257489

> <r_epik_State_Penalty>
0.00519398

> <r_epik_Charging_Adjusted_Penalty>
0.00519398

> <i_epik_Tot_Q>
0

> <i_epik_Tot_abs_Q>
0

> <r_epik_Metal_State_Penalty>
0.335891

> <b_epik_Metal_Only>
0

> <s_epik_Chemistry_Notes>
This compound has an ester and may undergo hydrolysis at high or low pH. This compound contains an acetal/aminal-like group ( X-CH(R)-Y where X, Y are N, S, or O) that may be acid/base labile, releasing an aldehyde.

> <s_lp_Force_Field>
OPLS_2005

> <r_lp_Energy>
52.3338

> <b_lp_Chiralities_Consistent>
1

> <s_lp_Variant>
AV-unprocessed.smi:34-13

> <Gold.Version>
5.8.1

> <Gold.Id.Protein>
6NUR|6NUR_protein|mol2

> <Gold.PLP.Fitness>
57.2602

> <Gold.PLP.PLP>
-49.8725

> <Gold.PLP.part.hbond>
-3.8544

> <Gold.PLP.part.metal>
0.0000

> <Gold.PLP.part.buried>
-5.2399

> <Gold.PLP.part.nonpolar>
-41.6515

> <Gold.PLP.part.repulsive>
0.3918

> <Gold.PLP.ligand.clash>
0.0000

> <Gold.PLP.ligand.torsion>
2.3695

> <Gold.PLP.Chemscore.Hbond>
2.6178

> <Gold.PLP.Chemscore.CHOScore>
1.0000

> <Gold.PLP.Chemscore.Metal>
0.0000

> <Gold.Chemscore.Hbonds>
donor molecule, donor type, donor heavy atom, donor atom, acceptor molecule, acceptor atom, score
      L1  H    29    50       P1  7949  0.72
      P1  H  7997  8010       L1     1  0.60
      P1  H 10752 10764       L1    29  1.00
      L1  C     6    37       P1  7957  1.00

> <Gold.PLP.Chemscore.Internal.Correction>
1.2733

> <Gold.Rescore>
     Score         DG    S(hbond)    S(metal)    S(lipo)     H(rot)  DE(clash)    DE(int)     intcor
     17.15     -20.50       1.95        0.00     132.34       2.72       0.24       3.11       ----

> <Gold.Chemscore.Fitness>
17.1527

> <Gold.Chemscore.DG>
-20.4978

> <Gold.Chemscore.ZeroCoef>
-5.4800

> <Gold.Chemscore.Hbond>
1.9464

> <Gold.Chemscore.Metal>
0.0000

> <Gold.Chemscore.Lipo>
132.3400

> <Gold.Chemscore.Internal_Hbond>
0.0000

> <Gold.Chemscore.DEClash>
0.2397

> <Gold.Chemscore.DEInternal>
3.1054

> <Gold.Chemscore.Rot>
2.7215

> <Gold.Chemscore.Internal.Correction>
   9.000000E+99

> <Gold.Chemscore.Hbonds>
donor molecule, donor type, donor heavy atom, donor atom, acceptor molecule, acceptor atom, score
      L1  H    29    50       P1  7949  0.09
      P1  H  7997  8010       L1     1  0.59
      P1  H 10752 10764       L1    29  0.57

> <Gold.Chemscore.Hbond.Weighted>
-6.5011

> <Gold.Chemscore.Metal.Weighted>
-0.0000

> <Gold.Chemscore.Lipo.Weighted>
-15.4838

> <Gold.Chemscore.Internal_Hbond.Weighted>
0.0000

> <Gold.Chemscore.DEClash.Weighted>
0.2397

> <Gold.Chemscore.DEInternal.Weighted>
3.1054

> <Gold.Chemscore.Rot.Weighted>
6.9670

> <Gold.Chemscore.Internal.Correction.Weighted>
   9.000000E+99

> <Gold.Protein.RotatedTorsions>
[ 6907 6896 6895 6894 ] final -130.14 input  -60.11 | X-H torsion
[ 7974 7965 7964 7962 ] final   30.38 input  175.53 | X-H torsion
[ 8008 7997 7996 7995 ] final   40.91 input   59.86 | X-H torsion
[ 10167 10162 10161 10158 ] final  -88.90 input  -65.29 | X-H torsion
[ 10718 10713 10712 10709 ] final  170.57 input   66.30 | X-H torsion
[ 10763 10752 10751 10750 ] final  -72.29 input  -60.55 | X-H torsion
[ 11005 11000 10999 10996 ] final   64.38 input  -57.11 | X-H torsion

> <Gold.Protein.ActiveResidues>
 VAL166  LYS551  ARG553  GLY616  TRP617  ASP618  TYR619  PRO620  LYS621  CYS622 
 ASP623  PHE694  ASN695  SER759  ASP760  ASP761  ALA762  ILE779  LEU786  VAL792 
 PHE793  MET794  SER795  GLU796  ALA797  LYS798  CYS799  TRP800  GLU811  SER814 

> <Gold.Protein.RotatedAtoms>
  150.9364  133.6706  159.2799 H   0  0  0  0  0  0  0  0  0  0  0  0  # atno 6907 bound_to 6896
  151.4110  135.0984  159.9595 H   0  0  0  0  0  0  0  0  0  0  0  0  # atno 6908 bound_to 6896
  152.5050  133.8837  159.7414 H   0  0  0  0  0  0  0  0  0  0  0  0  # atno 6909 bound_to 6896
  146.1615  139.6796  142.9030 H   0  0  0  0  0  0  0  0  0  0  0  0  # atno 7974 bound_to 7965
  155.2610  140.3359  155.4273 H   0  0  0  0  0  0  0  0  0  0  0  0  # atno 8008 bound_to 7997
  156.2175  140.1795  156.7598 H   0  0  0  0  0  0  0  0  0  0  0  0  # atno 8009 bound_to 7997
  154.5775  140.0659  156.9040 H   0  0  0  0  0  0  0  0  0  0  0  0  # atno 8010 bound_to 7997
  140.3701  143.2798  151.9511 H   0  0  0  0  0  0  0  0  0  0  0  0  # atno 10167 bound_to 10162
  157.0062  131.0191  151.2816 H   0  0  0  0  0  0  0  0  0  0  0  0  # atno 10718 bound_to 10713
  154.4436  135.5935  153.6145 H   0  0  0  0  0  0  0  0  0  0  0  0  # atno 10763 bound_to 10752
  152.9807  135.6004  154.3692 H   0  0  0  0  0  0  0  0  0  0  0  0  # atno 10764 bound_to 10752
  154.3545  135.2841  155.2333 H   0  0  0  0  0  0  0  0  0  0  0  0  # atno 10765 bound_to 10752
  139.9962  134.6513  156.0006 H   0  0  0  0  0  0  0  0  0  0  0  0  # atno 11005 bound_to 11000
  145.4576  141.0431  143.2769 LP  0  0  0  0  0  0  0  0  0  0  0  0  # atno 17320 bound_to 7965
  144.8033  139.6098  143.7062 LP  0  0  0  0  0  0  0  0  0  0  0  0  # atno 17321 bound_to 7965
  139.4804  144.5915  151.7764 LP  0  0  0  0  0  0  0  0  0  0  0  0  # atno 17342 bound_to 10162
  140.5042  144.1124  150.5978 LP  0  0  0  0  0  0  0  0  0  0  0  0  # atno 17343 bound_to 10162
  157.5354  130.8085  149.7965 LP  0  0  0  0  0  0  0  0  0  0  0  0  # atno 17370 bound_to 10713
  156.0152  130.3816  150.2132 LP  0  0  0  0  0  0  0  0  0  0  0  0  # atno 17371 bound_to 10713
  141.1606  133.6539  156.4307 LP  0  0  0  0  0  0  0  0  0  0  0  0  # atno 17394 bound_to 11000
  140.4813  134.6662  157.5172 LP  0  0  0  0  0  0  0  0  0  0  0  0  # atno 17395 bound_to 11000

$$$$
