AV-unprocessed.smi:2277|AV-procd|sdf|9178|dock1
  -GOLD-   2272012393D 1   1.00000     0.00000
 Structure written by MMmdl.
 37 38  0  0  0  0  0  0  0  0  1 V2000
  151.0753  142.5230  158.0928 C   0  0  0  0  0  0  0  0  0  0  0  0
  150.4884  141.6485  157.0047 C   0  0  0  0  0  0  0  0  0  0  0  0
  149.0971  141.4723  156.8795 C   0  0  0  0  0  0  0  0  0  0  0  0
  148.6078  140.6475  155.8482 C   0  0  0  0  0  0  0  0  0  0  0  0
  149.5179  140.0193  154.9684 C   0  0  0  0  0  0  0  0  0  0  0  0
  148.9225  139.2114  153.9634 N   0  0  0  0  0  0  0  0  0  0  0  0
  147.6608  139.2569  153.5005 C   0  0  0  0  0  0  0  0  0  0  0  0
  146.7920  140.0459  153.8727 O   0  0  0  0  0  0  0  0  0  0  0  0
  147.4507  138.3147  152.5685 N   0  0  0  0  0  0  0  0  0  0  0  0
  146.1865  138.0883  151.8660 C   0  0  0  0  0  0  0  0  0  0  0  0
  145.4646  136.7802  152.2298 C   0  0  0  0  0  0  0  0  0  0  0  0
  144.2897  136.8277  152.5917 O   0  0  0  0  0  0  0  0  0  0  0  0
  146.1475  135.6278  152.1373 N   0  0  0  0  0  0  0  0  0  0  0  0
  145.6110  134.3158  152.4638 C   0  0  0  0  0  0  0  0  0  0  0  0
  144.5827  133.8122  151.4734 C   0  0  0  0  0  0  0  0  0  0  0  0
  143.2064  133.3986  151.9385 C   0  0  0  0  0  0  0  0  0  0  0  0
  144.1808  132.3563  151.4426 C   0  0  0  0  0  0  0  0  0  0  0  0
  150.8566  140.1961  155.0971 N   0  0  0  0  0  0  0  0  0  0  0  0
  151.3249  140.9865  156.0857 C   0  0  0  0  0  0  0  0  0  0  0  0
  150.2961  142.9339  158.7354 H   0  0  0  0  0  0  0  0  0  0  0  0
  151.6282  143.3531  157.6527 H   0  0  0  0  0  0  0  0  0  0  0  0
  151.7598  141.9448  158.7141 H   0  0  0  0  0  0  0  0  0  0  0  0
  148.4129  141.9589  157.5592 H   0  0  0  0  0  0  0  0  0  0  0  0
  147.5431  140.5013  155.7379 H   0  0  0  0  0  0  0  0  0  0  0  0
  149.5256  138.5129  153.5553 H   0  0  0  0  0  0  0  0  0  0  0  0
  148.2190  137.7078  152.3230 H   0  0  0  0  0  0  0  0  0  0  0  0
  145.5094  138.9269  152.0364 H   0  0  0  0  0  0  0  0  0  0  0  0
  146.3951  138.0755  150.7960 H   0  0  0  0  0  0  0  0  0  0  0  0
  147.1114  135.6683  151.8397 H   0  0  0  0  0  0  0  0  0  0  0  0
  146.4291  133.5964  152.5305 H   0  0  0  0  0  0  0  0  0  0  0  0
  145.1451  134.3590  153.4493 H   0  0  0  0  0  0  0  0  0  0  0  0
  144.6177  134.3201  150.5113 H   0  0  0  0  0  0  0  0  0  0  0  0
  143.0018  133.4254  153.0071 H   0  0  0  0  0  0  0  0  0  0  0  0
  142.3635  133.6448  151.2960 H   0  0  0  0  0  0  0  0  0  0  0  0
  143.9892  131.9100  150.4691 H   0  0  0  0  0  0  0  0  0  0  0  0
  144.6251  131.6917  152.1811 H   0  0  0  0  0  0  0  0  0  0  0  0
  152.3982  141.0928  156.1435 H   0  0  0  0  0  0  0  0  0  0  0  0
  1  2  1  0  0  0  0
  1 20  1  0  0  0  0
  1 21  1  0  0  0  0
  1 22  1  0  0  0  0
  2 19  1  0  0  0  0
  2  3  2  0  0  0  0
  3  4  1  0  0  0  0
  3 23  1  0  0  0  0
  4  5  2  0  0  0  0
  4 24  1  0  0  0  0
  5  6  1  0  0  0  0
  5 18  1  0  0  0  0
  6  7  1  0  0  0  0
  6 25  1  0  0  0  0
  7  8  2  0  0  0  0
  7  9  1  0  0  0  0
  9 10  1  0  0  0  0
  9 26  1  0  0  0  0
 10 11  1  0  0  0  0
 10 27  1  0  0  0  0
 10 28  1  0  0  0  0
 11 12  2  0  0  0  0
 11 13  1  0  0  0  0
 13 14  1  0  0  0  0
 13 29  1  0  0  0  0
 14 15  1  0  0  0  0
 14 30  1  0  0  0  0
 14 31  1  0  0  0  0
 15 17  1  0  0  0  0
 15 16  1  0  0  0  0
 15 32  1  0  0  0  0
 16 17  1  0  0  0  0
 16 33  1  0  0  0  0
 16 34  1  0  0  0  0
 17 35  1  0  0  0  0
 17 36  1  0  0  0  0
 18 19  2  0  0  0  0
 19 37  1  0  0  0  0
M  END
> <s_m_source_file>
AV-unprocessed.smi

> <i_m_source_file_index>
2277

> <i_lp_mmshare_version>
43012

> <i_f3d_flags>
0

> <s_epik_input>
W0NIM11jMVtjSF1bY0hdYyhuW2NIXTEpW05IXUMoPU8pW05IXVtDSDJdQyg9TylbTkhdW0NIMl1bQ0hdMltDSDJdW0NIMl0y

> <s_epik_cmdline>
J2VwaWtfcHl0aG9uJywgJy1waCcsICc3LjAnLCAnLXRuJywgJzgnLCAnLW1hJywgJzIwMCcsICctbWV0YWxfYmluZGluZycsICctaW1hZScsICc8aW5maWxlLm1hZT4nLCAnLW9tYWUnLCAnPG91dGZpbGUubWFlPic=

> <r_lp_tautomer_probability>
1

> <r_epik_Ionization_Penalty>
4.99402e-05

> <r_epik_Ionization_Penalty_Charging>
0

> <r_epik_Ionization_Penalty_Neutral>
4.99402e-05

> <r_epik_State_Penalty>
-0

> <r_epik_Charging_Adjusted_Penalty>
0

> <i_epik_Tot_Q>
0

> <i_epik_Tot_abs_Q>
0

> <r_epik_Metal_State_Penalty>
-0

> <b_epik_Metal_Only>
0

> <s_lp_Force_Field>
OPLS_2005

> <r_lp_Energy>
11.1939

> <b_lp_Chiralities_Consistent>
1

> <s_lp_Variant>
AV-unprocessed.smi:2277-1

> <Gold.Version>
5.8.1

> <Gold.Id.Protein>
6NUR|6NUR_protein|mol2

> <Gold.PLP.Fitness>
41.5223

> <Gold.PLP.PLP>
-33.4206

> <Gold.PLP.part.hbond>
-5.0000

> <Gold.PLP.part.metal>
0.0000

> <Gold.PLP.part.buried>
-3.7692

> <Gold.PLP.part.nonpolar>
-25.3254

> <Gold.PLP.part.repulsive>
0.6235

> <Gold.PLP.ligand.clash>
0.0051

> <Gold.PLP.ligand.torsion>
0.6617

> <Gold.PLP.Chemscore.Hbond>
2.9520

> <Gold.PLP.Chemscore.CHOScore>
0.0000

> <Gold.PLP.Chemscore.Metal>
0.0000

> <Gold.Chemscore.Hbonds>
donor molecule, donor type, donor heavy atom, donor atom, acceptor molecule, acceptor atom, score
      L1  H     9    26       P1  7948  1.00
      L1  H    13    29       P1  7948  1.00
      P1  H  7989  7998       L1    18  1.00

> <Gold.PLP.Chemscore.Internal.Correction>
0.5741

> <Gold.Rescore>
     Score         DG    S(hbond)    S(metal)    S(lipo)     H(rot)  DE(clash)    DE(int)     intcor
     14.33     -16.52       2.71        0.00      56.36       1.81       0.00       2.19       ----

> <Gold.Chemscore.Fitness>
14.3260

> <Gold.Chemscore.DG>
-16.5174

> <Gold.Chemscore.ZeroCoef>
-5.4800

> <Gold.Chemscore.Hbond>
2.7145

> <Gold.Chemscore.Metal>
0.0000

> <Gold.Chemscore.Lipo>
56.3590

> <Gold.Chemscore.Internal_Hbond>
0.0000

> <Gold.Chemscore.DEClash>
0.0029

> <Gold.Chemscore.DEInternal>
2.1885

> <Gold.Chemscore.Rot>
1.8058

> <Gold.Chemscore.Internal.Correction>
   9.000000E+99

> <Gold.Chemscore.Hbonds>
donor molecule, donor type, donor heavy atom, donor atom, acceptor molecule, acceptor atom, score
      L1  H     9    26       P1  7948  0.99
      L1  H    13    29       P1  7948  0.99
      P1  H  7989  7998       L1    18  0.41

> <Gold.Chemscore.Hbond.Weighted>
-9.0663

> <Gold.Chemscore.Metal.Weighted>
-0.0000

> <Gold.Chemscore.Lipo.Weighted>
-6.5940

> <Gold.Chemscore.Internal_Hbond.Weighted>
0.0000

> <Gold.Chemscore.DEClash.Weighted>
0.0029

> <Gold.Chemscore.DEInternal.Weighted>
2.1885

> <Gold.Chemscore.Rot.Weighted>
4.6230

> <Gold.Chemscore.Internal.Correction.Weighted>
   9.000000E+99

> <Gold.Protein.RotatedTorsions>
[ 6907 6896 6895 6894 ] final -173.29 input  -60.11 | X-H torsion
[ 7974 7965 7964 7962 ] final  -59.91 input  175.53 | X-H torsion
[ 8008 7997 7996 7995 ] final -170.39 input   59.86 | X-H torsion
[ 10167 10162 10161 10158 ] final  178.93 input  -65.29 | X-H torsion
[ 10718 10713 10712 10709 ] final  148.14 input   66.30 | X-H torsion
[ 10763 10752 10751 10750 ] final  168.51 input  -60.55 | X-H torsion
[ 11005 11000 10999 10996 ] final  -41.87 input  -57.11 | X-H torsion

> <Gold.Protein.ActiveResidues>
 VAL166  LYS551  ARG553  GLY616  TRP617  ASP618  TYR619  PRO620  LYS621  CYS622 
 ASP623  PHE694  ASN695  SER759  ASP760  ASP761  ALA762  ILE779  LEU786  VAL792 
 PHE793  MET794  SER795  GLU796  ALA797  LYS798  CYS799  TRP800  GLU811  SER814 

> <Gold.Protein.RotatedAtoms>
  151.5537  133.3413  159.2957 H   0  0  0  0  0  0  0  0  0  0  0  0  # atno 6907 bound_to 6896
  150.8463  134.7776  159.6984 H   0  0  0  0  0  0  0  0  0  0  0  0  # atno 6908 bound_to 6896
  152.4520  134.5381  159.9882 H   0  0  0  0  0  0  0  0  0  0  0  0  # atno 6909 bound_to 6896
  145.8218  140.8535  143.0129 H   0  0  0  0  0  0  0  0  0  0  0  0  # atno 7974 bound_to 7965
  155.9177  140.1068  157.1231 H   0  0  0  0  0  0  0  0  0  0  0  0  # atno 8008 bound_to 7997
  154.4049  140.1262  156.4704 H   0  0  0  0  0  0  0  0  0  0  0  0  # atno 8009 bound_to 7997
  155.7234  140.3469  155.5028 H   0  0  0  0  0  0  0  0  0  0  0  0  # atno 8010 bound_to 7997
  139.5314  144.2622  152.0698 H   0  0  0  0  0  0  0  0  0  0  0  0  # atno 10167 bound_to 10162
  157.3123  131.0890  151.1307 H   0  0  0  0  0  0  0  0  0  0  0  0  # atno 10718 bound_to 10713
  154.3696  135.2753  155.2274 H   0  0  0  0  0  0  0  0  0  0  0  0  # atno 10763 bound_to 10752
  154.4427  135.5950  153.6143 H   0  0  0  0  0  0  0  0  0  0  0  0  # atno 10764 bound_to 10752
  152.9839  135.6022  154.3926 H   0  0  0  0  0  0  0  0  0  0  0  0  # atno 10765 bound_to 10752
  141.0276  133.6834  156.2517 H   0  0  0  0  0  0  0  0  0  0  0  0  # atno 11005 bound_to 11000
  144.6747  140.0544  143.7478 LP  0  0  0  0  0  0  0  0  0  0  0  0  # atno 17320 bound_to 7965
  145.9666  139.2839  143.1123 LP  0  0  0  0  0  0  0  0  0  0  0  0  # atno 17321 bound_to 7965
  140.2086  144.4586  150.6397 LP  0  0  0  0  0  0  0  0  0  0  0  0  # atno 17342 bound_to 10162
  140.6495  143.2221  151.6110 LP  0  0  0  0  0  0  0  0  0  0  0  0  # atno 17343 bound_to 10162
  157.2624  130.6665  149.5981 LP  0  0  0  0  0  0  0  0  0  0  0  0  # atno 17370 bound_to 10713
  155.9679  130.4504  150.5697 LP  0  0  0  0  0  0  0  0  0  0  0  0  # atno 17371 bound_to 10713
  140.6463  134.5113  157.5574 LP  0  0  0  0  0  0  0  0  0  0  0  0  # atno 17394 bound_to 11000
  139.9186  134.8194  156.1283 LP  0  0  0  0  0  0  0  0  0  0  0  0  # atno 17395 bound_to 11000

$$$$
