AV-unprocessed.smi:578|AV-procd|sdf|2984|dock2
  -GOLD-   2262023493D 1   1.00000     0.00000
 Structure written by MMmdl.
 32 33  0  0  0  0  0  0  0  0  2 V2000
  153.7474  141.5543  161.2638 C   0  0  0  0  0  0  0  0  0  0  0  0
  152.6587  142.1576  160.3707 C   0  0  2  0  0  0  0  0  0  0  0  0
  152.5122  141.3905  159.0445 C   0  0  0  0  0  0  0  0  0  0  0  0
  151.5415  142.0578  158.1894 N   0  0  0  0  0  0  0  0  0  0  0  0
  151.2365  141.3379  157.0258 C   0  0  0  0  0  0  0  0  0  0  0  0
  150.1003  141.6904  156.2726 C   0  0  0  0  0  0  0  0  0  0  0  0
  149.8111  140.9525  155.1094 C   0  0  0  0  0  0  0  0  0  0  0  0
  150.5682  139.9233  154.6771 N   0  0  0  0  0  0  0  0  0  0  0  0
  151.6646  139.5771  155.3946 C   0  0  0  0  0  0  0  0  0  0  0  0
  152.4937  138.4255  154.8912 C   0  0  0  0  0  0  0  0  0  0  0  0
  153.7414  138.5204  154.9237 O   0  0  0  0  0  0  0  0  0  0  0  0
  151.9135  137.4057  154.4543 O   0  5  0  0  0  0  0  0  0  0  0  0
  152.0336  140.2616  156.5772 C   0  0  0  0  0  0  0  0  0  0  0  0
  151.8957  143.4470  157.9306 C   0  0  0  0  0  0  0  0  0  0  0  0
  152.0928  144.2154  159.2531 C   0  0  1  0  0  0  0  0  0  0  0  0
  150.7738  144.5423  159.9755 C   0  0  0  0  0  0  0  0  0  0  0  0
  153.0098  143.5151  160.0990 O   0  0  0  0  0  0  0  0  0  0  0  0
  153.5235  140.5152  161.5069 H   0  0  0  0  0  0  0  0  0  0  0  0
  153.8307  142.1042  162.2014 H   0  0  0  0  0  0  0  0  0  0  0  0
  154.7206  141.5819  160.7729 H   0  0  0  0  0  0  0  0  0  0  0  0
  151.7164  142.1250  160.9181 H   0  0  0  0  0  0  0  0  0  0  0  0
  153.4763  141.3368  158.5366 H   0  0  0  0  0  0  0  0  0  0  0  0
  152.1904  140.3659  159.2359 H   0  0  0  0  0  0  0  0  0  0  0  0
  149.4619  142.5065  156.5777 H   0  0  0  0  0  0  0  0  0  0  0  0
  148.9466  141.1956  154.5095 H   0  0  0  0  0  0  0  0  0  0  0  0
  152.9124  139.9680  157.1327 H   0  0  0  0  0  0  0  0  0  0  0  0
  152.8204  143.4799  157.3525 H   0  0  0  0  0  0  0  0  0  0  0  0
  151.1246  143.9246  157.3246 H   0  0  0  0  0  0  0  0  0  0  0  0
  152.5661  145.1682  159.0153 H   0  0  0  0  0  0  0  0  0  0  0  0
  150.1440  145.1808  159.3559 H   0  0  0  0  0  0  0  0  0  0  0  0
  150.9627  145.0729  160.9089 H   0  0  0  0  0  0  0  0  0  0  0  0
  150.1967  143.6479  160.2089 H   0  0  0  0  0  0  0  0  0  0  0  0
  1  2  1  0  0  0  0
  1 18  1  0  0  0  0
  1 19  1  0  0  0  0
  1 20  1  0  0  0  0
  2 17  1  0  0  0  0
  2  3  1  0  0  0  0
  2 21  1  0  0  0  0
  3  4  1  0  0  0  0
  3 22  1  0  0  0  0
  3 23  1  0  0  0  0
  4  5  1  0  0  0  0
  4 14  1  0  0  0  0
  5 13  1  0  0  0  0
  5  6  2  0  0  0  0
  6  7  1  0  0  0  0
  6 24  1  0  0  0  0
  7  8  2  0  0  0  0
  7 25  1  0  0  0  0
  8  9  1  0  0  0  0
  9 10  1  0  0  0  0
  9 13  2  0  0  0  0
 10 11  2  0  0  0  0
 10 12  1  0  0  0  0
 13 26  1  0  0  0  0
 14 15  1  0  0  0  0
 14 27  1  0  0  0  0
 14 28  1  0  0  0  0
 15 16  1  0  0  0  0
 15 17  1  0  0  0  0
 15 29  1  0  0  0  0
 16 30  1  0  0  0  0
 16 31  1  0  0  0  0
 16 32  1  0  0  0  0
M  CHG  1  12  -1
M  END
> <s_m_source_file>
AV-unprocessed.smi

> <i_m_source_file_index>
578

> <i_lp_mmshare_version>
43012

> <i_f3d_flags>
0

> <s_epik_input>
W0NIM11bQ0BASF0xW0NIMl1OKFtDSDJdW0NASF0oTzEpW0NIM10pYzJbY0hdW2NIXW5jKFtjSF0yKUMoPU8pW09IXQ==

> <s_epik_cmdline>
J2VwaWtfcHl0aG9uJywgJy1waCcsICc3LjAnLCAnLXRuJywgJzgnLCAnLW1hJywgJzIwMCcsICctbWV0YWxfYmluZGluZycsICctaW1hZScsICc8aW5maWxlLm1hZT4nLCAnLW9tYWUnLCAnPG91dGZpbGUubWFlPic=

> <r_epik_Ionization_Penalty>
2.00764

> <r_epik_Ionization_Penalty_Charging>
0.000210348

> <r_epik_Ionization_Penalty_Neutral>
2.00743

> <r_epik_State_Penalty>
2.13668

> <r_epik_Charging_Adjusted_Penalty>
2.13689

> <i_epik_Tot_Q>
-1

> <i_epik_Tot_abs_Q>
1

> <r_epik_Metal_State_Penalty>
0.0208571

> <b_epik_Metal_Only>
0

> <s_lp_Force_Field>
OPLS_2005

> <r_lp_Energy>
23.9914

> <b_lp_Chiralities_Consistent>
1

> <s_lp_Variant>
AV-unprocessed.smi:578-4

> <Gold.Version>
5.8.1

> <Gold.Id.Protein>
6NUR|6NUR_protein|mol2

> <Gold.PLP.Fitness>
51.1983

> <Gold.PLP.PLP>
-40.8436

> <Gold.PLP.part.hbond>
-3.0000

> <Gold.PLP.part.metal>
0.0000

> <Gold.PLP.part.buried>
-5.6203

> <Gold.PLP.part.nonpolar>
-32.5014

> <Gold.PLP.part.repulsive>
0.2447

> <Gold.PLP.ligand.clash>
0.0000

> <Gold.PLP.ligand.torsion>
0.8918

> <Gold.PLP.Chemscore.Hbond>
4.0150

> <Gold.PLP.Chemscore.CHOScore>
0.0000

> <Gold.PLP.Chemscore.Metal>
0.0000

> <Gold.Chemscore.Hbonds>
donor molecule, donor type, donor heavy atom, donor atom, acceptor molecule, acceptor atom, score
      P1  H  7989  7998       L1     8  0.45
      P1  H  7997  8009       L1    11  1.65
      P1  H 10752 10763       L1    12  1.86

> <Gold.PLP.Chemscore.Internal.Correction>
0.0932

> <Gold.Rescore>
     Score         DG    S(hbond)    S(metal)    S(lipo)     H(rot)  DE(clash)    DE(int)     intcor
     18.92     -19.92       1.64        0.00      98.38       1.00       0.05       0.95       ----

> <Gold.Chemscore.Fitness>
18.9183

> <Gold.Chemscore.DG>
-19.9210

> <Gold.Chemscore.ZeroCoef>
-5.4800

> <Gold.Chemscore.Hbond>
1.6440

> <Gold.Chemscore.Metal>
0.0000

> <Gold.Chemscore.Lipo>
98.3754

> <Gold.Chemscore.Internal_Hbond>
0.0000

> <Gold.Chemscore.DEClash>
0.0479

> <Gold.Chemscore.DEInternal>
0.9549

> <Gold.Chemscore.Rot>
1.0000

> <Gold.Chemscore.Internal.Correction>
   9.000000E+99

> <Gold.Chemscore.Hbonds>
donor molecule, donor type, donor heavy atom, donor atom, acceptor molecule, acceptor atom, score
      P1  H  7997  8009       L1    11  0.72
      P1  H 10752 10763       L1    12  0.82

> <Gold.Chemscore.Hbond.Weighted>
-5.4910

> <Gold.Chemscore.Metal.Weighted>
-0.0000

> <Gold.Chemscore.Lipo.Weighted>
-11.5099

> <Gold.Chemscore.Internal_Hbond.Weighted>
0.0000

> <Gold.Chemscore.DEClash.Weighted>
0.0479

> <Gold.Chemscore.DEInternal.Weighted>
0.9549

> <Gold.Chemscore.Rot.Weighted>
2.5600

> <Gold.Chemscore.Internal.Correction.Weighted>
   9.000000E+99

> <Gold.Protein.RotatedTorsions>
[ 6907 6896 6895 6894 ] final  107.28 input  -60.11 | X-H torsion
[ 7974 7965 7964 7962 ] final   75.88 input  175.53 | X-H torsion
[ 8008 7997 7996 7995 ] final -127.27 input   59.86 | X-H torsion
[ 10167 10162 10161 10158 ] final   64.90 input  -65.29 | X-H torsion
[ 10718 10713 10712 10709 ] final -119.95 input   66.30 | X-H torsion
[ 10763 10752 10751 10750 ] final   41.72 input  -60.55 | X-H torsion
[ 11005 11000 10999 10996 ] final -113.16 input  -57.11 | X-H torsion

> <Gold.Protein.ActiveResidues>
 VAL166  LYS551  ARG553  GLY616  TRP617  ASP618  TYR619  PRO620  LYS621  CYS622 
 ASP623  PHE694  ASN695  SER759  ASP760  ASP761  ALA762  ILE779  LEU786  VAL792 
 PHE793  MET794  SER795  GLU796  ALA797  LYS798  CYS799  TRP800  GLU811  SER814 

> <Gold.Protein.RotatedAtoms>
  152.5160  133.9257  159.7555 H   0  0  0  0  0  0  0  0  0  0  0  0  # atno 6907 bound_to 6896
  150.9619  133.6428  159.2760 H   0  0  0  0  0  0  0  0  0  0  0  0  # atno 6908 bound_to 6896
  151.3670  135.0920  159.9506 H   0  0  0  0  0  0  0  0  0  0  0  0  # atno 6909 bound_to 6896
  145.7099  139.2611  143.1657 H   0  0  0  0  0  0  0  0  0  0  0  0  # atno 7974 bound_to 7965
  155.2434  140.0429  157.2978 H   0  0  0  0  0  0  0  0  0  0  0  0  # atno 8008 bound_to 7997
  154.5814  140.2401  155.8018 H   0  0  0  0  0  0  0  0  0  0  0  0  # atno 8009 bound_to 7997
  156.2195  140.2974  155.9927 H   0  0  0  0  0  0  0  0  0  0  0  0  # atno 8010 bound_to 7997
  140.1172  144.4765  150.6942 H   0  0  0  0  0  0  0  0  0  0  0  0  # atno 10167 bound_to 10162
  156.1220  130.6330  150.9480 H   0  0  0  0  0  0  0  0  0  0  0  0  # atno 10718 bound_to 10713
  152.9901  135.6153  154.2833 H   0  0  0  0  0  0  0  0  0  0  0  0  # atno 10763 bound_to 10752
  154.2561  135.2784  155.2799 H   0  0  0  0  0  0  0  0  0  0  0  0  # atno 10764 bound_to 10752
  154.5246  135.5805  153.6766 H   0  0  0  0  0  0  0  0  0  0  0  0  # atno 10765 bound_to 10752
  141.0631  133.9503  157.2630 H   0  0  0  0  0  0  0  0  0  0  0  0  # atno 11005 bound_to 11000
  146.0722  140.7856  142.9682 LP  0  0  0  0  0  0  0  0  0  0  0  0  # atno 17320 bound_to 7965
  144.6945  140.3359  143.7208 LP  0  0  0  0  0  0  0  0  0  0  0  0  # atno 17321 bound_to 7965
  140.6893  143.2367  151.5176 LP  0  0  0  0  0  0  0  0  0  0  0  0  # atno 17342 bound_to 10162
  139.5588  144.2208  152.1657 LP  0  0  0  0  0  0  0  0  0  0  0  0  # atno 17343 bound_to 10162
  157.6403  131.0911  150.8264 LP  0  0  0  0  0  0  0  0  0  0  0  0  # atno 17370 bound_to 10713
  156.8359  130.5031  149.5326 LP  0  0  0  0  0  0  0  0  0  0  0  0  # atno 17371 bound_to 10713
  139.9451  135.0185  156.8827 LP  0  0  0  0  0  0  0  0  0  0  0  0  # atno 17394 bound_to 11000
  140.5828  134.0336  155.7470 LP  0  0  0  0  0  0  0  0  0  0  0  0  # atno 17395 bound_to 11000

$$$$
