AV-unprocessed.smi:2902|AV-procd|sdf|11151|dock10
  -GOLD-   2272016 33D 1   1.00000     0.00000
 Structure written by MMmdl.
 47 48  0  0  0  0  0  0  0  0  1 V2000
  151.5567  139.8481  155.4504 C   0  0  0  0  0  0  0  0  0  0  0  0
  151.9871  138.7597  156.4418 C   0  0  0  0  0  0  0  0  0  0  0  0
  151.7457  139.1618  157.9088 C   0  0  2  0  0  0  0  0  0  0  0  0
  152.6474  140.2252  158.2233 O   0  0  0  0  0  0  0  0  0  0  0  0
  152.3822  140.9783  159.4053 C   0  0  0  0  0  0  0  0  0  0  0  0
  152.2992  142.4893  159.1696 C   0  0  0  0  0  0  0  0  0  0  0  0
  152.6225  143.1167  160.5304 C   0  0  0  0  0  0  0  0  0  0  0  0
  153.4050  142.0548  161.3196 C   0  0  0  0  0  0  0  0  0  0  0  0
  153.5440  140.8463  160.3876 C   0  0  0  0  0  0  0  0  0  0  0  0
  151.9623  137.9736  158.8603 C   0  0  0  0  0  0  0  0  0  0  0  0
  151.1361  137.0628  158.9189 O   0  0  0  0  0  0  0  0  0  0  0  0
  153.0953  137.9915  159.5797 N   0  0  0  0  0  0  0  0  0  0  0  0
  153.5454  136.9395  160.4880 C   0  0  2  0  0  0  0  0  0  0  0  0
  153.6606  137.5077  161.9157 C   0  0  0  0  0  0  0  0  0  0  0  0
  154.8669  136.3193  159.9656 C   0  0  2  0  0  0  0  0  0  0  0  0
  156.0498  137.3059  159.9896 C   0  0  0  0  0  0  0  0  0  0  0  0
  154.7086  135.7686  158.6269 N   0  0  0  0  0  0  0  0  0  0  0  0
  155.3121  136.0821  157.4777 C   0  0  0  0  0  0  0  0  0  0  0  0
  154.9113  135.3547  156.4447 N   0  0  0  0  0  0  0  0  0  0  0  0
  153.9992  134.5535  157.0711 C   0  0  0  0  0  0  0  0  0  0  0  0
  153.8414  134.7586  158.3788 N   0  0  0  0  0  0  0  0  0  0  0  0
  151.7373  139.5301  154.4236 H   0  0  0  0  0  0  0  0  0  0  0  0
  152.1099  140.7734  155.6137 H   0  0  0  0  0  0  0  0  0  0  0  0
  150.4939  140.0711  155.5477 H   0  0  0  0  0  0  0  0  0  0  0  0
  151.4366  137.8458  156.2139 H   0  0  0  0  0  0  0  0  0  0  0  0
  153.0420  138.5290  156.2869 H   0  0  0  0  0  0  0  0  0  0  0  0
  150.7154  139.5093  158.0004 H   0  0  0  0  0  0  0  0  0  0  0  0
  151.4777  140.6300  159.9050 H   0  0  0  0  0  0  0  0  0  0  0  0
  153.0562  142.7883  158.4430 H   0  0  0  0  0  0  0  0  0  0  0  0
  151.3285  142.8050  158.7863 H   0  0  0  0  0  0  0  0  0  0  0  0
  153.1906  144.0401  160.4157 H   0  0  0  0  0  0  0  0  0  0  0  0
  151.7012  143.3639  161.0592 H   0  0  0  0  0  0  0  0  0  0  0  0
  154.3785  142.4213  161.6463 H   0  0  0  0  0  0  0  0  0  0  0  0
  152.8453  141.7749  162.2129 H   0  0  0  0  0  0  0  0  0  0  0  0
  153.5341  139.8974  160.9243 H   0  0  0  0  0  0  0  0  0  0  0  0
  154.4901  140.9111  159.8485 H   0  0  0  0  0  0  0  0  0  0  0  0
  153.7115  138.7830  159.4643 H   0  0  0  0  0  0  0  0  0  0  0  0
  152.7933  136.1483  160.5039 H   0  0  0  0  0  0  0  0  0  0  0  0
  153.9146  136.7337  162.6397 H   0  0  0  0  0  0  0  0  0  0  0  0
  152.7187  137.9511  162.2405 H   0  0  0  0  0  0  0  0  0  0  0  0
  154.4280  138.2803  161.9720 H   0  0  0  0  0  0  0  0  0  0  0  0
  155.1277  135.4906  160.6271 H   0  0  0  0  0  0  0  0  0  0  0  0
  156.2881  137.6234  161.0045 H   0  0  0  0  0  0  0  0  0  0  0  0
  155.8350  138.1995  159.4030 H   0  0  0  0  0  0  0  0  0  0  0  0
  156.9496  136.8467  159.5790 H   0  0  0  0  0  0  0  0  0  0  0  0
  156.0583  136.8586  157.3956 H   0  0  0  0  0  0  0  0  0  0  0  0
  153.4356  133.7954  156.5475 H   0  0  0  0  0  0  0  0  0  0  0  0
  1  2  1  0  0  0  0
  1 22  1  0  0  0  0
  1 23  1  0  0  0  0
  1 24  1  0  0  0  0
  2  3  1  0  0  0  0
  2 25  1  0  0  0  0
  2 26  1  0  0  0  0
  3  4  1  0  0  0  0
  3 10  1  0  0  0  0
  3 27  1  0  0  0  0
  4  5  1  0  0  0  0
  5  9  1  0  0  0  0
  5  6  1  0  0  0  0
  5 28  1  0  0  0  0
  6  7  1  0  0  0  0
  6 29  1  0  0  0  0
  6 30  1  0  0  0  0
  7  8  1  0  0  0  0
  7 31  1  0  0  0  0
  7 32  1  0  0  0  0
  8  9  1  0  0  0  0
  8 33  1  0  0  0  0
  8 34  1  0  0  0  0
  9 35  1  0  0  0  0
  9 36  1  0  0  0  0
 10 11  2  0  0  0  0
 10 12  1  0  0  0  0
 12 13  1  0  0  0  0
 12 37  1  0  0  0  0
 13 14  1  0  0  0  0
 13 15  1  0  0  0  0
 13 38  1  0  0  0  0
 14 39  1  0  0  0  0
 14 40  1  0  0  0  0
 14 41  1  0  0  0  0
 15 16  1  0  0  0  0
 15 17  1  0  0  0  0
 15 42  1  0  0  0  0
 16 43  1  0  0  0  0
 16 44  1  0  0  0  0
 16 45  1  0  0  0  0
 17 21  1  0  0  0  0
 17 18  1  0  0  0  0
 18 19  2  0  0  0  0
 18 46  1  0  0  0  0
 19 20  1  0  0  0  0
 20 21  2  0  0  0  0
 20 47  1  0  0  0  0
M  END
> <s_m_source_file>
AV-unprocessed.smi

> <i_m_source_file_index>
2902

> <i_lp_mmshare_version>
43012

> <i_f3d_flags>
0

> <s_epik_input>
W0NIMl0xW0NIMl1bQ0gyXVtDSDJdW0NIXTFPW0NAQEhdKFtDSDJdW0NIM10pQyg9TylbTkhdW0NASF0oW0NIM10pW0NASF0oW0NIM10pbjJbY0hdbltjSF1uMg==

> <s_epik_cmdline>
J2VwaWtfcHl0aG9uJywgJy1waCcsICc3LjAnLCAnLXRuJywgJzgnLCAnLW1hJywgJzIwMCcsICctbWV0YWxfYmluZGluZycsICctaW1hZScsICc8aW5maWxlLm1hZT4nLCAnLW9tYWUnLCAnPG91dGZpbGUubWFlPic=

> <r_lp_tautomer_probability>
1

> <r_epik_Ionization_Penalty>
6.95617e-05

> <r_epik_Ionization_Penalty_Charging>
0

> <r_epik_Ionization_Penalty_Neutral>
6.95617e-05

> <r_epik_State_Penalty>
-0

> <r_epik_Charging_Adjusted_Penalty>
0

> <i_epik_Tot_Q>
0

> <i_epik_Tot_abs_Q>
0

> <r_epik_Metal_State_Penalty>
-0

> <b_epik_Metal_Only>
0

> <s_lp_Force_Field>
OPLS_2005

> <r_lp_Energy>
29.4531

> <b_lp_Chiralities_Consistent>
1

> <s_lp_Variant>
AV-unprocessed.smi:2902-1

> <Gold.Version>
5.8.1

> <Gold.Id.Protein>
6NUR|6NUR_protein|mol2

> <Gold.PLP.Fitness>
45.1418

> <Gold.PLP.PLP>
-35.6984

> <Gold.PLP.part.hbond>
-4.0000

> <Gold.PLP.part.metal>
0.0000

> <Gold.PLP.part.buried>
-4.1574

> <Gold.PLP.part.nonpolar>
-27.4780

> <Gold.PLP.part.repulsive>
0.0751

> <Gold.PLP.ligand.clash>
0.0000

> <Gold.PLP.ligand.torsion>
1.2955

> <Gold.PLP.Chemscore.Hbond>
3.9750

> <Gold.PLP.Chemscore.CHOScore>
0.0000

> <Gold.PLP.Chemscore.Metal>
0.0000

> <Gold.Chemscore.Hbonds>
donor molecule, donor type, donor heavy atom, donor atom, acceptor molecule, acceptor atom, score
      P1  H  6896  6907       L1    21  0.72
      P1  H  6896  6909       L1    11  0.65
      P1  H  7997  8010       L1     4  0.36
      P1  H 10752 10764       L1    19  0.42

> <Gold.PLP.Chemscore.Internal.Correction>
0.1093

> <Gold.Rescore>
     Score         DG    S(hbond)    S(metal)    S(lipo)     H(rot)  DE(clash)    DE(int)     intcor
     19.15     -20.41       3.50        0.00      86.69       2.69       0.00       1.25       ----

> <Gold.Chemscore.Fitness>
19.1512

> <Gold.Chemscore.DG>
-20.4077

> <Gold.Chemscore.ZeroCoef>
-5.4800

> <Gold.Chemscore.Hbond>
3.4971

> <Gold.Chemscore.Metal>
0.0000

> <Gold.Chemscore.Lipo>
86.6895

> <Gold.Chemscore.Internal_Hbond>
0.0000

> <Gold.Chemscore.DEClash>
0.0038

> <Gold.Chemscore.DEInternal>
1.2528

> <Gold.Chemscore.Rot>
2.6935

> <Gold.Chemscore.Internal.Correction>
   9.000000E+99

> <Gold.Chemscore.Hbonds>
donor molecule, donor type, donor heavy atom, donor atom, acceptor molecule, acceptor atom, score
      P1  H  6896  6907       L1    21  0.69
      P1  H  6896  6909       L1    11  0.63
      P1  H  7997  8010       L1     4  0.27
      P1  H 10752 10764       L1    19  0.15

> <Gold.Chemscore.Hbond.Weighted>
-11.6804

> <Gold.Chemscore.Metal.Weighted>
-0.0000

> <Gold.Chemscore.Lipo.Weighted>
-10.1427

> <Gold.Chemscore.Internal_Hbond.Weighted>
0.0000

> <Gold.Chemscore.DEClash.Weighted>
0.0038

> <Gold.Chemscore.DEInternal.Weighted>
1.2528

> <Gold.Chemscore.Rot.Weighted>
6.8954

> <Gold.Chemscore.Internal.Correction.Weighted>
   9.000000E+99

> <Gold.Protein.RotatedTorsions>
[ 6907 6896 6895 6894 ] final   96.70 input  -60.11 | X-H torsion
[ 7974 7965 7964 7962 ] final   25.61 input  175.53 | X-H torsion
[ 8008 7997 7996 7995 ] final   37.38 input   59.86 | X-H torsion
[ 10167 10162 10161 10158 ] final  137.57 input  -65.29 | X-H torsion
[ 10718 10713 10712 10709 ] final   -0.59 input   66.30 | X-H torsion
[ 10763 10752 10751 10750 ] final   59.27 input  -60.55 | X-H torsion
[ 11005 11000 10999 10996 ] final  118.08 input  -57.11 | X-H torsion

> <Gold.Protein.ActiveResidues>
 VAL166  LYS551  ARG553  GLY616  TRP617  ASP618  TYR619  PRO620  LYS621  CYS622 
 ASP623  PHE694  ASN695  SER759  ASP760  ASP761  ALA762  ILE779  LEU786  VAL792 
 PHE793  MET794  SER795  GLU796  ALA797  LYS798  CYS799  TRP800  GLU811  SER814 

> <Gold.Protein.RotatedAtoms>
  152.5432  134.0846  159.8250 H   0  0  0  0  0  0  0  0  0  0  0  0  # atno 6907 bound_to 6896
  151.0943  133.5284  159.2620 H   0  0  0  0  0  0  0  0  0  0  0  0  # atno 6908 bound_to 6896
  151.2063  135.0472  159.8947 H   0  0  0  0  0  0  0  0  0  0  0  0  # atno 6909 bound_to 6896
  146.1880  139.7442  142.8853 H   0  0  0  0  0  0  0  0  0  0  0  0  # atno 7974 bound_to 7965
  155.2028  140.3317  155.4340 H   0  0  0  0  0  0  0  0  0  0  0  0  # atno 8008 bound_to 7997
  156.2400  140.1890  156.7063 H   0  0  0  0  0  0  0  0  0  0  0  0  # atno 8009 bound_to 7997
  154.6130  140.0606  156.9504 H   0  0  0  0  0  0  0  0  0  0  0  0  # atno 8010 bound_to 7997
  139.5140  144.6402  151.5589 H   0  0  0  0  0  0  0  0  0  0  0  0  # atno 10167 bound_to 10162
  156.8182  130.5447  149.5700 H   0  0  0  0  0  0  0  0  0  0  0  0  # atno 10718 bound_to 10713
  152.9890  135.5577  154.5687 H   0  0  0  0  0  0  0  0  0  0  0  0  # atno 10763 bound_to 10752
  154.5091  135.2801  155.1359 H   0  0  0  0  0  0  0  0  0  0  0  0  # atno 10764 bound_to 10752
  154.2758  135.6354  153.5381 H   0  0  0  0  0  0  0  0  0  0  0  0  # atno 10765 bound_to 10752
  139.9097  134.9617  156.7449 H   0  0  0  0  0  0  0  0  0  0  0  0  # atno 11005 bound_to 11000
  145.3881  141.0368  143.3139 LP  0  0  0  0  0  0  0  0  0  0  0  0  # atno 17320 bound_to 7965
  144.8432  139.5438  143.6890 LP  0  0  0  0  0  0  0  0  0  0  0  0  # atno 17321 bound_to 7965
  140.6166  143.9337  150.6493 LP  0  0  0  0  0  0  0  0  0  0  0  0  # atno 17342 bound_to 10162
  140.2597  143.3533  152.1334 LP  0  0  0  0  0  0  0  0  0  0  0  0  # atno 17343 bound_to 10162
  156.1004  130.5965  150.9885 LP  0  0  0  0  0  0  0  0  0  0  0  0  # atno 17370 bound_to 10713
  157.6471  131.0902  150.8131 LP  0  0  0  0  0  0  0  0  0  0  0  0  # atno 17371 bound_to 10713
  140.6820  133.9466  155.7916 LP  0  0  0  0  0  0  0  0  0  0  0  0  # atno 17394 bound_to 11000
  141.0503  134.0494  157.3791 LP  0  0  0  0  0  0  0  0  0  0  0  0  # atno 17395 bound_to 11000

$$$$
