AV-unprocessed.smi:1897|AV-procd|sdf|7692|dock4
  -GOLD-   22720 9433D 1   1.00000     0.00000
 Structure written by MMmdl.
 38 40  0  0  0  0  0  0  0  0  3 V2000
  153.4362  131.6148  156.9678 C   0  0  0  0  0  0  0  0  0  0  0  0
  152.4675  131.0100  156.0105 C   0  0  0  0  0  0  0  0  0  0  0  0
  152.7037  129.8605  155.3739 N   0  0  0  0  0  0  0  0  0  0  0  0
  151.6573  129.5016  154.5374 N   0  0  0  0  0  0  0  0  0  0  0  0
  150.6526  130.3890  154.5417 C   0  0  0  0  0  0  0  0  0  0  0  0
  149.5474  130.2341  153.7891 N   0  5  0  0  0  0  0  0  0  0  0  0
  148.5066  131.1060  153.8306 C   0  0  0  0  0  0  0  0  0  0  0  0
  147.9146  131.4053  154.8667 O   0  0  0  0  0  0  0  0  0  0  0  0
  148.1108  131.6646  152.6716 N   0  0  0  0  0  0  0  0  0  0  0  0
  147.0188  132.6167  152.5110 C   0  0  2  0  0  0  0  0  0  0  0  0
  146.9903  133.7145  153.5846 C   0  0  0  0  0  0  0  0  0  0  0  0
  145.4966  133.9554  153.8800 C   0  0  0  0  0  0  0  0  0  0  0  0
  144.7319  133.0601  152.9801 N   0  3  1  0  0  0  0  0  0  0  0  0
  144.2192  133.7781  151.7808 C   0  0  0  0  0  0  0  0  0  0  0  0
  143.6380  132.8177  150.7355 C   0  0  0  0  0  0  0  0  0  0  0  0
  144.7002  131.8035  150.3048 C   0  0  0  0  0  0  0  0  0  0  0  0
  145.1882  131.0252  151.5311 C   0  0  0  0  0  0  0  0  0  0  0  0
  145.6578  131.9403  152.6845 C   0  0  1  0  0  0  0  0  0  0  0  0
  150.9267  131.7559  155.6214 S   0  0  0  0  0  0  0  0  0  0  0  0
  154.2165  132.1452  156.4222 H   0  0  0  0  0  0  0  0  0  0  0  0
  153.8987  130.8390  157.5786 H   0  0  0  0  0  0  0  0  0  0  0  0
  152.9276  132.3188  157.6265 H   0  0  0  0  0  0  0  0  0  0  0  0
  148.6116  131.3989  151.8363 H   0  0  0  0  0  0  0  0  0  0  0  0
  147.0726  133.0767  151.5227 H   0  0  0  0  0  0  0  0  0  0  0  0
  147.4981  133.3908  154.4946 H   0  0  0  0  0  0  0  0  0  0  0  0
  147.4894  134.6190  153.2356 H   0  0  0  0  0  0  0  0  0  0  0  0
  145.2780  133.6769  154.9115 H   0  0  0  0  0  0  0  0  0  0  0  0
  145.2154  135.0029  153.7627 H   0  0  0  0  0  0  0  0  0  0  0  0
  143.4551  134.4904  152.0938 H   0  0  0  0  0  0  0  0  0  0  0  0
  145.0215  134.3620  151.3267 H   0  0  0  0  0  0  0  0  0  0  0  0
  142.7691  132.3003  151.1444 H   0  0  0  0  0  0  0  0  0  0  0  0
  143.2874  133.3794  149.8691 H   0  0  0  0  0  0  0  0  0  0  0  0
  144.2886  131.1168  149.5646 H   0  0  0  0  0  0  0  0  0  0  0  0
  145.5354  132.3150  149.8250 H   0  0  0  0  0  0  0  0  0  0  0  0
  144.3692  130.4021  151.8923 H   0  0  0  0  0  0  0  0  0  0  0  0
  145.9852  130.3369  151.2473 H   0  0  0  0  0  0  0  0  0  0  0  0
  145.7035  131.3288  153.5882 H   0  0  0  0  0  0  0  0  0  0  0  0
  143.9311  132.6937  153.4747 H   0  0  0  0  0  0  0  0  0  0  0  0
  1  2  1  0  0  0  0
  1 20  1  0  0  0  0
  1 21  1  0  0  0  0
  1 22  1  0  0  0  0
  2 19  1  0  0  0  0
  2  3  2  0  0  0  0
  3  4  1  0  0  0  0
  4  5  2  0  0  0  0
  5  6  1  0  0  0  0
  5 19  1  0  0  0  0
  6  7  1  0  0  0  0
  7  8  2  0  0  0  0
  7  9  1  0  0  0  0
  9 10  1  0  0  0  0
  9 23  1  0  0  0  0
 10 18  1  0  0  0  0
 10 11  1  0  0  0  0
 10 24  1  0  0  0  0
 11 12  1  0  0  0  0
 11 25  1  0  0  0  0
 11 26  1  0  0  0  0
 12 13  1  0  0  0  0
 12 27  1  0  0  0  0
 12 28  1  0  0  0  0
 13 18  1  0  0  0  0
 13 14  1  0  0  0  0
 13 38  1  0  0  0  0
 14 15  1  0  0  0  0
 14 29  1  0  0  0  0
 14 30  1  0  0  0  0
 15 16  1  0  0  0  0
 15 31  1  0  0  0  0
 15 32  1  0  0  0  0
 16 17  1  0  0  0  0
 16 33  1  0  0  0  0
 16 34  1  0  0  0  0
 17 18  1  0  0  0  0
 17 35  1  0  0  0  0
 17 36  1  0  0  0  0
 18 37  1  0  0  0  0
M  CHG  1   6  -1
M  CHG  1  13   1
M  END
> <s_m_source_file>
AV-unprocessed.smi

> <i_m_source_file_index>
1897

> <i_lp_mmshare_version>
43012

> <i_f3d_flags>
0

> <s_epik_input>
W0NIM11jMW5uYyhzMSlbTkhdQyg9TylbTkhdW0NASF0oW0NIMl1bQ0gyXTIpW0NAQEhdKE4yMylbQ0gyXVtDSDJdW0NIMl1bQ0gyXTM=

> <s_epik_cmdline>
J2VwaWtfcHl0aG9uJywgJy1waCcsICc3LjAnLCAnLXRuJywgJzgnLCAnLW1hJywgJzIwMCcsICctbWV0YWxfYmluZGluZycsICctaW1hZScsICc8aW5maWxlLm1hZT4nLCAnLW9tYWUnLCAnPG91dGZpbGUubWFlPic=

> <r_lp_tautomer_probability>
1

> <r_epik_Ionization_Penalty>
3.77712

> <r_epik_Ionization_Penalty_Charging>
3.67739

> <r_epik_Ionization_Penalty_Neutral>
0.0997294

> <r_epik_State_Penalty>
3.67514

> <r_epik_Charging_Adjusted_Penalty>
7.35254

> <i_epik_Tot_Q>
0

> <i_epik_Tot_abs_Q>
2

> <r_epik_Metal_State_Penalty>
0.540795

> <b_epik_Metal_Only>
1

> <s_lp_Force_Field>
OPLS_2005

> <r_lp_Energy>
31.3184

> <b_lp_Chiralities_Consistent>
1

> <s_lp_Variant>
AV-unprocessed.smi:1897-9

> <Gold.Version>
5.8.1

> <Gold.Id.Protein>
6NUR|6NUR_protein|mol2

> <Gold.PLP.Fitness>
36.6571

> <Gold.PLP.PLP>
-29.0016

> <Gold.PLP.part.hbond>
-2.0000

> <Gold.PLP.part.metal>
0.0000

> <Gold.PLP.part.buried>
-5.1296

> <Gold.PLP.part.nonpolar>
-21.8606

> <Gold.PLP.part.repulsive>
0.2803

> <Gold.PLP.ligand.clash>
0.0000

> <Gold.PLP.ligand.torsion>
0.6779

> <Gold.PLP.Chemscore.Hbond>
3.0000

> <Gold.PLP.Chemscore.CHOScore>
0.0000

> <Gold.PLP.Chemscore.Metal>
0.0000

> <Gold.Chemscore.Hbonds>
donor molecule, donor type, donor heavy atom, donor atom, acceptor molecule, acceptor atom, score
      L1  H     9    23       P1 10747  1.00
      L1  H    13    38       P1 10957  1.98

> <Gold.PLP.Chemscore.Internal.Correction>
0.0112

> <Gold.Rescore>
     Score         DG    S(hbond)    S(metal)    S(lipo)     H(rot)  DE(clash)    DE(int)     intcor
     14.36     -16.40       1.84        0.00      62.56       1.00       0.01       2.03       ----

> <Gold.Chemscore.Fitness>
14.3617

> <Gold.Chemscore.DG>
-16.4007

> <Gold.Chemscore.ZeroCoef>
-5.4800

> <Gold.Chemscore.Hbond>
1.8447

> <Gold.Chemscore.Metal>
0.0000

> <Gold.Chemscore.Lipo>
62.5591

> <Gold.Chemscore.Internal_Hbond>
0.0000

> <Gold.Chemscore.DEClash>
0.0077

> <Gold.Chemscore.DEInternal>
2.0313

> <Gold.Chemscore.Rot>
1.0000

> <Gold.Chemscore.Internal.Correction>
   9.000000E+99

> <Gold.Chemscore.Hbonds>
donor molecule, donor type, donor heavy atom, donor atom, acceptor molecule, acceptor atom, score
      L1  H     9    23       P1 10747  0.99
      L1  H    13    38       P1 10957  0.46

> <Gold.Chemscore.Hbond.Weighted>
-6.1613

> <Gold.Chemscore.Metal.Weighted>
-0.0000

> <Gold.Chemscore.Lipo.Weighted>
-7.3194

> <Gold.Chemscore.Internal_Hbond.Weighted>
0.0000

> <Gold.Chemscore.DEClash.Weighted>
0.0077

> <Gold.Chemscore.DEInternal.Weighted>
2.0313

> <Gold.Chemscore.Rot.Weighted>
2.5600

> <Gold.Chemscore.Internal.Correction.Weighted>
   9.000000E+99

> <Gold.Protein.RotatedTorsions>
[ 6907 6896 6895 6894 ] final  176.45 input  -60.11 | X-H torsion
[ 7974 7965 7964 7962 ] final   36.85 input  175.53 | X-H torsion
[ 8008 7997 7996 7995 ] final -153.82 input   59.86 | X-H torsion
[ 10167 10162 10161 10158 ] final  107.97 input  -65.29 | X-H torsion
[ 10718 10713 10712 10709 ] final   65.93 input   66.30 | X-H torsion
[ 10763 10752 10751 10750 ] final  -71.67 input  -60.55 | X-H torsion
[ 11005 11000 10999 10996 ] final -154.01 input  -57.11 | X-H torsion

> <Gold.Protein.ActiveResidues>
 VAL166  LYS551  ARG553  GLY616  TRP617  ASP618  TYR619  PRO620  LYS621  CYS622 
 ASP623  PHE694  ASN695  SER759  ASP760  ASP761  ALA762  ILE779  LEU786  VAL792 
 PHE793  MET794  SER795  GLU796  ALA797  LYS798  CYS799  TRP800  GLU811  SER814 

> <Gold.Protein.RotatedAtoms>
  151.7199  133.3314  159.3312 H   0  0  0  0  0  0  0  0  0  0  0  0  # atno 6907 bound_to 6896
  150.7657  134.6457  159.6270 H   0  0  0  0  0  0  0  0  0  0  0  0  # atno 6908 bound_to 6896
  152.3659  134.6808  160.0244 H   0  0  0  0  0  0  0  0  0  0  0  0  # atno 6909 bound_to 6896
  146.1181  139.5966  142.9308 H   0  0  0  0  0  0  0  0  0  0  0  0  # atno 7974 bound_to 7965
  155.6767  140.0739  157.2500 H   0  0  0  0  0  0  0  0  0  0  0  0  # atno 8008 bound_to 7997
  154.4113  140.1689  156.1990 H   0  0  0  0  0  0  0  0  0  0  0  0  # atno 8009 bound_to 7997
  155.9570  140.3373  155.6460 H   0  0  0  0  0  0  0  0  0  0  0  0  # atno 8010 bound_to 7997
  139.6884  144.7111  151.1391 H   0  0  0  0  0  0  0  0  0  0  0  0  # atno 10167 bound_to 10162
  157.6137  130.9240  150.0042 H   0  0  0  0  0  0  0  0  0  0  0  0  # atno 10718 bound_to 10713
  154.4350  135.5954  153.6093 H   0  0  0  0  0  0  0  0  0  0  0  0  # atno 10763 bound_to 10752
  152.9801  135.5984  154.3792 H   0  0  0  0  0  0  0  0  0  0  0  0  # atno 10764 bound_to 10752
  154.3635  135.2841  155.2285 H   0  0  0  0  0  0  0  0  0  0  0  0  # atno 10765 bound_to 10752
  140.7019  134.3927  157.5208 H   0  0  0  0  0  0  0  0  0  0  0  0  # atno 11005 bound_to 11000
  145.5525  141.0412  143.2271 LP  0  0  0  0  0  0  0  0  0  0  0  0  # atno 17320 bound_to 7965
  144.7571  139.7047  143.7249 LP  0  0  0  0  0  0  0  0  0  0  0  0  # atno 17321 bound_to 7965
  140.7675  143.5595  150.9114 LP  0  0  0  0  0  0  0  0  0  0  0  0  # atno 17342 bound_to 10162
  139.9271  143.6537  152.3084 LP  0  0  0  0  0  0  0  0  0  0  0  0  # atno 17343 bound_to 10162
  156.1250  130.3645  149.9824 LP  0  0  0  0  0  0  0  0  0  0  0  0  # atno 17370 bound_to 10713
  156.7897  130.9251  151.3646 LP  0  0  0  0  0  0  0  0  0  0  0  0  # atno 17371 bound_to 10713
  139.8894  134.8830  156.2421 LP  0  0  0  0  0  0  0  0  0  0  0  0  # atno 17394 bound_to 11000
  141.0156  133.7070  156.1183 LP  0  0  0  0  0  0  0  0  0  0  0  0  # atno 17395 bound_to 11000

$$$$
