AV-unprocessed.smi:177|AV-procd|sdf|1438|dock6
  -GOLD-   2262019223D 1   1.00000     0.00000
 Structure written by MMmdl.
 61 65  0  0  0  0  0  0  0  0  1 V2000
  149.3183  144.0271  159.5676 C   0  0  0  0  0  0  0  0  0  0  0  0
  150.0004  142.8978  159.0445 O   0  0  0  0  0  0  0  0  0  0  0  0
  151.1228  143.2060  158.2238 C   0  0  1  0  0  0  0  0  0  0  0  0
  152.1407  143.9693  159.0913 C   0  0  0  0  0  0  0  0  0  0  0  0
  152.7742  143.0667  160.1636 C   0  0  0  0  0  0  0  0  0  0  0  0
  153.4000  141.8165  159.5282 C   0  0  1  0  0  0  0  0  0  0  0  0
  153.9491  140.9948  160.5522 O   0  0  0  0  0  0  0  0  0  0  0  0
  154.6283  139.8677  160.0115 C   0  0  0  0  0  0  0  0  0  0  0  0
  153.6327  139.0028  159.2241 C   0  0  0  0  0  0  0  0  0  0  0  0
  152.9574  139.7930  158.1984 N   0  0  0  0  0  0  0  0  0  0  0  0
  152.1912  138.9878  157.4239 C   0  0  0  0  0  0  0  0  0  0  0  0
  152.4942  138.7991  156.1115 N   0  0  0  0  0  0  0  0  0  0  0  0
  151.7152  138.0254  155.3497 C   0  0  0  0  0  0  0  0  0  0  0  0
  150.6018  137.3717  155.6883 N   0  0  0  0  0  0  0  0  0  0  0  0
  150.2876  137.5707  157.0007 C   0  0  0  0  0  0  0  0  0  0  0  0
  151.0265  138.3530  157.9312 C   0  0  0  0  0  0  0  0  0  0  0  0
  150.4171  138.3152  159.1779 N   0  0  0  0  0  0  0  0  0  0  0  0
  149.3746  137.5520  158.9951 C   0  0  0  0  0  0  0  0  0  0  0  0
  149.2044  137.0812  157.7111 N   0  0  0  0  0  0  0  0  0  0  0  0
  148.1272  136.2258  157.2314 C   0  0  0  0  0  0  0  0  0  0  0  0
  148.1685  134.7560  157.7600 C   0  0  0  0  0  0  0  0  0  0  0  0
  149.3248  133.9579  157.1000 C   0  0  0  0  0  0  0  0  0  0  0  0
  150.5877  134.5445  157.3442 O   0  0  0  0  0  0  0  0  0  0  0  0
  148.3794  134.7023  159.2943 C   0  0  0  0  0  0  0  0  0  0  0  0
  147.1486  135.1840  160.0835 C   0  0  0  0  0  0  0  0  0  0  0  0
  146.0121  134.4108  159.7220 O   0  0  0  0  0  0  0  0  0  0  0  0
  145.6703  134.5472  158.3488 C   0  0  0  0  0  0  0  0  0  0  0  0
  146.8253  134.0417  157.4650 C   0  0  0  0  0  0  0  0  0  0  0  0
  152.3453  141.0178  158.7262 C   0  0  2  0  0  0  0  0  0  0  0  0
  151.7606  141.9335  157.6234 C   0  0  0  0  0  0  0  0  0  0  0  0
  148.5333  143.6907  160.2446 H   0  0  0  0  0  0  0  0  0  0  0  0
  148.8431  144.6155  158.7835 H   0  0  0  0  0  0  0  0  0  0  0  0
  149.9918  144.6716  160.1336 H   0  0  0  0  0  0  0  0  0  0  0  0
  150.8022  143.8683  157.4179 H   0  0  0  0  0  0  0  0  0  0  0  0
  152.9282  144.3701  158.4519 H   0  0  0  0  0  0  0  0  0  0  0  0
  151.6618  144.8286  159.5615 H   0  0  0  0  0  0  0  0  0  0  0  0
  153.5330  143.6241  160.7137 H   0  0  0  0  0  0  0  0  0  0  0  0
  152.0181  142.7712  160.8921 H   0  0  0  0  0  0  0  0  0  0  0  0
  154.2067  142.1345  158.8643 H   0  0  0  0  0  0  0  0  0  0  0  0
  155.4524  140.1922  159.3744 H   0  0  0  0  0  0  0  0  0  0  0  0
  155.0643  139.2905  160.8268 H   0  0  0  0  0  0  0  0  0  0  0  0
  154.1600  138.1620  158.7709 H   0  0  0  0  0  0  0  0  0  0  0  0
  152.8890  138.5848  159.9044 H   0  0  0  0  0  0  0  0  0  0  0  0
  152.0256  137.9187  154.3208 H   0  0  0  0  0  0  0  0  0  0  0  0
  148.6897  137.3183  159.7971 H   0  0  0  0  0  0  0  0  0  0  0  0
  147.1848  136.7091  157.4855 H   0  0  0  0  0  0  0  0  0  0  0  0
  148.1638  136.2311  156.1413 H   0  0  0  0  0  0  0  0  0  0  0  0
  149.3423  132.9264  157.4516 H   0  0  0  0  0  0  0  0  0  0  0  0
  149.1863  133.9032  156.0196 H   0  0  0  0  0  0  0  0  0  0  0  0
  151.2429  134.0510  156.8750 H   0  0  0  0  0  0  0  0  0  0  0  0
  148.5826  133.6735  159.5953 H   0  0  0  0  0  0  0  0  0  0  0  0
  149.2611  135.2706  159.5892 H   0  0  0  0  0  0  0  0  0  0  0  0
  147.3244  135.0648  161.1524 H   0  0  0  0  0  0  0  0  0  0  0  0
  146.9493  136.2423  159.9171 H   0  0  0  0  0  0  0  0  0  0  0  0
  144.7728  133.9592  158.1557 H   0  0  0  0  0  0  0  0  0  0  0  0
  145.4163  135.5833  158.1241 H   0  0  0  0  0  0  0  0  0  0  0  0
  146.5561  134.1504  156.4140 H   0  0  0  0  0  0  0  0  0  0  0  0
  146.9370  132.9703  157.6380 H   0  0  0  0  0  0  0  0  0  0  0  0
  151.5435  140.7273  159.4073 H   0  0  0  0  0  0  0  0  0  0  0  0
  151.0318  141.4084  157.0089 H   0  0  0  0  0  0  0  0  0  0  0  0
  152.5589  142.2236  156.9388 H   0  0  0  0  0  0  0  0  0  0  0  0
  1  2  1  0  0  0  0
  1 31  1  0  0  0  0
  1 32  1  0  0  0  0
  1 33  1  0  0  0  0
  2  3  1  0  0  0  0
  3 30  1  0  0  0  0
  3  4  1  0  0  0  0
  3 34  1  0  0  0  0
  4  5  1  0  0  0  0
  4 35  1  0  0  0  0
  4 36  1  0  0  0  0
  5  6  1  0  0  0  0
  5 37  1  0  0  0  0
  5 38  1  0  0  0  0
  6 29  1  0  0  0  0
  6  7  1  0  0  0  0
  6 39  1  0  0  0  0
  7  8  1  0  0  0  0
  8  9  1  0  0  0  0
  8 40  1  0  0  0  0
  8 41  1  0  0  0  0
  9 10  1  0  0  0  0
  9 42  1  0  0  0  0
  9 43  1  0  0  0  0
 10 11  1  0  0  0  0
 10 29  1  0  0  0  0
 11 16  1  0  0  0  0
 11 12  2  0  0  0  0
 12 13  1  0  0  0  0
 13 14  2  0  0  0  0
 13 44  1  0  0  0  0
 14 15  1  0  0  0  0
 15 19  1  0  0  0  0
 15 16  2  0  0  0  0
 16 17  1  0  0  0  0
 17 18  2  0  0  0  0
 18 19  1  0  0  0  0
 18 45  1  0  0  0  0
 19 20  1  0  0  0  0
 20 21  1  0  0  0  0
 20 46  1  0  0  0  0
 20 47  1  0  0  0  0
 21 28  1  0  0  0  0
 21 22  1  0  0  0  0
 21 24  1  0  0  0  0
 22 23  1  0  0  0  0
 22 48  1  0  0  0  0
 22 49  1  0  0  0  0
 23 50  1  0  0  0  0
 24 25  1  0  0  0  0
 24 51  1  0  0  0  0
 24 52  1  0  0  0  0
 25 26  1  0  0  0  0
 25 53  1  0  0  0  0
 25 54  1  0  0  0  0
 26 27  1  0  0  0  0
 27 28  1  0  0  0  0
 27 55  1  0  0  0  0
 27 56  1  0  0  0  0
 28 57  1  0  0  0  0
 28 58  1  0  0  0  0
 29 30  1  0  0  0  0
 29 59  1  0  0  0  0
 30 60  1  0  0  0  0
 30 61  1  0  0  0  0
M  END
> <s_m_source_file>
AV-unprocessed.smi

> <i_m_source_file_index>
177

> <i_lp_mmshare_version>
43012

> <i_f3d_flags>
0

> <s_epik_input>
W0NIM11PW0NASF0oW0NIMl1bQ0gyXTEpW0NIMl1bQ0BIXShbQ0BASF0xMilOKFtDSDJdW0NIMl1PMiljKG5bY0hdbjMpYyhjMzQpbltjSF1uNFtDSDJdQzUoW0NIMl1bT0hdKVtDSDJdW0NIMl1PW0NIMl1bQ0gyXTU=

> <s_epik_cmdline>
J2VwaWtfcHl0aG9uJywgJy1waCcsICc3LjAnLCAnLXRuJywgJzgnLCAnLW1hJywgJzIwMCcsICctbWV0YWxfYmluZGluZycsICctaW1hZScsICc8aW5maWxlLm1hZT4nLCAnLW9tYWUnLCAnPG91dGZpbGUubWFlPic=

> <r_lp_tautomer_probability>
1

> <r_epik_Ionization_Penalty>
0.0065899

> <r_epik_Ionization_Penalty_Charging>
0

> <r_epik_Ionization_Penalty_Neutral>
0.0065899

> <r_epik_State_Penalty>
0.00470042

> <r_epik_Charging_Adjusted_Penalty>
0.00470042

> <i_epik_Tot_Q>
0

> <i_epik_Tot_abs_Q>
0

> <r_epik_Metal_State_Penalty>
-0

> <b_epik_Metal_Only>
0

> <s_lp_Force_Field>
OPLS_2005

> <r_lp_Energy>
42.9311

> <b_lp_Chiralities_Consistent>
1

> <s_lp_Variant>
AV-unprocessed.smi:177-2

> <Gold.Version>
5.8.1

> <Gold.Id.Protein>
6NUR|6NUR_protein|mol2

> <Gold.PLP.Fitness>
38.9488

> <Gold.PLP.PLP>
-34.6629

> <Gold.PLP.part.hbond>
-3.5451

> <Gold.PLP.part.metal>
0.0000

> <Gold.PLP.part.buried>
-6.6526

> <Gold.PLP.part.nonpolar>
-25.1265

> <Gold.PLP.part.repulsive>
0.1648

> <Gold.PLP.ligand.clash>
0.0000

> <Gold.PLP.ligand.torsion>
0.3034

> <Gold.PLP.Chemscore.Hbond>
1.5760

> <Gold.PLP.Chemscore.CHOScore>
0.0000

> <Gold.PLP.Chemscore.Metal>
0.0000

> <Gold.Chemscore.Hbonds>
donor molecule, donor type, donor heavy atom, donor atom, acceptor molecule, acceptor atom, score
      P1  H  6896  6907       L1    23  0.46
      P1  H  7997  8008       L1    10  0.90

> <Gold.PLP.Chemscore.Internal.Correction>
0.1646

> <Gold.Rescore>
     Score         DG    S(hbond)    S(metal)    S(lipo)     H(rot)  DE(clash)    DE(int)     intcor
     10.87     -13.38       0.93        0.00      97.46       2.58       0.25       2.25       ----

> <Gold.Chemscore.Fitness>
10.8740

> <Gold.Chemscore.DG>
-13.3759

> <Gold.Chemscore.ZeroCoef>
-5.4800

> <Gold.Chemscore.Hbond>
0.9280

> <Gold.Chemscore.Metal>
0.0000

> <Gold.Chemscore.Lipo>
97.4588

> <Gold.Chemscore.Internal_Hbond>
0.0000

> <Gold.Chemscore.DEClash>
0.2510

> <Gold.Chemscore.DEInternal>
2.2509

> <Gold.Chemscore.Rot>
2.5806

> <Gold.Chemscore.Internal.Correction>
   9.000000E+99

> <Gold.Chemscore.Hbonds>
donor molecule, donor type, donor heavy atom, donor atom, acceptor molecule, acceptor atom, score
      P1  H  6896  6907       L1    23  0.06
      P1  H  7997  8008       L1    10  0.04

> <Gold.Chemscore.Hbond.Weighted>
-3.0995

> <Gold.Chemscore.Metal.Weighted>
-0.0000

> <Gold.Chemscore.Lipo.Weighted>
-11.4027

> <Gold.Chemscore.Internal_Hbond.Weighted>
0.0000

> <Gold.Chemscore.DEClash.Weighted>
0.2510

> <Gold.Chemscore.DEInternal.Weighted>
2.2509

> <Gold.Chemscore.Rot.Weighted>
6.6062

> <Gold.Chemscore.Internal.Correction.Weighted>
   9.000000E+99

> <Gold.Protein.RotatedTorsions>
[ 6907 6896 6895 6894 ] final  -96.97 input  -60.11 | X-H torsion
[ 7974 7965 7964 7962 ] final  -79.43 input  175.53 | X-H torsion
[ 8008 7997 7996 7995 ] final  -78.19 input   59.86 | X-H torsion
[ 10167 10162 10161 10158 ] final  -44.75 input  -65.29 | X-H torsion
[ 10718 10713 10712 10709 ] final -117.10 input   66.30 | X-H torsion
[ 10763 10752 10751 10750 ] final   37.64 input  -60.55 | X-H torsion
[ 11005 11000 10999 10996 ] final  -75.03 input  -57.11 | X-H torsion

> <Gold.Protein.ActiveResidues>
 VAL166  LYS551  ARG553  GLY616  TRP617  ASP618  TYR619  PRO620  LYS621  CYS622 
 ASP623  PHE694  ASN695  SER759  ASP760  ASP761  ALA762  ILE779  LEU786  VAL792 
 PHE793  MET794  SER795  GLU796  ALA797  LYS798  CYS799  TRP800  GLU811  SER814 

> <Gold.Protein.RotatedAtoms>
  150.7003  134.1420  159.4108 H   0  0  0  0  0  0  0  0  0  0  0  0  # atno 6907 bound_to 6896
  151.9404  135.0213  160.0545 H   0  0  0  0  0  0  0  0  0  0  0  0  # atno 6908 bound_to 6896
  152.2098  133.4868  159.5141 H   0  0  0  0  0  0  0  0  0  0  0  0  # atno 6909 bound_to 6896
  145.5733  140.9462  143.1383 H   0  0  0  0  0  0  0  0  0  0  0  0  # atno 7974 bound_to 7965
  154.5666  140.0698  156.8900 H   0  0  0  0  0  0  0  0  0  0  0  0  # atno 8008 bound_to 7997
  155.2712  140.3365  155.4247 H   0  0  0  0  0  0  0  0  0  0  0  0  # atno 8009 bound_to 7997
  156.2085  140.1749  156.7733 H   0  0  0  0  0  0  0  0  0  0  0  0  # atno 8010 bound_to 7997
  140.6885  143.2914  151.3540 H   0  0  0  0  0  0  0  0  0  0  0  0  # atno 10167 bound_to 10162
  156.1010  130.6172  150.9121 H   0  0  0  0  0  0  0  0  0  0  0  0  # atno 10718 bound_to 10713
  153.0030  135.6272  154.2176 H   0  0  0  0  0  0  0  0  0  0  0  0  # atno 10763 bound_to 10752
  154.1919  135.2808  155.3021 H   0  0  0  0  0  0  0  0  0  0  0  0  # atno 10764 bound_to 10752
  154.5752  135.5664  153.7192 H   0  0  0  0  0  0  0  0  0  0  0  0  # atno 10765 bound_to 10752
  141.1641  133.6932  156.7454 H   0  0  0  0  0  0  0  0  0  0  0  0  # atno 11005 bound_to 11000
  144.7427  139.7403  143.7304 LP  0  0  0  0  0  0  0  0  0  0  0  0  # atno 17320 bound_to 7965
  146.1768  139.4943  142.9892 LP  0  0  0  0  0  0  0  0  0  0  0  0  # atno 17321 bound_to 7965
  139.6265  144.0805  152.2438 LP  0  0  0  0  0  0  0  0  0  0  0  0  # atno 17342 bound_to 10162
  140.0265  144.6113  150.7523 LP  0  0  0  0  0  0  0  0  0  0  0  0  # atno 17343 bound_to 10162
  157.6180  131.0932  150.8674 LP  0  0  0  0  0  0  0  0  0  0  0  0  # atno 17370 bound_to 10713
  156.8802  130.5177  149.5291 LP  0  0  0  0  0  0  0  0  0  0  0  0  # atno 17371 bound_to 10713
  140.2643  134.8442  157.3788 LP  0  0  0  0  0  0  0  0  0  0  0  0  # atno 17394 bound_to 11000
  140.1581  134.4763  155.7913 LP  0  0  0  0  0  0  0  0  0  0  0  0  # atno 17395 bound_to 11000

$$$$
