AV-unprocessed.smi:1283|AV-procd|sdf|5361|dock7
  -GOLD-   22720 4503D 1   1.00000     0.00000
 Structure written by MMmdl.
 30 31  0  0  0  0  0  0  0  0  1 V2000
  149.2421  141.9954  153.5736 C   0  0  0  0  0  0  0  0  0  0  0  0
  149.7902  141.6072  154.8726 N   0  0  0  0  0  0  0  0  0  0  0  0
  149.7751  142.6060  155.8232 N   0  0  0  0  0  0  0  0  0  0  0  0
  150.2359  142.3650  157.0021 C   0  0  0  0  0  0  0  0  0  0  0  0
  150.7861  141.0730  157.3854 C   0  0  0  0  0  0  0  0  0  0  0  0
  151.2842  140.8109  158.6559 N   0  0  0  0  0  0  0  0  0  0  0  0
  151.3641  141.6986  159.8062 C   0  0  0  0  0  0  0  0  0  0  0  0
  152.5204  142.6954  159.6563 C   0  0  2  0  0  0  0  0  0  0  0  0
  152.3707  143.9456  160.5215 C   0  0  0  0  0  0  0  0  0  0  0  0
  153.1652  145.0020  159.7678 C   0  0  0  0  0  0  0  0  0  0  0  0
  153.3944  144.3824  158.3862 C   0  0  0  0  0  0  0  0  0  0  0  0
  152.5462  143.2439  158.3483 O   0  0  0  0  0  0  0  0  0  0  0  0
  150.7790  140.1049  156.4292 C   0  0  0  0  0  0  0  0  0  0  0  0
  151.4031  138.5268  156.7779 Cl  0  0  0  0  0  0  0  0  0  0  0  0
  150.2594  140.3426  155.0745 C   0  0  0  0  0  0  0  0  0  0  0  0
  150.2428  139.4859  154.1897 O   0  0  0  0  0  0  0  0  0  0  0  0
  148.3767  141.3803  153.3230 H   0  0  0  0  0  0  0  0  0  0  0  0
  149.9890  141.8719  152.7883 H   0  0  0  0  0  0  0  0  0  0  0  0
  148.9202  143.0380  153.5589 H   0  0  0  0  0  0  0  0  0  0  0  0
  150.2252  143.1333  157.7739 H   0  0  0  0  0  0  0  0  0  0  0  0
  151.8229  139.9617  158.7525 H   0  0  0  0  0  0  0  0  0  0  0  0
  150.4344  142.2470  159.9535 H   0  0  0  0  0  0  0  0  0  0  0  0
  151.5168  141.0845  160.6940 H   0  0  0  0  0  0  0  0  0  0  0  0
  153.4770  142.2128  159.8671 H   0  0  0  0  0  0  0  0  0  0  0  0
  151.3233  144.2463  160.5719 H   0  0  0  0  0  0  0  0  0  0  0  0
  152.7253  143.7946  161.5413 H   0  0  0  0  0  0  0  0  0  0  0  0
  152.6038  145.9345  159.7020 H   0  0  0  0  0  0  0  0  0  0  0  0
  154.1158  145.2162  160.2571 H   0  0  0  0  0  0  0  0  0  0  0  0
  153.1655  145.0716  157.5733 H   0  0  0  0  0  0  0  0  0  0  0  0
  154.4309  144.0601  158.2775 H   0  0  0  0  0  0  0  0  0  0  0  0
  1  2  1  0  0  0  0
  1 17  1  0  0  0  0
  1 18  1  0  0  0  0
  1 19  1  0  0  0  0
  2 15  1  0  0  0  0
  2  3  1  0  0  0  0
  3  4  2  0  0  0  0
  4  5  1  0  0  0  0
  4 20  1  0  0  0  0
  5  6  1  0  0  0  0
  5 13  2  0  0  0  0
  6  7  1  0  0  0  0
  6 21  1  0  0  0  0
  7  8  1  0  0  0  0
  7 22  1  0  0  0  0
  7 23  1  0  0  0  0
  8 12  1  0  0  0  0
  8  9  1  0  0  0  0
  8 24  1  0  0  0  0
  9 10  1  0  0  0  0
  9 25  1  0  0  0  0
  9 26  1  0  0  0  0
 10 11  1  0  0  0  0
 10 27  1  0  0  0  0
 10 28  1  0  0  0  0
 11 12  1  0  0  0  0
 11 29  1  0  0  0  0
 11 30  1  0  0  0  0
 13 14  1  0  0  0  0
 13 15  1  0  0  0  0
 15 16  2  0  0  0  0
M  END
> <s_m_source_file>
AV-unprocessed.smi

> <i_m_source_file_index>
1283

> <i_lp_mmshare_version>
43012

> <i_f3d_flags>
0

> <s_epik_input>
W0NIM11uMW5bY0hdYyhjKENsKWMxPU8pW05IXVtDSDJdW0NAQEhdMltDSDJdW0NIMl1bQ0gyXU8y

> <s_epik_cmdline>
J2VwaWtfcHl0aG9uJywgJy1waCcsICc3LjAnLCAnLXRuJywgJzgnLCAnLW1hJywgJzIwMCcsICctbWV0YWxfYmluZGluZycsICctaW1hZScsICc8aW5maWxlLm1hZT4nLCAnLW9tYWUnLCAnPG91dGZpbGUubWFlPic=

> <r_lp_tautomer_probability>
1

> <r_epik_Ionization_Penalty>
2.40876e-05

> <r_epik_Ionization_Penalty_Charging>
4.17655e-09

> <r_epik_Ionization_Penalty_Neutral>
2.40834e-05

> <r_epik_State_Penalty>
-0

> <r_epik_Charging_Adjusted_Penalty>
4.17655e-09

> <i_epik_Tot_Q>
0

> <i_epik_Tot_abs_Q>
0

> <r_epik_Metal_State_Penalty>
-0

> <b_epik_Metal_Only>
0

> <s_lp_Force_Field>
OPLS_2005

> <r_lp_Energy>
38.2243

> <b_lp_Chiralities_Consistent>
1

> <s_lp_Variant>
AV-unprocessed.smi:1283-1

> <Gold.Version>
5.8.1

> <Gold.Id.Protein>
6NUR|6NUR_protein|mol2

> <Gold.PLP.Fitness>
37.3172

> <Gold.PLP.PLP>
-35.0695

> <Gold.PLP.part.hbond>
-1.0000

> <Gold.PLP.part.metal>
0.0000

> <Gold.PLP.part.buried>
-4.5084

> <Gold.PLP.part.nonpolar>
-31.4812

> <Gold.PLP.part.repulsive>
2.2693

> <Gold.PLP.ligand.clash>
0.0000

> <Gold.PLP.ligand.torsion>
0.2714

> <Gold.PLP.Chemscore.Hbond>
0.9272

> <Gold.PLP.Chemscore.CHOScore>
0.0000

> <Gold.PLP.Chemscore.Metal>
0.0000

> <Gold.PLP.Chemscore.Internal.Correction>
0.0088

> <Gold.Rescore>
     Score         DG    S(hbond)    S(metal)    S(lipo)     H(rot)  DE(clash)    DE(int)     intcor
     12.21     -12.55       0.00        0.00      87.14       1.22       0.09       0.26       ----

> <Gold.Chemscore.Fitness>
12.2067

> <Gold.Chemscore.DG>
-12.5516

> <Gold.Chemscore.ZeroCoef>
-5.4800

> <Gold.Chemscore.Hbond>
0.0004

> <Gold.Chemscore.Metal>
0.0000

> <Gold.Chemscore.Lipo>
87.1427

> <Gold.Chemscore.Internal_Hbond>
0.0000

> <Gold.Chemscore.DEClash>
0.0862

> <Gold.Chemscore.DEInternal>
0.2588

> <Gold.Chemscore.Rot>
1.2208

> <Gold.Chemscore.Internal.Correction>
   9.000000E+99

> <Gold.Chemscore.Hbond.Weighted>
-0.0013

> <Gold.Chemscore.Metal.Weighted>
-0.0000

> <Gold.Chemscore.Lipo.Weighted>
-10.1957

> <Gold.Chemscore.Internal_Hbond.Weighted>
0.0000

> <Gold.Chemscore.DEClash.Weighted>
0.0862

> <Gold.Chemscore.DEInternal.Weighted>
0.2588

> <Gold.Chemscore.Rot.Weighted>
3.1253

> <Gold.Chemscore.Internal.Correction.Weighted>
   9.000000E+99

> <Gold.Protein.RotatedTorsions>
[ 6907 6896 6895 6894 ] final   17.02 input  -60.11 | X-H torsion
[ 7974 7965 7964 7962 ] final  -15.48 input  175.53 | X-H torsion
[ 8008 7997 7996 7995 ] final  -99.23 input   59.86 | X-H torsion
[ 10167 10162 10161 10158 ] final -144.17 input  -65.29 | X-H torsion
[ 10718 10713 10712 10709 ] final -134.91 input   66.30 | X-H torsion
[ 10763 10752 10751 10750 ] final -136.29 input  -60.55 | X-H torsion
[ 11005 11000 10999 10996 ] final   99.60 input  -57.11 | X-H torsion

> <Gold.Protein.ActiveResidues>
 VAL166  LYS551  ARG553  GLY616  TRP617  ASP618  TYR619  PRO620  LYS621  CYS622 
 ASP623  PHE694  ASN695  SER759  ASP760  ASP761  ALA762  ILE779  LEU786  VAL792 
 PHE793  MET794  SER795  GLU796  ALA797  LYS798  CYS799  TRP800  GLU811  SER814 

> <Gold.Protein.RotatedAtoms>
  151.8430  135.0584  160.0449 H   0  0  0  0  0  0  0  0  0  0  0  0  # atno 6907 bound_to 6896
  152.2795  133.5452  159.5497 H   0  0  0  0  0  0  0  0  0  0  0  0  # atno 6908 bound_to 6896
  150.7183  134.0501  159.3837 H   0  0  0  0  0  0  0  0  0  0  0  0  # atno 6909 bound_to 6896
  146.2030  140.3499  142.8417 H   0  0  0  0  0  0  0  0  0  0  0  0  # atno 7974 bound_to 7965
  154.8120  140.0449  157.1349 H   0  0  0  0  0  0  0  0  0  0  0  0  # atno 8008 bound_to 7997
  154.9358  140.3046  155.5125 H   0  0  0  0  0  0  0  0  0  0  0  0  # atno 8009 bound_to 7997
  156.2972  140.2314  156.4422 H   0  0  0  0  0  0  0  0  0  0  0  0  # atno 8010 bound_to 7997
  139.7924  143.7948  152.2651 H   0  0  0  0  0  0  0  0  0  0  0  0  # atno 10167 bound_to 10162
  156.2605  130.7206  151.1139 H   0  0  0  0  0  0  0  0  0  0  0  0  # atno 10718 bound_to 10713
  154.8686  135.3677  154.5037 H   0  0  0  0  0  0  0  0  0  0  0  0  # atno 10763 bound_to 10752
  153.5676  135.7021  153.5524 H   0  0  0  0  0  0  0  0  0  0  0  0  # atno 10764 bound_to 10752
  153.3571  135.4056  155.1653 H   0  0  0  0  0  0  0  0  0  0  0  0  # atno 10765 bound_to 10752
  139.8770  134.9103  156.4630 H   0  0  0  0  0  0  0  0  0  0  0  0  # atno 11005 bound_to 11000
  144.8726  140.7293  143.6037 LP  0  0  0  0  0  0  0  0  0  0  0  0  # atno 17320 bound_to 7965
  145.3419  139.1730  143.4481 LP  0  0  0  0  0  0  0  0  0  0  0  0  # atno 17321 bound_to 7965
  139.8043  144.7361  150.9782 LP  0  0  0  0  0  0  0  0  0  0  0  0  # atno 17342 bound_to 10162
  140.7820  143.4314  151.0689 LP  0  0  0  0  0  0  0  0  0  0  0  0  # atno 17343 bound_to 10162
  157.7248  131.0657  150.5978 LP  0  0  0  0  0  0  0  0  0  0  0  0  # atno 17370 bound_to 10713
  156.6065  130.4368  149.5876 LP  0  0  0  0  0  0  0  0  0  0  0  0  # atno 17371 bound_to 10713
  140.8850  133.7890  155.9508 LP  0  0  0  0  0  0  0  0  0  0  0  0  # atno 17394 bound_to 11000
  140.8814  134.2607  157.5142 LP  0  0  0  0  0  0  0  0  0  0  0  0  # atno 17395 bound_to 11000

$$$$
