AV-unprocessed.smi:2071|AV-procd|sdf|8440|dock6
  -GOLD-   2272011143D 1   1.00000     0.00000
 Structure written by MMmdl.
 45 47  0  0  0  0  0  0  0  0  1 V2000
  144.6010  136.4312  153.4394 O   0  0  0  0  0  0  0  0  0  0  0  0
  145.7570  136.2282  153.0691 C   0  0  0  0  0  0  0  0  0  0  0  0
  146.7914  137.0060  153.4187 N   0  0  0  0  0  0  0  0  0  0  0  0
  146.7012  138.1899  154.2656 C   0  0  0  0  0  0  0  0  0  0  0  0
  148.0521  138.5186  154.9202 C   0  0  0  0  0  0  0  0  0  0  0  0
  147.9732  139.7465  155.8426 C   0  0  0  0  0  0  0  0  0  0  0  0
  149.3073  140.2645  156.1578 N   0  0  0  0  0  0  0  0  0  0  0  0
  150.3350  140.2890  155.2897 C   0  0  0  0  0  0  0  0  0  0  0  0
  150.3237  139.8764  154.1309 O   0  0  0  0  0  0  0  0  0  0  0  0
  151.3893  140.8487  155.8970 N   0  0  0  0  0  0  0  0  0  0  0  0
  151.0997  141.2569  157.2571 C   0  0  0  0  0  0  0  0  0  0  0  0
  151.2852  142.7601  157.5006 C   0  0  0  0  0  0  0  0  0  0  0  0
  151.4683  142.8967  159.0183 C   0  0  0  0  0  0  0  0  0  0  0  0
  151.9441  141.5243  159.5283 C   0  0  0  0  0  0  0  0  0  0  0  0
  152.0031  140.5958  158.3064 C   0  0  0  0  0  0  0  0  0  0  0  0
  149.6452  140.8068  157.3352 C   0  0  0  0  0  0  0  0  0  0  0  0
  148.9262  140.9409  158.3261 O   0  0  0  0  0  0  0  0  0  0  0  0
  146.1591  135.2112  152.2874 N   0  0  0  0  0  0  0  0  0  0  0  0
  145.3831  134.1720  151.7049 C   0  0  0  0  0  0  0  0  0  0  0  0
  145.8899  133.1948  150.8136 C   0  0  0  0  0  0  0  0  0  0  0  0
  145.0159  132.2076  150.3184 C   0  0  0  0  0  0  0  0  0  0  0  0
  143.6713  132.2279  150.7364 C   0  0  0  0  0  0  0  0  0  0  0  0
  143.1774  133.1447  151.5944 N   0  0  0  0  0  0  0  0  0  0  0  0
  144.0210  134.0880  152.0647 C   0  0  0  0  0  0  0  0  0  0  0  0
  147.7085  136.7629  153.0734 H   0  0  0  0  0  0  0  0  0  0  0  0
  146.3390  139.0407  153.6860 H   0  0  0  0  0  0  0  0  0  0  0  0
  145.9533  137.9981  155.0353 H   0  0  0  0  0  0  0  0  0  0  0  0
  148.3972  137.6550  155.4908 H   0  0  0  0  0  0  0  0  0  0  0  0
  148.8001  138.6958  154.1461 H   0  0  0  0  0  0  0  0  0  0  0  0
  147.3731  140.5267  155.3710 H   0  0  0  0  0  0  0  0  0  0  0  0
  147.4481  139.4877  156.7636 H   0  0  0  0  0  0  0  0  0  0  0  0
  152.2902  140.9878  155.4629 H   0  0  0  0  0  0  0  0  0  0  0  0
  152.1843  143.1091  156.9907 H   0  0  0  0  0  0  0  0  0  0  0  0
  150.4514  143.3613  157.1347 H   0  0  0  0  0  0  0  0  0  0  0  0
  152.1748  143.6903  159.2631 H   0  0  0  0  0  0  0  0  0  0  0  0
  150.5179  143.1528  159.4884 H   0  0  0  0  0  0  0  0  0  0  0  0
  152.9153  141.5896  160.0201 H   0  0  0  0  0  0  0  0  0  0  0  0
  151.2351  141.1381  160.2616 H   0  0  0  0  0  0  0  0  0  0  0  0
  151.7002  139.5772  158.5540 H   0  0  0  0  0  0  0  0  0  0  0  0
  153.0276  140.5464  157.9343 H   0  0  0  0  0  0  0  0  0  0  0  0
  147.1537  135.1451  152.1281 H   0  0  0  0  0  0  0  0  0  0  0  0
  146.9246  133.1710  150.5102 H   0  0  0  0  0  0  0  0  0  0  0  0
  145.3702  131.4490  149.6360 H   0  0  0  0  0  0  0  0  0  0  0  0
  142.9757  131.4848  150.3758 H   0  0  0  0  0  0  0  0  0  0  0  0
  143.5906  134.8038  152.7504 H   0  0  0  0  0  0  0  0  0  0  0  0
  1  2  2  0  0  0  0
  2  3  1  0  0  0  0
  2 18  1  0  0  0  0
  3  4  1  0  0  0  0
  3 25  1  0  0  0  0
  4  5  1  0  0  0  0
  4 26  1  0  0  0  0
  4 27  1  0  0  0  0
  5  6  1  0  0  0  0
  5 28  1  0  0  0  0
  5 29  1  0  0  0  0
  6  7  1  0  0  0  0
  6 30  1  0  0  0  0
  6 31  1  0  0  0  0
  7 16  1  0  0  0  0
  7  8  1  0  0  0  0
  8  9  2  0  0  0  0
  8 10  1  0  0  0  0
 10 11  1  0  0  0  0
 10 32  1  0  0  0  0
 11 15  1  0  0  0  0
 11 12  1  0  0  0  0
 11 16  1  0  0  0  0
 12 13  1  0  0  0  0
 12 33  1  0  0  0  0
 12 34  1  0  0  0  0
 13 14  1  0  0  0  0
 13 35  1  0  0  0  0
 13 36  1  0  0  0  0
 14 15  1  0  0  0  0
 14 37  1  0  0  0  0
 14 38  1  0  0  0  0
 15 39  1  0  0  0  0
 15 40  1  0  0  0  0
 16 17  2  0  0  0  0
 18 19  1  0  0  0  0
 18 41  1  0  0  0  0
 19 24  1  0  0  0  0
 19 20  2  0  0  0  0
 20 21  1  0  0  0  0
 20 42  1  0  0  0  0
 21 22  2  0  0  0  0
 21 43  1  0  0  0  0
 22 23  1  0  0  0  0
 22 44  1  0  0  0  0
 23 24  2  0  0  0  0
 24 45  1  0  0  0  0
M  END
> <s_m_source_file>
AV-unprocessed.smi

> <i_m_source_file_index>
2071

> <i_lp_mmshare_version>
43012

> <i_f3d_flags>
0

> <s_epik_input>
W2NIXTFuW2NIXVtjSF1bY0hdYzFbTkhdQyg9TylbTkhdW0NIMl1bQ0gyXVtDSDJdTihDMj1PKUMoPU8pW05IXUMyM1tDSDJdW0NIMl1bQ0gyXVtDSDJdMw==

> <s_epik_cmdline>
J2VwaWtfcHl0aG9uJywgJy1waCcsICc3LjAnLCAnLXRuJywgJzgnLCAnLW1hJywgJzIwMCcsICctbWV0YWxfYmluZGluZycsICctaW1hZScsICc8aW5maWxlLm1hZT4nLCAnLW9tYWUnLCAnPG91dGZpbGUubWFlPic=

> <r_lp_tautomer_probability>
1

> <r_epik_Ionization_Penalty>
0.00482956

> <r_epik_Ionization_Penalty_Charging>
0

> <r_epik_Ionization_Penalty_Neutral>
0.00482956

> <r_epik_State_Penalty>
0.00344413

> <r_epik_Charging_Adjusted_Penalty>
0.00344413

> <i_epik_Tot_Q>
0

> <i_epik_Tot_abs_Q>
0

> <r_epik_Metal_State_Penalty>
0.0123255

> <b_epik_Metal_Only>
0

> <s_lp_Force_Field>
OPLS_2005

> <r_lp_Energy>
39.9018

> <b_lp_Chiralities_Consistent>
1

> <s_lp_Variant>
AV-unprocessed.smi:2071-1

> <Gold.Version>
5.8.1

> <Gold.Id.Protein>
6NUR|6NUR_protein|mol2

> <Gold.PLP.Fitness>
44.3507

> <Gold.PLP.PLP>
-34.0682

> <Gold.PLP.part.hbond>
-3.5308

> <Gold.PLP.part.metal>
0.0000

> <Gold.PLP.part.buried>
-7.3934

> <Gold.PLP.part.nonpolar>
-24.6808

> <Gold.PLP.part.repulsive>
1.5854

> <Gold.PLP.ligand.clash>
0.0000

> <Gold.PLP.ligand.torsion>
0.5707

> <Gold.PLP.Chemscore.Hbond>
2.9600

> <Gold.PLP.Chemscore.CHOScore>
0.8431

> <Gold.PLP.Chemscore.Metal>
0.0000

> <Gold.Chemscore.Hbonds>
donor molecule, donor type, donor heavy atom, donor atom, acceptor molecule, acceptor atom, score
      L1  H     3    25       P1  7948  1.00
      L1  H    18    41       P1  7948  0.80
      P1  H  7989  7998       L1     9  0.95
      L1  C    22    44       P1 10952  0.91

> <Gold.PLP.Chemscore.Internal.Correction>
0.0148

> <Gold.Rescore>
     Score         DG    S(hbond)    S(metal)    S(lipo)     H(rot)  DE(clash)    DE(int)     intcor
     15.68     -19.16       2.75        0.00      81.51       1.96       0.10       3.38       ----

> <Gold.Chemscore.Fitness>
15.6833

> <Gold.Chemscore.DG>
-19.1633

> <Gold.Chemscore.ZeroCoef>
-5.4800

> <Gold.Chemscore.Hbond>
2.7465

> <Gold.Chemscore.Metal>
0.0000

> <Gold.Chemscore.Lipo>
81.5074

> <Gold.Chemscore.Internal_Hbond>
0.0000

> <Gold.Chemscore.DEClash>
0.0960

> <Gold.Chemscore.DEInternal>
3.3840

> <Gold.Chemscore.Rot>
1.9634

> <Gold.Chemscore.Internal.Correction>
   9.000000E+99

> <Gold.Chemscore.Hbonds>
donor molecule, donor type, donor heavy atom, donor atom, acceptor molecule, acceptor atom, score
      L1  H     3    25       P1  7948  0.99
      L1  H    18    41       P1  7948  0.75
      P1  H  7989  7998       L1     9  0.21

> <Gold.Chemscore.Hbond.Weighted>
-9.1732

> <Gold.Chemscore.Metal.Weighted>
-0.0000

> <Gold.Chemscore.Lipo.Weighted>
-9.5364

> <Gold.Chemscore.Internal_Hbond.Weighted>
0.0000

> <Gold.Chemscore.DEClash.Weighted>
0.0960

> <Gold.Chemscore.DEInternal.Weighted>
3.3840

> <Gold.Chemscore.Rot.Weighted>
5.0263

> <Gold.Chemscore.Internal.Correction.Weighted>
   9.000000E+99

> <Gold.Protein.RotatedTorsions>
[ 6907 6896 6895 6894 ] final   34.56 input  -60.11 | X-H torsion
[ 7974 7965 7964 7962 ] final -168.23 input  175.53 | X-H torsion
[ 8008 7997 7996 7995 ] final -125.62 input   59.86 | X-H torsion
[ 10167 10162 10161 10158 ] final  176.57 input  -65.29 | X-H torsion
[ 10718 10713 10712 10709 ] final  -60.10 input   66.30 | X-H torsion
[ 10763 10752 10751 10750 ] final -137.14 input  -60.55 | X-H torsion
[ 11005 11000 10999 10996 ] final -127.40 input  -57.11 | X-H torsion

> <Gold.Protein.ActiveResidues>
 VAL166  LYS551  ARG553  GLY616  TRP617  ASP618  TYR619  PRO620  LYS621  CYS622 
 ASP623  PHE694  ASN695  SER759  ASP760  ASP761  ALA762  ILE779  LEU786  VAL792 
 PHE793  MET794  SER795  GLU796  ALA797  LYS798  CYS799  TRP800  GLU811  SER814 

> <Gold.Protein.RotatedAtoms>
  152.1041  134.9321  160.0568 H   0  0  0  0  0  0  0  0  0  0  0  0  # atno 6907 bound_to 6896
  152.0524  133.4020  159.4391 H   0  0  0  0  0  0  0  0  0  0  0  0  # atno 6908 bound_to 6896
  150.6840  134.3214  159.4831 H   0  0  0  0  0  0  0  0  0  0  0  0  # atno 6909 bound_to 6896
  144.7207  140.2401  143.6293 H   0  0  0  0  0  0  0  0  0  0  0  0  # atno 7974 bound_to 7965
  155.2162  140.0420  157.2941 H   0  0  0  0  0  0  0  0  0  0  0  0  # atno 8008 bound_to 7997
  154.5979  140.2444  155.7803 H   0  0  0  0  0  0  0  0  0  0  0  0  # atno 8009 bound_to 7997
  156.2302  140.2941  156.0178 H   0  0  0  0  0  0  0  0  0  0  0  0  # atno 8010 bound_to 7997
  139.5219  144.2900  152.0472 H   0  0  0  0  0  0  0  0  0  0  0  0  # atno 10167 bound_to 10162
  156.1014  130.4186  150.0807 H   0  0  0  0  0  0  0  0  0  0  0  0  # atno 10718 bound_to 10713
  154.8668  135.3651  154.5174 H   0  0  0  0  0  0  0  0  0  0  0  0  # atno 10763 bound_to 10752
  153.5806  135.7018  153.5470 H   0  0  0  0  0  0  0  0  0  0  0  0  # atno 10764 bound_to 10752
  153.3460  135.4085  155.1572 H   0  0  0  0  0  0  0  0  0  0  0  0  # atno 10765 bound_to 10752
  140.9602  134.0946  157.3976 H   0  0  0  0  0  0  0  0  0  0  0  0  # atno 11005 bound_to 11000
  145.8328  139.2094  143.1873 LP  0  0  0  0  0  0  0  0  0  0  0  0  # atno 17320 bound_to 7965
  146.0415  140.8160  142.9826 LP  0  0  0  0  0  0  0  0  0  0  0  0  # atno 17321 bound_to 7965
  140.2352  144.4327  150.6283 LP  0  0  0  0  0  0  0  0  0  0  0  0  # atno 17342 bound_to 10162
  140.6328  143.2190  151.6458 LP  0  0  0  0  0  0  0  0  0  0  0  0  # atno 17343 bound_to 10162
  156.8793  130.9551  151.3601 LP  0  0  0  0  0  0  0  0  0  0  0  0  # atno 17370 bound_to 10713
  157.6185  130.8637  149.9069 LP  0  0  0  0  0  0  0  0  0  0  0  0  # atno 17371 bound_to 10713
  139.8875  135.0091  156.6567 LP  0  0  0  0  0  0  0  0  0  0  0  0  # atno 17394 bound_to 11000
  140.7478  133.8923  155.8324 LP  0  0  0  0  0  0  0  0  0  0  0  0  # atno 17395 bound_to 11000

$$$$
