AV-unprocessed.smi:657|AV-procd|sdf|3220|dock4
  -GOLD-   22720 0153D 1   1.00000     0.00000
 Structure written by MMmdl.
 47 48  0  0  0  0  0  0  0  0  2 V2000
  145.6049  135.9560  150.6142 C   0  0  0  0  0  0  0  0  0  0  0  0
  145.6594  134.5884  151.3245 C   0  0  0  0  0  0  0  0  0  0  0  0
  144.3101  134.2339  151.9734 C   0  0  0  0  0  0  0  0  0  0  0  0
  146.7923  134.4604  152.3033 N   0  3  2  0  0  0  0  0  0  0  0  0
  147.3560  133.0785  152.3656 C   0  0  0  0  0  0  0  0  0  0  0  0
  148.6291  133.0110  153.2180 C   0  0  0  0  0  0  0  0  0  0  0  0
  148.3369  133.4930  154.6384 C   0  0  0  0  0  0  0  0  0  0  0  0
  147.7758  134.9144  154.5791 C   0  0  0  0  0  0  0  0  0  0  0  0
  146.5246  135.0221  153.6714 C   0  0  1  0  0  0  0  0  0  0  0  0
  146.1128  136.5040  153.6580 C   0  0  0  0  0  0  0  0  0  0  0  0
  145.0952  136.8725  154.2457 O   0  0  0  0  0  0  0  0  0  0  0  0
  146.8944  137.3307  152.9479 N   0  0  0  0  0  0  0  0  0  0  0  0
  146.6288  138.7470  152.7138 C   0  0  0  0  0  0  0  0  0  0  0  0
  147.0607  139.6346  153.8992 C   0  0  0  0  0  0  0  0  0  0  0  0
  148.5547  139.6586  154.0964 C   0  0  0  0  0  0  0  0  0  0  0  0
  149.3847  140.7786  154.3884 C   0  0  0  0  0  0  0  0  0  0  0  0
  150.6573  140.4499  154.5388 N   0  0  0  0  0  0  0  0  0  0  0  0
  150.6859  139.1161  154.3405 N   0  0  0  0  0  0  0  0  0  0  0  0
  151.9439  138.4071  154.4355 C   0  0  0  0  0  0  0  0  0  0  0  0
  149.4334  138.6127  154.0642 C   0  0  0  0  0  0  0  0  0  0  0  0
  144.8341  135.9551  149.8430 H   0  0  0  0  0  0  0  0  0  0  0  0
  146.5477  136.1960  150.1233 H   0  0  0  0  0  0  0  0  0  0  0  0
  145.3642  136.7673  151.3013 H   0  0  0  0  0  0  0  0  0  0  0  0
  145.7809  133.8428  150.5411 H   0  0  0  0  0  0  0  0  0  0  0  0
  143.5267  134.1655  151.2180 H   0  0  0  0  0  0  0  0  0  0  0  0
  143.9877  134.9804  152.6987 H   0  0  0  0  0  0  0  0  0  0  0  0
  144.3580  133.2693  152.4798 H   0  0  0  0  0  0  0  0  0  0  0  0
  146.6176  132.3935  152.7837 H   0  0  0  0  0  0  0  0  0  0  0  0
  147.5936  132.7151  151.3671 H   0  0  0  0  0  0  0  0  0  0  0  0
  149.0063  131.9882  153.2442 H   0  0  0  0  0  0  0  0  0  0  0  0
  149.4129  133.6214  152.7677 H   0  0  0  0  0  0  0  0  0  0  0  0
  147.6216  132.8272  155.1232 H   0  0  0  0  0  0  0  0  0  0  0  0
  149.2461  133.4713  155.2399 H   0  0  0  0  0  0  0  0  0  0  0  0
  147.5370  135.2454  155.5911 H   0  0  0  0  0  0  0  0  0  0  0  0
  148.5590  135.5839  154.2178 H   0  0  0  0  0  0  0  0  0  0  0  0
  145.7208  134.4389  154.1233 H   0  0  0  0  0  0  0  0  0  0  0  0
  147.7063  136.9416  152.4903 H   0  0  0  0  0  0  0  0  0  0  0  0
  147.1017  139.0810  151.7890 H   0  0  0  0  0  0  0  0  0  0  0  0
  145.5537  138.8478  152.5633 H   0  0  0  0  0  0  0  0  0  0  0  0
  146.6890  140.6464  153.7326 H   0  0  0  0  0  0  0  0  0  0  0  0
  146.5583  139.2892  154.8030 H   0  0  0  0  0  0  0  0  0  0  0  0
  149.0982  141.8129  154.5090 H   0  0  0  0  0  0  0  0  0  0  0  0
  151.7733  137.3326  154.3656 H   0  0  0  0  0  0  0  0  0  0  0  0
  152.4229  138.6276  155.3899 H   0  0  0  0  0  0  0  0  0  0  0  0
  152.6024  138.7161  153.6234 H   0  0  0  0  0  0  0  0  0  0  0  0
  149.2688  137.5607  153.8830 H   0  0  0  0  0  0  0  0  0  0  0  0
  147.5284  135.0423  151.9291 H   0  0  0  0  0  0  0  0  0  0  0  0
  1  2  1  0  0  0  0
  1 21  1  0  0  0  0
  1 22  1  0  0  0  0
  1 23  1  0  0  0  0
  2  3  1  0  0  0  0
  2  4  1  0  0  0  0
  2 24  1  0  0  0  0
  3 25  1  0  0  0  0
  3 26  1  0  0  0  0
  3 27  1  0  0  0  0
  4  9  1  0  0  0  0
  4  5  1  0  0  0  0
  4 47  1  0  0  0  0
  5  6  1  0  0  0  0
  5 28  1  0  0  0  0
  5 29  1  0  0  0  0
  6  7  1  0  0  0  0
  6 30  1  0  0  0  0
  6 31  1  0  0  0  0
  7  8  1  0  0  0  0
  7 32  1  0  0  0  0
  7 33  1  0  0  0  0
  8  9  1  0  0  0  0
  8 34  1  0  0  0  0
  8 35  1  0  0  0  0
  9 10  1  0  0  0  0
  9 36  1  0  0  0  0
 10 11  2  0  0  0  0
 10 12  1  0  0  0  0
 12 13  1  0  0  0  0
 12 37  1  0  0  0  0
 13 14  1  0  0  0  0
 13 38  1  0  0  0  0
 13 39  1  0  0  0  0
 14 15  1  0  0  0  0
 14 40  1  0  0  0  0
 14 41  1  0  0  0  0
 15 20  2  0  0  0  0
 15 16  1  0  0  0  0
 16 17  2  0  0  0  0
 16 42  1  0  0  0  0
 17 18  1  0  0  0  0
 18 19  1  0  0  0  0
 18 20  1  0  0  0  0
 19 43  1  0  0  0  0
 19 44  1  0  0  0  0
 19 45  1  0  0  0  0
 20 46  1  0  0  0  0
M  CHG  1   4   1
M  END
> <s_m_source_file>
AV-unprocessed.smi

> <i_m_source_file_index>
657

> <i_lp_mmshare_version>
43012

> <i_f3d_flags>
0

> <s_epik_input>
W0NIM11bQ0hdKFtDSDNdKU4xW0NIMl1bQ0gyXVtDSDJdW0NIMl1bQ0BIXTFDKD1PKVtOSF1bQ0gyXVtDSDJdYzJbY0hdbm4oW0NIM10pW2NIXTI=

> <s_epik_cmdline>
J2VwaWtfcHl0aG9uJywgJy1waCcsICc3LjAnLCAnLXRuJywgJzgnLCAnLW1hJywgJzIwMCcsICctbWV0YWxfYmluZGluZycsICctaW1hZScsICc8aW5maWxlLm1hZT4nLCAnLW9tYWUnLCAnPG91dGZpbGUubWFlPic=

> <r_lp_tautomer_probability>
1

> <r_epik_Ionization_Penalty>
0.0244317

> <r_epik_Ionization_Penalty_Charging>
0.0240236

> <r_epik_Ionization_Penalty_Neutral>
0.00040815

> <r_epik_State_Penalty>
0.0194773

> <r_epik_Charging_Adjusted_Penalty>
0.0435009

> <i_epik_Tot_Q>
1

> <i_epik_Tot_abs_Q>
1

> <r_epik_Metal_State_Penalty>
0.0361957

> <b_epik_Metal_Only>
0

> <s_lp_Force_Field>
OPLS_2005

> <r_lp_Energy>
17.8505

> <b_lp_Chiralities_Consistent>
1

> <s_lp_Variant>
AV-unprocessed.smi:657-1

> <Gold.Version>
5.8.1

> <Gold.Id.Protein>
6NUR|6NUR_protein|mol2

> <Gold.PLP.Fitness>
48.3426

> <Gold.PLP.PLP>
-35.5877

> <Gold.PLP.part.hbond>
-3.0000

> <Gold.PLP.part.metal>
0.0000

> <Gold.PLP.part.buried>
-0.8910

> <Gold.PLP.part.nonpolar>
-31.1756

> <Gold.PLP.part.repulsive>
0.2079

> <Gold.PLP.ligand.clash>
0.0076

> <Gold.PLP.ligand.torsion>
1.1907

> <Gold.PLP.Chemscore.Hbond>
4.0000

> <Gold.PLP.Chemscore.CHOScore>
1.0000

> <Gold.PLP.Chemscore.Metal>
0.0000

> <Gold.Chemscore.Hbonds>
donor molecule, donor type, donor heavy atom, donor atom, acceptor molecule, acceptor atom, score
      L1  H     4    47       P1  7948  2.00
      L1  H    12    37       P1  7948  1.00
      P1  H  7989  7998       L1    17  0.88
      L1  C    20    46       P1  7948  1.00

> <Gold.PLP.Chemscore.Internal.Correction>
0.1439

> <Gold.Rescore>
     Score         DG    S(hbond)    S(metal)    S(lipo)     H(rot)  DE(clash)    DE(int)     intcor
     17.67     -18.97       2.60        0.00      76.74       1.63       0.07       1.23       ----

> <Gold.Chemscore.Fitness>
17.6702

> <Gold.Chemscore.DG>
-18.9671

> <Gold.Chemscore.ZeroCoef>
-5.4800

> <Gold.Chemscore.Hbond>
2.5977

> <Gold.Chemscore.Metal>
0.0000

> <Gold.Chemscore.Lipo>
76.7352

> <Gold.Chemscore.Internal_Hbond>
0.0000

> <Gold.Chemscore.DEClash>
0.0704

> <Gold.Chemscore.DEInternal>
1.2266

> <Gold.Chemscore.Rot>
1.6279

> <Gold.Chemscore.Internal.Correction>
   9.000000E+99

> <Gold.Chemscore.Hbonds>
donor molecule, donor type, donor heavy atom, donor atom, acceptor molecule, acceptor atom, score
      L1  H     4    47       P1  7948  0.88
      L1  H    12    37       P1  7948  0.96
      P1  H  7989  7998       L1    17  0.20

> <Gold.Chemscore.Hbond.Weighted>
-8.6764

> <Gold.Chemscore.Metal.Weighted>
-0.0000

> <Gold.Chemscore.Lipo.Weighted>
-8.9780

> <Gold.Chemscore.Internal_Hbond.Weighted>
0.0000

> <Gold.Chemscore.DEClash.Weighted>
0.0704

> <Gold.Chemscore.DEInternal.Weighted>
1.2266

> <Gold.Chemscore.Rot.Weighted>
4.1673

> <Gold.Chemscore.Internal.Correction.Weighted>
   9.000000E+99

> <Gold.Protein.RotatedTorsions>
[ 6907 6896 6895 6894 ] final  124.28 input  -60.11 | X-H torsion
[ 7974 7965 7964 7962 ] final   82.41 input  175.53 | X-H torsion
[ 8008 7997 7996 7995 ] final  -52.87 input   59.86 | X-H torsion
[ 10167 10162 10161 10158 ] final  -61.73 input  -65.29 | X-H torsion
[ 10718 10713 10712 10709 ] final -138.30 input   66.30 | X-H torsion
[ 10763 10752 10751 10750 ] final  -83.58 input  -60.55 | X-H torsion
[ 11005 11000 10999 10996 ] final  162.79 input  -57.11 | X-H torsion

> <Gold.Protein.ActiveResidues>
 VAL166  LYS551  ARG553  GLY616  TRP617  ASP618  TYR619  PRO620  LYS621  CYS622 
 ASP623  PHE694  ASN695  SER759  ASP760  ASP761  ALA762  ILE779  LEU786  VAL792 
 PHE793  MET794  SER795  GLU796  ALA797  LYS798  CYS799  TRP800  GLU811  SER814 

> <Gold.Protein.RotatedAtoms>
  152.4092  133.6936  159.6382 H   0  0  0  0  0  0  0  0  0  0  0  0  # atno 6907 bound_to 6896
  150.7973  133.8655  159.3252 H   0  0  0  0  0  0  0  0  0  0  0  0  # atno 6908 bound_to 6896
  151.6402  135.1015  160.0191 H   0  0  0  0  0  0  0  0  0  0  0  0  # atno 6909 bound_to 6896
  145.6254  139.2394  143.2115 H   0  0  0  0  0  0  0  0  0  0  0  0  # atno 7974 bound_to 7965
  154.4118  140.1213  156.5062 H   0  0  0  0  0  0  0  0  0  0  0  0  # atno 8008 bound_to 7997
  155.6845  140.3496  155.4849 H   0  0  0  0  0  0  0  0  0  0  0  0  # atno 8009 bound_to 7997
  155.9523  140.1107  157.0956 H   0  0  0  0  0  0  0  0  0  0  0  0  # atno 8010 bound_to 7997
  140.5986  143.2356  151.5979 H   0  0  0  0  0  0  0  0  0  0  0  0  # atno 10167 bound_to 10162
  156.2978  130.7412  151.1455 H   0  0  0  0  0  0  0  0  0  0  0  0  # atno 10718 bound_to 10713
  154.5894  135.5551  153.7263 H   0  0  0  0  0  0  0  0  0  0  0  0  # atno 10763 bound_to 10752
  153.0111  135.6339  154.1871 H   0  0  0  0  0  0  0  0  0  0  0  0  # atno 10764 bound_to 10752
  154.1811  135.2887  155.3031 H   0  0  0  0  0  0  0  0  0  0  0  0  # atno 10765 bound_to 10752
  140.2293  134.8136  157.3300 H   0  0  0  0  0  0  0  0  0  0  0  0  # atno 11005 bound_to 11000
  146.1398  140.7072  142.9372 LP  0  0  0  0  0  0  0  0  0  0  0  0  # atno 17320 bound_to 7965
  144.7214  140.4386  143.7005 LP  0  0  0  0  0  0  0  0  0  0  0  0  # atno 17321 bound_to 7965
  139.5275  144.3014  152.1070 LP  0  0  0  0  0  0  0  0  0  0  0  0  # atno 17342 bound_to 10162
  140.2191  144.4485  150.6350 LP  0  0  0  0  0  0  0  0  0  0  0  0  # atno 17343 bound_to 10162
  157.7360  131.0567  150.5438 LP  0  0  0  0  0  0  0  0  0  0  0  0  # atno 17370 bound_to 10713
  156.5562  130.4244  149.6084 LP  0  0  0  0  0  0  0  0  0  0  0  0  # atno 17371 bound_to 10713
  140.1768  134.4540  155.7797 LP  0  0  0  0  0  0  0  0  0  0  0  0  # atno 17394 bound_to 11000
  141.2219  133.6966  156.7800 LP  0  0  0  0  0  0  0  0  0  0  0  0  # atno 17395 bound_to 11000

$$$$
