AV-unprocessed.smi:3132|AV-procd|sdf|11933|dock2
  -GOLD-   2272017323D 1   1.00000     0.00000
 Structure written by MMmdl.
 33 34  0  0  0  0  0  0  0  0  1 V2000
  151.3886  140.4734  155.8650 C   0  0  0  0  0  0  0  0  0  0  0  0
  150.5285  141.6230  156.4067 C   0  0  2  0  0  0  0  0  0  0  0  0
  150.6492  141.7427  157.9405 C   0  0  0  0  0  0  0  0  0  0  0  0
  151.5059  142.8410  158.3499 N   0  0  0  0  0  0  0  0  0  0  0  0
  151.4500  144.1579  157.9111 C   0  0  0  0  0  0  0  0  0  0  0  0
  152.4606  144.8309  158.5594 C   0  0  0  0  0  0  0  0  0  0  0  0
  153.1422  143.9554  159.4015 N   0  0  0  0  0  0  0  0  0  0  0  0
  152.5203  142.7970  159.2240 C   0  0  0  0  0  0  0  0  0  0  0  0
  149.1370  141.4013  156.0164 N   0  0  0  0  0  0  0  0  0  0  0  0
  148.6865  141.2654  154.7592 C   0  0  0  0  0  0  0  0  0  0  0  0
  149.4220  141.2681  153.7713 O   0  0  0  0  0  0  0  0  0  0  0  0
  147.1668  141.1486  154.5992 C   0  0  2  0  0  0  0  0  0  0  0  0
  146.5346  142.2438  153.7206 C   0  0  0  0  0  0  0  0  0  0  0  0
  145.8258  143.1353  154.7201 C   0  0  0  0  0  0  0  0  0  0  0  0
  145.4424  142.1377  155.8035 C   0  0  0  0  0  0  0  0  0  0  0  0
  146.5806  141.2945  155.8923 O   0  0  0  0  0  0  0  0  0  0  0  0
  152.4391  140.6163  156.1199 H   0  0  0  0  0  0  0  0  0  0  0  0
  151.3206  140.4105  154.7783 H   0  0  0  0  0  0  0  0  0  0  0  0
  151.0746  139.5131  156.2754 H   0  0  0  0  0  0  0  0  0  0  0  0
  150.9012  142.5439  155.9539 H   0  0  0  0  0  0  0  0  0  0  0  0
  149.6662  141.8761  158.3945 H   0  0  0  0  0  0  0  0  0  0  0  0
  151.0627  140.8236  158.3573 H   0  0  0  0  0  0  0  0  0  0  0  0
  150.7229  144.4953  157.1874 H   0  0  0  0  0  0  0  0  0  0  0  0
  152.7476  145.8693  158.4845 H   0  0  0  0  0  0  0  0  0  0  0  0
  152.8133  141.8930  159.7377 H   0  0  0  0  0  0  0  0  0  0  0  0
  148.4546  141.3938  156.7606 H   0  0  0  0  0  0  0  0  0  0  0  0
  146.9110  140.1658  154.1993 H   0  0  0  0  0  0  0  0  0  0  0  0
  147.2482  142.7964  153.1079 H   0  0  0  0  0  0  0  0  0  0  0  0
  145.8068  141.7943  153.0438 H   0  0  0  0  0  0  0  0  0  0  0  0
  146.5179  143.8771  155.1211 H   0  0  0  0  0  0  0  0  0  0  0  0
  144.9677  143.6574  154.2963 H   0  0  0  0  0  0  0  0  0  0  0  0
  145.2201  142.6143  156.7582 H   0  0  0  0  0  0  0  0  0  0  0  0
  144.5762  141.5481  155.5001 H   0  0  0  0  0  0  0  0  0  0  0  0
  1  2  1  0  0  0  0
  1 17  1  0  0  0  0
  1 18  1  0  0  0  0
  1 19  1  0  0  0  0
  2  3  1  0  0  0  0
  2  9  1  0  0  0  0
  2 20  1  0  0  0  0
  3  4  1  0  0  0  0
  3 21  1  0  0  0  0
  3 22  1  0  0  0  0
  4  8  1  0  0  0  0
  4  5  1  0  0  0  0
  5  6  2  0  0  0  0
  5 23  1  0  0  0  0
  6  7  1  0  0  0  0
  6 24  1  0  0  0  0
  7  8  2  0  0  0  0
  8 25  1  0  0  0  0
  9 10  1  0  0  0  0
  9 26  1  0  0  0  0
 10 11  2  0  0  0  0
 10 12  1  0  0  0  0
 12 16  1  0  0  0  0
 12 13  1  0  0  0  0
 12 27  1  0  0  0  0
 13 14  1  0  0  0  0
 13 28  1  0  0  0  0
 13 29  1  0  0  0  0
 14 15  1  0  0  0  0
 14 30  1  0  0  0  0
 14 31  1  0  0  0  0
 15 16  1  0  0  0  0
 15 32  1  0  0  0  0
 15 33  1  0  0  0  0
M  END
> <s_m_source_file>
AV-unprocessed.smi

> <i_m_source_file_index>
3132

> <i_lp_mmshare_version>
43012

> <i_f3d_flags>
0

> <s_epik_input>
W2NIXTFuW2NIXVtjSF1uMVtDSDJdW0NAQEhdKFtDSDNdKVtOSF1DKD1PKVtDQEBIXTJbQ0gyXVtDSDJdW0NIMl1PMg==

> <s_epik_cmdline>
J2VwaWtfcHl0aG9uJywgJy1waCcsICc3LjAnLCAnLXRuJywgJzgnLCAnLW1hJywgJzIwMCcsICctbWV0YWxfYmluZGluZycsICctaW1hZScsICc8aW5maWxlLm1hZT4nLCAnLW9tYWUnLCAnPG91dGZpbGUubWFlPic=

> <r_lp_tautomer_probability>
1

> <r_epik_Ionization_Penalty>
0.630322

> <r_epik_Ionization_Penalty_Charging>
0.630322

> <r_epik_Ionization_Penalty_Neutral>
3.82652e-08

> <r_epik_State_Penalty>
0.647117

> <r_epik_Charging_Adjusted_Penalty>
1.27744

> <i_epik_Tot_Q>
0

> <i_epik_Tot_abs_Q>
0

> <r_epik_Metal_State_Penalty>
0.309095

> <b_epik_Metal_Only>
0

> <s_lp_Force_Field>
OPLS_2005

> <r_lp_Energy>
19.5701

> <b_lp_Chiralities_Consistent>
1

> <s_lp_Variant>
AV-unprocessed.smi:3132-5

> <Gold.Version>
5.8.1

> <Gold.Id.Protein>
6NUR|6NUR_protein|mol2

> <Gold.PLP.Fitness>
40.2871

> <Gold.PLP.PLP>
-35.7067

> <Gold.PLP.part.hbond>
-2.0000

> <Gold.PLP.part.metal>
0.0000

> <Gold.PLP.part.buried>
-4.8632

> <Gold.PLP.part.nonpolar>
-30.2724

> <Gold.PLP.part.repulsive>
1.7871

> <Gold.PLP.ligand.clash>
0.0000

> <Gold.PLP.ligand.torsion>
0.7437

> <Gold.PLP.Chemscore.Hbond>
1.0096

> <Gold.PLP.Chemscore.CHOScore>
1.0000

> <Gold.PLP.Chemscore.Metal>
0.0000

> <Gold.Chemscore.Hbonds>
donor molecule, donor type, donor heavy atom, donor atom, acceptor molecule, acceptor atom, score
      P1  H  7989  7998       L1    11  0.13
      P1  H  8011  8017       L1    11  0.86
      L1  C     5    23       P1  8028  1.00

> <Gold.PLP.Chemscore.Internal.Correction>
0.0389

> <Gold.Rescore>
     Score         DG    S(hbond)    S(metal)    S(lipo)     H(rot)  DE(clash)    DE(int)     intcor
     10.84     -12.07       1.12        0.00      65.26       1.86       0.49       0.74       ----

> <Gold.Chemscore.Fitness>
10.8447

> <Gold.Chemscore.DG>
-12.0739

> <Gold.Chemscore.ZeroCoef>
-5.4800

> <Gold.Chemscore.Hbond>
1.1166

> <Gold.Chemscore.Metal>
0.0000

> <Gold.Chemscore.Lipo>
65.2596

> <Gold.Chemscore.Internal_Hbond>
0.0000

> <Gold.Chemscore.DEClash>
0.4862

> <Gold.Chemscore.DEInternal>
0.7430

> <Gold.Chemscore.Rot>
1.8636

> <Gold.Chemscore.Internal.Correction>
   9.000000E+99

> <Gold.Chemscore.Hbonds>
donor molecule, donor type, donor heavy atom, donor atom, acceptor molecule, acceptor atom, score
      P1  H  7989  7998       L1    11  0.14
      P1  H  8011  8017       L1    11  0.85

> <Gold.Chemscore.Hbond.Weighted>
-3.7294

> <Gold.Chemscore.Metal.Weighted>
-0.0000

> <Gold.Chemscore.Lipo.Weighted>
-7.6354

> <Gold.Chemscore.Internal_Hbond.Weighted>
0.0000

> <Gold.Chemscore.DEClash.Weighted>
0.4862

> <Gold.Chemscore.DEInternal.Weighted>
0.7430

> <Gold.Chemscore.Rot.Weighted>
4.7709

> <Gold.Chemscore.Internal.Correction.Weighted>
   9.000000E+99

> <Gold.Protein.RotatedTorsions>
[ 6907 6896 6895 6894 ] final  151.35 input  -60.11 | X-H torsion
[ 7974 7965 7964 7962 ] final -149.64 input  175.53 | X-H torsion
[ 8008 7997 7996 7995 ] final   28.84 input   59.86 | X-H torsion
[ 10167 10162 10161 10158 ] final  118.80 input  -65.29 | X-H torsion
[ 10718 10713 10712 10709 ] final    3.41 input   66.30 | X-H torsion
[ 10763 10752 10751 10750 ] final  156.07 input  -60.55 | X-H torsion
[ 11005 11000 10999 10996 ] final   34.70 input  -57.11 | X-H torsion

> <Gold.Protein.ActiveResidues>
 VAL166  LYS551  ARG553  GLY616  TRP617  ASP618  TYR619  PRO620  LYS621  CYS622 
 ASP623  PHE694  ASN695  SER759  ASP760  ASP761  ALA762  ILE779  LEU786  VAL792 
 PHE793  MET794  SER795  GLU796  ALA797  LYS798  CYS799  TRP800  GLU811  SER814 

> <Gold.Protein.RotatedAtoms>
  152.1019  133.4254  159.4590 H   0  0  0  0  0  0  0  0  0  0  0  0  # atno 6907 bound_to 6896
  150.6864  134.2751  159.4613 H   0  0  0  0  0  0  0  0  0  0  0  0  # atno 6908 bound_to 6896
  152.0612  134.9593  160.0625 H   0  0  0  0  0  0  0  0  0  0  0  0  # atno 6909 bound_to 6896
  144.7955  140.5038  143.5743 H   0  0  0  0  0  0  0  0  0  0  0  0  # atno 7974 bound_to 7965
  155.0650  140.3194  155.4648 H   0  0  0  0  0  0  0  0  0  0  0  0  # atno 8008 bound_to 7997
  156.2804  140.2122  156.5722 H   0  0  0  0  0  0  0  0  0  0  0  0  # atno 8009 bound_to 7997
  154.7101  140.0499  157.0529 H   0  0  0  0  0  0  0  0  0  0  0  0  # atno 8010 bound_to 7997
  139.6088  144.7076  151.2892 H   0  0  0  0  0  0  0  0  0  0  0  0  # atno 10167 bound_to 10162
  156.8774  130.5641  149.5654 H   0  0  0  0  0  0  0  0  0  0  0  0  # atno 10718 bound_to 10713
  154.1785  135.2801  155.3059 H   0  0  0  0  0  0  0  0  0  0  0  0  # atno 10763 bound_to 10752
  154.6020  135.5526  153.7388 H   0  0  0  0  0  0  0  0  0  0  0  0  # atno 10764 bound_to 10752
  153.0144  135.6394  154.1925 H   0  0  0  0  0  0  0  0  0  0  0  0  # atno 10765 bound_to 10752
  140.2502  134.3312  155.7893 H   0  0  0  0  0  0  0  0  0  0  0  0  # atno 11005 bound_to 11000
  145.5684  139.1482  143.3302 LP  0  0  0  0  0  0  0  0  0  0  0  0  # atno 17320 bound_to 7965
  146.2222  140.5818  142.9012 LP  0  0  0  0  0  0  0  0  0  0  0  0  # atno 17321 bound_to 7965
  140.7304  143.6881  150.7945 LP  0  0  0  0  0  0  0  0  0  0  0  0  # atno 17342 bound_to 10162
  140.0471  143.5287  152.2691 LP  0  0  0  0  0  0  0  0  0  0  0  0  # atno 17343 bound_to 10162
  156.0695  130.5731  150.9355 LP  0  0  0  0  0  0  0  0  0  0  0  0  # atno 17370 bound_to 10713
  157.6160  131.0933  150.8709 LP  0  0  0  0  0  0  0  0  0  0  0  0  # atno 17371 bound_to 10713
  141.2202  133.7349  156.9025 LP  0  0  0  0  0  0  0  0  0  0  0  0  # atno 17394 bound_to 11000
  140.1566  134.9194  157.2661 LP  0  0  0  0  0  0  0  0  0  0  0  0  # atno 17395 bound_to 11000

$$$$
