AV-unprocessed.smi:1432|AV-procd|sdf|5834|dock7
  -GOLD-   22720 5493D 1   1.00000     0.00000
 Structure written by MMmdl.
 47 48  0  0  0  0  0  0  0  0  2 V2000
  146.3870  138.0874  152.5059 C   0  0  0  0  0  0  0  0  0  0  0  0
  145.8971  136.6376  152.7051 C   0  0  1  0  0  0  0  0  0  0  0  0
  145.4996  136.0621  151.3255 C   0  0  0  0  0  0  0  0  0  0  0  0
  145.0242  134.6089  151.4119 C   0  0  0  0  0  0  0  0  0  0  0  0
  146.0953  133.7624  152.1000 C   0  0  0  0  0  0  0  0  0  0  0  0
  146.4257  134.3503  153.4774 C   0  0  0  0  0  0  0  0  0  0  0  0
  146.9098  135.7556  153.3720 N   0  3  2  0  0  0  0  0  0  0  0  0
  147.4164  136.2506  154.6858 C   0  0  0  0  0  0  0  0  0  0  0  0
  146.3592  136.1923  155.8105 C   0  0  0  0  0  0  0  0  0  0  0  0
  146.9451  136.4640  157.1209 N   0  0  0  0  0  0  0  0  0  0  0  0
  147.7073  135.6124  157.8239 C   0  0  0  0  0  0  0  0  0  0  0  0
  147.9381  134.4572  157.4668 O   0  0  0  0  0  0  0  0  0  0  0  0
  148.3144  136.1551  159.1234 C   0  0  0  0  0  0  0  0  0  0  0  0
  147.8959  135.3745  160.3003 N   0  0  0  0  0  0  0  0  0  0  0  0
  147.9553  133.9705  160.2005 C   0  0  0  0  0  0  0  0  0  0  0  0
  147.6214  133.1494  161.2149 C   0  0  0  0  0  0  0  0  0  0  0  0
  147.6470  131.6360  161.0663 C   0  0  0  0  0  0  0  0  0  0  0  0
  146.4470  131.1115  161.3162 F   0  0  0  0  0  0  0  0  0  0  0  0
  148.0136  131.2756  159.8358 F   0  0  0  0  0  0  0  0  0  0  0  0
  148.5160  131.1118  161.9292 F   0  0  0  0  0  0  0  0  0  0  0  0
  147.1549  133.7835  162.4320 C   0  0  0  0  0  0  0  0  0  0  0  0
  147.0867  135.1245  162.5428 C   0  0  0  0  0  0  0  0  0  0  0  0
  147.4762  136.0043  161.4392 C   0  0  0  0  0  0  0  0  0  0  0  0
  147.4329  137.2317  161.5321 O   0  0  0  0  0  0  0  0  0  0  0  0
  145.7111  138.6392  151.8520 H   0  0  0  0  0  0  0  0  0  0  0  0
  147.3769  138.1161  152.0498 H   0  0  0  0  0  0  0  0  0  0  0  0
  146.4221  138.6491  153.4384 H   0  0  0  0  0  0  0  0  0  0  0  0
  145.0064  136.6632  153.3351 H   0  0  0  0  0  0  0  0  0  0  0  0
  144.7110  136.6697  150.8800 H   0  0  0  0  0  0  0  0  0  0  0  0
  146.3487  136.1191  150.6434 H   0  0  0  0  0  0  0  0  0  0  0  0
  144.0898  134.5559  151.9723 H   0  0  0  0  0  0  0  0  0  0  0  0
  144.8158  134.2188  150.4150 H   0  0  0  0  0  0  0  0  0  0  0  0
  145.7477  132.7341  152.2053 H   0  0  0  0  0  0  0  0  0  0  0  0
  146.9969  133.7265  151.4861 H   0  0  0  0  0  0  0  0  0  0  0  0
  145.5435  134.3176  154.1186 H   0  0  0  0  0  0  0  0  0  0  0  0
  147.1741  133.7187  153.9529 H   0  0  0  0  0  0  0  0  0  0  0  0
  148.2519  135.6498  155.0345 H   0  0  0  0  0  0  0  0  0  0  0  0
  147.8048  137.2642  154.5767 H   0  0  0  0  0  0  0  0  0  0  0  0
  145.5950  136.9467  155.6230 H   0  0  0  0  0  0  0  0  0  0  0  0
  145.8326  135.2373  155.8081 H   0  0  0  0  0  0  0  0  0  0  0  0
  146.7946  137.3869  157.5030 H   0  0  0  0  0  0  0  0  0  0  0  0
  149.4043  136.1613  159.0551 H   0  0  0  0  0  0  0  0  0  0  0  0
  148.0253  137.2023  159.2214 H   0  0  0  0  0  0  0  0  0  0  0  0
  148.2961  133.6006  159.2443 H   0  0  0  0  0  0  0  0  0  0  0  0
  146.8595  133.1720  163.2720 H   0  0  0  0  0  0  0  0  0  0  0  0
  146.7374  135.5623  163.4663 H   0  0  0  0  0  0  0  0  0  0  0  0
  147.7096  135.7414  152.7545 H   0  0  0  0  0  0  0  0  0  0  0  0
  1  2  1  0  0  0  0
  1 25  1  0  0  0  0
  1 26  1  0  0  0  0
  1 27  1  0  0  0  0
  2  7  1  0  0  0  0
  2  3  1  0  0  0  0
  2 28  1  0  0  0  0
  3  4  1  0  0  0  0
  3 29  1  0  0  0  0
  3 30  1  0  0  0  0
  4  5  1  0  0  0  0
  4 31  1  0  0  0  0
  4 32  1  0  0  0  0
  5  6  1  0  0  0  0
  5 33  1  0  0  0  0
  5 34  1  0  0  0  0
  6  7  1  0  0  0  0
  6 35  1  0  0  0  0
  6 36  1  0  0  0  0
  7  8  1  0  0  0  0
  7 47  1  0  0  0  0
  8  9  1  0  0  0  0
  8 37  1  0  0  0  0
  8 38  1  0  0  0  0
  9 10  1  0  0  0  0
  9 39  1  0  0  0  0
  9 40  1  0  0  0  0
 10 11  1  0  0  0  0
 10 41  1  0  0  0  0
 11 12  2  0  0  0  0
 11 13  1  0  0  0  0
 13 14  1  0  0  0  0
 13 42  1  0  0  0  0
 13 43  1  0  0  0  0
 14 23  1  0  0  0  0
 14 15  1  0  0  0  0
 15 16  2  0  0  0  0
 15 44  1  0  0  0  0
 16 17  1  0  0  0  0
 16 21  1  0  0  0  0
 17 18  1  0  0  0  0
 17 19  1  0  0  0  0
 17 20  1  0  0  0  0
 21 22  2  0  0  0  0
 21 45  1  0  0  0  0
 22 23  1  0  0  0  0
 22 46  1  0  0  0  0
 23 24  2  0  0  0  0
M  CHG  1   7   1
M  END
> <s_m_source_file>
AV-unprocessed.smi

> <i_m_source_file_index>
1432

> <i_lp_mmshare_version>
43012

> <i_f3d_flags>
0

> <s_epik_input>
W0NIM11bQ0BASF0xW0NIMl1bQ0gyXVtDSDJdW0NIMl1OMVtDSDJdW0NIMl1bTkhdQyg9TylbQ0gyXW4yW2NIXWMoQyhGKShGKUYpW2NIXVtjSF1jMj1P

> <s_epik_cmdline>
J2VwaWtfcHl0aG9uJywgJy1waCcsICc3LjAnLCAnLXRuJywgJzgnLCAnLW1hJywgJzIwMCcsICctbWV0YWxfYmluZGluZycsICctaW1hZScsICc8aW5maWxlLm1hZT4nLCAnLW9tYWUnLCAnPG91dGZpbGUubWFlPic=

> <r_lp_tautomer_probability>
1

> <r_epik_Ionization_Penalty>
0.00237222

> <r_epik_Ionization_Penalty_Charging>
0.00237213

> <r_epik_Ionization_Penalty_Neutral>
8.2065e-08

> <r_epik_State_Penalty>
0.00163922

> <r_epik_Charging_Adjusted_Penalty>
0.00401135

> <i_epik_Tot_Q>
1

> <i_epik_Tot_abs_Q>
1

> <r_epik_Metal_State_Penalty>
-0

> <b_epik_Metal_Only>
0

> <s_lp_Force_Field>
OPLS_2005

> <r_lp_Energy>
36.6546

> <b_lp_Chiralities_Consistent>
1

> <s_lp_Variant>
AV-unprocessed.smi:1432-4

> <Gold.Version>
5.8.1

> <Gold.Id.Protein>
6NUR|6NUR_protein|mol2

> <Gold.PLP.Fitness>
48.0146

> <Gold.PLP.PLP>
-38.3058

> <Gold.PLP.part.hbond>
-3.0000

> <Gold.PLP.part.metal>
0.0000

> <Gold.PLP.part.buried>
-4.5479

> <Gold.PLP.part.nonpolar>
-31.4593

> <Gold.PLP.part.repulsive>
0.0000

> <Gold.PLP.ligand.clash>
1.0825

> <Gold.PLP.ligand.torsion>
0.3522

> <Gold.PLP.Chemscore.Hbond>
3.7920

> <Gold.PLP.Chemscore.CHOScore>
0.0000

> <Gold.PLP.Chemscore.Metal>
0.0000

> <Gold.Chemscore.Hbonds>
donor molecule, donor type, donor heavy atom, donor atom, acceptor molecule, acceptor atom, score
      L1  H     7    47       P1  7948  2.00
      P1  H  6931  6943       L1    24  0.90
      P1  H  6934  6947       L1    24  0.86

> <Gold.PLP.Chemscore.Internal.Correction>
0.1197

> <Gold.Rescore>
     Score         DG    S(hbond)    S(metal)    S(lipo)     H(rot)  DE(clash)    DE(int)     intcor
     15.69     -17.47       2.76        0.00      69.13       2.08       0.05       1.73       ----

> <Gold.Chemscore.Fitness>
15.6910

> <Gold.Chemscore.DG>
-17.4707

> <Gold.Chemscore.ZeroCoef>
-5.4800

> <Gold.Chemscore.Hbond>
2.7599

> <Gold.Chemscore.Metal>
0.0000

> <Gold.Chemscore.Lipo>
69.1256

> <Gold.Chemscore.Internal_Hbond>
0.0000

> <Gold.Chemscore.DEClash>
0.0456

> <Gold.Chemscore.DEInternal>
1.7341

> <Gold.Chemscore.Rot>
2.0762

> <Gold.Chemscore.Internal.Correction>
   9.000000E+99

> <Gold.Chemscore.Hbonds>
donor molecule, donor type, donor heavy atom, donor atom, acceptor molecule, acceptor atom, score
      L1  H     7    47       P1  7948  0.98
      P1  H  6931  6943       L1    24  0.86
      P1  H  6934  6947       L1    24  0.85

> <Gold.Chemscore.Hbond.Weighted>
-9.2180

> <Gold.Chemscore.Metal.Weighted>
-0.0000

> <Gold.Chemscore.Lipo.Weighted>
-8.0877

> <Gold.Chemscore.Internal_Hbond.Weighted>
0.0000

> <Gold.Chemscore.DEClash.Weighted>
0.0456

> <Gold.Chemscore.DEInternal.Weighted>
1.7341

> <Gold.Chemscore.Rot.Weighted>
5.3150

> <Gold.Chemscore.Internal.Correction.Weighted>
   9.000000E+99

> <Gold.Protein.RotatedTorsions>
[ 6907 6896 6895 6894 ] final  164.52 input  -60.11 | X-H torsion
[ 7974 7965 7964 7962 ] final   18.11 input  175.53 | X-H torsion
[ 8008 7997 7996 7995 ] final -162.33 input   59.86 | X-H torsion
[ 10167 10162 10161 10158 ] final  -18.90 input  -65.29 | X-H torsion
[ 10718 10713 10712 10709 ] final  -32.11 input   66.30 | X-H torsion
[ 10763 10752 10751 10750 ] final  -85.98 input  -60.55 | X-H torsion
[ 11005 11000 10999 10996 ] final   80.72 input  -57.11 | X-H torsion

> <Gold.Protein.ActiveResidues>
 VAL166  LYS551  ARG553  GLY616  TRP617  ASP618  TYR619  PRO620  LYS621  CYS622 
 ASP623  PHE694  ASN695  SER759  ASP760  ASP761  ALA762  ILE779  LEU786  VAL792 
 PHE793  MET794  SER795  GLU796  ALA797  LYS798  CYS799  TRP800  GLU811  SER814 

> <Gold.Protein.RotatedAtoms>
  151.9086  133.3555  159.3855 H   0  0  0  0  0  0  0  0  0  0  0  0  # atno 6907 bound_to 6896
  150.7063  134.4755  159.5455 H   0  0  0  0  0  0  0  0  0  0  0  0  # atno 6908 bound_to 6896
  152.2357  134.8279  160.0518 H   0  0  0  0  0  0  0  0  0  0  0  0  # atno 6909 bound_to 6896
  146.2196  139.8505  142.8623 H   0  0  0  0  0  0  0  0  0  0  0  0  # atno 7974 bound_to 7965
  155.8052  140.0897  157.1934 H   0  0  0  0  0  0  0  0  0  0  0  0  # atno 8008 bound_to 7997
  154.3981  140.1465  156.3381 H   0  0  0  0  0  0  0  0  0  0  0  0  # atno 8009 bound_to 7997
  155.8421  140.3438  155.5641 H   0  0  0  0  0  0  0  0  0  0  0  0  # atno 8010 bound_to 7997
  140.7263  143.4871  151.0041 H   0  0  0  0  0  0  0  0  0  0  0  0  # atno 10167 bound_to 10162
  156.3789  130.4352  149.7485 H   0  0  0  0  0  0  0  0  0  0  0  0  # atno 10718 bound_to 10713
  154.6172  135.5466  153.7536 H   0  0  0  0  0  0  0  0  0  0  0  0  # atno 10763 bound_to 10752
  153.0222  135.6404  154.1493 H   0  0  0  0  0  0  0  0  0  0  0  0  # atno 10764 bound_to 10752
  154.1428  135.2907  155.3136 H   0  0  0  0  0  0  0  0  0  0  0  0  # atno 10765 bound_to 10752
  139.9124  134.7942  156.1946 H   0  0  0  0  0  0  0  0  0  0  0  0  # atno 11005 bound_to 11000
  145.2806  141.0137  143.3719 LP  0  0  0  0  0  0  0  0  0  0  0  0  # atno 17320 bound_to 7965
  144.9153  139.4478  143.6567 LP  0  0  0  0  0  0  0  0  0  0  0  0  # atno 17321 bound_to 7965
  139.8573  143.7360  152.3175 LP  0  0  0  0  0  0  0  0  0  0  0  0  # atno 17342 bound_to 10162
  139.7563  144.7519  151.0430 LP  0  0  0  0  0  0  0  0  0  0  0  0  # atno 17343 bound_to 10162
  156.4583  130.7939  151.2960 LP  0  0  0  0  0  0  0  0  0  0  0  0  # atno 17370 bound_to 10713
  157.7490  131.0074  150.3188 LP  0  0  0  0  0  0  0  0  0  0  0  0  # atno 17371 bound_to 10713
  141.0562  133.6864  156.1865 LP  0  0  0  0  0  0  0  0  0  0  0  0  # atno 17394 bound_to 11000
  140.6733  134.4845  157.5587 LP  0  0  0  0  0  0  0  0  0  0  0  0  # atno 17395 bound_to 11000

$$$$
