AV-unprocessed.smi:1135|AV-procd|sdf|4860|dock3
  -GOLD-   22720 3433D 1   1.00000     0.00000
 Structure written by MMmdl.
 46 47  0  0  0  0  0  0  0  0  2 V2000
  150.8423  141.8811  158.0236 C   0  0  0  0  0  0  0  0  0  0  0  0
  150.0813  140.9674  157.0525 C   0  0  2  0  0  0  0  0  0  0  0  0
  150.3960  139.4844  157.3079 C   0  0  0  0  0  0  0  0  0  0  0  0
  149.6331  138.5661  156.3366 C   0  0  0  0  0  0  0  0  0  0  0  0
  149.8676  138.9006  154.8414 C   0  0  1  0  0  0  0  0  0  0  0  0
  151.2937  138.4808  154.4123 C   0  0  0  0  0  0  0  0  0  0  0  0
  148.8750  138.1178  154.0929 N   0  0  0  0  0  0  0  0  0  0  0  0
  147.5450  138.0736  154.2747 C   0  0  0  0  0  0  0  0  0  0  0  0
  146.9271  138.7566  155.0916 O   0  0  0  0  0  0  0  0  0  0  0  0
  146.9688  137.1534  153.4874 N   0  0  0  0  0  0  0  0  0  0  0  0
  145.5568  136.7772  153.5264 C   0  0  0  0  0  0  0  0  0  0  0  0
  144.9781  136.5079  152.1212 C   0  0  0  0  0  0  0  0  0  0  0  0
  145.2135  135.0928  151.6200 C   0  0  0  0  0  0  0  0  0  0  0  0
  144.1529  134.2510  151.2184 C   0  0  0  0  0  0  0  0  0  0  0  0
  144.4446  132.9641  150.7201 C   0  0  0  0  0  0  0  0  0  0  0  0
  145.7882  132.5436  150.6396 C   0  0  0  0  0  0  0  0  0  0  0  0
  146.8074  133.4221  151.0607 C   0  0  0  0  0  0  0  0  0  0  0  0
  146.4880  134.6484  151.5296 N   0  3  0  0  0  0  0  0  0  0  0  0
  149.6190  140.4180  154.6104 C   0  0  0  0  0  0  0  0  0  0  0  0
  150.3860  141.3238  155.5889 C   0  0  0  0  0  0  0  0  0  0  0  0
  151.9211  141.7769  157.9035 H   0  0  0  0  0  0  0  0  0  0  0  0
  150.5977  141.6441  159.0595 H   0  0  0  0  0  0  0  0  0  0  0  0
  150.5885  142.9282  157.8568 H   0  0  0  0  0  0  0  0  0  0  0  0
  149.0148  141.1216  157.2235 H   0  0  0  0  0  0  0  0  0  0  0  0
  151.4688  139.3106  157.2207 H   0  0  0  0  0  0  0  0  0  0  0  0
  150.1313  139.2227  158.3328 H   0  0  0  0  0  0  0  0  0  0  0  0
  149.8964  137.5261  156.5356 H   0  0  0  0  0  0  0  0  0  0  0  0
  148.5687  138.6507  156.5634 H   0  0  0  0  0  0  0  0  0  0  0  0
  152.0615  138.9815  155.0008 H   0  0  0  0  0  0  0  0  0  0  0  0
  151.4940  138.7228  153.3688 H   0  0  0  0  0  0  0  0  0  0  0  0
  151.4428  137.4074  154.5339 H   0  0  0  0  0  0  0  0  0  0  0  0
  149.2547  137.5078  153.3837 H   0  0  0  0  0  0  0  0  0  0  0  0
  147.5568  136.6456  152.8422 H   0  0  0  0  0  0  0  0  0  0  0  0
  145.4149  135.9037  154.1650 H   0  0  0  0  0  0  0  0  0  0  0  0
  145.0026  137.5883  153.9990 H   0  0  0  0  0  0  0  0  0  0  0  0
  143.9053  136.7055  152.1237 H   0  0  0  0  0  0  0  0  0  0  0  0
  145.4113  137.2101  151.4080 H   0  0  0  0  0  0  0  0  0  0  0  0
  143.1293  134.5913  151.2753 H   0  0  0  0  0  0  0  0  0  0  0  0
  143.6473  132.3098  150.3989 H   0  0  0  0  0  0  0  0  0  0  0  0
  146.0334  131.5631  150.2584 H   0  0  0  0  0  0  0  0  0  0  0  0
  147.8610  133.1856  151.0307 H   0  0  0  0  0  0  0  0  0  0  0  0
  149.8813  140.7027  153.5913 H   0  0  0  0  0  0  0  0  0  0  0  0
  148.5536  140.6292  154.7155 H   0  0  0  0  0  0  0  0  0  0  0  0
  150.1214  142.3645  155.3985 H   0  0  0  0  0  0  0  0  0  0  0  0
  151.4577  141.2456  155.4026 H   0  0  0  0  0  0  0  0  0  0  0  0
  147.2430  135.2720  151.8158 H   0  0  0  0  0  0  0  0  0  0  0  0
  1  2  1  0  0  0  0
  1 21  1  0  0  0  0
  1 22  1  0  0  0  0
  1 23  1  0  0  0  0
  2 20  1  0  0  0  0
  2  3  1  0  0  0  0
  2 24  1  0  0  0  0
  3  4  1  0  0  0  0
  3 25  1  0  0  0  0
  3 26  1  0  0  0  0
  4  5  1  0  0  0  0
  4 27  1  0  0  0  0
  4 28  1  0  0  0  0
  5  6  1  0  0  0  0
  5  7  1  0  0  0  0
  5 19  1  0  0  0  0
  6 29  1  0  0  0  0
  6 30  1  0  0  0  0
  6 31  1  0  0  0  0
  7  8  1  0  0  0  0
  7 32  1  0  0  0  0
  8  9  2  0  0  0  0
  8 10  1  0  0  0  0
 10 11  1  0  0  0  0
 10 33  1  0  0  0  0
 11 12  1  0  0  0  0
 11 34  1  0  0  0  0
 11 35  1  0  0  0  0
 12 13  1  0  0  0  0
 12 36  1  0  0  0  0
 12 37  1  0  0  0  0
 13 18  1  0  0  0  0
 13 14  2  0  0  0  0
 14 15  1  0  0  0  0
 14 38  1  0  0  0  0
 15 16  2  0  0  0  0
 15 39  1  0  0  0  0
 16 17  1  0  0  0  0
 16 40  1  0  0  0  0
 17 18  2  0  0  0  0
 17 41  1  0  0  0  0
 18 46  1  0  0  0  0
 19 20  1  0  0  0  0
 19 42  1  0  0  0  0
 19 43  1  0  0  0  0
 20 44  1  0  0  0  0
 20 45  1  0  0  0  0
M  CHG  1  18   1
M  END
> <s_m_source_file>
AV-unprocessed.smi

> <i_m_source_file_index>
1135

> <i_lp_mmshare_version>
43012

> <i_f3d_flags>
0

> <s_epik_input>
W0NIMl0xW0NIMl1bQ0BIXShbQ0gzXSlbQ0gyXVtDSDJdW0NAQF0xKFtDSDNdKVtOSF1DKD1PKVtOSF1bQ0gyXVtDSDJdYzJbY0hdW2NIXVtjSF1bY0hdbjI=

> <s_epik_cmdline>
J2VwaWtfcHl0aG9uJywgJy1waCcsICc3LjAnLCAnLXRuJywgJzgnLCAnLW1hJywgJzIwMCcsICctbWV0YWxfYmluZGluZycsICctaW1hZScsICc8aW5maWxlLm1hZT4nLCAnLW9tYWUnLCAnPG91dGZpbGUubWFlPic=

> <r_epik_Ionization_Penalty>
1.55217

> <r_epik_Ionization_Penalty_Charging>
1.55211

> <r_epik_Ionization_Penalty_Neutral>
5.91929e-05

> <r_epik_State_Penalty>
1.64641

> <r_epik_Charging_Adjusted_Penalty>
3.19851

> <i_epik_Tot_Q>
1

> <i_epik_Tot_abs_Q>
1

> <r_epik_Metal_State_Penalty>
1.68848

> <b_epik_Metal_Only>
0

> <s_lp_Force_Field>
OPLS_2005

> <r_lp_Energy>
15.0823

> <b_lp_Chiralities_Consistent>
1

> <s_lp_Variant>
AV-unprocessed.smi:1135-3

> <Gold.Version>
5.8.1

> <Gold.Id.Protein>
6NUR|6NUR_protein|mol2

> <Gold.PLP.Fitness>
44.5040

> <Gold.PLP.PLP>
-33.2140

> <Gold.PLP.part.hbond>
-3.0000

> <Gold.PLP.part.metal>
0.0000

> <Gold.PLP.part.buried>
-5.0515

> <Gold.PLP.part.nonpolar>
-25.0753

> <Gold.PLP.part.repulsive>
0.1222

> <Gold.PLP.ligand.clash>
0.0000

> <Gold.PLP.ligand.torsion>
0.3698

> <Gold.PLP.Chemscore.Hbond>
4.0000

> <Gold.PLP.Chemscore.CHOScore>
0.0000

> <Gold.PLP.Chemscore.Metal>
0.0000

> <Gold.Chemscore.Hbonds>
donor molecule, donor type, donor heavy atom, donor atom, acceptor molecule, acceptor atom, score
      L1  H     7    32       P1  7948  1.00
      L1  H    10    33       P1  7948  1.00
      L1  H    18    46       P1  7948  2.00

> <Gold.PLP.Chemscore.Internal.Correction>
0.0297

> <Gold.Rescore>
     Score         DG    S(hbond)    S(metal)    S(lipo)     H(rot)  DE(clash)    DE(int)     intcor
     20.62     -21.59       2.92        0.00      87.20       1.51       0.11       0.86       ----

> <Gold.Chemscore.Fitness>
20.6226

> <Gold.Chemscore.DG>
-21.5887

> <Gold.Chemscore.ZeroCoef>
-5.4800

> <Gold.Chemscore.Hbond>
2.9247

> <Gold.Chemscore.Metal>
0.0000

> <Gold.Chemscore.Lipo>
87.1963

> <Gold.Chemscore.Internal_Hbond>
0.0000

> <Gold.Chemscore.DEClash>
0.1074

> <Gold.Chemscore.DEInternal>
0.8587

> <Gold.Chemscore.Rot>
1.5085

> <Gold.Chemscore.Internal.Correction>
   9.000000E+99

> <Gold.Chemscore.Hbonds>
donor molecule, donor type, donor heavy atom, donor atom, acceptor molecule, acceptor atom, score
      L1  H     7    32       P1  7948  0.92
      L1  H    10    33       P1  7948  1.00
      L1  H    18    46       P1  7948  0.98

> <Gold.Chemscore.Hbond.Weighted>
-9.7685

> <Gold.Chemscore.Metal.Weighted>
-0.0000

> <Gold.Chemscore.Lipo.Weighted>
-10.2020

> <Gold.Chemscore.Internal_Hbond.Weighted>
0.0000

> <Gold.Chemscore.DEClash.Weighted>
0.1074

> <Gold.Chemscore.DEInternal.Weighted>
0.8587

> <Gold.Chemscore.Rot.Weighted>
3.8617

> <Gold.Chemscore.Internal.Correction.Weighted>
   9.000000E+99

> <Gold.Protein.RotatedTorsions>
[ 6907 6896 6895 6894 ] final  127.45 input  -60.11 | X-H torsion
[ 7974 7965 7964 7962 ] final  141.49 input  175.53 | X-H torsion
[ 8008 7997 7996 7995 ] final   81.91 input   59.86 | X-H torsion
[ 10167 10162 10161 10158 ] final  106.57 input  -65.29 | X-H torsion
[ 10718 10713 10712 10709 ] final  -43.22 input   66.30 | X-H torsion
[ 10763 10752 10751 10750 ] final -168.37 input  -60.55 | X-H torsion
[ 11005 11000 10999 10996 ] final  -31.20 input  -57.11 | X-H torsion

> <Gold.Protein.ActiveResidues>
 VAL166  LYS551  ARG553  GLY616  TRP617  ASP618  TYR619  PRO620  LYS621  CYS622 
 ASP623  PHE694  ASN695  SER759  ASP760  ASP761  ALA762  ILE779  LEU786  VAL792 
 PHE793  MET794  SER795  GLU796  ALA797  LYS798  CYS799  TRP800  GLU811  SER814 

> <Gold.Protein.RotatedAtoms>
  152.3812  133.6548  159.6162 H   0  0  0  0  0  0  0  0  0  0  0  0  # atno 6907 bound_to 6896
  150.7742  133.9111  159.3378 H   0  0  0  0  0  0  0  0  0  0  0  0  # atno 6908 bound_to 6896
  151.6917  135.0946  160.0286 H   0  0  0  0  0  0  0  0  0  0  0  0  # atno 6909 bound_to 6896
  144.9091  139.5317  143.5717 H   0  0  0  0  0  0  0  0  0  0  0  0  # atno 7974 bound_to 7965
  155.9035  140.3432  155.6044 H   0  0  0  0  0  0  0  0  0  0  0  0  # atno 8008 bound_to 7997
  155.7472  140.0815  157.2237 H   0  0  0  0  0  0  0  0  0  0  0  0  # atno 8009 bound_to 7997
  154.4046  140.1560  156.2670 H   0  0  0  0  0  0  0  0  0  0  0  0  # atno 8010 bound_to 7997
  139.6998  144.7096  151.1205 H   0  0  0  0  0  0  0  0  0  0  0  0  # atno 10167 bound_to 10162
  156.2512  130.4188  149.8647 H   0  0  0  0  0  0  0  0  0  0  0  0  # atno 10718 bound_to 10713
  154.6635  135.2928  154.9836 H   0  0  0  0  0  0  0  0  0  0  0  0  # atno 10763 bound_to 10752
  154.0887  135.6594  153.4853 H   0  0  0  0  0  0  0  0  0  0  0  0  # atno 10764 bound_to 10752
  153.0444  135.5215  154.7597 H   0  0  0  0  0  0  0  0  0  0  0  0  # atno 10765 bound_to 10752
  140.9447  133.7257  156.1129 H   0  0  0  0  0  0  0  0  0  0  0  0  # atno 11005 bound_to 11000
  146.3149  139.7884  142.8991 LP  0  0  0  0  0  0  0  0  0  0  0  0  # atno 17320 bound_to 7965
  145.3484  141.0302  143.3352 LP  0  0  0  0  0  0  0  0  0  0  0  0  # atno 17321 bound_to 7965
  140.7706  143.5440  150.9280 LP  0  0  0  0  0  0  0  0  0  0  0  0  # atno 17342 bound_to 10162
  139.9121  143.6707  152.3113 LP  0  0  0  0  0  0  0  0  0  0  0  0  # atno 17343 bound_to 10162
  156.6195  130.8620  151.3472 LP  0  0  0  0  0  0  0  0  0  0  0  0  # atno 17370 bound_to 10713
  157.7215  130.9565  150.1459 LP  0  0  0  0  0  0  0  0  0  0  0  0  # atno 17371 bound_to 10713
  140.7685  134.3859  157.5512 LP  0  0  0  0  0  0  0  0  0  0  0  0  # atno 17394 bound_to 11000
  139.8830  134.9007  156.2794 LP  0  0  0  0  0  0  0  0  0  0  0  0  # atno 17395 bound_to 11000

$$$$
