AV-unprocessed.smi:1254|AV-procd|sdf|5276|dock7
  -GOLD-   22720 4393D 1   1.00000     0.00000
 Structure written by MMmdl.
 45 46  0  0  0  0  0  0  0  0  3 V2000
  150.8462  141.1921  155.9081 C   0  0  0  0  0  0  0  0  0  0  0  0
  151.1665  139.7864  155.5294 C   0  0  0  0  0  0  0  0  0  0  0  0
  150.4835  138.8372  154.8230 C   0  0  0  0  0  0  0  0  0  0  0  0
  151.3621  137.7197  154.8471 C   0  0  0  0  0  0  0  0  0  0  0  0
  151.1404  136.5281  154.2705 N   0  5  0  0  0  0  0  0  0  0  0  0
  150.3624  135.6086  154.8858 C   0  0  0  0  0  0  0  0  0  0  0  0
  150.5474  135.1200  156.0028 O   0  0  0  0  0  0  0  0  0  0  0  0
  149.3039  135.2276  154.1599 N   0  0  0  0  0  0  0  0  0  0  0  0
  148.3184  134.2380  154.5728 C   0  0  0  0  0  0  0  0  0  0  0  0
  146.9332  134.5871  154.0123 C   0  0  1  0  0  0  0  0  0  0  0  0
  145.9241  133.4398  154.2263 C   0  0  0  0  0  0  0  0  0  0  0  0
  144.5710  133.8135  153.7472 N   0  3  2  0  0  0  0  0  0  0  0  0
  144.4205  133.7497  152.2680 C   0  0  0  0  0  0  0  0  0  0  0  0
  144.6183  132.3245  151.7081 C   0  0  0  0  0  0  0  0  0  0  0  0
  146.1073  131.9597  151.5838 C   0  0  0  0  0  0  0  0  0  0  0  0
  143.9155  132.1747  150.3506 C   0  0  0  0  0  0  0  0  0  0  0  0
  144.1382  135.0949  154.3605 C   0  0  0  0  0  0  0  0  0  0  0  0
  145.2029  136.1946  154.1831 C   0  0  0  0  0  0  0  0  0  0  0  0
  146.4507  135.7420  154.6925 O   0  0  0  0  0  0  0  0  0  0  0  0
  152.4865  137.9744  155.4953 N   0  0  0  0  0  0  0  0  0  0  0  0
  152.3656  139.2954  155.9427 O   0  0  0  0  0  0  0  0  0  0  0  0
  150.5321  141.7648  155.0355 H   0  0  0  0  0  0  0  0  0  0  0  0
  151.7131  141.6896  156.3436 H   0  0  0  0  0  0  0  0  0  0  0  0
  150.0386  141.2190  156.6398 H   0  0  0  0  0  0  0  0  0  0  0  0
  149.5094  138.9256  154.3657 H   0  0  0  0  0  0  0  0  0  0  0  0
  149.1817  135.6533  153.2527 H   0  0  0  0  0  0  0  0  0  0  0  0
  148.6268  133.2570  154.2075 H   0  0  0  0  0  0  0  0  0  0  0  0
  148.2884  134.1825  155.6620 H   0  0  0  0  0  0  0  0  0  0  0  0
  147.0290  134.8015  152.9460 H   0  0  0  0  0  0  0  0  0  0  0  0
  146.2624  132.5256  153.7368 H   0  0  0  0  0  0  0  0  0  0  0  0
  145.8573  133.2081  155.2905 H   0  0  0  0  0  0  0  0  0  0  0  0
  143.4462  134.1418  151.9761 H   0  0  0  0  0  0  0  0  0  0  0  0
  145.1569  134.4028  151.7977 H   0  0  0  0  0  0  0  0  0  0  0  0
  144.1533  131.6067  152.3830 H   0  0  0  0  0  0  0  0  0  0  0  0
  146.6294  132.6444  150.9147 H   0  0  0  0  0  0  0  0  0  0  0  0
  146.2316  130.9513  151.1883 H   0  0  0  0  0  0  0  0  0  0  0  0
  146.6093  131.9913  152.5508 H   0  0  0  0  0  0  0  0  0  0  0  0
  144.3333  132.8566  149.6091 H   0  0  0  0  0  0  0  0  0  0  0  0
  142.8489  132.3855  150.4331 H   0  0  0  0  0  0  0  0  0  0  0  0
  144.0188  131.1603  149.9640 H   0  0  0  0  0  0  0  0  0  0  0  0
  143.1792  135.4220  153.9609 H   0  0  0  0  0  0  0  0  0  0  0  0
  143.9797  134.9218  155.4257 H   0  0  0  0  0  0  0  0  0  0  0  0
  145.3076  136.4880  153.1377 H   0  0  0  0  0  0  0  0  0  0  0  0
  144.9063  137.0900  154.7296 H   0  0  0  0  0  0  0  0  0  0  0  0
  143.9507  133.0993  154.1014 H   0  0  0  0  0  0  0  0  0  0  0  0
  1  2  1  0  0  0  0
  1 22  1  0  0  0  0
  1 23  1  0  0  0  0
  1 24  1  0  0  0  0
  2 21  1  0  0  0  0
  2  3  2  0  0  0  0
  3  4  1  0  0  0  0
  3 25  1  0  0  0  0
  4  5  1  0  0  0  0
  4 20  2  0  0  0  0
  5  6  1  0  0  0  0
  6  7  2  0  0  0  0
  6  8  1  0  0  0  0
  8  9  1  0  0  0  0
  8 26  1  0  0  0  0
  9 10  1  0  0  0  0
  9 27  1  0  0  0  0
  9 28  1  0  0  0  0
 10 19  1  0  0  0  0
 10 11  1  0  0  0  0
 10 29  1  0  0  0  0
 11 12  1  0  0  0  0
 11 30  1  0  0  0  0
 11 31  1  0  0  0  0
 12 13  1  0  0  0  0
 12 17  1  0  0  0  0
 12 45  1  0  0  0  0
 13 14  1  0  0  0  0
 13 32  1  0  0  0  0
 13 33  1  0  0  0  0
 14 15  1  0  0  0  0
 14 16  1  0  0  0  0
 14 34  1  0  0  0  0
 15 35  1  0  0  0  0
 15 36  1  0  0  0  0
 15 37  1  0  0  0  0
 16 38  1  0  0  0  0
 16 39  1  0  0  0  0
 16 40  1  0  0  0  0
 17 18  1  0  0  0  0
 17 41  1  0  0  0  0
 17 42  1  0  0  0  0
 18 19  1  0  0  0  0
 18 43  1  0  0  0  0
 18 44  1  0  0  0  0
 20 21  1  0  0  0  0
M  CHG  1   5  -1
M  CHG  1  12   1
M  END
> <s_m_source_file>
AV-unprocessed.smi

> <i_m_source_file_index>
1254

> <i_lp_mmshare_version>
43012

> <i_f3d_flags>
0

> <s_epik_input>
W0NIM11jMVtjSF1jKG5vMSlbTkhdQyg9TylbTkhdW0NIMl1bQ0BASF0yW0NIMl1OKFtDSDJdW0NIMl1PMilbQ0gyXVtDSF0oW0NIM10pW0NIM10=

> <s_epik_cmdline>
J2VwaWtfcHl0aG9uJywgJy1waCcsICc3LjAnLCAnLXRuJywgJzgnLCAnLW1hJywgJzIwMCcsICctbWV0YWxfYmluZGluZycsICctaW1hZScsICc8aW5maWxlLm1hZT4nLCAnLW9tYWUnLCAnPG91dGZpbGUubWFlPic=

> <r_epik_Ionization_Penalty>
6.33139

> <r_epik_Ionization_Penalty_Charging>
6.33128

> <r_epik_Ionization_Penalty_Neutral>
0.000104968

> <r_epik_State_Penalty>
6.32522

> <r_epik_Charging_Adjusted_Penalty>
12.6565

> <i_epik_Tot_Q>
0

> <i_epik_Tot_abs_Q>
2

> <r_epik_Metal_State_Penalty>
2.26285

> <b_epik_Metal_Only>
1

> <s_lp_Force_Field>
OPLS_2005

> <r_lp_Energy>
8.57964

> <b_lp_Chiralities_Consistent>
1

> <s_lp_Variant>
AV-unprocessed.smi:1254-8

> <Gold.Version>
5.8.1

> <Gold.Id.Protein>
6NUR|6NUR_protein|mol2

> <Gold.PLP.Fitness>
44.4453

> <Gold.PLP.PLP>
-29.7779

> <Gold.PLP.part.hbond>
-4.7283

> <Gold.PLP.part.metal>
0.0000

> <Gold.PLP.part.buried>
-5.2872

> <Gold.PLP.part.nonpolar>
-21.6722

> <Gold.PLP.part.repulsive>
1.5744

> <Gold.PLP.ligand.clash>
0.0000

> <Gold.PLP.ligand.torsion>
1.7564

> <Gold.PLP.Chemscore.Hbond>
6.0000

> <Gold.PLP.Chemscore.CHOScore>
0.0000

> <Gold.PLP.Chemscore.Metal>
0.0000

> <Gold.Chemscore.Hbonds>
donor molecule, donor type, donor heavy atom, donor atom, acceptor molecule, acceptor atom, score
      L1  H     8    26       P1  7948  0.89
      L1  H    12    45       P1 10957  2.00
      P1  H  7997  8008       L1    21  0.65
      P1  H 10752 10764       L1     5  1.40

> <Gold.PLP.Chemscore.Internal.Correction>
0.1803

> <Gold.Rescore>
     Score         DG    S(hbond)    S(metal)    S(lipo)     H(rot)  DE(clash)    DE(int)     intcor
     14.06     -16.01       2.49        0.00      55.85       1.69       0.06       1.89       ----

> <Gold.Chemscore.Fitness>
14.0593

> <Gold.Chemscore.DG>
-16.0075

> <Gold.Chemscore.ZeroCoef>
-5.4800

> <Gold.Chemscore.Hbond>
2.4930

> <Gold.Chemscore.Metal>
0.0000

> <Gold.Chemscore.Lipo>
55.8462

> <Gold.Chemscore.Internal_Hbond>
0.0000

> <Gold.Chemscore.DEClash>
0.0580

> <Gold.Chemscore.DEInternal>
1.8902

> <Gold.Chemscore.Rot>
1.6926

> <Gold.Chemscore.Internal.Correction>
   9.000000E+99

> <Gold.Chemscore.Hbonds>
donor molecule, donor type, donor heavy atom, donor atom, acceptor molecule, acceptor atom, score
      L1  H     8    26       P1  7948  0.44
      L1  H    12    45       P1 10957  0.97
      P1  H  7997  8008       L1    21  0.48
      P1  H 10752 10764       L1     5  0.03

> <Gold.Chemscore.Hbond.Weighted>
-8.3265

> <Gold.Chemscore.Metal.Weighted>
-0.0000

> <Gold.Chemscore.Lipo.Weighted>
-6.5340

> <Gold.Chemscore.Internal_Hbond.Weighted>
0.0000

> <Gold.Chemscore.DEClash.Weighted>
0.0580

> <Gold.Chemscore.DEInternal.Weighted>
1.8902

> <Gold.Chemscore.Rot.Weighted>
4.3330

> <Gold.Chemscore.Internal.Correction.Weighted>
   9.000000E+99

> <Gold.Protein.RotatedTorsions>
[ 6907 6896 6895 6894 ] final -152.02 input  -60.11 | X-H torsion
[ 7974 7965 7964 7962 ] final  -33.42 input  175.53 | X-H torsion
[ 8008 7997 7996 7995 ] final  -43.75 input   59.86 | X-H torsion
[ 10167 10162 10161 10158 ] final   -3.80 input  -65.29 | X-H torsion
[ 10718 10713 10712 10709 ] final   95.90 input   66.30 | X-H torsion
[ 10763 10752 10751 10750 ] final  -54.59 input  -60.55 | X-H torsion
[ 11005 11000 10999 10996 ] final -116.86 input  -57.11 | X-H torsion

> <Gold.Protein.ActiveResidues>
 VAL166  LYS551  ARG553  GLY616  TRP617  ASP618  TYR619  PRO620  LYS621  CYS622 
 ASP623  PHE694  ASN695  SER759  ASP760  ASP761  ALA762  ILE779  LEU786  VAL792 
 PHE793  MET794  SER795  GLU796  ALA797  LYS798  CYS799  TRP800  GLU811  SER814 

> <Gold.Protein.RotatedAtoms>
  151.2216  133.4499  159.2600 H   0  0  0  0  0  0  0  0  0  0  0  0  # atno 6907 bound_to 6896
  151.0879  134.9899  159.8398 H   0  0  0  0  0  0  0  0  0  0  0  0  # atno 6908 bound_to 6896
  152.5431  134.2151  159.8818 H   0  0  0  0  0  0  0  0  0  0  0  0  # atno 6909 bound_to 6896
  146.0912  140.5914  142.8863 H   0  0  0  0  0  0  0  0  0  0  0  0  # atno 7974 bound_to 7965
  154.3997  140.1439  156.3571 H   0  0  0  0  0  0  0  0  0  0  0  0  # atno 8008 bound_to 7997
  155.8215  140.3469  155.5496 H   0  0  0  0  0  0  0  0  0  0  0  0  # atno 8009 bound_to 7997
  155.8282  140.0908  157.1798 H   0  0  0  0  0  0  0  0  0  0  0  0  # atno 8010 bound_to 7997
  140.6904  143.6498  150.8360 H   0  0  0  0  0  0  0  0  0  0  0  0  # atno 10167 bound_to 10162
  157.6933  131.0560  150.4409 H   0  0  0  0  0  0  0  0  0  0  0  0  # atno 10718 bound_to 10713
  154.1773  135.6449  153.5025 H   0  0  0  0  0  0  0  0  0  0  0  0  # atno 10763 bound_to 10752
  153.0068  135.5397  154.6550 H   0  0  0  0  0  0  0  0  0  0  0  0  # atno 10764 bound_to 10752
  154.5905  135.2934  155.0612 H   0  0  0  0  0  0  0  0  0  0  0  0  # atno 10765 bound_to 10752
  141.0394  133.9860  157.3019 H   0  0  0  0  0  0  0  0  0  0  0  0  # atno 11005 bound_to 11000
  144.7361  140.4813  143.6902 LP  0  0  0  0  0  0  0  0  0  0  0  0  # atno 17320 bound_to 7965
  145.6036  139.1506  143.3115 LP  0  0  0  0  0  0  0  0  0  0  0  0  # atno 17321 bound_to 7965
  140.0210  143.5542  152.2800 LP  0  0  0  0  0  0  0  0  0  0  0  0  # atno 17342 bound_to 10162
  139.6300  144.7643  151.2556 LP  0  0  0  0  0  0  0  0  0  0  0  0  # atno 17343 bound_to 10162
  156.4768  130.4065  149.6485 LP  0  0  0  0  0  0  0  0  0  0  0  0  # atno 17370 bound_to 10713
  156.3545  130.7449  151.2413 LP  0  0  0  0  0  0  0  0  0  0  0  0  # atno 17371 bound_to 10713
  139.9264  135.0201  156.8249 LP  0  0  0  0  0  0  0  0  0  0  0  0  # atno 17394 bound_to 11000
  140.6263  133.9947  155.7641 LP  0  0  0  0  0  0  0  0  0  0  0  0  # atno 17395 bound_to 11000

$$$$
