AV-unprocessed.smi:2757|AV-procd|sdf|10620|dock4
  -GOLD-   2272015 63D 1   1.00000     0.00000
 Structure written by MMmdl.
 32 33  0  0  0  0  0  0  0  0  2 V2000
  153.4625  140.4105  160.8394 C   0  0  0  0  0  0  0  0  0  0  0  0
  152.6198  140.7827  159.7136 N   0  0  0  0  0  0  0  0  0  0  0  0
  152.6079  140.1432  158.5347 C   0  0  0  0  0  0  0  0  0  0  0  0
  153.3112  139.1645  158.2814 O   0  0  0  0  0  0  0  0  0  0  0  0
  151.6743  140.7167  157.5094 C   0  0  0  0  0  0  0  0  0  0  0  0
  151.3363  142.1017  157.5239 C   0  0  0  0  0  0  0  0  0  0  0  0
  150.4817  142.2433  156.4687 C   0  0  0  0  0  0  0  0  0  0  0  0
  150.3401  141.0033  155.8819 N   0  0  0  0  0  0  0  0  0  0  0  0
  149.5356  140.6439  154.7238 C   0  0  2  0  0  0  0  0  0  0  0  0
  148.0454  140.9787  154.9386 C   0  0  0  0  0  0  0  0  0  0  0  0
  147.2241  140.5698  153.7064 C   0  0  0  0  0  0  0  0  0  0  0  0
  147.4511  139.0881  153.3616 C   0  0  0  0  0  0  0  0  0  0  0  0
  148.8913  138.8083  153.1712 N   0  3  0  0  0  0  0  0  0  0  0  0
  149.7089  139.1551  154.3548 C   0  0  0  0  0  0  0  0  0  0  0  0
  151.0782  140.0663  156.5183 N   0  0  0  0  0  0  0  0  0  0  0  0
  153.2598  141.0641  161.6879 H   0  0  0  0  0  0  0  0  0  0  0  0
  154.5177  140.5052  160.5805 H   0  0  0  0  0  0  0  0  0  0  0  0
  153.2698  139.3819  161.1473 H   0  0  0  0  0  0  0  0  0  0  0  0
  152.0118  141.5804  159.8303 H   0  0  0  0  0  0  0  0  0  0  0  0
  151.6669  142.8727  158.2046 H   0  0  0  0  0  0  0  0  0  0  0  0
  149.9679  143.1158  156.0925 H   0  0  0  0  0  0  0  0  0  0  0  0
  149.8972  141.2431  153.8863 H   0  0  0  0  0  0  0  0  0  0  0  0
  147.6617  140.4556  155.8155 H   0  0  0  0  0  0  0  0  0  0  0  0
  147.9214  142.0446  155.1326 H   0  0  0  0  0  0  0  0  0  0  0  0
  146.1645  140.7526  153.8878 H   0  0  0  0  0  0  0  0  0  0  0  0
  147.5046  141.1928  152.8561 H   0  0  0  0  0  0  0  0  0  0  0  0
  147.0642  138.4498  154.1570 H   0  0  0  0  0  0  0  0  0  0  0  0
  146.9131  138.8247  152.4506 H   0  0  0  0  0  0  0  0  0  0  0  0
  149.0101  137.8261  152.9676 H   0  0  0  0  0  0  0  0  0  0  0  0
  150.7547  138.9366  154.1368 H   0  0  0  0  0  0  0  0  0  0  0  0
  149.4157  138.5113  155.1854 H   0  0  0  0  0  0  0  0  0  0  0  0
  149.2223  139.3466  152.3831 H   0  0  0  0  0  0  0  0  0  0  0  0
  1  2  1  0  0  0  0
  1 16  1  0  0  0  0
  1 17  1  0  0  0  0
  1 18  1  0  0  0  0
  2  3  1  0  0  0  0
  2 19  1  0  0  0  0
  3  4  2  0  0  0  0
  3  5  1  0  0  0  0
  5 15  2  0  0  0  0
  5  6  1  0  0  0  0
  6  7  2  0  0  0  0
  6 20  1  0  0  0  0
  7  8  1  0  0  0  0
  7 21  1  0  0  0  0
  8  9  1  0  0  0  0
  8 15  1  0  0  0  0
  9 14  1  0  0  0  0
  9 10  1  0  0  0  0
  9 22  1  0  0  0  0
 10 11  1  0  0  0  0
 10 23  1  0  0  0  0
 10 24  1  0  0  0  0
 11 12  1  0  0  0  0
 11 25  1  0  0  0  0
 11 26  1  0  0  0  0
 12 13  1  0  0  0  0
 12 27  1  0  0  0  0
 12 28  1  0  0  0  0
 13 14  1  0  0  0  0
 13 29  1  0  0  0  0
 13 32  1  0  0  0  0
 14 30  1  0  0  0  0
 14 31  1  0  0  0  0
M  CHG  1  13   1
M  END
> <s_m_source_file>
AV-unprocessed.smi

> <i_m_source_file_index>
2757

> <i_lp_mmshare_version>
43012

> <i_f3d_flags>
0

> <s_epik_input>
W0NIM11bTkhdQyg9TyljMVtjSF1bY0hdbihuMSlbQ0BASF0yW0NIMl1bQ0gyXVtDSDJdW05IXVtDSDJdMg==

> <s_epik_cmdline>
J2VwaWtfcHl0aG9uJywgJy1waCcsICc3LjAnLCAnLXRuJywgJzgnLCAnLW1hJywgJzIwMCcsICctbWV0YWxfYmluZGluZycsICctaW1hZScsICc8aW5maWxlLm1hZT4nLCAnLW9tYWUnLCAnPG91dGZpbGUubWFlPic=

> <r_lp_tautomer_probability>
1

> <r_epik_Ionization_Penalty>
0.000652722

> <r_epik_Ionization_Penalty_Charging>
0.000651447

> <r_epik_Ionization_Penalty_Neutral>
1.27533e-06

> <r_epik_State_Penalty>
0.000412577

> <r_epik_Charging_Adjusted_Penalty>
0.00106402

> <i_epik_Tot_Q>
1

> <i_epik_Tot_abs_Q>
1

> <r_epik_Metal_State_Penalty>
-0

> <b_epik_Metal_Only>
0

> <s_lp_Force_Field>
OPLS_2005

> <r_lp_Energy>
20.0976

> <b_lp_Chiralities_Consistent>
1

> <s_lp_Variant>
AV-unprocessed.smi:2757-1

> <Gold.Version>
5.8.1

> <Gold.Id.Protein>
6NUR|6NUR_protein|mol2

> <Gold.PLP.Fitness>
41.0135

> <Gold.PLP.PLP>
-26.9327

> <Gold.PLP.part.hbond>
-3.0000

> <Gold.PLP.part.metal>
0.0000

> <Gold.PLP.part.buried>
-2.3406

> <Gold.PLP.part.nonpolar>
-22.0277

> <Gold.PLP.part.repulsive>
0.2009

> <Gold.PLP.ligand.clash>
0.0000

> <Gold.PLP.ligand.torsion>
0.3475

> <Gold.PLP.Chemscore.Hbond>
3.9753

> <Gold.PLP.Chemscore.CHOScore>
0.9438

> <Gold.PLP.Chemscore.Metal>
0.0000

> <Gold.Chemscore.Hbonds>
donor molecule, donor type, donor heavy atom, donor atom, acceptor molecule, acceptor atom, score
      L1  H    13    29       P1  7948  2.00
      L1  H    13    32       P1  7957  0.80
      P1  H  7997  8008       L1     4  0.93
      L1  C     7    21       P1  8028  0.88

> <Gold.PLP.Chemscore.Internal.Correction>
0.0189

> <Gold.Rescore>
     Score         DG    S(hbond)    S(metal)    S(lipo)     H(rot)  DE(clash)    DE(int)     intcor
     18.71     -19.75       2.84        0.00      62.67       1.00       0.49       0.55       ----

> <Gold.Chemscore.Fitness>
18.7083

> <Gold.Chemscore.DG>
-19.7490

> <Gold.Chemscore.ZeroCoef>
-5.4800

> <Gold.Chemscore.Hbond>
2.8431

> <Gold.Chemscore.Metal>
0.0000

> <Gold.Chemscore.Lipo>
62.6741

> <Gold.Chemscore.Internal_Hbond>
0.0000

> <Gold.Chemscore.DEClash>
0.4887

> <Gold.Chemscore.DEInternal>
0.5520

> <Gold.Chemscore.Rot>
1.0000

> <Gold.Chemscore.Internal.Correction>
   9.000000E+99

> <Gold.Chemscore.Hbonds>
donor molecule, donor type, donor heavy atom, donor atom, acceptor molecule, acceptor atom, score
      L1  H    13    29       P1  7948  0.98
      L1  H    13    32       P1  7957  0.79
      P1  H  7997  8008       L1     4  0.30

> <Gold.Chemscore.Hbond.Weighted>
-9.4961

> <Gold.Chemscore.Metal.Weighted>
-0.0000

> <Gold.Chemscore.Lipo.Weighted>
-7.3329

> <Gold.Chemscore.Internal_Hbond.Weighted>
0.0000

> <Gold.Chemscore.DEClash.Weighted>
0.4887

> <Gold.Chemscore.DEInternal.Weighted>
0.5520

> <Gold.Chemscore.Rot.Weighted>
2.5600

> <Gold.Chemscore.Internal.Correction.Weighted>
   9.000000E+99

> <Gold.Protein.RotatedTorsions>
[ 6907 6896 6895 6894 ] final -100.02 input  -60.11 | X-H torsion
[ 7974 7965 7964 7962 ] final -131.87 input  175.53 | X-H torsion
[ 8008 7997 7996 7995 ] final -106.72 input   59.86 | X-H torsion
[ 10167 10162 10161 10158 ] final   93.13 input  -65.29 | X-H torsion
[ 10718 10713 10712 10709 ] final   71.84 input   66.30 | X-H torsion
[ 10763 10752 10751 10750 ] final   19.26 input  -60.55 | X-H torsion
[ 11005 11000 10999 10996 ] final  147.34 input  -57.11 | X-H torsion

> <Gold.Protein.ActiveResidues>
 VAL166  LYS551  ARG553  GLY616  TRP617  ASP618  TYR619  PRO620  LYS621  CYS622 
 ASP623  PHE694  ASN695  SER759  ASP760  ASP761  ALA762  ILE779  LEU786  VAL792 
 PHE793  MET794  SER795  GLU796  ALA797  LYS798  CYS799  TRP800  GLU811  SER814 

> <Gold.Protein.RotatedAtoms>
  150.7101  134.0951  159.3945 H   0  0  0  0  0  0  0  0  0  0  0  0  # atno 6907 bound_to 6896
  151.8937  135.0404  160.0509 H   0  0  0  0  0  0  0  0  0  0  0  0  # atno 6908 bound_to 6896
  152.2471  133.5148  159.5340 H   0  0  0  0  0  0  0  0  0  0  0  0  # atno 6909 bound_to 6896
  144.9338  140.7160  143.4889 H   0  0  0  0  0  0  0  0  0  0  0  0  # atno 7974 bound_to 7965
  154.9187  140.0408  157.1986 H   0  0  0  0  0  0  0  0  0  0  0  0  # atno 8008 bound_to 7997
  154.8275  140.2894  155.5723 H   0  0  0  0  0  0  0  0  0  0  0  0  # atno 8009 bound_to 7997
  156.2984  140.2507  156.3194 H   0  0  0  0  0  0  0  0  0  0  0  0  # atno 8010 bound_to 7997
  139.8209  144.6731  150.9519 H   0  0  0  0  0  0  0  0  0  0  0  0  # atno 10167 bound_to 10162
  157.6471  130.9548  150.0845 H   0  0  0  0  0  0  0  0  0  0  0  0  # atno 10718 bound_to 10713
  153.1178  135.6712  153.9388 H   0  0  0  0  0  0  0  0  0  0  0  0  # atno 10763 bound_to 10752
  153.8912  135.3046  155.3448 H   0  0  0  0  0  0  0  0  0  0  0  0  # atno 10764 bound_to 10752
  154.7592  135.4996  153.9511 H   0  0  0  0  0  0  0  0  0  0  0  0  # atno 10765 bound_to 10752
  140.0868  134.9065  157.1588 H   0  0  0  0  0  0  0  0  0  0  0  0  # atno 11005 bound_to 11000
  145.3099  139.1822  143.4644 LP  0  0  0  0  0  0  0  0  0  0  0  0  # atno 17320 bound_to 7965
  146.3258  140.3102  142.8626 LP  0  0  0  0  0  0  0  0  0  0  0  0  # atno 17321 bound_to 7965
  140.7813  143.4092  151.1020 LP  0  0  0  0  0  0  0  0  0  0  0  0  # atno 17342 bound_to 10162
  139.7753  143.8435  152.3128 LP  0  0  0  0  0  0  0  0  0  0  0  0  # atno 17343 bound_to 10162
  156.1812  130.3650  149.9033 LP  0  0  0  0  0  0  0  0  0  0  0  0  # atno 17370 bound_to 10713
  156.6985  130.8924  151.3596 LP  0  0  0  0  0  0  0  0  0  0  0  0  # atno 17371 bound_to 10713
  140.3409  134.2705  155.7212 LP  0  0  0  0  0  0  0  0  0  0  0  0  # atno 17394 bound_to 11000
  141.2065  133.7831  157.0173 LP  0  0  0  0  0  0  0  0  0  0  0  0  # atno 17395 bound_to 11000

$$$$
