AV-unprocessed.smi:1586|AV-procd|sdf|6384|dock8
  -GOLD-   22720 7 23D 1   1.00000     0.00000
 Structure written by MMmdl.
 46 47  0  0  0  0  0  0  0  0  3 V2000
  143.9318  132.2376  149.8739 C   0  0  0  0  0  0  0  0  0  0  0  0
  144.1007  133.2403  151.0243 C   0  0  0  0  0  0  0  0  0  0  0  0
  145.1653  134.2093  150.7542 N   0  0  0  0  0  0  0  0  0  0  0  0
  145.3652  135.2170  151.8027 C   0  0  0  0  0  0  0  0  0  0  0  0
  145.9768  134.6162  153.0866 C   0  0  0  0  0  0  0  0  0  0  0  0
  147.2618  133.9484  152.7719 N   0  3  0  0  0  0  0  0  0  0  0  0
  148.0401  133.5163  153.9694 C   0  0  1  0  0  0  0  0  0  0  0  0
  149.3326  132.7547  153.6177 C   0  0  0  0  0  0  0  0  0  0  0  0
  148.3109  134.6966  154.9288 C   0  0  0  0  0  0  0  0  0  0  0  0
  148.6743  134.2377  156.2684 N   0  0  0  0  0  0  0  0  0  0  0  0
  148.9833  135.0111  157.3196 C   0  0  0  0  0  0  0  0  0  0  0  0
  149.0361  136.2357  157.1891 O   0  0  0  0  0  0  0  0  0  0  0  0
  149.1844  134.3181  158.4620 N   0  5  0  0  0  0  0  0  0  0  0  0
  148.5515  134.6790  159.5890 C   0  0  0  0  0  0  0  0  0  0  0  0
  148.0789  133.7970  160.5991 C   0  0  0  0  0  0  0  0  0  0  0  0
  147.5310  134.6436  161.5205 C   0  0  0  0  0  0  0  0  0  0  0  0
  146.8481  134.4174  162.8258 C   0  0  0  0  0  0  0  0  0  0  0  0
  147.6632  135.9344  161.1126 O   0  0  0  0  0  0  0  0  0  0  0  0
  148.3235  135.9487  159.8781 N   0  0  0  0  0  0  0  0  0  0  0  0
  147.0673  132.9183  151.7207 C   0  0  0  0  0  0  0  0  0  0  0  0
  146.4488  133.5632  150.4630 C   0  0  0  0  0  0  0  0  0  0  0  0
  143.2322  131.4503  150.1558 H   0  0  0  0  0  0  0  0  0  0  0  0
  144.8793  131.7602  149.6216 H   0  0  0  0  0  0  0  0  0  0  0  0
  143.5382  132.7088  148.9735 H   0  0  0  0  0  0  0  0  0  0  0  0
  143.1522  133.7319  151.2376 H   0  0  0  0  0  0  0  0  0  0  0  0
  144.3661  132.6791  151.9211 H   0  0  0  0  0  0  0  0  0  0  0  0
  146.0348  135.9854  151.4132 H   0  0  0  0  0  0  0  0  0  0  0  0
  144.4294  135.7262  152.0299 H   0  0  0  0  0  0  0  0  0  0  0  0
  146.1512  135.4219  153.8006 H   0  0  0  0  0  0  0  0  0  0  0  0
  145.2901  133.9179  153.5653 H   0  0  0  0  0  0  0  0  0  0  0  0
  147.4059  132.8235  154.5249 H   0  0  0  0  0  0  0  0  0  0  0  0
  149.7975  132.3514  154.5175 H   0  0  0  0  0  0  0  0  0  0  0  0
  150.0688  133.4007  153.1388 H   0  0  0  0  0  0  0  0  0  0  0  0
  149.1350  131.9148  152.9513 H   0  0  0  0  0  0  0  0  0  0  0  0
  149.1416  135.2922  154.5494 H   0  0  0  0  0  0  0  0  0  0  0  0
  147.4554  135.3725  154.9695 H   0  0  0  0  0  0  0  0  0  0  0  0
  148.6610  133.2398  156.4241 H   0  0  0  0  0  0  0  0  0  0  0  0
  148.1303  132.7193  160.6392 H   0  0  0  0  0  0  0  0  0  0  0  0
  147.1660  133.4748  163.2718 H   0  0  0  0  0  0  0  0  0  0  0  0
  145.7668  134.3820  162.6935 H   0  0  0  0  0  0  0  0  0  0  0  0
  147.0777  135.2176  163.5298 H   0  0  0  0  0  0  0  0  0  0  0  0
  148.0258  132.4711  151.4586 H   0  0  0  0  0  0  0  0  0  0  0  0
  146.4352  132.1082  152.0847 H   0  0  0  0  0  0  0  0  0  0  0  0
  146.3175  132.8174  149.6783 H   0  0  0  0  0  0  0  0  0  0  0  0
  147.1343  134.3115  150.0621 H   0  0  0  0  0  0  0  0  0  0  0  0
  147.8306  134.6668  152.3448 H   0  0  0  0  0  0  0  0  0  0  0  0
  1  2  1  0  0  0  0
  1 22  1  0  0  0  0
  1 23  1  0  0  0  0
  1 24  1  0  0  0  0
  2  3  1  0  0  0  0
  2 25  1  0  0  0  0
  2 26  1  0  0  0  0
  3 21  1  0  0  0  0
  3  4  1  0  0  0  0
  4  5  1  0  0  0  0
  4 27  1  0  0  0  0
  4 28  1  0  0  0  0
  5  6  1  0  0  0  0
  5 29  1  0  0  0  0
  5 30  1  0  0  0  0
  6  7  1  0  0  0  0
  6 20  1  0  0  0  0
  6 46  1  0  0  0  0
  7  8  1  0  0  0  0
  7  9  1  0  0  0  0
  7 31  1  0  0  0  0
  8 32  1  0  0  0  0
  8 33  1  0  0  0  0
  8 34  1  0  0  0  0
  9 10  1  0  0  0  0
  9 35  1  0  0  0  0
  9 36  1  0  0  0  0
 10 11  1  0  0  0  0
 10 37  1  0  0  0  0
 11 12  2  0  0  0  0
 11 13  1  0  0  0  0
 13 14  1  0  0  0  0
 14 19  2  0  0  0  0
 14 15  1  0  0  0  0
 15 16  2  0  0  0  0
 15 38  1  0  0  0  0
 16 17  1  0  0  0  0
 16 18  1  0  0  0  0
 17 39  1  0  0  0  0
 17 40  1  0  0  0  0
 17 41  1  0  0  0  0
 18 19  1  0  0  0  0
 20 21  1  0  0  0  0
 20 42  1  0  0  0  0
 20 43  1  0  0  0  0
 21 44  1  0  0  0  0
 21 45  1  0  0  0  0
M  CHG  1   6   1
M  CHG  1  13  -1
M  END
> <s_m_source_file>
AV-unprocessed.smi

> <i_m_source_file_index>
1586

> <i_lp_mmshare_version>
43012

> <i_f3d_flags>
0

> <s_epik_input>
W0NIM11bQ0gyXU4xW0NIMl1bQ0gyXU4oW0NIMl1bQ0gyXTEpW0NASF0oW0NIM10pW0NIMl1bTkhdQyg9TylbTkhdYzJbY0hdYyhbQ0gzXSlvbjI=

> <s_epik_cmdline>
J2VwaWtfcHl0aG9uJywgJy1waCcsICc3LjAnLCAnLXRuJywgJzgnLCAnLW1hJywgJzIwMCcsICctbWV0YWxfYmluZGluZycsICctaW1hZScsICc8aW5maWxlLm1hZT4nLCAnLW9tYWUnLCAnPG91dGZpbGUubWFlPic=

> <r_epik_Ionization_Penalty>
6.35599

> <r_epik_Ionization_Penalty_Charging>
6.35441

> <r_epik_Ionization_Penalty_Neutral>
0.00158318

> <r_epik_State_Penalty>
7.1902

> <r_epik_Charging_Adjusted_Penalty>
13.5446

> <i_epik_Tot_Q>
0

> <i_epik_Tot_abs_Q>
2

> <r_epik_Metal_State_Penalty>
3.12491

> <b_epik_Metal_Only>
1

> <s_lp_Force_Field>
OPLS_2005

> <r_lp_Energy>
11.5798

> <b_lp_Chiralities_Consistent>
1

> <s_lp_Variant>
AV-unprocessed.smi:1586-12

> <Gold.Version>
5.8.1

> <Gold.Id.Protein>
6NUR|6NUR_protein|mol2

> <Gold.PLP.Fitness>
49.9001

> <Gold.PLP.PLP>
-34.1080

> <Gold.PLP.part.hbond>
-4.0170

> <Gold.PLP.part.metal>
0.0000

> <Gold.PLP.part.buried>
-5.3477

> <Gold.PLP.part.nonpolar>
-25.6743

> <Gold.PLP.part.repulsive>
0.1816

> <Gold.PLP.ligand.clash>
0.0000

> <Gold.PLP.ligand.torsion>
0.8625

> <Gold.PLP.Chemscore.Hbond>
5.7760

> <Gold.PLP.Chemscore.CHOScore>
0.0000

> <Gold.PLP.Chemscore.Metal>
0.0000

> <Gold.Chemscore.Hbonds>
donor molecule, donor type, donor heavy atom, donor atom, acceptor molecule, acceptor atom, score
      L1  H     6    46       P1  7948  2.00
      P1  H  6896  6909       L1    13  0.80

> <Gold.PLP.Chemscore.Internal.Correction>
0.1891

> <Gold.Rescore>
     Score         DG    S(hbond)    S(metal)    S(lipo)     H(rot)  DE(clash)    DE(int)     intcor
     14.66     -17.35       2.26        0.00      74.71       1.73       0.01       2.68       ----

> <Gold.Chemscore.Fitness>
14.6550

> <Gold.Chemscore.DG>
-17.3513

> <Gold.Chemscore.ZeroCoef>
-5.4800

> <Gold.Chemscore.Hbond>
2.2595

> <Gold.Chemscore.Metal>
0.0000

> <Gold.Chemscore.Lipo>
74.7054

> <Gold.Chemscore.Internal_Hbond>
0.0000

> <Gold.Chemscore.DEClash>
0.0127

> <Gold.Chemscore.DEInternal>
2.6836

> <Gold.Chemscore.Rot>
1.7250

> <Gold.Chemscore.Internal.Correction>
   9.000000E+99

> <Gold.Chemscore.Hbonds>
donor molecule, donor type, donor heavy atom, donor atom, acceptor molecule, acceptor atom, score
      L1  H     6    46       P1  7948  0.65
      P1  H  6896  6909       L1    13  0.01

> <Gold.Chemscore.Hbond.Weighted>
-7.5469

> <Gold.Chemscore.Metal.Weighted>
-0.0000

> <Gold.Chemscore.Lipo.Weighted>
-8.7405

> <Gold.Chemscore.Internal_Hbond.Weighted>
0.0000

> <Gold.Chemscore.DEClash.Weighted>
0.0127

> <Gold.Chemscore.DEInternal.Weighted>
2.6836

> <Gold.Chemscore.Rot.Weighted>
4.4161

> <Gold.Chemscore.Internal.Correction.Weighted>
   9.000000E+99

> <Gold.Protein.RotatedTorsions>
[ 6907 6896 6895 6894 ] final   25.68 input  -60.11 | X-H torsion
[ 7974 7965 7964 7962 ] final -150.66 input  175.53 | X-H torsion
[ 8008 7997 7996 7995 ] final  116.82 input   59.86 | X-H torsion
[ 10167 10162 10161 10158 ] final  -90.82 input  -65.29 | X-H torsion
[ 10718 10713 10712 10709 ] final  -58.24 input   66.30 | X-H torsion
[ 10763 10752 10751 10750 ] final   58.39 input  -60.55 | X-H torsion
[ 11005 11000 10999 10996 ] final  118.87 input  -57.11 | X-H torsion

> <Gold.Protein.ActiveResidues>
 VAL166  LYS551  ARG553  GLY616  TRP617  ASP618  TYR619  PRO620  LYS621  CYS622 
 ASP623  PHE694  ASN695  SER759  ASP760  ASP761  ALA762  ILE779  LEU786  VAL792 
 PHE793  MET794  SER795  GLU796  ALA797  LYS798  CYS799  TRP800  GLU811  SER814 

> <Gold.Protein.RotatedAtoms>
  151.9761  135.0052  160.0554 H   0  0  0  0  0  0  0  0  0  0  0  0  # atno 6907 bound_to 6896
  152.1739  133.4657  159.4931 H   0  0  0  0  0  0  0  0  0  0  0  0  # atno 6908 bound_to 6896
  150.6906  134.1836  159.4301 H   0  0  0  0  0  0  0  0  0  0  0  0  # atno 6909 bound_to 6896
  144.7895  140.4902  143.5783 H   0  0  0  0  0  0  0  0  0  0  0  0  # atno 7974 bound_to 7965
  156.2460  140.2909  156.0582 H   0  0  0  0  0  0  0  0  0  0  0  0  # atno 8008 bound_to 7997
  155.1805  140.0404  157.2898 H   0  0  0  0  0  0  0  0  0  0  0  0  # atno 8009 bound_to 7997
  154.6263  140.2488  155.7495 H   0  0  0  0  0  0  0  0  0  0  0  0  # atno 8010 bound_to 7997
  140.3510  143.2891  151.9726 H   0  0  0  0  0  0  0  0  0  0  0  0  # atno 10167 bound_to 10162
  156.1150  130.4171  150.0550 H   0  0  0  0  0  0  0  0  0  0  0  0  # atno 10718 bound_to 10713
  152.9870  135.5608  154.5545 H   0  0  0  0  0  0  0  0  0  0  0  0  # atno 10763 bound_to 10752
  154.4976  135.2795  155.1449 H   0  0  0  0  0  0  0  0  0  0  0  0  # atno 10764 bound_to 10752
  154.2893  135.6329  153.5431 H   0  0  0  0  0  0  0  0  0  0  0  0  # atno 10765 bound_to 10752
  139.9125  134.9624  156.7570 H   0  0  0  0  0  0  0  0  0  0  0  0  # atno 11005 bound_to 11000
  145.5833  139.1490  143.3223 LP  0  0  0  0  0  0  0  0  0  0  0  0  # atno 17320 bound_to 7965
  146.2141  140.5962  142.9046 LP  0  0  0  0  0  0  0  0  0  0  0  0  # atno 17321 bound_to 7965
  139.4826  144.6076  151.7493 LP  0  0  0  0  0  0  0  0  0  0  0  0  # atno 17342 bound_to 10162
  140.5219  144.0866  150.6025 LP  0  0  0  0  0  0  0  0  0  0  0  0  # atno 17343 bound_to 10162
  156.8503  130.9456  151.3626 LP  0  0  0  0  0  0  0  0  0  0  0  0  # atno 17370 bound_to 10713
  157.6333  130.8746  149.9313 LP  0  0  0  0  0  0  0  0  0  0  0  0  # atno 17371 bound_to 10713
  140.6728  133.9544  155.7866 LP  0  0  0  0  0  0  0  0  0  0  0  0  # atno 17394 bound_to 11000
  141.0565  134.0408  157.3715 LP  0  0  0  0  0  0  0  0  0  0  0  0  # atno 17395 bound_to 11000

$$$$
