AV-unprocessed.smi:2734|AV-procd|sdf|10538|dock3
  -GOLD-   2272014583D 1   1.00000     0.00000
 Structure written by MMmdl.
 40 42  0  0  0  0  0  0  0  0  1 V2000
  153.6708  142.4235  160.3597 C   0  0  0  0  0  0  0  0  0  0  0  0
  152.7287  142.1002  159.2133 C   0  0  0  0  0  0  0  0  0  0  0  0
  152.7969  140.8259  158.6065 C   0  0  0  0  0  0  0  0  0  0  0  0
  151.9420  140.4875  157.5348 C   0  0  0  0  0  0  0  0  0  0  0  0
  151.8426  139.3193  156.7987 N   0  0  0  0  0  0  0  0  0  0  0  0
  150.8715  139.6235  155.9427 C   0  0  0  0  0  0  0  0  0  0  0  0
  150.3292  140.8527  156.0365 N   0  0  0  0  0  0  0  0  0  0  0  0
  149.2702  141.4034  155.2103 C   0  0  0  0  0  0  0  0  0  0  0  0
  147.8755  141.2465  155.8481 C   0  0  1  0  0  0  0  0  0  0  0  0
  147.7063  142.2939  156.7814 O   0  0  0  0  0  0  0  0  0  0  0  0
  146.7221  141.2844  154.8281 C   0  0  0  0  0  0  0  0  0  0  0  0
  146.8408  142.7063  153.7010 S   0  0  0  0  0  0  0  0  0  0  0  0
  145.4064  143.6046  154.2079 C   0  0  0  0  0  0  0  0  0  0  0  0
  144.6951  143.4054  155.3121 N   0  0  0  0  0  0  0  0  0  0  0  0
  143.6929  144.3541  155.2401 N   0  0  0  0  0  0  0  0  0  0  0  0
  143.8008  145.0731  154.1608 N   0  0  0  0  0  0  0  0  0  0  0  0
  144.8850  144.6092  153.4930 N   0  0  0  0  0  0  0  0  0  0  0  0
  145.2959  145.1953  152.2328 C   0  0  0  0  0  0  0  0  0  0  0  0
  151.0072  141.4655  157.0854 C   0  0  0  0  0  0  0  0  0  0  0  0
  150.9284  142.7360  157.6827 C   0  0  0  0  0  0  0  0  0  0  0  0
  151.7924  143.0591  158.7495 C   0  0  0  0  0  0  0  0  0  0  0  0
  151.7049  144.4368  159.3816 C   0  0  0  0  0  0  0  0  0  0  0  0
  154.3162  141.5769  160.5958 H   0  0  0  0  0  0  0  0  0  0  0  0
  153.1077  142.6752  161.2586 H   0  0  0  0  0  0  0  0  0  0  0  0
  154.3089  143.2690  160.1016 H   0  0  0  0  0  0  0  0  0  0  0  0
  153.5112  140.0960  158.9578 H   0  0  0  0  0  0  0  0  0  0  0  0
  150.5360  138.9130  155.2012 H   0  0  0  0  0  0  0  0  0  0  0  0
  149.4882  142.4581  155.0359 H   0  0  0  0  0  0  0  0  0  0  0  0
  149.3014  140.9151  154.2353 H   0  0  0  0  0  0  0  0  0  0  0  0
  147.8391  140.3034  156.3947 H   0  0  0  0  0  0  0  0  0  0  0  0
  148.1205  143.0705  156.4365 H   0  0  0  0  0  0  0  0  0  0  0  0
  146.7045  140.3617  154.2464 H   0  0  0  0  0  0  0  0  0  0  0  0
  145.7662  141.3582  155.3461 H   0  0  0  0  0  0  0  0  0  0  0  0
  146.3085  145.5887  152.3254 H   0  0  0  0  0  0  0  0  0  0  0  0
  144.6252  146.0077  151.9507 H   0  0  0  0  0  0  0  0  0  0  0  0
  145.2783  144.4344  151.4523 H   0  0  0  0  0  0  0  0  0  0  0  0
  150.2136  143.4583  157.3172 H   0  0  0  0  0  0  0  0  0  0  0  0
  150.9302  145.0424  158.9104 H   0  0  0  0  0  0  0  0  0  0  0  0
  152.6524  144.9655  159.2766 H   0  0  0  0  0  0  0  0  0  0  0  0
  151.4673  144.3567  160.4426 H   0  0  0  0  0  0  0  0  0  0  0  0
  1  2  1  0  0  0  0
  1 23  1  0  0  0  0
  1 24  1  0  0  0  0
  1 25  1  0  0  0  0
  2 21  1  0  0  0  0
  2  3  2  0  0  0  0
  3  4  1  0  0  0  0
  3 26  1  0  0  0  0
  4 19  2  0  0  0  0
  4  5  1  0  0  0  0
  5  6  2  0  0  0  0
  6  7  1  0  0  0  0
  6 27  1  0  0  0  0
  7  8  1  0  0  0  0
  7 19  1  0  0  0  0
  8  9  1  0  0  0  0
  8 28  1  0  0  0  0
  8 29  1  0  0  0  0
  9 10  1  0  0  0  0
  9 11  1  0  0  0  0
  9 30  1  0  0  0  0
 10 31  1  0  0  0  0
 11 12  1  0  0  0  0
 11 32  1  0  0  0  0
 11 33  1  0  0  0  0
 12 13  1  0  0  0  0
 13 17  1  0  0  0  0
 13 14  2  0  0  0  0
 14 15  1  0  0  0  0
 15 16  2  0  0  0  0
 16 17  1  0  0  0  0
 17 18  1  0  0  0  0
 18 34  1  0  0  0  0
 18 35  1  0  0  0  0
 18 36  1  0  0  0  0
 19 20  1  0  0  0  0
 20 21  2  0  0  0  0
 20 37  1  0  0  0  0
 21 22  1  0  0  0  0
 22 38  1  0  0  0  0
 22 39  1  0  0  0  0
 22 40  1  0  0  0  0
M  END
> <s_m_source_file>
AV-unprocessed.smi

> <i_m_source_file_index>
2734

> <i_lp_mmshare_version>
43012

> <i_f3d_flags>
0

> <s_epik_input>
W0NIM11jKFtjSF0xKWMoW0NIM10pW2NIXWMoYzEyKW4oW2NIXW4yKVtDSDJdW0NASF0oW09IXSlbQ0gyXVNjM25ubm4zW0NIM10=

> <s_epik_cmdline>
J2VwaWtfcHl0aG9uJywgJy1waCcsICc3LjAnLCAnLXRuJywgJzgnLCAnLW1hJywgJzIwMCcsICctbWV0YWxfYmluZGluZycsICctaW1hZScsICc8aW5maWxlLm1hZT4nLCAnLW9tYWUnLCAnPG91dGZpbGUubWFlPic=

> <r_lp_tautomer_probability>
1

> <r_epik_Ionization_Penalty>
0.105517

> <r_epik_Ionization_Penalty_Charging>
0

> <r_epik_Ionization_Penalty_Neutral>
0.105517

> <r_epik_State_Penalty>
0.0953887

> <r_epik_Charging_Adjusted_Penalty>
0.0953887

> <i_epik_Tot_Q>
0

> <i_epik_Tot_abs_Q>
0

> <r_epik_Metal_State_Penalty>
0.0808533

> <b_epik_Metal_Only>
0

> <s_lp_Force_Field>
OPLS_2005

> <r_lp_Energy>
9.84292

> <b_lp_Chiralities_Consistent>
1

> <s_lp_Variant>
AV-unprocessed.smi:2734-2

> <Gold.Version>
5.8.1

> <Gold.Id.Protein>
6NUR|6NUR_protein|mol2

> <Gold.PLP.Fitness>
45.2586

> <Gold.PLP.PLP>
-44.5460

> <Gold.PLP.part.hbond>
-1.0000

> <Gold.PLP.part.metal>
0.0000

> <Gold.PLP.part.buried>
-6.6319

> <Gold.PLP.part.nonpolar>
-37.8652

> <Gold.PLP.part.repulsive>
0.3319

> <Gold.PLP.ligand.clash>
0.0000

> <Gold.PLP.ligand.torsion>
1.1661

> <Gold.PLP.Chemscore.Hbond>
1.0000

> <Gold.PLP.Chemscore.CHOScore>
0.0000

> <Gold.PLP.Chemscore.Metal>
0.0000

> <Gold.Chemscore.Hbonds>
donor molecule, donor type, donor heavy atom, donor atom, acceptor molecule, acceptor atom, score
      L1  H    10    31       P1  8028  1.00

> <Gold.PLP.Chemscore.Internal.Correction>
0.0448

> <Gold.Rescore>
     Score         DG    S(hbond)    S(metal)    S(lipo)     H(rot)  DE(clash)    DE(int)     intcor
     10.94     -12.12       0.39        0.00     107.87       2.85       0.04       1.14       ----

> <Gold.Chemscore.Fitness>
10.9360

> <Gold.Chemscore.DG>
-12.1187

> <Gold.Chemscore.ZeroCoef>
-5.4800

> <Gold.Chemscore.Hbond>
0.3898

> <Gold.Chemscore.Metal>
0.0000

> <Gold.Chemscore.Lipo>
107.8676

> <Gold.Chemscore.Internal_Hbond>
0.0000

> <Gold.Chemscore.DEClash>
0.0408

> <Gold.Chemscore.DEInternal>
1.1419

> <Gold.Chemscore.Rot>
2.8452

> <Gold.Chemscore.Internal.Correction>
   9.000000E+99

> <Gold.Chemscore.Hbonds>
donor molecule, donor type, donor heavy atom, donor atom, acceptor molecule, acceptor atom, score
      L1  H    10    31       P1  8028  0.44

> <Gold.Chemscore.Hbond.Weighted>
-1.3019

> <Gold.Chemscore.Metal.Weighted>
-0.0000

> <Gold.Chemscore.Lipo.Weighted>
-12.6205

> <Gold.Chemscore.Internal_Hbond.Weighted>
0.0000

> <Gold.Chemscore.DEClash.Weighted>
0.0408

> <Gold.Chemscore.DEInternal.Weighted>
1.1419

> <Gold.Chemscore.Rot.Weighted>
7.2837

> <Gold.Chemscore.Internal.Correction.Weighted>
   9.000000E+99

> <Gold.Protein.RotatedTorsions>
[ 6907 6896 6895 6894 ] final   23.20 input  -60.11 | X-H torsion
[ 7974 7965 7964 7962 ] final   15.14 input  175.53 | X-H torsion
[ 8008 7997 7996 7995 ] final  -66.78 input   59.86 | X-H torsion
[ 10167 10162 10161 10158 ] final  -35.00 input  -65.29 | X-H torsion
[ 10718 10713 10712 10709 ] final  111.52 input   66.30 | X-H torsion
[ 10763 10752 10751 10750 ] final  -36.78 input  -60.55 | X-H torsion
[ 11005 11000 10999 10996 ] final -120.66 input  -57.11 | X-H torsion

> <Gold.Protein.ActiveResidues>
 VAL166  LYS551  ARG553  GLY616  TRP617  ASP618  TYR619  PRO620  LYS621  CYS622 
 ASP623  PHE694  ASN695  SER759  ASP760  ASP761  ALA762  ILE779  LEU786  VAL792 
 PHE793  MET794  SER795  GLU796  ALA797  LYS798  CYS799  TRP800  GLU811  SER814 

> <Gold.Protein.RotatedAtoms>
  151.9388  135.0223  160.0534 H   0  0  0  0  0  0  0  0  0  0  0  0  # atno 6907 bound_to 6896
  152.2054  133.4867  159.5089 H   0  0  0  0  0  0  0  0  0  0  0  0  # atno 6908 bound_to 6896
  150.6964  134.1453  159.4163 H   0  0  0  0  0  0  0  0  0  0  0  0  # atno 6909 bound_to 6896
  146.2286  139.8938  142.8550 H   0  0  0  0  0  0  0  0  0  0  0  0  # atno 7974 bound_to 7965
  154.4757  140.0906  156.7255 H   0  0  0  0  0  0  0  0  0  0  0  0  # atno 8008 bound_to 7997
  155.4604  140.3461  155.4293 H   0  0  0  0  0  0  0  0  0  0  0  0  # atno 8009 bound_to 7997
  156.1112  140.1448  156.9324 H   0  0  0  0  0  0  0  0  0  0  0  0  # atno 8010 bound_to 7997
  140.7174  143.3508  151.2160 H   0  0  0  0  0  0  0  0  0  0  0  0  # atno 10167 bound_to 10162
  157.6440  131.0952  150.6760 H   0  0  0  0  0  0  0  0  0  0  0  0  # atno 10718 bound_to 10713
  153.8855  135.6817  153.4764 H   0  0  0  0  0  0  0  0  0  0  0  0  # atno 10763 bound_to 10752
  153.1210  135.4740  154.9193 H   0  0  0  0  0  0  0  0  0  0  0  0  # atno 10764 bound_to 10752
  154.7648  135.3221  154.8260 H   0  0  0  0  0  0  0  0  0  0  0  0  # atno 10765 bound_to 10752
  141.0127  134.0241  157.3392 H   0  0  0  0  0  0  0  0  0  0  0  0  # atno 11005 bound_to 11000
  145.2391  141.0002  143.3946 LP  0  0  0  0  0  0  0  0  0  0  0  0  # atno 17320 bound_to 7965
  144.9466  139.4129  143.6422 LP  0  0  0  0  0  0  0  0  0  0  0  0  # atno 17321 bound_to 7965
  139.7038  143.9489  152.2917 LP  0  0  0  0  0  0  0  0  0  0  0  0  # atno 17342 bound_to 10162
  139.9191  144.6810  150.8481 LP  0  0  0  0  0  0  0  0  0  0  0  0  # atno 17343 bound_to 10162
  156.7080  130.4643  149.5555 LP  0  0  0  0  0  0  0  0  0  0  0  0  # atno 17370 bound_to 10713
  156.1749  130.6461  151.0882 LP  0  0  0  0  0  0  0  0  0  0  0  0  # atno 17371 bound_to 10713
  139.9099  135.0188  156.7647 LP  0  0  0  0  0  0  0  0  0  0  0  0  # atno 17394 bound_to 11000
  140.6707  133.9562  155.7855 LP  0  0  0  0  0  0  0  0  0  0  0  0  # atno 17395 bound_to 11000

$$$$
