AV-unprocessed.smi:1774|AV-procd|sdf|7165|dock3
  -GOLD-   22720 8403D 1   1.00000     0.00000
 Structure written by MMmdl.
 45 46  0  0  0  0  0  0  0  0  1 V2000
  147.5091  133.0652  152.2637 C   0  0  0  0  0  0  0  0  0  0  0  0
  146.2806  133.1913  151.3773 C   0  0  0  0  0  0  0  0  0  0  0  0
  145.6993  132.0262  150.8336 C   0  0  0  0  0  0  0  0  0  0  0  0
  144.5631  132.1438  150.0150 C   0  0  0  0  0  0  0  0  0  0  0  0
  144.0529  133.4308  149.7733 C   0  0  0  0  0  0  0  0  0  0  0  0
  144.6021  134.5497  150.2881 N   0  0  0  0  0  0  0  0  0  0  0  0
  145.6998  134.4536  151.0801 C   0  0  0  0  0  0  0  0  0  0  0  0
  146.3296  135.5903  151.6612 N   0  0  0  0  0  0  0  0  0  0  0  0
  145.7688  136.5900  152.3643 C   0  0  0  0  0  0  0  0  0  0  0  0
  144.5652  136.7111  152.5948 O   0  0  0  0  0  0  0  0  0  0  0  0
  146.6976  137.4556  152.7972 N   0  0  0  0  0  0  0  0  0  0  0  0
  146.4403  138.6206  153.6386 C   0  0  0  0  0  0  0  0  0  0  0  0
  147.5383  139.6897  153.4727 C   0  0  0  0  0  0  0  0  0  0  0  0
  148.6895  139.5493  154.3635 N   0  0  0  0  0  0  0  0  0  0  0  0
  149.1943  140.8322  154.8417 C   0  0  0  0  0  0  0  0  0  0  0  0
  150.3689  140.6521  155.8195 C   0  0  2  0  0  0  0  0  0  0  0  0
  150.9612  141.9936  156.2626 C   0  0  0  0  0  0  0  0  0  0  0  0
  151.4012  139.8962  155.1877 O   0  0  0  0  0  0  0  0  0  0  0  0
  150.9924  138.6364  154.6514 C   0  0  1  0  0  0  0  0  0  0  0  0
  150.7546  137.5951  155.7586 C   0  0  0  0  0  0  0  0  0  0  0  0
  149.7777  138.8228  153.7204 C   0  0  0  0  0  0  0  0  0  0  0  0
  147.8066  132.0232  152.3845 H   0  0  0  0  0  0  0  0  0  0  0  0
  147.3085  133.4729  153.2548 H   0  0  0  0  0  0  0  0  0  0  0  0
  148.3503  133.6062  151.8295 H   0  0  0  0  0  0  0  0  0  0  0  0
  146.1163  131.0514  151.0399 H   0  0  0  0  0  0  0  0  0  0  0  0
  144.0952  131.2711  149.5844 H   0  0  0  0  0  0  0  0  0  0  0  0
  143.1807  133.5666  149.1510 H   0  0  0  0  0  0  0  0  0  0  0  0
  147.3309  135.6348  151.5443 H   0  0  0  0  0  0  0  0  0  0  0  0
  147.6613  137.2768  152.5558 H   0  0  0  0  0  0  0  0  0  0  0  0
  145.4869  139.0434  153.3217 H   0  0  0  0  0  0  0  0  0  0  0  0
  146.3028  138.3358  154.6820 H   0  0  0  0  0  0  0  0  0  0  0  0
  147.8816  139.6507  152.4378 H   0  0  0  0  0  0  0  0  0  0  0  0
  147.0990  140.6799  153.6008 H   0  0  0  0  0  0  0  0  0  0  0  0
  149.5117  141.4430  153.9947 H   0  0  0  0  0  0  0  0  0  0  0  0
  148.4053  141.3882  155.3461 H   0  0  0  0  0  0  0  0  0  0  0  0
  150.0227  140.1217  156.7071 H   0  0  0  0  0  0  0  0  0  0  0  0
  150.2114  142.6059  156.7640 H   0  0  0  0  0  0  0  0  0  0  0  0
  151.3409  142.5586  155.4107 H   0  0  0  0  0  0  0  0  0  0  0  0
  151.7871  141.8434  156.9585 H   0  0  0  0  0  0  0  0  0  0  0  0
  151.8256  138.2756  154.0479 H   0  0  0  0  0  0  0  0  0  0  0  0
  150.5519  136.6137  155.3295 H   0  0  0  0  0  0  0  0  0  0  0  0
  149.9055  137.8541  156.3909 H   0  0  0  0  0  0  0  0  0  0  0  0
  151.6321  137.5012  156.3986 H   0  0  0  0  0  0  0  0  0  0  0  0
  149.4274  137.8472  153.3811 H   0  0  0  0  0  0  0  0  0  0  0  0
  150.0952  139.3625  152.8267 H   0  0  0  0  0  0  0  0  0  0  0  0
  1  2  1  0  0  0  0
  1 22  1  0  0  0  0
  1 23  1  0  0  0  0
  1 24  1  0  0  0  0
  2  7  1  0  0  0  0
  2  3  2  0  0  0  0
  3  4  1  0  0  0  0
  3 25  1  0  0  0  0
  4  5  2  0  0  0  0
  4 26  1  0  0  0  0
  5  6  1  0  0  0  0
  5 27  1  0  0  0  0
  6  7  2  0  0  0  0
  7  8  1  0  0  0  0
  8  9  1  0  0  0  0
  8 28  1  0  0  0  0
  9 10  2  0  0  0  0
  9 11  1  0  0  0  0
 11 12  1  0  0  0  0
 11 29  1  0  0  0  0
 12 13  1  0  0  0  0
 12 30  1  0  0  0  0
 12 31  1  0  0  0  0
 13 14  1  0  0  0  0
 13 32  1  0  0  0  0
 13 33  1  0  0  0  0
 14 21  1  0  0  0  0
 14 15  1  0  0  0  0
 15 16  1  0  0  0  0
 15 34  1  0  0  0  0
 15 35  1  0  0  0  0
 16 17  1  0  0  0  0
 16 18  1  0  0  0  0
 16 36  1  0  0  0  0
 17 37  1  0  0  0  0
 17 38  1  0  0  0  0
 17 39  1  0  0  0  0
 18 19  1  0  0  0  0
 19 20  1  0  0  0  0
 19 21  1  0  0  0  0
 19 40  1  0  0  0  0
 20 41  1  0  0  0  0
 20 42  1  0  0  0  0
 20 43  1  0  0  0  0
 21 44  1  0  0  0  0
 21 45  1  0  0  0  0
M  END
> <s_m_source_file>
AV-unprocessed.smi

> <i_m_source_file_index>
1774

> <i_lp_mmshare_version>
43012

> <i_f3d_flags>
0

> <s_epik_input>
W0NIM11jMVtjSF1bY0hdW2NIXW5jMVtOSF1DKD1PKVtOSF1bQ0gyXVtDSDJdTjJbQ0gyXVtDQEBIXShbQ0gzXSlPW0NAQEhdKFtDSDNdKVtDSDJdMg==

> <s_epik_cmdline>
J2VwaWtfcHl0aG9uJywgJy1waCcsICc3LjAnLCAnLXRuJywgJzgnLCAnLW1hJywgJzIwMCcsICctbWV0YWxfYmluZGluZycsICctaW1hZScsICc8aW5maWxlLm1hZT4nLCAnLW9tYWUnLCAnPG91dGZpbGUubWFlPic=

> <r_epik_Ionization_Penalty>
0.266047

> <r_epik_Ionization_Penalty_Charging>
0

> <r_epik_Ionization_Penalty_Neutral>
0.266047

> <r_epik_State_Penalty>
0.257924

> <r_epik_Charging_Adjusted_Penalty>
0.257924

> <i_epik_Tot_Q>
0

> <i_epik_Tot_abs_Q>
0

> <r_epik_Metal_State_Penalty>
0.257922

> <b_epik_Metal_Only>
0

> <s_lp_Force_Field>
OPLS_2005

> <r_lp_Energy>
29.5878

> <b_lp_Chiralities_Consistent>
1

> <s_lp_Variant>
AV-unprocessed.smi:1774-2

> <Gold.Version>
5.8.1

> <Gold.Id.Protein>
6NUR|6NUR_protein|mol2

> <Gold.PLP.Fitness>
44.9064

> <Gold.PLP.PLP>
-35.6149

> <Gold.PLP.part.hbond>
-3.0000

> <Gold.PLP.part.metal>
0.0000

> <Gold.PLP.part.buried>
-3.4779

> <Gold.PLP.part.nonpolar>
-29.6107

> <Gold.PLP.part.repulsive>
0.6054

> <Gold.PLP.ligand.clash>
0.0000

> <Gold.PLP.ligand.torsion>
1.2903

> <Gold.PLP.Chemscore.Hbond>
2.9500

> <Gold.PLP.Chemscore.CHOScore>
1.0000

> <Gold.PLP.Chemscore.Metal>
0.0000

> <Gold.Chemscore.Hbonds>
donor molecule, donor type, donor heavy atom, donor atom, acceptor molecule, acceptor atom, score
      L1  H     8    28       P1  7948  1.00
      L1  H    11    29       P1  7948  1.00
      P1  H  7989  7998       L1    18  0.95
      L1  C     5    27       P1 10186  1.00

> <Gold.PLP.Chemscore.Internal.Correction>
0.0221

> <Gold.Rescore>
     Score         DG    S(hbond)    S(metal)    S(lipo)     H(rot)  DE(clash)    DE(int)     intcor
     17.47     -19.89       2.10        0.00      94.93       1.46       1.13       1.29       ----

> <Gold.Chemscore.Fitness>
17.4674

> <Gold.Chemscore.DG>
-19.8873

> <Gold.Chemscore.ZeroCoef>
-5.4800

> <Gold.Chemscore.Hbond>
2.1043

> <Gold.Chemscore.Metal>
0.0000

> <Gold.Chemscore.Lipo>
94.9289

> <Gold.Chemscore.Internal_Hbond>
0.0000

> <Gold.Chemscore.DEClash>
1.1326

> <Gold.Chemscore.DEInternal>
1.2873

> <Gold.Chemscore.Rot>
1.4562

> <Gold.Chemscore.Internal.Correction>
   9.000000E+99

> <Gold.Chemscore.Hbonds>
donor molecule, donor type, donor heavy atom, donor atom, acceptor molecule, acceptor atom, score
      L1  H     8    28       P1  7948  0.98
      L1  H    11    29       P1  7948  0.96
      P1  H  7989  7998       L1    18  0.07

> <Gold.Chemscore.Hbond.Weighted>
-7.0285

> <Gold.Chemscore.Metal.Weighted>
-0.0000

> <Gold.Chemscore.Lipo.Weighted>
-11.1067

> <Gold.Chemscore.Internal_Hbond.Weighted>
0.0000

> <Gold.Chemscore.DEClash.Weighted>
1.1326

> <Gold.Chemscore.DEInternal.Weighted>
1.2873

> <Gold.Chemscore.Rot.Weighted>
3.7278

> <Gold.Chemscore.Internal.Correction.Weighted>
   9.000000E+99

> <Gold.Protein.RotatedTorsions>
[ 6907 6896 6895 6894 ] final  -77.62 input  -60.11 | X-H torsion
[ 7974 7965 7964 7962 ] final  103.42 input  175.53 | X-H torsion
[ 8008 7997 7996 7995 ] final   59.16 input   59.86 | X-H torsion
[ 10167 10162 10161 10158 ] final  155.33 input  -65.29 | X-H torsion
[ 10718 10713 10712 10709 ] final -157.72 input   66.30 | X-H torsion
[ 10763 10752 10751 10750 ] final  138.72 input  -60.55 | X-H torsion
[ 11005 11000 10999 10996 ] final   85.64 input  -57.11 | X-H torsion

> <Gold.Protein.ActiveResidues>
 VAL166  LYS551  ARG553  GLY616  TRP617  ASP618  TYR619  PRO620  LYS621  CYS622 
 ASP623  PHE694  ASN695  SER759  ASP760  ASP761  ALA762  ILE779  LEU786  VAL792 
 PHE793  MET794  SER795  GLU796  ALA797  LYS798  CYS799  TRP800  GLU811  SER814 

> <Gold.Protein.RotatedAtoms>
  150.6994  134.4396  159.5285 H   0  0  0  0  0  0  0  0  0  0  0  0  # atno 6907 bound_to 6896
  152.2108  134.8500  160.0506 H   0  0  0  0  0  0  0  0  0  0  0  0  # atno 6908 bound_to 6896
  151.9386  133.3596  159.3994 H   0  0  0  0  0  0  0  0  0  0  0  0  # atno 6909 bound_to 6896
  145.3461  139.2450  143.3583 H   0  0  0  0  0  0  0  0  0  0  0  0  # atno 7974 bound_to 7965
  155.5618  140.3488  155.4493 H   0  0  0  0  0  0  0  0  0  0  0  0  # atno 8008 bound_to 7997
  156.0509  140.1317  157.0077 H   0  0  0  0  0  0  0  0  0  0  0  0  # atno 8009 bound_to 7997
  154.4434  140.1005  156.6360 H   0  0  0  0  0  0  0  0  0  0  0  0  # atno 8010 bound_to 7997
  139.4821  144.5108  151.8027 H   0  0  0  0  0  0  0  0  0  0  0  0  # atno 10167 bound_to 10162
  156.5442  130.8577  151.2759 H   0  0  0  0  0  0  0  0  0  0  0  0  # atno 10718 bound_to 10713
  153.8942  135.3029  155.3448 H   0  0  0  0  0  0  0  0  0  0  0  0  # atno 10763 bound_to 10752
  154.7701  135.4890  153.9636 H   0  0  0  0  0  0  0  0  0  0  0  0  # atno 10764 bound_to 10752
  153.1280  135.6797  153.9323 H   0  0  0  0  0  0  0  0  0  0  0  0  # atno 10765 bound_to 10752
  139.8966  134.8300  156.2610 H   0  0  0  0  0  0  0  0  0  0  0  0  # atno 11005 bound_to 11000
  146.2987  140.4068  142.8712 LP  0  0  0  0  0  0  0  0  0  0  0  0  # atno 17320 bound_to 7965
  144.8753  140.7327  143.6021 LP  0  0  0  0  0  0  0  0  0  0  0  0  # atno 17321 bound_to 7965
  140.4611  144.1721  150.5906 LP  0  0  0  0  0  0  0  0  0  0  0  0  # atno 17342 bound_to 10162
  140.4484  143.2497  151.9381 LP  0  0  0  0  0  0  0  0  0  0  0  0  # atno 17343 bound_to 10162
  157.7399  130.9841  150.2347 LP  0  0  0  0  0  0  0  0  0  0  0  0  # atno 17370 bound_to 10713
  156.2943  130.3750  149.7811 LP  0  0  0  0  0  0  0  0  0  0  0  0  # atno 17371 bound_to 10713
  141.0163  133.7067  156.1193 LP  0  0  0  0  0  0  0  0  0  0  0  0  # atno 17394 bound_to 11000
  140.7297  134.4268  157.5567 LP  0  0  0  0  0  0  0  0  0  0  0  0  # atno 17395 bound_to 11000

$$$$
