AV-unprocessed.smi:2467|AV-procd|sdf|9728|dock3
  -GOLD-   2272013373D 1   1.00000     0.00000
 Structure written by MMmdl.
 46 47  0  0  0  0  0  0  0  0  1 V2000
  151.1685  136.9265  155.3963 C   0  0  0  0  0  0  0  0  0  0  0  0
  151.5625  138.0864  154.4686 C   0  0  0  0  0  0  0  0  0  0  0  0
  150.6215  139.3194  154.5198 C   0  0  0  0  0  0  0  0  0  0  0  0
  150.6571  139.9631  155.9328 C   0  0  0  0  0  0  0  0  0  0  0  0
  150.0043  141.3458  156.0602 C   0  0  0  0  0  0  0  0  0  0  0  0
  149.1677  138.9633  154.0859 C   0  0  1  0  0  0  0  0  0  0  0  0
  148.4173  138.0972  155.1293 C   0  0  0  0  0  0  0  0  0  0  0  0
  147.0046  137.7320  154.6476 C   0  0  2  0  0  0  0  0  0  0  0  0
  147.0963  136.7874  153.5381 N   0  0  0  0  0  0  0  0  0  0  0  0
  146.1471  135.9295  153.1346 C   0  0  0  0  0  0  0  0  0  0  0  0
  145.0456  135.8527  153.6760 O   0  0  0  0  0  0  0  0  0  0  0  0
  146.4680  135.1436  152.0837 N   0  0  0  0  0  0  0  0  0  0  0  0
  145.7261  134.1357  151.3961 C   0  0  0  0  0  0  0  0  0  0  0  0
  146.5169  133.2303  150.6524 C   0  0  0  0  0  0  0  0  0  0  0  0
  145.8955  132.1934  149.9296 C   0  0  0  0  0  0  0  0  0  0  0  0
  144.4941  132.0856  149.9669 C   0  0  0  0  0  0  0  0  0  0  0  0
  143.7783  133.0254  150.7297 C   0  0  0  0  0  0  0  0  0  0  0  0
  144.3732  134.0189  151.4227 N   0  0  0  0  0  0  0  0  0  0  0  0
  146.2569  139.0140  154.2432 C   0  0  0  0  0  0  0  0  0  0  0  0
  147.1068  139.8796  153.2988 C   0  0  0  0  0  0  0  0  0  0  0  0
  148.3778  140.1371  153.8885 O   0  0  0  0  0  0  0  0  0  0  0  0
  151.9526  136.1694  155.4140 H   0  0  0  0  0  0  0  0  0  0  0  0
  150.2557  136.4308  155.0680 H   0  0  0  0  0  0  0  0  0  0  0  0
  151.0209  137.2712  156.4200 H   0  0  0  0  0  0  0  0  0  0  0  0
  152.5679  138.3845  154.7663 H   0  0  0  0  0  0  0  0  0  0  0  0
  151.6444  137.7224  153.4436 H   0  0  0  0  0  0  0  0  0  0  0  0
  151.0192  140.0417  153.8054 H   0  0  0  0  0  0  0  0  0  0  0  0
  150.1951  139.2876  156.6539 H   0  0  0  0  0  0  0  0  0  0  0  0
  151.6915  140.0788  156.2523 H   0  0  0  0  0  0  0  0  0  0  0  0
  150.1845  141.7631  157.0509 H   0  0  0  0  0  0  0  0  0  0  0  0
  148.9237  141.2951  155.9289 H   0  0  0  0  0  0  0  0  0  0  0  0
  150.4108  142.0454  155.3296 H   0  0  0  0  0  0  0  0  0  0  0  0
  149.2221  138.4422  153.1285 H   0  0  0  0  0  0  0  0  0  0  0  0
  148.9637  137.1880  155.3715 H   0  0  0  0  0  0  0  0  0  0  0  0
  148.3412  138.6535  156.0645 H   0  0  0  0  0  0  0  0  0  0  0  0
  146.4706  137.2477  155.4670 H   0  0  0  0  0  0  0  0  0  0  0  0
  147.9690  136.7790  153.0287 H   0  0  0  0  0  0  0  0  0  0  0  0
  147.3947  135.3013  151.7150 H   0  0  0  0  0  0  0  0  0  0  0  0
  147.5931  133.3256  150.6331 H   0  0  0  0  0  0  0  0  0  0  0  0
  146.4850  131.4930  149.3566 H   0  0  0  0  0  0  0  0  0  0  0  0
  143.9816  131.3040  149.4260 H   0  0  0  0  0  0  0  0  0  0  0  0
  142.7007  132.9804  150.7864 H   0  0  0  0  0  0  0  0  0  0  0  0
  145.2962  138.7789  153.7837 H   0  0  0  0  0  0  0  0  0  0  0  0
  146.0320  139.5911  155.1408 H   0  0  0  0  0  0  0  0  0  0  0  0
  147.2316  139.3964  152.3286 H   0  0  0  0  0  0  0  0  0  0  0  0
  146.6065  140.8303  153.1149 H   0  0  0  0  0  0  0  0  0  0  0  0
  1  2  1  0  0  0  0
  1 22  1  0  0  0  0
  1 23  1  0  0  0  0
  1 24  1  0  0  0  0
  2  3  1  0  0  0  0
  2 25  1  0  0  0  0
  2 26  1  0  0  0  0
  3  4  1  0  0  0  0
  3  6  1  0  0  0  0
  3 27  1  0  0  0  0
  4  5  1  0  0  0  0
  4 28  1  0  0  0  0
  4 29  1  0  0  0  0
  5 30  1  0  0  0  0
  5 31  1  0  0  0  0
  5 32  1  0  0  0  0
  6 21  1  0  0  0  0
  6  7  1  0  0  0  0
  6 33  1  0  0  0  0
  7  8  1  0  0  0  0
  7 34  1  0  0  0  0
  7 35  1  0  0  0  0
  8  9  1  0  0  0  0
  8 19  1  0  0  0  0
  8 36  1  0  0  0  0
  9 10  1  0  0  0  0
  9 37  1  0  0  0  0
 10 11  2  0  0  0  0
 10 12  1  0  0  0  0
 12 13  1  0  0  0  0
 12 38  1  0  0  0  0
 13 18  1  0  0  0  0
 13 14  2  0  0  0  0
 14 15  1  0  0  0  0
 14 39  1  0  0  0  0
 15 16  2  0  0  0  0
 15 40  1  0  0  0  0
 16 17  1  0  0  0  0
 16 41  1  0  0  0  0
 17 18  2  0  0  0  0
 17 42  1  0  0  0  0
 19 20  1  0  0  0  0
 19 43  1  0  0  0  0
 19 44  1  0  0  0  0
 20 21  1  0  0  0  0
 20 45  1  0  0  0  0
 20 46  1  0  0  0  0
M  END
> <s_m_source_file>
AV-unprocessed.smi

> <i_m_source_file_index>
2467

> <i_lp_mmshare_version>
43012

> <i_f3d_flags>
0

> <s_epik_input>
W0NIM11bQ0gyXVtDSF0oW0NIMl1bQ0gzXSlbQ0BASF0xW0NIMl1bQ0BIXShbQ0gyXVtDSDJdTzEpW05IXUMoPU8pW05IXWMyW2NIXVtjSF1bY0hdW2NIXW4y

> <s_epik_cmdline>
J2VwaWtfcHl0aG9uJywgJy1waCcsICc3LjAnLCAnLXRuJywgJzgnLCAnLW1hJywgJzIwMCcsICctbWV0YWxfYmluZGluZycsICctaW1hZScsICc8aW5maWxlLm1hZT4nLCAnLW9tYWUnLCAnPG91dGZpbGUubWFlPic=

> <r_lp_tautomer_probability>
1

> <r_epik_Ionization_Penalty>
4.80427e-05

> <r_epik_Ionization_Penalty_Charging>
0

> <r_epik_Ionization_Penalty_Neutral>
4.80427e-05

> <r_epik_State_Penalty>
-0

> <r_epik_Charging_Adjusted_Penalty>
0

> <i_epik_Tot_Q>
0

> <i_epik_Tot_abs_Q>
0

> <r_epik_Metal_State_Penalty>
-0

> <b_epik_Metal_Only>
0

> <s_lp_Force_Field>
OPLS_2005

> <r_lp_Energy>
20.8854

> <b_lp_Chiralities_Consistent>
1

> <s_lp_Variant>
AV-unprocessed.smi:2467-4

> <Gold.Version>
5.8.1

> <Gold.Id.Protein>
6NUR|6NUR_protein|mol2

> <Gold.PLP.Fitness>
43.0081

> <Gold.PLP.PLP>
-35.0956

> <Gold.PLP.part.hbond>
-2.0000

> <Gold.PLP.part.metal>
0.0000

> <Gold.PLP.part.buried>
-3.4444

> <Gold.PLP.part.nonpolar>
-30.7229

> <Gold.PLP.part.repulsive>
1.1949

> <Gold.PLP.ligand.clash>
0.0000

> <Gold.PLP.ligand.torsion>
0.5422

> <Gold.PLP.Chemscore.Hbond>
1.9920

> <Gold.PLP.Chemscore.CHOScore>
0.9924

> <Gold.PLP.Chemscore.Metal>
0.0000

> <Gold.Chemscore.Hbonds>
donor molecule, donor type, donor heavy atom, donor atom, acceptor molecule, acceptor atom, score
      L1  H     9    37       P1  7948  1.00
      L1  H    12    38       P1  7948  0.98
      L1  C    17    42       P1 10186  0.95

> <Gold.PLP.Chemscore.Internal.Correction>
0.0435

> <Gold.Rescore>
     Score         DG    S(hbond)    S(metal)    S(lipo)     H(rot)  DE(clash)    DE(int)     intcor
     16.46     -18.61       1.93        0.00      89.54       1.49       0.25       1.91       ----

> <Gold.Chemscore.Fitness>
16.4557

> <Gold.Chemscore.DG>
-18.6130

> <Gold.Chemscore.ZeroCoef>
-5.4800

> <Gold.Chemscore.Hbond>
1.9342

> <Gold.Chemscore.Metal>
0.0000

> <Gold.Chemscore.Lipo>
89.5385

> <Gold.Chemscore.Internal_Hbond>
0.0000

> <Gold.Chemscore.DEClash>
0.2507

> <Gold.Chemscore.DEInternal>
1.9066

> <Gold.Chemscore.Rot>
1.4856

> <Gold.Chemscore.Internal.Correction>
   9.000000E+99

> <Gold.Chemscore.Hbonds>
donor molecule, donor type, donor heavy atom, donor atom, acceptor molecule, acceptor atom, score
      L1  H     9    37       P1  7948  0.96
      L1  H    12    38       P1  7948  0.89

> <Gold.Chemscore.Hbond.Weighted>
-6.4601

> <Gold.Chemscore.Metal.Weighted>
-0.0000

> <Gold.Chemscore.Lipo.Weighted>
-10.4760

> <Gold.Chemscore.Internal_Hbond.Weighted>
0.0000

> <Gold.Chemscore.DEClash.Weighted>
0.2507

> <Gold.Chemscore.DEInternal.Weighted>
1.9066

> <Gold.Chemscore.Rot.Weighted>
3.8031

> <Gold.Chemscore.Internal.Correction.Weighted>
   9.000000E+99

> <Gold.Protein.RotatedTorsions>
[ 6907 6896 6895 6894 ] final  -14.17 input  -60.11 | X-H torsion
[ 7974 7965 7964 7962 ] final -118.34 input  175.53 | X-H torsion
[ 8008 7997 7996 7995 ] final -173.57 input   59.86 | X-H torsion
[ 10167 10162 10161 10158 ] final  -52.89 input  -65.29 | X-H torsion
[ 10718 10713 10712 10709 ] final  116.84 input   66.30 | X-H torsion
[ 10763 10752 10751 10750 ] final  -54.76 input  -60.55 | X-H torsion
[ 11005 11000 10999 10996 ] final   61.83 input  -57.11 | X-H torsion

> <Gold.Protein.ActiveResidues>
 VAL166  LYS551  ARG553  GLY616  TRP617  ASP618  TYR619  PRO620  LYS621  CYS622 
 ASP623  PHE694  ASN695  SER759  ASP760  ASP761  ALA762  ILE779  LEU786  VAL792 
 PHE793  MET794  SER795  GLU796  ALA797  LYS798  CYS799  TRP800  GLU811  SER814 

> <Gold.Protein.RotatedAtoms>
  151.3436  135.0869  159.9378 H   0  0  0  0  0  0  0  0  0  0  0  0  # atno 6907 bound_to 6896
  152.5205  133.9423  159.7642 H   0  0  0  0  0  0  0  0  0  0  0  0  # atno 6908 bound_to 6896
  150.9784  133.6217  159.2756 H   0  0  0  0  0  0  0  0  0  0  0  0  # atno 6909 bound_to 6896
  145.0749  140.8385  143.4073 H   0  0  0  0  0  0  0  0  0  0  0  0  # atno 7974 bound_to 7965
  155.9591  140.1141  157.0911 H   0  0  0  0  0  0  0  0  0  0  0  0  # atno 8008 bound_to 7997
  154.4127  140.1185  156.5222 H   0  0  0  0  0  0  0  0  0  0  0  0  # atno 8009 bound_to 7997
  155.6743  140.3473  155.4833 H   0  0  0  0  0  0  0  0  0  0  0  0  # atno 8010 bound_to 7997
  140.6514  143.2568  151.4713 H   0  0  0  0  0  0  0  0  0  0  0  0  # atno 10167 bound_to 10162
  157.6135  131.1030  150.7530 H   0  0  0  0  0  0  0  0  0  0  0  0  # atno 10718 bound_to 10713
  154.1800  135.6445  153.5031 H   0  0  0  0  0  0  0  0  0  0  0  0  # atno 10763 bound_to 10752
  153.0062  135.5403  154.6524 H   0  0  0  0  0  0  0  0  0  0  0  0  # atno 10764 bound_to 10752
  154.5886  135.2932  155.0632 H   0  0  0  0  0  0  0  0  0  0  0  0  # atno 10765 bound_to 10752
  140.0134  134.6262  155.9746 H   0  0  0  0  0  0  0  0  0  0  0  0  # atno 11005 bound_to 11000
  145.1247  139.2670  143.5570 LP  0  0  0  0  0  0  0  0  0  0  0  0  # atno 17320 bound_to 7965
  146.3530  140.0881  142.8614 LP  0  0  0  0  0  0  0  0  0  0  0  0  # atno 17321 bound_to 7965
  139.5729  144.1886  152.1862 LP  0  0  0  0  0  0  0  0  0  0  0  0  # atno 17342 bound_to 10162
  140.1188  144.5392  150.6877 LP  0  0  0  0  0  0  0  0  0  0  0  0  # atno 17343 bound_to 10162
  156.7902  130.4887  149.5386 LP  0  0  0  0  0  0  0  0  0  0  0  0  # atno 17370 bound_to 10713
  156.1247  130.6135  151.0246 LP  0  0  0  0  0  0  0  0  0  0  0  0  # atno 17371 bound_to 10713
  141.1726  133.6538  156.4709 LP  0  0  0  0  0  0  0  0  0  0  0  0  # atno 17394 bound_to 11000
  140.4514  134.6925  157.5041 LP  0  0  0  0  0  0  0  0  0  0  0  0  # atno 17395 bound_to 11000

$$$$
