AV-unprocessed.smi:2845|AV-procd|sdf|10944|dock2
  -GOLD-   2272015393D 1   1.00000     0.00000
 Structure written by MMmdl.
 42 44  0  0  0  0  0  0  0  0  1 V2000
  152.9558  142.8581  161.3916 C   0  0  0  0  0  0  0  0  0  0  0  0
  152.3746  142.5269  160.0285 C   0  0  0  0  0  0  0  0  0  0  0  0
  152.7789  141.3381  159.3788 C   0  0  0  0  0  0  0  0  0  0  0  0
  152.2622  140.9940  158.1102 C   0  0  0  0  0  0  0  0  0  0  0  0
  152.5121  139.8982  157.3006 N   0  0  0  0  0  0  0  0  0  0  0  0
  151.7287  140.1511  156.2552 C   0  0  0  0  0  0  0  0  0  0  0  0
  151.0030  141.2850  156.2922 N   0  0  0  0  0  0  0  0  0  0  0  0
  150.0800  141.7827  155.2915 C   0  0  0  0  0  0  0  0  0  0  0  0
  149.1730  140.6627  154.7380 C   0  0  1  0  0  0  0  0  0  0  0  0
  149.9069  139.8726  153.8248 O   0  0  0  0  0  0  0  0  0  0  0  0
  148.5782  139.7511  155.8308 C   0  0  0  0  0  0  0  0  0  0  0  0
  147.5513  140.4155  156.6158 N   0  0  0  0  0  0  0  0  0  0  0  0
  146.2694  140.0971  156.8192 C   0  0  0  0  0  0  0  0  0  0  0  0
  145.6249  140.9368  157.6199 N   0  0  0  0  0  0  0  0  0  0  0  0
  146.6416  141.8112  157.8731 C   0  0  0  0  0  0  0  0  0  0  0  0
  146.4267  143.2245  159.0000 S   0  0  1  0  0  0  0  0  0  0  0  0
  144.5757  143.2705  158.8877 C   0  0  0  0  0  0  0  0  0  0  0  0
  146.7743  142.7152  160.4006 O   0  0  0  0  0  0  0  0  0  0  0  0
  147.8086  141.5660  157.2831 N   0  0  0  0  0  0  0  0  0  0  0  0
  151.3226  141.8791  157.5070 C   0  0  0  0  0  0  0  0  0  0  0  0
  150.9129  143.0644  158.1421 C   0  0  0  0  0  0  0  0  0  0  0  0
  151.4390  143.3936  159.4079 C   0  0  0  0  0  0  0  0  0  0  0  0
  150.9909  144.6780  160.0826 C   0  0  0  0  0  0  0  0  0  0  0  0
  153.6664  142.0980  161.7172 H   0  0  0  0  0  0  0  0  0  0  0  0
  152.1646  142.9187  162.1392 H   0  0  0  0  0  0  0  0  0  0  0  0
  153.4793  143.8140  161.3622 H   0  0  0  0  0  0  0  0  0  0  0  0
  153.4919  140.6785  159.8511 H   0  0  0  0  0  0  0  0  0  0  0  0
  151.6803  139.4752  155.4140 H   0  0  0  0  0  0  0  0  0  0  0  0
  149.4849  142.5913  155.7184 H   0  0  0  0  0  0  0  0  0  0  0  0
  150.6799  142.2288  154.4982 H   0  0  0  0  0  0  0  0  0  0  0  0
  148.3494  141.1103  154.1797 H   0  0  0  0  0  0  0  0  0  0  0  0
  149.4959  139.9369  152.9760 H   0  0  0  0  0  0  0  0  0  0  0  0
  148.1388  138.8583  155.3840 H   0  0  0  0  0  0  0  0  0  0  0  0
  149.3641  139.4126  156.5077 H   0  0  0  0  0  0  0  0  0  0  0  0
  145.8027  139.2243  156.3861 H   0  0  0  0  0  0  0  0  0  0  0  0
  144.2641  143.9800  158.1213 H   0  0  0  0  0  0  0  0  0  0  0  0
  144.1501  143.5823  159.8412 H   0  0  0  0  0  0  0  0  0  0  0  0
  144.1714  142.2895  158.6373 H   0  0  0  0  0  0  0  0  0  0  0  0
  150.2020  143.7167  157.6570 H   0  0  0  0  0  0  0  0  0  0  0  0
  150.2711  145.2192  159.4682 H   0  0  0  0  0  0  0  0  0  0  0  0
  151.8424  145.3362  160.2558 H   0  0  0  0  0  0  0  0  0  0  0  0
  150.5177  144.4622  161.0406 H   0  0  0  0  0  0  0  0  0  0  0  0
  1  2  1  0  0  0  0
  1 24  1  0  0  0  0
  1 25  1  0  0  0  0
  1 26  1  0  0  0  0
  2 22  1  0  0  0  0
  2  3  2  0  0  0  0
  3  4  1  0  0  0  0
  3 27  1  0  0  0  0
  4 20  2  0  0  0  0
  4  5  1  0  0  0  0
  5  6  2  0  0  0  0
  6  7  1  0  0  0  0
  6 28  1  0  0  0  0
  7  8  1  0  0  0  0
  7 20  1  0  0  0  0
  8  9  1  0  0  0  0
  8 29  1  0  0  0  0
  8 30  1  0  0  0  0
  9 10  1  0  0  0  0
  9 11  1  0  0  0  0
  9 31  1  0  0  0  0
 10 32  1  0  0  0  0
 11 12  1  0  0  0  0
 11 33  1  0  0  0  0
 11 34  1  0  0  0  0
 12 19  1  0  0  0  0
 12 13  1  0  0  0  0
 13 14  2  0  0  0  0
 13 35  1  0  0  0  0
 14 15  1  0  0  0  0
 15 16  1  0  0  0  0
 15 19  2  0  0  0  0
 16 17  1  0  0  0  0
 16 18  2  0  0  0  0
 17 36  1  0  0  0  0
 17 37  1  0  0  0  0
 17 38  1  0  0  0  0
 20 21  1  0  0  0  0
 21 22  2  0  0  0  0
 21 39  1  0  0  0  0
 22 23  1  0  0  0  0
 23 40  1  0  0  0  0
 23 41  1  0  0  0  0
 23 42  1  0  0  0  0
M  END
> <s_m_source_file>
AV-unprocessed.smi

> <i_m_source_file_index>
2845

> <i_lp_mmshare_version>
43012

> <i_f3d_flags>
0

> <s_epik_input>
W0NIM11jKFtjSF0xKWMoW0NIM10pW2NIXWMoYzEyKW4oW2NIXW4yKVtDSDJdW0NASF0oW09IXSlbQ0gyXW4zW2NIXW5jKG4zKVtTQF0oPU8pW0NIM10=

> <s_epik_cmdline>
J2VwaWtfcHl0aG9uJywgJy1waCcsICc3LjAnLCAnLXRuJywgJzgnLCAnLW1hJywgJzIwMCcsICctbWV0YWxfYmluZGluZycsICctaW1hZScsICc8aW5maWxlLm1hZT4nLCAnLW9tYWUnLCAnPG91dGZpbGUubWFlPic=

> <r_lp_tautomer_probability>
1

> <r_epik_Ionization_Penalty>
0.0968684

> <r_epik_Ionization_Penalty_Charging>
0

> <r_epik_Ionization_Penalty_Neutral>
0.0968684

> <r_epik_State_Penalty>
0.0870047

> <r_epik_Charging_Adjusted_Penalty>
0.0870047

> <i_epik_Tot_Q>
0

> <i_epik_Tot_abs_Q>
0

> <r_epik_Metal_State_Penalty>
0.0746849

> <b_epik_Metal_Only>
0

> <s_lp_Force_Field>
OPLS_2005

> <r_lp_Energy>
8.02323

> <b_lp_Chiralities_Consistent>
1

> <s_lp_Variant>
AV-unprocessed.smi:2845-2

> <Gold.Version>
5.8.1

> <Gold.Id.Protein>
6NUR|6NUR_protein|mol2

> <Gold.PLP.Fitness>
52.3691

> <Gold.PLP.PLP>
-39.8441

> <Gold.PLP.part.hbond>
-5.0000

> <Gold.PLP.part.metal>
0.0000

> <Gold.PLP.part.buried>
-5.0656

> <Gold.PLP.part.nonpolar>
-29.4621

> <Gold.PLP.part.repulsive>
0.1363

> <Gold.PLP.ligand.clash>
0.0000

> <Gold.PLP.ligand.torsion>
1.2617

> <Gold.PLP.Chemscore.Hbond>
4.6640

> <Gold.PLP.Chemscore.CHOScore>
0.0000

> <Gold.PLP.Chemscore.Metal>
0.0000

> <Gold.Chemscore.Hbonds>
donor molecule, donor type, donor heavy atom, donor atom, acceptor molecule, acceptor atom, score
      L1  H    10    32       P1  7957  1.00
      P1  H  6933  6944       L1    18  0.81
      P1  H  6934  6946       L1    18  0.96
      P1  H  7989  7998       L1    10  0.85
      P1  H  7997  8009       L1     5  1.00

> <Gold.PLP.Chemscore.Internal.Correction>
1.0563

> <Gold.Rescore>
     Score         DG    S(hbond)    S(metal)    S(lipo)     H(rot)  DE(clash)    DE(int)     intcor
     17.75     -21.26       3.41        0.00      97.00       2.71       0.72       2.80       ----

> <Gold.Chemscore.Fitness>
17.7458

> <Gold.Chemscore.DG>
-21.2625

> <Gold.Chemscore.ZeroCoef>
-5.4800

> <Gold.Chemscore.Hbond>
3.4051

> <Gold.Chemscore.Metal>
0.0000

> <Gold.Chemscore.Lipo>
96.9999

> <Gold.Chemscore.Internal_Hbond>
0.0000

> <Gold.Chemscore.DEClash>
0.7173

> <Gold.Chemscore.DEInternal>
2.7993

> <Gold.Chemscore.Rot>
2.7108

> <Gold.Chemscore.Internal.Correction>
   9.000000E+99

> <Gold.Chemscore.Hbonds>
donor molecule, donor type, donor heavy atom, donor atom, acceptor molecule, acceptor atom, score
      L1  H    10    32       P1  7957  0.94
      P1  H  6933  6944       L1    18  0.75
      P1  H  6934  6946       L1    18  0.90
      P1  H  7989  7998       L1    10  0.11
      P1  H  7997  8009       L1     5  0.35

> <Gold.Chemscore.Hbond.Weighted>
-11.3731

> <Gold.Chemscore.Metal.Weighted>
-0.0000

> <Gold.Chemscore.Lipo.Weighted>
-11.3490

> <Gold.Chemscore.Internal_Hbond.Weighted>
0.0000

> <Gold.Chemscore.DEClash.Weighted>
0.7173

> <Gold.Chemscore.DEInternal.Weighted>
2.7993

> <Gold.Chemscore.Rot.Weighted>
6.9396

> <Gold.Chemscore.Internal.Correction.Weighted>
   9.000000E+99

> <Gold.Protein.RotatedTorsions>
[ 6907 6896 6895 6894 ] final  -37.52 input  -60.11 | X-H torsion
[ 7974 7965 7964 7962 ] final   77.67 input  175.53 | X-H torsion
[ 8008 7997 7996 7995 ] final  175.58 input   59.86 | X-H torsion
[ 10167 10162 10161 10158 ] final -109.99 input  -65.29 | X-H torsion
[ 10718 10713 10712 10709 ] final   81.57 input   66.30 | X-H torsion
[ 10763 10752 10751 10750 ] final -131.99 input  -60.55 | X-H torsion
[ 11005 11000 10999 10996 ] final   32.21 input  -57.11 | X-H torsion

> <Gold.Protein.ActiveResidues>
 VAL166  LYS551  ARG553  GLY616  TRP617  ASP618  TYR619  PRO620  LYS621  CYS622 
 ASP623  PHE694  ASN695  SER759  ASP760  ASP761  ALA762  ILE779  LEU786  VAL792 
 PHE793  MET794  SER795  GLU796  ALA797  LYS798  CYS799  TRP800  GLU811  SER814 

> <Gold.Protein.RotatedAtoms>
  151.0137  134.9416  159.8020 H   0  0  0  0  0  0  0  0  0  0  0  0  # atno 6907 bound_to 6896
  152.5308  134.2995  159.9083 H   0  0  0  0  0  0  0  0  0  0  0  0  # atno 6908 bound_to 6896
  151.3001  133.4084  159.2673 H   0  0  0  0  0  0  0  0  0  0  0  0  # atno 6909 bound_to 6896
  145.6870  139.2541  143.1781 H   0  0  0  0  0  0  0  0  0  0  0  0  # atno 7974 bound_to 7965
  156.0856  140.1405  156.9658 H   0  0  0  0  0  0  0  0  0  0  0  0  # atno 8008 bound_to 7997
  154.4610  140.0943  156.6942 H   0  0  0  0  0  0  0  0  0  0  0  0  # atno 8009 bound_to 7997
  155.5005  140.3451  155.4372 H   0  0  0  0  0  0  0  0  0  0  0  0  # atno 8010 bound_to 7997
  140.1493  143.4212  152.1506 H   0  0  0  0  0  0  0  0  0  0  0  0  # atno 10167 bound_to 10162
  157.6836  131.0009  150.2246 H   0  0  0  0  0  0  0  0  0  0  0  0  # atno 10718 bound_to 10713
  154.8747  135.3812  154.4337 H   0  0  0  0  0  0  0  0  0  0  0  0  # atno 10763 bound_to 10752
  153.5028  135.7030  153.5827 H   0  0  0  0  0  0  0  0  0  0  0  0  # atno 10764 bound_to 10752
  153.4152  135.3915  155.2042 H   0  0  0  0  0  0  0  0  0  0  0  0  # atno 10765 bound_to 10752
  140.2759  134.3029  155.7814 H   0  0  0  0  0  0  0  0  0  0  0  0  # atno 11005 bound_to 11000
  146.0915  140.7650  142.9593 LP  0  0  0  0  0  0  0  0  0  0  0  0  # atno 17320 bound_to 7965
  144.7008  140.3644  143.7157 LP  0  0  0  0  0  0  0  0  0  0  0  0  # atno 17321 bound_to 7965
  139.5433  144.7276  151.4662 LP  0  0  0  0  0  0  0  0  0  0  0  0  # atno 17342 bound_to 10162
  140.6712  143.8289  150.7002 LP  0  0  0  0  0  0  0  0  0  0  0  0  # atno 17343 bound_to 10162
  156.2890  130.3743  149.7860 LP  0  0  0  0  0  0  0  0  0  0  0  0  # atno 17370 bound_to 10713
  156.5525  130.8348  151.3304 LP  0  0  0  0  0  0  0  0  0  0  0  0  # atno 17371 bound_to 10713
  141.2170  133.7495  156.9406 LP  0  0  0  0  0  0  0  0  0  0  0  0  # atno 17394 bound_to 11000
  140.1329  134.9344  157.2362 LP  0  0  0  0  0  0  0  0  0  0  0  0  # atno 17395 bound_to 11000

$$$$
