AV-unprocessed.smi:1679|AV-procd|sdf|6733|dock1
  -GOLD-   22720 7483D 1   1.00000     0.00000
 Structure written by MMmdl.
 44 45  0  0  0  0  0  0  0  0  2 V2000
  154.9464  140.6494  160.9686 C   0  0  0  0  0  0  0  0  0  0  0  0
  154.0500  141.3436  159.9305 C   0  0  2  0  0  0  0  0  0  0  0  0
  153.3039  142.5356  160.5640 C   0  0  0  0  0  0  0  0  0  0  0  0
  152.3946  143.2452  159.5485 C   0  0  0  0  0  0  0  0  0  0  0  0
  151.3993  142.2612  158.9191 C   0  0  0  0  0  0  0  0  0  0  0  0
  152.1349  141.0776  158.2768 C   0  0  0  0  0  0  0  0  0  0  0  0
  153.0525  140.3555  159.2853 C   0  0  1  0  0  0  0  0  0  0  0  0
  153.7970  139.3699  158.5833 O   0  0  0  0  0  0  0  0  0  0  0  0
  153.0053  138.4061  157.9039 C   0  0  0  0  0  0  0  0  0  0  0  0
  152.3552  137.4913  158.9458 C   0  0  0  0  0  0  0  0  0  0  0  0
  151.1627  136.8813  158.3770 N   0  0  0  0  0  0  0  0  0  0  0  0
  151.1397  135.8015  157.5816 C   0  0  0  0  0  0  0  0  0  0  0  0
  152.1602  135.2047  157.2398 O   0  0  0  0  0  0  0  0  0  0  0  0
  149.7709  135.2933  157.0954 C   0  0  0  0  0  0  0  0  0  0  0  0
  149.7621  133.8953  156.6240 N   0  0  0  0  0  0  0  0  0  0  0  0
  149.2888  133.6521  155.3223 C   0  0  0  0  0  0  0  0  0  0  0  0
  149.2529  132.4119  154.7987 C   0  0  0  0  0  0  0  0  0  0  0  0
  149.7192  131.3021  155.6204 C   0  0  0  0  0  0  0  0  0  0  0  0
  149.6987  130.1635  155.1572 O   0  0  0  0  0  0  0  0  0  0  0  0
  150.1675  131.5884  156.8777 N   0  5  0  0  0  0  0  0  0  0  0  0
  150.2084  132.8563  157.3932 C   0  0  0  0  0  0  0  0  0  0  0  0
  150.6378  133.0946  158.5220 O   0  0  0  0  0  0  0  0  0  0  0  0
  154.3561  140.2236  161.7805 H   0  0  0  0  0  0  0  0  0  0  0  0
  155.6565  141.3519  161.4058 H   0  0  0  0  0  0  0  0  0  0  0  0
  155.5229  139.8414  160.5174 H   0  0  0  0  0  0  0  0  0  0  0  0
  154.6957  141.7355  159.1428 H   0  0  0  0  0  0  0  0  0  0  0  0
  152.7036  142.1885  161.4062 H   0  0  0  0  0  0  0  0  0  0  0  0
  154.0205  143.2504  160.9705 H   0  0  0  0  0  0  0  0  0  0  0  0
  151.8560  144.0590  160.0344 H   0  0  0  0  0  0  0  0  0  0  0  0
  153.0032  143.6999  158.7656 H   0  0  0  0  0  0  0  0  0  0  0  0
  150.7091  141.8958  159.6803 H   0  0  0  0  0  0  0  0  0  0  0  0
  150.7946  142.7726  158.1694 H   0  0  0  0  0  0  0  0  0  0  0  0
  151.4083  140.3882  157.8472 H   0  0  0  0  0  0  0  0  0  0  0  0
  152.7391  141.4409  157.4457 H   0  0  0  0  0  0  0  0  0  0  0  0
  152.4547  139.8937  160.0740 H   0  0  0  0  0  0  0  0  0  0  0  0
  152.2470  138.9211  157.3134 H   0  0  0  0  0  0  0  0  0  0  0  0
  153.5968  137.8046  157.2120 H   0  0  0  0  0  0  0  0  0  0  0  0
  153.0519  136.7152  159.2650 H   0  0  0  0  0  0  0  0  0  0  0  0
  152.0849  138.0720  159.8290 H   0  0  0  0  0  0  0  0  0  0  0  0
  150.2796  137.3204  158.5965 H   0  0  0  0  0  0  0  0  0  0  0  0
  149.0449  135.4321  157.8980 H   0  0  0  0  0  0  0  0  0  0  0  0
  149.4321  135.9522  156.2947 H   0  0  0  0  0  0  0  0  0  0  0  0
  148.9682  134.5294  154.7798 H   0  0  0  0  0  0  0  0  0  0  0  0
  148.8905  132.2431  153.7953 H   0  0  0  0  0  0  0  0  0  0  0  0
  1  2  1  0  0  0  0
  1 23  1  0  0  0  0
  1 24  1  0  0  0  0
  1 25  1  0  0  0  0
  2  7  1  0  0  0  0
  2  3  1  0  0  0  0
  2 26  1  0  0  0  0
  3  4  1  0  0  0  0
  3 27  1  0  0  0  0
  3 28  1  0  0  0  0
  4  5  1  0  0  0  0
  4 29  1  0  0  0  0
  4 30  1  0  0  0  0
  5  6  1  0  0  0  0
  5 31  1  0  0  0  0
  5 32  1  0  0  0  0
  6  7  1  0  0  0  0
  6 33  1  0  0  0  0
  6 34  1  0  0  0  0
  7  8  1  0  0  0  0
  7 35  1  0  0  0  0
  8  9  1  0  0  0  0
  9 10  1  0  0  0  0
  9 36  1  0  0  0  0
  9 37  1  0  0  0  0
 10 11  1  0  0  0  0
 10 38  1  0  0  0  0
 10 39  1  0  0  0  0
 11 12  1  0  0  0  0
 11 40  1  0  0  0  0
 12 13  2  0  0  0  0
 12 14  1  0  0  0  0
 14 15  1  0  0  0  0
 14 41  1  0  0  0  0
 14 42  1  0  0  0  0
 15 21  1  0  0  0  0
 15 16  1  0  0  0  0
 16 17  2  0  0  0  0
 16 43  1  0  0  0  0
 17 18  1  0  0  0  0
 17 44  1  0  0  0  0
 18 19  2  0  0  0  0
 18 20  1  0  0  0  0
 20 21  1  0  0  0  0
 21 22  2  0  0  0  0
M  CHG  1  20  -1
M  END
> <s_m_source_file>
AV-unprocessed.smi

> <i_m_source_file_index>
1679

> <i_lp_mmshare_version>
43012

> <i_f3d_flags>
0

> <s_epik_input>
W0NIM11bQ0BASF0xW0NIMl1bQ0gyXVtDSDJdW0NIMl1bQ0BIXTFPW0NIMl1bQ0gyXVtOSF1DKD1PKVtDSDJdbjJbY0hdW2NIXWMoPU8pW25IXWMyPU8=

> <s_epik_cmdline>
J2VwaWtfcHl0aG9uJywgJy1waCcsICc3LjAnLCAnLXRuJywgJzgnLCAnLW1hJywgJzIwMCcsICctbWV0YWxfYmluZGluZycsICctaW1hZScsICc8aW5maWxlLm1hZT4nLCAnLW9tYWUnLCAnPG91dGZpbGUubWFlPic=

> <r_lp_tautomer_probability>
0.999537

> <r_epik_Ionization_Penalty>
3.07454

> <r_epik_Ionization_Penalty_Charging>
2.80088e-08

> <r_epik_Ionization_Penalty_Neutral>
3.07454

> <r_epik_State_Penalty>
3.07357

> <r_epik_Charging_Adjusted_Penalty>
3.07357

> <i_epik_Tot_Q>
-1

> <i_epik_Tot_abs_Q>
1

> <r_epik_Metal_State_Penalty>
0.45948

> <b_epik_Metal_Only>
1

> <s_lp_Force_Field>
OPLS_2005

> <r_lp_Energy>
18.3585

> <b_lp_Chiralities_Consistent>
1

> <s_lp_Variant>
AV-unprocessed.smi:1679-5

> <Gold.Version>
5.8.1

> <Gold.Id.Protein>
6NUR|6NUR_protein|mol2

> <Gold.PLP.Fitness>
48.5602

> <Gold.PLP.PLP>
-38.4283

> <Gold.PLP.part.hbond>
-3.0000

> <Gold.PLP.part.metal>
0.0000

> <Gold.PLP.part.buried>
-4.9045

> <Gold.PLP.part.nonpolar>
-29.7936

> <Gold.PLP.part.repulsive>
0.1754

> <Gold.PLP.ligand.clash>
0.0000

> <Gold.PLP.ligand.torsion>
0.6009

> <Gold.PLP.Chemscore.Hbond>
2.7360

> <Gold.PLP.Chemscore.CHOScore>
0.9992

> <Gold.PLP.Chemscore.Metal>
0.0000

> <Gold.Chemscore.Hbonds>
donor molecule, donor type, donor heavy atom, donor atom, acceptor molecule, acceptor atom, score
      P1  H  7997  8008       L1     8  0.75
      P1  H 10752 10765       L1    13  0.19

> <Gold.PLP.Chemscore.Internal.Correction>
0.1279

> <Gold.Rescore>
     Score         DG    S(hbond)    S(metal)    S(lipo)     H(rot)  DE(clash)    DE(int)     intcor
     17.47     -18.15       2.66        0.00      85.93       2.45       0.00       0.67       ----

> <Gold.Chemscore.Fitness>
17.4738

> <Gold.Chemscore.DG>
-18.1477

> <Gold.Chemscore.ZeroCoef>
-5.4800

> <Gold.Chemscore.Hbond>
2.6596

> <Gold.Chemscore.Metal>
0.0000

> <Gold.Chemscore.Lipo>
85.9308

> <Gold.Chemscore.Internal_Hbond>
0.0000

> <Gold.Chemscore.DEClash>
0.0000

> <Gold.Chemscore.DEInternal>
0.6738

> <Gold.Chemscore.Rot>
2.4490

> <Gold.Chemscore.Internal.Correction>
   9.000000E+99

> <Gold.Chemscore.Hbonds>
donor molecule, donor type, donor heavy atom, donor atom, acceptor molecule, acceptor atom, score
      P1  H  7997  8008       L1     8  0.48
      P1  H 10752 10765       L1    13  0.19

> <Gold.Chemscore.Hbond.Weighted>
-8.8832

> <Gold.Chemscore.Metal.Weighted>
-0.0000

> <Gold.Chemscore.Lipo.Weighted>
-10.0539

> <Gold.Chemscore.Internal_Hbond.Weighted>
0.0000

> <Gold.Chemscore.DEClash.Weighted>
0.0000

> <Gold.Chemscore.DEInternal.Weighted>
0.6738

> <Gold.Chemscore.Rot.Weighted>
6.2694

> <Gold.Chemscore.Internal.Correction.Weighted>
   9.000000E+99

> <Gold.Protein.RotatedTorsions>
[ 6907 6896 6895 6894 ] final -146.48 input  -60.11 | X-H torsion
[ 7974 7965 7964 7962 ] final  -24.24 input  175.53 | X-H torsion
[ 8008 7997 7996 7995 ] final -129.16 input   59.86 | X-H torsion
[ 10167 10162 10161 10158 ] final  106.86 input  -65.29 | X-H torsion
[ 10718 10713 10712 10709 ] final    7.88 input   66.30 | X-H torsion
[ 10763 10752 10751 10750 ] final -142.90 input  -60.55 | X-H torsion
[ 11005 11000 10999 10996 ] final  168.46 input  -57.11 | X-H torsion

> <Gold.Protein.ActiveResidues>
 VAL166  LYS551  ARG553  GLY616  TRP617  ASP618  TYR619  PRO620  LYS621  CYS622 
 ASP623  PHE694  ASN695  SER759  ASP760  ASP761  ALA762  ILE779  LEU786  VAL792 
 PHE793  MET794  SER795  GLU796  ALA797  LYS798  CYS799  TRP800  GLU811  SER814 

> <Gold.Protein.RotatedAtoms>
  151.1423  133.4963  159.2596 H   0  0  0  0  0  0  0  0  0  0  0  0  # atno 6907 bound_to 6896
  151.1642  135.0287  159.8733 H   0  0  0  0  0  0  0  0  0  0  0  0  # atno 6908 bound_to 6896
  152.5462  134.1294  159.8486 H   0  0  0  0  0  0  0  0  0  0  0  0  # atno 6909 bound_to 6896
  146.1567  140.4724  142.8588 H   0  0  0  0  0  0  0  0  0  0  0  0  # atno 7974 bound_to 7965
  155.2746  140.0441  157.3010 H   0  0  0  0  0  0  0  0  0  0  0  0  # atno 8008 bound_to 7997
  154.5633  140.2352  155.8271 H   0  0  0  0  0  0  0  0  0  0  0  0  # atno 8009 bound_to 7997
  156.2064  140.3011  155.9645 H   0  0  0  0  0  0  0  0  0  0  0  0  # atno 8010 bound_to 7997
  139.6975  144.7099  151.1243 H   0  0  0  0  0  0  0  0  0  0  0  0  # atno 10167 bound_to 10162
  156.9434  130.5869  149.5653 H   0  0  0  0  0  0  0  0  0  0  0  0  # atno 10718 bound_to 10713
  154.8491  135.3483  154.6102 H   0  0  0  0  0  0  0  0  0  0  0  0  # atno 10763 bound_to 10752
  153.6710  135.6985  153.5152 H   0  0  0  0  0  0  0  0  0  0  0  0  # atno 10764 bound_to 10752
  153.2742  135.4283  155.0974 H   0  0  0  0  0  0  0  0  0  0  0  0  # atno 10765 bound_to 10752
  140.2874  134.7701  157.3810 H   0  0  0  0  0  0  0  0  0  0  0  0  # atno 11005 bound_to 11000
  144.7973  140.6146  143.6502 LP  0  0  0  0  0  0  0  0  0  0  0  0  # atno 17320 bound_to 7965
  145.4691  139.1505  143.3824 LP  0  0  0  0  0  0  0  0  0  0  0  0  # atno 17321 bound_to 7965
  140.7700  143.5471  150.9246 LP  0  0  0  0  0  0  0  0  0  0  0  0  # atno 17342 bound_to 10162
  139.9151  143.6673  152.3108 LP  0  0  0  0  0  0  0  0  0  0  0  0  # atno 17343 bound_to 10162
  156.0394  130.5478  150.8735 LP  0  0  0  0  0  0  0  0  0  0  0  0  # atno 17370 bound_to 10713
  157.5770  131.0946  150.9330 LP  0  0  0  0  0  0  0  0  0  0  0  0  # atno 17371 bound_to 10713
  140.1226  134.5199  155.8171 LP  0  0  0  0  0  0  0  0  0  0  0  0  # atno 17394 bound_to 11000
  141.2152  133.6762  156.6894 LP  0  0  0  0  0  0  0  0  0  0  0  0  # atno 17395 bound_to 11000

$$$$
