AV-unprocessed.smi:1821|AV-procd|sdf|7386|dock6
  -GOLD-   22720 9 53D 1   1.00000     0.00000
 Structure written by MMmdl.
 35 37  0  0  0  0  0  0  0  0  1 V2000
  152.1313  138.2241  155.3743 C   0  0  0  0  0  0  0  0  0  0  0  0
  150.8707  138.9184  154.9665 C   0  0  0  0  0  0  0  0  0  0  0  0
  150.0096  138.3784  154.1036 N   0  0  0  0  0  0  0  0  0  0  0  0
  149.0196  139.3387  154.0230 C   0  0  0  0  0  0  0  0  0  0  0  0
  147.8233  139.3644  153.2710 C   0  0  0  0  0  0  0  0  0  0  0  0
  146.9529  140.4713  153.3516 C   0  0  0  0  0  0  0  0  0  0  0  0
  147.2651  141.5661  154.1838 C   0  0  0  0  0  0  0  0  0  0  0  0
  148.4514  141.5604  154.9425 C   0  0  0  0  0  0  0  0  0  0  0  0
  149.3166  140.4531  154.8579 C   0  0  0  0  0  0  0  0  0  0  0  0
  150.5326  140.1376  155.4547 N   0  0  0  0  0  0  0  0  0  0  0  0
  151.2640  140.9653  156.4043 C   0  0  0  0  0  0  0  0  0  0  0  0
  151.1288  140.4641  157.8567 C   0  0  2  0  0  0  0  0  0  0  0  0
  149.7795  140.1492  158.1452 O   0  0  0  0  0  0  0  0  0  0  0  0
  151.7199  141.4619  158.8470 C   0  0  0  0  0  0  0  0  0  0  0  0
  152.8349  141.1141  159.6471 C   0  0  0  0  0  0  0  0  0  0  0  0
  153.3966  139.8850  159.5508 F   0  0  0  0  0  0  0  0  0  0  0  0
  153.3718  142.0424  160.5599 C   0  0  0  0  0  0  0  0  0  0  0  0
  152.7989  143.3212  160.6877 C   0  0  0  0  0  0  0  0  0  0  0  0
  151.6842  143.6707  159.9038 C   0  0  0  0  0  0  0  0  0  0  0  0
  151.1441  142.7463  158.9885 C   0  0  0  0  0  0  0  0  0  0  0  0
  150.0658  143.1028  158.2497 F   0  0  0  0  0  0  0  0  0  0  0  0
  152.2653  137.3064  154.8008 H   0  0  0  0  0  0  0  0  0  0  0  0
  152.0929  137.9658  156.4327 H   0  0  0  0  0  0  0  0  0  0  0  0
  152.9940  138.8666  155.1980 H   0  0  0  0  0  0  0  0  0  0  0  0
  147.5748  138.5307  152.6310 H   0  0  0  0  0  0  0  0  0  0  0  0
  146.0411  140.4799  152.7724 H   0  0  0  0  0  0  0  0  0  0  0  0
  146.5932  142.4100  154.2395 H   0  0  0  0  0  0  0  0  0  0  0  0
  148.6940  142.3967  155.5811 H   0  0  0  0  0  0  0  0  0  0  0  0
  152.3142  140.9626  156.1095 H   0  0  0  0  0  0  0  0  0  0  0  0
  150.9307  141.9993  156.3191 H   0  0  0  0  0  0  0  0  0  0  0  0
  151.6717  139.5230  157.9451 H   0  0  0  0  0  0  0  0  0  0  0  0
  149.6940  139.2094  158.1927 H   0  0  0  0  0  0  0  0  0  0  0  0
  154.2243  141.7713  161.1652 H   0  0  0  0  0  0  0  0  0  0  0  0
  153.2118  144.0313  161.3888 H   0  0  0  0  0  0  0  0  0  0  0  0
  151.2410  144.6504  160.0051 H   0  0  0  0  0  0  0  0  0  0  0  0
  1  2  1  0  0  0  0
  1 22  1  0  0  0  0
  1 23  1  0  0  0  0
  1 24  1  0  0  0  0
  2 10  1  0  0  0  0
  2  3  2  0  0  0  0
  3  4  1  0  0  0  0
  4  9  2  0  0  0  0
  4  5  1  0  0  0  0
  5  6  2  0  0  0  0
  5 25  1  0  0  0  0
  6  7  1  0  0  0  0
  6 26  1  0  0  0  0
  7  8  2  0  0  0  0
  7 27  1  0  0  0  0
  8  9  1  0  0  0  0
  8 28  1  0  0  0  0
  9 10  1  0  0  0  0
 10 11  1  0  0  0  0
 11 12  1  0  0  0  0
 11 29  1  0  0  0  0
 11 30  1  0  0  0  0
 12 13  1  0  0  0  0
 12 14  1  0  0  0  0
 12 31  1  0  0  0  0
 13 32  1  0  0  0  0
 14 20  1  0  0  0  0
 14 15  2  0  0  0  0
 15 16  1  0  0  0  0
 15 17  1  0  0  0  0
 17 18  2  0  0  0  0
 17 33  1  0  0  0  0
 18 19  1  0  0  0  0
 18 34  1  0  0  0  0
 19 20  2  0  0  0  0
 19 35  1  0  0  0  0
 20 21  1  0  0  0  0
M  END
> <s_m_source_file>
AV-unprocessed.smi

> <i_m_source_file_index>
1821

> <i_lp_mmshare_version>
43012

> <i_f3d_flags>
0

> <s_epik_input>
W2NIXTFbY0hdW2NIXVtjSF1jKGMxMiluKGMobjIpW0NIM10pW0NIMl1bQ0BIXShbT0hdKWMzYyhGKVtjSF1bY0hdW2NIXWMzRg==

> <s_epik_cmdline>
J2VwaWtfcHl0aG9uJywgJy1waCcsICc3LjAnLCAnLXRuJywgJzgnLCAnLW1hJywgJzIwMCcsICctbWV0YWxfYmluZGluZycsICctaW1hZScsICc8aW5maWxlLm1hZT4nLCAnLW9tYWUnLCAnPG91dGZpbGUubWFlPic=

> <r_epik_Ionization_Penalty>
0.129663

> <r_epik_Ionization_Penalty_Charging>
0

> <r_epik_Ionization_Penalty_Neutral>
0.129663

> <r_epik_State_Penalty>
0.119073

> <r_epik_Charging_Adjusted_Penalty>
0.119073

> <i_epik_Tot_Q>
0

> <i_epik_Tot_abs_Q>
0

> <r_epik_Metal_State_Penalty>
0.000131867

> <b_epik_Metal_Only>
0

> <s_lp_Force_Field>
OPLS_2005

> <r_lp_Energy>
13.297

> <b_lp_Chiralities_Consistent>
1

> <s_lp_Variant>
AV-unprocessed.smi:1821-1

> <Gold.Version>
5.8.1

> <Gold.Id.Protein>
6NUR|6NUR_protein|mol2

> <Gold.PLP.Fitness>
43.8645

> <Gold.PLP.PLP>
-44.4320

> <Gold.PLP.part.hbond>
0.0000

> <Gold.PLP.part.metal>
0.0000

> <Gold.PLP.part.buried>
1.9254

> <Gold.PLP.part.nonpolar>
-46.4278

> <Gold.PLP.part.repulsive>
0.2595

> <Gold.PLP.ligand.clash>
0.0000

> <Gold.PLP.ligand.torsion>
0.3007

> <Gold.PLP.Chemscore.Hbond>
0.0000

> <Gold.PLP.Chemscore.CHOScore>
0.0000

> <Gold.PLP.Chemscore.Metal>
0.0000

> <Gold.PLP.Chemscore.Internal.Correction>
0.0338

> <Gold.Rescore>
     Score         DG    S(hbond)    S(metal)    S(lipo)     H(rot)  DE(clash)    DE(int)     intcor
     12.75     -14.51       0.00        0.00     118.44       1.88       0.11       1.65       ----

> <Gold.Chemscore.Fitness>
12.7464

> <Gold.Chemscore.DG>
-14.5143

> <Gold.Chemscore.ZeroCoef>
-5.4800

> <Gold.Chemscore.Hbond>
0.0000

> <Gold.Chemscore.Metal>
0.0000

> <Gold.Chemscore.Lipo>
118.4365

> <Gold.Chemscore.Internal_Hbond>
0.0000

> <Gold.Chemscore.DEClash>
0.1144

> <Gold.Chemscore.DEInternal>
1.6535

> <Gold.Chemscore.Rot>
1.8839

> <Gold.Chemscore.Internal.Correction>
   9.000000E+99

> <Gold.Chemscore.Hbond.Weighted>
-0.0000

> <Gold.Chemscore.Metal.Weighted>
-0.0000

> <Gold.Chemscore.Lipo.Weighted>
-13.8571

> <Gold.Chemscore.Internal_Hbond.Weighted>
0.0000

> <Gold.Chemscore.DEClash.Weighted>
0.1144

> <Gold.Chemscore.DEInternal.Weighted>
1.6535

> <Gold.Chemscore.Rot.Weighted>
4.8227

> <Gold.Chemscore.Internal.Correction.Weighted>
   9.000000E+99

> <Gold.Protein.RotatedTorsions>
[ 6907 6896 6895 6894 ] final   33.12 input  -60.11 | X-H torsion
[ 7974 7965 7964 7962 ] final  -51.53 input  175.53 | X-H torsion
[ 8008 7997 7996 7995 ] final  -82.13 input   59.86 | X-H torsion
[ 10167 10162 10161 10158 ] final  155.37 input  -65.29 | X-H torsion
[ 10718 10713 10712 10709 ] final  -22.90 input   66.30 | X-H torsion
[ 10763 10752 10751 10750 ] final  105.05 input  -60.55 | X-H torsion
[ 11005 11000 10999 10996 ] final  -24.30 input  -57.11 | X-H torsion

> <Gold.Protein.ActiveResidues>
 VAL166  LYS551  ARG553  GLY616  TRP617  ASP618  TYR619  PRO620  LYS621  CYS622 
 ASP623  PHE694  ASN695  SER759  ASP760  ASP761  ALA762  ILE779  LEU786  VAL792 
 PHE793  MET794  SER795  GLU796  ALA797  LYS798  CYS799  TRP800  GLU811  SER814 

> <Gold.Protein.RotatedAtoms>
  152.0840  134.9452  160.0572 H   0  0  0  0  0  0  0  0  0  0  0  0  # atno 6907 bound_to 6896
  152.0729  133.4110  159.4475 H   0  0  0  0  0  0  0  0  0  0  0  0  # atno 6908 bound_to 6896
  150.6836  134.2990  159.4742 H   0  0  0  0  0  0  0  0  0  0  0  0  # atno 6909 bound_to 6896
  145.9180  140.7858  142.9662 H   0  0  0  0  0  0  0  0  0  0  0  0  # atno 7974 bound_to 7965
  154.6054  140.0637  156.9424 H   0  0  0  0  0  0  0  0  0  0  0  0  # atno 8008 bound_to 7997
  155.2061  140.3319  155.4317 H   0  0  0  0  0  0  0  0  0  0  0  0  # atno 8009 bound_to 7997
  156.2344  140.1856  156.7141 H   0  0  0  0  0  0  0  0  0  0  0  0  # atno 8010 bound_to 7997
  139.4821  144.5104  151.8033 H   0  0  0  0  0  0  0  0  0  0  0  0  # atno 10167 bound_to 10162
  156.4983  130.4582  149.6715 H   0  0  0  0  0  0  0  0  0  0  0  0  # atno 10718 bound_to 10713
  153.3741  135.3923  155.1810 H   0  0  0  0  0  0  0  0  0  0  0  0  # atno 10763 bound_to 10752
  154.8698  135.3709  154.4940 H   0  0  0  0  0  0  0  0  0  0  0  0  # atno 10764 bound_to 10752
  153.5410  135.7084  153.5697 H   0  0  0  0  0  0  0  0  0  0  0  0  # atno 10765 bound_to 10752
  140.8832  133.7639  156.0328 H   0  0  0  0  0  0  0  0  0  0  0  0  # atno 11005 bound_to 11000
  144.6750  140.1930  143.7394 LP  0  0  0  0  0  0  0  0  0  0  0  0  # atno 17320 bound_to 7965
  145.8586  139.2211  143.1729 LP  0  0  0  0  0  0  0  0  0  0  0  0  # atno 17321 bound_to 7965
  140.4607  144.1726  150.5906 LP  0  0  0  0  0  0  0  0  0  0  0  0  # atno 17342 bound_to 10162
  140.4488  143.2495  151.9376 LP  0  0  0  0  0  0  0  0  0  0  0  0  # atno 17343 bound_to 10162
  156.3357  130.7355  151.2292 LP  0  0  0  0  0  0  0  0  0  0  0  0  # atno 17370 bound_to 10713
  157.7466  131.0417  150.4661 LP  0  0  0  0  0  0  0  0  0  0  0  0  # atno 17371 bound_to 10713
  140.8436  134.3037  157.5304 LP  0  0  0  0  0  0  0  0  0  0  0  0  # atno 17394 bound_to 11000
  139.8722  134.9429  156.3839 LP  0  0  0  0  0  0  0  0  0  0  0  0  # atno 17395 bound_to 11000

$$$$
