AV-unprocessed.smi:3028|AV-procd|sdf|11517|dock4
  -GOLD-   2272016453D 1   1.00000     0.00000
 Structure written by MMmdl.
 48 49  0  0  0  0  0  0  0  0  2 V2000
  150.8014  142.5051  158.3016 C   0  0  0  0  0  0  0  0  0  0  0  0
  150.5127  141.7848  157.0162 C   0  0  0  0  0  0  0  0  0  0  0  0
  151.3824  140.9376  156.2729 C   0  0  0  0  0  0  0  0  0  0  0  0
  150.8173  140.4542  155.1788 N   0  0  0  0  0  0  0  0  0  0  0  0
  149.5718  140.9754  155.1796 N   0  0  0  0  0  0  0  0  0  0  0  0
  148.6500  140.6465  154.0997 C   0  0  2  0  0  0  0  0  0  0  0  0
  147.4192  141.5687  154.1711 C   0  0  0  0  0  0  0  0  0  0  0  0
  148.2849  139.1377  154.0926 C   0  0  2  0  0  0  0  0  0  0  0  0
  149.5125  138.2183  154.2263 C   0  0  0  0  0  0  0  0  0  0  0  0
  147.5618  138.7857  152.8501 N   0  3  0  0  0  0  0  0  0  0  0  0
  146.1718  138.3195  153.0452 C   0  0  0  0  0  0  0  0  0  0  0  0
  145.9750  136.8663  152.5940 C   0  0  0  0  0  0  0  0  0  0  0  0
  146.3127  135.9425  153.3325 O   0  0  0  0  0  0  0  0  0  0  0  0
  145.4349  136.6181  151.3888 N   0  0  0  0  0  0  0  0  0  0  0  0
  145.1618  135.3218  150.7690 C   0  0  0  0  0  0  0  0  0  0  0  0
  144.0725  134.5827  151.5612 C   0  0  0  0  0  0  0  0  0  0  0  0
  143.8995  133.1468  151.0401 C   0  0  0  0  0  0  0  0  0  0  0  0
  145.1428  132.4558  151.0918 O   0  0  0  0  0  0  0  0  0  0  0  0
  146.1409  133.0453  150.2656 C   0  0  0  0  0  0  0  0  0  0  0  0
  146.4430  134.4742  150.7459 C   0  0  0  0  0  0  0  0  0  0  0  0
  149.3623  141.7829  156.2798 C   0  0  0  0  0  0  0  0  0  0  0  0
  151.7868  142.2537  158.6945 H   0  0  0  0  0  0  0  0  0  0  0  0
  150.0745  142.2555  159.0748 H   0  0  0  0  0  0  0  0  0  0  0  0
  150.7743  143.5870  158.1708 H   0  0  0  0  0  0  0  0  0  0  0  0
  152.4022  140.6600  156.4958 H   0  0  0  0  0  0  0  0  0  0  0  0
  149.1625  140.8665  153.1608 H   0  0  0  0  0  0  0  0  0  0  0  0
  146.7809  141.4529  153.2954 H   0  0  0  0  0  0  0  0  0  0  0  0
  147.7193  142.6165  154.2106 H   0  0  0  0  0  0  0  0  0  0  0  0
  146.8147  141.3634  155.0551 H   0  0  0  0  0  0  0  0  0  0  0  0
  147.6410  138.9317  154.9494 H   0  0  0  0  0  0  0  0  0  0  0  0
  150.0228  138.3567  155.1798 H   0  0  0  0  0  0  0  0  0  0  0  0
  150.2361  138.4051  153.4321 H   0  0  0  0  0  0  0  0  0  0  0  0
  149.2224  137.1686  154.1712 H   0  0  0  0  0  0  0  0  0  0  0  0
  147.5525  139.5924  152.2422 H   0  0  0  0  0  0  0  0  0  0  0  0
  145.9164  138.4062  154.1021 H   0  0  0  0  0  0  0  0  0  0  0  0
  145.4926  138.9608  152.4829 H   0  0  0  0  0  0  0  0  0  0  0  0
  145.1883  137.4249  150.8330 H   0  0  0  0  0  0  0  0  0  0  0  0
  144.8167  135.4295  149.7411 H   0  0  0  0  0  0  0  0  0  0  0  0
  144.3404  134.5478  152.6184 H   0  0  0  0  0  0  0  0  0  0  0  0
  143.1261  135.1208  151.4967 H   0  0  0  0  0  0  0  0  0  0  0  0
  143.1738  132.6115  151.6528 H   0  0  0  0  0  0  0  0  0  0  0  0
  143.5143  133.1475  150.0193 H   0  0  0  0  0  0  0  0  0  0  0  0
  147.0432  132.4354  150.3137 H   0  0  0  0  0  0  0  0  0  0  0  0
  145.8130  133.0455  149.2249 H   0  0  0  0  0  0  0  0  0  0  0  0
  147.1908  134.9356  150.1000 H   0  0  0  0  0  0  0  0  0  0  0  0
  146.8783  134.4287  151.7454 H   0  0  0  0  0  0  0  0  0  0  0  0
  148.4202  142.2840  156.4478 H   0  0  0  0  0  0  0  0  0  0  0  0
  148.0696  138.0467  152.3848 H   0  0  0  0  0  0  0  0  0  0  0  0
  1  2  1  0  0  0  0
  1 22  1  0  0  0  0
  1 23  1  0  0  0  0
  1 24  1  0  0  0  0
  2 21  2  0  0  0  0
  2  3  1  0  0  0  0
  3  4  2  0  0  0  0
  3 25  1  0  0  0  0
  4  5  1  0  0  0  0
  5  6  1  0  0  0  0
  5 21  1  0  0  0  0
  6  7  1  0  0  0  0
  6  8  1  0  0  0  0
  6 26  1  0  0  0  0
  7 27  1  0  0  0  0
  7 28  1  0  0  0  0
  7 29  1  0  0  0  0
  8  9  1  0  0  0  0
  8 10  1  0  0  0  0
  8 30  1  0  0  0  0
  9 31  1  0  0  0  0
  9 32  1  0  0  0  0
  9 33  1  0  0  0  0
 10 11  1  0  0  0  0
 10 34  1  0  0  0  0
 10 48  1  0  0  0  0
 11 12  1  0  0  0  0
 11 35  1  0  0  0  0
 11 36  1  0  0  0  0
 12 13  2  0  0  0  0
 12 14  1  0  0  0  0
 14 15  1  0  0  0  0
 14 37  1  0  0  0  0
 15 20  1  0  0  0  0
 15 16  1  0  0  0  0
 15 38  1  0  0  0  0
 16 17  1  0  0  0  0
 16 39  1  0  0  0  0
 16 40  1  0  0  0  0
 17 18  1  0  0  0  0
 17 41  1  0  0  0  0
 17 42  1  0  0  0  0
 18 19  1  0  0  0  0
 19 20  1  0  0  0  0
 19 43  1  0  0  0  0
 19 44  1  0  0  0  0
 20 45  1  0  0  0  0
 20 46  1  0  0  0  0
 21 47  1  0  0  0  0
M  CHG  1  10   1
M  END
> <s_m_source_file>
AV-unprocessed.smi

> <i_m_source_file_index>
3028

> <i_lp_mmshare_version>
43012

> <i_f3d_flags>
0

> <s_epik_input>
W0NIM11jMVtjSF1ubihbY0hdMSlbQ0BIXShbQ0gzXSlbQ0BIXShbQ0gzXSlbTkhdW0NIMl1DKD1PKVtOSF1bQ0hdMltDSDJdW0NIMl1PW0NIMl1bQ0gyXTI=

> <s_epik_cmdline>
J2VwaWtfcHl0aG9uJywgJy1waCcsICc3LjAnLCAnLXRuJywgJzgnLCAnLW1hJywgJzIwMCcsICctbWV0YWxfYmluZGluZycsICctaW1hZScsICc8aW5maWxlLm1hZT4nLCAnLW9tYWUnLCAnPG91dGZpbGUubWFlPic=

> <r_lp_tautomer_probability>
1

> <r_epik_Ionization_Penalty>
0.151514

> <r_epik_Ionization_Penalty_Charging>
0.151494

> <r_epik_Ionization_Penalty_Neutral>
1.95502e-05

> <r_epik_State_Penalty>
0.141395

> <r_epik_Charging_Adjusted_Penalty>
0.292889

> <i_epik_Tot_Q>
1

> <i_epik_Tot_abs_Q>
1

> <r_epik_Metal_State_Penalty>
0.141632

> <b_epik_Metal_Only>
0

> <s_lp_Force_Field>
OPLS_2005

> <r_lp_Energy>
18.1204

> <b_lp_Chiralities_Consistent>
1

> <s_lp_Variant>
AV-unprocessed.smi:3028-1

> <Gold.Version>
5.8.1

> <Gold.Id.Protein>
6NUR|6NUR_protein|mol2

> <Gold.PLP.Fitness>
49.8186

> <Gold.PLP.PLP>
-38.2398

> <Gold.PLP.part.hbond>
-4.0000

> <Gold.PLP.part.metal>
0.0000

> <Gold.PLP.part.buried>
-1.8730

> <Gold.PLP.part.nonpolar>
-32.3616

> <Gold.PLP.part.repulsive>
0.3483

> <Gold.PLP.ligand.clash>
0.0000

> <Gold.PLP.ligand.torsion>
1.6860

> <Gold.PLP.Chemscore.Hbond>
4.1960

> <Gold.PLP.Chemscore.CHOScore>
0.7293

> <Gold.PLP.Chemscore.Metal>
0.0000

> <Gold.Chemscore.Hbonds>
donor molecule, donor type, donor heavy atom, donor atom, acceptor molecule, acceptor atom, score
      L1  H    10    34       P1  7957  0.07
      L1  H    10    48       P1  7948  1.85
      L1  H    14    37       P1 10171  1.00
      P1  H  7989  7998       L1     4  1.00
      L1  C    21    47       P1  8028  0.41

> <Gold.PLP.Chemscore.Internal.Correction>
0.1748

> <Gold.Rescore>
     Score         DG    S(hbond)    S(metal)    S(lipo)     H(rot)  DE(clash)    DE(int)     intcor
     15.00     -19.35       2.57        0.00      88.73       1.99       0.12       4.23       ----

> <Gold.Chemscore.Fitness>
14.9963

> <Gold.Chemscore.DG>
-19.3473

> <Gold.Chemscore.ZeroCoef>
-5.4800

> <Gold.Chemscore.Hbond>
2.5687

> <Gold.Chemscore.Metal>
0.0000

> <Gold.Chemscore.Lipo>
88.7295

> <Gold.Chemscore.Internal_Hbond>
0.0000

> <Gold.Chemscore.DEClash>
0.1208

> <Gold.Chemscore.DEInternal>
4.2301

> <Gold.Chemscore.Rot>
1.9897

> <Gold.Chemscore.Internal.Correction>
   9.000000E+99

> <Gold.Chemscore.Hbonds>
donor molecule, donor type, donor heavy atom, donor atom, acceptor molecule, acceptor atom, score
      L1  H    10    34       P1  7957  0.07
      L1  H    10    48       P1  7948  0.89
      L1  H    14    37       P1 10171  0.91
      P1  H  7989  7998       L1     4  0.59

> <Gold.Chemscore.Hbond.Weighted>
-8.5795

> <Gold.Chemscore.Metal.Weighted>
-0.0000

> <Gold.Chemscore.Lipo.Weighted>
-10.3813

> <Gold.Chemscore.Internal_Hbond.Weighted>
0.0000

> <Gold.Chemscore.DEClash.Weighted>
0.1208

> <Gold.Chemscore.DEInternal.Weighted>
4.2301

> <Gold.Chemscore.Rot.Weighted>
5.0936

> <Gold.Chemscore.Internal.Correction.Weighted>
   9.000000E+99

> <Gold.Protein.RotatedTorsions>
[ 6907 6896 6895 6894 ] final  -80.99 input  -60.11 | X-H torsion
[ 7974 7965 7964 7962 ] final  -11.19 input  175.53 | X-H torsion
[ 8008 7997 7996 7995 ] final  -61.35 input   59.86 | X-H torsion
[ 10167 10162 10161 10158 ] final -125.70 input  -65.29 | X-H torsion
[ 10718 10713 10712 10709 ] final   51.69 input   66.30 | X-H torsion
[ 10763 10752 10751 10750 ] final -132.64 input  -60.55 | X-H torsion
[ 11005 11000 10999 10996 ] final -148.63 input  -57.11 | X-H torsion

> <Gold.Protein.ActiveResidues>
 VAL166  LYS551  ARG553  GLY616  TRP617  ASP618  TYR619  PRO620  LYS621  CYS622 
 ASP623  PHE694  ASN695  SER759  ASP760  ASP761  ALA762  ILE779  LEU786  VAL792 
 PHE793  MET794  SER795  GLU796  ALA797  LYS798  CYS799  TRP800  GLU811  SER814 

> <Gold.Protein.RotatedAtoms>
  150.6919  134.3886  159.5065 H   0  0  0  0  0  0  0  0  0  0  0  0  # atno 6907 bound_to 6896
  152.1677  134.8857  160.0546 H   0  0  0  0  0  0  0  0  0  0  0  0  # atno 6908 bound_to 6896
  151.9895  133.3751  159.4175 H   0  0  0  0  0  0  0  0  0  0  0  0  # atno 6909 bound_to 6896
  146.2196  140.2875  142.8366 H   0  0  0  0  0  0  0  0  0  0  0  0  # atno 7974 bound_to 7965
  154.4444  140.1019  156.6417 H   0  0  0  0  0  0  0  0  0  0  0  0  # atno 8008 bound_to 7997
  155.5494  140.3485  155.4446 H   0  0  0  0  0  0  0  0  0  0  0  0  # atno 8009 bound_to 7997
  156.0540  140.1310  157.0007 H   0  0  0  0  0  0  0  0  0  0  0  0  # atno 8010 bound_to 7997
  139.9793  143.5760  152.2384 H   0  0  0  0  0  0  0  0  0  0  0  0  # atno 10167 bound_to 10162
  157.5005  130.8434  149.8310 H   0  0  0  0  0  0  0  0  0  0  0  0  # atno 10718 bound_to 10713
  154.8741  135.3791  154.4442 H   0  0  0  0  0  0  0  0  0  0  0  0  # atno 10763 bound_to 10752
  153.5124  135.7029  153.5779 H   0  0  0  0  0  0  0  0  0  0  0  0  # atno 10764 bound_to 10752
  153.4062  135.3936  155.1986 H   0  0  0  0  0  0  0  0  0  0  0  0  # atno 10765 bound_to 10752
  140.7592  134.3318  157.5106 H   0  0  0  0  0  0  0  0  0  0  0  0  # atno 11005 bound_to 11000
  144.9152  140.7803  143.5783 LP  0  0  0  0  0  0  0  0  0  0  0  0  # atno 17320 bound_to 7965
  145.2808  139.1919  143.4792 LP  0  0  0  0  0  0  0  0  0  0  0  0  # atno 17321 bound_to 7965
  139.6422  144.7655  151.2317 LP  0  0  0  0  0  0  0  0  0  0  0  0  # atno 17342 bound_to 10162
  140.7494  143.6299  150.8433 LP  0  0  0  0  0  0  0  0  0  0  0  0  # atno 17343 bound_to 10162
  156.0226  130.3790  150.1917 LP  0  0  0  0  0  0  0  0  0  0  0  0  # atno 17370 bound_to 10713
  157.0106  130.9950  151.3367 LP  0  0  0  0  0  0  0  0  0  0  0  0  # atno 17371 bound_to 10713
  139.8774  134.9191  156.3219 LP  0  0  0  0  0  0  0  0  0  0  0  0  # atno 17394 bound_to 11000
  140.9679  133.7346  156.0493 LP  0  0  0  0  0  0  0  0  0  0  0  0  # atno 17395 bound_to 11000

$$$$
