AV-unprocessed.smi:1572|AV-procd|sdf|6332|dock5
  -GOLD-   22720 6543D 1   1.00000     0.00000
 Structure written by MMmdl.
 41 42  0  0  0  0  0  0  0  0  2 V2000
  152.7947  143.3094  160.1714 C   0  0  0  0  0  0  0  0  0  0  0  0
  152.4754  142.3342  159.1401 N   0  0  0  0  0  0  0  0  0  0  0  0
  152.3097  140.9965  159.7009 C   0  0  0  0  0  0  0  0  0  0  0  0
  151.9819  139.9625  158.6082 C   0  0  0  0  0  0  0  0  0  0  0  0
  150.7543  140.3143  157.8770 N   0  0  0  0  0  0  0  0  0  0  0  0
  150.2899  139.2916  156.8987 C   0  0  0  0  0  0  0  0  0  0  0  0
  148.9400  139.6569  156.2361 C   0  0  0  0  0  0  0  0  0  0  0  0
  151.3253  139.1006  155.7613 C   0  0  0  0  0  0  0  0  0  0  0  0
  150.1132  137.8972  157.5651 C   0  0  0  0  0  0  0  0  0  0  0  0
  149.1244  137.9182  158.6397 N   0  0  0  0  0  0  0  0  0  0  0  0
  148.6596  136.8411  159.2849 C   0  0  0  0  0  0  0  0  0  0  0  0
  149.0766  135.7197  158.9858 O   0  0  0  0  0  0  0  0  0  0  0  0
  147.7402  137.1285  160.2344 N   0  5  0  0  0  0  0  0  0  0  0  0
  147.1258  136.1346  160.8967 C   0  0  0  0  0  0  0  0  0  0  0  0
  146.5288  135.1116  160.2639 N   0  0  0  0  0  0  0  0  0  0  0  0
  145.9592  134.1900  161.1321 N   0  0  0  0  0  0  0  0  0  0  0  0
  146.1489  134.5396  162.4042 C   0  0  0  0  0  0  0  0  0  0  0  0
  147.0426  136.0239  162.6573 S   0  0  0  0  0  0  0  0  0  0  0  0
  150.9244  141.6677  157.3235 C   0  0  0  0  0  0  0  0  0  0  0  0
  151.2567  142.6945  158.4211 C   0  0  0  0  0  0  0  0  0  0  0  0
  153.7168  143.0385  160.6865 H   0  0  0  0  0  0  0  0  0  0  0  0
  151.9975  143.3743  160.9131 H   0  0  0  0  0  0  0  0  0  0  0  0
  152.9356  144.2992  159.7364 H   0  0  0  0  0  0  0  0  0  0  0  0
  153.2232  140.6981  160.2164 H   0  0  0  0  0  0  0  0  0  0  0  0
  151.5157  140.9998  160.4495 H   0  0  0  0  0  0  0  0  0  0  0  0
  152.8261  139.8862  157.9227 H   0  0  0  0  0  0  0  0  0  0  0  0
  151.8797  138.9940  159.0937 H   0  0  0  0  0  0  0  0  0  0  0  0
  148.6354  138.8897  155.5234 H   0  0  0  0  0  0  0  0  0  0  0  0
  148.9923  140.5948  155.6839 H   0  0  0  0  0  0  0  0  0  0  0  0
  148.1350  139.7449  156.9654 H   0  0  0  0  0  0  0  0  0  0  0  0
  151.0810  138.2393  155.1384 H   0  0  0  0  0  0  0  0  0  0  0  0
  152.3300  138.9411  156.1545 H   0  0  0  0  0  0  0  0  0  0  0  0
  151.3659  139.9580  155.0896 H   0  0  0  0  0  0  0  0  0  0  0  0
  149.8300  137.1412  156.8320 H   0  0  0  0  0  0  0  0  0  0  0  0
  151.0644  137.5547  157.9765 H   0  0  0  0  0  0  0  0  0  0  0  0
  148.7581  138.8206  158.9057 H   0  0  0  0  0  0  0  0  0  0  0  0
  145.7628  133.9183  163.1985 H   0  0  0  0  0  0  0  0  0  0  0  0
  151.7150  141.6763  156.5730 H   0  0  0  0  0  0  0  0  0  0  0  0
  150.0146  142.0015  156.8282 H   0  0  0  0  0  0  0  0  0  0  0  0
  150.4187  142.7691  159.1163 H   0  0  0  0  0  0  0  0  0  0  0  0
  151.3745  143.6797  157.9684 H   0  0  0  0  0  0  0  0  0  0  0  0
  1  2  1  0  0  0  0
  1 21  1  0  0  0  0
  1 22  1  0  0  0  0
  1 23  1  0  0  0  0
  2 20  1  0  0  0  0
  2  3  1  0  0  0  0
  3  4  1  0  0  0  0
  3 24  1  0  0  0  0
  3 25  1  0  0  0  0
  4  5  1  0  0  0  0
  4 26  1  0  0  0  0
  4 27  1  0  0  0  0
  5  6  1  0  0  0  0
  5 19  1  0  0  0  0
  6  7  1  0  0  0  0
  6  8  1  0  0  0  0
  6  9  1  0  0  0  0
  7 28  1  0  0  0  0
  7 29  1  0  0  0  0
  7 30  1  0  0  0  0
  8 31  1  0  0  0  0
  8 32  1  0  0  0  0
  8 33  1  0  0  0  0
  9 10  1  0  0  0  0
  9 34  1  0  0  0  0
  9 35  1  0  0  0  0
 10 11  1  0  0  0  0
 10 36  1  0  0  0  0
 11 12  2  0  0  0  0
 11 13  1  0  0  0  0
 13 14  1  0  0  0  0
 14 18  1  0  0  0  0
 14 15  2  0  0  0  0
 15 16  1  0  0  0  0
 16 17  2  0  0  0  0
 17 18  1  0  0  0  0
 17 37  1  0  0  0  0
 19 20  1  0  0  0  0
 19 38  1  0  0  0  0
 19 39  1  0  0  0  0
 20 40  1  0  0  0  0
 20 41  1  0  0  0  0
M  CHG  1  13  -1
M  END
> <s_m_source_file>
AV-unprocessed.smi

> <i_m_source_file_index>
1572

> <i_lp_mmshare_version>
43012

> <i_f3d_flags>
0

> <s_epik_input>
W0NIM11OMVtDSDJdW0NIMl1OKFtDSDJdW0NIMl0xKUMoW0NIM10pKFtDSDNdKVtDSDJdW05IXUMoPU8pW05IXWMybm5bY0hdczI=

> <s_epik_cmdline>
J2VwaWtfcHl0aG9uJywgJy1waCcsICc3LjAnLCAnLXRuJywgJzgnLCAnLW1hJywgJzIwMCcsICctbWV0YWxfYmluZGluZycsICctaW1hZScsICc8aW5maWxlLm1hZT4nLCAnLW9tYWUnLCAnPG91dGZpbGUubWFlPic=

> <r_lp_tautomer_probability>
1

> <r_epik_Ionization_Penalty>
6.61874

> <r_epik_Ionization_Penalty_Charging>
3.54798

> <r_epik_Ionization_Penalty_Neutral>
3.07076

> <r_epik_State_Penalty>
5.68339

> <r_epik_Charging_Adjusted_Penalty>
9.23137

> <i_epik_Tot_Q>
-1

> <i_epik_Tot_abs_Q>
1

> <r_epik_Metal_State_Penalty>
2.66763

> <b_epik_Metal_Only>
1

> <s_lp_Force_Field>
OPLS_2005

> <r_lp_Energy>
47.6706

> <b_lp_Chiralities_Consistent>
1

> <s_lp_Variant>
AV-unprocessed.smi:1572-6

> <Gold.Version>
5.8.1

> <Gold.Id.Protein>
6NUR|6NUR_protein|mol2

> <Gold.PLP.Fitness>
44.2383

> <Gold.PLP.PLP>
-33.2334

> <Gold.PLP.part.hbond>
-3.0000

> <Gold.PLP.part.metal>
0.0000

> <Gold.PLP.part.buried>
-6.0415

> <Gold.PLP.part.nonpolar>
-25.9799

> <Gold.PLP.part.repulsive>
0.2061

> <Gold.PLP.ligand.clash>
0.0000

> <Gold.PLP.ligand.torsion>
0.5223

> <Gold.PLP.Chemscore.Hbond>
3.9948

> <Gold.PLP.Chemscore.CHOScore>
0.0000

> <Gold.PLP.Chemscore.Metal>
0.0000

> <Gold.Chemscore.Hbonds>
donor molecule, donor type, donor heavy atom, donor atom, acceptor molecule, acceptor atom, score
      P1  H  6896  6908       L1    12  0.98
      P1  H  6931  6943       L1    13  0.16
      P1  H  6934  6947       L1    13  1.52

> <Gold.PLP.Chemscore.Internal.Correction>
0.0650

> <Gold.Rescore>
     Score         DG    S(hbond)    S(metal)    S(lipo)     H(rot)  DE(clash)    DE(int)     intcor
     16.13     -16.85       2.07        0.00      73.89       1.63       0.01       0.70       ----

> <Gold.Chemscore.Fitness>
16.1333

> <Gold.Chemscore.DG>
-16.8450

> <Gold.Chemscore.ZeroCoef>
-5.4800

> <Gold.Chemscore.Hbond>
2.0659

> <Gold.Chemscore.Metal>
0.0000

> <Gold.Chemscore.Lipo>
73.8865

> <Gold.Chemscore.Internal_Hbond>
0.0000

> <Gold.Chemscore.DEClash>
0.0127

> <Gold.Chemscore.DEInternal>
0.6991

> <Gold.Chemscore.Rot>
1.6328

> <Gold.Chemscore.Internal.Correction>
   9.000000E+99

> <Gold.Chemscore.Hbonds>
donor molecule, donor type, donor heavy atom, donor atom, acceptor molecule, acceptor atom, score
      P1  H  6896  6908       L1    12  0.91
      P1  H  6931  6943       L1    13  0.02
      P1  H  6934  6947       L1    13  0.62

> <Gold.Chemscore.Hbond.Weighted>
-6.9003

> <Gold.Chemscore.Metal.Weighted>
-0.0000

> <Gold.Chemscore.Lipo.Weighted>
-8.6447

> <Gold.Chemscore.Internal_Hbond.Weighted>
0.0000

> <Gold.Chemscore.DEClash.Weighted>
0.0127

> <Gold.Chemscore.DEInternal.Weighted>
0.6991

> <Gold.Chemscore.Rot.Weighted>
4.1800

> <Gold.Chemscore.Internal.Correction.Weighted>
   9.000000E+99

> <Gold.Protein.RotatedTorsions>
[ 6907 6896 6895 6894 ] final  169.09 input  -60.11 | X-H torsion
[ 7974 7965 7964 7962 ] final  115.16 input  175.53 | X-H torsion
[ 8008 7997 7996 7995 ] final  138.51 input   59.86 | X-H torsion
[ 10167 10162 10161 10158 ] final -132.02 input  -65.29 | X-H torsion
[ 10718 10713 10712 10709 ] final  -24.86 input   66.30 | X-H torsion
[ 10763 10752 10751 10750 ] final  154.11 input  -60.55 | X-H torsion
[ 11005 11000 10999 10996 ] final  114.18 input  -57.11 | X-H torsion

> <Gold.Protein.ActiveResidues>
 VAL166  LYS551  ARG553  GLY616  TRP617  ASP618  TYR619  PRO620  LYS621  CYS622 
 ASP623  PHE694  ASN695  SER759  ASP760  ASP761  ALA762  ILE779  LEU786  VAL792 
 PHE793  MET794  SER795  GLU796  ALA797  LYS798  CYS799  TRP800  GLU811  SER814 

> <Gold.Protein.RotatedAtoms>
  151.8374  133.3418  159.3631 H   0  0  0  0  0  0  0  0  0  0  0  0  # atno 6907 bound_to 6896
  150.7245  134.5425  159.5763 H   0  0  0  0  0  0  0  0  0  0  0  0  # atno 6908 bound_to 6896
  152.2891  134.7743  160.0432 H   0  0  0  0  0  0  0  0  0  0  0  0  # atno 6909 bound_to 6896
  145.1954  139.2979  143.4346 H   0  0  0  0  0  0  0  0  0  0  0  0  # atno 7974 bound_to 7965
  156.2997  140.2392  156.4085 H   0  0  0  0  0  0  0  0  0  0  0  0  # atno 8008 bound_to 7997
  154.8463  140.0426  157.1594 H   0  0  0  0  0  0  0  0  0  0  0  0  # atno 8009 bound_to 7997
  154.9048  140.2982  155.5302 H   0  0  0  0  0  0  0  0  0  0  0  0  # atno 8010 bound_to 7997
  139.9129  143.6473  152.2571 H   0  0  0  0  0  0  0  0  0  0  0  0  # atno 10167 bound_to 10162
  156.4720  130.4526  149.6863 H   0  0  0  0  0  0  0  0  0  0  0  0  # atno 10718 bound_to 10713
  154.1470  135.2817  155.3145 H   0  0  0  0  0  0  0  0  0  0  0  0  # atno 10763 bound_to 10752
  154.6245  135.5456  153.7615 H   0  0  0  0  0  0  0  0  0  0  0  0  # atno 10764 bound_to 10752
  153.0233  135.6447  154.1615 H   0  0  0  0  0  0  0  0  0  0  0  0  # atno 10765 bound_to 10752
  139.8973  134.9563  156.6853 H   0  0  0  0  0  0  0  0  0  0  0  0  # atno 11005 bound_to 11000
  146.3428  140.2180  142.8591 LP  0  0  0  0  0  0  0  0  0  0  0  0  # atno 17320 bound_to 7965
  145.0000  140.8623  143.5287 LP  0  0  0  0  0  0  0  0  0  0  0  0  # atno 17321 bound_to 7965
  139.6927  144.7645  151.1410 LP  0  0  0  0  0  0  0  0  0  0  0  0  # atno 17342 bound_to 10162
  140.7681  143.5567  150.9144 LP  0  0  0  0  0  0  0  0  0  0  0  0  # atno 17343 bound_to 10162
  156.3608  130.7480  151.2452 LP  0  0  0  0  0  0  0  0  0  0  0  0  # atno 17370 bound_to 10713
  157.7490  131.0350  150.4346 LP  0  0  0  0  0  0  0  0  0  0  0  0  # atno 17371 bound_to 10713
  140.7267  133.9094  155.8183 LP  0  0  0  0  0  0  0  0  0  0  0  0  # atno 17394 bound_to 11000
  141.0185  134.0922  157.4146 LP  0  0  0  0  0  0  0  0  0  0  0  0  # atno 17395 bound_to 11000

$$$$
