AV-unprocessed.smi:2747|AV-procd|sdf|10579|dock7
  -GOLD-   2272015 33D 1   1.00000     0.00000
 Structure written by MMmdl.
 23 24  0  0  0  0  0  0  0  0  2 V2000
  153.1851  136.7640  160.4992 O   0  5  0  0  0  0  0  0  0  0  0  0
  153.5990  137.8638  161.0835 C   0  0  2  0  0  0  0  0  0  0  0  0
  154.4207  138.6701  160.0396 C   0  0  0  0  0  0  0  0  0  0  0  0
  153.6827  139.7472  159.3834 N   0  0  0  0  0  0  0  0  0  0  0  0
  153.2547  139.5898  158.0952 N   0  0  0  0  0  0  0  0  0  0  0  0
  152.6027  140.6560  157.7372 N   0  0  0  0  0  0  0  0  0  0  0  0
  152.5913  141.5312  158.8102 C   0  0  0  0  0  0  0  0  0  0  0  0
  152.0253  142.8156  158.9719 C   0  0  0  0  0  0  0  0  0  0  0  0
  152.1579  143.5055  160.1972 C   0  0  0  0  0  0  0  0  0  0  0  0
  151.4499  145.0737  160.3564 Cl  0  0  0  0  0  0  0  0  0  0  0  0
  152.8603  142.9168  161.2765 C   0  0  0  0  0  0  0  0  0  0  0  0
  153.0323  143.7470  162.7821 Cl  0  0  0  0  0  0  0  0  0  0  0  0
  153.4284  141.6360  161.1294 C   0  0  0  0  0  0  0  0  0  0  0  0
  153.2853  140.9668  159.9020 C   0  0  0  0  0  0  0  0  0  0  0  0
  154.4752  137.4537  162.2921 C   0  0  0  0  0  0  0  0  0  0  0  0
  153.7195  136.9228  163.2551 F   0  0  0  0  0  0  0  0  0  0  0  0
  155.4176  136.5751  161.9415 F   0  0  0  0  0  0  0  0  0  0  0  0
  155.0768  138.5325  162.7955 F   0  0  0  0  0  0  0  0  0  0  0  0
  152.8713  138.5708  161.4853 H   0  0  0  0  0  0  0  0  0  0  0  0
  155.2972  139.1087  160.5183 H   0  0  0  0  0  0  0  0  0  0  0  0
  154.8087  138.0072  159.2645 H   0  0  0  0  0  0  0  0  0  0  0  0
  151.4866  143.2695  158.1532 H   0  0  0  0  0  0  0  0  0  0  0  0
  153.9707  141.1748  161.9419 H   0  0  0  0  0  0  0  0  0  0  0  0
  1  2  1  0  0  0  0
  2  3  1  0  0  0  0
  2 15  1  0  0  0  0
  2 19  1  0  0  0  0
  3  4  1  0  0  0  0
  3 20  1  0  0  0  0
  3 21  1  0  0  0  0
  4 14  1  0  0  0  0
  4  5  1  0  0  0  0
  5  6  2  0  0  0  0
  6  7  1  0  0  0  0
  7 14  2  0  0  0  0
  7  8  1  0  0  0  0
  8  9  2  0  0  0  0
  8 22  1  0  0  0  0
  9 10  1  0  0  0  0
  9 11  1  0  0  0  0
 11 12  1  0  0  0  0
 11 13  2  0  0  0  0
 13 14  1  0  0  0  0
 13 23  1  0  0  0  0
 15 16  1  0  0  0  0
 15 17  1  0  0  0  0
 15 18  1  0  0  0  0
M  CHG  1   1  -1
M  END
> <s_m_source_file>
AV-unprocessed.smi

> <i_m_source_file_index>
2747

> <i_lp_mmshare_version>
43012

> <i_f3d_flags>
0

> <s_epik_input>
RkMoRikoRilbQ0BIXShbT0hdKVtDSDJdbihubjEpYyhjMTIpW2NIXWMoQ2wpYyhDbClbY0hdMg==

> <s_epik_cmdline>
J2VwaWtfcHl0aG9uJywgJy1waCcsICc3LjAnLCAnLXRuJywgJzgnLCAnLW1hJywgJzIwMCcsICctbWV0YWxfYmluZGluZycsICctaW1hZScsICc8aW5maWxlLm1hZT4nLCAnLW9tYWUnLCAnPG91dGZpbGUubWFlPic=

> <r_lp_tautomer_probability>
1

> <r_epik_Ionization_Penalty>
1.2724

> <r_epik_Ionization_Penalty_Charging>
1.2724

> <r_epik_Ionization_Penalty_Neutral>
1.57383e-10

> <r_epik_State_Penalty>
1.34397

> <r_epik_Charging_Adjusted_Penalty>
2.61637

> <i_epik_Tot_Q>
-1

> <i_epik_Tot_abs_Q>
1

> <r_epik_Metal_State_Penalty>
1.34397

> <b_epik_Metal_Only>
0

> <s_lp_Force_Field>
OPLS_2005

> <r_lp_Energy>
12.5023

> <b_lp_Chiralities_Consistent>
1

> <s_lp_Variant>
AV-unprocessed.smi:2747-3

> <Gold.Version>
5.8.1

> <Gold.Id.Protein>
6NUR|6NUR_protein|mol2

> <Gold.PLP.Fitness>
46.4899

> <Gold.PLP.PLP>
-39.8392

> <Gold.PLP.part.hbond>
-2.9763

> <Gold.PLP.part.metal>
0.0000

> <Gold.PLP.part.buried>
-2.7048

> <Gold.PLP.part.nonpolar>
-33.2909

> <Gold.PLP.part.repulsive>
0.0000

> <Gold.PLP.ligand.clash>
0.0000

> <Gold.PLP.ligand.torsion>
0.8050

> <Gold.PLP.Chemscore.Hbond>
2.7500

> <Gold.PLP.Chemscore.CHOScore>
0.0000

> <Gold.PLP.Chemscore.Metal>
0.0000

> <Gold.Chemscore.Hbonds>
donor molecule, donor type, donor heavy atom, donor atom, acceptor molecule, acceptor atom, score
      P1  H  6896  6908       L1     1  1.62
      P1  H  7997  8008       L1     5  0.65

> <Gold.PLP.Chemscore.Internal.Correction>
0.0107

> <Gold.Rescore>
     Score         DG    S(hbond)    S(metal)    S(lipo)     H(rot)  DE(clash)    DE(int)     intcor
     16.79     -17.50       1.03        0.00     102.97       1.35       0.31       0.40       ----

> <Gold.Chemscore.Fitness>
16.7880

> <Gold.Chemscore.DG>
-17.5014

> <Gold.Chemscore.ZeroCoef>
-5.4800

> <Gold.Chemscore.Hbond>
1.0250

> <Gold.Chemscore.Metal>
0.0000

> <Gold.Chemscore.Lipo>
102.9667

> <Gold.Chemscore.Internal_Hbond>
0.0000

> <Gold.Chemscore.DEClash>
0.3098

> <Gold.Chemscore.DEInternal>
0.4036

> <Gold.Chemscore.Rot>
1.3474

> <Gold.Chemscore.Internal.Correction>
   9.000000E+99

> <Gold.Chemscore.Hbonds>
donor molecule, donor type, donor heavy atom, donor atom, acceptor molecule, acceptor atom, score
      P1  H  6896  6908       L1     1  0.80
      P1  H  7997  8008       L1     5  0.03

> <Gold.Chemscore.Hbond.Weighted>
-3.4237

> <Gold.Chemscore.Metal.Weighted>
-0.0000

> <Gold.Chemscore.Lipo.Weighted>
-12.0471

> <Gold.Chemscore.Internal_Hbond.Weighted>
0.0000

> <Gold.Chemscore.DEClash.Weighted>
0.3098

> <Gold.Chemscore.DEInternal.Weighted>
0.4036

> <Gold.Chemscore.Rot.Weighted>
3.4494

> <Gold.Chemscore.Internal.Correction.Weighted>
   9.000000E+99

> <Gold.Protein.RotatedTorsions>
[ 6907 6896 6895 6894 ] final  -90.51 input  -60.11 | X-H torsion
[ 7974 7965 7964 7962 ] final   73.05 input  175.53 | X-H torsion
[ 8008 7997 7996 7995 ] final  -93.89 input   59.86 | X-H torsion
[ 10167 10162 10161 10158 ] final  -20.81 input  -65.29 | X-H torsion
[ 10718 10713 10712 10709 ] final -128.78 input   66.30 | X-H torsion
[ 10763 10752 10751 10750 ] final   -5.16 input  -60.55 | X-H torsion
[ 11005 11000 10999 10996 ] final  154.95 input  -57.11 | X-H torsion

> <Gold.Protein.ActiveResidues>
 VAL166  LYS551  ARG553  GLY616  TRP617  ASP618  TYR619  PRO620  LYS621  CYS622 
 ASP623  PHE694  ASN695  SER759  ASP760  ASP761  ALA762  ILE779  LEU786  VAL792 
 PHE793  MET794  SER795  GLU796  ALA797  LYS798  CYS799  TRP800  GLU811  SER814 

> <Gold.Protein.RotatedAtoms>
  150.6882  134.2420  159.4476 H   0  0  0  0  0  0  0  0  0  0  0  0  # atno 6907 bound_to 6896
  152.0364  134.9735  160.0582 H   0  0  0  0  0  0  0  0  0  0  0  0  # atno 6908 bound_to 6896
  152.1254  133.4342  159.4732 H   0  0  0  0  0  0  0  0  0  0  0  0  # atno 6909 bound_to 6896
  145.7457  139.2739  143.1460 H   0  0  0  0  0  0  0  0  0  0  0  0  # atno 7974 bound_to 7965
  154.7414  140.0494  157.0814 H   0  0  0  0  0  0  0  0  0  0  0  0  # atno 8008 bound_to 7997
  155.0173  140.3143  155.4787 H   0  0  0  0  0  0  0  0  0  0  0  0  # atno 8009 bound_to 7997
  156.2865  140.2173  156.5290 H   0  0  0  0  0  0  0  0  0  0  0  0  # atno 8010 bound_to 7997
  140.7278  143.4687  151.0277 H   0  0  0  0  0  0  0  0  0  0  0  0  # atno 10167 bound_to 10162
  156.1983  130.6840  151.0508 H   0  0  0  0  0  0  0  0  0  0  0  0  # atno 10718 bound_to 10713
  153.3947  135.7003  153.6469 H   0  0  0  0  0  0  0  0  0  0  0  0  # atno 10763 bound_to 10752
  153.5027  135.3648  155.2548 H   0  0  0  0  0  0  0  0  0  0  0  0  # atno 10764 bound_to 10752
  154.8705  135.4116  154.3270 H   0  0  0  0  0  0  0  0  0  0  0  0  # atno 10765 bound_to 10752
  140.1536  134.8658  157.2486 H   0  0  0  0  0  0  0  0  0  0  0  0  # atno 11005 bound_to 11000
  146.0405  140.8170  142.9831 LP  0  0  0  0  0  0  0  0  0  0  0  0  # atno 17320 bound_to 7965
  144.6860  140.2903  143.7279 LP  0  0  0  0  0  0  0  0  0  0  0  0  # atno 17321 bound_to 7965
  139.8377  143.7605  152.3180 LP  0  0  0  0  0  0  0  0  0  0  0  0  # atno 17342 bound_to 10162
  139.7743  144.7466  151.0179 LP  0  0  0  0  0  0  0  0  0  0  0  0  # atno 17343 bound_to 10162
  157.6971  131.0790  150.6936 LP  0  0  0  0  0  0  0  0  0  0  0  0  # atno 17370 bound_to 10713
  156.6994  130.4618  149.5577 LP  0  0  0  0  0  0  0  0  0  0  0  0  # atno 17371 bound_to 10713
  140.2574  134.3611  155.7419 LP  0  0  0  0  0  0  0  0  0  0  0  0  # atno 17394 bound_to 11000
  141.2202  133.7350  156.9029 LP  0  0  0  0  0  0  0  0  0  0  0  0  # atno 17395 bound_to 11000

$$$$
