AV-unprocessed.smi:2090|AV-procd|sdf|8536|dock6
  -GOLD-   2272011253D 1   1.00000     0.00000
 Structure written by MMmdl.
 41 42  0  0  0  0  0  0  0  0  3 V2000
  147.3195  134.1060  162.7203 C   0  0  0  0  0  0  0  0  0  0  0  0
  147.7759  135.2825  161.9275 C   0  0  0  0  0  0  0  0  0  0  0  0
  148.7102  135.4330  160.9420 C   0  0  0  0  0  0  0  0  0  0  0  0
  148.6297  136.8169  160.6315 C   0  0  0  0  0  0  0  0  0  0  0  0
  149.4597  137.3830  159.6278 N   0  0  0  0  0  0  0  0  0  0  0  0
  150.7104  137.8656  159.7426 C   0  0  0  0  0  0  0  0  0  0  0  0
  151.2882  137.8505  160.8363 O   0  0  0  0  0  0  0  0  0  0  0  0
  151.1921  138.3391  158.5597 N   0  5  0  0  0  0  0  0  0  0  0  0
  152.0507  139.5144  158.4213 C   0  0  0  0  0  0  0  0  0  0  0  0
  152.0774  140.3138  159.7399 C   0  0  0  0  0  0  0  0  0  0  0  0
  151.7171  141.7406  159.5283 N   0  3  2  0  0  0  0  0  0  0  0  0
  152.0996  142.2548  158.1836 C   0  0  0  0  0  0  0  0  0  0  0  0
  151.5713  143.6820  157.9650 C   0  0  0  0  0  0  0  0  0  0  0  0
  152.0720  144.6352  159.0630 C   0  0  1  0  0  0  0  0  0  0  0  0
  151.5309  146.0589  158.8711 C   0  0  0  0  0  0  0  0  0  0  0  0
  151.6962  144.0629  160.4399 C   0  0  0  0  0  0  0  0  0  0  0  0
  152.2191  142.6267  160.6106 C   0  0  0  0  0  0  0  0  0  0  0  0
  147.7272  137.4530  161.3639 N   0  0  0  0  0  0  0  0  0  0  0  0
  147.1763  136.4735  162.1985 O   0  0  0  0  0  0  0  0  0  0  0  0
  147.5214  133.1767  162.1874 H   0  0  0  0  0  0  0  0  0  0  0  0
  146.2476  134.1583  162.9123 H   0  0  0  0  0  0  0  0  0  0  0  0
  147.8345  134.0650  163.6802 H   0  0  0  0  0  0  0  0  0  0  0  0
  149.3475  134.6744  160.5125 H   0  0  0  0  0  0  0  0  0  0  0  0
  149.0559  137.4299  158.7039 H   0  0  0  0  0  0  0  0  0  0  0  0
  153.0701  139.2461  158.1410 H   0  0  0  0  0  0  0  0  0  0  0  0
  151.6958  140.1679  157.6241 H   0  0  0  0  0  0  0  0  0  0  0  0
  151.3703  139.8488  160.4286 H   0  0  0  0  0  0  0  0  0  0  0  0
  153.0529  140.2465  160.2246 H   0  0  0  0  0  0  0  0  0  0  0  0
  153.1859  142.2383  158.0819 H   0  0  0  0  0  0  0  0  0  0  0  0
  151.7023  141.6032  157.4044 H   0  0  0  0  0  0  0  0  0  0  0  0
  151.8862  144.0424  156.9851 H   0  0  0  0  0  0  0  0  0  0  0  0
  150.4805  143.6680  157.9531 H   0  0  0  0  0  0  0  0  0  0  0  0
  153.1603  144.6836  159.0012 H   0  0  0  0  0  0  0  0  0  0  0  0
  150.4415  146.0801  158.9157 H   0  0  0  0  0  0  0  0  0  0  0  0
  151.8323  146.4659  157.9056 H   0  0  0  0  0  0  0  0  0  0  0  0
  151.9090  146.7296  159.6432 H   0  0  0  0  0  0  0  0  0  0  0  0
  152.1000  144.6958  161.2311 H   0  0  0  0  0  0  0  0  0  0  0  0
  150.6118  144.0711  160.5609 H   0  0  0  0  0  0  0  0  0  0  0  0
  151.8948  142.2440  161.5793 H   0  0  0  0  0  0  0  0  0  0  0  0
  153.3104  142.6178  160.6134 H   0  0  0  0  0  0  0  0  0  0  0  0
  150.7092  141.7777  159.5822 H   0  0  0  0  0  0  0  0  0  0  0  0
  1  2  1  0  0  0  0
  1 20  1  0  0  0  0
  1 21  1  0  0  0  0
  1 22  1  0  0  0  0
  2 19  1  0  0  0  0
  2  3  2  0  0  0  0
  3  4  1  0  0  0  0
  3 23  1  0  0  0  0
  4  5  1  0  0  0  0
  4 18  2  0  0  0  0
  5  6  1  0  0  0  0
  5 24  1  0  0  0  0
  6  7  2  0  0  0  0
  6  8  1  0  0  0  0
  8  9  1  0  0  0  0
  9 10  1  0  0  0  0
  9 25  1  0  0  0  0
  9 26  1  0  0  0  0
 10 11  1  0  0  0  0
 10 27  1  0  0  0  0
 10 28  1  0  0  0  0
 11 17  1  0  0  0  0
 11 12  1  0  0  0  0
 11 41  1  0  0  0  0
 12 13  1  0  0  0  0
 12 29  1  0  0  0  0
 12 30  1  0  0  0  0
 13 14  1  0  0  0  0
 13 31  1  0  0  0  0
 13 32  1  0  0  0  0
 14 15  1  0  0  0  0
 14 16  1  0  0  0  0
 14 33  1  0  0  0  0
 15 34  1  0  0  0  0
 15 35  1  0  0  0  0
 15 36  1  0  0  0  0
 16 17  1  0  0  0  0
 16 37  1  0  0  0  0
 16 38  1  0  0  0  0
 17 39  1  0  0  0  0
 17 40  1  0  0  0  0
 18 19  1  0  0  0  0
M  CHG  1   8  -1
M  CHG  1  11   1
M  END
> <s_m_source_file>
AV-unprocessed.smi

> <i_m_source_file_index>
2090

> <i_lp_mmshare_version>
43012

> <i_f3d_flags>
0

> <s_epik_input>
W0NIM11jMVtjSF1jKG5vMSlbTkhdQyg9TylbTkhdW0NIMl1bQ0gyXU4yW0NIMl1bQ0gyXVtDSF0oW0NIM10pW0NIMl1bQ0gyXTI=

> <s_epik_cmdline>
J2VwaWtfcHl0aG9uJywgJy1waCcsICc3LjAnLCAnLXRuJywgJzgnLCAnLW1hJywgJzIwMCcsICctbWV0YWxfYmluZGluZycsICctaW1hZScsICc8aW5maWxlLm1hZT4nLCAnLW9tYWUnLCAnPG91dGZpbGUubWFlPic=

> <r_epik_Ionization_Penalty>
6.7721

> <r_epik_Ionization_Penalty_Charging>
6.7721

> <r_epik_Ionization_Penalty_Neutral>
5.78572e-06

> <r_epik_State_Penalty>
6.79704

> <r_epik_Charging_Adjusted_Penalty>
13.5691

> <i_epik_Tot_Q>
0

> <i_epik_Tot_abs_Q>
2

> <r_epik_Metal_State_Penalty>
2.73105

> <b_epik_Metal_Only>
1

> <s_lp_Force_Field>
OPLS_2005

> <r_lp_Energy>
11.0836

> <b_lp_Chiralities_Consistent>
1

> <s_lp_Variant>
AV-unprocessed.smi:2090-5

> <Gold.Version>
5.8.1

> <Gold.Id.Protein>
6NUR|6NUR_protein|mol2

> <Gold.PLP.Fitness>
45.1743

> <Gold.PLP.PLP>
-40.3107

> <Gold.PLP.part.hbond>
-3.1084

> <Gold.PLP.part.metal>
0.0000

> <Gold.PLP.part.buried>
-5.7540

> <Gold.PLP.part.nonpolar>
-31.4493

> <Gold.PLP.part.repulsive>
0.3577

> <Gold.PLP.ligand.clash>
0.0000

> <Gold.PLP.ligand.torsion>
1.7420

> <Gold.PLP.Chemscore.Hbond>
2.7673

> <Gold.PLP.Chemscore.CHOScore>
0.0000

> <Gold.PLP.Chemscore.Metal>
0.0000

> <Gold.Chemscore.Hbonds>
donor molecule, donor type, donor heavy atom, donor atom, acceptor molecule, acceptor atom, score
      P1  H  6931  6943       L1    18  0.13
      P1  H  6934  6947       L1    18  0.74

> <Gold.PLP.Chemscore.Internal.Correction>
0.0459

> <Gold.Rescore>
     Score         DG    S(hbond)    S(metal)    S(lipo)     H(rot)  DE(clash)    DE(int)     intcor
     17.95     -21.12       2.62        0.00      92.60       1.54       0.08       3.09       ----

> <Gold.Chemscore.Fitness>
17.9452

> <Gold.Chemscore.DG>
-21.1175

> <Gold.Chemscore.ZeroCoef>
-5.4800

> <Gold.Chemscore.Hbond>
2.6190

> <Gold.Chemscore.Metal>
0.0000

> <Gold.Chemscore.Lipo>
92.6030

> <Gold.Chemscore.Internal_Hbond>
0.0000

> <Gold.Chemscore.DEClash>
0.0802

> <Gold.Chemscore.DEInternal>
3.0921

> <Gold.Chemscore.Rot>
1.5409

> <Gold.Chemscore.Internal.Correction>
   9.000000E+99

> <Gold.Chemscore.Hbonds>
donor molecule, donor type, donor heavy atom, donor atom, acceptor molecule, acceptor atom, score
      P1  H  6934  6947       L1    18  0.73

> <Gold.Chemscore.Hbond.Weighted>
-8.7476

> <Gold.Chemscore.Metal.Weighted>
-0.0000

> <Gold.Chemscore.Lipo.Weighted>
-10.8345

> <Gold.Chemscore.Internal_Hbond.Weighted>
0.0000

> <Gold.Chemscore.DEClash.Weighted>
0.0802

> <Gold.Chemscore.DEInternal.Weighted>
3.0921

> <Gold.Chemscore.Rot.Weighted>
3.9446

> <Gold.Chemscore.Internal.Correction.Weighted>
   9.000000E+99

> <Gold.Protein.RotatedTorsions>
[ 6907 6896 6895 6894 ] final  104.41 input  -60.11 | X-H torsion
[ 7974 7965 7964 7962 ] final  136.14 input  175.53 | X-H torsion
[ 8008 7997 7996 7995 ] final   54.65 input   59.86 | X-H torsion
[ 10167 10162 10161 10158 ] final  -51.19 input  -65.29 | X-H torsion
[ 10718 10713 10712 10709 ] final  -80.95 input   66.30 | X-H torsion
[ 10763 10752 10751 10750 ] final  147.25 input  -60.55 | X-H torsion
[ 11005 11000 10999 10996 ] final   51.47 input  -57.11 | X-H torsion

> <Gold.Protein.ActiveResidues>
 VAL166  LYS551  ARG553  GLY616  TRP617  ASP618  TYR619  PRO620  LYS621  CYS622 
 ASP623  PHE694  ASN695  SER759  ASP760  ASP761  ALA762  ILE779  LEU786  VAL792 
 PHE793  MET794  SER795  GLU796  ALA797  LYS798  CYS799  TRP800  GLU811  SER814 

> <Gold.Protein.RotatedAtoms>
  152.5265  133.9681  159.7748 H   0  0  0  0  0  0  0  0  0  0  0  0  # atno 6907 bound_to 6896
  150.9958  133.6096  159.2709 H   0  0  0  0  0  0  0  0  0  0  0  0  # atno 6908 bound_to 6896
  151.3223  135.0828  159.9363 H   0  0  0  0  0  0  0  0  0  0  0  0  # atno 6909 bound_to 6896
  144.9594  139.4728  143.5487 H   0  0  0  0  0  0  0  0  0  0  0  0  # atno 7974 bound_to 7965
  155.4883  140.3470  155.4351 H   0  0  0  0  0  0  0  0  0  0  0  0  # atno 8008 bound_to 7997
  156.0994  140.1431  156.9516 H   0  0  0  0  0  0  0  0  0  0  0  0  # atno 8009 bound_to 7997
  154.4684  140.0909  156.7058 H   0  0  0  0  0  0  0  0  0  0  0  0  # atno 8010 bound_to 7997
  140.6600  143.2629  151.4468 H   0  0  0  0  0  0  0  0  0  0  0  0  # atno 10167 bound_to 10162
  156.0060  130.4589  150.3879 H   0  0  0  0  0  0  0  0  0  0  0  0  # atno 10718 bound_to 10713
  154.0352  135.2894  155.3363 H   0  0  0  0  0  0  0  0  0  0  0  0  # atno 10763 bound_to 10752
  154.6963  135.5206  153.8466 H   0  0  0  0  0  0  0  0  0  0  0  0  # atno 10764 bound_to 10752
  153.0623  135.6618  154.0561 H   0  0  0  0  0  0  0  0  0  0  0  0  # atno 10765 bound_to 10752
  140.0930  134.5184  155.8834 H   0  0  0  0  0  0  0  0  0  0  0  0  # atno 11005 bound_to 11000
  146.3348  139.8733  142.8836 LP  0  0  0  0  0  0  0  0  0  0  0  0  # atno 17320 bound_to 7965
  145.2723  141.0112  143.3765 LP  0  0  0  0  0  0  0  0  0  0  0  0  # atno 17321 bound_to 7965
  139.5832  144.1663  152.1995 LP  0  0  0  0  0  0  0  0  0  0  0  0  # atno 17342 bound_to 10162
  140.0995  144.5552  150.6999 LP  0  0  0  0  0  0  0  0  0  0  0  0  # atno 17343 bound_to 10162
  157.1955  131.0425  151.2678 LP  0  0  0  0  0  0  0  0  0  0  0  0  # atno 17370 bound_to 10713
  157.4023  130.7340  149.6776 LP  0  0  0  0  0  0  0  0  0  0  0  0  # atno 17371 bound_to 10713
  141.2083  133.6673  156.6365 LP  0  0  0  0  0  0  0  0  0  0  0  0  # atno 17394 bound_to 11000
  140.3326  134.7916  157.4337 LP  0  0  0  0  0  0  0  0  0  0  0  0  # atno 17395 bound_to 11000

$$$$
