AV-unprocessed.smi:1394|AV-procd|sdf|5668|dock1
  -GOLD-   22720 5293D 1   1.00000     0.00000
 Structure written by MMmdl.
 41 42  0  0  0  0  0  0  0  0  1 V2000
  152.5145  139.8867  158.7114 C   0  0  0  0  0  0  0  0  0  0  0  0
  152.0603  141.3418  158.9255 C   0  0  1  0  0  0  0  0  0  0  0  0
  153.1756  142.1605  159.6074 C   0  0  0  0  0  0  0  0  0  0  0  0
  152.7529  143.6180  159.8457 C   0  0  0  0  0  0  0  0  0  0  0  0
  152.3240  144.2879  158.5335 C   0  0  0  0  0  0  0  0  0  0  0  0
  151.2012  143.4927  157.8526 C   0  0  0  0  0  0  0  0  0  0  0  0
  151.6093  142.0237  157.6091 C   0  0  2  0  0  0  0  0  0  0  0  0
  150.4935  141.2923  157.0126 N   0  0  0  0  0  0  0  0  0  0  0  0
  150.5237  140.6502  155.8350 C   0  0  0  0  0  0  0  0  0  0  0  0
  151.5252  140.5955  155.1202 O   0  0  0  0  0  0  0  0  0  0  0  0
  149.2239  139.9490  155.4168 C   0  0  0  0  0  0  0  0  0  0  0  0
  148.0614  140.8534  155.3961 N   0  0  0  0  0  0  0  0  0  0  0  0
  147.7466  141.4605  154.1673 C   0  0  0  0  0  0  0  0  0  0  0  0
  146.7109  142.3009  154.0407 C   0  0  0  0  0  0  0  0  0  0  0  0
  145.9084  142.5758  155.2076 C   0  0  0  0  0  0  0  0  0  0  0  0
  146.1880  142.0082  156.4039 C   0  0  0  0  0  0  0  0  0  0  0  0
  145.3471  142.2844  157.6483 C   0  0  0  0  0  0  0  0  0  0  0  0
  146.1277  142.6186  158.6766 F   0  0  0  0  0  0  0  0  0  0  0  0
  144.4832  143.2813  157.4512 F   0  0  0  0  0  0  0  0  0  0  0  0
  144.6475  141.2018  157.9910 F   0  0  0  0  0  0  0  0  0  0  0  0
  147.3351  141.0863  156.5332 C   0  0  0  0  0  0  0  0  0  0  0  0
  147.6320  140.5492  157.6019 O   0  0  0  0  0  0  0  0  0  0  0  0
  153.3540  139.8336  158.0178 H   0  0  0  0  0  0  0  0  0  0  0  0
  151.7120  139.2675  158.3102 H   0  0  0  0  0  0  0  0  0  0  0  0
  152.8318  139.4336  159.6508 H   0  0  0  0  0  0  0  0  0  0  0  0
  151.2066  141.3206  159.6048 H   0  0  0  0  0  0  0  0  0  0  0  0
  153.4467  141.7021  160.5591 H   0  0  0  0  0  0  0  0  0  0  0  0
  154.0750  142.1416  158.9903 H   0  0  0  0  0  0  0  0  0  0  0  0
  151.9291  143.6493  160.5601 H   0  0  0  0  0  0  0  0  0  0  0  0
  153.5753  144.1747  160.2958 H   0  0  0  0  0  0  0  0  0  0  0  0
  151.9928  145.3085  158.7271 H   0  0  0  0  0  0  0  0  0  0  0  0
  153.1802  144.3623  157.8617 H   0  0  0  0  0  0  0  0  0  0  0  0
  150.3058  143.5287  158.4749 H   0  0  0  0  0  0  0  0  0  0  0  0
  150.9391  143.9736  156.9094 H   0  0  0  0  0  0  0  0  0  0  0  0
  152.4524  142.0074  156.9152 H   0  0  0  0  0  0  0  0  0  0  0  0
  149.6293  141.2801  157.5348 H   0  0  0  0  0  0  0  0  0  0  0  0
  149.3832  139.5022  154.4346 H   0  0  0  0  0  0  0  0  0  0  0  0
  149.0286  139.1070  156.0838 H   0  0  0  0  0  0  0  0  0  0  0  0
  148.3995  141.2064  153.3450 H   0  0  0  0  0  0  0  0  0  0  0  0
  146.4842  142.7618  153.0905 H   0  0  0  0  0  0  0  0  0  0  0  0
  145.0712  143.2500  155.1065 H   0  0  0  0  0  0  0  0  0  0  0  0
  1  2  1  0  0  0  0
  1 23  1  0  0  0  0
  1 24  1  0  0  0  0
  1 25  1  0  0  0  0
  2  7  1  0  0  0  0
  2  3  1  0  0  0  0
  2 26  1  0  0  0  0
  3  4  1  0  0  0  0
  3 27  1  0  0  0  0
  3 28  1  0  0  0  0
  4  5  1  0  0  0  0
  4 29  1  0  0  0  0
  4 30  1  0  0  0  0
  5  6  1  0  0  0  0
  5 31  1  0  0  0  0
  5 32  1  0  0  0  0
  6  7  1  0  0  0  0
  6 33  1  0  0  0  0
  6 34  1  0  0  0  0
  7  8  1  0  0  0  0
  7 35  1  0  0  0  0
  8  9  1  0  0  0  0
  8 36  1  0  0  0  0
  9 10  2  0  0  0  0
  9 11  1  0  0  0  0
 11 12  1  0  0  0  0
 11 37  1  0  0  0  0
 11 38  1  0  0  0  0
 12 21  1  0  0  0  0
 12 13  1  0  0  0  0
 13 14  2  0  0  0  0
 13 39  1  0  0  0  0
 14 15  1  0  0  0  0
 14 40  1  0  0  0  0
 15 16  2  0  0  0  0
 15 41  1  0  0  0  0
 16 17  1  0  0  0  0
 16 21  1  0  0  0  0
 17 18  1  0  0  0  0
 17 19  1  0  0  0  0
 17 20  1  0  0  0  0
 21 22  2  0  0  0  0
M  END
> <s_m_source_file>
AV-unprocessed.smi

> <i_m_source_file_index>
1394

> <i_lp_mmshare_version>
43012

> <i_f3d_flags>
0

> <s_epik_input>
W0NIM11bQ0BASF0xW0NIMl1bQ0gyXVtDSDJdW0NIMl1bQ0BIXTFbTkhdQyg9TylbQ0gyXW4yW2NIXVtjSF1bY0hdYyhDKEYpKEYpRiljMj1P

> <s_epik_cmdline>
J2VwaWtfcHl0aG9uJywgJy1waCcsICc3LjAnLCAnLXRuJywgJzgnLCAnLW1hJywgJzIwMCcsICctbWV0YWxfYmluZGluZycsICctaW1hZScsICc8aW5maWxlLm1hZT4nLCAnLW9tYWUnLCAnPG91dGZpbGUubWFlPic=

> <r_lp_tautomer_probability>
1

> <r_epik_Ionization_Penalty>
2.11487e-08

> <r_epik_Ionization_Penalty_Charging>
2.10183e-09

> <r_epik_Ionization_Penalty_Neutral>
1.90469e-08

> <r_epik_State_Penalty>
-0

> <r_epik_Charging_Adjusted_Penalty>
2.10183e-09

> <i_epik_Tot_Q>
0

> <i_epik_Tot_abs_Q>
0

> <r_epik_Metal_State_Penalty>
-0

> <b_epik_Metal_Only>
0

> <s_lp_Force_Field>
OPLS_2005

> <r_lp_Energy>
20.4612

> <b_lp_Chiralities_Consistent>
1

> <s_lp_Variant>
AV-unprocessed.smi:1394-4

> <Gold.Version>
5.8.1

> <Gold.Id.Protein>
6NUR|6NUR_protein|mol2

> <Gold.PLP.Fitness>
46.2774

> <Gold.PLP.PLP>
-41.7436

> <Gold.PLP.part.hbond>
-1.0000

> <Gold.PLP.part.metal>
0.0000

> <Gold.PLP.part.buried>
-7.1062

> <Gold.PLP.part.nonpolar>
-34.4056

> <Gold.PLP.part.repulsive>
0.0820

> <Gold.PLP.ligand.clash>
0.0000

> <Gold.PLP.ligand.torsion>
0.6789

> <Gold.PLP.Chemscore.Hbond>
0.8640

> <Gold.PLP.Chemscore.CHOScore>
1.0000

> <Gold.PLP.Chemscore.Metal>
0.0000

> <Gold.Chemscore.Hbonds>
donor molecule, donor type, donor heavy atom, donor atom, acceptor molecule, acceptor atom, score
      P1  H  7989  7998       L1    10  0.82
      L1  C    13    39       P1  7957  0.46

> <Gold.PLP.Chemscore.Internal.Correction>
0.2996

> <Gold.Rescore>
     Score         DG    S(hbond)    S(metal)    S(lipo)     H(rot)  DE(clash)    DE(int)     intcor
     12.52     -16.30       0.83        0.00     102.13       1.52       0.14       3.65       ----

> <Gold.Chemscore.Fitness>
12.5152

> <Gold.Chemscore.DG>
-16.3024

> <Gold.Chemscore.ZeroCoef>
-5.4800

> <Gold.Chemscore.Hbond>
0.8307

> <Gold.Chemscore.Metal>
0.0000

> <Gold.Chemscore.Lipo>
102.1347

> <Gold.Chemscore.Internal_Hbond>
0.0000

> <Gold.Chemscore.DEClash>
0.1376

> <Gold.Chemscore.DEInternal>
3.6497

> <Gold.Chemscore.Rot>
1.5242

> <Gold.Chemscore.Internal.Correction>
   9.000000E+99

> <Gold.Chemscore.Hbonds>
donor molecule, donor type, donor heavy atom, donor atom, acceptor molecule, acceptor atom, score
      P1  H  7989  7998       L1    10  0.81

> <Gold.Chemscore.Hbond.Weighted>
-2.7745

> <Gold.Chemscore.Metal.Weighted>
-0.0000

> <Gold.Chemscore.Lipo.Weighted>
-11.9498

> <Gold.Chemscore.Internal_Hbond.Weighted>
0.0000

> <Gold.Chemscore.DEClash.Weighted>
0.1376

> <Gold.Chemscore.DEInternal.Weighted>
3.6497

> <Gold.Chemscore.Rot.Weighted>
3.9019

> <Gold.Chemscore.Internal.Correction.Weighted>
   9.000000E+99

> <Gold.Protein.RotatedTorsions>
[ 6907 6896 6895 6894 ] final  -39.18 input  -60.11 | X-H torsion
[ 7974 7965 7964 7962 ] final  -65.66 input  175.53 | X-H torsion
[ 8008 7997 7996 7995 ] final   87.96 input   59.86 | X-H torsion
[ 10167 10162 10161 10158 ] final  165.30 input  -65.29 | X-H torsion
[ 10718 10713 10712 10709 ] final  104.93 input   66.30 | X-H torsion
[ 10763 10752 10751 10750 ] final -175.63 input  -60.55 | X-H torsion
[ 11005 11000 10999 10996 ] final  116.16 input  -57.11 | X-H torsion

> <Gold.Protein.ActiveResidues>
 VAL166  LYS551  ARG553  GLY616  TRP617  ASP618  TYR619  PRO620  LYS621  CYS622 
 ASP623  PHE694  ASN695  SER759  ASP760  ASP761  ALA762  ILE779  LEU786  VAL792 
 PHE793  MET794  SER795  GLU796  ALA797  LYS798  CYS799  TRP800  GLU811  SER814 

> <Gold.Protein.RotatedAtoms>
  150.9934  134.9263  159.7912 H   0  0  0  0  0  0  0  0  0  0  0  0  # atno 6907 bound_to 6896
  152.5257  134.3251  159.9172 H   0  0  0  0  0  0  0  0  0  0  0  0  # atno 6908 bound_to 6896
  151.3257  133.3980  159.2692 H   0  0  0  0  0  0  0  0  0  0  0  0  # atno 6909 bound_to 6896
  145.7515  140.8906  143.0477 H   0  0  0  0  0  0  0  0  0  0  0  0  # atno 7974 bound_to 7965
  155.9819  140.3376  155.6671 H   0  0  0  0  0  0  0  0  0  0  0  0  # atno 8008 bound_to 7997
  155.6538  140.0708  157.2596 H   0  0  0  0  0  0  0  0  0  0  0  0  # atno 8009 bound_to 7997
  154.4194  140.1721  156.1690 H   0  0  0  0  0  0  0  0  0  0  0  0  # atno 8010 bound_to 7997
  139.4903  144.4146  151.9259 H   0  0  0  0  0  0  0  0  0  0  0  0  # atno 10167 bound_to 10162
  157.6723  131.0815  150.5780 H   0  0  0  0  0  0  0  0  0  0  0  0  # atno 10718 bound_to 10713
  154.5821  135.2837  155.0722 H   0  0  0  0  0  0  0  0  0  0  0  0  # atno 10763 bound_to 10752
  154.2054  135.6417  153.5103 H   0  0  0  0  0  0  0  0  0  0  0  0  # atno 10764 bound_to 10752
  153.0092  135.5479  154.6478 H   0  0  0  0  0  0  0  0  0  0  0  0  # atno 10765 bound_to 10752
  139.9032  134.9594  156.7156 H   0  0  0  0  0  0  0  0  0  0  0  0  # atno 11005 bound_to 11000
  144.6849  139.9598  143.7480 LP  0  0  0  0  0  0  0  0  0  0  0  0  # atno 17320 bound_to 7965
  146.0352  139.3371  143.0731 LP  0  0  0  0  0  0  0  0  0  0  0  0  # atno 17321 bound_to 7965
  140.3588  144.2998  150.5937 LP  0  0  0  0  0  0  0  0  0  0  0  0  # atno 17342 bound_to 10162
  140.5421  143.2221  151.8068 LP  0  0  0  0  0  0  0  0  0  0  0  0  # atno 17343 bound_to 10162
  156.6081  130.4372  149.5870 LP  0  0  0  0  0  0  0  0  0  0  0  0  # atno 17370 bound_to 10713
  156.2452  130.6875  151.1594 LP  0  0  0  0  0  0  0  0  0  0  0  0  # atno 17371 bound_to 10713
  140.7041  133.9280  155.8043 LP  0  0  0  0  0  0  0  0  0  0  0  0  # atno 17394 bound_to 11000
  141.0349  134.0703  157.3970 LP  0  0  0  0  0  0  0  0  0  0  0  0  # atno 17395 bound_to 11000

$$$$
