AV-unprocessed.smi:1403|AV-procd|sdf|5704|dock2
  -GOLD-   22720 5333D 1   1.00000     0.00000
 Structure written by MMmdl.
 35 36  0  0  0  0  0  0  0  0  2 V2000
  151.3610  137.8735  159.2322 C   0  0  0  0  0  0  0  0  0  0  0  0
  150.4798  138.7631  158.3416 C   0  0  1  0  0  0  0  0  0  0  0  0
  150.8728  140.1554  158.5448 N   0  0  0  0  0  0  0  0  0  0  0  0
  152.1269  140.6308  158.5000 C   0  0  0  0  0  0  0  0  0  0  0  0
  153.1126  139.9248  158.2825 O   0  0  0  0  0  0  0  0  0  0  0  0
  152.2861  142.1311  158.7800 C   0  0  0  0  0  0  0  0  0  0  0  0
  152.6473  142.4193  160.1772 N   0  0  0  0  0  0  0  0  0  0  0  0
  153.5483  141.5472  160.8131 C   0  0  0  0  0  0  0  0  0  0  0  0
  153.9379  141.7348  162.0884 C   0  0  0  0  0  0  0  0  0  0  0  0
  153.3991  142.8786  162.8136 C   0  0  0  0  0  0  0  0  0  0  0  0
  153.7392  143.0622  163.9808 O   0  0  0  0  0  0  0  0  0  0  0  0
  152.5319  143.6991  162.1510 N   0  5  0  0  0  0  0  0  0  0  0  0
  152.1473  143.4980  160.8524 C   0  0  0  0  0  0  0  0  0  0  0  0
  151.3658  144.2528  160.2723 O   0  0  0  0  0  0  0  0  0  0  0  0
  150.5952  138.3985  156.8464 C   0  0  1  0  0  0  0  0  0  0  0  0
  149.9149  139.3874  155.8965 C   0  0  0  0  0  0  0  0  0  0  0  0
  150.6953  139.1790  154.6194 C   0  0  0  0  0  0  0  0  0  0  0  0
  152.1100  138.9945  155.1552 C   0  0  0  0  0  0  0  0  0  0  0  0
  151.9617  138.3810  156.4321 O   0  0  0  0  0  0  0  0  0  0  0  0
  151.0755  136.8242  159.1552 H   0  0  0  0  0  0  0  0  0  0  0  0
  151.2682  138.1575  160.2812 H   0  0  0  0  0  0  0  0  0  0  0  0
  152.4135  137.9537  158.9579 H   0  0  0  0  0  0  0  0  0  0  0  0
  149.4445  138.6233  158.6581 H   0  0  0  0  0  0  0  0  0  0  0  0
  150.1302  140.8117  158.7375 H   0  0  0  0  0  0  0  0  0  0  0  0
  153.0295  142.5584  158.1042 H   0  0  0  0  0  0  0  0  0  0  0  0
  151.3482  142.6235  158.5202 H   0  0  0  0  0  0  0  0  0  0  0  0
  153.9051  140.7297  160.2043 H   0  0  0  0  0  0  0  0  0  0  0  0
  154.6334  141.0574  162.5614 H   0  0  0  0  0  0  0  0  0  0  0  0
  150.1885  137.4010  156.6703 H   0  0  0  0  0  0  0  0  0  0  0  0
  148.8476  139.1991  155.7775 H   0  0  0  0  0  0  0  0  0  0  0  0
  150.0454  140.4122  156.2477 H   0  0  0  0  0  0  0  0  0  0  0  0
  150.3599  138.2699  154.1186 H   0  0  0  0  0  0  0  0  0  0  0  0
  150.6083  140.0104  153.9197 H   0  0  0  0  0  0  0  0  0  0  0  0
  152.7325  138.3932  154.4923 H   0  0  0  0  0  0  0  0  0  0  0  0
  152.5949  139.9619  155.2918 H   0  0  0  0  0  0  0  0  0  0  0  0
  1  2  1  0  0  0  0
  1 20  1  0  0  0  0
  1 21  1  0  0  0  0
  1 22  1  0  0  0  0
  2  3  1  0  0  0  0
  2 15  1  0  0  0  0
  2 23  1  0  0  0  0
  3  4  1  0  0  0  0
  3 24  1  0  0  0  0
  4  5  2  0  0  0  0
  4  6  1  0  0  0  0
  6  7  1  0  0  0  0
  6 25  1  0  0  0  0
  6 26  1  0  0  0  0
  7 13  1  0  0  0  0
  7  8  1  0  0  0  0
  8  9  2  0  0  0  0
  8 27  1  0  0  0  0
  9 10  1  0  0  0  0
  9 28  1  0  0  0  0
 10 11  2  0  0  0  0
 10 12  1  0  0  0  0
 12 13  1  0  0  0  0
 13 14  2  0  0  0  0
 15 19  1  0  0  0  0
 15 16  1  0  0  0  0
 15 29  1  0  0  0  0
 16 17  1  0  0  0  0
 16 30  1  0  0  0  0
 16 31  1  0  0  0  0
 17 18  1  0  0  0  0
 17 32  1  0  0  0  0
 17 33  1  0  0  0  0
 18 19  1  0  0  0  0
 18 34  1  0  0  0  0
 18 35  1  0  0  0  0
M  CHG  1  12  -1
M  END
> <s_m_source_file>
AV-unprocessed.smi

> <i_m_source_file_index>
1403

> <i_lp_mmshare_version>
43012

> <i_f3d_flags>
0

> <s_epik_input>
TzFbQ0gyXVtDSDJdW0NIMl1bQ0BIXTFbQ0BIXShbQ0gzXSlbTkhdQyg9TylbQ0gyXW4yW2NIXVtjSF1jKD1PKVtuSF1jMj1P

> <s_epik_cmdline>
J2VwaWtfcHl0aG9uJywgJy1waCcsICc3LjAnLCAnLXRuJywgJzgnLCAnLW1hJywgJzIwMCcsICctbWV0YWxfYmluZGluZycsICctaW1hZScsICc8aW5maWxlLm1hZT4nLCAnLW9tYWUnLCAnPG91dGZpbGUubWFlPic=

> <r_lp_tautomer_probability>
0.999537

> <r_epik_Ionization_Penalty>
3.07438

> <r_epik_Ionization_Penalty_Charging>
2.82466e-08

> <r_epik_Ionization_Penalty_Neutral>
3.07438

> <r_epik_State_Penalty>
3.07341

> <r_epik_Charging_Adjusted_Penalty>
3.07341

> <i_epik_Tot_Q>
-1

> <i_epik_Tot_abs_Q>
1

> <r_epik_Metal_State_Penalty>
0.45947

> <b_epik_Metal_Only>
1

> <s_lp_Force_Field>
OPLS_2005

> <r_lp_Energy>
26.7212

> <b_lp_Chiralities_Consistent>
1

> <s_lp_Variant>
AV-unprocessed.smi:1403-8

> <Gold.Version>
5.8.1

> <Gold.Id.Protein>
6NUR|6NUR_protein|mol2

> <Gold.PLP.Fitness>
39.0157

> <Gold.PLP.PLP>
-37.6537

> <Gold.PLP.part.hbond>
-1.3437

> <Gold.PLP.part.metal>
0.0000

> <Gold.PLP.part.buried>
-5.2425

> <Gold.PLP.part.nonpolar>
-30.3449

> <Gold.PLP.part.repulsive>
0.5136

> <Gold.PLP.ligand.clash>
0.0000

> <Gold.PLP.ligand.torsion>
0.8339

> <Gold.PLP.Chemscore.Hbond>
1.0000

> <Gold.PLP.Chemscore.CHOScore>
0.0000

> <Gold.PLP.Chemscore.Metal>
0.0000

> <Gold.Chemscore.Hbonds>
donor molecule, donor type, donor heavy atom, donor atom, acceptor molecule, acceptor atom, score
      P1  H  7997  8008       L1     5  1.00

> <Gold.PLP.Chemscore.Internal.Correction>
0.0297

> <Gold.Rescore>
     Score         DG    S(hbond)    S(metal)    S(lipo)     H(rot)  DE(clash)    DE(int)     intcor
      7.73     -11.24       1.00        0.00      64.46       1.99       0.01       3.50       ----

> <Gold.Chemscore.Fitness>
7.7345

> <Gold.Chemscore.DG>
-11.2413

> <Gold.Chemscore.ZeroCoef>
-5.4800

> <Gold.Chemscore.Hbond>
0.9953

> <Gold.Chemscore.Metal>
0.0000

> <Gold.Chemscore.Lipo>
64.4577

> <Gold.Chemscore.Internal_Hbond>
0.0000

> <Gold.Chemscore.DEClash>
0.0073

> <Gold.Chemscore.DEInternal>
3.4995

> <Gold.Chemscore.Rot>
1.9940

> <Gold.Chemscore.Internal.Correction>
   9.000000E+99

> <Gold.Chemscore.Hbonds>
donor molecule, donor type, donor heavy atom, donor atom, acceptor molecule, acceptor atom, score
      P1  H  7997  8008       L1     5  0.95

> <Gold.Chemscore.Hbond.Weighted>
-3.3244

> <Gold.Chemscore.Metal.Weighted>
-0.0000

> <Gold.Chemscore.Lipo.Weighted>
-7.5415

> <Gold.Chemscore.Internal_Hbond.Weighted>
0.0000

> <Gold.Chemscore.DEClash.Weighted>
0.0073

> <Gold.Chemscore.DEInternal.Weighted>
3.4995

> <Gold.Chemscore.Rot.Weighted>
5.1047

> <Gold.Chemscore.Internal.Correction.Weighted>
   9.000000E+99

> <Gold.Protein.RotatedTorsions>
[ 6907 6896 6895 6894 ] final  118.92 input  -60.11 | X-H torsion
[ 7974 7965 7964 7962 ] final -127.54 input  175.53 | X-H torsion
[ 8008 7997 7996 7995 ] final  -74.42 input   59.86 | X-H torsion
[ 10167 10162 10161 10158 ] final  155.23 input  -65.29 | X-H torsion
[ 10718 10713 10712 10709 ] final -162.00 input   66.30 | X-H torsion
[ 10763 10752 10751 10750 ] final   67.22 input  -60.55 | X-H torsion
[ 11005 11000 10999 10996 ] final  109.74 input  -57.11 | X-H torsion

> <Gold.Protein.ActiveResidues>
 VAL166  LYS551  ARG553  GLY616  TRP617  ASP618  TYR619  PRO620  LYS621  CYS622 
 ASP623  PHE694  ASN695  SER759  ASP760  ASP761  ALA762  ILE779  LEU786  VAL792 
 PHE793  MET794  SER795  GLU796  ALA797  LYS798  CYS799  TRP800  GLU811  SER814 

> <Gold.Protein.RotatedAtoms>
  152.4509  133.7627  159.6755 H   0  0  0  0  0  0  0  0  0  0  0  0  # atno 6907 bound_to 6896
  150.8420  133.7910  159.3063 H   0  0  0  0  0  0  0  0  0  0  0  0  # atno 6908 bound_to 6896
  151.5532  135.1070  160.0006 H   0  0  0  0  0  0  0  0  0  0  0  0  # atno 6909 bound_to 6896
  144.9761  140.7594  143.4641 H   0  0  0  0  0  0  0  0  0  0  0  0  # atno 7974 bound_to 7965
  154.5329  140.0762  156.8377 H   0  0  0  0  0  0  0  0  0  0  0  0  # atno 8008 bound_to 7997
  155.3337  140.3403  155.4221 H   0  0  0  0  0  0  0  0  0  0  0  0  # atno 8009 bound_to 7997
  156.1799  140.1649  156.8279 H   0  0  0  0  0  0  0  0  0  0  0  0  # atno 8010 bound_to 7997
  139.4821  144.5117  151.8015 H   0  0  0  0  0  0  0  0  0  0  0  0  # atno 10167 bound_to 10162
  156.6042  130.8823  151.2921 H   0  0  0  0  0  0  0  0  0  0  0  0  # atno 10718 bound_to 10713
  153.0176  135.5292  154.6946 H   0  0  0  0  0  0  0  0  0  0  0  0  # atno 10763 bound_to 10752
  154.6072  135.2874  155.0474 H   0  0  0  0  0  0  0  0  0  0  0  0  # atno 10764 bound_to 10752
  154.1510  135.6563  153.5016 H   0  0  0  0  0  0  0  0  0  0  0  0  # atno 10765 bound_to 10752
  139.8868  134.9466  156.6171 H   0  0  0  0  0  0  0  0  0  0  0  0  # atno 11005 bound_to 11000
  145.2488  139.2040  143.4953 LP  0  0  0  0  0  0  0  0  0  0  0  0  # atno 17320 bound_to 7965
  146.3395  140.2397  142.8595 LP  0  0  0  0  0  0  0  0  0  0  0  0  # atno 17321 bound_to 7965
  140.4620  144.1708  150.5907 LP  0  0  0  0  0  0  0  0  0  0  0  0  # atno 17342 bound_to 10162
  140.4474  143.2501  151.9393 LP  0  0  0  0  0  0  0  0  0  0  0  0  # atno 17343 bound_to 10162
  157.7271  130.9639  150.1686 LP  0  0  0  0  0  0  0  0  0  0  0  0  # atno 17370 bound_to 10713
  156.2443  130.3694  149.8302 LP  0  0  0  0  0  0  0  0  0  0  0  0  # atno 17371 bound_to 10713
  140.7767  133.8693  155.8535 LP  0  0  0  0  0  0  0  0  0  0  0  0  # atno 17394 bound_to 11000
  140.9795  134.1424  157.4506 LP  0  0  0  0  0  0  0  0  0  0  0  0  # atno 17395 bound_to 11000

$$$$
