AV-unprocessed.smi:1643|AV-procd|sdf|6573|dock8
  -GOLD-   22720 7263D 1   1.00000     0.00000
 Structure written by MMmdl.
 54 56  0  0  0  0  0  0  0  0  2 V2000
  147.1488  131.7138  156.3122 C   0  0  0  0  0  0  0  0  0  0  0  0
  147.5862  132.8921  157.1876 C   0  0  0  0  0  0  0  0  0  0  0  0
  147.0722  133.0072  158.3004 O   0  0  0  0  0  0  0  0  0  0  0  0
  148.5180  133.7566  156.7150 N   0  0  0  0  0  0  0  0  0  0  0  0
  149.0029  134.8721  157.5427 C   0  0  0  0  0  0  0  0  0  0  0  0
  148.3015  136.1908  157.1712 C   0  0  0  0  0  0  0  0  0  0  0  0
  147.9664  136.3367  155.6715 C   0  0  0  0  0  0  0  0  0  0  0  0
  149.1404  136.1908  154.7670 N   0  3  1  0  0  0  0  0  0  0  0  0
  150.0482  137.3707  154.8114 C   0  0  0  0  0  0  0  0  0  0  0  0
  149.3079  138.7157  154.6158 C   0  0  2  0  0  0  0  0  0  0  0  0
  148.6250  138.7159  153.3788 O   0  0  0  0  0  0  0  0  0  0  0  0
  150.2404  139.9456  154.6044 C   0  0  0  0  0  0  0  0  0  0  0  0
  151.1811  139.9543  155.7103 N   0  0  0  0  0  0  0  0  0  0  0  0
  152.2255  139.1237  155.8970 C   0  0  0  0  0  0  0  0  0  0  0  0
  152.9593  139.3047  156.9907 N   0  0  0  0  0  0  0  0  0  0  0  0
  152.3282  140.3895  157.5741 C   0  0  0  0  0  0  0  0  0  0  0  0
  152.6186  141.0863  158.7671 C   0  0  0  0  0  0  0  0  0  0  0  0
  151.8296  142.1852  159.1749 C   0  0  0  0  0  0  0  0  0  0  0  0
  152.1820  142.9099  160.4621 C   0  0  0  0  0  0  0  0  0  0  0  0
  150.7279  142.6011  158.3847 C   0  0  0  0  0  0  0  0  0  0  0  0
  149.8688  143.7818  158.8012 C   0  0  0  0  0  0  0  0  0  0  0  0
  150.4218  141.9141  157.1914 C   0  0  0  0  0  0  0  0  0  0  0  0
  151.2147  140.8224  156.7961 C   0  0  0  0  0  0  0  0  0  0  0  0
  149.8646  134.8826  154.8288 C   0  0  0  0  0  0  0  0  0  0  0  0
  149.0535  133.6608  155.3399 C   0  0  0  0  0  0  0  0  0  0  0  0
  148.0086  131.1429  155.9609 H   0  0  0  0  0  0  0  0  0  0  0  0
  146.5780  132.0618  155.4513 H   0  0  0  0  0  0  0  0  0  0  0  0
  146.5117  131.0340  156.8791 H   0  0  0  0  0  0  0  0  0  0  0  0
  148.8671  134.6819  158.6086 H   0  0  0  0  0  0  0  0  0  0  0  0
  150.0828  134.9699  157.4438 H   0  0  0  0  0  0  0  0  0  0  0  0
  147.3674  136.2565  157.7301 H   0  0  0  0  0  0  0  0  0  0  0  0
  148.9080  137.0317  157.5085 H   0  0  0  0  0  0  0  0  0  0  0  0
  147.2022  135.6152  155.3809 H   0  0  0  0  0  0  0  0  0  0  0  0
  147.4948  137.3053  155.5011 H   0  0  0  0  0  0  0  0  0  0  0  0
  150.5167  137.3810  155.7948 H   0  0  0  0  0  0  0  0  0  0  0  0
  150.8673  137.2596  154.0992 H   0  0  0  0  0  0  0  0  0  0  0  0
  148.5706  138.8409  155.4097 H   0  0  0  0  0  0  0  0  0  0  0  0
  148.6298  137.8375  153.0291 H   0  0  0  0  0  0  0  0  0  0  0  0
  150.8024  139.9880  153.6699 H   0  0  0  0  0  0  0  0  0  0  0  0
  149.6540  140.8643  154.6572 H   0  0  0  0  0  0  0  0  0  0  0  0
  152.4541  138.3341  155.1958 H   0  0  0  0  0  0  0  0  0  0  0  0
  153.4589  140.7704  159.3683 H   0  0  0  0  0  0  0  0  0  0  0  0
  151.3427  142.8869  161.1576 H   0  0  0  0  0  0  0  0  0  0  0  0
  152.4336  143.9508  160.2563 H   0  0  0  0  0  0  0  0  0  0  0  0
  153.0387  142.4502  160.9563 H   0  0  0  0  0  0  0  0  0  0  0  0
  149.0703  143.9663  158.0821 H   0  0  0  0  0  0  0  0  0  0  0  0
  150.4721  144.6872  158.8709 H   0  0  0  0  0  0  0  0  0  0  0  0
  149.4080  143.5963  159.7717 H   0  0  0  0  0  0  0  0  0  0  0  0
  149.5870  142.2224  156.5796 H   0  0  0  0  0  0  0  0  0  0  0  0
  150.2040  134.6592  153.8172 H   0  0  0  0  0  0  0  0  0  0  0  0
  150.7802  134.9841  155.4111 H   0  0  0  0  0  0  0  0  0  0  0  0
  149.6904  132.7767  155.2851 H   0  0  0  0  0  0  0  0  0  0  0  0
  148.2358  133.4934  154.6376 H   0  0  0  0  0  0  0  0  0  0  0  0
  148.7281  136.2153  153.8450 H   0  0  0  0  0  0  0  0  0  0  0  0
  1  2  1  0  0  0  0
  1 26  1  0  0  0  0
  1 27  1  0  0  0  0
  1 28  1  0  0  0  0
  2  3  2  0  0  0  0
  2  4  1  0  0  0  0
  4 25  1  0  0  0  0
  4  5  1  0  0  0  0
  5  6  1  0  0  0  0
  5 29  1  0  0  0  0
  5 30  1  0  0  0  0
  6  7  1  0  0  0  0
  6 31  1  0  0  0  0
  6 32  1  0  0  0  0
  7  8  1  0  0  0  0
  7 33  1  0  0  0  0
  7 34  1  0  0  0  0
  8  9  1  0  0  0  0
  8 24  1  0  0  0  0
  8 54  1  0  0  0  0
  9 10  1  0  0  0  0
  9 35  1  0  0  0  0
  9 36  1  0  0  0  0
 10 11  1  0  0  0  0
 10 12  1  0  0  0  0
 10 37  1  0  0  0  0
 11 38  1  0  0  0  0
 12 13  1  0  0  0  0
 12 39  1  0  0  0  0
 12 40  1  0  0  0  0
 13 23  1  0  0  0  0
 13 14  1  0  0  0  0
 14 15  2  0  0  0  0
 14 41  1  0  0  0  0
 15 16  1  0  0  0  0
 16 23  2  0  0  0  0
 16 17  1  0  0  0  0
 17 18  2  0  0  0  0
 17 42  1  0  0  0  0
 18 19  1  0  0  0  0
 18 20  1  0  0  0  0
 19 43  1  0  0  0  0
 19 44  1  0  0  0  0
 19 45  1  0  0  0  0
 20 21  1  0  0  0  0
 20 22  2  0  0  0  0
 21 46  1  0  0  0  0
 21 47  1  0  0  0  0
 21 48  1  0  0  0  0
 22 23  1  0  0  0  0
 22 49  1  0  0  0  0
 24 25  1  0  0  0  0
 24 50  1  0  0  0  0
 24 51  1  0  0  0  0
 25 52  1  0  0  0  0
 25 53  1  0  0  0  0
M  CHG  1   8   1
M  END
> <s_m_source_file>
AV-unprocessed.smi

> <i_m_source_file_index>
1643

> <i_lp_mmshare_version>
43012

> <i_f3d_flags>
0

> <s_epik_input>
W0NIM11DKD1PKU4xW0NIMl1bQ0gyXVtDSDJdTihbQ0gyXVtDSDJdMSlbQ0gyXVtDQEhdKFtPSF0pW0NIMl1uKFtjSF1uMiljKGMyMylbY0hdYyhbQ0gzXSljKFtjSF0zKVtDSDNd

> <s_epik_cmdline>
J2VwaWtfcHl0aG9uJywgJy1waCcsICc3LjAnLCAnLXRuJywgJzgnLCAnLW1hJywgJzIwMCcsICctbWV0YWxfYmluZGluZycsICctaW1hZScsICc8aW5maWxlLm1hZT4nLCAnLW9tYWUnLCAnPG91dGZpbGUubWFlPic=

> <r_epik_Ionization_Penalty>
0.189467

> <r_epik_Ionization_Penalty_Charging>
0.101761

> <r_epik_Ionization_Penalty_Neutral>
0.0877056

> <r_epik_State_Penalty>
0.170758

> <r_epik_Charging_Adjusted_Penalty>
0.272519

> <i_epik_Tot_Q>
1

> <i_epik_Tot_abs_Q>
1

> <r_epik_Metal_State_Penalty>
0.0948013

> <b_epik_Metal_Only>
0

> <s_lp_Force_Field>
OPLS_2005

> <r_lp_Energy>
50.1894

> <b_lp_Chiralities_Consistent>
1

> <s_lp_Variant>
AV-unprocessed.smi:1643-2

> <Gold.Version>
5.8.1

> <Gold.Id.Protein>
6NUR|6NUR_protein|mol2

> <Gold.PLP.Fitness>
47.8199

> <Gold.PLP.PLP>
-36.0976

> <Gold.PLP.part.hbond>
-4.0000

> <Gold.PLP.part.metal>
0.0000

> <Gold.PLP.part.buried>
-1.3385

> <Gold.PLP.part.nonpolar>
-31.2787

> <Gold.PLP.part.repulsive>
0.0121

> <Gold.PLP.ligand.clash>
0.0448

> <Gold.PLP.ligand.torsion>
0.1712

> <Gold.PLP.Chemscore.Hbond>
4.0000

> <Gold.PLP.Chemscore.CHOScore>
0.0000

> <Gold.PLP.Chemscore.Metal>
0.0000

> <Gold.Chemscore.Hbonds>
donor molecule, donor type, donor heavy atom, donor atom, acceptor molecule, acceptor atom, score
      L1  H     8    54       P1  7948  1.92
      L1  H    11    38       P1  7948  1.00
      P1  H  7997  8010       L1    15  0.94

> <Gold.PLP.Chemscore.Internal.Correction>
0.1094

> <Gold.Rescore>
     Score         DG    S(hbond)    S(metal)    S(lipo)     H(rot)  DE(clash)    DE(int)     intcor
     19.20     -20.39       2.86        0.00      92.26       2.12       0.03       1.16       ----

> <Gold.Chemscore.Fitness>
19.2018

> <Gold.Chemscore.DG>
-20.3945

> <Gold.Chemscore.ZeroCoef>
-5.4800

> <Gold.Chemscore.Hbond>
2.8569

> <Gold.Chemscore.Metal>
0.0000

> <Gold.Chemscore.Lipo>
92.2551

> <Gold.Chemscore.Internal_Hbond>
0.0000

> <Gold.Chemscore.DEClash>
0.0298

> <Gold.Chemscore.DEInternal>
1.1630

> <Gold.Chemscore.Rot>
2.1178

> <Gold.Chemscore.Internal.Correction>
   9.000000E+99

> <Gold.Chemscore.Hbonds>
donor molecule, donor type, donor heavy atom, donor atom, acceptor molecule, acceptor atom, score
      L1  H     8    54       P1  7948  0.90
      L1  H    11    38       P1  7948  0.97
      P1  H  7997  8010       L1    15  0.06

> <Gold.Chemscore.Hbond.Weighted>
-9.5422

> <Gold.Chemscore.Metal.Weighted>
-0.0000

> <Gold.Chemscore.Lipo.Weighted>
-10.7938

> <Gold.Chemscore.Internal_Hbond.Weighted>
0.0000

> <Gold.Chemscore.DEClash.Weighted>
0.0298

> <Gold.Chemscore.DEInternal.Weighted>
1.1630

> <Gold.Chemscore.Rot.Weighted>
5.4215

> <Gold.Chemscore.Internal.Correction.Weighted>
   9.000000E+99

> <Gold.Protein.RotatedTorsions>
[ 6907 6896 6895 6894 ] final -156.98 input  -60.11 | X-H torsion
[ 7974 7965 7964 7962 ] final   29.60 input  175.53 | X-H torsion
[ 8008 7997 7996 7995 ] final   79.91 input   59.86 | X-H torsion
[ 10167 10162 10161 10158 ] final    1.30 input  -65.29 | X-H torsion
[ 10718 10713 10712 10709 ] final -169.37 input   66.30 | X-H torsion
[ 10763 10752 10751 10750 ] final  151.19 input  -60.55 | X-H torsion
[ 11005 11000 10999 10996 ] final -123.24 input  -57.11 | X-H torsion

> <Gold.Protein.ActiveResidues>
 VAL166  LYS551  ARG553  GLY616  TRP617  ASP618  TYR619  PRO620  LYS621  CYS622 
 ASP623  PHE694  ASN695  SER759  ASP760  ASP761  ALA762  ILE779  LEU786  VAL792 
 PHE793  MET794  SER795  GLU796  ALA797  LYS798  CYS799  TRP800  GLU811  SER814 

> <Gold.Protein.RotatedAtoms>
  151.2959  133.4144  159.2636 H   0  0  0  0  0  0  0  0  0  0  0  0  # atno 6907 bound_to 6896
  151.0237  134.9489  159.8084 H   0  0  0  0  0  0  0  0  0  0  0  0  # atno 6908 bound_to 6896
  152.5330  134.2921  159.9099 H   0  0  0  0  0  0  0  0  0  0  0  0  # atno 6909 bound_to 6896
  146.1662  139.6900  142.8999 H   0  0  0  0  0  0  0  0  0  0  0  0  # atno 7974 bound_to 7965
  155.8762  140.3446  155.5856 H   0  0  0  0  0  0  0  0  0  0  0  0  # atno 8008 bound_to 7997
  155.7771  140.0853  157.2097 H   0  0  0  0  0  0  0  0  0  0  0  0  # atno 8009 bound_to 7997
  154.4021  140.1507  156.2996 H   0  0  0  0  0  0  0  0  0  0  0  0  # atno 8010 bound_to 7997
  140.6689  143.7103  150.7883 H   0  0  0  0  0  0  0  0  0  0  0  0  # atno 10167 bound_to 10162
  156.7106  130.9232  151.3089 H   0  0  0  0  0  0  0  0  0  0  0  0  # atno 10718 bound_to 10713
  154.0998  135.2846  155.3254 H   0  0  0  0  0  0  0  0  0  0  0  0  # atno 10763 bound_to 10752
  154.6563  135.5350  153.7966 H   0  0  0  0  0  0  0  0  0  0  0  0  # atno 10764 bound_to 10752
  153.0383  135.6523  154.1162 H   0  0  0  0  0  0  0  0  0  0  0  0  # atno 10765 bound_to 10752
  140.9934  134.0506  157.3627 H   0  0  0  0  0  0  0  0  0  0  0  0  # atno 11005 bound_to 11000
  145.4462  141.0425  143.2830 LP  0  0  0  0  0  0  0  0  0  0  0  0  # atno 17320 bound_to 7965
  144.8095  139.5988  143.7035 LP  0  0  0  0  0  0  0  0  0  0  0  0  # atno 17321 bound_to 7965
  140.0785  143.4992  152.2542 LP  0  0  0  0  0  0  0  0  0  0  0  0  # atno 17342 bound_to 10162
  139.5949  144.7563  151.3311 LP  0  0  0  0  0  0  0  0  0  0  0  0  # atno 17343 bound_to 10162
  157.6937  130.9260  150.0586 LP  0  0  0  0  0  0  0  0  0  0  0  0  # atno 17370 bound_to 10713
  156.1664  130.3645  149.9227 LP  0  0  0  0  0  0  0  0  0  0  0  0  # atno 17371 bound_to 10713
  139.9003  135.0162  156.7235 LP  0  0  0  0  0  0  0  0  0  0  0  0  # atno 17394 bound_to 11000
  140.7004  133.9311  155.8021 LP  0  0  0  0  0  0  0  0  0  0  0  0  # atno 17395 bound_to 11000

$$$$
