AV-unprocessed.smi:2803|AV-procd|sdf|10808|dock3
  -GOLD-   2272015243D 1   1.00000     0.00000
 Structure written by MMmdl.
 42 43  0  0  0  0  0  0  0  0  1 V2000
  149.6377  139.1350  154.7307 C   0  0  0  0  0  0  0  0  0  0  0  0
  150.6939  139.0518  155.8511 C   0  0  2  0  0  0  0  0  0  0  0  0
  152.0062  139.3419  155.2445 C   0  0  0  0  0  0  0  0  0  0  0  0
  153.0374  139.5668  154.7693 N   0  0  0  0  0  0  0  0  0  0  0  0
  150.7532  137.6848  156.3753 N   0  0  0  0  0  0  0  0  0  0  0  0
  151.0908  136.5599  155.7233 C   0  0  0  0  0  0  0  0  0  0  0  0
  151.4074  136.5286  154.5339 O   0  0  0  0  0  0  0  0  0  0  0  0
  151.0346  135.2686  156.5499 C   0  0  0  0  0  0  0  0  0  0  0  0
  150.4068  134.1564  155.8341 N   0  0  0  0  0  0  0  0  0  0  0  0
  149.5938  134.3252  154.7401 C   0  0  0  0  0  0  0  0  0  0  0  0
  149.1638  133.1995  154.2869 N   0  0  0  0  0  0  0  0  0  0  0  0
  149.7261  132.2777  155.1248 N   0  0  0  0  0  0  0  0  0  0  0  0
  149.4610  130.8298  154.9254 C   0  0  0  0  0  0  0  0  0  0  0  0
  150.7912  130.0891  154.6678 C   0  0  0  0  0  0  0  0  0  0  0  0
  148.5315  130.5727  153.7131 C   0  0  0  0  0  0  0  0  0  0  0  0
  148.7722  130.2497  156.1799 C   0  0  0  0  0  0  0  0  0  0  0  0
  150.4907  132.8515  156.0745 C   0  0  0  0  0  0  0  0  0  0  0  0
  151.1299  132.3065  156.9743 O   0  0  0  0  0  0  0  0  0  0  0  0
  150.3876  140.0986  156.9275 C   0  0  0  0  0  0  0  0  0  0  0  0
  149.0721  140.8431  156.9867 C   0  0  0  0  0  0  0  0  0  0  0  0
  150.3448  141.5810  156.6334 C   0  0  0  0  0  0  0  0  0  0  0  0
  149.6553  140.1145  154.2512 H   0  0  0  0  0  0  0  0  0  0  0  0
  148.6262  138.9804  155.1061 H   0  0  0  0  0  0  0  0  0  0  0  0
  149.8217  138.3898  153.9561 H   0  0  0  0  0  0  0  0  0  0  0  0
  150.5063  137.5854  157.3495 H   0  0  0  0  0  0  0  0  0  0  0  0
  152.0467  134.9736  156.8328 H   0  0  0  0  0  0  0  0  0  0  0  0
  150.5037  135.4752  157.4806 H   0  0  0  0  0  0  0  0  0  0  0  0
  149.3907  135.3297  154.3652 H   0  0  0  0  0  0  0  0  0  0  0  0
  150.6205  129.0311  154.4658 H   0  0  0  0  0  0  0  0  0  0  0  0
  151.4667  130.1430  155.5212 H   0  0  0  0  0  0  0  0  0  0  0  0
  151.3144  130.5064  153.8067 H   0  0  0  0  0  0  0  0  0  0  0  0
  148.9684  130.9391  152.7832 H   0  0  0  0  0  0  0  0  0  0  0  0
  147.5600  131.0524  153.8398 H   0  0  0  0  0  0  0  0  0  0  0  0
  148.3450  129.5066  153.5785 H   0  0  0  0  0  0  0  0  0  0  0  0
  148.5164  129.1992  156.0389 H   0  0  0  0  0  0  0  0  0  0  0  0
  147.8484  130.7836  156.4053 H   0  0  0  0  0  0  0  0  0  0  0  0
  149.4082  130.3041  157.0633 H   0  0  0  0  0  0  0  0  0  0  0  0
  150.7889  139.8356  157.9040 H   0  0  0  0  0  0  0  0  0  0  0  0
  148.3476  140.6817  156.1913 H   0  0  0  0  0  0  0  0  0  0  0  0
  148.6443  141.0244  157.9707 H   0  0  0  0  0  0  0  0  0  0  0  0
  150.7626  142.2499  157.3828 H   0  0  0  0  0  0  0  0  0  0  0  0
  150.4679  141.9071  155.6027 H   0  0  0  0  0  0  0  0  0  0  0  0
  1  2  1  0  0  0  0
  1 22  1  0  0  0  0
  1 23  1  0  0  0  0
  1 24  1  0  0  0  0
  2  3  1  0  0  0  0
  2  5  1  0  0  0  0
  2 19  1  0  0  0  0
  3  4  3  0  0  0  0
  5  6  1  0  0  0  0
  5 25  1  0  0  0  0
  6  7  2  0  0  0  0
  6  8  1  0  0  0  0
  8  9  1  0  0  0  0
  8 26  1  0  0  0  0
  8 27  1  0  0  0  0
  9 17  1  0  0  0  0
  9 10  1  0  0  0  0
 10 11  2  0  0  0  0
 10 28  1  0  0  0  0
 11 12  1  0  0  0  0
 12 13  1  0  0  0  0
 12 17  1  0  0  0  0
 13 14  1  0  0  0  0
 13 15  1  0  0  0  0
 13 16  1  0  0  0  0
 14 29  1  0  0  0  0
 14 30  1  0  0  0  0
 14 31  1  0  0  0  0
 15 32  1  0  0  0  0
 15 33  1  0  0  0  0
 15 34  1  0  0  0  0
 16 35  1  0  0  0  0
 16 36  1  0  0  0  0
 16 37  1  0  0  0  0
 17 18  2  0  0  0  0
 19 21  1  0  0  0  0
 19 20  1  0  0  0  0
 19 38  1  0  0  0  0
 20 21  1  0  0  0  0
 20 39  1  0  0  0  0
 20 40  1  0  0  0  0
 21 41  1  0  0  0  0
 21 42  1  0  0  0  0
M  END
> <s_m_source_file>
AV-unprocessed.smi

> <i_m_source_file_index>
2803

> <i_lp_mmshare_version>
43012

> <i_f3d_flags>
0

> <s_epik_input>
W0NIMl0xW0NIMl1bQ0hdMVtDQF0oW0NIM10pKEMjTilbTkhdQyg9TylbQ0gyXW4yW2NIXW5uKGMyPU8pQyhbQ0gzXSkoW0NIM10pW0NIM10=

> <s_epik_cmdline>
J2VwaWtfcHl0aG9uJywgJy1waCcsICc3LjAnLCAnLXRuJywgJzgnLCAnLW1hJywgJzIwMCcsICctbWV0YWxfYmluZGluZycsICctaW1hZScsICc8aW5maWxlLm1hZT4nLCAnLW9tYWUnLCAnPG91dGZpbGUubWFlPic=

> <r_lp_tautomer_probability>
1

> <r_epik_Ionization_Penalty>
4.88615e-06

> <r_epik_Ionization_Penalty_Charging>
4.80261e-08

> <r_epik_Ionization_Penalty_Neutral>
4.83813e-06

> <r_epik_State_Penalty>
-0

> <r_epik_Charging_Adjusted_Penalty>
4.80261e-08

> <i_epik_Tot_Q>
0

> <i_epik_Tot_abs_Q>
0

> <r_epik_Metal_State_Penalty>
-0

> <b_epik_Metal_Only>
0

> <s_lp_Force_Field>
OPLS_2005

> <r_lp_Energy>
31.1455

> <b_lp_Chiralities_Consistent>
1

> <s_lp_Variant>
AV-unprocessed.smi:2803-2

> <Gold.Version>
5.8.1

> <Gold.Id.Protein>
6NUR|6NUR_protein|mol2

> <Gold.PLP.Fitness>
41.2613

> <Gold.PLP.PLP>
-33.8470

> <Gold.PLP.part.hbond>
-3.3621

> <Gold.PLP.part.metal>
0.0000

> <Gold.PLP.part.buried>
-2.6353

> <Gold.PLP.part.nonpolar>
-28.4252

> <Gold.PLP.part.repulsive>
0.5580

> <Gold.PLP.ligand.clash>
0.0000

> <Gold.PLP.ligand.torsion>
1.5602

> <Gold.PLP.Chemscore.Hbond>
2.0000

> <Gold.PLP.Chemscore.CHOScore>
1.0000

> <Gold.PLP.Chemscore.Metal>
0.0000

> <Gold.Chemscore.Hbonds>
donor molecule, donor type, donor heavy atom, donor atom, acceptor molecule, acceptor atom, score
      P1  H  7997  8010       L1     4  1.00
      P1  H 10752 10763       L1     7  1.00
      L1  C    10    28       P1  7948  0.66

> <Gold.PLP.Chemscore.Internal.Correction>
1.5346

> <Gold.Rescore>
     Score         DG    S(hbond)    S(metal)    S(lipo)     H(rot)  DE(clash)    DE(int)     intcor
      8.86     -12.46       1.93        0.00      49.30       2.05       0.03       3.57       ----

> <Gold.Chemscore.Fitness>
8.8618

> <Gold.Chemscore.DG>
-12.4571

> <Gold.Chemscore.ZeroCoef>
-5.4800

> <Gold.Chemscore.Hbond>
1.9300

> <Gold.Chemscore.Metal>
0.0000

> <Gold.Chemscore.Lipo>
49.2976

> <Gold.Chemscore.Internal_Hbond>
0.0000

> <Gold.Chemscore.DEClash>
0.0285

> <Gold.Chemscore.DEInternal>
3.5668

> <Gold.Chemscore.Rot>
2.0457

> <Gold.Chemscore.Internal.Correction>
   9.000000E+99

> <Gold.Chemscore.Hbonds>
donor molecule, donor type, donor heavy atom, donor atom, acceptor molecule, acceptor atom, score
      P1  H  7997  8010       L1     4  0.94
      P1  H 10752 10763       L1     7  0.82

> <Gold.Chemscore.Hbond.Weighted>
-6.4463

> <Gold.Chemscore.Metal.Weighted>
-0.0000

> <Gold.Chemscore.Lipo.Weighted>
-5.7678

> <Gold.Chemscore.Internal_Hbond.Weighted>
0.0000

> <Gold.Chemscore.DEClash.Weighted>
0.0285

> <Gold.Chemscore.DEInternal.Weighted>
3.5668

> <Gold.Chemscore.Rot.Weighted>
5.2370

> <Gold.Chemscore.Internal.Correction.Weighted>
   9.000000E+99

> <Gold.Protein.RotatedTorsions>
[ 6907 6896 6895 6894 ] final  158.56 input  -60.11 | X-H torsion
[ 7974 7965 7964 7962 ] final  -14.41 input  175.53 | X-H torsion
[ 8008 7997 7996 7995 ] final  100.05 input   59.86 | X-H torsion
[ 10167 10162 10161 10158 ] final  -78.25 input  -65.29 | X-H torsion
[ 10718 10713 10712 10709 ] final   80.53 input   66.30 | X-H torsion
[ 10763 10752 10751 10750 ] final   40.04 input  -60.55 | X-H torsion
[ 11005 11000 10999 10996 ] final  113.35 input  -57.11 | X-H torsion

> <Gold.Protein.ActiveResidues>
 VAL166  LYS551  ARG553  GLY616  TRP617  ASP618  TYR619  PRO620  LYS621  CYS622 
 ASP623  PHE694  ASN695  SER759  ASP760  ASP761  ALA762  ILE779  LEU786  VAL792 
 PHE793  MET794  SER795  GLU796  ALA797  LYS798  CYS799  TRP800  GLU811  SER814 

> <Gold.Protein.RotatedAtoms>
  151.9985  133.3817  159.4172 H   0  0  0  0  0  0  0  0  0  0  0  0  # atno 6907 bound_to 6896
  150.6913  134.3859  159.5064 H   0  0  0  0  0  0  0  0  0  0  0  0  # atno 6908 bound_to 6896
  152.1603  134.8917  160.0593 H   0  0  0  0  0  0  0  0  0  0  0  0  # atno 6909 bound_to 6896
  146.2075  140.3344  142.8402 H   0  0  0  0  0  0  0  0  0  0  0  0  # atno 7974 bound_to 7965
  156.1166  140.3219  155.8147 H   0  0  0  0  0  0  0  0  0  0  0  0  # atno 8008 bound_to 7997
  155.4580  140.0537  157.3011 H   0  0  0  0  0  0  0  0  0  0  0  0  # atno 8009 bound_to 7997
  154.4797  140.2047  155.9807 H   0  0  0  0  0  0  0  0  0  0  0  0  # atno 8010 bound_to 7997
  140.4699  143.2429  151.8221 H   0  0  0  0  0  0  0  0  0  0  0  0  # atno 10167 bound_to 10162
  157.6808  130.9963  150.2092 H   0  0  0  0  0  0  0  0  0  0  0  0  # atno 10718 bound_to 10713
  152.9948  135.6203  154.2561 H   0  0  0  0  0  0  0  0  0  0  0  0  # atno 10763 bound_to 10752
  154.2299  135.2792  155.2895 H   0  0  0  0  0  0  0  0  0  0  0  0  # atno 10764 bound_to 10752
  154.5458  135.5747  153.6937 H   0  0  0  0  0  0  0  0  0  0  0  0  # atno 10765 bound_to 10752
  139.8951  134.9548  156.6725 H   0  0  0  0  0  0  0  0  0  0  0  0  # atno 11005 bound_to 11000
  144.8830  140.7425  143.5975 LP  0  0  0  0  0  0  0  0  0  0  0  0  # atno 17320 bound_to 7965
  145.3264  139.1772  143.4560 LP  0  0  0  0  0  0  0  0  0  0  0  0  # atno 17321 bound_to 7965
  139.4817  144.4905  151.9191 LP  0  0  0  0  0  0  0  0  0  0  0  0  # atno 17342 bound_to 10162
  140.3990  144.2518  150.5894 LP  0  0  0  0  0  0  0  0  0  0  0  0  # atno 17343 bound_to 10162
  156.2767  130.3728  149.7977 LP  0  0  0  0  0  0  0  0  0  0  0  0  # atno 17370 bound_to 10713
  156.5678  130.8411  151.3347 LP  0  0  0  0  0  0  0  0  0  0  0  0  # atno 17371 bound_to 10713
  140.7362  133.9017  155.8245 LP  0  0  0  0  0  0  0  0  0  0  0  0  # atno 17394 bound_to 11000
  141.0114  134.1015  157.4217 LP  0  0  0  0  0  0  0  0  0  0  0  0  # atno 17395 bound_to 11000

$$$$
