AV-unprocessed.smi:1667|AV-procd|sdf|6674|dock5
  -GOLD-   22720 7383D 1   1.00000     0.00000
 Structure written by MMmdl.
 45 47  0  0  0  0  0  0  0  0  1 V2000
  154.1637  137.1305  161.1687 C   0  0  0  0  0  0  0  0  0  0  0  0
  153.2690  137.4534  159.9772 C   0  0  0  0  0  0  0  0  0  0  0  0
  152.8832  136.5480  159.2394 O   0  0  0  0  0  0  0  0  0  0  0  0
  152.9583  138.7512  159.8130 N   0  0  0  0  0  0  0  0  0  0  0  0
  152.1267  139.3788  158.7781 C   0  0  2  0  0  0  0  0  0  0  0  0
  152.5760  139.0791  157.3362 C   0  0  0  0  0  0  0  0  0  0  0  0
  151.9667  140.8577  159.0496 C   0  0  0  0  0  0  0  0  0  0  0  0
  152.6210  141.4833  160.0326 N   0  0  0  0  0  0  0  0  0  0  0  0
  152.1951  142.7896  159.9126 C   0  0  0  0  0  0  0  0  0  0  0  0
  152.5202  143.9358  160.6724 C   0  0  0  0  0  0  0  0  0  0  0  0
  151.9501  145.1865  160.3565 C   0  0  0  0  0  0  0  0  0  0  0  0
  151.0498  145.3080  159.2781 C   0  0  0  0  0  0  0  0  0  0  0  0
  150.7139  144.1779  158.5083 C   0  0  0  0  0  0  0  0  0  0  0  0
  151.2857  142.9317  158.8289 C   0  0  0  0  0  0  0  0  0  0  0  0
  151.1723  141.6559  158.2857 N   0  0  0  0  0  0  0  0  0  0  0  0
  150.3530  141.3049  157.1319 C   0  0  0  0  0  0  0  0  0  0  0  0
  148.8432  141.3302  157.4455 C   0  0  2  0  0  0  0  0  0  0  0  0
  148.4509  140.1339  158.0921 O   0  0  0  0  0  0  0  0  0  0  0  0
  148.0261  141.6024  156.1922 C   0  0  0  0  0  0  0  0  0  0  0  0
  148.5478  141.2678  154.9240 C   0  0  0  0  0  0  0  0  0  0  0  0
  147.7930  141.5094  153.7594 C   0  0  0  0  0  0  0  0  0  0  0  0
  146.5116  142.0853  153.8565 C   0  0  0  0  0  0  0  0  0  0  0  0
  145.9840  142.4174  155.1188 C   0  0  0  0  0  0  0  0  0  0  0  0
  144.7509  142.9682  155.2134 F   0  0  0  0  0  0  0  0  0  0  0  0
  146.7378  142.1748  156.2835 C   0  0  0  0  0  0  0  0  0  0  0  0
  151.1647  138.8895  158.9132 H   0  0  0  0  0  0  0  0  0  0  0  0
  153.6493  137.3594  162.1026 H   0  0  0  0  0  0  0  0  0  0  0  0
  155.0823  137.7163  161.1261 H   0  0  0  0  0  0  0  0  0  0  0  0
  154.4336  136.0741  161.1768 H   0  0  0  0  0  0  0  0  0  0  0  0
  153.3509  139.3907  160.4884 H   0  0  0  0  0  0  0  0  0  0  0  0
  151.8295  139.4283  156.6224 H   0  0  0  0  0  0  0  0  0  0  0  0
  152.7064  138.0083  157.1779 H   0  0  0  0  0  0  0  0  0  0  0  0
  153.5138  139.5751  157.0862 H   0  0  0  0  0  0  0  0  0  0  0  0
  153.2093  143.8519  161.4997 H   0  0  0  0  0  0  0  0  0  0  0  0
  152.2048  146.0562  160.9443 H   0  0  0  0  0  0  0  0  0  0  0  0
  150.6177  146.2695  159.0421 H   0  0  0  0  0  0  0  0  0  0  0  0
  150.0249  144.2679  157.6817 H   0  0  0  0  0  0  0  0  0  0  0  0
  150.5709  142.0197  156.3373 H   0  0  0  0  0  0  0  0  0  0  0  0
  150.6611  140.3367  156.7389 H   0  0  0  0  0  0  0  0  0  0  0  0
  148.6514  142.1360  158.1556 H   0  0  0  0  0  0  0  0  0  0  0  0
  148.2619  139.4854  157.4310 H   0  0  0  0  0  0  0  0  0  0  0  0
  149.5285  140.8230  154.8397 H   0  0  0  0  0  0  0  0  0  0  0  0
  148.1963  141.2525  152.7911 H   0  0  0  0  0  0  0  0  0  0  0  0
  145.9331  142.2704  152.9634 H   0  0  0  0  0  0  0  0  0  0  0  0
  146.3221  142.4280  157.2478 H   0  0  0  0  0  0  0  0  0  0  0  0
  1  2  1  0  0  0  0
  1 27  1  0  0  0  0
  1 28  1  0  0  0  0
  1 29  1  0  0  0  0
  2  3  2  0  0  0  0
  2  4  1  0  0  0  0
  4  5  1  0  0  0  0
  4 30  1  0  0  0  0
  5 26  1  0  0  0  0
  5  6  1  0  0  0  0
  5  7  1  0  0  0  0
  6 31  1  0  0  0  0
  6 32  1  0  0  0  0
  6 33  1  0  0  0  0
  7 15  1  0  0  0  0
  7  8  2  0  0  0  0
  8  9  1  0  0  0  0
  9 14  2  0  0  0  0
  9 10  1  0  0  0  0
 10 11  2  0  0  0  0
 10 34  1  0  0  0  0
 11 12  1  0  0  0  0
 11 35  1  0  0  0  0
 12 13  2  0  0  0  0
 12 36  1  0  0  0  0
 13 14  1  0  0  0  0
 13 37  1  0  0  0  0
 14 15  1  0  0  0  0
 15 16  1  0  0  0  0
 16 17  1  0  0  0  0
 16 38  1  0  0  0  0
 16 39  1  0  0  0  0
 17 18  1  0  0  0  0
 17 19  1  0  0  0  0
 17 40  1  0  0  0  0
 18 41  1  0  0  0  0
 19 25  1  0  0  0  0
 19 20  2  0  0  0  0
 20 21  1  0  0  0  0
 20 42  1  0  0  0  0
 21 22  2  0  0  0  0
 21 43  1  0  0  0  0
 22 23  1  0  0  0  0
 22 44  1  0  0  0  0
 23 24  1  0  0  0  0
 23 25  2  0  0  0  0
 25 45  1  0  0  0  0
M  END
> <s_m_source_file>
AV-unprocessed.smi

> <i_m_source_file_index>
1667

> <i_lp_mmshare_version>
43012

> <i_f3d_flags>
0

> <s_epik_input>
W0NIM11DKD1PKVtOSF1bQ0BASF0oW0NIM10pYyhuMSluKGMoYzEyKVtjSF1bY0hdW2NIXVtjSF0yKVtDSDJdW0NASF0oW09IXSljM1tjSF1bY0hdW2NIXWMoRilbY0hdMw==

> <s_epik_cmdline>
J2VwaWtfcHl0aG9uJywgJy1waCcsICc3LjAnLCAnLXRuJywgJzgnLCAnLW1hJywgJzIwMCcsICctbWV0YWxfYmluZGluZycsICctaW1hZScsICc8aW5maWxlLm1hZT4nLCAnLW9tYWUnLCAnPG91dGZpbGUubWFlPic=

> <r_epik_Ionization_Penalty>
0.133011

> <r_epik_Ionization_Penalty_Charging>
0

> <r_epik_Ionization_Penalty_Neutral>
0.133011

> <r_epik_State_Penalty>
0.122384

> <r_epik_Charging_Adjusted_Penalty>
0.122384

> <i_epik_Tot_Q>
0

> <i_epik_Tot_abs_Q>
0

> <r_epik_Metal_State_Penalty>
0.0997374

> <b_epik_Metal_Only>
0

> <s_lp_Force_Field>
OPLS_2005

> <r_lp_Energy>
10.1709

> <b_lp_Chiralities_Consistent>
1

> <s_lp_Variant>
AV-unprocessed.smi:1667-2

> <Gold.Version>
5.8.1

> <Gold.Id.Protein>
6NUR|6NUR_protein|mol2

> <Gold.PLP.Fitness>
50.9226

> <Gold.PLP.PLP>
-50.0016

> <Gold.PLP.part.hbond>
-1.7789

> <Gold.PLP.part.metal>
0.0000

> <Gold.PLP.part.buried>
-6.8242

> <Gold.PLP.part.nonpolar>
-40.1314

> <Gold.PLP.part.repulsive>
0.0855

> <Gold.PLP.ligand.clash>
0.0000

> <Gold.PLP.ligand.torsion>
1.0871

> <Gold.PLP.Chemscore.Hbond>
0.9600

> <Gold.PLP.Chemscore.CHOScore>
0.0000

> <Gold.PLP.Chemscore.Metal>
0.0000

> <Gold.Chemscore.Hbonds>
donor molecule, donor type, donor heavy atom, donor atom, acceptor molecule, acceptor atom, score
      P1  H  6896  6909       L1     3  0.99

> <Gold.PLP.Chemscore.Internal.Correction>
0.2151

> <Gold.Rescore>
     Score         DG    S(hbond)    S(metal)    S(lipo)     H(rot)  DE(clash)    DE(int)     intcor
     16.37     -17.37       1.00        0.00     127.30       2.48       0.30       0.70       ----

> <Gold.Chemscore.Fitness>
16.3682

> <Gold.Chemscore.DG>
-17.3680

> <Gold.Chemscore.ZeroCoef>
-5.4800

> <Gold.Chemscore.Hbond>
0.9978

> <Gold.Chemscore.Metal>
0.0000

> <Gold.Chemscore.Lipo>
127.2969

> <Gold.Chemscore.Internal_Hbond>
0.0000

> <Gold.Chemscore.DEClash>
0.2987

> <Gold.Chemscore.DEInternal>
0.7011

> <Gold.Chemscore.Rot>
2.4760

> <Gold.Chemscore.Internal.Correction>
   9.000000E+99

> <Gold.Chemscore.Hbonds>
donor molecule, donor type, donor heavy atom, donor atom, acceptor molecule, acceptor atom, score
      P1  H  6896  6909       L1     3  0.90

> <Gold.Chemscore.Hbond.Weighted>
-3.3327

> <Gold.Chemscore.Metal.Weighted>
-0.0000

> <Gold.Chemscore.Lipo.Weighted>
-14.8937

> <Gold.Chemscore.Internal_Hbond.Weighted>
0.0000

> <Gold.Chemscore.DEClash.Weighted>
0.2987

> <Gold.Chemscore.DEInternal.Weighted>
0.7011

> <Gold.Chemscore.Rot.Weighted>
6.3385

> <Gold.Chemscore.Internal.Correction.Weighted>
   9.000000E+99

> <Gold.Protein.RotatedTorsions>
[ 6907 6896 6895 6894 ] final  146.04 input  -60.11 | X-H torsion
[ 7974 7965 7964 7962 ] final  -58.11 input  175.53 | X-H torsion
[ 8008 7997 7996 7995 ] final   16.90 input   59.86 | X-H torsion
[ 10167 10162 10161 10158 ] final -137.41 input  -65.29 | X-H torsion
[ 10718 10713 10712 10709 ] final   12.67 input   66.30 | X-H torsion
[ 10763 10752 10751 10750 ] final   44.61 input  -60.55 | X-H torsion
[ 11005 11000 10999 10996 ] final    4.65 input  -57.11 | X-H torsion

> <Gold.Protein.ActiveResidues>
 VAL166  LYS551  ARG553  GLY616  TRP617  ASP618  TYR619  PRO620  LYS621  CYS622 
 ASP623  PHE694  ASN695  SER759  ASP760  ASP761  ALA762  ILE779  LEU786  VAL792 
 PHE793  MET794  SER795  GLU796  ALA797  LYS798  CYS799  TRP800  GLU811  SER814 

> <Gold.Protein.RotatedAtoms>
  152.1731  133.4656  159.4918 H   0  0  0  0  0  0  0  0  0  0  0  0  # atno 6907 bound_to 6896
  150.6922  134.1928  159.4301 H   0  0  0  0  0  0  0  0  0  0  0  0  # atno 6908 bound_to 6896
  151.9836  135.0015  160.0609 H   0  0  0  0  0  0  0  0  0  0  0  0  # atno 6909 bound_to 6896
  145.8432  140.8403  143.0024 H   0  0  0  0  0  0  0  0  0  0  0  0  # atno 7974 bound_to 7965
  154.8836  140.2976  155.5411 H   0  0  0  0  0  0  0  0  0  0  0  0  # atno 8008 bound_to 7997
  156.3022  140.2438  156.3776 H   0  0  0  0  0  0  0  0  0  0  0  0  # atno 8009 bound_to 7997
  154.8691  140.0402  157.1702 H   0  0  0  0  0  0  0  0  0  0  0  0  # atno 8010 bound_to 7997
  139.8580  143.7113  152.2652 H   0  0  0  0  0  0  0  0  0  0  0  0  # atno 10167 bound_to 10162
  157.0136  130.6126  149.5711 H   0  0  0  0  0  0  0  0  0  0  0  0  # atno 10718 bound_to 10713
  152.9838  135.6065  154.3301 H   0  0  0  0  0  0  0  0  0  0  0  0  # atno 10763 bound_to 10752
  154.3005  135.2773  155.2615 H   0  0  0  0  0  0  0  0  0  0  0  0  # atno 10764 bound_to 10752
  154.4869  135.5902  153.6487 H   0  0  0  0  0  0  0  0  0  0  0  0  # atno 10765 bound_to 10752
  140.5795  134.0026  155.8042 H   0  0  0  0  0  0  0  0  0  0  0  0  # atno 11005 bound_to 11000
  144.6732  140.0843  143.7468 LP  0  0  0  0  0  0  0  0  0  0  0  0  # atno 17320 bound_to 7965
  145.9442  139.2689  143.1251 LP  0  0  0  0  0  0  0  0  0  0  0  0  # atno 17321 bound_to 7965
  139.7401  144.7561  151.0666 LP  0  0  0  0  0  0  0  0  0  0  0  0  # atno 17342 bound_to 10162
  140.7779  143.4983  150.9804 LP  0  0  0  0  0  0  0  0  0  0  0  0  # atno 17343 bound_to 10162
  156.0127  130.5220  150.8040 LP  0  0  0  0  0  0  0  0  0  0  0  0  # atno 17370 bound_to 10713
  157.5302  131.0936  150.9964 LP  0  0  0  0  0  0  0  0  0  0  0  0  # atno 17371 bound_to 10713
  141.1005  133.9776  157.3087 LP  0  0  0  0  0  0  0  0  0  0  0  0  # atno 17394 bound_to 11000
  139.9324  135.0199  156.8443 LP  0  0  0  0  0  0  0  0  0  0  0  0  # atno 17395 bound_to 11000

$$$$
