AV-unprocessed.smi:2723|AV-procd|sdf|10506|dock3
  -GOLD-   2272014553D 1   1.00000     0.00000
 Structure written by MMmdl.
 35 36  0  0  0  0  0  0  0  0  1 V2000
  145.8725  137.1441  152.1563 C   0  0  0  0  0  0  0  0  0  0  0  0
  146.6576  138.4588  152.2162 C   0  0  0  0  0  0  0  0  0  0  0  0
  146.7803  139.0052  153.6480 C   0  0  0  0  0  0  0  0  0  0  0  0
  147.9030  139.9265  153.7758 N   0  0  0  0  0  0  0  0  0  0  0  0
  148.1774  140.6622  154.8649 C   0  0  0  0  0  0  0  0  0  0  0  0
  147.4875  140.6473  155.8843 O   0  0  0  0  0  0  0  0  0  0  0  0
  149.4179  141.5551  154.7954 C   0  0  0  0  0  0  0  0  0  0  0  0
  150.3552  141.2432  155.9269 C   0  0  0  0  0  0  0  0  0  0  0  0
  151.0114  140.0574  156.1526 C   0  0  0  0  0  0  0  0  0  0  0  0
  152.0070  140.1221  157.5805 S   0  0  0  0  0  0  0  0  0  0  0  0
  151.4803  141.7893  157.8309 C   0  0  0  0  0  0  0  0  0  0  0  0
  151.8688  142.6473  158.9025 N   0  0  0  0  0  0  0  0  0  0  0  0
  151.4790  144.0539  158.9403 C   0  0  0  0  0  0  0  0  0  0  0  0
  151.8750  144.5624  160.3305 C   0  0  0  0  0  0  0  0  0  0  0  0
  152.8287  143.5084  160.8895 C   0  0  0  0  0  0  0  0  0  0  0  0
  152.6289  142.3204  159.9628 C   0  0  0  0  0  0  0  0  0  0  0  0
  153.1330  141.2247  160.2051 O   0  0  0  0  0  0  0  0  0  0  0  0
  150.6288  142.2176  156.8928 N   0  0  0  0  0  0  0  0  0  0  0  0
  145.7986  136.7824  151.1303 H   0  0  0  0  0  0  0  0  0  0  0  0
  144.8593  137.2722  152.5381 H   0  0  0  0  0  0  0  0  0  0  0  0
  146.3593  136.3683  152.7479 H   0  0  0  0  0  0  0  0  0  0  0  0
  147.6500  138.2990  151.7929 H   0  0  0  0  0  0  0  0  0  0  0  0
  146.1679  139.1989  151.5820 H   0  0  0  0  0  0  0  0  0  0  0  0
  145.8711  139.5422  153.9191 H   0  0  0  0  0  0  0  0  0  0  0  0
  146.8825  138.1873  154.3634 H   0  0  0  0  0  0  0  0  0  0  0  0
  148.5252  140.0017  152.9839 H   0  0  0  0  0  0  0  0  0  0  0  0
  149.9049  141.4124  153.8295 H   0  0  0  0  0  0  0  0  0  0  0  0
  149.1128  142.6015  154.8335 H   0  0  0  0  0  0  0  0  0  0  0  0
  150.9724  139.1537  155.5626 H   0  0  0  0  0  0  0  0  0  0  0  0
  152.0181  144.5959  158.1618 H   0  0  0  0  0  0  0  0  0  0  0  0
  150.4097  144.1802  158.7634 H   0  0  0  0  0  0  0  0  0  0  0  0
  152.3342  145.5504  160.2854 H   0  0  0  0  0  0  0  0  0  0  0  0
  150.9923  144.6378  160.9674 H   0  0  0  0  0  0  0  0  0  0  0  0
  153.8659  143.8407  160.8330 H   0  0  0  0  0  0  0  0  0  0  0  0
  152.5990  143.2515  161.9240 H   0  0  0  0  0  0  0  0  0  0  0  0
  1  2  1  0  0  0  0
  1 19  1  0  0  0  0
  1 20  1  0  0  0  0
  1 21  1  0  0  0  0
  2  3  1  0  0  0  0
  2 22  1  0  0  0  0
  2 23  1  0  0  0  0
  3  4  1  0  0  0  0
  3 24  1  0  0  0  0
  3 25  1  0  0  0  0
  4  5  1  0  0  0  0
  4 26  1  0  0  0  0
  5  6  2  0  0  0  0
  5  7  1  0  0  0  0
  7  8  1  0  0  0  0
  7 27  1  0  0  0  0
  7 28  1  0  0  0  0
  8 18  1  0  0  0  0
  8  9  2  0  0  0  0
  9 10  1  0  0  0  0
  9 29  1  0  0  0  0
 10 11  1  0  0  0  0
 11 12  1  0  0  0  0
 11 18  2  0  0  0  0
 12 16  1  0  0  0  0
 12 13  1  0  0  0  0
 13 14  1  0  0  0  0
 13 30  1  0  0  0  0
 13 31  1  0  0  0  0
 14 15  1  0  0  0  0
 14 32  1  0  0  0  0
 14 33  1  0  0  0  0
 15 16  1  0  0  0  0
 15 34  1  0  0  0  0
 15 35  1  0  0  0  0
 16 17  2  0  0  0  0
M  END
> <s_m_source_file>
AV-unprocessed.smi

> <i_m_source_file_index>
2723

> <i_lp_mmshare_version>
43012

> <i_f3d_flags>
0

> <s_epik_input>
W0NIM11bQ0gyXVtDSDJdW05IXUMoPU8pW0NIMl1jMVtjSF1zYyhuMSlOMltDSDJdW0NIMl1bQ0gyXUMyPU8=

> <s_epik_cmdline>
J2VwaWtfcHl0aG9uJywgJy1waCcsICc3LjAnLCAnLXRuJywgJzgnLCAnLW1hJywgJzIwMCcsICctbWV0YWxfYmluZGluZycsICctaW1hZScsICc8aW5maWxlLm1hZT4nLCAnLW9tYWUnLCAnPG91dGZpbGUubWFlPic=

> <r_lp_tautomer_probability>
1

> <r_epik_Ionization_Penalty>
2.96769e-05

> <r_epik_Ionization_Penalty_Charging>
0

> <r_epik_Ionization_Penalty_Neutral>
2.96769e-05

> <r_epik_State_Penalty>
-0

> <r_epik_Charging_Adjusted_Penalty>
0

> <i_epik_Tot_Q>
0

> <i_epik_Tot_abs_Q>
0

> <r_epik_Metal_State_Penalty>
-0

> <b_epik_Metal_Only>
0

> <s_lp_Force_Field>
OPLS_2005

> <r_lp_Energy>
15.8709

> <b_lp_Chiralities_Consistent>
1

> <s_lp_Variant>
AV-unprocessed.smi:2723-1

> <Gold.Version>
5.8.1

> <Gold.Id.Protein>
6NUR|6NUR_protein|mol2

> <Gold.PLP.Fitness>
42.0226

> <Gold.PLP.PLP>
-39.3154

> <Gold.PLP.part.hbond>
-1.0000

> <Gold.PLP.part.metal>
0.0000

> <Gold.PLP.part.buried>
-1.9108

> <Gold.PLP.part.nonpolar>
-35.5546

> <Gold.PLP.part.repulsive>
0.2405

> <Gold.PLP.ligand.clash>
0.0000

> <Gold.PLP.ligand.torsion>
0.1756

> <Gold.PLP.Chemscore.Hbond>
1.0000

> <Gold.PLP.Chemscore.CHOScore>
0.0000

> <Gold.PLP.Chemscore.Metal>
0.0000

> <Gold.Chemscore.Hbonds>
donor molecule, donor type, donor heavy atom, donor atom, acceptor molecule, acceptor atom, score
      L1  H     4    26       P1  7957  0.78

> <Gold.PLP.Chemscore.Internal.Correction>
0.0583

> <Gold.Rescore>
     Score         DG    S(hbond)    S(metal)    S(lipo)     H(rot)  DE(clash)    DE(int)     intcor
     13.39     -14.70       1.00        0.00      86.31       1.64       0.25       1.06       ----

> <Gold.Chemscore.Fitness>
13.3889

> <Gold.Chemscore.DG>
-14.7006

> <Gold.Chemscore.ZeroCoef>
-5.4800

> <Gold.Chemscore.Hbond>
0.9977

> <Gold.Chemscore.Metal>
0.0000

> <Gold.Chemscore.Lipo>
86.3071

> <Gold.Chemscore.Internal_Hbond>
0.0000

> <Gold.Chemscore.DEClash>
0.2507

> <Gold.Chemscore.DEInternal>
1.0610

> <Gold.Chemscore.Rot>
1.6444

> <Gold.Chemscore.Internal.Correction>
   9.000000E+99

> <Gold.Chemscore.Hbonds>
donor molecule, donor type, donor heavy atom, donor atom, acceptor molecule, acceptor atom, score
      L1  H     4    26       P1  7957  0.77

> <Gold.Chemscore.Hbond.Weighted>
-3.3323

> <Gold.Chemscore.Metal.Weighted>
-0.0000

> <Gold.Chemscore.Lipo.Weighted>
-10.0979

> <Gold.Chemscore.Internal_Hbond.Weighted>
0.0000

> <Gold.Chemscore.DEClash.Weighted>
0.2507

> <Gold.Chemscore.DEInternal.Weighted>
1.0610

> <Gold.Chemscore.Rot.Weighted>
4.2096

> <Gold.Chemscore.Internal.Correction.Weighted>
   9.000000E+99

> <Gold.Protein.RotatedTorsions>
[ 6907 6896 6895 6894 ] final -179.12 input  -60.11 | X-H torsion
[ 7974 7965 7964 7962 ] final -137.72 input  175.53 | X-H torsion
[ 8008 7997 7996 7995 ] final  144.73 input   59.86 | X-H torsion
[ 10167 10162 10161 10158 ] final  -80.05 input  -65.29 | X-H torsion
[ 10718 10713 10712 10709 ] final   45.37 input   66.30 | X-H torsion
[ 10763 10752 10751 10750 ] final  -79.25 input  -60.55 | X-H torsion
[ 11005 11000 10999 10996 ] final  -85.48 input  -57.11 | X-H torsion

> <Gold.Protein.ActiveResidues>
 VAL166  LYS551  ARG553  GLY616  TRP617  ASP618  TYR619  PRO620  LYS621  CYS622 
 ASP623  PHE694  ASN695  SER759  ASP760  ASP761  ALA762  ILE779  LEU786  VAL792 
 PHE793  MET794  SER795  GLU796  ALA797  LYS798  CYS799  TRP800  GLU811  SER814 

> <Gold.Protein.RotatedAtoms>
  151.6483  133.3322  159.3145 H   0  0  0  0  0  0  0  0  0  0  0  0  # atno 6907 bound_to 6896
  150.7973  134.7045  159.6578 H   0  0  0  0  0  0  0  0  0  0  0  0  # atno 6908 bound_to 6896
  152.4061  134.6208  160.0101 H   0  0  0  0  0  0  0  0  0  0  0  0  # atno 6909 bound_to 6896
  144.8818  140.6518  143.5201 H   0  0  0  0  0  0  0  0  0  0  0  0  # atno 7974 bound_to 7965
  156.2901  140.2228  156.5100 H   0  0  0  0  0  0  0  0  0  0  0  0  # atno 8008 bound_to 7997
  154.7617  140.0473  157.1000 H   0  0  0  0  0  0  0  0  0  0  0  0  # atno 8009 bound_to 7997
  154.9983  140.3098  155.4881 H   0  0  0  0  0  0  0  0  0  0  0  0  # atno 8010 bound_to 7997
  140.4538  143.2474  151.8450 H   0  0  0  0  0  0  0  0  0  0  0  0  # atno 10167 bound_to 10162
  157.4368  130.8058  149.7656 H   0  0  0  0  0  0  0  0  0  0  0  0  # atno 10718 bound_to 10713
  154.5362  135.5702  153.6801 H   0  0  0  0  0  0  0  0  0  0  0  0  # atno 10763 bound_to 10752
  152.9952  135.6217  154.2562 H   0  0  0  0  0  0  0  0  0  0  0  0  # atno 10764 bound_to 10752
  154.2491  135.2860  155.2803 H   0  0  0  0  0  0  0  0  0  0  0  0  # atno 10765 bound_to 10752
  141.1640  133.7402  156.9022 H   0  0  0  0  0  0  0  0  0  0  0  0  # atno 11005 bound_to 11000
  145.3940  139.1611  143.4213 LP  0  0  0  0  0  0  0  0  0  0  0  0  # atno 17320 bound_to 7965
  146.2999  140.4031  142.8708 LP  0  0  0  0  0  0  0  0  0  0  0  0  # atno 17321 bound_to 7965
  139.4799  144.5089  151.8960 LP  0  0  0  0  0  0  0  0  0  0  0  0  # atno 17342 bound_to 10162
  140.4175  144.2287  150.5887 LP  0  0  0  0  0  0  0  0  0  0  0  0  # atno 17343 bound_to 10162
  155.9934  130.3925  150.2903 LP  0  0  0  0  0  0  0  0  0  0  0  0  # atno 17370 bound_to 10713
  157.1065  131.0210  151.3065 LP  0  0  0  0  0  0  0  0  0  0  0  0  # atno 17371 bound_to 10713
  140.1575  134.9188  157.2672 LP  0  0  0  0  0  0  0  0  0  0  0  0  # atno 17394 bound_to 11000
  140.2650  134.3526  155.7393 LP  0  0  0  0  0  0  0  0  0  0  0  0  # atno 17395 bound_to 11000

$$$$
