AV-unprocessed.smi:3158|AV-procd|sdf|12042|dock7
  -GOLD-   2272017463D 1   1.00000     0.00000
 Structure written by MMmdl.
 40 40  0  0  0  0  0  0  0  0  2 V2000
  151.7549  138.8785  155.2900 C   0  0  0  0  0  0  0  0  0  0  0  0
  150.7195  138.3098  154.3086 C   0  0  0  0  0  0  0  0  0  0  0  0
  149.3082  138.8977  154.4926 C   0  0  1  0  0  0  0  0  0  0  0  0
  149.3495  140.4088  154.7638 C   0  0  0  0  0  0  0  0  0  0  0  0
  148.4949  138.6323  153.3079 N   0  0  0  0  0  0  0  0  0  0  0  0
  147.2697  139.1269  153.0739 C   0  0  0  0  0  0  0  0  0  0  0  0
  146.6885  139.8959  153.8404 O   0  0  0  0  0  0  0  0  0  0  0  0
  146.5970  138.6911  151.7655 C   0  0  2  0  0  0  0  0  0  0  0  0
  146.4878  139.8869  150.8076 C   0  0  0  0  0  0  0  0  0  0  0  0
  145.2532  138.1262  152.0178 N   0  3  0  0  0  0  0  0  0  0  0  0
  145.2423  136.8497  152.7660 C   0  0  0  0  0  0  0  0  0  0  0  0
  143.9366  136.0720  152.5276 C   0  0  0  0  0  0  0  0  0  0  0  0
  144.1112  134.9304  151.6442 N   0  0  0  0  0  0  0  0  0  0  0  0
  143.8332  133.6034  151.8980 C   0  0  0  0  0  0  0  0  0  0  0  0
  144.1359  132.9002  150.7673 C   0  0  0  0  0  0  0  0  0  0  0  0
  144.5853  133.8980  149.8581 C   0  0  0  0  0  0  0  0  0  0  0  0
  144.5609  135.1123  150.3830 N   0  0  0  0  0  0  0  0  0  0  0  0
  152.7444  138.4678  155.0884 H   0  0  0  0  0  0  0  0  0  0  0  0
  151.5046  138.6390  156.3239 H   0  0  0  0  0  0  0  0  0  0  0  0
  151.8224  139.9634  155.2043 H   0  0  0  0  0  0  0  0  0  0  0  0
  151.0600  138.5089  153.2917 H   0  0  0  0  0  0  0  0  0  0  0  0
  150.6855  137.2241  154.4084 H   0  0  0  0  0  0  0  0  0  0  0  0
  148.8616  138.4130  155.3629 H   0  0  0  0  0  0  0  0  0  0  0  0
  149.9344  140.6311  155.6565 H   0  0  0  0  0  0  0  0  0  0  0  0
  148.3470  140.8079  154.9220 H   0  0  0  0  0  0  0  0  0  0  0  0
  149.7965  140.9507  153.9295 H   0  0  0  0  0  0  0  0  0  0  0  0
  148.8957  138.0138  152.6174 H   0  0  0  0  0  0  0  0  0  0  0  0
  147.2057  137.9243  151.2827 H   0  0  0  0  0  0  0  0  0  0  0  0
  147.4688  140.3104  150.5885 H   0  0  0  0  0  0  0  0  0  0  0  0
  145.8688  140.6819  151.2263 H   0  0  0  0  0  0  0  0  0  0  0  0
  146.0432  139.5877  149.8579 H   0  0  0  0  0  0  0  0  0  0  0  0
  144.7209  138.8111  152.5362 H   0  0  0  0  0  0  0  0  0  0  0  0
  146.0939  136.2479  152.4469 H   0  0  0  0  0  0  0  0  0  0  0  0
  145.3753  137.0343  153.8328 H   0  0  0  0  0  0  0  0  0  0  0  0
  143.5284  135.7215  153.4766 H   0  0  0  0  0  0  0  0  0  0  0  0
  143.1864  136.7290  152.0865 H   0  0  0  0  0  0  0  0  0  0  0  0
  143.4489  133.2717  152.8516 H   0  0  0  0  0  0  0  0  0  0  0  0
  144.0453  131.8355  150.6109 H   0  0  0  0  0  0  0  0  0  0  0  0
  144.9224  133.7771  148.8390 H   0  0  0  0  0  0  0  0  0  0  0  0
  144.7997  137.9678  151.1297 H   0  0  0  0  0  0  0  0  0  0  0  0
  1  2  1  0  0  0  0
  1 18  1  0  0  0  0
  1 19  1  0  0  0  0
  1 20  1  0  0  0  0
  2  3  1  0  0  0  0
  2 21  1  0  0  0  0
  2 22  1  0  0  0  0
  3  4  1  0  0  0  0
  3  5  1  0  0  0  0
  3 23  1  0  0  0  0
  4 24  1  0  0  0  0
  4 25  1  0  0  0  0
  4 26  1  0  0  0  0
  5  6  1  0  0  0  0
  5 27  1  0  0  0  0
  6  7  2  0  0  0  0
  6  8  1  0  0  0  0
  8  9  1  0  0  0  0
  8 10  1  0  0  0  0
  8 28  1  0  0  0  0
  9 29  1  0  0  0  0
  9 30  1  0  0  0  0
  9 31  1  0  0  0  0
 10 11  1  0  0  0  0
 10 32  1  0  0  0  0
 10 40  1  0  0  0  0
 11 12  1  0  0  0  0
 11 33  1  0  0  0  0
 11 34  1  0  0  0  0
 12 13  1  0  0  0  0
 12 35  1  0  0  0  0
 12 36  1  0  0  0  0
 13 17  1  0  0  0  0
 13 14  1  0  0  0  0
 14 15  2  0  0  0  0
 14 37  1  0  0  0  0
 15 16  1  0  0  0  0
 15 38  1  0  0  0  0
 16 17  2  0  0  0  0
 16 39  1  0  0  0  0
M  CHG  1  10   1
M  END
> <s_m_source_file>
AV-unprocessed.smi

> <i_m_source_file_index>
3158

> <i_lp_mmshare_version>
43012

> <i_f3d_flags>
0

> <s_epik_input>
W0NIM11bQ0gyXVtDQEhdKFtDSDNdKVtOSF1DKD1PKVtDQEhdKFtDSDNdKVtOSF1bQ0gyXVtDSDJdbjFbY0hdW2NIXVtjSF1uMQ==

> <s_epik_cmdline>
J2VwaWtfcHl0aG9uJywgJy1waCcsICc3LjAnLCAnLXRuJywgJzgnLCAnLW1hJywgJzIwMCcsICctbWV0YWxfYmluZGluZycsICctaW1hZScsICc8aW5maWxlLm1hZT4nLCAnLW9tYWUnLCAnPG91dGZpbGUubWFlPic=

> <r_lp_tautomer_probability>
1

> <r_epik_Ionization_Penalty>
0.20724

> <r_epik_Ionization_Penalty_Charging>
0.207237

> <r_epik_Ionization_Penalty_Neutral>
3.33806e-06

> <r_epik_State_Penalty>
0.197234

> <r_epik_Charging_Adjusted_Penalty>
0.404471

> <i_epik_Tot_Q>
1

> <i_epik_Tot_abs_Q>
1

> <r_epik_Metal_State_Penalty>
0.197524

> <b_epik_Metal_Only>
0

> <s_lp_Force_Field>
OPLS_2005

> <r_lp_Energy>
6.13047

> <b_lp_Chiralities_Consistent>
1

> <s_lp_Variant>
AV-unprocessed.smi:3158-2

> <Gold.Version>
5.8.1

> <Gold.Id.Protein>
6NUR|6NUR_protein|mol2

> <Gold.PLP.Fitness>
47.8496

> <Gold.PLP.PLP>
-31.5778

> <Gold.PLP.part.hbond>
-4.0000

> <Gold.PLP.part.metal>
0.0000

> <Gold.PLP.part.buried>
0.0761

> <Gold.PLP.part.nonpolar>
-28.5102

> <Gold.PLP.part.repulsive>
0.5147

> <Gold.PLP.ligand.clash>
0.0000

> <Gold.PLP.ligand.torsion>
0.8148

> <Gold.PLP.Chemscore.Hbond>
3.9360

> <Gold.PLP.Chemscore.CHOScore>
2.0000

> <Gold.PLP.Chemscore.Metal>
0.0000

> <Gold.Chemscore.Hbonds>
donor molecule, donor type, donor heavy atom, donor atom, acceptor molecule, acceptor atom, score
      L1  H     5    27       P1  7948  0.98
      L1  H    10    32       P1 10175  1.86
      L1  H    10    40       P1 10171  0.98
      L1  C    14    37       P1 10957  0.92
      L1  C    16    39       P1  7921  0.90

> <Gold.PLP.Chemscore.Internal.Correction>
0.0934

> <Gold.Rescore>
     Score         DG    S(hbond)    S(metal)    S(lipo)     H(rot)  DE(clash)    DE(int)     intcor
     14.95     -18.76       2.83        0.00      81.14       2.21       2.27       1.54       ----

> <Gold.Chemscore.Fitness>
14.9493

> <Gold.Chemscore.DG>
-18.7574

> <Gold.Chemscore.ZeroCoef>
-5.4800

> <Gold.Chemscore.Hbond>
2.8294

> <Gold.Chemscore.Metal>
0.0000

> <Gold.Chemscore.Lipo>
81.1376

> <Gold.Chemscore.Internal_Hbond>
0.0000

> <Gold.Chemscore.DEClash>
2.2654

> <Gold.Chemscore.DEInternal>
1.5427

> <Gold.Chemscore.Rot>
2.2132

> <Gold.Chemscore.Internal.Correction>
   9.000000E+99

> <Gold.Chemscore.Hbonds>
donor molecule, donor type, donor heavy atom, donor atom, acceptor molecule, acceptor atom, score
      L1  H     5    27       P1  7948  0.93
      L1  H    10    32       P1 10175  0.89
      L1  H    10    40       P1 10171  0.93

> <Gold.Chemscore.Hbond.Weighted>
-9.4501

> <Gold.Chemscore.Metal.Weighted>
-0.0000

> <Gold.Chemscore.Lipo.Weighted>
-9.4931

> <Gold.Chemscore.Internal_Hbond.Weighted>
0.0000

> <Gold.Chemscore.DEClash.Weighted>
2.2654

> <Gold.Chemscore.DEInternal.Weighted>
1.5427

> <Gold.Chemscore.Rot.Weighted>
5.6658

> <Gold.Chemscore.Internal.Correction.Weighted>
   9.000000E+99

> <Gold.Protein.RotatedTorsions>
[ 6907 6896 6895 6894 ] final   -9.82 input  -60.11 | X-H torsion
[ 7974 7965 7964 7962 ] final -154.93 input  175.53 | X-H torsion
[ 8008 7997 7996 7995 ] final  162.68 input   59.86 | X-H torsion
[ 10167 10162 10161 10158 ] final   89.88 input  -65.29 | X-H torsion
[ 10718 10713 10712 10709 ] final    3.63 input   66.30 | X-H torsion
[ 10763 10752 10751 10750 ] final -103.46 input  -60.55 | X-H torsion
[ 11005 11000 10999 10996 ] final   30.38 input  -57.11 | X-H torsion

> <Gold.Protein.ActiveResidues>
 VAL166  LYS551  ARG553  GLY616  TRP617  ASP618  TYR619  PRO620  LYS621  CYS622 
 ASP623  PHE694  ASN695  SER759  ASP760  ASP761  ALA762  ILE779  LEU786  VAL792 
 PHE793  MET794  SER795  GLU796  ALA797  LYS798  CYS799  TRP800  GLU811  SER814 

> <Gold.Protein.RotatedAtoms>
  151.4118  135.0986  159.9586 H   0  0  0  0  0  0  0  0  0  0  0  0  # atno 6907 bound_to 6896
  152.5017  133.8790  159.7347 H   0  0  0  0  0  0  0  0  0  0  0  0  # atno 6908 bound_to 6896
  150.9287  133.6736  159.2844 H   0  0  0  0  0  0  0  0  0  0  0  0  # atno 6909 bound_to 6896
  144.7665  140.4319  143.5938 H   0  0  0  0  0  0  0  0  0  0  0  0  # atno 7974 bound_to 7965
  156.2013  140.1744  156.7893 H   0  0  0  0  0  0  0  0  0  0  0  0  # atno 8008 bound_to 7997
  154.5596  140.0702  156.8828 H   0  0  0  0  0  0  0  0  0  0  0  0  # atno 8009 bound_to 7997
  155.2874  140.3353  155.4257 H   0  0  0  0  0  0  0  0  0  0  0  0  # atno 8010 bound_to 7997
  139.8529  144.6584  150.9149 H   0  0  0  0  0  0  0  0  0  0  0  0  # atno 10167 bound_to 10162
  156.8806  130.5652  149.5653 H   0  0  0  0  0  0  0  0  0  0  0  0  # atno 10718 bound_to 10713
  154.7809  135.4822  153.9842 H   0  0  0  0  0  0  0  0  0  0  0  0  # atno 10763 bound_to 10752
  153.1492  135.6788  153.8915 H   0  0  0  0  0  0  0  0  0  0  0  0  # atno 10764 bound_to 10752
  153.8564  135.3161  155.3413 H   0  0  0  0  0  0  0  0  0  0  0  0  # atno 10765 bound_to 10752
  140.2950  134.2821  155.7767 H   0  0  0  0  0  0  0  0  0  0  0  0  # atno 11005 bound_to 11000
  145.6455  139.1556  143.2891 LP  0  0  0  0  0  0  0  0  0  0  0  0  # atno 17320 bound_to 7965
  146.1776  140.6548  142.9204 LP  0  0  0  0  0  0  0  0  0  0  0  0  # atno 17321 bound_to 7965
  140.7785  143.3812  151.1474 LP  0  0  0  0  0  0  0  0  0  0  0  0  # atno 17342 bound_to 10162
  139.7448  143.8869  152.3060 LP  0  0  0  0  0  0  0  0  0  0  0  0  # atno 17343 bound_to 10162
  156.0679  130.5718  150.9325 LP  0  0  0  0  0  0  0  0  0  0  0  0  # atno 17370 bound_to 10713
  157.6142  131.0934  150.8740 LP  0  0  0  0  0  0  0  0  0  0  0  0  # atno 17371 bound_to 10713
  141.2139  133.7609  156.9682 LP  0  0  0  0  0  0  0  0  0  0  0  0  # atno 17394 bound_to 11000
  140.1160  134.9447  157.2135 LP  0  0  0  0  0  0  0  0  0  0  0  0  # atno 17395 bound_to 11000

$$$$
