AV-unprocessed.smi:1013|AV-procd|sdf|4426|dock8
  -GOLD-   22720 2383D 1   1.00000     0.00000
 Structure written by MMmdl.
 30 31  0  0  0  0  0  0  0  0  3 V2000
  151.1608  139.8185  154.3350 O   0  0  0  0  0  0  0  0  0  0  0  0
  150.0645  140.1485  154.8375 C   0  0  0  0  0  0  0  0  0  0  0  0
  149.0784  139.3899  154.9791 O   0  5  0  0  0  0  0  0  0  0  0  0
  149.9232  141.6098  155.3033 C   0  0  2  0  0  0  0  0  0  0  0  0
  149.6727  141.6858  156.8269 C   0  0  0  0  0  0  0  0  0  0  0  0
  150.8444  142.1232  157.5672 N   0  0  0  0  0  0  0  0  0  0  0  0
  151.4205  143.3747  157.5994 C   0  0  0  0  0  0  0  0  0  0  0  0
  152.4995  143.3029  158.4325 C   0  0  0  0  0  0  0  0  0  0  0  0
  152.5050  141.9485  158.8766 C   0  0  0  0  0  0  0  0  0  0  0  0
  153.4707  141.2773  159.8173 C   0  0  0  0  0  0  0  0  0  0  0  0
  154.7182  141.4005  159.3637 F   0  0  0  0  0  0  0  0  0  0  0  0
  153.3961  141.8405  161.0231 F   0  0  0  0  0  0  0  0  0  0  0  0
  153.1790  139.9811  159.9234 F   0  0  0  0  0  0  0  0  0  0  0  0
  151.5031  141.2509  158.3586 N   0  0  0  0  0  0  0  0  0  0  0  0
  148.8034  142.2494  154.5783 N   0  3  0  0  0  0  0  0  0  0  0  0
  147.4818  141.6341  154.8186 C   0  0  0  0  0  0  0  0  0  0  0  0
  146.4273  142.0452  153.8208 C   0  0  0  0  0  0  0  0  0  0  0  0
  146.4255  142.6351  155.2160 C   0  0  0  0  0  0  0  0  0  0  0  0
  150.8335  142.1675  155.0724 H   0  0  0  0  0  0  0  0  0  0  0  0
  148.8729  142.3977  157.0341 H   0  0  0  0  0  0  0  0  0  0  0  0
  149.3334  140.7252  157.2199 H   0  0  0  0  0  0  0  0  0  0  0  0
  151.0232  144.2013  157.0293 H   0  0  0  0  0  0  0  0  0  0  0  0
  153.1847  144.0981  158.6859 H   0  0  0  0  0  0  0  0  0  0  0  0
  148.7717  143.2215  154.8522 H   0  0  0  0  0  0  0  0  0  0  0  0
  147.4799  140.6398  155.2617 H   0  0  0  0  0  0  0  0  0  0  0  0
  146.7235  142.6940  152.9984 H   0  0  0  0  0  0  0  0  0  0  0  0
  145.6515  141.3196  153.5848 H   0  0  0  0  0  0  0  0  0  0  0  0
  145.6463  142.2993  155.8973 H   0  0  0  0  0  0  0  0  0  0  0  0
  146.7154  143.6794  155.3199 H   0  0  0  0  0  0  0  0  0  0  0  0
  148.9952  142.1950  153.5888 H   0  0  0  0  0  0  0  0  0  0  0  0
  1  2  2  0  0  0  0
  2  3  1  0  0  0  0
  2  4  1  0  0  0  0
  4  5  1  0  0  0  0
  4 15  1  0  0  0  0
  4 19  1  0  0  0  0
  5  6  1  0  0  0  0
  5 20  1  0  0  0  0
  5 21  1  0  0  0  0
  6 14  1  0  0  0  0
  6  7  1  0  0  0  0
  7  8  2  0  0  0  0
  7 22  1  0  0  0  0
  8  9  1  0  0  0  0
  8 23  1  0  0  0  0
  9 10  1  0  0  0  0
  9 14  2  0  0  0  0
 10 11  1  0  0  0  0
 10 12  1  0  0  0  0
 10 13  1  0  0  0  0
 15 16  1  0  0  0  0
 15 24  1  0  0  0  0
 15 30  1  0  0  0  0
 16 18  1  0  0  0  0
 16 17  1  0  0  0  0
 16 25  1  0  0  0  0
 17 18  1  0  0  0  0
 17 26  1  0  0  0  0
 17 27  1  0  0  0  0
 18 28  1  0  0  0  0
 18 29  1  0  0  0  0
M  CHG  1   3  -1
M  CHG  1  15   1
M  END
> <s_m_source_file>
AV-unprocessed.smi

> <i_m_source_file_index>
1013

> <i_lp_mmshare_version>
43012

> <i_f3d_flags>
0

> <s_epik_input>
W0NIMl0xW0NIMl1bQ0hdMVtOSF1bQ0BIXShDKD1PKVtPSF0pW0NIMl1uMltjSF1bY0hdYyhuMilDKEYpKEYpRg==

> <s_epik_cmdline>
J2VwaWtfcHl0aG9uJywgJy1waCcsICc3LjAnLCAnLXRuJywgJzgnLCAnLW1hJywgJzIwMCcsICctbWV0YWxfYmluZGluZycsICctaW1hZScsICc8aW5maWxlLm1hZT4nLCAnLW9tYWUnLCAnPG91dGZpbGUubWFlPic=

> <r_lp_tautomer_probability>
1

> <r_epik_Ionization_Penalty>
0.183175

> <r_epik_Ionization_Penalty_Charging>
0.183175

> <r_epik_Ionization_Penalty_Neutral>
3.57035e-11

> <r_epik_State_Penalty>
0.172705

> <r_epik_Charging_Adjusted_Penalty>
0.35588

> <i_epik_Tot_Q>
0

> <i_epik_Tot_abs_Q>
2

> <r_epik_Metal_State_Penalty>
0.172705

> <b_epik_Metal_Only>
0

> <s_lp_Force_Field>
OPLS_2005

> <r_lp_Energy>
11.6824

> <b_lp_Chiralities_Consistent>
1

> <s_lp_Variant>
AV-unprocessed.smi:1013-1

> <Gold.Version>
5.8.1

> <Gold.Id.Protein>
6NUR|6NUR_protein|mol2

> <Gold.PLP.Fitness>
49.8596

> <Gold.PLP.PLP>
-39.6316

> <Gold.PLP.part.hbond>
-2.0000

> <Gold.PLP.part.metal>
0.0000

> <Gold.PLP.part.buried>
-5.5367

> <Gold.PLP.part.nonpolar>
-33.2200

> <Gold.PLP.part.repulsive>
1.0288

> <Gold.PLP.ligand.clash>
0.0000

> <Gold.PLP.ligand.torsion>
1.2031

> <Gold.PLP.Chemscore.Hbond>
3.0000

> <Gold.PLP.Chemscore.CHOScore>
0.9875

> <Gold.PLP.Chemscore.Metal>
0.0000

> <Gold.Chemscore.Hbonds>
donor molecule, donor type, donor heavy atom, donor atom, acceptor molecule, acceptor atom, score
      L1  H    15    24       P1  8028  2.00
      P1  H  7989  7998       L1     1  0.73
      L1  C     7    22       P1  8028  0.92

> <Gold.PLP.Chemscore.Internal.Correction>
0.6716

> <Gold.Rescore>
     Score         DG    S(hbond)    S(metal)    S(lipo)     H(rot)  DE(clash)    DE(int)     intcor
     12.36     -14.12       1.96        0.00      74.86       2.60       0.14       1.62       ----

> <Gold.Chemscore.Fitness>
12.3586

> <Gold.Chemscore.DG>
-14.1236

> <Gold.Chemscore.ZeroCoef>
-5.4800

> <Gold.Chemscore.Hbond>
1.9559

> <Gold.Chemscore.Metal>
0.0000

> <Gold.Chemscore.Lipo>
74.8647

> <Gold.Chemscore.Internal_Hbond>
0.0000

> <Gold.Chemscore.DEClash>
0.1415

> <Gold.Chemscore.DEInternal>
1.6234

> <Gold.Chemscore.Rot>
2.5970

> <Gold.Chemscore.Internal.Correction>
   9.000000E+99

> <Gold.Chemscore.Hbonds>
donor molecule, donor type, donor heavy atom, donor atom, acceptor molecule, acceptor atom, score
      L1  H    15    24       P1  8028  1.00
      P1  H  7989  7998       L1     1  0.54

> <Gold.Chemscore.Hbond.Weighted>
-6.5328

> <Gold.Chemscore.Metal.Weighted>
-0.0000

> <Gold.Chemscore.Lipo.Weighted>
-8.7592

> <Gold.Chemscore.Internal_Hbond.Weighted>
0.0000

> <Gold.Chemscore.DEClash.Weighted>
0.1415

> <Gold.Chemscore.DEInternal.Weighted>
1.6234

> <Gold.Chemscore.Rot.Weighted>
6.6484

> <Gold.Chemscore.Internal.Correction.Weighted>
   9.000000E+99

> <Gold.Protein.RotatedTorsions>
[ 6907 6896 6895 6894 ] final  149.95 input  -60.11 | X-H torsion
[ 7974 7965 7964 7962 ] final   46.84 input  175.53 | X-H torsion
[ 8008 7997 7996 7995 ] final  -55.31 input   59.86 | X-H torsion
[ 10167 10162 10161 10158 ] final   97.64 input  -65.29 | X-H torsion
[ 10718 10713 10712 10709 ] final  156.79 input   66.30 | X-H torsion
[ 10763 10752 10751 10750 ] final -173.85 input  -60.55 | X-H torsion
[ 11005 11000 10999 10996 ] final    7.84 input  -57.11 | X-H torsion

> <Gold.Protein.ActiveResidues>
 VAL166  LYS551  ARG553  GLY616  TRP617  ASP618  TYR619  PRO620  LYS621  CYS622 
 ASP623  PHE694  ASN695  SER759  ASP760  ASP761  ALA762  ILE779  LEU786  VAL792 
 PHE793  MET794  SER795  GLU796  ALA797  LYS798  CYS799  TRP800  GLU811  SER814 

> <Gold.Protein.RotatedAtoms>
  152.1210  133.4353  159.4675 H   0  0  0  0  0  0  0  0  0  0  0  0  # atno 6907 bound_to 6896
  150.6872  134.2534  159.4529 H   0  0  0  0  0  0  0  0  0  0  0  0  # atno 6908 bound_to 6896
  152.0411  134.9710  160.0624 H   0  0  0  0  0  0  0  0  0  0  0  0  # atno 6909 bound_to 6896
  146.0353  139.4813  142.9812 H   0  0  0  0  0  0  0  0  0  0  0  0  # atno 7974 bound_to 7965
  154.4191  140.1156  156.5457 H   0  0  0  0  0  0  0  0  0  0  0  0  # atno 8008 bound_to 7997
  155.6462  140.3496  155.4713 H   0  0  0  0  0  0  0  0  0  0  0  0  # atno 8009 bound_to 7997
  155.9830  140.1164  157.0699 H   0  0  0  0  0  0  0  0  0  0  0  0  # atno 8010 bound_to 7997
  139.7782  144.6898  151.0060 H   0  0  0  0  0  0  0  0  0  0  0  0  # atno 10167 bound_to 10162
  157.2003  131.0674  151.2029 H   0  0  0  0  0  0  0  0  0  0  0  0  # atno 10718 bound_to 10713
  154.6031  135.2856  155.0513 H   0  0  0  0  0  0  0  0  0  0  0  0  # atno 10763 bound_to 10752
  154.1771  135.6463  153.5028 H   0  0  0  0  0  0  0  0  0  0  0  0  # atno 10764 bound_to 10752
  153.0165  135.5414  154.6758 H   0  0  0  0  0  0  0  0  0  0  0  0  # atno 10765 bound_to 10752
  140.5437  134.0350  155.7913 H   0  0  0  0  0  0  0  0  0  0  0  0  # atno 11005 bound_to 11000
  145.6974  141.0146  143.1522 LP  0  0  0  0  0  0  0  0  0  0  0  0  # atno 17320 bound_to 7965
  144.7049  139.8604  143.7433 LP  0  0  0  0  0  0  0  0  0  0  0  0  # atno 17321 bound_to 7965
  140.7817  143.4512  151.0410 LP  0  0  0  0  0  0  0  0  0  0  0  0  # atno 17342 bound_to 10162
  139.8194  143.7841  152.3176 LP  0  0  0  0  0  0  0  0  0  0  0  0  # atno 17343 bound_to 10162
  157.3774  130.7213  149.6606 LP  0  0  0  0  0  0  0  0  0  0  0  0  # atno 17370 bound_to 10713
  155.9701  130.4182  150.4315 LP  0  0  0  0  0  0  0  0  0  0  0  0  # atno 17371 bound_to 10713
  141.1212  133.9458  157.2725 LP  0  0  0  0  0  0  0  0  0  0  0  0  # atno 17394 bound_to 11000
  139.9491  135.0179  156.8940 LP  0  0  0  0  0  0  0  0  0  0  0  0  # atno 17395 bound_to 11000

$$$$
