AV-unprocessed.smi:946|AV-procd|sdf|4237|dock5
  -GOLD-   22720 2143D 1   1.00000     0.00000
 Structure written by MMmdl.
 42 43  0  0  0  0  0  0  0  0  1 V2000
  149.8228  140.3524  155.7133 C   0  0  0  0  0  0  0  0  0  0  0  0
  150.4959  139.6365  156.8938 C   0  0  1  0  0  0  0  0  0  0  0  0
  150.5114  140.5426  157.9942 O   0  0  0  0  0  0  0  0  0  0  0  0
  151.1628  141.7857  157.7566 C   0  0  0  0  0  0  0  0  0  0  0  0
  151.1818  142.5930  159.0608 C   0  0  1  0  0  0  0  0  0  0  0  0
  152.4387  142.2944  159.9015 C   0  0  0  0  0  0  0  0  0  0  0  0
  152.4766  143.1825  161.1503 C   0  0  0  0  0  0  0  0  0  0  0  0
  152.3319  144.6521  160.7423 C   0  0  0  0  0  0  0  0  0  0  0  0
  151.0928  144.8396  159.8530 C   0  0  0  0  0  0  0  0  0  0  0  0
  151.1748  143.9785  158.7213 O   0  0  0  0  0  0  0  0  0  0  0  0
  149.7503  138.3450  157.2680 C   0  0  0  0  0  0  0  0  0  0  0  0
  149.4247  137.5501  156.3856 O   0  0  0  0  0  0  0  0  0  0  0  0
  149.4879  138.1833  158.5787 N   0  0  0  0  0  0  0  0  0  0  0  0
  148.8108  137.1104  159.2155 C   0  0  0  0  0  0  0  0  0  0  0  0
  148.8071  135.8943  158.4974 C   0  0  0  0  0  0  0  0  0  0  0  0
  148.1631  134.7692  159.0458 C   0  0  0  0  0  0  0  0  0  0  0  0
  147.5375  134.8880  160.2994 C   0  0  0  0  0  0  0  0  0  0  0  0
  147.5832  136.1373  160.9542 C   0  0  0  0  0  0  0  0  0  0  0  0
  146.9277  136.3515  162.3116 C   0  0  0  0  0  0  0  0  0  0  0  0
  145.9499  137.2510  162.2018 F   0  0  0  0  0  0  0  0  0  0  0  0
  146.4079  135.2214  162.7920 F   0  0  0  0  0  0  0  0  0  0  0  0
  147.8316  136.8027  163.1815 F   0  0  0  0  0  0  0  0  0  0  0  0
  148.2042  137.2149  160.4233 N   0  0  0  0  0  0  0  0  0  0  0  0
  149.7641  139.7042  154.8381 H   0  0  0  0  0  0  0  0  0  0  0  0
  150.3885  141.2396  155.4276 H   0  0  0  0  0  0  0  0  0  0  0  0
  148.8107  140.6747  155.9613 H   0  0  0  0  0  0  0  0  0  0  0  0
  151.5229  139.4009  156.6074 H   0  0  0  0  0  0  0  0  0  0  0  0
  152.1866  141.6083  157.4253 H   0  0  0  0  0  0  0  0  0  0  0  0
  150.6564  142.3485  156.9707 H   0  0  0  0  0  0  0  0  0  0  0  0
  150.2907  142.3502  159.6428 H   0  0  0  0  0  0  0  0  0  0  0  0
  152.4595  141.2437  160.1924 H   0  0  0  0  0  0  0  0  0  0  0  0
  153.3330  142.4707  159.3021 H   0  0  0  0  0  0  0  0  0  0  0  0
  151.6640  142.9054  161.8228 H   0  0  0  0  0  0  0  0  0  0  0  0
  153.4061  143.0295  161.6992 H   0  0  0  0  0  0  0  0  0  0  0  0
  152.2627  145.2850  161.6274 H   0  0  0  0  0  0  0  0  0  0  0  0
  153.2214  144.9711  160.1973 H   0  0  0  0  0  0  0  0  0  0  0  0
  150.1768  144.6393  160.4113 H   0  0  0  0  0  0  0  0  0  0  0  0
  151.0341  145.8712  159.5059 H   0  0  0  0  0  0  0  0  0  0  0  0
  149.8096  138.9186  159.1907 H   0  0  0  0  0  0  0  0  0  0  0  0
  149.2920  135.8194  157.5349 H   0  0  0  0  0  0  0  0  0  0  0  0
  148.1491  133.8303  158.5124 H   0  0  0  0  0  0  0  0  0  0  0  0
  147.0375  134.0378  160.7391 H   0  0  0  0  0  0  0  0  0  0  0  0
  1  2  1  0  0  0  0
  1 24  1  0  0  0  0
  1 25  1  0  0  0  0
  1 26  1  0  0  0  0
  2  3  1  0  0  0  0
  2 11  1  0  0  0  0
  2 27  1  0  0  0  0
  3  4  1  0  0  0  0
  4  5  1  0  0  0  0
  4 28  1  0  0  0  0
  4 29  1  0  0  0  0
  5 10  1  0  0  0  0
  5  6  1  0  0  0  0
  5 30  1  0  0  0  0
  6  7  1  0  0  0  0
  6 31  1  0  0  0  0
  6 32  1  0  0  0  0
  7  8  1  0  0  0  0
  7 33  1  0  0  0  0
  7 34  1  0  0  0  0
  8  9  1  0  0  0  0
  8 35  1  0  0  0  0
  8 36  1  0  0  0  0
  9 10  1  0  0  0  0
  9 37  1  0  0  0  0
  9 38  1  0  0  0  0
 11 12  2  0  0  0  0
 11 13  1  0  0  0  0
 13 14  1  0  0  0  0
 13 39  1  0  0  0  0
 14 23  1  0  0  0  0
 14 15  2  0  0  0  0
 15 16  1  0  0  0  0
 15 40  1  0  0  0  0
 16 17  2  0  0  0  0
 16 41  1  0  0  0  0
 17 18  1  0  0  0  0
 17 42  1  0  0  0  0
 18 19  1  0  0  0  0
 18 23  2  0  0  0  0
 19 20  1  0  0  0  0
 19 21  1  0  0  0  0
 19 22  1  0  0  0  0
M  END
> <s_m_source_file>
AV-unprocessed.smi

> <i_m_source_file_index>
946

> <i_lp_mmshare_version>
43012

> <i_f3d_flags>
0

> <s_epik_input>
TzFbQ0gyXVtDSDJdW0NIMl1bQ0gyXVtDQEhdMVtDSDJdT1tDQEBIXShbQ0gzXSlDKD1PKVtOSF1jMltjSF1bY0hdW2NIXWMobjIpQyhGKShGKUY=

> <s_epik_cmdline>
J2VwaWtfcHl0aG9uJywgJy1waCcsICc3LjAnLCAnLXRuJywgJzgnLCAnLW1hJywgJzIwMCcsICctbWV0YWxfYmluZGluZycsICctaW1hZScsICc8aW5maWxlLm1hZT4nLCAnLW9tYWUnLCAnPG91dGZpbGUubWFlPic=

> <r_lp_tautomer_probability>
1

> <r_epik_Ionization_Penalty>
1.32683e-06

> <r_epik_Ionization_Penalty_Charging>
0

> <r_epik_Ionization_Penalty_Neutral>
1.32683e-06

> <r_epik_State_Penalty>
-0

> <r_epik_Charging_Adjusted_Penalty>
0

> <i_epik_Tot_Q>
0

> <i_epik_Tot_abs_Q>
0

> <r_epik_Metal_State_Penalty>
-0

> <b_epik_Metal_Only>
0

> <s_lp_Force_Field>
OPLS_2005

> <r_lp_Energy>
14.7702

> <b_lp_Chiralities_Consistent>
1

> <s_lp_Variant>
AV-unprocessed.smi:946-4

> <Gold.Version>
5.8.1

> <Gold.Id.Protein>
6NUR|6NUR_protein|mol2

> <Gold.PLP.Fitness>
46.1659

> <Gold.PLP.PLP>
-44.2175

> <Gold.PLP.part.hbond>
-2.0000

> <Gold.PLP.part.metal>
0.0000

> <Gold.PLP.part.buried>
-5.8012

> <Gold.PLP.part.nonpolar>
-36.7383

> <Gold.PLP.part.repulsive>
0.3140

> <Gold.PLP.ligand.clash>
0.0000

> <Gold.PLP.ligand.torsion>
0.8004

> <Gold.PLP.Chemscore.Hbond>
1.1464

> <Gold.PLP.Chemscore.CHOScore>
0.0000

> <Gold.PLP.Chemscore.Metal>
0.0000

> <Gold.Chemscore.Hbonds>
donor molecule, donor type, donor heavy atom, donor atom, acceptor molecule, acceptor atom, score
      P1  H  6931  6943       L1    23  0.72
      P1  H  6934  6947       L1    23  0.50

> <Gold.PLP.Chemscore.Internal.Correction>
0.1099

> <Gold.Rescore>
     Score         DG    S(hbond)    S(metal)    S(lipo)     H(rot)  DE(clash)    DE(int)     intcor
     14.04     -16.27       1.12        0.00      98.72       1.76       0.18       2.05       ----

> <Gold.Chemscore.Fitness>
14.0388

> <Gold.Chemscore.DG>
-16.2651

> <Gold.Chemscore.ZeroCoef>
-5.4800

> <Gold.Chemscore.Hbond>
1.1168

> <Gold.Chemscore.Metal>
0.0000

> <Gold.Chemscore.Lipo>
98.7159

> <Gold.Chemscore.Internal_Hbond>
0.0000

> <Gold.Chemscore.DEClash>
0.1761

> <Gold.Chemscore.DEInternal>
2.0502

> <Gold.Chemscore.Rot>
1.7557

> <Gold.Chemscore.Internal.Correction>
   9.000000E+99

> <Gold.Chemscore.Hbonds>
donor molecule, donor type, donor heavy atom, donor atom, acceptor molecule, acceptor atom, score
      P1  H  6931  6943       L1    23  0.48
      P1  H  6934  6947       L1    23  0.39

> <Gold.Chemscore.Hbond.Weighted>
-3.7300

> <Gold.Chemscore.Metal.Weighted>
-0.0000

> <Gold.Chemscore.Lipo.Weighted>
-11.5498

> <Gold.Chemscore.Internal_Hbond.Weighted>
0.0000

> <Gold.Chemscore.DEClash.Weighted>
0.1761

> <Gold.Chemscore.DEInternal.Weighted>
2.0502

> <Gold.Chemscore.Rot.Weighted>
4.4946

> <Gold.Chemscore.Internal.Correction.Weighted>
   9.000000E+99

> <Gold.Protein.RotatedTorsions>
[ 6907 6896 6895 6894 ] final   78.88 input  -60.11 | X-H torsion
[ 7974 7965 7964 7962 ] final  -20.40 input  175.53 | X-H torsion
[ 8008 7997 7996 7995 ] final   -2.56 input   59.86 | X-H torsion
[ 10167 10162 10161 10158 ] final   97.07 input  -65.29 | X-H torsion
[ 10718 10713 10712 10709 ] final -116.27 input   66.30 | X-H torsion
[ 10763 10752 10751 10750 ] final -145.10 input  -60.55 | X-H torsion
[ 11005 11000 10999 10996 ] final  -47.41 input  -57.11 | X-H torsion

> <Gold.Protein.ActiveResidues>
 VAL166  LYS551  ARG553  GLY616  TRP617  ASP618  TYR619  PRO620  LYS621  CYS622 
 ASP623  PHE694  ASN695  SER759  ASP760  ASP761  ALA762  ILE779  LEU786  VAL792 
 PHE793  MET794  SER795  GLU796  ALA797  LYS798  CYS799  TRP800  GLU811  SER814 

> <Gold.Protein.RotatedAtoms>
  152.5177  134.3596  159.9279 H   0  0  0  0  0  0  0  0  0  0  0  0  # atno 6907 bound_to 6896
  151.3548  133.3905  159.2691 H   0  0  0  0  0  0  0  0  0  0  0  0  # atno 6908 bound_to 6896
  150.9698  134.9092  159.7839 H   0  0  0  0  0  0  0  0  0  0  0  0  # atno 6909 bound_to 6896
  146.1790  140.4196  142.8502 H   0  0  0  0  0  0  0  0  0  0  0  0  # atno 7974 bound_to 7965
  154.6344  140.2531  155.7396 H   0  0  0  0  0  0  0  0  0  0  0  0  # atno 8008 bound_to 7997
  156.2496  140.2900  156.0630 H   0  0  0  0  0  0  0  0  0  0  0  0  # atno 8009 bound_to 7997
  155.1694  140.0386  157.2850 H   0  0  0  0  0  0  0  0  0  0  0  0  # atno 8010 bound_to 7997
  139.7835  144.6879  150.9990 H   0  0  0  0  0  0  0  0  0  0  0  0  # atno 10167 bound_to 10162
  156.0952  130.6126  150.9014 H   0  0  0  0  0  0  0  0  0  0  0  0  # atno 10718 bound_to 10713
  154.8399  135.3422  154.6451 H   0  0  0  0  0  0  0  0  0  0  0  0  # atno 10763 bound_to 10752
  153.7062  135.6966  153.5054 H   0  0  0  0  0  0  0  0  0  0  0  0  # atno 10764 bound_to 10752
  153.2485  135.4361  155.0727 H   0  0  0  0  0  0  0  0  0  0  0  0  # atno 10765 bound_to 10752
  141.0639  133.6700  156.3294 H   0  0  0  0  0  0  0  0  0  0  0  0  # atno 11005 bound_to 11000
  144.8284  140.6666  143.6307 LP  0  0  0  0  0  0  0  0  0  0  0  0  # atno 17320 bound_to 7965
  145.4130  139.1577  143.4116 LP  0  0  0  0  0  0  0  0  0  0  0  0  # atno 17321 bound_to 7965
  140.7819  143.4457  151.0485 LP  0  0  0  0  0  0  0  0  0  0  0  0  # atno 17342 bound_to 10162
  139.8137  143.7915  152.3173 LP  0  0  0  0  0  0  0  0  0  0  0  0  # atno 17343 bound_to 10162
  157.6111  131.0936  150.8792 LP  0  0  0  0  0  0  0  0  0  0  0  0  # atno 17370 bound_to 10713
  156.8932  130.5220  149.5285 LP  0  0  0  0  0  0  0  0  0  0  0  0  # atno 17371 bound_to 10713
  140.5813  134.5743  157.5480 LP  0  0  0  0  0  0  0  0  0  0  0  0  # atno 17394 bound_to 11000
  139.9458  134.7705  156.0566 LP  0  0  0  0  0  0  0  0  0  0  0  0  # atno 17395 bound_to 11000

$$$$
