AV-unprocessed.smi:3314|AV-procd|sdf|12736|dock1
  -GOLD-   2272019 83D 1   1.00000     0.00000
 Structure written by MMmdl.
 37 38  0  0  0  0  0  0  0  0  1 V2000
  151.9671  145.6049  159.5613 C   0  0  0  0  0  0  0  0  0  0  0  0
  151.9055  144.1608  159.1095 C   0  0  0  0  0  0  0  0  0  0  0  0
  152.6912  143.1726  159.7331 C   0  0  0  0  0  0  0  0  0  0  0  0
  152.5899  141.8483  159.2630 C   0  0  0  0  0  0  0  0  0  0  0  0
  153.4028  140.7342  159.8881 C   0  0  0  0  0  0  0  0  0  0  0  0
  151.7783  141.4877  158.2461 N   0  0  0  0  0  0  0  0  0  0  0  0
  151.0173  142.4312  157.6382 C   0  0  0  0  0  0  0  0  0  0  0  0
  150.1347  142.1574  156.5604 N   0  0  0  0  0  0  0  0  0  0  0  0
  150.2955  141.2833  155.5491 C   0  0  0  0  0  0  0  0  0  0  0  0
  151.2787  140.5550  155.4057 O   0  0  0  0  0  0  0  0  0  0  0  0
  149.1466  141.2467  154.5343 C   0  0  1  0  0  0  0  0  0  0  0  0
  148.5568  139.8338  154.3239 C   0  0  0  0  0  0  0  0  0  0  0  0
  147.4309  139.8555  153.3992 N   0  0  0  0  0  0  0  0  0  0  0  0
  146.8797  138.5248  153.1933 C   0  0  0  0  0  0  0  0  0  0  0  0
  146.4215  140.7880  153.8833 C   0  0  0  0  0  0  0  0  0  0  0  0
  147.0061  142.1939  154.1046 C   0  0  0  0  0  0  0  0  0  0  0  0
  148.1165  142.1200  154.9945 O   0  0  0  0  0  0  0  0  0  0  0  0
  151.0571  143.7822  158.0499 C   0  0  0  0  0  0  0  0  0  0  0  0
  152.6504  145.7297  160.4020 H   0  0  0  0  0  0  0  0  0  0  0  0
  150.9792  145.9465  159.8711 H   0  0  0  0  0  0  0  0  0  0  0  0
  152.3106  146.2408  158.7451 H   0  0  0  0  0  0  0  0  0  0  0  0
  153.3533  143.4222  160.5496 H   0  0  0  0  0  0  0  0  0  0  0  0
  154.0729  141.1174  160.6582 H   0  0  0  0  0  0  0  0  0  0  0  0
  154.0067  140.2331  159.1310 H   0  0  0  0  0  0  0  0  0  0  0  0
  152.7434  139.9964  160.3459 H   0  0  0  0  0  0  0  0  0  0  0  0
  149.2800  142.6943  156.5509 H   0  0  0  0  0  0  0  0  0  0  0  0
  149.5285  141.6210  153.5824 H   0  0  0  0  0  0  0  0  0  0  0  0
  149.3314  139.1675  153.9415 H   0  0  0  0  0  0  0  0  0  0  0  0
  148.2344  139.4212  155.2818 H   0  0  0  0  0  0  0  0  0  0  0  0
  146.0604  138.5537  152.4743 H   0  0  0  0  0  0  0  0  0  0  0  0
  146.4997  138.1060  154.1261 H   0  0  0  0  0  0  0  0  0  0  0  0
  147.6403  137.8484  152.8021 H   0  0  0  0  0  0  0  0  0  0  0  0
  145.5975  140.8449  153.1711 H   0  0  0  0  0  0  0  0  0  0  0  0
  145.9993  140.4227  154.8207 H   0  0  0  0  0  0  0  0  0  0  0  0
  147.3213  142.6340  153.1574 H   0  0  0  0  0  0  0  0  0  0  0  0
  146.2518  142.8557  154.5306 H   0  0  0  0  0  0  0  0  0  0  0  0
  150.4457  144.5245  157.5572 H   0  0  0  0  0  0  0  0  0  0  0  0
  1  2  1  0  0  0  0
  1 19  1  0  0  0  0
  1 20  1  0  0  0  0
  1 21  1  0  0  0  0
  2 18  1  0  0  0  0
  2  3  2  0  0  0  0
  3  4  1  0  0  0  0
  3 22  1  0  0  0  0
  4  5  1  0  0  0  0
  4  6  2  0  0  0  0
  5 23  1  0  0  0  0
  5 24  1  0  0  0  0
  5 25  1  0  0  0  0
  6  7  1  0  0  0  0
  7  8  1  0  0  0  0
  7 18  2  0  0  0  0
  8  9  1  0  0  0  0
  8 26  1  0  0  0  0
  9 10  2  0  0  0  0
  9 11  1  0  0  0  0
 11 17  1  0  0  0  0
 11 12  1  0  0  0  0
 11 27  1  0  0  0  0
 12 13  1  0  0  0  0
 12 28  1  0  0  0  0
 12 29  1  0  0  0  0
 13 14  1  0  0  0  0
 13 15  1  0  0  0  0
 14 30  1  0  0  0  0
 14 31  1  0  0  0  0
 14 32  1  0  0  0  0
 15 16  1  0  0  0  0
 15 33  1  0  0  0  0
 15 34  1  0  0  0  0
 16 17  1  0  0  0  0
 16 35  1  0  0  0  0
 16 36  1  0  0  0  0
 18 37  1  0  0  0  0
M  END
> <s_m_source_file>
AV-unprocessed.smi

> <i_m_source_file_index>
3314

> <i_lp_mmshare_version>
43012

> <i_f3d_flags>
0

> <s_epik_input>
W0NIM11jMVtjSF1jKFtDSDNdKW5jKFtjSF0xKVtOSF1DKD1PKVtDQEBIXTJbQ0gyXU4oW0NIM10pW0NIMl1bQ0gyXU8y

> <s_epik_cmdline>
J2VwaWtfcHl0aG9uJywgJy1waCcsICc3LjAnLCAnLXRuJywgJzgnLCAnLW1hJywgJzIwMCcsICctbWV0YWxfYmluZGluZycsICctaW1hZScsICc8aW5maWxlLm1hZT4nLCAnLW9tYWUnLCAnPG91dGZpbGUubWFlPic=

> <r_epik_Ionization_Penalty>
0.55509

> <r_epik_Ionization_Penalty_Charging>
0

> <r_epik_Ionization_Penalty_Neutral>
0.55509

> <r_epik_State_Penalty>
0.632277

> <r_epik_Charging_Adjusted_Penalty>
0.632277

> <i_epik_Tot_Q>
0

> <i_epik_Tot_abs_Q>
0

> <r_epik_Metal_State_Penalty>
0.606221

> <b_epik_Metal_Only>
0

> <s_lp_Force_Field>
OPLS_2005

> <r_lp_Energy>
21.1919

> <b_lp_Chiralities_Consistent>
1

> <s_lp_Variant>
AV-unprocessed.smi:3314-6

> <Gold.Version>
5.8.1

> <Gold.Id.Protein>
6NUR|6NUR_protein|mol2

> <Gold.PLP.Fitness>
40.5870

> <Gold.PLP.PLP>
-37.9941

> <Gold.PLP.part.hbond>
-2.0000

> <Gold.PLP.part.metal>
0.0000

> <Gold.PLP.part.buried>
-3.5998

> <Gold.PLP.part.nonpolar>
-35.5810

> <Gold.PLP.part.repulsive>
2.8713

> <Gold.PLP.ligand.clash>
0.0000

> <Gold.PLP.ligand.torsion>
0.3042

> <Gold.PLP.Chemscore.Hbond>
1.0664

> <Gold.PLP.Chemscore.CHOScore>
0.0000

> <Gold.PLP.Chemscore.Metal>
0.0000

> <Gold.Chemscore.Hbonds>
donor molecule, donor type, donor heavy atom, donor atom, acceptor molecule, acceptor atom, score
      L1  H     8    26       P1  8028  0.27
      P1  H  7989  7998       L1    10  0.82

> <Gold.PLP.Chemscore.Internal.Correction>
0.0020

> <Gold.Rescore>
     Score         DG    S(hbond)    S(metal)    S(lipo)     H(rot)  DE(clash)    DE(int)     intcor
     15.07     -16.51       0.77        0.00      94.11       1.00       0.34       1.10       ----

> <Gold.Chemscore.Fitness>
15.0664

> <Gold.Chemscore.DG>
-16.5052

> <Gold.Chemscore.ZeroCoef>
-5.4800

> <Gold.Chemscore.Hbond>
0.7708

> <Gold.Chemscore.Metal>
0.0000

> <Gold.Chemscore.Lipo>
94.1080

> <Gold.Chemscore.Internal_Hbond>
0.0000

> <Gold.Chemscore.DEClash>
0.3426

> <Gold.Chemscore.DEInternal>
1.0962

> <Gold.Chemscore.Rot>
1.0000

> <Gold.Chemscore.Internal.Correction>
   9.000000E+99

> <Gold.Chemscore.Hbonds>
donor molecule, donor type, donor heavy atom, donor atom, acceptor molecule, acceptor atom, score
      L1  H     8    26       P1  8028  0.26
      P1  H  7989  7998       L1    10  0.18

> <Gold.Chemscore.Hbond.Weighted>
-2.5746

> <Gold.Chemscore.Metal.Weighted>
-0.0000

> <Gold.Chemscore.Lipo.Weighted>
-11.0106

> <Gold.Chemscore.Internal_Hbond.Weighted>
0.0000

> <Gold.Chemscore.DEClash.Weighted>
0.3426

> <Gold.Chemscore.DEInternal.Weighted>
1.0962

> <Gold.Chemscore.Rot.Weighted>
2.5600

> <Gold.Chemscore.Internal.Correction.Weighted>
   9.000000E+99

> <Gold.Protein.RotatedTorsions>
[ 6907 6896 6895 6894 ] final  121.19 input  -60.11 | X-H torsion
[ 7974 7965 7964 7962 ] final   84.88 input  175.53 | X-H torsion
[ 8008 7997 7996 7995 ] final  -92.34 input   59.86 | X-H torsion
[ 10167 10162 10161 10158 ] final  -70.20 input  -65.29 | X-H torsion
[ 10718 10713 10712 10709 ] final -133.94 input   66.30 | X-H torsion
[ 10763 10752 10751 10750 ] final  -93.39 input  -60.55 | X-H torsion
[ 11005 11000 10999 10996 ] final -122.75 input  -57.11 | X-H torsion

> <Gold.Protein.ActiveResidues>
 VAL166  LYS551  ARG553  GLY616  TRP617  ASP618  TYR619  PRO620  LYS621  CYS622 
 ASP623  PHE694  ASN695  SER759  ASP760  ASP761  ALA762  ILE779  LEU786  VAL792 
 PHE793  MET794  SER795  GLU796  ALA797  LYS798  CYS799  TRP800  GLU811  SER814 

> <Gold.Protein.RotatedAtoms>
  152.4341  133.7329  159.6597 H   0  0  0  0  0  0  0  0  0  0  0  0  # atno 6907 bound_to 6896
  150.8223  133.8221  159.3140 H   0  0  0  0  0  0  0  0  0  0  0  0  # atno 6908 bound_to 6896
  151.5900  135.1056  160.0088 H   0  0  0  0  0  0  0  0  0  0  0  0  # atno 6909 bound_to 6896
  145.5928  139.2340  143.2289 H   0  0  0  0  0  0  0  0  0  0  0  0  # atno 7974 bound_to 7965
  154.7219  140.0510  157.0647 H   0  0  0  0  0  0  0  0  0  0  0  0  # atno 8008 bound_to 7997
  155.0416  140.3169  155.4703 H   0  0  0  0  0  0  0  0  0  0  0  0  # atno 8009 bound_to 7997
  156.2818  140.2132  156.5540 H   0  0  0  0  0  0  0  0  0  0  0  0  # atno 8010 bound_to 7997
  140.5371  143.2317  151.7156 H   0  0  0  0  0  0  0  0  0  0  0  0  # atno 10167 bound_to 10162
  156.2502  130.7148  151.1044 H   0  0  0  0  0  0  0  0  0  0  0  0  # atno 10718 bound_to 10713
  154.6954  135.5196  153.8451 H   0  0  0  0  0  0  0  0  0  0  0  0  # atno 10763 bound_to 10752
  153.0663  135.6586  154.0355 H   0  0  0  0  0  0  0  0  0  0  0  0  # atno 10764 bound_to 10752
  154.0223  135.2992  155.3359 H   0  0  0  0  0  0  0  0  0  0  0  0  # atno 10765 bound_to 10752
  140.9971  134.0456  157.3583 H   0  0  0  0  0  0  0  0  0  0  0  0  # atno 11005 bound_to 11000
  146.1634  140.6754  142.9267 LP  0  0  0  0  0  0  0  0  0  0  0  0  # atno 17320 bound_to 7965
  144.7344  140.4765  143.6915 LP  0  0  0  0  0  0  0  0  0  0  0  0  # atno 17321 bound_to 7965
  139.4975  144.4025  152.0166 LP  0  0  0  0  0  0  0  0  0  0  0  0  # atno 17342 bound_to 10162
  140.3132  144.3514  150.6028 LP  0  0  0  0  0  0  0  0  0  0  0  0  # atno 17343 bound_to 10162
  157.7211  131.0680  150.6130 LP  0  0  0  0  0  0  0  0  0  0  0  0  # atno 17370 bound_to 10713
  156.6209  130.4405  149.5822 LP  0  0  0  0  0  0  0  0  0  0  0  0  # atno 17371 bound_to 10713
  139.9020  135.0168  156.7313 LP  0  0  0  0  0  0  0  0  0  0  0  0  # atno 17394 bound_to 11000
  140.6948  133.9358  155.7988 LP  0  0  0  0  0  0  0  0  0  0  0  0  # atno 17395 bound_to 11000

$$$$
