AV-unprocessed.smi:1859|AV-procd|sdf|7544|dock2
  -GOLD-   22720 9263D 1   1.00000     0.00000
 Structure written by MMmdl.
 45 47  0  0  0  0  0  0  0  0  1 V2000
  151.2789  135.7640  155.5440 O   0  0  0  0  0  0  0  0  0  0  0  0
  150.8591  136.9153  155.6616 C   0  0  0  0  0  0  0  0  0  0  0  0
  150.1281  137.3205  156.7130 N   0  0  0  0  0  0  0  0  0  0  0  0
  149.7746  136.4959  157.8668 C   0  0  0  0  0  0  0  0  0  0  0  0
  149.1525  137.3207  159.0123 C   0  0  0  0  0  0  0  0  0  0  0  0
  148.4761  136.4751  160.0788 C   0  0  0  0  0  0  0  0  0  0  0  0
  148.3218  135.0825  159.9049 C   0  0  0  0  0  0  0  0  0  0  0  0
  147.6433  134.3532  160.8999 C   0  0  0  0  0  0  0  0  0  0  0  0
  147.1526  135.0390  162.0275 C   0  0  0  0  0  0  0  0  0  0  0  0
  147.3664  136.4293  162.1116 C   0  0  0  0  0  0  0  0  0  0  0  0
  148.0157  137.1384  161.1633 N   0  0  0  0  0  0  0  0  0  0  0  0
  151.1837  137.9844  154.6010 C   0  0  1  0  0  0  0  0  0  0  0  0
  149.9074  138.7186  154.1188 C   0  0  0  0  0  0  0  0  0  0  0  0
  149.4285  139.8156  155.0918 C   0  0  0  0  0  0  0  0  0  0  0  0
  150.5933  140.7427  155.4768 C   0  0  0  0  0  0  0  0  0  0  0  0
  151.6725  139.9374  156.0671 N   0  0  0  0  0  0  0  0  0  0  0  0
  152.0981  139.9938  157.3549 C   0  0  0  0  0  0  0  0  0  0  0  0
  153.0903  139.3740  157.7415 O   0  0  0  0  0  0  0  0  0  0  0  0
  151.2902  140.8199  158.3113 C   0  0  0  0  0  0  0  0  0  0  0  0
  151.1589  142.2951  157.9964 C   0  0  0  0  0  0  0  0  0  0  0  0
  152.0083  141.8543  159.1598 C   0  0  0  0  0  0  0  0  0  0  0  0
  152.2468  139.0064  155.0816 C   0  0  0  0  0  0  0  0  0  0  0  0
  149.8189  138.2816  156.7298 H   0  0  0  0  0  0  0  0  0  0  0  0
  149.0627  135.7398  157.5356 H   0  0  0  0  0  0  0  0  0  0  0  0
  150.6472  135.9498  158.2291 H   0  0  0  0  0  0  0  0  0  0  0  0
  149.9231  137.9339  159.4815 H   0  0  0  0  0  0  0  0  0  0  0  0
  148.4218  138.0194  158.6029 H   0  0  0  0  0  0  0  0  0  0  0  0
  148.6973  134.5866  159.0218 H   0  0  0  0  0  0  0  0  0  0  0  0
  147.4973  133.2880  160.7976 H   0  0  0  0  0  0  0  0  0  0  0  0
  146.6250  134.5128  162.8092 H   0  0  0  0  0  0  0  0  0  0  0  0
  147.0048  136.9869  162.9630 H   0  0  0  0  0  0  0  0  0  0  0  0
  151.6027  137.4607  153.7401 H   0  0  0  0  0  0  0  0  0  0  0  0
  150.1189  139.1796  153.1533 H   0  0  0  0  0  0  0  0  0  0  0  0
  149.1000  138.0086  153.9349 H   0  0  0  0  0  0  0  0  0  0  0  0
  148.6280  140.3940  154.6303 H   0  0  0  0  0  0  0  0  0  0  0  0
  149.0013  139.3663  155.9889 H   0  0  0  0  0  0  0  0  0  0  0  0
  150.9743  141.2410  154.5842 H   0  0  0  0  0  0  0  0  0  0  0  0
  150.2416  141.5502  156.1166 H   0  0  0  0  0  0  0  0  0  0  0  0
  150.4510  140.3277  158.7995 H   0  0  0  0  0  0  0  0  0  0  0  0
  151.6752  142.6814  157.1190 H   0  0  0  0  0  0  0  0  0  0  0  0
  150.1984  142.7604  158.2082 H   0  0  0  0  0  0  0  0  0  0  0  0
  151.6227  142.0218  160.1635 H   0  0  0  0  0  0  0  0  0  0  0  0
  153.0859  141.9709  159.0597 H   0  0  0  0  0  0  0  0  0  0  0  0
  153.1204  138.4740  155.4612 H   0  0  0  0  0  0  0  0  0  0  0  0
  152.6127  139.5811  154.2296 H   0  0  0  0  0  0  0  0  0  0  0  0
  1  2  2  0  0  0  0
  2  3  1  0  0  0  0
  2 12  1  0  0  0  0
  3  4  1  0  0  0  0
  3 23  1  0  0  0  0
  4  5  1  0  0  0  0
  4 24  1  0  0  0  0
  4 25  1  0  0  0  0
  5  6  1  0  0  0  0
  5 26  1  0  0  0  0
  5 27  1  0  0  0  0
  6 11  1  0  0  0  0
  6  7  2  0  0  0  0
  7  8  1  0  0  0  0
  7 28  1  0  0  0  0
  8  9  2  0  0  0  0
  8 29  1  0  0  0  0
  9 10  1  0  0  0  0
  9 30  1  0  0  0  0
 10 11  2  0  0  0  0
 10 31  1  0  0  0  0
 12 22  1  0  0  0  0
 12 13  1  0  0  0  0
 12 32  1  0  0  0  0
 13 14  1  0  0  0  0
 13 33  1  0  0  0  0
 13 34  1  0  0  0  0
 14 15  1  0  0  0  0
 14 35  1  0  0  0  0
 14 36  1  0  0  0  0
 15 16  1  0  0  0  0
 15 37  1  0  0  0  0
 15 38  1  0  0  0  0
 16 17  1  0  0  0  0
 16 22  1  0  0  0  0
 17 18  2  0  0  0  0
 17 19  1  0  0  0  0
 19 21  1  0  0  0  0
 19 20  1  0  0  0  0
 19 39  1  0  0  0  0
 20 21  1  0  0  0  0
 20 40  1  0  0  0  0
 20 41  1  0  0  0  0
 21 42  1  0  0  0  0
 21 43  1  0  0  0  0
 22 44  1  0  0  0  0
 22 45  1  0  0  0  0
M  END
> <s_m_source_file>
AV-unprocessed.smi

> <i_m_source_file_index>
1859

> <i_lp_mmshare_version>
43012

> <i_f3d_flags>
0

> <s_epik_input>
W0NIMl0xW0NIMl1bQ0hdMUMoPU8pTihbQ0gyXTIpW0NIMl1bQ0gyXVtDSDJdW0NASF0yQyg9TylbTkhdW0NIMl1bQ0gyXWMzW2NIXVtjSF1bY0hdW2NIXW4z

> <s_epik_cmdline>
J2VwaWtfcHl0aG9uJywgJy1waCcsICc3LjAnLCAnLXRuJywgJzgnLCAnLW1hJywgJzIwMCcsICctbWV0YWxfYmluZGluZycsICctaW1hZScsICc8aW5maWxlLm1hZT4nLCAnLW9tYWUnLCAnPG91dGZpbGUubWFlPic=

> <r_epik_Ionization_Penalty>
0.0268048

> <r_epik_Ionization_Penalty_Charging>
0

> <r_epik_Ionization_Penalty_Neutral>
0.0268048

> <r_epik_State_Penalty>
0.0219025

> <r_epik_Charging_Adjusted_Penalty>
0.0219025

> <i_epik_Tot_Q>
0

> <i_epik_Tot_abs_Q>
0

> <r_epik_Metal_State_Penalty>
0.020951

> <b_epik_Metal_Only>
0

> <s_lp_Force_Field>
OPLS_2005

> <r_lp_Energy>
25.8976

> <b_lp_Chiralities_Consistent>
1

> <s_lp_Variant>
AV-unprocessed.smi:1859-2

> <Gold.Version>
5.8.1

> <Gold.Id.Protein>
6NUR|6NUR_protein|mol2

> <Gold.PLP.Fitness>
54.1032

> <Gold.PLP.PLP>
-43.6307

> <Gold.PLP.part.hbond>
-4.0000

> <Gold.PLP.part.metal>
0.0000

> <Gold.PLP.part.buried>
-3.5762

> <Gold.PLP.part.nonpolar>
-35.6676

> <Gold.PLP.part.repulsive>
0.0921

> <Gold.PLP.ligand.clash>
0.0000

> <Gold.PLP.ligand.torsion>
0.4671

> <Gold.PLP.Chemscore.Hbond>
3.7200

> <Gold.PLP.Chemscore.CHOScore>
0.0000

> <Gold.PLP.Chemscore.Metal>
0.0000

> <Gold.Chemscore.Hbonds>
donor molecule, donor type, donor heavy atom, donor atom, acceptor molecule, acceptor atom, score
      P1  H  6931  6943       L1    11  1.00
      P1  H  6934  6947       L1    11  0.66
      P1  H  7997  8010       L1    18  1.00
      P1  H 10752 10764       L1     1  1.00

> <Gold.PLP.Chemscore.Internal.Correction>
0.2467

> <Gold.Rescore>
     Score         DG    S(hbond)    S(metal)    S(lipo)     H(rot)  DE(clash)    DE(int)     intcor
     22.10     -23.63       3.23        0.00      97.92       1.59       0.00       1.53       ----

> <Gold.Chemscore.Fitness>
22.0980

> <Gold.Chemscore.DG>
-23.6340

> <Gold.Chemscore.ZeroCoef>
-5.4800

> <Gold.Chemscore.Hbond>
3.2273

> <Gold.Chemscore.Metal>
0.0000

> <Gold.Chemscore.Lipo>
97.9168

> <Gold.Chemscore.Internal_Hbond>
0.0000

> <Gold.Chemscore.DEClash>
0.0048

> <Gold.Chemscore.DEInternal>
1.5312

> <Gold.Chemscore.Rot>
1.5943

> <Gold.Chemscore.Internal.Correction>
   9.000000E+99

> <Gold.Chemscore.Hbonds>
donor molecule, donor type, donor heavy atom, donor atom, acceptor molecule, acceptor atom, score
      P1  H  6931  6943       L1    11  0.64
      P1  H  6934  6947       L1    11  0.50
      P1  H  7997  8010       L1    18  0.70
      P1  H 10752 10764       L1     1  0.96

> <Gold.Chemscore.Hbond.Weighted>
-10.7792

> <Gold.Chemscore.Metal.Weighted>
-0.0000

> <Gold.Chemscore.Lipo.Weighted>
-11.4563

> <Gold.Chemscore.Internal_Hbond.Weighted>
0.0000

> <Gold.Chemscore.DEClash.Weighted>
0.0048

> <Gold.Chemscore.DEInternal.Weighted>
1.5312

> <Gold.Chemscore.Rot.Weighted>
4.0814

> <Gold.Chemscore.Internal.Correction.Weighted>
   9.000000E+99

> <Gold.Protein.RotatedTorsions>
[ 6907 6896 6895 6894 ] final  -86.12 input  -60.11 | X-H torsion
[ 7974 7965 7964 7962 ] final -154.17 input  175.53 | X-H torsion
[ 8008 7997 7996 7995 ] final   40.04 input   59.86 | X-H torsion
[ 10167 10162 10161 10158 ] final  105.30 input  -65.29 | X-H torsion
[ 10718 10713 10712 10709 ] final   52.76 input   66.30 | X-H torsion
[ 10763 10752 10751 10750 ] final  -46.39 input  -60.55 | X-H torsion
[ 11005 11000 10999 10996 ] final   20.37 input  -57.11 | X-H torsion

> <Gold.Protein.ActiveResidues>
 VAL166  LYS551  ARG553  GLY616  TRP617  ASP618  TYR619  PRO620  LYS621  CYS622 
 ASP623  PHE694  ASN695  SER759  ASP760  ASP761  ALA762  ILE779  LEU786  VAL792 
 PHE793  MET794  SER795  GLU796  ALA797  LYS798  CYS799  TRP800  GLU811  SER814 

> <Gold.Protein.RotatedAtoms>
  150.6868  134.3099  159.4741 H   0  0  0  0  0  0  0  0  0  0  0  0  # atno 6907 bound_to 6896
  152.0986  134.9355  160.0579 H   0  0  0  0  0  0  0  0  0  0  0  0  # atno 6908 bound_to 6896
  152.0643  133.4042  159.4468 H   0  0  0  0  0  0  0  0  0  0  0  0  # atno 6909 bound_to 6896
  144.7703  140.4424  143.5912 H   0  0  0  0  0  0  0  0  0  0  0  0  # atno 7974 bound_to 7965
  155.2466  140.3349  155.4286 H   0  0  0  0  0  0  0  0  0  0  0  0  # atno 8008 bound_to 7997
  156.2233  140.1818  156.7467 H   0  0  0  0  0  0  0  0  0  0  0  0  # atno 8009 bound_to 7997
  154.5860  140.0646  156.9156 H   0  0  0  0  0  0  0  0  0  0  0  0  # atno 8010 bound_to 7997
  139.7104  144.7078  151.1036 H   0  0  0  0  0  0  0  0  0  0  0  0  # atno 10167 bound_to 10162
  157.5105  130.8497  149.8429 H   0  0  0  0  0  0  0  0  0  0  0  0  # atno 10718 bound_to 10713
  154.0441  135.6640  153.4793 H   0  0  0  0  0  0  0  0  0  0  0  0  # atno 10763 bound_to 10752
  153.0489  135.5096  154.7813 H   0  0  0  0  0  0  0  0  0  0  0  0  # atno 10764 bound_to 10752
  154.6799  135.3043  154.9593 H   0  0  0  0  0  0  0  0  0  0  0  0  # atno 10765 bound_to 10752
  140.4034  134.1694  155.7664 H   0  0  0  0  0  0  0  0  0  0  0  0  # atno 11005 bound_to 11000
  145.6345  139.1541  143.2950 LP  0  0  0  0  0  0  0  0  0  0  0  0  # atno 17320 bound_to 7965
  146.1843  140.6446  142.9174 LP  0  0  0  0  0  0  0  0  0  0  0  0  # atno 17321 bound_to 7965
  140.7732  143.5300  150.9434 LP  0  0  0  0  0  0  0  0  0  0  0  0  # atno 17342 bound_to 10162
  139.8985  143.6865  152.3135 LP  0  0  0  0  0  0  0  0  0  0  0  0  # atno 17343 bound_to 10162
  156.0286  130.3771  150.1752 LP  0  0  0  0  0  0  0  0  0  0  0  0  # atno 17370 bound_to 10713
  156.9942  130.9902  151.3407 LP  0  0  0  0  0  0  0  0  0  0  0  0  # atno 17371 bound_to 10713
  141.1848  133.8336  157.1126 LP  0  0  0  0  0  0  0  0  0  0  0  0  # atno 17394 bound_to 11000
  140.0320  134.9897  157.0798 LP  0  0  0  0  0  0  0  0  0  0  0  0  # atno 17395 bound_to 11000

$$$$
