AV-unprocessed.smi:2583|AV-procd|sdf|10140|dock8
  -GOLD-   2272014153D 1   1.00000     0.00000
 Structure written by MMmdl.
 54 56  0  0  0  0  0  0  0  0  2 V2000
  152.2044  144.9519  158.9439 C   0  0  0  0  0  0  0  0  0  0  0  0
  152.2793  143.4451  159.0766 C   0  0  0  0  0  0  0  0  0  0  0  0
  153.0968  142.8405  160.0534 C   0  0  0  0  0  0  0  0  0  0  0  0
  153.1876  141.5042  160.2178 N   0  0  0  0  0  0  0  0  0  0  0  0
  152.4622  140.7153  159.3970 C   0  0  0  0  0  0  0  0  0  0  0  0
  151.6247  141.2093  158.3747 C   0  0  0  0  0  0  0  0  0  0  0  0
  150.9097  140.2667  157.5872 N   0  0  0  0  0  0  0  0  0  0  0  0
  150.4670  139.0474  157.9393 C   0  0  0  0  0  0  0  0  0  0  0  0
  150.6236  138.5226  159.0416 O   0  0  0  0  0  0  0  0  0  0  0  0
  149.8001  138.4644  156.9329 N   0  0  0  0  0  0  0  0  0  0  0  0
  149.1683  137.1498  156.9975 C   0  0  0  0  0  0  0  0  0  0  0  0
  149.0567  136.5474  155.5950 C   0  0  0  0  0  0  0  0  0  0  0  0
  148.2980  135.2094  155.6278 C   0  0  0  0  0  0  0  0  0  0  0  0
  146.9348  135.3645  156.1639 N   0  0  0  0  0  0  0  0  0  0  0  0
  146.1887  134.0852  156.1170 C   0  0  2  0  0  0  0  0  0  0  0  0
  145.9807  133.5430  154.6791 C   0  0  0  0  0  0  0  0  0  0  0  0
  145.0017  134.4142  153.8714 C   0  0  0  0  0  0  0  0  0  0  0  0
  143.6871  134.5137  154.5516 N   0  3  2  0  0  0  0  0  0  0  0  0
  142.6994  135.2768  153.7591 C   0  0  0  0  0  0  0  0  0  0  0  0
  143.8096  135.0189  155.9411 C   0  0  0  0  0  0  0  0  0  0  0  0
  144.7803  134.1512  156.7627 C   0  0  0  0  0  0  0  0  0  0  0  0
  147.0427  135.8813  157.5388 C   0  0  0  0  0  0  0  0  0  0  0  0
  147.7568  137.2425  157.5891 C   0  0  0  0  0  0  0  0  0  0  0  0
  151.5260  142.6137  158.2237 C   0  0  0  0  0  0  0  0  0  0  0  0
  152.8413  145.4474  159.6773 H   0  0  0  0  0  0  0  0  0  0  0  0
  151.1805  145.2946  159.0947 H   0  0  0  0  0  0  0  0  0  0  0  0
  152.5265  145.2600  157.9489 H   0  0  0  0  0  0  0  0  0  0  0  0
  153.6901  143.4430  160.7256 H   0  0  0  0  0  0  0  0  0  0  0  0
  152.5596  139.6517  159.5591 H   0  0  0  0  0  0  0  0  0  0  0  0
  150.6393  140.5883  156.6693 H   0  0  0  0  0  0  0  0  0  0  0  0
  149.7174  138.9680  156.0620 H   0  0  0  0  0  0  0  0  0  0  0  0
  149.7773  136.4859  157.6143 H   0  0  0  0  0  0  0  0  0  0  0  0
  148.5425  137.2397  154.9264 H   0  0  0  0  0  0  0  0  0  0  0  0
  150.0518  136.3941  155.1758 H   0  0  0  0  0  0  0  0  0  0  0  0
  148.2800  134.8476  154.6034 H   0  0  0  0  0  0  0  0  0  0  0  0
  148.8504  134.4758  156.2171 H   0  0  0  0  0  0  0  0  0  0  0  0
  146.7765  133.3531  156.6732 H   0  0  0  0  0  0  0  0  0  0  0  0
  146.9100  133.4007  154.1326 H   0  0  0  0  0  0  0  0  0  0  0  0
  145.5617  132.5382  154.7497 H   0  0  0  0  0  0  0  0  0  0  0  0
  145.4177  135.4122  153.7242 H   0  0  0  0  0  0  0  0  0  0  0  0
  144.8627  133.9802  152.8804 H   0  0  0  0  0  0  0  0  0  0  0  0
  143.0150  136.3132  153.6327 H   0  0  0  0  0  0  0  0  0  0  0  0
  141.7257  135.2727  154.2499 H   0  0  0  0  0  0  0  0  0  0  0  0
  142.5746  134.8340  152.7705 H   0  0  0  0  0  0  0  0  0  0  0  0
  144.1479  136.0562  155.9285 H   0  0  0  0  0  0  0  0  0  0  0  0
  142.8273  135.0119  156.4150 H   0  0  0  0  0  0  0  0  0  0  0  0
  144.3762  133.1388  156.8055 H   0  0  0  0  0  0  0  0  0  0  0  0
  144.7986  134.4672  157.8036 H   0  0  0  0  0  0  0  0  0  0  0  0
  146.0598  136.0456  157.9728 H   0  0  0  0  0  0  0  0  0  0  0  0
  147.5594  135.1580  158.1718 H   0  0  0  0  0  0  0  0  0  0  0  0
  147.8044  137.5888  158.6221 H   0  0  0  0  0  0  0  0  0  0  0  0
  147.1684  137.9816  157.0430 H   0  0  0  0  0  0  0  0  0  0  0  0
  150.8829  143.0670  157.4856 H   0  0  0  0  0  0  0  0  0  0  0  0
  143.3302  133.5715  154.6216 H   0  0  0  0  0  0  0  0  0  0  0  0
  1  2  1  0  0  0  0
  1 25  1  0  0  0  0
  1 26  1  0  0  0  0
  1 27  1  0  0  0  0
  2 24  1  0  0  0  0
  2  3  2  0  0  0  0
  3  4  1  0  0  0  0
  3 28  1  0  0  0  0
  4  5  2  0  0  0  0
  5  6  1  0  0  0  0
  5 29  1  0  0  0  0
  6  7  1  0  0  0  0
  6 24  2  0  0  0  0
  7  8  1  0  0  0  0
  7 30  1  0  0  0  0
  8  9  2  0  0  0  0
  8 10  1  0  0  0  0
 10 11  1  0  0  0  0
 10 31  1  0  0  0  0
 11 23  1  0  0  0  0
 11 12  1  0  0  0  0
 11 32  1  0  0  0  0
 12 13  1  0  0  0  0
 12 33  1  0  0  0  0
 12 34  1  0  0  0  0
 13 14  1  0  0  0  0
 13 35  1  0  0  0  0
 13 36  1  0  0  0  0
 14 15  1  0  0  0  0
 14 22  1  0  0  0  0
 15 21  1  0  0  0  0
 15 16  1  0  0  0  0
 15 37  1  0  0  0  0
 16 17  1  0  0  0  0
 16 38  1  0  0  0  0
 16 39  1  0  0  0  0
 17 18  1  0  0  0  0
 17 40  1  0  0  0  0
 17 41  1  0  0  0  0
 18 19  1  0  0  0  0
 18 20  1  0  0  0  0
 18 54  1  0  0  0  0
 19 42  1  0  0  0  0
 19 43  1  0  0  0  0
 19 44  1  0  0  0  0
 20 21  1  0  0  0  0
 20 45  1  0  0  0  0
 20 46  1  0  0  0  0
 21 47  1  0  0  0  0
 21 48  1  0  0  0  0
 22 23  1  0  0  0  0
 22 49  1  0  0  0  0
 22 50  1  0  0  0  0
 23 51  1  0  0  0  0
 23 52  1  0  0  0  0
 24 53  1  0  0  0  0
M  CHG  1  18   1
M  END
> <s_m_source_file>
AV-unprocessed.smi

> <i_m_source_file_index>
2583

> <i_lp_mmshare_version>
43012

> <i_f3d_flags>
0

> <s_epik_input>
W0NIM11jMVtjSF1uW2NIXWMoW2NIXTEpW05IXUMoPU8pW05IXVtDSF0yW0NIMl1bQ0gyXU4oW0NIMl1bQ0gyXTIpW0NIXTNbQ0gyXVtDSDJdTihbQ0gzXSlbQ0gyXVtDSDJdMw==

> <s_epik_cmdline>
J2VwaWtfcHl0aG9uJywgJy1waCcsICc3LjAnLCAnLXRuJywgJzgnLCAnLW1hJywgJzIwMCcsICctbWV0YWxfYmluZGluZycsICctaW1hZScsICc8aW5maWxlLm1hZT4nLCAnLW9tYWUnLCAnPG91dGZpbGUubWFlPic=

> <r_epik_Ionization_Penalty>
1.01912

> <r_epik_Ionization_Penalty_Charging>
0.000974969

> <r_epik_Ionization_Penalty_Neutral>
1.01814

> <r_epik_State_Penalty>
1.10721

> <r_epik_Charging_Adjusted_Penalty>
1.10819

> <i_epik_Tot_Q>
1

> <i_epik_Tot_abs_Q>
1

> <r_epik_Metal_State_Penalty>
1.10135

> <b_epik_Metal_Only>
0

> <s_lp_Force_Field>
OPLS_2005

> <r_lp_Energy>
36.2524

> <b_lp_Chiralities_Consistent>
1

> <s_lp_Variant>
AV-unprocessed.smi:2583-6

> <Gold.Version>
5.8.1

> <Gold.Id.Protein>
6NUR|6NUR_protein|mol2

> <Gold.PLP.Fitness>
34.3673

> <Gold.PLP.PLP>
-29.4770

> <Gold.PLP.part.hbond>
-1.5445

> <Gold.PLP.part.metal>
0.0000

> <Gold.PLP.part.buried>
-6.0355

> <Gold.PLP.part.nonpolar>
-21.9001

> <Gold.PLP.part.repulsive>
0.0647

> <Gold.PLP.ligand.clash>
0.0000

> <Gold.PLP.ligand.torsion>
0.5567

> <Gold.PLP.Chemscore.Hbond>
2.0000

> <Gold.PLP.Chemscore.CHOScore>
0.0000

> <Gold.PLP.Chemscore.Metal>
0.0000

> <Gold.Chemscore.Hbonds>
donor molecule, donor type, donor heavy atom, donor atom, acceptor molecule, acceptor atom, score
      L1  H    18    54       P1 10957  2.00

> <Gold.PLP.Chemscore.Internal.Correction>
0.0036

> <Gold.Rescore>
     Score         DG    S(hbond)    S(metal)    S(lipo)     H(rot)  DE(clash)    DE(int)     intcor
     13.80     -15.67       1.00        0.00      84.80       1.20       0.00       1.86       ----

> <Gold.Chemscore.Fitness>
13.8019

> <Gold.Chemscore.DG>
-15.6682

> <Gold.Chemscore.ZeroCoef>
-5.4800

> <Gold.Chemscore.Hbond>
0.9974

> <Gold.Chemscore.Metal>
0.0000

> <Gold.Chemscore.Lipo>
84.8050

> <Gold.Chemscore.Internal_Hbond>
0.0000

> <Gold.Chemscore.DEClash>
0.0015

> <Gold.Chemscore.DEInternal>
1.8649

> <Gold.Chemscore.Rot>
1.1974

> <Gold.Chemscore.Internal.Correction>
   9.000000E+99

> <Gold.Chemscore.Hbonds>
donor molecule, donor type, donor heavy atom, donor atom, acceptor molecule, acceptor atom, score
      L1  H    18    54       P1 10957  0.99

> <Gold.Chemscore.Hbond.Weighted>
-3.3313

> <Gold.Chemscore.Metal.Weighted>
-0.0000

> <Gold.Chemscore.Lipo.Weighted>
-9.9222

> <Gold.Chemscore.Internal_Hbond.Weighted>
0.0000

> <Gold.Chemscore.DEClash.Weighted>
0.0015

> <Gold.Chemscore.DEInternal.Weighted>
1.8649

> <Gold.Chemscore.Rot.Weighted>
3.0652

> <Gold.Chemscore.Internal.Correction.Weighted>
   9.000000E+99

> <Gold.Protein.RotatedTorsions>
[ 6907 6896 6895 6894 ] final -142.20 input  -60.11 | X-H torsion
[ 7974 7965 7964 7962 ] final -134.79 input  175.53 | X-H torsion
[ 8008 7997 7996 7995 ] final  150.27 input   59.86 | X-H torsion
[ 10167 10162 10161 10158 ] final  143.83 input  -65.29 | X-H torsion
[ 10718 10713 10712 10709 ] final    1.86 input   66.30 | X-H torsion
[ 10763 10752 10751 10750 ] final  112.16 input  -60.55 | X-H torsion
[ 11005 11000 10999 10996 ] final  111.27 input  -57.11 | X-H torsion

> <Gold.Protein.ActiveResidues>
 VAL166  LYS551  ARG553  GLY616  TRP617  ASP618  TYR619  PRO620  LYS621  CYS622 
 ASP623  PHE694  ASN695  SER759  ASP760  ASP761  ALA762  ILE779  LEU786  VAL792 
 PHE793  MET794  SER795  GLU796  ALA797  LYS798  CYS799  TRP800  GLU811  SER814 

> <Gold.Protein.RotatedAtoms>
  151.0839  133.5369  159.2618 H   0  0  0  0  0  0  0  0  0  0  0  0  # atno 6907 bound_to 6896
  151.2261  135.0536  159.8979 H   0  0  0  0  0  0  0  0  0  0  0  0  # atno 6908 bound_to 6896
  152.5427  134.0634  159.8216 H   0  0  0  0  0  0  0  0  0  0  0  0  # atno 6909 bound_to 6896
  144.9071  140.6847  143.5048 H   0  0  0  0  0  0  0  0  0  0  0  0  # atno 7974 bound_to 7965
  156.2722  140.2079  156.5991 H   0  0  0  0  0  0  0  0  0  0  0  0  # atno 8008 bound_to 7997
  154.6921  140.0529  157.0397 H   0  0  0  0  0  0  0  0  0  0  0  0  # atno 8009 bound_to 7997
  155.0852  140.3191  155.4592 H   0  0  0  0  0  0  0  0  0  0  0  0  # atno 8010 bound_to 7997
  139.4960  144.6014  151.6473 H   0  0  0  0  0  0  0  0  0  0  0  0  # atno 10167 bound_to 10162
  156.8544  130.5565  149.5667 H   0  0  0  0  0  0  0  0  0  0  0  0  # atno 10718 bound_to 10713
  153.4737  135.3695  155.2405 H   0  0  0  0  0  0  0  0  0  0  0  0  # atno 10763 bound_to 10752
  154.8756  135.3937  154.3781 H   0  0  0  0  0  0  0  0  0  0  0  0  # atno 10764 bound_to 10752
  153.4374  135.7083  153.6256 H   0  0  0  0  0  0  0  0  0  0  0  0  # atno 10765 bound_to 10752
  139.8900  134.9504  156.6406 H   0  0  0  0  0  0  0  0  0  0  0  0  # atno 11005 bound_to 11000
  145.3517  139.1704  143.4431 LP  0  0  0  0  0  0  0  0  0  0  0  0  # atno 17320 bound_to 7965
  146.3139  140.3570  142.8661 LP  0  0  0  0  0  0  0  0  0  0  0  0  # atno 17321 bound_to 7965
  140.5664  144.0182  150.6195 LP  0  0  0  0  0  0  0  0  0  0  0  0  # atno 17342 bound_to 10162
  140.3285  143.3092  152.0711 LP  0  0  0  0  0  0  0  0  0  0  0  0  # atno 17343 bound_to 10162
  156.0810  130.5821  150.9564 LP  0  0  0  0  0  0  0  0  0  0  0  0  # atno 17370 bound_to 10713
  157.6285  131.0923  150.8487 LP  0  0  0  0  0  0  0  0  0  0  0  0  # atno 17371 bound_to 10713
  140.7597  133.8828  155.8408 LP  0  0  0  0  0  0  0  0  0  0  0  0  # atno 17394 bound_to 11000
  140.9932  134.1250  157.4388 LP  0  0  0  0  0  0  0  0  0  0  0  0  # atno 17395 bound_to 11000

$$$$
