AV-unprocessed.smi:148|AV-procd|sdf|1204|dock4
  -GOLD-   2262018373D 1   1.00000     0.00000
 Structure written by MMmdl.
 63 67  0  0  0  0  0  0  0  0  1 V2000
  147.9501  134.5062  153.6294 O   0  0  0  0  0  0  0  0  0  0  0  0
  147.7828  134.4705  155.0318 C   0  0  0  0  0  0  0  0  0  0  0  0
  148.9483  133.7204  155.7229 C   0  0  2  0  0  0  0  0  0  0  0  0
  150.3189  134.4055  155.4939 C   0  0  0  0  0  0  0  0  0  0  0  0
  150.3940  135.7334  156.0770 N   0  0  0  0  0  0  0  0  0  0  0  0
  149.9253  136.1125  157.3147 C   0  0  0  0  0  0  0  0  0  0  0  0
  150.0907  137.3727  157.6112 N   0  0  0  0  0  0  0  0  0  0  0  0
  150.7257  137.8986  156.4937 C   0  0  0  0  0  0  0  0  0  0  0  0
  151.1673  139.1979  156.1305 C   0  0  0  0  0  0  0  0  0  0  0  0
  150.9934  140.2663  156.9407 N   0  0  0  0  0  0  0  0  0  0  0  0
  152.2354  140.6043  157.6400 C   0  0  0  0  0  0  0  0  0  0  0  0
  151.9757  141.5730  158.7979 C   0  0  0  0  0  0  0  0  0  0  0  0
  151.2618  142.8224  158.2792 C   0  0  0  0  0  0  0  0  0  0  0  0
  149.9739  142.4224  157.5475 C   0  0  0  0  0  0  0  0  0  0  0  0
  150.2257  141.4090  156.3987 C   0  0  2  0  0  0  0  0  0  0  0  0
  148.8902  140.9947  155.6839 C   0  0  2  0  0  0  0  0  0  0  0  0
  148.0210  139.9976  156.4938 C   0  0  0  0  0  0  0  0  0  0  0  0
  147.4525  138.9571  155.5216 C   0  0  0  0  0  0  0  0  0  0  0  0
  147.7424  139.5058  154.1323 C   0  0  0  0  0  0  0  0  0  0  0  0
  149.0406  140.2864  154.3186 C   0  0  1  0  0  0  0  0  0  0  0  0
  149.2042  141.1899  153.2434 O   0  0  0  0  0  0  0  0  0  0  0  0
  151.7673  139.3530  154.9205 N   0  0  0  0  0  0  0  0  0  0  0  0
  151.9127  138.3004  154.1097 C   0  0  0  0  0  0  0  0  0  0  0  0
  151.5341  137.0355  154.3072 N   0  0  0  0  0  0  0  0  0  0  0  0
  150.9378  136.8795  155.5243 C   0  0  0  0  0  0  0  0  0  0  0  0
  148.9927  132.2181  155.3450 C   0  0  2  0  0  0  0  0  0  0  0  0
  149.4986  131.9241  153.9436 C   0  0  0  0  0  0  0  0  0  0  0  0
  148.9950  130.5043  153.7147 C   0  0  0  0  0  0  0  0  0  0  0  0
  147.7512  130.4297  154.4008 O   0  0  0  0  0  0  0  0  0  0  0  0
  147.6236  131.5291  155.2981 C   0  0  0  0  0  0  0  0  0  0  0  0
  148.4460  135.2788  153.4047 H   0  0  0  0  0  0  0  0  0  0  0  0
  147.7000  135.4931  155.3998 H   0  0  0  0  0  0  0  0  0  0  0  0
  146.8280  133.9960  155.2568 H   0  0  0  0  0  0  0  0  0  0  0  0
  148.7475  133.7727  156.7940 H   0  0  0  0  0  0  0  0  0  0  0  0
  151.1231  133.8109  155.9277 H   0  0  0  0  0  0  0  0  0  0  0  0
  150.5322  134.4786  154.4268 H   0  0  0  0  0  0  0  0  0  0  0  0
  149.4434  135.4208  157.9905 H   0  0  0  0  0  0  0  0  0  0  0  0
  152.7060  139.6980  158.0251 H   0  0  0  0  0  0  0  0  0  0  0  0
  152.9385  141.0552  156.9380 H   0  0  0  0  0  0  0  0  0  0  0  0
  151.3645  141.0845  159.5579 H   0  0  0  0  0  0  0  0  0  0  0  0
  152.9152  141.8466  159.2784 H   0  0  0  0  0  0  0  0  0  0  0  0
  151.0322  143.4955  159.1056 H   0  0  0  0  0  0  0  0  0  0  0  0
  151.9171  143.3702  157.6006 H   0  0  0  0  0  0  0  0  0  0  0  0
  149.2741  141.9936  158.2662 H   0  0  0  0  0  0  0  0  0  0  0  0
  149.5144  143.3341  157.1678 H   0  0  0  0  0  0  0  0  0  0  0  0
  150.8605  141.9096  155.6661 H   0  0  0  0  0  0  0  0  0  0  0  0
  148.2945  141.8926  155.5091 H   0  0  0  0  0  0  0  0  0  0  0  0
  148.5996  139.4897  157.2658 H   0  0  0  0  0  0  0  0  0  0  0  0
  147.2056  140.5192  156.9939 H   0  0  0  0  0  0  0  0  0  0  0  0
  147.9733  138.0081  155.6555 H   0  0  0  0  0  0  0  0  0  0  0  0
  146.3893  138.7746  155.6804 H   0  0  0  0  0  0  0  0  0  0  0  0
  147.8237  138.7223  153.3782 H   0  0  0  0  0  0  0  0  0  0  0  0
  146.9361  140.1776  153.8326 H   0  0  0  0  0  0  0  0  0  0  0  0
  149.8765  139.5858  154.3444 H   0  0  0  0  0  0  0  0  0  0  0  0
  149.0775  140.7188  152.4340 H   0  0  0  0  0  0  0  0  0  0  0  0
  152.3963  138.5015  153.1652 H   0  0  0  0  0  0  0  0  0  0  0  0
  149.6221  131.6807  156.0563 H   0  0  0  0  0  0  0  0  0  0  0  0
  149.0438  132.6040  153.2218 H   0  0  0  0  0  0  0  0  0  0  0  0
  150.5822  132.0002  153.8514 H   0  0  0  0  0  0  0  0  0  0  0  0
  148.8854  130.2636  152.6572 H   0  0  0  0  0  0  0  0  0  0  0  0
  149.6813  129.7819  154.1584 H   0  0  0  0  0  0  0  0  0  0  0  0
  147.2946  131.1924  156.2814 H   0  0  0  0  0  0  0  0  0  0  0  0
  146.8623  132.2025  154.9014 H   0  0  0  0  0  0  0  0  0  0  0  0
  1  2  1  0  0  0  0
  1 31  1  0  0  0  0
  2  3  1  0  0  0  0
  2 32  1  0  0  0  0
  2 33  1  0  0  0  0
  3  4  1  0  0  0  0
  3 26  1  0  0  0  0
  3 34  1  0  0  0  0
  4  5  1  0  0  0  0
  4 35  1  0  0  0  0
  4 36  1  0  0  0  0
  5 25  1  0  0  0  0
  5  6  1  0  0  0  0
  6  7  2  0  0  0  0
  6 37  1  0  0  0  0
  7  8  1  0  0  0  0
  8 25  2  0  0  0  0
  8  9  1  0  0  0  0
  9 10  1  0  0  0  0
  9 22  2  0  0  0  0
 10 15  1  0  0  0  0
 10 11  1  0  0  0  0
 11 12  1  0  0  0  0
 11 38  1  0  0  0  0
 11 39  1  0  0  0  0
 12 13  1  0  0  0  0
 12 40  1  0  0  0  0
 12 41  1  0  0  0  0
 13 14  1  0  0  0  0
 13 42  1  0  0  0  0
 13 43  1  0  0  0  0
 14 15  1  0  0  0  0
 14 44  1  0  0  0  0
 14 45  1  0  0  0  0
 15 16  1  0  0  0  0
 15 46  1  0  0  0  0
 16 20  1  0  0  0  0
 16 17  1  0  0  0  0
 16 47  1  0  0  0  0
 17 18  1  0  0  0  0
 17 48  1  0  0  0  0
 17 49  1  0  0  0  0
 18 19  1  0  0  0  0
 18 50  1  0  0  0  0
 18 51  1  0  0  0  0
 19 20  1  0  0  0  0
 19 52  1  0  0  0  0
 19 53  1  0  0  0  0
 20 21  1  0  0  0  0
 20 54  1  0  0  0  0
 21 55  1  0  0  0  0
 22 23  1  0  0  0  0
 23 24  2  0  0  0  0
 23 56  1  0  0  0  0
 24 25  1  0  0  0  0
 26 30  1  0  0  0  0
 26 27  1  0  0  0  0
 26 57  1  0  0  0  0
 27 28  1  0  0  0  0
 27 58  1  0  0  0  0
 27 59  1  0  0  0  0
 28 29  1  0  0  0  0
 28 60  1  0  0  0  0
 28 61  1  0  0  0  0
 29 30  1  0  0  0  0
 30 62  1  0  0  0  0
 30 63  1  0  0  0  0
M  END
> <s_m_source_file>
AV-unprocessed.smi

> <i_m_source_file_index>
148

> <i_lp_mmshare_version>
43012

> <i_f3d_flags>
0

> <s_epik_input>
W0NIMl0xT1tDSDJdW0NIMl1bQ0BIXTFbQ0BIXShbQ0gyXVtPSF0pW0NIMl1uKFtjSF1uMiljKGMyMyluW2NIXW5jM040W0NIMl1bQ0gyXVtDSDJdW0NIMl1bQ0BIXTRbQ0BASF01W0NIMl1bQ0gyXVtDSDJdW0NASF01W09IXQ==

> <s_epik_cmdline>
J2VwaWtfcHl0aG9uJywgJy1waCcsICc3LjAnLCAnLXRuJywgJzgnLCAnLW1hJywgJzIwMCcsICctbWV0YWxfYmluZGluZycsICctaW1hZScsICc8aW5maWxlLm1hZT4nLCAnLW9tYWUnLCAnPG91dGZpbGUubWFlPic=

> <r_lp_tautomer_probability>
1

> <r_epik_Ionization_Penalty>
0.00556303

> <r_epik_Ionization_Penalty_Charging>
0

> <r_epik_Ionization_Penalty_Neutral>
0.00556303

> <r_epik_State_Penalty>
0.00401767

> <r_epik_Charging_Adjusted_Penalty>
0.00401767

> <i_epik_Tot_Q>
0

> <i_epik_Tot_abs_Q>
0

> <r_epik_Metal_State_Penalty>
-0

> <b_epik_Metal_Only>
0

> <s_lp_Force_Field>
OPLS_2005

> <r_lp_Energy>
68.5956

> <b_lp_Chiralities_Consistent>
1

> <s_lp_Variant>
AV-unprocessed.smi:148-3

> <Gold.Version>
5.8.1

> <Gold.Id.Protein>
6NUR|6NUR_protein|mol2

> <Gold.PLP.Fitness>
47.6252

> <Gold.PLP.PLP>
-36.9522

> <Gold.PLP.part.hbond>
-5.5854

> <Gold.PLP.part.metal>
0.0000

> <Gold.PLP.part.buried>
-7.0161

> <Gold.PLP.part.nonpolar>
-25.0078

> <Gold.PLP.part.repulsive>
0.8965

> <Gold.PLP.ligand.clash>
0.0525

> <Gold.PLP.ligand.torsion>
0.8942

> <Gold.PLP.Chemscore.Hbond>
3.9671

> <Gold.PLP.Chemscore.CHOScore>
0.0000

> <Gold.PLP.Chemscore.Metal>
0.0000

> <Gold.Chemscore.Hbonds>
donor molecule, donor type, donor heavy atom, donor atom, acceptor molecule, acceptor atom, score
      L1  H     1    31       P1  7948  0.75
      L1  H    21    55       P1  7957  0.99
      P1  H  7989  7998       L1    22  0.85
      P1  H  8011  8017       L1    21  0.30
      P1  H 10752 10765       L1    24  1.00

> <Gold.PLP.Chemscore.Internal.Correction>
0.6127

> <Gold.Rescore>
     Score         DG    S(hbond)    S(metal)    S(lipo)     H(rot)  DE(clash)    DE(int)     intcor
     11.20     -14.28       2.46        0.00      77.76       3.32       0.02       3.07       ----

> <Gold.Chemscore.Fitness>
11.1982

> <Gold.Chemscore.DG>
-14.2845

> <Gold.Chemscore.ZeroCoef>
-5.4800

> <Gold.Chemscore.Hbond>
2.4572

> <Gold.Chemscore.Metal>
0.0000

> <Gold.Chemscore.Lipo>
77.7562

> <Gold.Chemscore.Internal_Hbond>
0.0000

> <Gold.Chemscore.DEClash>
0.0202

> <Gold.Chemscore.DEInternal>
3.0661

> <Gold.Chemscore.Rot>
3.3203

> <Gold.Chemscore.Internal.Correction>
   9.000000E+99

> <Gold.Chemscore.Hbonds>
donor molecule, donor type, donor heavy atom, donor atom, acceptor molecule, acceptor atom, score
      L1  H     1    31       P1  7948  0.73
      L1  H    21    55       P1  7957  0.90
      P1  H  7989  7998       L1    22  0.18
      P1  H 10752 10765       L1    24  0.50

> <Gold.Chemscore.Hbond.Weighted>
-8.2070

> <Gold.Chemscore.Metal.Weighted>
-0.0000

> <Gold.Chemscore.Lipo.Weighted>
-9.0975

> <Gold.Chemscore.Internal_Hbond.Weighted>
0.0000

> <Gold.Chemscore.DEClash.Weighted>
0.0202

> <Gold.Chemscore.DEInternal.Weighted>
3.0661

> <Gold.Chemscore.Rot.Weighted>
8.5000

> <Gold.Chemscore.Internal.Correction.Weighted>
   9.000000E+99

> <Gold.Protein.RotatedTorsions>
[ 6907 6896 6895 6894 ] final  -67.55 input  -60.11 | X-H torsion
[ 7974 7965 7964 7962 ] final -155.09 input  175.53 | X-H torsion
[ 8008 7997 7996 7995 ] final  127.13 input   59.86 | X-H torsion
[ 10167 10162 10161 10158 ] final -139.93 input  -65.29 | X-H torsion
[ 10718 10713 10712 10709 ] final   10.21 input   66.30 | X-H torsion
[ 10763 10752 10751 10750 ] final  158.58 input  -60.55 | X-H torsion
[ 11005 11000 10999 10996 ] final  102.14 input  -57.11 | X-H torsion

> <Gold.Protein.ActiveResidues>
 VAL166  LYS551  ARG553  GLY616  TRP617  ASP618  TYR619  PRO620  LYS621  CYS622 
 ASP623  PHE694  ASN695  SER759  ASP760  ASP761  ALA762  ILE779  LEU786  VAL792 
 PHE793  MET794  SER795  GLU796  ALA797  LYS798  CYS799  TRP800  GLU811  SER814 

> <Gold.Protein.RotatedAtoms>
  150.7403  134.5864  159.5964 H   0  0  0  0  0  0  0  0  0  0  0  0  # atno 6907 bound_to 6896
  152.3264  134.7312  160.0310 H   0  0  0  0  0  0  0  0  0  0  0  0  # atno 6908 bound_to 6896
  151.7811  133.3314  159.3508 H   0  0  0  0  0  0  0  0  0  0  0  0  # atno 6909 bound_to 6896
  144.7657  140.4297  143.5944 H   0  0  0  0  0  0  0  0  0  0  0  0  # atno 7974 bound_to 7965
  156.2883  140.2676  156.2224 H   0  0  0  0  0  0  0  0  0  0  0  0  # atno 8008 bound_to 7997
  155.0155  140.0387  157.2434 H   0  0  0  0  0  0  0  0  0  0  0  0  # atno 8009 bound_to 7997
  154.7481  140.2738  155.6321 H   0  0  0  0  0  0  0  0  0  0  0  0  # atno 8010 bound_to 7997
  139.8331  143.7420  152.2665 H   0  0  0  0  0  0  0  0  0  0  0  0  # atno 10167 bound_to 10162
  156.9776  130.5993  149.5674 H   0  0  0  0  0  0  0  0  0  0  0  0  # atno 10718 bound_to 10713
  154.2183  135.2783  155.2934 H   0  0  0  0  0  0  0  0  0  0  0  0  # atno 10763 bound_to 10752
  154.5723  135.5615  153.7110 H   0  0  0  0  0  0  0  0  0  0  0  0  # atno 10764 bound_to 10752
  153.0048  135.6324  154.2322 H   0  0  0  0  0  0  0  0  0  0  0  0  # atno 10765 bound_to 10752
  139.8776  134.9212  156.5013 H   0  0  0  0  0  0  0  0  0  0  0  0  # atno 11005 bound_to 11000
  145.6478  139.1560  143.2879 LP  0  0  0  0  0  0  0  0  0  0  0  0  # atno 17320 bound_to 7965
  146.1762  140.6569  142.9210 LP  0  0  0  0  0  0  0  0  0  0  0  0  # atno 17321 bound_to 7965
  139.7634  144.7499  151.0330 LP  0  0  0  0  0  0  0  0  0  0  0  0  # atno 17342 bound_to 10162
  140.7805  143.4725  151.0127 LP  0  0  0  0  0  0  0  0  0  0  0  0  # atno 17343 bound_to 10162
  156.0257  130.5351  150.8400 LP  0  0  0  0  0  0  0  0  0  0  0  0  # atno 17370 bound_to 10713
  157.5549  131.0944  150.9643 LP  0  0  0  0  0  0  0  0  0  0  0  0  # atno 17371 bound_to 10713
  140.8587  133.8076  155.9243 LP  0  0  0  0  0  0  0  0  0  0  0  0  # atno 17394 bound_to 11000
  140.9071  134.2306  157.5008 LP  0  0  0  0  0  0  0  0  0  0  0  0  # atno 17395 bound_to 11000

$$$$
