AV-unprocessed.smi:1978|AV-procd|sdf|8009|dock3
  -GOLD-   2272010193D 1   1.00000     0.00000
 Structure written by MMmdl.
 44 45  0  0  0  0  0  0  0  0  3 V2000
  147.5067  135.5437  162.5869 C   0  0  0  0  0  0  0  0  0  0  0  0
  147.8124  135.7753  161.1468 C   0  0  0  0  0  0  0  0  0  0  0  0
  148.1240  134.9344  160.1160 C   0  0  0  0  0  0  0  0  0  0  0  0
  148.2967  135.8205  159.0191 C   0  0  0  0  0  0  0  0  0  0  0  0
  148.6407  135.3226  157.7344 N   0  0  0  0  0  0  0  0  0  0  0  0
  149.1504  134.1219  157.4039 C   0  0  0  0  0  0  0  0  0  0  0  0
  149.4053  133.2886  158.2814 O   0  0  0  0  0  0  0  0  0  0  0  0
  149.3240  133.9896  156.0605 N   0  5  0  0  0  0  0  0  0  0  0  0
  148.4692  134.6090  155.0481 C   0  0  0  0  0  0  0  0  0  0  0  0
  148.0625  133.5622  153.9634 C   0  0  1  0  0  0  0  0  0  0  0  0
  147.4133  132.3271  154.6613 C   0  0  0  0  0  0  0  0  0  0  0  0
  147.1979  134.1989  152.9023 N   0  3  1  0  0  0  0  0  0  0  0  0
  146.6280  133.2444  151.8956 C   0  0  0  0  0  0  0  0  0  0  0  0
  146.1149  133.9999  150.6581 C   0  0  0  0  0  0  0  0  0  0  0  0
  145.0702  135.0552  151.0380 C   0  0  0  0  0  0  0  0  0  0  0  0
  145.6163  135.9696  152.1454 C   0  0  0  0  0  0  0  0  0  0  0  0
  146.1501  135.1729  153.3557 C   0  0  1  0  0  0  0  0  0  0  0  0
  144.9988  134.5201  154.1595 C   0  0  0  0  0  0  0  0  0  0  0  0
  148.1071  137.0886  159.3523 N   0  0  0  0  0  0  0  0  0  0  0  0
  147.7959  137.0660  160.7170 O   0  0  0  0  0  0  0  0  0  0  0  0
  147.2388  134.5023  162.7651 H   0  0  0  0  0  0  0  0  0  0  0  0
  146.6735  136.1669  162.9123 H   0  0  0  0  0  0  0  0  0  0  0  0
  148.3705  135.7820  163.2072 H   0  0  0  0  0  0  0  0  0  0  0  0
  148.2152  133.8590  160.1441 H   0  0  0  0  0  0  0  0  0  0  0  0
  148.4705  135.9520  156.9642 H   0  0  0  0  0  0  0  0  0  0  0  0
  147.5668  135.0414  155.4822 H   0  0  0  0  0  0  0  0  0  0  0  0
  148.9822  135.4454  154.5746 H   0  0  0  0  0  0  0  0  0  0  0  0
  148.9620  133.2094  153.4556 H   0  0  0  0  0  0  0  0  0  0  0  0
  148.0630  131.8849  155.4197 H   0  0  0  0  0  0  0  0  0  0  0  0
  147.2095  131.5122  153.9709 H   0  0  0  0  0  0  0  0  0  0  0  0
  146.4704  132.5764  155.1522 H   0  0  0  0  0  0  0  0  0  0  0  0
  147.3635  132.5189  151.5523 H   0  0  0  0  0  0  0  0  0  0  0  0
  145.8314  132.6510  152.3438 H   0  0  0  0  0  0  0  0  0  0  0  0
  146.9544  134.4823  150.1556 H   0  0  0  0  0  0  0  0  0  0  0  0
  145.6894  133.2971  149.9412 H   0  0  0  0  0  0  0  0  0  0  0  0
  144.8012  135.6472  150.1627 H   0  0  0  0  0  0  0  0  0  0  0  0
  144.1533  134.5664  151.3677 H   0  0  0  0  0  0  0  0  0  0  0  0
  146.4235  136.5784  151.7355 H   0  0  0  0  0  0  0  0  0  0  0  0
  144.8432  136.6695  152.4645 H   0  0  0  0  0  0  0  0  0  0  0  0
  146.6197  135.9196  153.9943 H   0  0  0  0  0  0  0  0  0  0  0  0
  144.3526  135.2859  154.5889 H   0  0  0  0  0  0  0  0  0  0  0  0
  145.3562  133.9028  154.9816 H   0  0  0  0  0  0  0  0  0  0  0  0
  144.3661  133.8826  153.5440 H   0  0  0  0  0  0  0  0  0  0  0  0
  147.8527  134.7670  152.3841 H   0  0  0  0  0  0  0  0  0  0  0  0
  1  2  1  0  0  0  0
  1 21  1  0  0  0  0
  1 22  1  0  0  0  0
  1 23  1  0  0  0  0
  2 20  1  0  0  0  0
  2  3  2  0  0  0  0
  3  4  1  0  0  0  0
  3 24  1  0  0  0  0
  4  5  1  0  0  0  0
  4 19  2  0  0  0  0
  5  6  1  0  0  0  0
  5 25  1  0  0  0  0
  6  7  2  0  0  0  0
  6  8  1  0  0  0  0
  8  9  1  0  0  0  0
  9 10  1  0  0  0  0
  9 26  1  0  0  0  0
  9 27  1  0  0  0  0
 10 11  1  0  0  0  0
 10 12  1  0  0  0  0
 10 28  1  0  0  0  0
 11 29  1  0  0  0  0
 11 30  1  0  0  0  0
 11 31  1  0  0  0  0
 12 17  1  0  0  0  0
 12 13  1  0  0  0  0
 12 44  1  0  0  0  0
 13 14  1  0  0  0  0
 13 32  1  0  0  0  0
 13 33  1  0  0  0  0
 14 15  1  0  0  0  0
 14 34  1  0  0  0  0
 14 35  1  0  0  0  0
 15 16  1  0  0  0  0
 15 36  1  0  0  0  0
 15 37  1  0  0  0  0
 16 17  1  0  0  0  0
 16 38  1  0  0  0  0
 16 39  1  0  0  0  0
 17 18  1  0  0  0  0
 17 40  1  0  0  0  0
 18 41  1  0  0  0  0
 18 42  1  0  0  0  0
 18 43  1  0  0  0  0
 19 20  1  0  0  0  0
M  CHG  1   8  -1
M  CHG  1  12   1
M  END
> <s_m_source_file>
AV-unprocessed.smi

> <i_m_source_file_index>
1978

> <i_lp_mmshare_version>
43012

> <i_f3d_flags>
0

> <s_epik_input>
W0NIM11jMVtjSF1jKG5vMSlbTkhdQyg9TylbTkhdW0NIMl1bQ0BIXShbQ0gzXSlOMltDSDJdW0NIMl1bQ0gyXVtDSDJdW0NASF0yW0NIM10=

> <s_epik_cmdline>
J2VwaWtfcHl0aG9uJywgJy1waCcsICc3LjAnLCAnLXRuJywgJzgnLCAnLW1hJywgJzIwMCcsICctbWV0YWxfYmluZGluZycsICctaW1hZScsICc8aW5maWxlLm1hZT4nLCAnLW9tYWUnLCAnPG91dGZpbGUubWFlPic=

> <r_epik_Ionization_Penalty>
6.7666

> <r_epik_Ionization_Penalty_Charging>
6.7666

> <r_epik_Ionization_Penalty_Neutral>
5.77131e-06

> <r_epik_State_Penalty>
6.79217

> <r_epik_Charging_Adjusted_Penalty>
13.5588

> <i_epik_Tot_Q>
0

> <i_epik_Tot_abs_Q>
2

> <r_epik_Metal_State_Penalty>
2.72569

> <b_epik_Metal_Only>
1

> <s_lp_Force_Field>
OPLS_2005

> <r_lp_Energy>
25.8375

> <b_lp_Chiralities_Consistent>
1

> <s_lp_Variant>
AV-unprocessed.smi:1978-18

> <Gold.Version>
5.8.1

> <Gold.Id.Protein>
6NUR|6NUR_protein|mol2

> <Gold.PLP.Fitness>
41.1636

> <Gold.PLP.PLP>
-28.1159

> <Gold.PLP.part.hbond>
-4.1459

> <Gold.PLP.part.metal>
0.0000

> <Gold.PLP.part.buried>
-3.8939

> <Gold.PLP.part.nonpolar>
-20.4322

> <Gold.PLP.part.repulsive>
0.0716

> <Gold.PLP.ligand.clash>
0.0000

> <Gold.PLP.ligand.torsion>
0.5992

> <Gold.PLP.Chemscore.Hbond>
4.7049

> <Gold.PLP.Chemscore.CHOScore>
0.0000

> <Gold.PLP.Chemscore.Metal>
0.0000

> <Gold.Chemscore.Hbonds>
donor molecule, donor type, donor heavy atom, donor atom, acceptor molecule, acceptor atom, score
      L1  H    12    44       P1  7948  2.00
      P1  H  6896  6908       L1     7  1.00
      P1  H  6931  6943       L1    20  0.77
      P1  H  6934  6947       L1    20  0.77

> <Gold.PLP.Chemscore.Internal.Correction>
0.1315

> <Gold.Rescore>
     Score         DG    S(hbond)    S(metal)    S(lipo)     H(rot)  DE(clash)    DE(int)     intcor
     16.15     -18.13       2.90        0.00      58.62       1.52       0.04       1.94       ----

> <Gold.Chemscore.Fitness>
16.1525

> <Gold.Chemscore.DG>
-18.1319

> <Gold.Chemscore.ZeroCoef>
-5.4800

> <Gold.Chemscore.Hbond>
2.8989

> <Gold.Chemscore.Metal>
0.0000

> <Gold.Chemscore.Lipo>
58.6175

> <Gold.Chemscore.Internal_Hbond>
0.0000

> <Gold.Chemscore.DEClash>
0.0417

> <Gold.Chemscore.DEInternal>
1.9376

> <Gold.Chemscore.Rot>
1.5190

> <Gold.Chemscore.Internal.Correction>
   9.000000E+99

> <Gold.Chemscore.Hbonds>
donor molecule, donor type, donor heavy atom, donor atom, acceptor molecule, acceptor atom, score
      L1  H    12    44       P1  7948  0.74
      P1  H  6896  6908       L1     7  0.82
      P1  H  6931  6943       L1    20  0.51
      P1  H  6934  6947       L1    20  0.17

> <Gold.Chemscore.Hbond.Weighted>
-9.6823

> <Gold.Chemscore.Metal.Weighted>
-0.0000

> <Gold.Chemscore.Lipo.Weighted>
-6.8582

> <Gold.Chemscore.Internal_Hbond.Weighted>
0.0000

> <Gold.Chemscore.DEClash.Weighted>
0.0417

> <Gold.Chemscore.DEInternal.Weighted>
1.9376

> <Gold.Chemscore.Rot.Weighted>
3.8886

> <Gold.Chemscore.Internal.Correction.Weighted>
   9.000000E+99

> <Gold.Protein.RotatedTorsions>
[ 6907 6896 6895 6894 ] final  119.62 input  -60.11 | X-H torsion
[ 7974 7965 7964 7962 ] final  -13.06 input  175.53 | X-H torsion
[ 8008 7997 7996 7995 ] final -112.46 input   59.86 | X-H torsion
[ 10167 10162 10161 10158 ] final  -44.15 input  -65.29 | X-H torsion
[ 10718 10713 10712 10709 ] final -160.69 input   66.30 | X-H torsion
[ 10763 10752 10751 10750 ] final   99.86 input  -60.55 | X-H torsion
[ 11005 11000 10999 10996 ] final   30.00 input  -57.11 | X-H torsion

> <Gold.Protein.ActiveResidues>
 VAL166  LYS551  ARG553  GLY616  TRP617  ASP618  TYR619  PRO620  LYS621  CYS622 
 ASP623  PHE694  ASN695  SER759  ASP760  ASP761  ALA762  ILE779  LEU786  VAL792 
 PHE793  MET794  SER795  GLU796  ALA797  LYS798  CYS799  TRP800  GLU811  SER814 

> <Gold.Protein.RotatedAtoms>
  152.4458  133.7534  159.6706 H   0  0  0  0  0  0  0  0  0  0  0  0  # atno 6907 bound_to 6896
  150.8358  133.8005  159.3086 H   0  0  0  0  0  0  0  0  0  0  0  0  # atno 6908 bound_to 6896
  151.5645  135.1067  160.0032 H   0  0  0  0  0  0  0  0  0  0  0  0  # atno 6909 bound_to 6896
  146.2128  140.3148  142.8385 H   0  0  0  0  0  0  0  0  0  0  0  0  # atno 7974 bound_to 7965
  155.0056  140.0394  157.2378 H   0  0  0  0  0  0  0  0  0  0  0  0  # atno 8008 bound_to 7997
  154.7505  140.2766  155.6273 H   0  0  0  0  0  0  0  0  0  0  0  0  # atno 8009 bound_to 7997
  156.2884  140.2648  156.2257 H   0  0  0  0  0  0  0  0  0  0  0  0  # atno 8010 bound_to 7997
  140.6908  143.2945  151.3454 H   0  0  0  0  0  0  0  0  0  0  0  0  # atno 10167 bound_to 10162
  156.5857  130.8748  151.2876 H   0  0  0  0  0  0  0  0  0  0  0  0  # atno 10718 bound_to 10713
  153.3067  135.4098  155.1300 H   0  0  0  0  0  0  0  0  0  0  0  0  # atno 10763 bound_to 10752
  154.8565  135.3554  154.5778 H   0  0  0  0  0  0  0  0  0  0  0  0  # atno 10764 bound_to 10752
  153.6205  135.7064  153.5371 H   0  0  0  0  0  0  0  0  0  0  0  0  # atno 10765 bound_to 10752
  140.2990  134.2778  155.7758 H   0  0  0  0  0  0  0  0  0  0  0  0  # atno 11005 bound_to 11000
  144.8962  140.7586  143.5896 LP  0  0  0  0  0  0  0  0  0  0  0  0  # atno 17320 bound_to 7965
  145.3073  139.1830  143.4658 LP  0  0  0  0  0  0  0  0  0  0  0  0  # atno 17321 bound_to 7965
  139.6308  144.0724  152.2475 LP  0  0  0  0  0  0  0  0  0  0  0  0  # atno 17342 bound_to 10162
  140.0198  144.6161  150.7576 LP  0  0  0  0  0  0  0  0  0  0  0  0  # atno 17343 bound_to 10162
  157.7316  130.9702  150.1887 LP  0  0  0  0  0  0  0  0  0  0  0  0  # atno 17370 bound_to 10713
  156.2593  130.3709  149.8148 LP  0  0  0  0  0  0  0  0  0  0  0  0  # atno 17371 bound_to 10713
  141.2132  133.7634  156.9738 LP  0  0  0  0  0  0  0  0  0  0  0  0  # atno 17394 bound_to 11000
  140.1127  134.9467  157.2088 LP  0  0  0  0  0  0  0  0  0  0  0  0  # atno 17395 bound_to 11000

$$$$
