AV-unprocessed.smi:3182|AV-procd|sdf|12151|dock1
  -GOLD-   2272017593D 1   1.00000     0.00000
 Structure written by MMmdl.
 38 39  0  0  0  0  0  0  0  0  2 V2000
  151.3342  139.4577  155.6631 C   0  0  0  0  0  0  0  0  0  0  0  0
  150.6837  140.4433  154.8697 O   0  0  0  0  0  0  0  0  0  0  0  0
  149.2547  140.4143  154.7626 C   0  0  0  0  0  0  0  0  0  0  0  0
  148.7886  140.8309  156.1796 C   0  0  0  0  0  0  0  0  0  0  0  0
  149.2404  142.1645  156.5510 N   0  0  0  0  0  0  0  0  0  0  0  0
  150.2659  142.3376  157.4886 C   0  0  0  0  0  0  0  0  0  0  0  0
  150.9377  141.2764  158.1421 C   0  0  0  0  0  0  0  0  0  0  0  0
  151.9574  141.5716  159.0704 C   0  0  0  0  0  0  0  0  0  0  0  0
  152.2882  142.9165  159.3315 C   0  0  0  0  0  0  0  0  0  0  0  0
  151.5897  143.9375  158.6544 C   0  0  0  0  0  0  0  0  0  0  0  0
  151.8850  145.4056  158.8765 C   0  0  0  0  0  0  0  0  0  0  0  0
  150.6194  143.6112  157.7715 N   0  3  0  0  0  0  0  0  0  0  0  0
  148.7897  141.4627  153.7253 C   0  0  0  0  0  0  0  0  0  0  0  0
  147.2678  141.4009  153.4912 C   0  0  0  0  0  0  0  0  0  0  0  0
  146.8801  140.0855  153.1091 O   0  0  0  0  0  0  0  0  0  0  0  0
  147.1674  139.1023  154.0976 C   0  0  0  0  0  0  0  0  0  0  0  0
  148.6861  139.0350  154.3360 C   0  0  0  0  0  0  0  0  0  0  0  0
  152.4120  139.5590  155.5361 H   0  0  0  0  0  0  0  0  0  0  0  0
  151.0685  138.4413  155.3773 H   0  0  0  0  0  0  0  0  0  0  0  0
  151.1248  139.5951  156.7240 H   0  0  0  0  0  0  0  0  0  0  0  0
  147.6990  140.8068  156.2278 H   0  0  0  0  0  0  0  0  0  0  0  0
  149.1499  140.1287  156.9295 H   0  0  0  0  0  0  0  0  0  0  0  0
  148.7870  142.9660  156.1363 H   0  0  0  0  0  0  0  0  0  0  0  0
  150.6872  140.2442  157.9472 H   0  0  0  0  0  0  0  0  0  0  0  0
  152.4804  140.7737  159.5772 H   0  0  0  0  0  0  0  0  0  0  0  0
  153.0666  143.1572  160.0409 H   0  0  0  0  0  0  0  0  0  0  0  0
  152.6901  145.5393  159.5997 H   0  0  0  0  0  0  0  0  0  0  0  0
  150.9999  145.9184  159.2540 H   0  0  0  0  0  0  0  0  0  0  0  0
  152.1859  145.8780  157.9410 H   0  0  0  0  0  0  0  0  0  0  0  0
  149.0814  142.4659  154.0380 H   0  0  0  0  0  0  0  0  0  0  0  0
  149.2754  141.2923  152.7654 H   0  0  0  0  0  0  0  0  0  0  0  0
  146.7122  141.7129  154.3760 H   0  0  0  0  0  0  0  0  0  0  0  0
  146.9888  142.0888  152.6929 H   0  0  0  0  0  0  0  0  0  0  0  0
  146.6244  139.3187  155.0181 H   0  0  0  0  0  0  0  0  0  0  0  0
  146.8053  138.1375  153.7419 H   0  0  0  0  0  0  0  0  0  0  0  0
  149.1371  138.7110  153.3983 H   0  0  0  0  0  0  0  0  0  0  0  0
  148.9232  138.2635  155.0685 H   0  0  0  0  0  0  0  0  0  0  0  0
  150.1292  144.3682  157.2944 H   0  0  0  0  0  0  0  0  0  0  0  0
  1  2  1  0  0  0  0
  1 18  1  0  0  0  0
  1 19  1  0  0  0  0
  1 20  1  0  0  0  0
  2  3  1  0  0  0  0
  3 17  1  0  0  0  0
  3  4  1  0  0  0  0
  3 13  1  0  0  0  0
  4  5  1  0  0  0  0
  4 21  1  0  0  0  0
  4 22  1  0  0  0  0
  5  6  1  0  0  0  0
  5 23  1  0  0  0  0
  6 12  1  0  0  0  0
  6  7  2  0  0  0  0
  7  8  1  0  0  0  0
  7 24  1  0  0  0  0
  8  9  2  0  0  0  0
  8 25  1  0  0  0  0
  9 10  1  0  0  0  0
  9 26  1  0  0  0  0
 10 11  1  0  0  0  0
 10 12  2  0  0  0  0
 11 27  1  0  0  0  0
 11 28  1  0  0  0  0
 11 29  1  0  0  0  0
 12 38  1  0  0  0  0
 13 14  1  0  0  0  0
 13 30  1  0  0  0  0
 13 31  1  0  0  0  0
 14 15  1  0  0  0  0
 14 32  1  0  0  0  0
 14 33  1  0  0  0  0
 15 16  1  0  0  0  0
 16 17  1  0  0  0  0
 16 34  1  0  0  0  0
 16 35  1  0  0  0  0
 17 36  1  0  0  0  0
 17 37  1  0  0  0  0
M  CHG  1  12   1
M  END
> <s_m_source_file>
AV-unprocessed.smi

> <i_m_source_file_index>
3182

> <i_lp_mmshare_version>
43012

> <i_f3d_flags>
0

> <s_epik_input>
W0NIMl0xW0NIMl1PW0NIMl1bQ0gyXUMxKE9bQ0gzXSlbQ0gyXVtOSF1jMltjSF1bY0hdW2NIXWMobjIpW0NIM10=

> <s_epik_cmdline>
J2VwaWtfcHl0aG9uJywgJy1waCcsICc3LjAnLCAnLXRuJywgJzgnLCAnLW1hJywgJzIwMCcsICctbWV0YWxfYmluZGluZycsICctaW1hZScsICc8aW5maWxlLm1hZT4nLCAnLW9tYWUnLCAnPG91dGZpbGUubWFlPic=

> <r_lp_tautomer_probability>
0.999994

> <r_epik_Ionization_Penalty>
0.0828477

> <r_epik_Ionization_Penalty_Charging>
0.0828471

> <r_epik_Ionization_Penalty_Neutral>
5.27923e-07

> <r_epik_State_Penalty>
0.0735379

> <r_epik_Charging_Adjusted_Penalty>
0.156385

> <i_epik_Tot_Q>
1

> <i_epik_Tot_abs_Q>
1

> <r_epik_Metal_State_Penalty>
2.89813

> <b_epik_Metal_Only>
0

> <s_lp_Force_Field>
OPLS_2005

> <r_lp_Energy>
24.7415

> <b_lp_Chiralities_Consistent>
1

> <s_lp_Variant>
AV-unprocessed.smi:3182-1

> <Gold.Version>
5.8.1

> <Gold.Id.Protein>
6NUR|6NUR_protein|mol2

> <Gold.PLP.Fitness>
45.8072

> <Gold.PLP.PLP>
-32.8222

> <Gold.PLP.part.hbond>
-3.0000

> <Gold.PLP.part.metal>
0.0000

> <Gold.PLP.part.buried>
-1.6934

> <Gold.PLP.part.nonpolar>
-28.3636

> <Gold.PLP.part.repulsive>
0.3410

> <Gold.PLP.ligand.clash>
0.0000

> <Gold.PLP.ligand.torsion>
0.1367

> <Gold.PLP.Chemscore.Hbond>
4.4171

> <Gold.PLP.Chemscore.CHOScore>
0.0000

> <Gold.PLP.Chemscore.Metal>
0.0000

> <Gold.Chemscore.Hbonds>
donor molecule, donor type, donor heavy atom, donor atom, acceptor molecule, acceptor atom, score
      L1  H     5    23       P1  8028  1.95
      L1  H    12    38       P1  8028  1.60
      P1  H  7989  7998       L1     2  1.00

> <Gold.PLP.Chemscore.Internal.Correction>
0.0070

> <Gold.Rescore>
     Score         DG    S(hbond)    S(metal)    S(lipo)     H(rot)  DE(clash)    DE(int)     intcor
     20.30     -21.01       2.56        0.00      90.02       1.38       0.57       0.14       ----

> <Gold.Chemscore.Fitness>
20.2989

> <Gold.Chemscore.DG>
-21.0088

> <Gold.Chemscore.ZeroCoef>
-5.4800

> <Gold.Chemscore.Hbond>
2.5571

> <Gold.Chemscore.Metal>
0.0000

> <Gold.Chemscore.Lipo>
90.0205

> <Gold.Chemscore.Internal_Hbond>
0.0000

> <Gold.Chemscore.DEClash>
0.5720

> <Gold.Chemscore.DEInternal>
0.1378

> <Gold.Chemscore.Rot>
1.3845

> <Gold.Chemscore.Internal.Correction>
   9.000000E+99

> <Gold.Chemscore.Hbonds>
donor molecule, donor type, donor heavy atom, donor atom, acceptor molecule, acceptor atom, score
      L1  H     5    23       P1  8028  0.93
      L1  H    12    38       P1  8028  0.42
      P1  H  7989  7998       L1     2  0.78

> <Gold.Chemscore.Hbond.Weighted>
-8.5408

> <Gold.Chemscore.Metal.Weighted>
-0.0000

> <Gold.Chemscore.Lipo.Weighted>
-10.5324

> <Gold.Chemscore.Internal_Hbond.Weighted>
0.0000

> <Gold.Chemscore.DEClash.Weighted>
0.5720

> <Gold.Chemscore.DEInternal.Weighted>
0.1378

> <Gold.Chemscore.Rot.Weighted>
3.5444

> <Gold.Chemscore.Internal.Correction.Weighted>
   9.000000E+99

> <Gold.Protein.RotatedTorsions>
[ 6907 6896 6895 6894 ] final  160.36 input  -60.11 | X-H torsion
[ 7974 7965 7964 7962 ] final  -57.52 input  175.53 | X-H torsion
[ 8008 7997 7996 7995 ] final  -94.51 input   59.86 | X-H torsion
[ 10167 10162 10161 10158 ] final   52.70 input  -65.29 | X-H torsion
[ 10718 10713 10712 10709 ] final  132.39 input   66.30 | X-H torsion
[ 10763 10752 10751 10750 ] final   37.47 input  -60.55 | X-H torsion
[ 11005 11000 10999 10996 ] final  -98.10 input  -57.11 | X-H torsion

> <Gold.Protein.ActiveResidues>
 VAL166  LYS551  ARG553  GLY616  TRP617  ASP618  TYR619  PRO620  LYS621  CYS622 
 ASP623  PHE694  ASN695  SER759  ASP760  ASP761  ALA762  ILE779  LEU786  VAL792 
 PHE793  MET794  SER795  GLU796  ALA797  LYS798  CYS799  TRP800  GLU811  SER814 

> <Gold.Protein.RotatedAtoms>
  151.9717  133.3728  159.4073 H   0  0  0  0  0  0  0  0  0  0  0  0  # atno 6907 bound_to 6896
  150.6948  134.4132  159.5180 H   0  0  0  0  0  0  0  0  0  0  0  0  # atno 6908 bound_to 6896
  152.1837  134.8731  160.0575 H   0  0  0  0  0  0  0  0  0  0  0  0  # atno 6909 bound_to 6896
  145.8501  140.8358  142.9990 H   0  0  0  0  0  0  0  0  0  0  0  0  # atno 7974 bound_to 7965
  154.7493  140.0488  157.0880 H   0  0  0  0  0  0  0  0  0  0  0  0  # atno 8008 bound_to 7997
  155.0077  140.3132  155.4822 H   0  0  0  0  0  0  0  0  0  0  0  0  # atno 8009 bound_to 7997
  156.2882  140.2190  156.5190 H   0  0  0  0  0  0  0  0  0  0  0  0  # atno 8010 bound_to 7997
  140.2486  144.3505  150.6356 H   0  0  0  0  0  0  0  0  0  0  0  0  # atno 10167 bound_to 10162
  157.4876  131.1089  150.9600 H   0  0  0  0  0  0  0  0  0  0  0  0  # atno 10718 bound_to 10713
  153.0036  135.6277  154.2151 H   0  0  0  0  0  0  0  0  0  0  0  0  # atno 10763 bound_to 10752
  154.1894  135.2809  155.3028 H   0  0  0  0  0  0  0  0  0  0  0  0  # atno 10764 bound_to 10752
  154.5772  135.5658  153.7210 H   0  0  0  0  0  0  0  0  0  0  0  0  # atno 10765 bound_to 10752
  141.1356  133.8220  157.0794 H   0  0  0  0  0  0  0  0  0  0  0  0  # atno 11005 bound_to 11000
  144.6729  140.0940  143.7464 LP  0  0  0  0  0  0  0  0  0  0  0  0  # atno 17320 bound_to 7965
  145.9367  139.2642  143.1293 LP  0  0  0  0  0  0  0  0  0  0  0  0  # atno 17321 bound_to 7965
  140.6058  143.2167  151.6983 LP  0  0  0  0  0  0  0  0  0  0  0  0  # atno 17342 bound_to 10162
  139.5054  144.3720  152.0461 LP  0  0  0  0  0  0  0  0  0  0  0  0  # atno 17343 bound_to 10162
  157.0312  130.5712  149.5343 LP  0  0  0  0  0  0  0  0  0  0  0  0  # atno 17370 bound_to 10713
  156.0155  130.5249  150.8122 LP  0  0  0  0  0  0  0  0  0  0  0  0  # atno 17371 bound_to 10713
  140.0461  134.9829  157.1051 LP  0  0  0  0  0  0  0  0  0  0  0  0  # atno 17394 bound_to 11000
  140.4061  134.2031  155.7163 LP  0  0  0  0  0  0  0  0  0  0  0  0  # atno 17395 bound_to 11000

$$$$
