AV-unprocessed.smi:2562|AV-procd|sdf|10047|dock1
  -GOLD-   2272014 93D 1   1.00000     0.00000
 Structure written by MMmdl.
 30 31  0  0  0  0  0  0  0  0  1 V2000
  152.1949  144.8191  159.2012 C   0  0  0  0  0  0  0  0  0  0  0  0
  151.9751  144.0508  160.5092 C   0  0  0  0  0  0  0  0  0  0  0  0
  152.7903  142.7513  160.5730 C   0  0  0  0  0  0  0  0  0  0  0  0
  152.6130  141.8989  159.3591 C   0  0  0  0  0  0  0  0  0  0  0  0
  153.1553  140.6842  159.2547 N   0  0  0  0  0  0  0  0  0  0  0  0
  152.8189  140.1454  158.0639 N   0  0  0  0  0  0  0  0  0  0  0  0
  152.0841  141.1136  157.5169 C   0  0  0  0  0  0  0  0  0  0  0  0
  151.4568  140.9304  156.1693 C   0  0  1  0  0  0  0  0  0  0  0  0
  151.6858  139.5136  155.6077 C   0  0  0  0  0  0  0  0  0  0  0  0
  150.9778  139.3524  154.3384 N   0  0  0  0  0  0  0  0  0  0  0  0
  149.5562  139.6633  154.4833 C   0  0  0  0  0  0  0  0  0  0  0  0
  149.3719  141.0695  155.0825 C   0  0  0  0  0  0  0  0  0  0  0  0
  150.0573  141.1543  156.3273 O   0  0  0  0  0  0  0  0  0  0  0  0
  151.8979  142.2289  158.2893 N   0  0  0  0  0  0  0  0  0  0  0  0
  153.7275  140.2053  159.9354 H   0  0  0  0  0  0  0  0  0  0  0  0
  151.6080  145.7377  159.1865 H   0  0  0  0  0  0  0  0  0  0  0  0
  151.8980  144.2215  158.3389 H   0  0  0  0  0  0  0  0  0  0  0  0
  153.2430  145.0919  159.0761 H   0  0  0  0  0  0  0  0  0  0  0  0
  152.2414  144.6912  161.3509 H   0  0  0  0  0  0  0  0  0  0  0  0
  150.9139  143.8235  160.6171 H   0  0  0  0  0  0  0  0  0  0  0  0
  153.8511  142.9814  160.6807 H   0  0  0  0  0  0  0  0  0  0  0  0
  152.5071  142.1742  161.4544 H   0  0  0  0  0  0  0  0  0  0  0  0
  151.8679  141.6777  155.4872 H   0  0  0  0  0  0  0  0  0  0  0  0
  152.7517  139.3316  155.4681 H   0  0  0  0  0  0  0  0  0  0  0  0
  151.3319  138.7713  156.3243 H   0  0  0  0  0  0  0  0  0  0  0  0
  151.0851  138.3986  154.0083 H   0  0  0  0  0  0  0  0  0  0  0  0
  149.0585  139.6002  153.5154 H   0  0  0  0  0  0  0  0  0  0  0  0
  149.0797  138.9255  155.1299 H   0  0  0  0  0  0  0  0  0  0  0  0
  149.7361  141.8372  154.3979 H   0  0  0  0  0  0  0  0  0  0  0  0
  148.3134  141.2690  155.2504 H   0  0  0  0  0  0  0  0  0  0  0  0
  1  2  1  0  0  0  0
  1 16  1  0  0  0  0
  1 17  1  0  0  0  0
  1 18  1  0  0  0  0
  2  3  1  0  0  0  0
  2 19  1  0  0  0  0
  2 20  1  0  0  0  0
  3 21  1  0  0  0  0
  3 22  1  0  0  0  0
  3  4  1  0  0  0  0
  4 14  2  0  0  0  0
  4  5  1  0  0  0  0
  5  6  1  0  0  0  0
  5 15  1  0  0  0  0
  6  7  2  0  0  0  0
  7 14  1  0  0  0  0
  7  8  1  0  0  0  0
  8 13  1  0  0  0  0
  8  9  1  0  0  0  0
  8 23  1  0  0  0  0
  9 10  1  0  0  0  0
  9 24  1  0  0  0  0
  9 25  1  0  0  0  0
 10 11  1  0  0  0  0
 10 26  1  0  0  0  0
 11 12  1  0  0  0  0
 11 27  1  0  0  0  0
 11 28  1  0  0  0  0
 12 13  1  0  0  0  0
 12 29  1  0  0  0  0
 12 30  1  0  0  0  0
M  END
> <s_m_source_file>
AV-unprocessed.smi

> <i_m_source_file_index>
2562

> <i_lp_mmshare_version>
43012

> <i_f3d_flags>
0

> <s_epik_input>
W0NIM11bQ0gyXVtDSDJdYzFuW25IXWMobjEpW0NAQEhdMltDSDJdW05IXVtDSDJdW0NIMl1PMg==

> <s_epik_cmdline>
J2VwaWtfcHl0aG9uJywgJy1waCcsICc3LjAnLCAnLXRuJywgJzgnLCAnLW1hJywgJzIwMCcsICctbWV0YWxfYmluZGluZycsICctaW1hZScsICc8aW5maWxlLm1hZT4nLCAnLW9tYWUnLCAnPG91dGZpbGUubWFlPic=

> <r_epik_Ionization_Penalty>
1.10136

> <r_epik_Ionization_Penalty_Charging>
0

> <r_epik_Ionization_Penalty_Neutral>
1.10136

> <r_epik_State_Penalty>
1.43987

> <r_epik_Charging_Adjusted_Penalty>
1.43987

> <i_epik_Tot_Q>
0

> <i_epik_Tot_abs_Q>
0

> <r_epik_Metal_State_Penalty>
1.55976

> <b_epik_Metal_Only>
0

> <s_lp_Force_Field>
OPLS_2005

> <r_lp_Energy>
12.0534

> <b_lp_Chiralities_Consistent>
1

> <s_lp_Variant>
AV-unprocessed.smi:2562-6

> <Gold.Version>
5.8.1

> <Gold.Id.Protein>
6NUR|6NUR_protein|mol2

> <Gold.PLP.Fitness>
35.5031

> <Gold.PLP.PLP>
-29.8871

> <Gold.PLP.part.hbond>
-2.0000

> <Gold.PLP.part.metal>
0.0000

> <Gold.PLP.part.buried>
-4.2709

> <Gold.PLP.part.nonpolar>
-23.1175

> <Gold.PLP.part.repulsive>
0.1672

> <Gold.PLP.ligand.clash>
0.0000

> <Gold.PLP.ligand.torsion>
0.1101

> <Gold.PLP.Chemscore.Hbond>
1.9413

> <Gold.PLP.Chemscore.CHOScore>
0.0000

> <Gold.PLP.Chemscore.Metal>
0.0000

> <Gold.Chemscore.Hbonds>
donor molecule, donor type, donor heavy atom, donor atom, acceptor molecule, acceptor atom, score
      P1  H  7989  7998       L1    10  0.90
      P1  H  7997  8010       L1     6  0.98

> <Gold.PLP.Chemscore.Internal.Correction>
0.0124

> <Gold.Rescore>
     Score         DG    S(hbond)    S(metal)    S(lipo)     H(rot)  DE(clash)    DE(int)     intcor
      9.84     -11.51       0.67        0.00      64.81       1.48       0.25       1.42       ----

> <Gold.Chemscore.Fitness>
9.8408

> <Gold.Chemscore.DG>
-11.5125

> <Gold.Chemscore.ZeroCoef>
-5.4800

> <Gold.Chemscore.Hbond>
0.6679

> <Gold.Chemscore.Metal>
0.0000

> <Gold.Chemscore.Lipo>
64.8086

> <Gold.Chemscore.Internal_Hbond>
0.0000

> <Gold.Chemscore.DEClash>
0.2477

> <Gold.Chemscore.DEInternal>
1.4239

> <Gold.Chemscore.Rot>
1.4769

> <Gold.Chemscore.Internal.Correction>
   9.000000E+99

> <Gold.Chemscore.Hbonds>
donor molecule, donor type, donor heavy atom, donor atom, acceptor molecule, acceptor atom, score
      P1  H  7989  7998       L1    10  0.07
      P1  H  7997  8010       L1     6  0.27

> <Gold.Chemscore.Hbond.Weighted>
-2.2306

> <Gold.Chemscore.Metal.Weighted>
-0.0000

> <Gold.Chemscore.Lipo.Weighted>
-7.5826

> <Gold.Chemscore.Internal_Hbond.Weighted>
0.0000

> <Gold.Chemscore.DEClash.Weighted>
0.2477

> <Gold.Chemscore.DEInternal.Weighted>
1.4239

> <Gold.Chemscore.Rot.Weighted>
3.7808

> <Gold.Chemscore.Internal.Correction.Weighted>
   9.000000E+99

> <Gold.Protein.RotatedTorsions>
[ 6907 6896 6895 6894 ] final -112.94 input  -60.11 | X-H torsion
[ 7974 7965 7964 7962 ] final    8.76 input  175.53 | X-H torsion
[ 8008 7997 7996 7995 ] final   40.81 input   59.86 | X-H torsion
[ 10167 10162 10161 10158 ] final   18.65 input  -65.29 | X-H torsion
[ 10718 10713 10712 10709 ] final -102.48 input   66.30 | X-H torsion
[ 10763 10752 10751 10750 ] final  -57.14 input  -60.55 | X-H torsion
[ 11005 11000 10999 10996 ] final -103.61 input  -57.11 | X-H torsion

> <Gold.Protein.ActiveResidues>
 VAL166  LYS551  ARG553  GLY616  TRP617  ASP618  TYR619  PRO620  LYS621  CYS622 
 ASP623  PHE694  ASN695  SER759  ASP760  ASP761  ALA762  ILE779  LEU786  VAL792 
 PHE793  MET794  SER795  GLU796  ALA797  LYS798  CYS799  TRP800  GLU811  SER814 

> <Gold.Protein.RotatedAtoms>
  150.7793  133.9017  159.3342 H   0  0  0  0  0  0  0  0  0  0  0  0  # atno 6907 bound_to 6896
  151.6884  135.0948  160.0238 H   0  0  0  0  0  0  0  0  0  0  0  0  # atno 6908 bound_to 6896
  152.3840  133.6547  159.6219 H   0  0  0  0  0  0  0  0  0  0  0  0  # atno 6909 bound_to 6896
  146.2412  139.9884  142.8428 H   0  0  0  0  0  0  0  0  0  0  0  0  # atno 7974 bound_to 7965
  155.2592  140.3358  155.4275 H   0  0  0  0  0  0  0  0  0  0  0  0  # atno 8008 bound_to 7997
  156.2182  140.1798  156.7582 H   0  0  0  0  0  0  0  0  0  0  0  0  # atno 8009 bound_to 7997
  154.5785  140.0657  156.9054 H   0  0  0  0  0  0  0  0  0  0  0  0  # atno 8010 bound_to 7997
  140.5637  143.9290  150.6661 H   0  0  0  0  0  0  0  0  0  0  0  0  # atno 10167 bound_to 10162
  156.0230  130.5422  150.7115 H   0  0  0  0  0  0  0  0  0  0  0  0  # atno 10718 bound_to 10713
  154.2177  135.6383  153.5135 H   0  0  0  0  0  0  0  0  0  0  0  0  # atno 10763 bound_to 10752
  152.9976  135.5489  154.6147 H   0  0  0  0  0  0  0  0  0  0  0  0  # atno 10764 bound_to 10752
  154.5600  135.2908  155.0902 H   0  0  0  0  0  0  0  0  0  0  0  0  # atno 10765 bound_to 10752
  141.1138  133.8654  157.1507 H   0  0  0  0  0  0  0  0  0  0  0  0  # atno 11005 bound_to 11000
  145.1526  140.9631  143.4424 LP  0  0  0  0  0  0  0  0  0  0  0  0  # atno 17320 bound_to 7965
  145.0191  139.3440  143.6081 LP  0  0  0  0  0  0  0  0  0  0  0  0  # atno 17321 bound_to 7965
  140.2747  143.3431  152.1206 LP  0  0  0  0  0  0  0  0  0  0  0  0  # atno 17342 bound_to 10162
  139.5082  144.6846  151.5919 LP  0  0  0  0  0  0  0  0  0  0  0  0  # atno 17343 bound_to 10162
  157.4752  131.0897  151.0598 LP  0  0  0  0  0  0  0  0  0  0  0  0  # atno 17370 bound_to 10713
  157.1047  130.5996  149.5468 LP  0  0  0  0  0  0  0  0  0  0  0  0  # atno 17371 bound_to 10713
  140.0047  135.0013  157.0267 LP  0  0  0  0  0  0  0  0  0  0  0  0  # atno 17394 bound_to 11000
  140.4702  134.1394  155.7202 LP  0  0  0  0  0  0  0  0  0  0  0  0  # atno 17395 bound_to 11000

$$$$
