AV-unprocessed.smi:1311|AV-procd|sdf|5447|dock2
  -GOLD-   22720 5 13D 1   1.00000     0.00000
 Structure written by MMmdl.
 46 47  0  0  0  0  0  0  0  0  2 V2000
  145.1008  137.6273  152.3263 C   0  0  0  0  0  0  0  0  0  0  0  0
  144.7428  136.4266  151.4359 C   0  0  0  0  0  0  0  0  0  0  0  0
  145.8233  135.3099  151.3745 C   0  0  1  0  0  0  0  0  0  0  0  0
  146.0570  134.7208  152.7968 C   0  0  0  0  0  0  0  0  0  0  0  0
  147.4128  134.2372  153.0352 N   0  0  0  0  0  0  0  0  0  0  0  0
  147.7373  133.2192  153.8491 C   0  0  0  0  0  0  0  0  0  0  0  0
  146.9037  132.5792  154.4886 O   0  0  0  0  0  0  0  0  0  0  0  0
  149.2259  132.8891  153.9933 C   0  0  0  0  0  0  0  0  0  0  0  0
  149.6304  132.8295  155.4459 C   0  0  0  0  0  0  0  0  0  0  0  0
  150.2140  131.7377  156.1518 C   0  0  0  0  0  0  0  0  0  0  0  0
  150.5735  130.3723  155.6404 C   0  0  0  0  0  0  0  0  0  0  0  0
  150.4429  132.0364  157.4195 N   0  0  0  0  0  0  0  0  0  0  0  0
  150.0095  133.3549  157.5880 O   0  0  0  0  0  0  0  0  0  0  0  0
  149.5283  133.8035  156.4012 C   0  0  0  0  0  0  0  0  0  0  0  0
  149.0181  135.2049  156.3718 C   0  0  0  0  0  0  0  0  0  0  0  0
  145.4564  134.2322  150.3962 N   0  3  0  0  0  0  0  0  0  0  0  0
  146.3421  133.0467  150.3505 C   0  0  0  0  0  0  0  0  0  0  0  0
  145.5346  131.9728  149.6326 C   0  0  0  0  0  0  0  0  0  0  0  0
  144.1215  132.2056  150.1497 C   0  0  0  0  0  0  0  0  0  0  0  0
  144.0724  133.6987  150.5006 C   0  0  0  0  0  0  0  0  0  0  0  0
  144.3853  138.4366  152.1799 H   0  0  0  0  0  0  0  0  0  0  0  0
  146.0906  138.0167  152.0861 H   0  0  0  0  0  0  0  0  0  0  0  0
  145.0809  137.3780  153.3866 H   0  0  0  0  0  0  0  0  0  0  0  0
  143.7879  136.0074  151.7560 H   0  0  0  0  0  0  0  0  0  0  0  0
  144.5736  136.8445  150.4444 H   0  0  0  0  0  0  0  0  0  0  0  0
  146.7434  135.7782  151.0216 H   0  0  0  0  0  0  0  0  0  0  0  0
  145.8415  135.4545  153.5724 H   0  0  0  0  0  0  0  0  0  0  0  0
  145.3670  133.8946  152.9716 H   0  0  0  0  0  0  0  0  0  0  0  0
  148.1600  134.6992  152.5370 H   0  0  0  0  0  0  0  0  0  0  0  0
  149.4163  131.9422  153.4874 H   0  0  0  0  0  0  0  0  0  0  0  0
  149.8101  133.6382  153.4572 H   0  0  0  0  0  0  0  0  0  0  0  0
  150.6850  130.3708  154.5562 H   0  0  0  0  0  0  0  0  0  0  0  0
  149.8027  129.6450  155.8960 H   0  0  0  0  0  0  0  0  0  0  0  0
  151.5151  130.0239  156.0661 H   0  0  0  0  0  0  0  0  0  0  0  0
  148.1108  135.2758  155.7718 H   0  0  0  0  0  0  0  0  0  0  0  0
  149.7616  135.8757  155.9418 H   0  0  0  0  0  0  0  0  0  0  0  0
  148.7841  135.5582  157.3763 H   0  0  0  0  0  0  0  0  0  0  0  0
  147.2809  133.2533  149.8357 H   0  0  0  0  0  0  0  0  0  0  0  0
  146.5675  132.7151  151.3657 H   0  0  0  0  0  0  0  0  0  0  0  0
  145.5688  132.1406  148.5552 H   0  0  0  0  0  0  0  0  0  0  0  0
  145.8989  130.9639  149.8293 H   0  0  0  0  0  0  0  0  0  0  0  0
  143.3622  131.9214  149.4202 H   0  0  0  0  0  0  0  0  0  0  0  0
  143.9548  131.6108  151.0487 H   0  0  0  0  0  0  0  0  0  0  0  0
  143.6729  133.8166  151.5086 H   0  0  0  0  0  0  0  0  0  0  0  0
  143.4199  134.2394  149.8145 H   0  0  0  0  0  0  0  0  0  0  0  0
  145.5271  134.6440  149.4766 H   0  0  0  0  0  0  0  0  0  0  0  0
  1  2  1  0  0  0  0
  1 21  1  0  0  0  0
  1 22  1  0  0  0  0
  1 23  1  0  0  0  0
  2  3  1  0  0  0  0
  2 24  1  0  0  0  0
  2 25  1  0  0  0  0
  3  4  1  0  0  0  0
  3 16  1  0  0  0  0
  3 26  1  0  0  0  0
  4  5  1  0  0  0  0
  4 27  1  0  0  0  0
  4 28  1  0  0  0  0
  5  6  1  0  0  0  0
  5 29  1  0  0  0  0
  6  7  2  0  0  0  0
  6  8  1  0  0  0  0
  8  9  1  0  0  0  0
  8 30  1  0  0  0  0
  8 31  1  0  0  0  0
  9 14  2  0  0  0  0
  9 10  1  0  0  0  0
 10 11  1  0  0  0  0
 10 12  2  0  0  0  0
 11 32  1  0  0  0  0
 11 33  1  0  0  0  0
 11 34  1  0  0  0  0
 12 13  1  0  0  0  0
 13 14  1  0  0  0  0
 14 15  1  0  0  0  0
 15 35  1  0  0  0  0
 15 36  1  0  0  0  0
 15 37  1  0  0  0  0
 16 20  1  0  0  0  0
 16 17  1  0  0  0  0
 16 46  1  0  0  0  0
 17 18  1  0  0  0  0
 17 38  1  0  0  0  0
 17 39  1  0  0  0  0
 18 19  1  0  0  0  0
 18 40  1  0  0  0  0
 18 41  1  0  0  0  0
 19 20  1  0  0  0  0
 19 42  1  0  0  0  0
 19 43  1  0  0  0  0
 20 44  1  0  0  0  0
 20 45  1  0  0  0  0
M  CHG  1  16   1
M  END
> <s_m_source_file>
AV-unprocessed.smi

> <i_m_source_file_index>
1311

> <i_lp_mmshare_version>
43012

> <i_f3d_flags>
0

> <s_epik_input>
W0NIMl0xW0NIMl1bQ0gyXVtDSDJdTjFbQ0BIXShbQ0gyXVtDSDNdKVtDSDJdW05IXUMoPU8pW0NIMl1jMmMoW0NIM10pbm9jMltDSDNd

> <s_epik_cmdline>
J2VwaWtfcHl0aG9uJywgJy1waCcsICc3LjAnLCAnLXRuJywgJzgnLCAnLW1hJywgJzIwMCcsICctbWV0YWxfYmluZGluZycsICctaW1hZScsICc8aW5maWxlLm1hZT4nLCAnLW9tYWUnLCAnPG91dGZpbGUubWFlPic=

> <r_epik_Ionization_Penalty>
0.00366311

> <r_epik_Ionization_Penalty_Charging>
0.00366302

> <r_epik_Ionization_Penalty_Neutral>
9.25085e-08

> <r_epik_State_Penalty>
0.00260703

> <r_epik_Charging_Adjusted_Penalty>
0.00627005

> <i_epik_Tot_Q>
1

> <i_epik_Tot_abs_Q>
1

> <r_epik_Metal_State_Penalty>
-0

> <b_epik_Metal_Only>
0

> <s_lp_Force_Field>
OPLS_2005

> <r_lp_Energy>
34.8572

> <b_lp_Chiralities_Consistent>
1

> <s_lp_Variant>
AV-unprocessed.smi:1311-2

> <Gold.Version>
5.8.1

> <Gold.Id.Protein>
6NUR|6NUR_protein|mol2

> <Gold.PLP.Fitness>
43.0621

> <Gold.PLP.PLP>
-35.4132

> <Gold.PLP.part.hbond>
-3.0000

> <Gold.PLP.part.metal>
0.0000

> <Gold.PLP.part.buried>
-3.3475

> <Gold.PLP.part.nonpolar>
-29.1757

> <Gold.PLP.part.repulsive>
0.1073

> <Gold.PLP.ligand.clash>
0.0000

> <Gold.PLP.ligand.torsion>
0.7384

> <Gold.PLP.Chemscore.Hbond>
2.9913

> <Gold.PLP.Chemscore.CHOScore>
0.0000

> <Gold.PLP.Chemscore.Metal>
0.0000

> <Gold.Chemscore.Hbonds>
donor molecule, donor type, donor heavy atom, donor atom, acceptor molecule, acceptor atom, score
      L1  H     5    29       P1  7948  1.00
      L1  H    16    46       P1  7921  1.00
      P1  H  6896  6907       L1    13  0.40

> <Gold.PLP.Chemscore.Internal.Correction>
0.1520

> <Gold.Rescore>
     Score         DG    S(hbond)    S(metal)    S(lipo)     H(rot)  DE(clash)    DE(int)     intcor
     16.42     -17.26       1.80        0.00      88.58       1.80       0.05       0.78       ----

> <Gold.Chemscore.Fitness>
16.4170

> <Gold.Chemscore.DG>
-17.2552

> <Gold.Chemscore.ZeroCoef>
-5.4800

> <Gold.Chemscore.Hbond>
1.8024

> <Gold.Chemscore.Metal>
0.0000

> <Gold.Chemscore.Lipo>
88.5840

> <Gold.Chemscore.Internal_Hbond>
0.0000

> <Gold.Chemscore.DEClash>
0.0546

> <Gold.Chemscore.DEInternal>
0.7836

> <Gold.Chemscore.Rot>
1.8004

> <Gold.Chemscore.Internal.Correction>
   9.000000E+99

> <Gold.Chemscore.Hbonds>
donor molecule, donor type, donor heavy atom, donor atom, acceptor molecule, acceptor atom, score
      L1  H     5    29       P1  7948  0.48
      L1  H    16    46       P1  7921  0.95
      P1  H  6896  6907       L1    13  0.01

> <Gold.Chemscore.Hbond.Weighted>
-6.0199

> <Gold.Chemscore.Metal.Weighted>
-0.0000

> <Gold.Chemscore.Lipo.Weighted>
-10.3643

> <Gold.Chemscore.Internal_Hbond.Weighted>
0.0000

> <Gold.Chemscore.DEClash.Weighted>
0.0546

> <Gold.Chemscore.DEInternal.Weighted>
0.7836

> <Gold.Chemscore.Rot.Weighted>
4.6090

> <Gold.Chemscore.Internal.Correction.Weighted>
   9.000000E+99

> <Gold.Protein.RotatedTorsions>
[ 6907 6896 6895 6894 ] final -148.93 input  -60.11 | X-H torsion
[ 7974 7965 7964 7962 ] final  -13.09 input  175.53 | X-H torsion
[ 8008 7997 7996 7995 ] final   18.42 input   59.86 | X-H torsion
[ 10167 10162 10161 10158 ] final   98.23 input  -65.29 | X-H torsion
[ 10718 10713 10712 10709 ] final  115.43 input   66.30 | X-H torsion
[ 10763 10752 10751 10750 ] final  -96.52 input  -60.55 | X-H torsion
[ 11005 11000 10999 10996 ] final  -50.66 input  -57.11 | X-H torsion

> <Gold.Protein.ActiveResidues>
 VAL166  LYS551  ARG553  GLY616  TRP617  ASP618  TYR619  PRO620  LYS621  CYS622 
 ASP623  PHE694  ASN695  SER759  ASP760  ASP761  ALA762  ILE779  LEU786  VAL792 
 PHE793  MET794  SER795  GLU796  ALA797  LYS798  CYS799  TRP800  GLU811  SER814 

> <Gold.Protein.RotatedAtoms>
  151.1769  133.4749  159.2593 H   0  0  0  0  0  0  0  0  0  0  0  0  # atno 6907 bound_to 6896
  151.1298  135.0124  159.8587 H   0  0  0  0  0  0  0  0  0  0  0  0  # atno 6908 bound_to 6896
  152.5459  134.1673  159.8635 H   0  0  0  0  0  0  0  0  0  0  0  0  # atno 6909 bound_to 6896
  146.2127  140.3152  142.8386 H   0  0  0  0  0  0  0  0  0  0  0  0  # atno 7974 bound_to 7965
  154.9057  140.3007  155.5293 H   0  0  0  0  0  0  0  0  0  0  0  0  # atno 8008 bound_to 7997
  156.3017  140.2398  156.4026 H   0  0  0  0  0  0  0  0  0  0  0  0  # atno 8009 bound_to 7997
  154.8476  140.0411  157.1571 H   0  0  0  0  0  0  0  0  0  0  0  0  # atno 8010 bound_to 7997
  139.7727  144.6916  151.0132 H   0  0  0  0  0  0  0  0  0  0  0  0  # atno 10167 bound_to 10162
  157.6222  131.1012  150.7329 H   0  0  0  0  0  0  0  0  0  0  0  0  # atno 10718 bound_to 10713
  154.7247  135.5080  153.8867 H   0  0  0  0  0  0  0  0  0  0  0  0  # atno 10763 bound_to 10752
  153.0894  135.6655  153.9893 H   0  0  0  0  0  0  0  0  0  0  0  0  # atno 10764 bound_to 10752
  153.9708  135.3038  155.3407 H   0  0  0  0  0  0  0  0  0  0  0  0  # atno 10765 bound_to 10752
  141.0828  133.6649  156.3763 H   0  0  0  0  0  0  0  0  0  0  0  0  # atno 11005 bound_to 11000
  144.8959  140.7582  143.5897 LP  0  0  0  0  0  0  0  0  0  0  0  0  # atno 17320 bound_to 7965
  145.3077  139.1829  143.4656 LP  0  0  0  0  0  0  0  0  0  0  0  0  # atno 17321 bound_to 7965
  140.7815  143.4570  151.0332 LP  0  0  0  0  0  0  0  0  0  0  0  0  # atno 17342 bound_to 10162
  139.8253  143.7764  152.3178 LP  0  0  0  0  0  0  0  0  0  0  0  0  # atno 17343 bound_to 10162
  156.7684  130.4821  149.5423 LP  0  0  0  0  0  0  0  0  0  0  0  0  # atno 17370 bound_to 10713
  156.1374  130.6220  151.0419 LP  0  0  0  0  0  0  0  0  0  0  0  0  # atno 17371 bound_to 10713
  140.5430  134.6101  157.5385 LP  0  0  0  0  0  0  0  0  0  0  0  0  # atno 17394 bound_to 11000
  139.9643  134.7399  156.0171 LP  0  0  0  0  0  0  0  0  0  0  0  0  # atno 17395 bound_to 11000

$$$$
