AV-unprocessed.smi:3250|AV-procd|sdf|12432|dock9
  -GOLD-   2272018323D 1   1.00000     0.00000
 Structure written by MMmdl.
 40 41  0  0  0  0  0  0  0  0  3 V2000
  146.1381  141.5127  155.1481 C   0  0  0  0  0  0  0  0  0  0  0  0
  146.9822  140.2908  154.7602 C   0  0  0  0  0  0  0  0  0  0  0  0
  148.1455  140.6524  153.9068 N   0  3  2  0  0  0  0  0  0  0  0  0
  148.8784  139.4958  153.3315 C   0  0  0  0  0  0  0  0  0  0  0  0
  149.8021  138.8375  154.3739 C   0  0  0  0  0  0  0  0  0  0  0  0
  150.6779  139.8142  154.9243 O   0  0  0  0  0  0  0  0  0  0  0  0
  149.9787  140.8592  155.5929 C   0  0  1  0  0  0  0  0  0  0  0  0
  151.0157  141.8059  156.2213 C   0  0  0  0  0  0  0  0  0  0  0  0
  150.3961  142.9244  156.9202 N   0  0  0  0  0  0  0  0  0  0  0  0
  150.7602  143.3522  158.1850 C   0  0  0  0  0  0  0  0  0  0  0  0
  150.1049  144.4033  158.6987 N   0  3  0  0  0  0  0  0  0  0  0  0
  150.4321  144.8646  159.9312 C   0  0  0  0  0  0  0  0  0  0  0  0
  151.4569  144.2483  160.6719 C   0  0  0  0  0  0  0  0  0  0  0  0
  152.1027  143.1533  160.0758 C   0  0  0  0  0  0  0  0  0  0  0  0
  153.1210  142.5110  160.7497 O   0  0  0  0  0  0  0  0  0  0  0  0
  153.0861  142.4978  162.1731 C   0  0  0  0  0  0  0  0  0  0  0  0
  151.7435  142.7220  158.8438 N   0  0  0  0  0  0  0  0  0  0  0  0
  149.0920  141.5886  154.5622 C   0  0  0  0  0  0  0  0  0  0  0  0
  145.3537  141.2283  155.8497 H   0  0  0  0  0  0  0  0  0  0  0  0
  145.6493  141.9640  154.2853 H   0  0  0  0  0  0  0  0  0  0  0  0
  146.7482  142.2777  155.6292 H   0  0  0  0  0  0  0  0  0  0  0  0
  147.3464  139.8365  155.6825 H   0  0  0  0  0  0  0  0  0  0  0  0
  146.3596  139.5390  154.2754 H   0  0  0  0  0  0  0  0  0  0  0  0
  148.1940  138.7626  152.9067 H   0  0  0  0  0  0  0  0  0  0  0  0
  149.4842  139.8600  152.5005 H   0  0  0  0  0  0  0  0  0  0  0  0
  149.2302  138.3547  155.1673 H   0  0  0  0  0  0  0  0  0  0  0  0
  150.3999  138.0580  153.9014 H   0  0  0  0  0  0  0  0  0  0  0  0
  149.3493  140.4357  156.3767 H   0  0  0  0  0  0  0  0  0  0  0  0
  151.6466  141.2592  156.9226 H   0  0  0  0  0  0  0  0  0  0  0  0
  151.6807  142.1993  155.4514 H   0  0  0  0  0  0  0  0  0  0  0  0
  149.7085  143.4721  156.4231 H   0  0  0  0  0  0  0  0  0  0  0  0
  149.8640  145.7134  160.2830 H   0  0  0  0  0  0  0  0  0  0  0  0
  151.7346  144.6016  161.6543 H   0  0  0  0  0  0  0  0  0  0  0  0
  153.9491  141.9491  162.5500 H   0  0  0  0  0  0  0  0  0  0  0  0
  152.1892  142.0016  162.5472 H   0  0  0  0  0  0  0  0  0  0  0  0
  153.1325  143.5081  162.5820 H   0  0  0  0  0  0  0  0  0  0  0  0
  149.7204  142.0360  153.7906 H   0  0  0  0  0  0  0  0  0  0  0  0
  148.5499  142.4122  155.0288 H   0  0  0  0  0  0  0  0  0  0  0  0
  147.7505  141.1598  153.1273 H   0  0  0  0  0  0  0  0  0  0  0  0
  149.3600  144.8637  158.1746 H   0  0  0  0  0  0  0  0  0  0  0  0
  1  2  1  0  0  0  0
  1 19  1  0  0  0  0
  1 20  1  0  0  0  0
  1 21  1  0  0  0  0
  2  3  1  0  0  0  0
  2 22  1  0  0  0  0
  2 23  1  0  0  0  0
  3 18  1  0  0  0  0
  3  4  1  0  0  0  0
  3 39  1  0  0  0  0
  4  5  1  0  0  0  0
  4 24  1  0  0  0  0
  4 25  1  0  0  0  0
  5  6  1  0  0  0  0
  5 26  1  0  0  0  0
  5 27  1  0  0  0  0
  6  7  1  0  0  0  0
  7  8  1  0  0  0  0
  7 18  1  0  0  0  0
  7 28  1  0  0  0  0
  8  9  1  0  0  0  0
  8 29  1  0  0  0  0
  8 30  1  0  0  0  0
  9 10  1  0  0  0  0
  9 31  1  0  0  0  0
 10 17  1  0  0  0  0
 10 11  2  0  0  0  0
 11 12  1  0  0  0  0
 11 40  1  0  0  0  0
 12 13  2  0  0  0  0
 12 32  1  0  0  0  0
 13 14  1  0  0  0  0
 13 33  1  0  0  0  0
 14 15  1  0  0  0  0
 14 17  2  0  0  0  0
 15 16  1  0  0  0  0
 16 34  1  0  0  0  0
 16 35  1  0  0  0  0
 16 36  1  0  0  0  0
 18 37  1  0  0  0  0
 18 38  1  0  0  0  0
M  CHG  1   3   1
M  CHG  1  11   1
M  END
> <s_m_source_file>
AV-unprocessed.smi

> <i_m_source_file_index>
3250

> <i_lp_mmshare_version>
43012

> <i_f3d_flags>
0

> <s_epik_input>
W0NIM11bQ0gyXU4xW0NIMl1bQ0gyXU9bQ0BIXShbQ0gyXTEpW0NIMl1bTkhdYzJuW2NIXVtjSF1jKG4yKU9bQ0gzXQ==

> <s_epik_cmdline>
J2VwaWtfcHl0aG9uJywgJy1waCcsICc3LjAnLCAnLXRuJywgJzgnLCAnLW1hJywgJzIwMCcsICctbWV0YWxfYmluZGluZycsICctaW1hZScsICc8aW5maWxlLm1hZT4nLCAnLW9tYWUnLCAnPG91dGZpbGUubWFlPic=

> <r_lp_tautomer_probability>
0.999985

> <r_epik_Ionization_Penalty>
2.24691

> <r_epik_Ionization_Penalty_Charging>
2.24686

> <r_epik_Ionization_Penalty_Neutral>
4.52111e-05

> <r_epik_State_Penalty>
2.24709

> <r_epik_Charging_Adjusted_Penalty>
4.49395

> <i_epik_Tot_Q>
2

> <i_epik_Tot_abs_Q>
2

> <r_epik_Metal_State_Penalty>
2.26327

> <b_epik_Metal_Only>
0

> <s_lp_Force_Field>
OPLS_2005

> <r_lp_Energy>
19.5656

> <b_lp_Chiralities_Consistent>
1

> <s_lp_Variant>
AV-unprocessed.smi:3250-8

> <Gold.Version>
5.8.1

> <Gold.Id.Protein>
6NUR|6NUR_protein|mol2

> <Gold.PLP.Fitness>
48.0091

> <Gold.PLP.PLP>
-33.9363

> <Gold.PLP.part.hbond>
-4.0649

> <Gold.PLP.part.metal>
0.0000

> <Gold.PLP.part.buried>
-2.6236

> <Gold.PLP.part.nonpolar>
-28.7621

> <Gold.PLP.part.repulsive>
0.3563

> <Gold.PLP.ligand.clash>
0.0000

> <Gold.PLP.ligand.torsion>
0.4741

> <Gold.PLP.Chemscore.Hbond>
5.0000

> <Gold.PLP.Chemscore.CHOScore>
0.0000

> <Gold.PLP.Chemscore.Metal>
0.0000

> <Gold.Chemscore.Hbonds>
donor molecule, donor type, donor heavy atom, donor atom, acceptor molecule, acceptor atom, score
      L1  H     9    31       P1  8028  2.00
      L1  H    11    40       P1  8029  2.00
      P1  H  7989  7998       L1     6  1.00

> <Gold.PLP.Chemscore.Internal.Correction>
0.0211

> <Gold.Rescore>
     Score         DG    S(hbond)    S(metal)    S(lipo)     H(rot)  DE(clash)    DE(int)     intcor
     15.48     -17.42       2.33        0.00      74.01       1.75       1.49       0.45       ----

> <Gold.Chemscore.Fitness>
15.4829

> <Gold.Chemscore.DG>
-17.4229

> <Gold.Chemscore.ZeroCoef>
-5.4800

> <Gold.Chemscore.Hbond>
2.3269

> <Gold.Chemscore.Metal>
0.0000

> <Gold.Chemscore.Lipo>
74.0060

> <Gold.Chemscore.Internal_Hbond>
0.0000

> <Gold.Chemscore.DEClash>
1.4902

> <Gold.Chemscore.DEInternal>
0.4497

> <Gold.Chemscore.Rot>
1.7530

> <Gold.Chemscore.Internal.Correction>
   9.000000E+99

> <Gold.Chemscore.Hbonds>
donor molecule, donor type, donor heavy atom, donor atom, acceptor molecule, acceptor atom, score
      L1  H     9    31       P1  8028  1.00
      L1  H    11    40       P1  8029  0.28
      P1  H  7989  7998       L1     6  0.20

> <Gold.Chemscore.Hbond.Weighted>
-7.7718

> <Gold.Chemscore.Metal.Weighted>
-0.0000

> <Gold.Chemscore.Lipo.Weighted>
-8.6587

> <Gold.Chemscore.Internal_Hbond.Weighted>
0.0000

> <Gold.Chemscore.DEClash.Weighted>
1.4902

> <Gold.Chemscore.DEInternal.Weighted>
0.4497

> <Gold.Chemscore.Rot.Weighted>
4.4876

> <Gold.Chemscore.Internal.Correction.Weighted>
   9.000000E+99

> <Gold.Protein.RotatedTorsions>
[ 6907 6896 6895 6894 ] final  114.91 input  -60.11 | X-H torsion
[ 7974 7965 7964 7962 ] final -133.66 input  175.53 | X-H torsion
[ 8008 7997 7996 7995 ] final -161.27 input   59.86 | X-H torsion
[ 10167 10162 10161 10158 ] final -169.58 input  -65.29 | X-H torsion
[ 10718 10713 10712 10709 ] final -145.84 input   66.30 | X-H torsion
[ 10763 10752 10751 10750 ] final   88.70 input  -60.55 | X-H torsion
[ 11005 11000 10999 10996 ] final   20.74 input  -57.11 | X-H torsion

> <Gold.Protein.ActiveResidues>
 VAL166  LYS551  ARG553  GLY616  TRP617  ASP618  TYR619  PRO620  LYS621  CYS622 
 ASP623  PHE694  ASN695  SER759  ASP760  ASP761  ALA762  ILE779  LEU786  VAL792 
 PHE793  MET794  SER795  GLU796  ALA797  LYS798  CYS799  TRP800  GLU811  SER814 

> <Gold.Protein.RotatedAtoms>
  152.4774  133.8171  159.7033 H   0  0  0  0  0  0  0  0  0  0  0  0  # atno 6907 bound_to 6896
  150.8800  133.7376  159.2941 H   0  0  0  0  0  0  0  0  0  0  0  0  # atno 6908 bound_to 6896
  151.4883  135.1059  159.9848 H   0  0  0  0  0  0  0  0  0  0  0  0  # atno 6909 bound_to 6896
  144.9173  140.6970  143.4987 H   0  0  0  0  0  0  0  0  0  0  0  0  # atno 7974 bound_to 7965
  155.7897  140.0876  157.2015 H   0  0  0  0  0  0  0  0  0  0  0  0  # atno 8008 bound_to 7997
  154.3986  140.1492  156.3207 H   0  0  0  0  0  0  0  0  0  0  0  0  # atno 8009 bound_to 7997
  155.8571  140.3432  155.5734 H   0  0  0  0  0  0  0  0  0  0  0  0  # atno 8010 bound_to 7997
  139.5914  144.1205  152.1639 H   0  0  0  0  0  0  0  0  0  0  0  0  # atno 10167 bound_to 10162
  156.3875  130.7868  151.2067 H   0  0  0  0  0  0  0  0  0  0  0  0  # atno 10718 bound_to 10713
  153.1795  135.4497  155.0009 H   0  0  0  0  0  0  0  0  0  0  0  0  # atno 10763 bound_to 10752
  154.8020  135.3259  154.7527 H   0  0  0  0  0  0  0  0  0  0  0  0  # atno 10764 bound_to 10752
  153.7993  135.6964  153.4913 H   0  0  0  0  0  0  0  0  0  0  0  0  # atno 10765 bound_to 10752
  140.3992  134.1736  155.7663 H   0  0  0  0  0  0  0  0  0  0  0  0  # atno 11005 bound_to 11000
  145.3354  139.1747  143.4514 LP  0  0  0  0  0  0  0  0  0  0  0  0  # atno 17320 bound_to 7965
  146.3188  140.3389  142.8646 LP  0  0  0  0  0  0  0  0  0  0  0  0  # atno 17321 bound_to 7965
  140.0780  144.5724  150.7143 LP  0  0  0  0  0  0  0  0  0  0  0  0  # atno 17342 bound_to 10162
  140.7176  143.2559  151.4383 LP  0  0  0  0  0  0  0  0  0  0  0  0  # atno 17343 bound_to 10162
  157.7497  131.0325  150.4232 LP  0  0  0  0  0  0  0  0  0  0  0  0  # atno 17370 bound_to 10713
  156.4487  130.4007  149.6650 LP  0  0  0  0  0  0  0  0  0  0  0  0  # atno 17371 bound_to 10713
  141.1863  133.8306  157.1074 LP  0  0  0  0  0  0  0  0  0  0  0  0  # atno 17394 bound_to 11000
  140.0349  134.9883  157.0851 LP  0  0  0  0  0  0  0  0  0  0  0  0  # atno 17395 bound_to 11000

$$$$
