AV-unprocessed.smi:3290|AV-procd|sdf|12617|dock6
  -GOLD-   2272018553D 1   1.00000     0.00000
 Structure written by MMmdl.
 43 44  0  0  0  0  0  0  0  0  2 V2000
  147.8432  138.1410  155.5206 C   0  0  0  0  0  0  0  0  0  0  0  0
  148.4483  138.6244  154.1868 C   0  0  2  0  0  0  0  0  0  0  0  0
  149.5631  139.6679  154.4127 C   0  0  0  0  0  0  0  0  0  0  0  0
  149.0069  141.0329  154.8521 C   0  0  0  0  0  0  0  0  0  0  0  0
  147.9629  141.5552  153.8544 C   0  0  0  0  0  0  0  0  0  0  0  0
  146.8404  140.5307  153.6257 C   0  0  0  0  0  0  0  0  0  0  0  0
  147.4039  139.1639  153.1729 C   0  0  2  0  0  0  0  0  0  0  0  0
  146.2904  138.1423  152.8659 C   0  0  0  0  0  0  0  0  0  0  0  0
  146.6022  137.3462  151.6628 N   0  3  0  0  0  0  0  0  0  0  0  0
  145.5809  136.3337  151.3270 C   0  0  0  0  0  0  0  0  0  0  0  0
  145.7813  135.0399  152.1367 C   0  0  1  0  0  0  0  0  0  0  0  0
  145.1162  135.1854  153.3741 O   0  0  0  0  0  0  0  0  0  0  0  0
  145.3089  133.8101  151.3750 C   0  0  0  0  0  0  0  0  0  0  0  0
  146.2196  132.8093  150.9731 C   0  0  0  0  0  0  0  0  0  0  0  0
  145.7239  131.6838  150.2853 C   0  0  0  0  0  0  0  0  0  0  0  0
  144.4173  131.5110  149.9926 N   0  0  0  0  0  0  0  0  0  0  0  0
  143.5506  132.4713  150.3787 C   0  0  0  0  0  0  0  0  0  0  0  0
  143.9425  133.6345  151.0711 C   0  0  0  0  0  0  0  0  0  0  0  0
  147.2925  138.9288  156.0334 H   0  0  0  0  0  0  0  0  0  0  0  0
  148.6243  137.7955  156.1983 H   0  0  0  0  0  0  0  0  0  0  0  0
  147.1616  137.3039  155.3716 H   0  0  0  0  0  0  0  0  0  0  0  0
  148.9221  137.7521  153.7343 H   0  0  0  0  0  0  0  0  0  0  0  0
  150.2798  139.3034  155.1498 H   0  0  0  0  0  0  0  0  0  0  0  0
  150.1257  139.7967  153.4871 H   0  0  0  0  0  0  0  0  0  0  0  0
  148.5602  140.9522  155.8434 H   0  0  0  0  0  0  0  0  0  0  0  0
  149.8220  141.7515  154.9434 H   0  0  0  0  0  0  0  0  0  0  0  0
  147.5420  142.4945  154.2146 H   0  0  0  0  0  0  0  0  0  0  0  0
  148.4490  141.7804  152.9044 H   0  0  0  0  0  0  0  0  0  0  0  0
  146.2565  140.4153  154.5392 H   0  0  0  0  0  0  0  0  0  0  0  0
  146.1528  140.9241  152.8766 H   0  0  0  0  0  0  0  0  0  0  0  0
  147.9431  139.3324  152.2388 H   0  0  0  0  0  0  0  0  0  0  0  0
  146.1688  137.4603  153.7087 H   0  0  0  0  0  0  0  0  0  0  0  0
  145.3355  138.6490  152.7208 H   0  0  0  0  0  0  0  0  0  0  0  0
  146.6895  137.9791  150.8802 H   0  0  0  0  0  0  0  0  0  0  0  0
  144.5950  136.7548  151.5290 H   0  0  0  0  0  0  0  0  0  0  0  0
  145.6231  136.1180  150.2582 H   0  0  0  0  0  0  0  0  0  0  0  0
  146.8422  134.9251  152.3641 H   0  0  0  0  0  0  0  0  0  0  0  0
  144.6427  136.0036  153.3667 H   0  0  0  0  0  0  0  0  0  0  0  0
  147.2751  132.8973  151.1855 H   0  0  0  0  0  0  0  0  0  0  0  0
  146.3946  130.9002  149.9652 H   0  0  0  0  0  0  0  0  0  0  0  0
  142.5123  132.3064  150.1315 H   0  0  0  0  0  0  0  0  0  0  0  0
  143.2065  134.3710  151.3590 H   0  0  0  0  0  0  0  0  0  0  0  0
  147.4875  136.8801  151.8013 H   0  0  0  0  0  0  0  0  0  0  0  0
  1  2  1  0  0  0  0
  1 19  1  0  0  0  0
  1 20  1  0  0  0  0
  1 21  1  0  0  0  0
  2  7  1  0  0  0  0
  2  3  1  0  0  0  0
  2 22  1  0  0  0  0
  3  4  1  0  0  0  0
  3 23  1  0  0  0  0
  3 24  1  0  0  0  0
  4  5  1  0  0  0  0
  4 25  1  0  0  0  0
  4 26  1  0  0  0  0
  5  6  1  0  0  0  0
  5 27  1  0  0  0  0
  5 28  1  0  0  0  0
  6  7  1  0  0  0  0
  6 29  1  0  0  0  0
  6 30  1  0  0  0  0
  7  8  1  0  0  0  0
  7 31  1  0  0  0  0
  8  9  1  0  0  0  0
  8 32  1  0  0  0  0
  8 33  1  0  0  0  0
  9 10  1  0  0  0  0
  9 34  1  0  0  0  0
  9 43  1  0  0  0  0
 10 11  1  0  0  0  0
 10 35  1  0  0  0  0
 10 36  1  0  0  0  0
 11 12  1  0  0  0  0
 11 13  1  0  0  0  0
 11 37  1  0  0  0  0
 12 38  1  0  0  0  0
 13 18  1  0  0  0  0
 13 14  2  0  0  0  0
 14 15  1  0  0  0  0
 14 39  1  0  0  0  0
 15 16  2  0  0  0  0
 15 40  1  0  0  0  0
 16 17  1  0  0  0  0
 17 18  2  0  0  0  0
 17 41  1  0  0  0  0
 18 42  1  0  0  0  0
M  CHG  1   9   1
M  END
> <s_m_source_file>
AV-unprocessed.smi

> <i_m_source_file_index>
3290

> <i_lp_mmshare_version>
43012

> <i_f3d_flags>
0

> <s_epik_input>
W0NIM11bQ0BASF0xW0NIMl1bQ0gyXVtDSDJdW0NIMl1bQ0BIXTFbQ0gyXVtOSF1bQ0gyXVtDQEhdKFtPSF0pYzJbY0hdW2NIXW5bY0hdW2NIXTI=

> <s_epik_cmdline>
J2VwaWtfcHl0aG9uJywgJy1waCcsICc3LjAnLCAnLXRuJywgJzgnLCAnLW1hJywgJzIwMCcsICctbWV0YWxfYmluZGluZycsICctaW1hZScsICc8aW5maWxlLm1hZT4nLCAnLW9tYWUnLCAnPG91dGZpbGUubWFlPic=

> <r_lp_tautomer_probability>
1

> <r_epik_Ionization_Penalty>
0.00420552

> <r_epik_Ionization_Penalty_Charging>
0.00207255

> <r_epik_Ionization_Penalty_Neutral>
0.00213297

> <r_epik_State_Penalty>
-0

> <r_epik_Charging_Adjusted_Penalty>
0.00207255

> <i_epik_Tot_Q>
1

> <i_epik_Tot_abs_Q>
1

> <r_epik_Metal_State_Penalty>
-0

> <b_epik_Metal_Only>
0

> <s_lp_Force_Field>
OPLS_2005

> <r_lp_Energy>
19.3175

> <b_lp_Chiralities_Consistent>
1

> <s_lp_Variant>
AV-unprocessed.smi:3290-7

> <Gold.Version>
5.8.1

> <Gold.Id.Protein>
6NUR|6NUR_protein|mol2

> <Gold.PLP.Fitness>
45.3693

> <Gold.PLP.PLP>
-34.1529

> <Gold.PLP.part.hbond>
-2.0000

> <Gold.PLP.part.metal>
0.0000

> <Gold.PLP.part.buried>
-3.2501

> <Gold.PLP.part.nonpolar>
-30.8797

> <Gold.PLP.part.repulsive>
0.2225

> <Gold.PLP.ligand.clash>
0.0000

> <Gold.PLP.ligand.torsion>
1.0189

> <Gold.PLP.Chemscore.Hbond>
2.2902

> <Gold.PLP.Chemscore.CHOScore>
2.1153

> <Gold.PLP.Chemscore.Metal>
0.0000

> <Gold.Chemscore.Hbonds>
donor molecule, donor type, donor heavy atom, donor atom, acceptor molecule, acceptor atom, score
      L1  H     9    43       P1  7948  2.00
      P1  H 10785 10796       L1    16  0.29
      L1  C    15    40       P1 10747  0.82
      L1  C    17    41       P1 10186  0.54
      L1  C    17    41       P1 10952  0.73

> <Gold.PLP.Chemscore.Internal.Correction>
0.0377

> <Gold.Rescore>
     Score         DG    S(hbond)    S(metal)    S(lipo)     H(rot)  DE(clash)    DE(int)     intcor
     15.61     -16.91       1.57        0.00      97.82       2.05       0.32       0.98       ----

> <Gold.Chemscore.Fitness>
15.6092

> <Gold.Chemscore.DG>
-16.9103

> <Gold.Chemscore.ZeroCoef>
-5.4800

> <Gold.Chemscore.Hbond>
1.5668

> <Gold.Chemscore.Metal>
0.0000

> <Gold.Chemscore.Lipo>
97.8195

> <Gold.Chemscore.Internal_Hbond>
0.0000

> <Gold.Chemscore.DEClash>
0.3230

> <Gold.Chemscore.DEInternal>
0.9782

> <Gold.Chemscore.Rot>
2.0498

> <Gold.Chemscore.Internal.Correction>
   9.000000E+99

> <Gold.Chemscore.Hbonds>
donor molecule, donor type, donor heavy atom, donor atom, acceptor molecule, acceptor atom, score
      L1  H     9    43       P1  7948  0.97
      P1  H 10785 10796       L1    16  0.15

> <Gold.Chemscore.Hbond.Weighted>
-5.2329

> <Gold.Chemscore.Metal.Weighted>
-0.0000

> <Gold.Chemscore.Lipo.Weighted>
-11.4449

> <Gold.Chemscore.Internal_Hbond.Weighted>
0.0000

> <Gold.Chemscore.DEClash.Weighted>
0.3230

> <Gold.Chemscore.DEInternal.Weighted>
0.9782

> <Gold.Chemscore.Rot.Weighted>
5.2475

> <Gold.Chemscore.Internal.Correction.Weighted>
   9.000000E+99

> <Gold.Protein.RotatedTorsions>
[ 6907 6896 6895 6894 ] final -177.07 input  -60.11 | X-H torsion
[ 7974 7965 7964 7962 ] final    9.20 input  175.53 | X-H torsion
[ 8008 7997 7996 7995 ] final -110.58 input   59.86 | X-H torsion
[ 10167 10162 10161 10158 ] final    1.96 input  -65.29 | X-H torsion
[ 10718 10713 10712 10709 ] final   16.66 input   66.30 | X-H torsion
[ 10763 10752 10751 10750 ] final  -28.73 input  -60.55 | X-H torsion
[ 11005 11000 10999 10996 ] final -141.55 input  -57.11 | X-H torsion

> <Gold.Protein.ActiveResidues>
 VAL166  LYS551  ARG553  GLY616  TRP617  ASP618  TYR619  PRO620  LYS621  CYS622 
 ASP623  PHE694  ASN695  SER759  ASP760  ASP761  ALA762  ILE779  LEU786  VAL792 
 PHE793  MET794  SER795  GLU796  ALA797  LYS798  CYS799  TRP800  GLU811  SER814 

> <Gold.Protein.RotatedAtoms>
  151.6150  133.3344  159.3075 H   0  0  0  0  0  0  0  0  0  0  0  0  # atno 6907 bound_to 6896
  150.8136  134.7309  159.6721 H   0  0  0  0  0  0  0  0  0  0  0  0  # atno 6908 bound_to 6896
  152.4232  134.5921  160.0028 H   0  0  0  0  0  0  0  0  0  0  0  0  # atno 6909 bound_to 6896
  146.2406  139.9818  142.8435 H   0  0  0  0  0  0  0  0  0  0  0  0  # atno 7974 bound_to 7965
  154.9767  140.0397  157.2259 H   0  0  0  0  0  0  0  0  0  0  0  0  # atno 8008 bound_to 7997
  154.7751  140.2809  155.6085 H   0  0  0  0  0  0  0  0  0  0  0  0  # atno 8009 bound_to 7997
  156.2927  140.2602  156.2563 H   0  0  0  0  0  0  0  0  0  0  0  0  # atno 8010 bound_to 7997
  140.6658  143.7184  150.7824 H   0  0  0  0  0  0  0  0  0  0  0  0  # atno 10167 bound_to 10162
  157.0710  130.6348  149.5805 H   0  0  0  0  0  0  0  0  0  0  0  0  # atno 10718 bound_to 10713
  153.7530  135.6924  153.4941 H   0  0  0  0  0  0  0  0  0  0  0  0  # atno 10763 bound_to 10752
  153.1990  135.4443  155.0242 H   0  0  0  0  0  0  0  0  0  0  0  0  # atno 10764 bound_to 10752
  154.8180  135.3408  154.7050 H   0  0  0  0  0  0  0  0  0  0  0  0  # atno 10765 bound_to 10752
  140.8313  134.2514  157.4855 H   0  0  0  0  0  0  0  0  0  0  0  0  # atno 11005 bound_to 11000
  145.1584  140.9660  143.4391 LP  0  0  0  0  0  0  0  0  0  0  0  0  # atno 17320 bound_to 7965
  145.0139  139.3485  143.6106 LP  0  0  0  0  0  0  0  0  0  0  0  0  # atno 17321 bound_to 7965
  140.0860  143.4923  152.2504 LP  0  0  0  0  0  0  0  0  0  0  0  0  # atno 17342 bound_to 10162
  139.5906  144.7548  151.3410 LP  0  0  0  0  0  0  0  0  0  0  0  0  # atno 17343 bound_to 10162
  155.9950  130.5016  150.7443 LP  0  0  0  0  0  0  0  0  0  0  0  0  # atno 17370 bound_to 10713
  157.4878  131.0908  151.0462 LP  0  0  0  0  0  0  0  0  0  0  0  0  # atno 17371 bound_to 10713
  139.8705  134.9587  156.4310 LP  0  0  0  0  0  0  0  0  0  0  0  0  # atno 17394 bound_to 11000
  140.8995  133.7790  155.9664 LP  0  0  0  0  0  0  0  0  0  0  0  0  # atno 17395 bound_to 11000

$$$$
