AV-unprocessed.smi:3018|AV-procd|sdf|11481|dock10
  -GOLD-   2272016423D 1   1.00000     0.00000
 Structure written by MMmdl.
 44 45  0  0  0  0  0  0  0  0  2 V2000
  150.6312  141.8634  156.0063 C   0  0  0  0  0  0  0  0  0  0  0  0
  150.1846  141.7041  157.4652 C   0  0  0  0  0  0  0  0  0  0  0  0
  151.3458  141.3173  158.4004 C   0  0  2  0  0  0  0  0  0  0  0  0
  152.2907  142.3853  158.3917 O   0  0  0  0  0  0  0  0  0  0  0  0
  152.9558  142.6476  159.6246 C   0  0  0  0  0  0  0  0  0  0  0  0
  153.5334  141.3370  160.1956 C   0  0  0  0  0  0  0  0  0  0  0  0
  154.1431  141.5551  161.5895 C   0  0  0  0  0  0  0  0  0  0  0  0
  153.1247  142.1810  162.5561 C   0  0  0  0  0  0  0  0  0  0  0  0
  152.5373  143.4815  161.9849 C   0  0  0  0  0  0  0  0  0  0  0  0
  151.9260  143.2522  160.5936 C   0  0  0  0  0  0  0  0  0  0  0  0
  152.0404  140.0234  157.9473 C   0  0  0  0  0  0  0  0  0  0  0  0
  153.2173  140.0387  157.5856 O   0  0  0  0  0  0  0  0  0  0  0  0
  151.3008  138.9067  157.9948 N   0  0  0  0  0  0  0  0  0  0  0  0
  151.7987  137.5638  157.7225 C   0  0  0  0  0  0  0  0  0  0  0  0
  150.6457  136.5886  157.4265 C   0  0  0  0  0  0  0  0  0  0  0  0
  149.5653  136.5941  158.4947 C   0  0  0  0  0  0  0  0  0  0  0  0
  148.6707  137.4813  158.7320 N   0  0  0  0  0  0  0  0  0  0  0  0
  147.9266  136.9614  159.8408 N   0  5  0  0  0  0  0  0  0  0  0  0
  148.4788  135.7667  160.1653 C   0  0  0  0  0  0  0  0  0  0  0  0
  148.1527  134.9871  161.0577 O   0  0  0  0  0  0  0  0  0  0  0  0
  149.4910  135.5240  159.3391 N   0  0  0  0  0  0  0  0  0  0  0  0
  150.0961  134.7166  159.3332 H   0  0  0  0  0  0  0  0  0  0  0  0
  149.7901  142.1403  155.3705 H   0  0  0  0  0  0  0  0  0  0  0  0
  151.0502  140.9349  155.6180 H   0  0  0  0  0  0  0  0  0  0  0  0
  151.3914  142.6391  155.9100 H   0  0  0  0  0  0  0  0  0  0  0  0
  149.7400  142.6433  157.7976 H   0  0  0  0  0  0  0  0  0  0  0  0
  149.3946  140.9538  157.5197 H   0  0  0  0  0  0  0  0  0  0  0  0
  150.9410  141.1715  159.4030 H   0  0  0  0  0  0  0  0  0  0  0  0
  153.7594  143.3733  159.4945 H   0  0  0  0  0  0  0  0  0  0  0  0
  152.7443  140.5865  160.2567 H   0  0  0  0  0  0  0  0  0  0  0  0
  154.2932  140.9306  159.5286 H   0  0  0  0  0  0  0  0  0  0  0  0
  154.5023  140.6071  161.9910 H   0  0  0  0  0  0  0  0  0  0  0  0
  155.0149  142.2039  161.5056 H   0  0  0  0  0  0  0  0  0  0  0  0
  152.3194  141.4710  162.7476 H   0  0  0  0  0  0  0  0  0  0  0  0
  153.5989  142.3790  163.5179 H   0  0  0  0  0  0  0  0  0  0  0  0
  151.7822  143.8790  162.6632 H   0  0  0  0  0  0  0  0  0  0  0  0
  153.3191  144.2381  161.9191 H   0  0  0  0  0  0  0  0  0  0  0  0
  151.5522  144.1957  160.1946 H   0  0  0  0  0  0  0  0  0  0  0  0
  151.0650  142.5879  160.6790 H   0  0  0  0  0  0  0  0  0  0  0  0
  150.3443  138.9849  158.3085 H   0  0  0  0  0  0  0  0  0  0  0  0
  152.4719  137.6098  156.8659 H   0  0  0  0  0  0  0  0  0  0  0  0
  152.3861  137.1983  158.5671 H   0  0  0  0  0  0  0  0  0  0  0  0
  150.2039  136.8247  156.4573 H   0  0  0  0  0  0  0  0  0  0  0  0
  151.0387  135.5752  157.3418 H   0  0  0  0  0  0  0  0  0  0  0  0
  1  2  1  0  0  0  0
  1 23  1  0  0  0  0
  1 24  1  0  0  0  0
  1 25  1  0  0  0  0
  2  3  1  0  0  0  0
  2 26  1  0  0  0  0
  2 27  1  0  0  0  0
  3  4  1  0  0  0  0
  3 11  1  0  0  0  0
  3 28  1  0  0  0  0
  4  5  1  0  0  0  0
  5 10  1  0  0  0  0
  5  6  1  0  0  0  0
  5 29  1  0  0  0  0
  6  7  1  0  0  0  0
  6 30  1  0  0  0  0
  6 31  1  0  0  0  0
  7  8  1  0  0  0  0
  7 32  1  0  0  0  0
  7 33  1  0  0  0  0
  8  9  1  0  0  0  0
  8 34  1  0  0  0  0
  8 35  1  0  0  0  0
  9 10  1  0  0  0  0
  9 36  1  0  0  0  0
  9 37  1  0  0  0  0
 10 38  1  0  0  0  0
 10 39  1  0  0  0  0
 11 12  2  0  0  0  0
 11 13  1  0  0  0  0
 13 14  1  0  0  0  0
 13 40  1  0  0  0  0
 14 15  1  0  0  0  0
 14 41  1  0  0  0  0
 14 42  1  0  0  0  0
 15 16  1  0  0  0  0
 15 43  1  0  0  0  0
 15 44  1  0  0  0  0
 16 21  1  0  0  0  0
 16 17  2  0  0  0  0
 17 18  1  0  0  0  0
 18 19  1  0  0  0  0
 19 20  2  0  0  0  0
 19 21  1  0  0  0  0
 21 22  1  0  0  0  0
M  CHG  1  18  -1
M  END
> <s_m_source_file>
AV-unprocessed.smi

> <i_m_source_file_index>
3018

> <i_lp_mmshare_version>
43012

> <i_f3d_flags>
0

> <s_epik_input>
W0NIMl0xW0NIMl1bQ0gyXVtDSDJdW0NIMl1bQ0hdMU9bQ0BASF0oW0NIMl1bQ0gzXSlDKD1PKVtOSF1bQ0gyXVtDSDJdYzJuW25IXWMoPU8pW25IXTI=

> <s_epik_cmdline>
J2VwaWtfcHl0aG9uJywgJy1waCcsICc3LjAnLCAnLXRuJywgJzgnLCAnLW1hJywgJzIwMCcsICctbWV0YWxfYmluZGluZycsICctaW1hZScsICc8aW5maWxlLm1hZT4nLCAnLW9tYWUnLCAnPG91dGZpbGUubWFlPic=

> <r_lp_tautomer_probability>
1

> <r_epik_Ionization_Penalty>
14.1812

> <r_epik_Ionization_Penalty_Charging>
13.7758

> <r_epik_Ionization_Penalty_Neutral>
0.405355

> <r_epik_State_Penalty>
4.92413

> <r_epik_Charging_Adjusted_Penalty>
18.7

> <i_epik_Tot_Q>
-1

> <i_epik_Tot_abs_Q>
1

> <r_epik_Metal_State_Penalty>
1.32654

> <b_epik_Metal_Only>
1

> <s_lp_Force_Field>
OPLS_2005

> <r_lp_Energy>
19.863

> <b_lp_Chiralities_Consistent>
1

> <s_lp_Variant>
AV-unprocessed.smi:3018-3

> <Gold.Version>
5.8.1

> <Gold.Id.Protein>
6NUR|6NUR_protein|mol2

> <Gold.PLP.Fitness>
49.1762

> <Gold.PLP.PLP>
-41.7192

> <Gold.PLP.part.hbond>
-3.5304

> <Gold.PLP.part.metal>
0.0000

> <Gold.PLP.part.buried>
-4.7075

> <Gold.PLP.part.nonpolar>
-33.3056

> <Gold.PLP.part.repulsive>
0.2954

> <Gold.PLP.ligand.clash>
0.0000

> <Gold.PLP.ligand.torsion>
0.8538

> <Gold.PLP.Chemscore.Hbond>
3.0000

> <Gold.PLP.Chemscore.CHOScore>
0.0000

> <Gold.PLP.Chemscore.Metal>
0.0000

> <Gold.Chemscore.Hbonds>
donor molecule, donor type, donor heavy atom, donor atom, acceptor molecule, acceptor atom, score
      P1  H  7997  8008       L1    12  0.81

> <Gold.PLP.Chemscore.Internal.Correction>
0.1646

> <Gold.Rescore>
     Score         DG    S(hbond)    S(metal)    S(lipo)     H(rot)  DE(clash)    DE(int)     intcor
     13.42     -14.53       1.63        0.00      96.06       2.98       0.05       1.05       ----

> <Gold.Chemscore.Fitness>
13.4198

> <Gold.Chemscore.DG>
-14.5266

> <Gold.Chemscore.ZeroCoef>
-5.4800

> <Gold.Chemscore.Hbond>
1.6256

> <Gold.Chemscore.Metal>
0.0000

> <Gold.Chemscore.Lipo>
96.0586

> <Gold.Chemscore.Internal_Hbond>
0.0000

> <Gold.Chemscore.DEClash>
0.0545

> <Gold.Chemscore.DEInternal>
1.0523

> <Gold.Chemscore.Rot>
2.9772

> <Gold.Chemscore.Internal.Correction>
   9.000000E+99

> <Gold.Chemscore.Hbonds>
donor molecule, donor type, donor heavy atom, donor atom, acceptor molecule, acceptor atom, score
      P1  H  6934  6947       L1    18  0.01
      P1  H  7997  8008       L1    12  0.77

> <Gold.Chemscore.Hbond.Weighted>
-5.4294

> <Gold.Chemscore.Metal.Weighted>
-0.0000

> <Gold.Chemscore.Lipo.Weighted>
-11.2389

> <Gold.Chemscore.Internal_Hbond.Weighted>
0.0000

> <Gold.Chemscore.DEClash.Weighted>
0.0545

> <Gold.Chemscore.DEInternal.Weighted>
1.0523

> <Gold.Chemscore.Rot.Weighted>
7.6216

> <Gold.Chemscore.Internal.Correction.Weighted>
   9.000000E+99

> <Gold.Protein.RotatedTorsions>
[ 6907 6896 6895 6894 ] final -141.68 input  -60.11 | X-H torsion
[ 7974 7965 7964 7962 ] final -128.53 input  175.53 | X-H torsion
[ 8008 7997 7996 7995 ] final  -81.19 input   59.86 | X-H torsion
[ 10167 10162 10161 10158 ] final -174.16 input  -65.29 | X-H torsion
[ 10718 10713 10712 10709 ] final  107.79 input   66.30 | X-H torsion
[ 10763 10752 10751 10750 ] final  -50.76 input  -60.55 | X-H torsion
[ 11005 11000 10999 10996 ] final  -22.39 input  -57.11 | X-H torsion

> <Gold.Protein.ActiveResidues>
 VAL166  LYS551  ARG553  GLY616  TRP617  ASP618  TYR619  PRO620  LYS621  CYS622 
 ASP623  PHE694  ASN695  SER759  ASP760  ASP761  ALA762  ILE779  LEU786  VAL792 
 PHE793  MET794  SER795  GLU796  ALA797  LYS798  CYS799  TRP800  GLU811  SER814 

> <Gold.Protein.RotatedAtoms>
  151.0770  133.5420  159.2622 H   0  0  0  0  0  0  0  0  0  0  0  0  # atno 6907 bound_to 6896
  151.2338  135.0563  159.9008 H   0  0  0  0  0  0  0  0  0  0  0  0  # atno 6908 bound_to 6896
  152.5419  134.0555  159.8182 H   0  0  0  0  0  0  0  0  0  0  0  0  # atno 6909 bound_to 6896
  144.9662  140.7498  143.4699 H   0  0  0  0  0  0  0  0  0  0  0  0  # atno 7974 bound_to 7965
  154.5959  140.0651  156.9302 H   0  0  0  0  0  0  0  0  0  0  0  0  # atno 8008 bound_to 7997
  155.2215  140.3330  155.4296 H   0  0  0  0  0  0  0  0  0  0  0  0  # atno 8009 bound_to 7997
  156.2286  140.1831  156.7283 H   0  0  0  0  0  0  0  0  0  0  0  0  # atno 8010 bound_to 7997
  139.5649  144.1780  152.1296 H   0  0  0  0  0  0  0  0  0  0  0  0  # atno 10167 bound_to 10162
  157.6614  131.0880  150.6208 H   0  0  0  0  0  0  0  0  0  0  0  0  # atno 10718 bound_to 10713
  154.1155  135.6542  153.4893 H   0  0  0  0  0  0  0  0  0  0  0  0  # atno 10763 bound_to 10752
  153.0242  135.5258  154.7149 H   0  0  0  0  0  0  0  0  0  0  0  0  # atno 10764 bound_to 10752
  154.6341  135.2980  155.0151 H   0  0  0  0  0  0  0  0  0  0  0  0  # atno 10765 bound_to 10752
  140.8652  133.7759  156.0121 H   0  0  0  0  0  0  0  0  0  0  0  0  # atno 11005 bound_to 11000
  145.2626  139.1986  143.4884 LP  0  0  0  0  0  0  0  0  0  0  0  0  # atno 17320 bound_to 7965
  146.3368  140.2559  142.8600 LP  0  0  0  0  0  0  0  0  0  0  0  0  # atno 17321 bound_to 7965
  140.1301  144.5296  150.6808 LP  0  0  0  0  0  0  0  0  0  0  0  0  # atno 17342 bound_to 10162
  140.6931  143.2388  151.5075 LP  0  0  0  0  0  0  0  0  0  0  0  0  # atno 17343 bound_to 10162
  156.6511  130.4485  149.5719 LP  0  0  0  0  0  0  0  0  0  0  0  0  # atno 17370 bound_to 10713
  156.2137  130.6694  151.1296 LP  0  0  0  0  0  0  0  0  0  0  0  0  # atno 17371 bound_to 10713
  140.8637  134.2810  157.5223 LP  0  0  0  0  0  0  0  0  0  0  0  0  # atno 17394 bound_to 11000
  139.8709  134.9531  156.4136 LP  0  0  0  0  0  0  0  0  0  0  0  0  # atno 17395 bound_to 11000

$$$$
