AV-unprocessed.smi:2663|AV-procd|sdf|10325|dock6
  -GOLD-   2272014343D 1   1.00000     0.00000
 Structure written by MMmdl.
 38 39  0  0  0  0  0  0  0  0  2 V2000
  149.9305  139.5202  156.6136 C   0  0  0  0  0  0  0  0  0  0  0  0
  151.1106  139.0856  157.5207 C   0  0  2  0  0  0  0  0  0  0  0  0
  152.3107  138.6826  156.6145 C   0  0  0  0  0  0  0  0  0  0  0  0
  152.6343  139.6844  155.6700 O   0  0  0  0  0  0  0  0  0  0  0  0
  150.7150  137.9293  158.3416 N   0  0  0  0  0  0  0  0  0  0  0  0
  149.5161  137.6058  158.8548 C   0  0  0  0  0  0  0  0  0  0  0  0
  148.5335  138.3234  158.6588 O   0  0  0  0  0  0  0  0  0  0  0  0
  149.5327  136.4578  159.5697 N   0  5  0  0  0  0  0  0  0  0  0  0
  148.4904  136.1386  160.3550 C   0  0  0  0  0  0  0  0  0  0  0  0
  147.7905  137.0653  161.0293 N   0  0  0  0  0  0  0  0  0  0  0  0
  146.7580  136.5269  161.7855 N   0  0  0  0  0  0  0  0  0  0  0  0
  146.7112  135.2001  161.6687 C   0  0  0  0  0  0  0  0  0  0  0  0
  147.9253  134.4877  160.6271 S   0  0  0  0  0  0  0  0  0  0  0  0
  151.4916  140.2486  158.5052 C   0  0  0  0  0  0  0  0  0  0  0  0
  151.6402  141.6290  157.8098 C   0  0  0  0  0  0  0  0  0  0  0  0
  151.9577  142.7538  158.8083 C   0  0  0  0  0  0  0  0  0  0  0  0
  153.2221  142.4414  159.6181 C   0  0  0  0  0  0  0  0  0  0  0  0
  153.0876  141.0902  160.3308 C   0  0  0  0  0  0  0  0  0  0  0  0
  152.7739  139.9629  159.3343 C   0  0  0  0  0  0  0  0  0  0  0  0
  150.1214  140.4904  156.1542 H   0  0  0  0  0  0  0  0  0  0  0  0
  148.9929  139.5922  157.1645 H   0  0  0  0  0  0  0  0  0  0  0  0
  149.7603  138.8157  155.7996 H   0  0  0  0  0  0  0  0  0  0  0  0
  153.1984  138.4662  157.2088 H   0  0  0  0  0  0  0  0  0  0  0  0
  152.0953  137.7696  156.0597 H   0  0  0  0  0  0  0  0  0  0  0  0
  151.8351  140.1129  155.4043 H   0  0  0  0  0  0  0  0  0  0  0  0
  151.4622  137.2846  158.5541 H   0  0  0  0  0  0  0  0  0  0  0  0
  145.9597  134.6375  162.2019 H   0  0  0  0  0  0  0  0  0  0  0  0
  150.6776  140.3452  159.2253 H   0  0  0  0  0  0  0  0  0  0  0  0
  152.4257  141.5879  157.0544 H   0  0  0  0  0  0  0  0  0  0  0  0
  150.7243  141.8995  157.2863 H   0  0  0  0  0  0  0  0  0  0  0  0
  152.0824  143.6975  158.2767 H   0  0  0  0  0  0  0  0  0  0  0  0
  151.1136  142.8904  159.4854 H   0  0  0  0  0  0  0  0  0  0  0  0
  154.0884  142.4235  158.9553 H   0  0  0  0  0  0  0  0  0  0  0  0
  153.4039  143.2318  160.3469 H   0  0  0  0  0  0  0  0  0  0  0  0
  154.0075  140.8628  160.8700 H   0  0  0  0  0  0  0  0  0  0  0  0
  152.2960  141.1469  161.0791 H   0  0  0  0  0  0  0  0  0  0  0  0
  152.6726  139.0369  159.8983 H   0  0  0  0  0  0  0  0  0  0  0  0
  153.6304  139.8279  158.6728 H   0  0  0  0  0  0  0  0  0  0  0  0
  1  2  1  0  0  0  0
  1 20  1  0  0  0  0
  1 21  1  0  0  0  0
  1 22  1  0  0  0  0
  2  3  1  0  0  0  0
  2  5  1  0  0  0  0
  2 14  1  0  0  0  0
  3  4  1  0  0  0  0
  3 23  1  0  0  0  0
  3 24  1  0  0  0  0
  4 25  1  0  0  0  0
  5  6  1  0  0  0  0
  5 26  1  0  0  0  0
  6  7  2  0  0  0  0
  6  8  1  0  0  0  0
  8  9  1  0  0  0  0
  9 13  1  0  0  0  0
  9 10  2  0  0  0  0
 10 11  1  0  0  0  0
 11 12  2  0  0  0  0
 12 13  1  0  0  0  0
 12 27  1  0  0  0  0
 14 19  1  0  0  0  0
 14 15  1  0  0  0  0
 14 28  1  0  0  0  0
 15 16  1  0  0  0  0
 15 29  1  0  0  0  0
 15 30  1  0  0  0  0
 16 17  1  0  0  0  0
 16 31  1  0  0  0  0
 16 32  1  0  0  0  0
 17 18  1  0  0  0  0
 17 33  1  0  0  0  0
 17 34  1  0  0  0  0
 18 19  1  0  0  0  0
 18 35  1  0  0  0  0
 18 36  1  0  0  0  0
 19 37  1  0  0  0  0
 19 38  1  0  0  0  0
M  CHG  1   8  -1
M  END
> <s_m_source_file>
AV-unprocessed.smi

> <i_m_source_file_index>
2663

> <i_lp_mmshare_version>
43012

> <i_f3d_flags>
0

> <s_epik_input>
W0NIMl0xW0NIMl1bQ0gyXVtDSDJdW0NIMl1bQ0hdMVtDQF0oW0NIM10pKFtDSDJdW09IXSlbTkhdQyg9TylbTkhdYzJubltjSF1zMg==

> <s_epik_cmdline>
J2VwaWtfcHl0aG9uJywgJy1waCcsICc3LjAnLCAnLXRuJywgJzgnLCAnLW1hJywgJzIwMCcsICctbWV0YWxfYmluZGluZycsICctaW1hZScsICc8aW5maWxlLm1hZT4nLCAnLW9tYWUnLCAnPG91dGZpbGUubWFlPic=

> <r_lp_tautomer_probability>
1

> <r_epik_Ionization_Penalty>
4.39194

> <r_epik_Ionization_Penalty_Charging>
4.34423

> <r_epik_Ionization_Penalty_Neutral>
0.047714

> <r_epik_State_Penalty>
4.34384

> <r_epik_Charging_Adjusted_Penalty>
8.68806

> <i_epik_Tot_Q>
-1

> <i_epik_Tot_abs_Q>
1

> <r_epik_Metal_State_Penalty>
0.746645

> <b_epik_Metal_Only>
1

> <s_lp_Force_Field>
OPLS_2005

> <r_lp_Energy>
18.1486

> <b_lp_Chiralities_Consistent>
1

> <s_lp_Variant>
AV-unprocessed.smi:2663-4

> <Gold.Version>
5.8.1

> <Gold.Id.Protein>
6NUR|6NUR_protein|mol2

> <Gold.PLP.Fitness>
43.6510

> <Gold.PLP.PLP>
-31.3060

> <Gold.PLP.part.hbond>
-4.9576

> <Gold.PLP.part.metal>
0.0000

> <Gold.PLP.part.buried>
-5.1725

> <Gold.PLP.part.nonpolar>
-21.9738

> <Gold.PLP.part.repulsive>
0.1094

> <Gold.PLP.ligand.clash>
0.0000

> <Gold.PLP.ligand.torsion>
1.0479

> <Gold.PLP.Chemscore.Hbond>
4.7905

> <Gold.PLP.Chemscore.CHOScore>
0.0000

> <Gold.PLP.Chemscore.Metal>
0.0000

> <Gold.Chemscore.Hbonds>
donor molecule, donor type, donor heavy atom, donor atom, acceptor molecule, acceptor atom, score
      P1  H  6896  6907       L1     8  1.89
      P1  H  6931  6943       L1    10  0.98
      P1  H  6934  6947       L1    10  0.83
      P1  H  7997  8010       L1     4  1.00

> <Gold.PLP.Chemscore.Internal.Correction>
0.0694

> <Gold.Rescore>
     Score         DG    S(hbond)    S(metal)    S(lipo)     H(rot)  DE(clash)    DE(int)     intcor
     14.49     -18.35       2.87        0.00      75.69       2.18       0.01       3.84       ----

> <Gold.Chemscore.Fitness>
14.4930

> <Gold.Chemscore.DG>
-18.3471

> <Gold.Chemscore.ZeroCoef>
-5.4800

> <Gold.Chemscore.Hbond>
2.8707

> <Gold.Chemscore.Metal>
0.0000

> <Gold.Chemscore.Lipo>
75.6863

> <Gold.Chemscore.Internal_Hbond>
0.0000

> <Gold.Chemscore.DEClash>
0.0106

> <Gold.Chemscore.DEInternal>
3.8435

> <Gold.Chemscore.Rot>
2.1783

> <Gold.Chemscore.Internal.Correction>
   9.000000E+99

> <Gold.Chemscore.Hbonds>
donor molecule, donor type, donor heavy atom, donor atom, acceptor molecule, acceptor atom, score
      P1  H  6896  6907       L1     8  0.50
      P1  H  6931  6943       L1    10  0.62
      P1  H  6934  6947       L1    10  0.20
      P1  H  7997  8010       L1     4  0.65

> <Gold.Chemscore.Hbond.Weighted>
-9.5883

> <Gold.Chemscore.Metal.Weighted>
-0.0000

> <Gold.Chemscore.Lipo.Weighted>
-8.8553

> <Gold.Chemscore.Internal_Hbond.Weighted>
0.0000

> <Gold.Chemscore.DEClash.Weighted>
0.0106

> <Gold.Chemscore.DEInternal.Weighted>
3.8435

> <Gold.Chemscore.Rot.Weighted>
5.5765

> <Gold.Chemscore.Internal.Correction.Weighted>
   9.000000E+99

> <Gold.Protein.RotatedTorsions>
[ 6907 6896 6895 6894 ] final  -44.28 input  -60.11 | X-H torsion
[ 7974 7965 7964 7962 ] final   75.29 input  175.53 | X-H torsion
[ 8008 7997 7996 7995 ] final  101.69 input   59.86 | X-H torsion
[ 10167 10162 10161 10158 ] final   20.19 input  -65.29 | X-H torsion
[ 10718 10713 10712 10709 ] final   24.33 input   66.30 | X-H torsion
[ 10763 10752 10751 10750 ] final   17.89 input  -60.55 | X-H torsion
[ 11005 11000 10999 10996 ] final  101.71 input  -57.11 | X-H torsion

> <Gold.Protein.ActiveResidues>
 VAL166  LYS551  ARG553  GLY616  TRP617  ASP618  TYR619  PRO620  LYS621  CYS622 
 ASP623  PHE694  ASN695  SER759  ASP760  ASP761  ALA762  ILE779  LEU786  VAL792 
 PHE793  MET794  SER795  GLU796  ALA797  LYS798  CYS799  TRP800  GLU811  SER814 

> <Gold.Protein.RotatedAtoms>
  150.9346  134.8759  159.7573 H   0  0  0  0  0  0  0  0  0  0  0  0  # atno 6907 bound_to 6896
  152.5053  134.4029  159.9432 H   0  0  0  0  0  0  0  0  0  0  0  0  # atno 6908 bound_to 6896
  151.4054  133.3704  159.2772 H   0  0  0  0  0  0  0  0  0  0  0  0  # atno 6909 bound_to 6896
  145.7174  139.2636  143.1615 H   0  0  0  0  0  0  0  0  0  0  0  0  # atno 7974 bound_to 7965
  156.1323  140.3193  155.8368 H   0  0  0  0  0  0  0  0  0  0  0  0  # atno 8008 bound_to 7997
  155.4309  140.0519  157.3035 H   0  0  0  0  0  0  0  0  0  0  0  0  # atno 8009 bound_to 7997
  154.4909  140.2092  155.9564 H   0  0  0  0  0  0  0  0  0  0  0  0  # atno 8010 bound_to 7997
  140.5522  143.9488  150.6586 H   0  0  0  0  0  0  0  0  0  0  0  0  # atno 10167 bound_to 10162
  157.1783  130.6791  149.6103 H   0  0  0  0  0  0  0  0  0  0  0  0  # atno 10718 bound_to 10713
  153.1298  135.6738  153.9196 H   0  0  0  0  0  0  0  0  0  0  0  0  # atno 10763 bound_to 10752
  153.8686  135.3072  155.3442 H   0  0  0  0  0  0  0  0  0  0  0  0  # atno 10764 bound_to 10752
  154.7697  135.4945  153.9706 H   0  0  0  0  0  0  0  0  0  0  0  0  # atno 10765 bound_to 10752
  139.8774  134.9194  156.4948 H   0  0  0  0  0  0  0  0  0  0  0  0  # atno 11005 bound_to 11000
  146.0657  140.7923  142.9713 LP  0  0  0  0  0  0  0  0  0  0  0  0  # atno 17320 bound_to 7965
  144.6925  140.3264  143.7223 LP  0  0  0  0  0  0  0  0  0  0  0  0  # atno 17321 bound_to 7965
  140.2917  143.3320  152.1056 LP  0  0  0  0  0  0  0  0  0  0  0  0  # atno 17342 bound_to 10162
  139.5032  144.6751  151.6148 LP  0  0  0  0  0  0  0  0  0  0  0  0  # atno 17343 bound_to 10162
  155.9728  130.4655  150.6257 LP  0  0  0  0  0  0  0  0  0  0  0  0  # atno 17370 bound_to 10713
  157.3977  131.0805  151.1336 LP  0  0  0  0  0  0  0  0  0  0  0  0  # atno 17371 bound_to 10713
  140.8632  133.8044  155.9287 LP  0  0  0  0  0  0  0  0  0  0  0  0  # atno 17394 bound_to 11000
  140.9028  134.2357  157.5032 LP  0  0  0  0  0  0  0  0  0  0  0  0  # atno 17395 bound_to 11000

$$$$
