AV-unprocessed.smi:273|AV-procd|sdf|2055|dock8
  -GOLD-   2262021293D 1   1.00000     0.00000
 Structure written by MMmdl.
 59 62  0  0  0  0  0  0  0  0  1 V2000
  144.0612  133.0046  148.9853 C   0  0  0  0  0  0  0  0  0  0  0  0
  144.1260  133.1158  150.5142 C   0  0  0  0  0  0  0  0  0  0  0  0
  144.4903  134.4629  150.9360 N   0  0  0  0  0  0  0  0  0  0  0  0
  144.0309  135.0792  152.0359 C   0  0  0  0  0  0  0  0  0  0  0  0
  143.2266  134.5632  152.8126 O   0  0  0  0  0  0  0  0  0  0  0  0
  144.5678  136.4916  152.3011 C   0  0  0  0  0  0  0  0  0  0  0  0
  145.9242  136.7136  151.5996 C   0  0  0  0  0  0  0  0  0  0  0  0
  146.4765  138.1164  151.9003 C   0  0  0  0  0  0  0  0  0  0  0  0
  146.5485  138.3460  153.3398 N   0  0  0  0  0  0  0  0  0  0  0  0
  147.2496  139.4555  153.6565 C   0  0  0  0  0  0  0  0  0  0  0  0
  146.7726  140.6371  153.1940 N   0  0  0  0  0  0  0  0  0  0  0  0
  147.4106  141.7752  153.4833 C   0  0  0  0  0  0  0  0  0  0  0  0
  148.5151  141.9519  154.2119 N   0  0  0  0  0  0  0  0  0  0  0  0
  148.9891  140.7651  154.6893 C   0  0  0  0  0  0  0  0  0  0  0  0
  148.4240  139.4785  154.4617 C   0  0  0  0  0  0  0  0  0  0  0  0
  149.1763  138.5099  155.1162 N   0  0  0  0  0  0  0  0  0  0  0  0
  150.1368  139.1833  155.6879 C   0  0  0  0  0  0  0  0  0  0  0  0
  150.1021  140.5436  155.4814 N   0  0  0  0  0  0  0  0  0  0  0  0
  151.0382  141.5222  156.0085 C   0  0  0  0  0  0  0  0  0  0  0  0
  151.1978  141.4524  157.5482 C   0  0  1  0  0  0  0  0  0  0  0  0
  152.5011  140.7091  157.9381 C   0  0  0  0  0  0  0  0  0  0  0  0
  152.7682  139.6261  157.0724 O   0  0  0  0  0  0  0  0  0  0  0  0
  151.1252  142.8780  158.1622 C   0  0  2  0  0  0  0  0  0  0  0  0
  151.9688  143.9381  157.4740 C   0  0  0  0  0  0  0  0  0  0  0  0
  152.0548  145.0287  158.5349 C   0  0  0  0  0  0  0  0  0  0  0  0
  152.0476  144.3474  159.7829 O   0  0  0  0  0  0  0  0  0  0  0  0
  151.6709  142.9876  159.5918 C   0  0  0  0  0  0  0  0  0  0  0  0
  145.2919  138.1642  154.0625 C   0  0  0  0  0  0  0  0  0  0  0  0
  144.7237  136.7575  153.8132 C   0  0  0  0  0  0  0  0  0  0  0  0
  143.7503  132.0046  148.6830 H   0  0  0  0  0  0  0  0  0  0  0  0
  145.0331  133.2004  148.5309 H   0  0  0  0  0  0  0  0  0  0  0  0
  143.3468  133.7150  148.5681 H   0  0  0  0  0  0  0  0  0  0  0  0
  143.1519  132.8776  150.9420 H   0  0  0  0  0  0  0  0  0  0  0  0
  144.8298  132.3871  150.9198 H   0  0  0  0  0  0  0  0  0  0  0  0
  145.1491  134.9601  150.3542 H   0  0  0  0  0  0  0  0  0  0  0  0
  143.8544  137.2144  151.9002 H   0  0  0  0  0  0  0  0  0  0  0  0
  146.6477  135.9669  151.9312 H   0  0  0  0  0  0  0  0  0  0  0  0
  145.8195  136.5854  150.5213 H   0  0  0  0  0  0  0  0  0  0  0  0
  147.4661  138.2254  151.4540 H   0  0  0  0  0  0  0  0  0  0  0  0
  145.8363  138.8749  151.4472 H   0  0  0  0  0  0  0  0  0  0  0  0
  146.9716  142.6728  153.0735 H   0  0  0  0  0  0  0  0  0  0  0  0
  150.9023  138.7039  156.2807 H   0  0  0  0  0  0  0  0  0  0  0  0
  152.0048  141.3835  155.5229 H   0  0  0  0  0  0  0  0  0  0  0  0
  150.6779  142.5028  155.6987 H   0  0  0  0  0  0  0  0  0  0  0  0
  150.3552  140.8744  157.9315 H   0  0  0  0  0  0  0  0  0  0  0  0
  153.3698  141.3629  157.8770 H   0  0  0  0  0  0  0  0  0  0  0  0
  152.4510  140.3527  158.9674 H   0  0  0  0  0  0  0  0  0  0  0  0
  152.2784  138.8752  157.3715 H   0  0  0  0  0  0  0  0  0  0  0  0
  150.0875  143.2162  158.1636 H   0  0  0  0  0  0  0  0  0  0  0  0
  152.9648  143.5503  157.2549 H   0  0  0  0  0  0  0  0  0  0  0  0
  151.5302  144.3040  156.5456 H   0  0  0  0  0  0  0  0  0  0  0  0
  152.9429  145.6509  158.4237 H   0  0  0  0  0  0  0  0  0  0  0  0
  151.1777  145.6756  158.4871 H   0  0  0  0  0  0  0  0  0  0  0  0
  150.9411  142.6822  160.3420 H   0  0  0  0  0  0  0  0  0  0  0  0
  152.5603  142.3680  159.7152 H   0  0  0  0  0  0  0  0  0  0  0  0
  145.4534  138.3176  155.1303 H   0  0  0  0  0  0  0  0  0  0  0  0
  144.5637  138.9069  153.7364 H   0  0  0  0  0  0  0  0  0  0  0  0
  143.7615  136.6576  154.3167 H   0  0  0  0  0  0  0  0  0  0  0  0
  145.3876  136.0168  154.2623 H   0  0  0  0  0  0  0  0  0  0  0  0
  1  2  1  0  0  0  0
  1 30  1  0  0  0  0
  1 31  1  0  0  0  0
  1 32  1  0  0  0  0
  2  3  1  0  0  0  0
  2 33  1  0  0  0  0
  2 34  1  0  0  0  0
  3  4  1  0  0  0  0
  3 35  1  0  0  0  0
  4  5  2  0  0  0  0
  4  6  1  0  0  0  0
  6 29  1  0  0  0  0
  6  7  1  0  0  0  0
  6 36  1  0  0  0  0
  7  8  1  0  0  0  0
  7 37  1  0  0  0  0
  7 38  1  0  0  0  0
  8  9  1  0  0  0  0
  8 39  1  0  0  0  0
  8 40  1  0  0  0  0
  9 10  1  0  0  0  0
  9 28  1  0  0  0  0
 10 15  1  0  0  0  0
 10 11  2  0  0  0  0
 11 12  1  0  0  0  0
 12 13  2  0  0  0  0
 12 41  1  0  0  0  0
 13 14  1  0  0  0  0
 14 18  1  0  0  0  0
 14 15  2  0  0  0  0
 15 16  1  0  0  0  0
 16 17  2  0  0  0  0
 17 18  1  0  0  0  0
 17 42  1  0  0  0  0
 18 19  1  0  0  0  0
 19 20  1  0  0  0  0
 19 43  1  0  0  0  0
 19 44  1  0  0  0  0
 20 21  1  0  0  0  0
 20 23  1  0  0  0  0
 20 45  1  0  0  0  0
 21 22  1  0  0  0  0
 21 46  1  0  0  0  0
 21 47  1  0  0  0  0
 22 48  1  0  0  0  0
 23 27  1  0  0  0  0
 23 24  1  0  0  0  0
 23 49  1  0  0  0  0
 24 25  1  0  0  0  0
 24 50  1  0  0  0  0
 24 51  1  0  0  0  0
 25 26  1  0  0  0  0
 25 52  1  0  0  0  0
 25 53  1  0  0  0  0
 26 27  1  0  0  0  0
 27 54  1  0  0  0  0
 27 55  1  0  0  0  0
 28 29  1  0  0  0  0
 28 56  1  0  0  0  0
 28 57  1  0  0  0  0
 29 58  1  0  0  0  0
 29 59  1  0  0  0  0
M  END
> <s_m_source_file>
AV-unprocessed.smi

> <i_m_source_file_index>
273

> <i_lp_mmshare_version>
43012

> <i_f3d_flags>
0

> <s_epik_input>
W0NIM11bQ0gyXVtOSF1DKD1PKVtDSF0xW0NIMl1bQ0gyXU4oW0NIMl1bQ0gyXTEpYyhuW2NIXW4yKWMoYzIzKW5bY0hdbjNbQ0gyXVtDQEhdKFtDSDJdW09IXSlbQ0BASF00W0NIMl1bQ0gyXU9bQ0gyXTQ=

> <s_epik_cmdline>
J2VwaWtfcHl0aG9uJywgJy1waCcsICc3LjAnLCAnLXRuJywgJzgnLCAnLW1hJywgJzIwMCcsICctbWV0YWxfYmluZGluZycsICctaW1hZScsICc8aW5maWxlLm1hZT4nLCAnLW9tYWUnLCAnPG91dGZpbGUubWFlPic=

> <r_lp_tautomer_probability>
1

> <r_epik_Ionization_Penalty>
0.00226556

> <r_epik_Ionization_Penalty_Charging>
0

> <r_epik_Ionization_Penalty_Neutral>
0.00226556

> <r_epik_State_Penalty>
0.00139883

> <r_epik_Charging_Adjusted_Penalty>
0.00139883

> <i_epik_Tot_Q>
0

> <i_epik_Tot_abs_Q>
0

> <r_epik_Metal_State_Penalty>
-0

> <b_epik_Metal_Only>
0

> <s_lp_Force_Field>
OPLS_2005

> <r_lp_Energy>
43.4567

> <b_lp_Chiralities_Consistent>
1

> <s_lp_Variant>
AV-unprocessed.smi:273-2

> <Gold.Version>
5.8.1

> <Gold.Id.Protein>
6NUR|6NUR_protein|mol2

> <Gold.PLP.Fitness>
46.0530

> <Gold.PLP.PLP>
-46.7302

> <Gold.PLP.part.hbond>
-2.0000

> <Gold.PLP.part.metal>
0.0000

> <Gold.PLP.part.buried>
-5.5938

> <Gold.PLP.part.nonpolar>
-39.2901

> <Gold.PLP.part.repulsive>
1.0164

> <Gold.PLP.ligand.clash>
0.0024

> <Gold.PLP.ligand.torsion>
2.1787

> <Gold.PLP.Chemscore.Hbond>
1.0663

> <Gold.PLP.Chemscore.CHOScore>
0.0000

> <Gold.PLP.Chemscore.Metal>
0.0000

> <Gold.Chemscore.Hbonds>
donor molecule, donor type, donor heavy atom, donor atom, acceptor molecule, acceptor atom, score
      P1  H  7997  8010       L1    22  0.95
      P1  H  8011  8017       L1    13  0.07

> <Gold.PLP.Chemscore.Internal.Correction>
0.4836

> <Gold.Rescore>
     Score         DG    S(hbond)    S(metal)    S(lipo)     H(rot)  DE(clash)    DE(int)     intcor
      9.60     -13.74       0.94        0.00     114.36       3.22       1.69       2.45       ----

> <Gold.Chemscore.Fitness>
9.5985

> <Gold.Chemscore.DG>
-13.7401

> <Gold.Chemscore.ZeroCoef>
-5.4800

> <Gold.Chemscore.Hbond>
0.9385

> <Gold.Chemscore.Metal>
0.0000

> <Gold.Chemscore.Lipo>
114.3597

> <Gold.Chemscore.Internal_Hbond>
0.0000

> <Gold.Chemscore.DEClash>
1.6919

> <Gold.Chemscore.DEInternal>
2.4497

> <Gold.Chemscore.Rot>
3.2244

> <Gold.Chemscore.Internal.Correction>
   9.000000E+99

> <Gold.Chemscore.Hbonds>
donor molecule, donor type, donor heavy atom, donor atom, acceptor molecule, acceptor atom, score
      P1  H  7997  8010       L1    22  0.22

> <Gold.Chemscore.Hbond.Weighted>
-3.1345

> <Gold.Chemscore.Metal.Weighted>
-0.0000

> <Gold.Chemscore.Lipo.Weighted>
-13.3801

> <Gold.Chemscore.Internal_Hbond.Weighted>
0.0000

> <Gold.Chemscore.DEClash.Weighted>
1.6919

> <Gold.Chemscore.DEInternal.Weighted>
2.4497

> <Gold.Chemscore.Rot.Weighted>
8.2545

> <Gold.Chemscore.Internal.Correction.Weighted>
   9.000000E+99

> <Gold.Protein.RotatedTorsions>
[ 6907 6896 6895 6894 ] final  105.17 input  -60.11 | X-H torsion
[ 7974 7965 7964 7962 ] final  -44.01 input  175.53 | X-H torsion
[ 8008 7997 7996 7995 ] final   67.75 input   59.86 | X-H torsion
[ 10167 10162 10161 10158 ] final  -48.01 input  -65.29 | X-H torsion
[ 10718 10713 10712 10709 ] final -154.02 input   66.30 | X-H torsion
[ 10763 10752 10751 10750 ] final   88.27 input  -60.55 | X-H torsion
[ 11005 11000 10999 10996 ] final   39.12 input  -57.11 | X-H torsion

> <Gold.Protein.ActiveResidues>
 VAL166  LYS551  ARG553  GLY616  TRP617  ASP618  TYR619  PRO620  LYS621  CYS622 
 ASP623  PHE694  ASN695  SER759  ASP760  ASP761  ALA762  ILE779  LEU786  VAL792 
 PHE793  MET794  SER795  GLU796  ALA797  LYS798  CYS799  TRP800  GLU811  SER814 

> <Gold.Protein.RotatedAtoms>
  152.5239  133.9568  159.7697 H   0  0  0  0  0  0  0  0  0  0  0  0  # atno 6907 bound_to 6896
  150.9867  133.6183  159.2721 H   0  0  0  0  0  0  0  0  0  0  0  0  # atno 6908 bound_to 6896
  151.3341  135.0854  159.9402 H   0  0  0  0  0  0  0  0  0  0  0  0  # atno 6909 bound_to 6896
  145.9963  140.7125  142.9292 H   0  0  0  0  0  0  0  0  0  0  0  0  # atno 7974 bound_to 7965
  155.6977  140.3495  155.4920 H   0  0  0  0  0  0  0  0  0  0  0  0  # atno 8008 bound_to 7997
  155.9468  140.1112  157.1032 H   0  0  0  0  0  0  0  0  0  0  0  0  # atno 8009 bound_to 7997
  154.4114  140.1202  156.4986 H   0  0  0  0  0  0  0  0  0  0  0  0  # atno 8010 bound_to 7997
  140.6750  143.2758  151.4010 H   0  0  0  0  0  0  0  0  0  0  0  0  # atno 10167 bound_to 10162
  156.4936  130.8359  151.2580 H   0  0  0  0  0  0  0  0  0  0  0  0  # atno 10718 bound_to 10713
  153.1751  135.4513  154.9955 H   0  0  0  0  0  0  0  0  0  0  0  0  # atno 10763 bound_to 10752
  154.7993  135.3249  154.7593 H   0  0  0  0  0  0  0  0  0  0  0  0  # atno 10764 bound_to 10752
  153.8064  135.6958  153.4902 H   0  0  0  0  0  0  0  0  0  0  0  0  # atno 10765 bound_to 10752
  140.2059  134.3814  155.8073 H   0  0  0  0  0  0  0  0  0  0  0  0  # atno 11005 bound_to 11000
  144.6905  140.3156  143.7241 LP  0  0  0  0  0  0  0  0  0  0  0  0  # atno 17320 bound_to 7965
  145.7555  139.1807  143.2297 LP  0  0  0  0  0  0  0  0  0  0  0  0  # atno 17321 bound_to 7965
  139.6037  144.1242  152.2226 LP  0  0  0  0  0  0  0  0  0  0  0  0  # atno 17342 bound_to 10162
  140.0634  144.5838  150.7246 LP  0  0  0  0  0  0  0  0  0  0  0  0  # atno 17343 bound_to 10162
  157.7471  131.0005  150.2929 LP  0  0  0  0  0  0  0  0  0  0  0  0  # atno 17370 bound_to 10713
  156.3402  130.3814  149.7415 LP  0  0  0  0  0  0  0  0  0  0  0  0  # atno 17371 bound_to 10713
  141.2227  133.7118  156.8336 LP  0  0  0  0  0  0  0  0  0  0  0  0  # atno 17394 bound_to 11000
  140.2003  134.8902  157.3162 LP  0  0  0  0  0  0  0  0  0  0  0  0  # atno 17395 bound_to 11000

$$$$
