AV-unprocessed.smi:1554|AV-procd|sdf|6241|dock2
  -GOLD-   22720 6423D 1   1.00000     0.00000
 Structure written by MMmdl.
 47 49  0  0  0  0  0  0  0  0  1 V2000
  150.9721  143.9365  159.2742 C   0  0  0  0  0  0  0  0  0  0  0  0
  151.9232  142.9701  159.9579 C   0  0  0  0  0  0  0  0  0  0  0  0
  152.4798  141.9085  159.2094 C   0  0  0  0  0  0  0  0  0  0  0  0
  153.3711  140.9906  159.8070 C   0  0  0  0  0  0  0  0  0  0  0  0
  154.0279  139.8964  159.2701 N   0  0  0  0  0  0  0  0  0  0  0  0
  154.7097  139.4509  160.3213 C   0  0  0  0  0  0  0  0  0  0  0  0
  154.5729  140.1279  161.4775 N   0  0  0  0  0  0  0  0  0  0  0  0
  155.2146  139.8266  162.7452 C   0  0  0  0  0  0  0  0  0  0  0  0
  155.8157  138.4087  162.7808 C   0  0  1  0  0  0  0  0  0  0  0  0
  156.9790  138.4193  163.5855 O   0  0  0  0  0  0  0  0  0  0  0  0
  154.8187  137.3894  163.3693 C   0  0  0  0  0  0  0  0  0  0  0  0
  155.2959  136.0074  163.4516 N   0  0  0  0  0  0  0  0  0  0  0  0
  154.5131  135.2456  164.4185 C   0  0  0  0  0  0  0  0  0  0  0  0
  154.9935  133.7891  164.5291 C   0  0  0  0  0  0  0  0  0  0  0  0
  154.9433  133.1754  163.2457 O   0  0  0  0  0  0  0  0  0  0  0  0
  155.7358  133.8546  162.2758 C   0  0  1  0  0  0  0  0  0  0  0  0
  155.6198  133.1027  160.9457 C   0  0  0  0  0  0  0  0  0  0  0  0
  155.2573  135.3160  162.1636 C   0  0  0  0  0  0  0  0  0  0  0  0
  153.6912  141.1634  161.1855 C   0  0  0  0  0  0  0  0  0  0  0  0
  153.1442  142.2159  161.9405 C   0  0  0  0  0  0  0  0  0  0  0  0
  152.2565  143.1249  161.3276 C   0  0  0  0  0  0  0  0  0  0  0  0
  151.6736  144.2601  162.1505 C   0  0  0  0  0  0  0  0  0  0  0  0
  150.8130  143.6666  158.2298 H   0  0  0  0  0  0  0  0  0  0  0  0
  151.3735  144.9499  159.3005 H   0  0  0  0  0  0  0  0  0  0  0  0
  150.0015  143.9350  159.7710 H   0  0  0  0  0  0  0  0  0  0  0  0
  152.2272  141.7908  158.1660 H   0  0  0  0  0  0  0  0  0  0  0  0
  155.3473  138.5820  160.2472 H   0  0  0  0  0  0  0  0  0  0  0  0
  155.9842  140.5758  162.9358 H   0  0  0  0  0  0  0  0  0  0  0  0
  154.4713  139.9384  163.5355 H   0  0  0  0  0  0  0  0  0  0  0  0
  156.1006  138.1339  161.7662 H   0  0  0  0  0  0  0  0  0  0  0  0
  157.0317  139.2542  164.0252 H   0  0  0  0  0  0  0  0  0  0  0  0
  154.5360  137.7335  164.3655 H   0  0  0  0  0  0  0  0  0  0  0  0
  153.8995  137.4093  162.7817 H   0  0  0  0  0  0  0  0  0  0  0  0
  154.5755  135.7180  165.3996 H   0  0  0  0  0  0  0  0  0  0  0  0
  153.4599  135.2561  164.1331 H   0  0  0  0  0  0  0  0  0  0  0  0
  156.0101  133.7450  164.9229 H   0  0  0  0  0  0  0  0  0  0  0  0
  154.3583  133.2310  165.2169 H   0  0  0  0  0  0  0  0  0  0  0  0
  156.7784  133.8368  162.5979 H   0  0  0  0  0  0  0  0  0  0  0  0
  156.2228  133.5790  160.1722 H   0  0  0  0  0  0  0  0  0  0  0  0
  154.5873  133.0751  160.5965 H   0  0  0  0  0  0  0  0  0  0  0  0
  155.9647  132.0738  161.0487 H   0  0  0  0  0  0  0  0  0  0  0  0
  154.2416  135.3363  161.7649 H   0  0  0  0  0  0  0  0  0  0  0  0
  155.8876  135.8279  161.4383 H   0  0  0  0  0  0  0  0  0  0  0  0
  153.4086  142.3239  162.9821 H   0  0  0  0  0  0  0  0  0  0  0  0
  152.0224  144.2228  163.1829 H   0  0  0  0  0  0  0  0  0  0  0  0
  150.5848  144.2037  162.1636 H   0  0  0  0  0  0  0  0  0  0  0  0
  151.9666  145.2233  161.7325 H   0  0  0  0  0  0  0  0  0  0  0  0
  1  2  1  0  0  0  0
  1 23  1  0  0  0  0
  1 24  1  0  0  0  0
  1 25  1  0  0  0  0
  2 21  1  0  0  0  0
  2  3  2  0  0  0  0
  3  4  1  0  0  0  0
  3 26  1  0  0  0  0
  4 19  2  0  0  0  0
  4  5  1  0  0  0  0
  5  6  2  0  0  0  0
  6  7  1  0  0  0  0
  6 27  1  0  0  0  0
  7  8  1  0  0  0  0
  7 19  1  0  0  0  0
  8  9  1  0  0  0  0
  8 28  1  0  0  0  0
  8 29  1  0  0  0  0
  9 10  1  0  0  0  0
  9 11  1  0  0  0  0
  9 30  1  0  0  0  0
 10 31  1  0  0  0  0
 11 12  1  0  0  0  0
 11 32  1  0  0  0  0
 11 33  1  0  0  0  0
 12 18  1  0  0  0  0
 12 13  1  0  0  0  0
 13 14  1  0  0  0  0
 13 34  1  0  0  0  0
 13 35  1  0  0  0  0
 14 15  1  0  0  0  0
 14 36  1  0  0  0  0
 14 37  1  0  0  0  0
 15 16  1  0  0  0  0
 16 17  1  0  0  0  0
 16 18  1  0  0  0  0
 16 38  1  0  0  0  0
 17 39  1  0  0  0  0
 17 40  1  0  0  0  0
 17 41  1  0  0  0  0
 18 42  1  0  0  0  0
 18 43  1  0  0  0  0
 19 20  1  0  0  0  0
 20 21  2  0  0  0  0
 20 44  1  0  0  0  0
 21 22  1  0  0  0  0
 22 45  1  0  0  0  0
 22 46  1  0  0  0  0
 22 47  1  0  0  0  0
M  END
> <s_m_source_file>
AV-unprocessed.smi

> <i_m_source_file_index>
1554

> <i_lp_mmshare_version>
43012

> <i_f3d_flags>
0

> <s_epik_input>
W0NIM11jKFtjSF0xKWMoW0NIM10pW2NIXWMoYzEyKW4oW2NIXW4yKVtDSDJdW0NASF0oW09IXSlbQ0gyXU4zW0NIMl1bQ0gyXU9bQ0BASF0oW0NIM10pW0NIMl0z

> <s_epik_cmdline>
J2VwaWtfcHl0aG9uJywgJy1waCcsICc3LjAnLCAnLXRuJywgJzgnLCAnLW1hJywgJzIwMCcsICctbWV0YWxfYmluZGluZycsICctaW1hZScsICc8aW5maWxlLm1hZT4nLCAnLW9tYWUnLCAnPG91dGZpbGUubWFlPic=

> <r_epik_Ionization_Penalty>
0.345108

> <r_epik_Ionization_Penalty_Charging>
0

> <r_epik_Ionization_Penalty_Neutral>
0.345108

> <r_epik_State_Penalty>
0.314544

> <r_epik_Charging_Adjusted_Penalty>
0.314544

> <i_epik_Tot_Q>
0

> <i_epik_Tot_abs_Q>
0

> <r_epik_Metal_State_Penalty>
0.239719

> <b_epik_Metal_Only>
0

> <s_lp_Force_Field>
OPLS_2005

> <r_lp_Energy>
29.8053

> <b_lp_Chiralities_Consistent>
1

> <s_lp_Variant>
AV-unprocessed.smi:1554-2

> <Gold.Version>
5.8.1

> <Gold.Id.Protein>
6NUR|6NUR_protein|mol2

> <Gold.PLP.Fitness>
47.2532

> <Gold.PLP.PLP>
-45.8474

> <Gold.PLP.part.hbond>
-1.0000

> <Gold.PLP.part.metal>
0.0000

> <Gold.PLP.part.buried>
-2.6387

> <Gold.PLP.part.nonpolar>
-42.0477

> <Gold.PLP.part.repulsive>
0.0381

> <Gold.PLP.ligand.clash>
0.0000

> <Gold.PLP.ligand.torsion>
0.7960

> <Gold.PLP.Chemscore.Hbond>
0.9913

> <Gold.PLP.Chemscore.CHOScore>
0.0000

> <Gold.PLP.Chemscore.Metal>
0.0000

> <Gold.Chemscore.Hbonds>
donor molecule, donor type, donor heavy atom, donor atom, acceptor molecule, acceptor atom, score
      P1  H  7997  8008       L1     5  0.51

> <Gold.PLP.Chemscore.Internal.Correction>
0.0239

> <Gold.Rescore>
     Score         DG    S(hbond)    S(metal)    S(lipo)     H(rot)  DE(clash)    DE(int)     intcor
     17.60     -18.51       0.85        0.00     130.64       1.98       0.00       0.91       ----

> <Gold.Chemscore.Fitness>
17.5994

> <Gold.Chemscore.DG>
-18.5087

> <Gold.Chemscore.ZeroCoef>
-5.4800

> <Gold.Chemscore.Hbond>
0.8456

> <Gold.Chemscore.Metal>
0.0000

> <Gold.Chemscore.Lipo>
130.6435

> <Gold.Chemscore.Internal_Hbond>
0.0000

> <Gold.Chemscore.DEClash>
0.0030

> <Gold.Chemscore.DEInternal>
0.9062

> <Gold.Chemscore.Rot>
1.9848

> <Gold.Chemscore.Internal.Correction>
   9.000000E+99

> <Gold.Chemscore.Hbonds>
donor molecule, donor type, donor heavy atom, donor atom, acceptor molecule, acceptor atom, score
      P1  H  7997  8008       L1     5  0.45

> <Gold.Chemscore.Hbond.Weighted>
-2.8244

> <Gold.Chemscore.Metal.Weighted>
-0.0000

> <Gold.Chemscore.Lipo.Weighted>
-15.2853

> <Gold.Chemscore.Internal_Hbond.Weighted>
0.0000

> <Gold.Chemscore.DEClash.Weighted>
0.0030

> <Gold.Chemscore.DEInternal.Weighted>
0.9062

> <Gold.Chemscore.Rot.Weighted>
5.0810

> <Gold.Chemscore.Internal.Correction.Weighted>
   9.000000E+99

> <Gold.Protein.RotatedTorsions>
[ 6907 6896 6895 6894 ] final  -27.04 input  -60.11 | X-H torsion
[ 7974 7965 7964 7962 ] final  -76.98 input  175.53 | X-H torsion
[ 8008 7997 7996 7995 ] final -122.64 input   59.86 | X-H torsion
[ 10167 10162 10161 10158 ] final -114.78 input  -65.29 | X-H torsion
[ 10718 10713 10712 10709 ] final -148.33 input   66.30 | X-H torsion
[ 10763 10752 10751 10750 ] final  -43.07 input  -60.55 | X-H torsion
[ 11005 11000 10999 10996 ] final  161.28 input  -57.11 | X-H torsion

> <Gold.Protein.ActiveResidues>
 VAL166  LYS551  ARG553  GLY616  TRP617  ASP618  TYR619  PRO620  LYS621  CYS622 
 ASP623  PHE694  ASN695  SER759  ASP760  ASP761  ALA762  ILE779  LEU786  VAL792 
 PHE793  MET794  SER795  GLU796  ALA797  LYS798  CYS799  TRP800  GLU811  SER814 

> <Gold.Protein.RotatedAtoms>
  151.1525  135.0234  159.8674 H   0  0  0  0  0  0  0  0  0  0  0  0  # atno 6907 bound_to 6896
  152.5452  134.1372  159.8474 H   0  0  0  0  0  0  0  0  0  0  0  0  # atno 6908 bound_to 6896
  151.1459  133.4894  159.2628 H   0  0  0  0  0  0  0  0  0  0  0  0  # atno 6909 bound_to 6896
  145.6058  140.9398  143.1216 H   0  0  0  0  0  0  0  0  0  0  0  0  # atno 7974 bound_to 7965
  155.1675  140.0407  157.2856 H   0  0  0  0  0  0  0  0  0  0  0  0  # atno 8008 bound_to 7997
  154.6292  140.2520  155.7427 H   0  0  0  0  0  0  0  0  0  0  0  0  # atno 8009 bound_to 7997
  156.2476  140.2878  156.0637 H   0  0  0  0  0  0  0  0  0  0  0  0  # atno 8010 bound_to 7997
  140.0973  143.4645  152.1834 H   0  0  0  0  0  0  0  0  0  0  0  0  # atno 10167 bound_to 10162
  156.4189  130.8019  151.2241 H   0  0  0  0  0  0  0  0  0  0  0  0  # atno 10718 bound_to 10713
  153.9895  135.6707  153.4753 H   0  0  0  0  0  0  0  0  0  0  0  0  # atno 10763 bound_to 10752
  153.0711  135.4973  154.8303 H   0  0  0  0  0  0  0  0  0  0  0  0  # atno 10764 bound_to 10752
  154.7117  135.3099  154.9149 H   0  0  0  0  0  0  0  0  0  0  0  0  # atno 10765 bound_to 10752
  140.2142  134.8245  157.3153 H   0  0  0  0  0  0  0  0  0  0  0  0  # atno 11005 bound_to 11000
  144.7291  139.7783  143.7354 LP  0  0  0  0  0  0  0  0  0  0  0  0  # atno 17320 bound_to 7965
  146.1542  139.4634  143.0029 LP  0  0  0  0  0  0  0  0  0  0  0  0  # atno 17321 bound_to 7965
  139.5691  144.7452  151.3940 LP  0  0  0  0  0  0  0  0  0  0  0  0  # atno 17342 bound_to 10162
  140.6997  143.7662  150.7383 LP  0  0  0  0  0  0  0  0  0  0  0  0  # atno 17343 bound_to 10162
  157.7508  131.0234  150.3833 LP  0  0  0  0  0  0  0  0  0  0  0  0  # atno 17370 bound_to 10713
  156.4146  130.3941  149.6867 LP  0  0  0  0  0  0  0  0  0  0  0  0  # atno 17371 bound_to 10713
  140.1918  134.4362  155.7711 LP  0  0  0  0  0  0  0  0  0  0  0  0  # atno 17394 bound_to 11000
  141.2225  133.7031  156.8040 LP  0  0  0  0  0  0  0  0  0  0  0  0  # atno 17395 bound_to 11000

$$$$
