AV-unprocessed.smi:2523|AV-procd|sdf|9921|dock8
  -GOLD-   2272013563D 1   1.00000     0.00000
 Structure written by MMmdl.
 34 36  0  0  0  0  0  0  0  0  1 V2000
  153.5650  138.0145  155.5471 C   0  0  0  0  0  0  0  0  0  0  0  0
  152.2921  138.6802  155.2804 N   0  0  0  0  0  0  0  0  0  0  0  0
  151.6079  138.2085  154.1541 N   0  0  0  0  0  0  0  0  0  0  0  0
  150.4632  138.7062  153.8037 C   0  0  0  0  0  0  0  0  0  0  0  0
  149.8993  139.7802  154.6157 C   0  0  0  0  0  0  0  0  0  0  0  0
  148.7113  140.5605  154.5714 C   0  0  0  0  0  0  0  0  0  0  0  0
  148.6540  141.4401  155.5696 N   0  0  0  0  0  0  0  0  0  0  0  0
  149.7942  141.2610  156.2854 N   0  0  0  0  0  0  0  0  0  0  0  0
  150.0395  142.0813  157.4616 C   0  0  0  0  0  0  0  0  0  0  0  0
  151.3646  142.8657  157.3782 C   0  0  1  0  0  0  0  0  0  0  0  0
  151.3086  143.8179  156.3331 O   0  0  0  0  0  0  0  0  0  0  0  0
  151.7077  143.5068  158.7135 C   0  0  0  0  0  0  0  0  0  0  0  0
  151.5251  144.8934  158.9097 C   0  0  0  0  0  0  0  0  0  0  0  0
  151.8337  145.4816  160.1516 C   0  0  0  0  0  0  0  0  0  0  0  0
  152.3262  144.6870  161.2044 C   0  0  0  0  0  0  0  0  0  0  0  0
  152.5093  143.3035  161.0149 C   0  0  0  0  0  0  0  0  0  0  0  0
  153.1112  142.3284  162.3048 Cl  0  0  0  0  0  0  0  0  0  0  0  0
  152.1998  142.7148  159.7729 C   0  0  0  0  0  0  0  0  0  0  0  0
  150.5453  140.2559  155.7088 C   0  0  0  0  0  0  0  0  0  0  0  0
  151.8525  139.6782  156.1049 C   0  0  0  0  0  0  0  0  0  0  0  0
  152.4690  140.0765  157.0932 O   0  0  0  0  0  0  0  0  0  0  0  0
  154.3840  138.7352  155.5472 H   0  0  0  0  0  0  0  0  0  0  0  0
  153.7944  137.2552  154.7977 H   0  0  0  0  0  0  0  0  0  0  0  0
  153.5430  137.5216  156.5202 H   0  0  0  0  0  0  0  0  0  0  0  0
  149.9314  138.3367  152.9271 H   0  0  0  0  0  0  0  0  0  0  0  0
  147.8996  140.5189  153.8601 H   0  0  0  0  0  0  0  0  0  0  0  0
  149.1964  142.7559  157.6070 H   0  0  0  0  0  0  0  0  0  0  0  0
  150.0531  141.4279  158.3354 H   0  0  0  0  0  0  0  0  0  0  0  0
  152.1625  142.1688  157.1177 H   0  0  0  0  0  0  0  0  0  0  0  0
  150.4095  143.9056  156.0561 H   0  0  0  0  0  0  0  0  0  0  0  0
  151.1436  145.5091  158.1082 H   0  0  0  0  0  0  0  0  0  0  0  0
  151.6914  146.5424  160.2964 H   0  0  0  0  0  0  0  0  0  0  0  0
  152.5618  145.1399  162.1563 H   0  0  0  0  0  0  0  0  0  0  0  0
  152.3392  141.6523  159.6367 H   0  0  0  0  0  0  0  0  0  0  0  0
  1  2  1  0  0  0  0
  1 22  1  0  0  0  0
  1 23  1  0  0  0  0
  1 24  1  0  0  0  0
  2 20  1  0  0  0  0
  2  3  1  0  0  0  0
  3  4  2  0  0  0  0
  4  5  1  0  0  0  0
  4 25  1  0  0  0  0
  5 19  2  0  0  0  0
  5  6  1  0  0  0  0
  6  7  2  0  0  0  0
  6 26  1  0  0  0  0
  7  8  1  0  0  0  0
  8  9  1  0  0  0  0
  8 19  1  0  0  0  0
  9 10  1  0  0  0  0
  9 27  1  0  0  0  0
  9 28  1  0  0  0  0
 10 11  1  0  0  0  0
 10 12  1  0  0  0  0
 10 29  1  0  0  0  0
 11 30  1  0  0  0  0
 12 18  1  0  0  0  0
 12 13  2  0  0  0  0
 13 14  1  0  0  0  0
 13 31  1  0  0  0  0
 14 15  2  0  0  0  0
 14 32  1  0  0  0  0
 15 16  1  0  0  0  0
 15 33  1  0  0  0  0
 16 17  1  0  0  0  0
 16 18  2  0  0  0  0
 18 34  1  0  0  0  0
 19 20  1  0  0  0  0
 20 21  2  0  0  0  0
M  END
> <s_m_source_file>
AV-unprocessed.smi

> <i_m_source_file_index>
2523

> <i_lp_mmshare_version>
43012

> <i_f3d_flags>
0

> <s_epik_input>
W2NIXTFubihbQ0gzXSljKD1PKWMoYzEyKW4obltjSF0yKVtDSDJdW0NASF0oW09IXSljM1tjSF1bY0hdW2NIXWMoQ2wpW2NIXTM=

> <s_epik_cmdline>
J2VwaWtfcHl0aG9uJywgJy1waCcsICc3LjAnLCAnLXRuJywgJzgnLCAnLW1hJywgJzIwMCcsICctbWV0YWxfYmluZGluZycsICctaW1hZScsICc8aW5maWxlLm1hZT4nLCAnLW9tYWUnLCAnPG91dGZpbGUubWFlPic=

> <r_lp_tautomer_probability>
1

> <r_epik_Ionization_Penalty>
8.52698e-06

> <r_epik_Ionization_Penalty_Charging>
1.65421e-10

> <r_epik_Ionization_Penalty_Neutral>
8.52681e-06

> <r_epik_State_Penalty>
-0

> <r_epik_Charging_Adjusted_Penalty>
1.65421e-10

> <i_epik_Tot_Q>
0

> <i_epik_Tot_abs_Q>
0

> <r_epik_Metal_State_Penalty>
-0

> <b_epik_Metal_Only>
0

> <s_lp_Force_Field>
OPLS_2005

> <r_lp_Energy>
26.9154

> <b_lp_Chiralities_Consistent>
1

> <s_lp_Variant>
AV-unprocessed.smi:2523-2

> <Gold.Version>
5.8.1

> <Gold.Id.Protein>
6NUR|6NUR_protein|mol2

> <Gold.PLP.Fitness>
57.5800

> <Gold.PLP.PLP>
-47.5609

> <Gold.PLP.part.hbond>
-1.9744

> <Gold.PLP.part.metal>
0.0000

> <Gold.PLP.part.buried>
-0.4387

> <Gold.PLP.part.nonpolar>
-44.7521

> <Gold.PLP.part.repulsive>
0.2815

> <Gold.PLP.ligand.clash>
0.0000

> <Gold.PLP.ligand.torsion>
0.5068

> <Gold.PLP.Chemscore.Hbond>
2.0000

> <Gold.PLP.Chemscore.CHOScore>
1.6697

> <Gold.PLP.Chemscore.Metal>
0.0000

> <Gold.Chemscore.Hbonds>
donor molecule, donor type, donor heavy atom, donor atom, acceptor molecule, acceptor atom, score
      L1  H    11    30       P1  8028  1.00
      P1  H  7997  8008       L1    21  1.00
      L1  C     4    25       P1  7948  1.00
      L1  C     4    25       P1  7957  0.69

> <Gold.PLP.Chemscore.Internal.Correction>
0.0236

> <Gold.Rescore>
     Score         DG    S(hbond)    S(metal)    S(lipo)     H(rot)  DE(clash)    DE(int)     intcor
     18.28     -21.95       1.75        0.00     132.88       1.93       1.97       1.70       ----

> <Gold.Chemscore.Fitness>
18.2839

> <Gold.Chemscore.DG>
-21.9548

> <Gold.Chemscore.ZeroCoef>
-5.4800

> <Gold.Chemscore.Hbond>
1.7543

> <Gold.Chemscore.Metal>
0.0000

> <Gold.Chemscore.Lipo>
132.8825

> <Gold.Chemscore.Internal_Hbond>
0.0000

> <Gold.Chemscore.DEClash>
1.9725

> <Gold.Chemscore.DEInternal>
1.6984

> <Gold.Chemscore.Rot>
1.9265

> <Gold.Chemscore.Internal.Correction>
   9.000000E+99

> <Gold.Chemscore.Hbonds>
donor molecule, donor type, donor heavy atom, donor atom, acceptor molecule, acceptor atom, score
      L1  H    11    30       P1  8028  0.99
      P1  H  7997  8008       L1    21  0.59

> <Gold.Chemscore.Hbond.Weighted>
-5.8593

> <Gold.Chemscore.Metal.Weighted>
-0.0000

> <Gold.Chemscore.Lipo.Weighted>
-15.5473

> <Gold.Chemscore.Internal_Hbond.Weighted>
0.0000

> <Gold.Chemscore.DEClash.Weighted>
1.9725

> <Gold.Chemscore.DEInternal.Weighted>
1.6984

> <Gold.Chemscore.Rot.Weighted>
4.9317

> <Gold.Chemscore.Internal.Correction.Weighted>
   9.000000E+99

> <Gold.Protein.RotatedTorsions>
[ 6907 6896 6895 6894 ] final   78.12 input  -60.11 | X-H torsion
[ 7974 7965 7964 7962 ] final  -54.78 input  175.53 | X-H torsion
[ 8008 7997 7996 7995 ] final  -59.37 input   59.86 | X-H torsion
[ 10167 10162 10161 10158 ] final   -1.00 input  -65.29 | X-H torsion
[ 10718 10713 10712 10709 ] final  -29.60 input   66.30 | X-H torsion
[ 10763 10752 10751 10750 ] final   46.90 input  -60.55 | X-H torsion
[ 11005 11000 10999 10996 ] final -113.07 input  -57.11 | X-H torsion

> <Gold.Protein.ActiveResidues>
 VAL166  LYS551  ARG553  GLY616  TRP617  ASP618  TYR619  PRO620  LYS621  CYS622 
 ASP623  PHE694  ASN695  SER759  ASP760  ASP761  ALA762  ILE779  LEU786  VAL792 
 PHE793  MET794  SER795  GLU796  ALA797  LYS798  CYS799  TRP800  GLU811  SER814 

> <Gold.Protein.RotatedAtoms>
  152.5146  134.3712  159.9318 H   0  0  0  0  0  0  0  0  0  0  0  0  # atno 6907 bound_to 6896
  151.3666  133.3863  159.2703 H   0  0  0  0  0  0  0  0  0  0  0  0  # atno 6908 bound_to 6896
  150.9610  134.9017  159.7789 H   0  0  0  0  0  0  0  0  0  0  0  0  # atno 6909 bound_to 6896
  145.8817  140.8139  142.9836 H   0  0  0  0  0  0  0  0  0  0  0  0  # atno 7974 bound_to 7965
  154.4349  140.1063  156.6105 H   0  0  0  0  0  0  0  0  0  0  0  0  # atno 8008 bound_to 7997
  155.5815  140.3491  155.4523 H   0  0  0  0  0  0  0  0  0  0  0  0  # atno 8009 bound_to 7997
  156.0315  140.1261  157.0242 H   0  0  0  0  0  0  0  0  0  0  0  0  # atno 8010 bound_to 7997
  140.6792  143.6827  150.8092 H   0  0  0  0  0  0  0  0  0  0  0  0  # atno 10167 bound_to 10162
  156.4104  130.4407  149.7257 H   0  0  0  0  0  0  0  0  0  0  0  0  # atno 10718 bound_to 10713
  152.9805  135.5993  154.3675 H   0  0  0  0  0  0  0  0  0  0  0  0  # atno 10763 bound_to 10752
  154.3351  135.2768  155.2453 H   0  0  0  0  0  0  0  0  0  0  0  0  # atno 10764 bound_to 10752
  154.4560  135.5978  153.6279 H   0  0  0  0  0  0  0  0  0  0  0  0  # atno 10765 bound_to 10752
  141.0637  133.9494  157.2619 H   0  0  0  0  0  0  0  0  0  0  0  0  # atno 11005 bound_to 11000
  144.6727  140.1394  143.7438 LP  0  0  0  0  0  0  0  0  0  0  0  0  # atno 17320 bound_to 7965
  145.9016  139.2433  143.1490 LP  0  0  0  0  0  0  0  0  0  0  0  0  # atno 17321 bound_to 7965
  140.0525  143.5236  152.2667 LP  0  0  0  0  0  0  0  0  0  0  0  0  # atno 17342 bound_to 10162
  139.6103  144.7607  151.2968 LP  0  0  0  0  0  0  0  0  0  0  0  0  # atno 17343 bound_to 10162
  156.4238  130.7781  151.2799 LP  0  0  0  0  0  0  0  0  0  0  0  0  # atno 17370 bound_to 10713
  157.7507  131.0175  150.3587 LP  0  0  0  0  0  0  0  0  0  0  0  0  # atno 17371 bound_to 10713
  139.9456  135.0184  156.8842 LP  0  0  0  0  0  0  0  0  0  0  0  0  # atno 17394 bound_to 11000
  140.5817  134.0346  155.7466 LP  0  0  0  0  0  0  0  0  0  0  0  0  # atno 17395 bound_to 11000

$$$$
