AV-unprocessed.smi:2083|AV-procd|sdf|8511|dock3
  -GOLD-   2272011223D 1   1.00000     0.00000
 Structure written by MMmdl.
 44 45  0  0  0  0  0  0  0  0  3 V2000
  147.5557  136.0848  162.8879 C   0  0  0  0  0  0  0  0  0  0  0  0
  147.6462  135.9655  161.4052 C   0  0  0  0  0  0  0  0  0  0  0  0
  147.6322  134.8951  160.5561 C   0  0  0  0  0  0  0  0  0  0  0  0
  147.7554  135.4988  159.2761 C   0  0  0  0  0  0  0  0  0  0  0  0
  147.7791  134.7023  158.1009 N   0  0  0  0  0  0  0  0  0  0  0  0
  148.1739  133.4242  157.9550 C   0  0  0  0  0  0  0  0  0  0  0  0
  148.5819  132.7804  158.9293 O   0  0  0  0  0  0  0  0  0  0  0  0
  148.0599  132.9968  156.6679 N   0  5  0  0  0  0  0  0  0  0  0  0
  147.1193  133.5451  155.6924 C   0  0  0  0  0  0  0  0  0  0  0  0
  147.8844  134.3437  154.5881 C   0  0  1  0  0  0  0  0  0  0  0  0
  149.2777  133.7565  154.2588 C   0  0  0  0  0  0  0  0  0  0  0  0
  147.1204  134.5889  153.3168 N   0  3  1  0  0  0  0  0  0  0  0  0
  146.9168  133.4259  152.4021 C   0  0  0  0  0  0  0  0  0  0  0  0
  146.4601  133.9021  151.0148 C   0  0  0  0  0  0  0  0  0  0  0  0
  145.1909  134.7608  151.1181 C   0  0  0  0  0  0  0  0  0  0  0  0
  145.3780  135.9267  152.1080 C   0  0  2  0  0  0  0  0  0  0  0  0
  146.2722  137.0464  151.5469 C   0  0  0  0  0  0  0  0  0  0  0  0
  145.8815  135.4058  153.4699 C   0  0  0  0  0  0  0  0  0  0  0  0
  147.8386  136.8195  159.3397 N   0  0  0  0  0  0  0  0  0  0  0  0
  147.7699  137.1251  160.7042 O   0  0  0  0  0  0  0  0  0  0  0  0
  147.2371  135.1434  163.3357 H   0  0  0  0  0  0  0  0  0  0  0  0
  146.8368  136.8537  163.1715 H   0  0  0  0  0  0  0  0  0  0  0  0
  148.5233  136.3511  163.3130 H   0  0  0  0  0  0  0  0  0  0  0  0
  147.5464  133.8492  160.8107 H   0  0  0  0  0  0  0  0  0  0  0  0
  147.4607  135.1593  157.2594 H   0  0  0  0  0  0  0  0  0  0  0  0
  146.5196  132.7691  155.2152 H   0  0  0  0  0  0  0  0  0  0  0  0
  146.4053  134.2110  156.1778 H   0  0  0  0  0  0  0  0  0  0  0  0
  148.0815  135.3364  154.9966 H   0  0  0  0  0  0  0  0  0  0  0  0
  149.9415  133.7634  155.1254 H   0  0  0  0  0  0  0  0  0  0  0  0
  149.7706  134.3497  153.4879 H   0  0  0  0  0  0  0  0  0  0  0  0
  149.2298  132.7289  153.8960 H   0  0  0  0  0  0  0  0  0  0  0  0
  147.8391  132.8564  152.2932 H   0  0  0  0  0  0  0  0  0  0  0  0
  146.1705  132.7448  152.8140 H   0  0  0  0  0  0  0  0  0  0  0  0
  147.2592  134.4706  150.5379 H   0  0  0  0  0  0  0  0  0  0  0  0
  146.2727  133.0416  150.3717 H   0  0  0  0  0  0  0  0  0  0  0  0
  144.9049  135.1352  150.1345 H   0  0  0  0  0  0  0  0  0  0  0  0
  144.3656  134.1330  151.4569 H   0  0  0  0  0  0  0  0  0  0  0  0
  144.3962  136.3729  152.2722 H   0  0  0  0  0  0  0  0  0  0  0  0
  147.2956  136.7081  151.3833 H   0  0  0  0  0  0  0  0  0  0  0  0
  146.3119  137.8936  152.2321 H   0  0  0  0  0  0  0  0  0  0  0  0
  145.8883  137.4145  150.5950 H   0  0  0  0  0  0  0  0  0  0  0  0
  145.1009  134.8035  153.9366 H   0  0  0  0  0  0  0  0  0  0  0  0
  146.0642  136.2496  154.1365 H   0  0  0  0  0  0  0  0  0  0  0  0
  147.7400  135.1977  152.8025 H   0  0  0  0  0  0  0  0  0  0  0  0
  1  2  1  0  0  0  0
  1 21  1  0  0  0  0
  1 22  1  0  0  0  0
  1 23  1  0  0  0  0
  2 20  1  0  0  0  0
  2  3  2  0  0  0  0
  3  4  1  0  0  0  0
  3 24  1  0  0  0  0
  4  5  1  0  0  0  0
  4 19  2  0  0  0  0
  5  6  1  0  0  0  0
  5 25  1  0  0  0  0
  6  7  2  0  0  0  0
  6  8  1  0  0  0  0
  8  9  1  0  0  0  0
  9 10  1  0  0  0  0
  9 26  1  0  0  0  0
  9 27  1  0  0  0  0
 10 11  1  0  0  0  0
 10 12  1  0  0  0  0
 10 28  1  0  0  0  0
 11 29  1  0  0  0  0
 11 30  1  0  0  0  0
 11 31  1  0  0  0  0
 12 18  1  0  0  0  0
 12 13  1  0  0  0  0
 12 44  1  0  0  0  0
 13 14  1  0  0  0  0
 13 32  1  0  0  0  0
 13 33  1  0  0  0  0
 14 15  1  0  0  0  0
 14 34  1  0  0  0  0
 14 35  1  0  0  0  0
 15 16  1  0  0  0  0
 15 36  1  0  0  0  0
 15 37  1  0  0  0  0
 16 17  1  0  0  0  0
 16 18  1  0  0  0  0
 16 38  1  0  0  0  0
 17 39  1  0  0  0  0
 17 40  1  0  0  0  0
 17 41  1  0  0  0  0
 18 42  1  0  0  0  0
 18 43  1  0  0  0  0
 19 20  1  0  0  0  0
M  CHG  1   8  -1
M  CHG  1  12   1
M  END
> <s_m_source_file>
AV-unprocessed.smi

> <i_m_source_file_index>
2083

> <i_lp_mmshare_version>
43012

> <i_f3d_flags>
0

> <s_epik_input>
W0NIM11jMVtjSF1jKG5vMSlbTkhdQyg9TylbTkhdW0NIMl1bQ0BIXShbQ0gzXSlOMltDSDJdW0NIMl1bQ0gyXVtDQEBIXShbQ0gzXSlbQ0gyXTI=

> <s_epik_cmdline>
J2VwaWtfcHl0aG9uJywgJy1waCcsICc3LjAnLCAnLXRuJywgJzgnLCAnLW1hJywgJzIwMCcsICctbWV0YWxfYmluZGluZycsICctaW1hZScsICc8aW5maWxlLm1hZT4nLCAnLW9tYWUnLCAnPG91dGZpbGUubWFlPic=

> <r_epik_Ionization_Penalty>
6.76934

> <r_epik_Ionization_Penalty_Charging>
6.76934

> <r_epik_Ionization_Penalty_Neutral>
5.77849e-06

> <r_epik_State_Penalty>
6.79457

> <r_epik_Charging_Adjusted_Penalty>
13.5639

> <i_epik_Tot_Q>
0

> <i_epik_Tot_abs_Q>
2

> <r_epik_Metal_State_Penalty>
2.72837

> <b_epik_Metal_Only>
1

> <s_lp_Force_Field>
OPLS_2005

> <r_lp_Energy>
23.3528

> <b_lp_Chiralities_Consistent>
1

> <s_lp_Variant>
AV-unprocessed.smi:2083-22

> <Gold.Version>
5.8.1

> <Gold.Id.Protein>
6NUR|6NUR_protein|mol2

> <Gold.PLP.Fitness>
41.6898

> <Gold.PLP.PLP>
-28.4589

> <Gold.PLP.part.hbond>
-4.0000

> <Gold.PLP.part.metal>
0.0000

> <Gold.PLP.part.buried>
-1.0473

> <Gold.PLP.part.nonpolar>
-22.7077

> <Gold.PLP.part.repulsive>
0.0481

> <Gold.PLP.ligand.clash>
0.0000

> <Gold.PLP.ligand.torsion>
0.6525

> <Gold.PLP.Chemscore.Hbond>
4.7600

> <Gold.PLP.Chemscore.CHOScore>
0.0000

> <Gold.PLP.Chemscore.Metal>
0.0000

> <Gold.Chemscore.Hbonds>
donor molecule, donor type, donor heavy atom, donor atom, acceptor molecule, acceptor atom, score
      L1  H    12    44       P1  7948  2.00
      P1  H  6931  6943       L1    20  0.76
      P1  H  6934  6947       L1    20  0.90

> <Gold.PLP.Chemscore.Internal.Correction>
0.2558

> <Gold.Rescore>
     Score         DG    S(hbond)    S(metal)    S(lipo)     H(rot)  DE(clash)    DE(int)     intcor
     17.25     -19.74       3.19        0.00      64.09       1.52       0.79       1.70       ----

> <Gold.Chemscore.Fitness>
17.2510

> <Gold.Chemscore.DG>
-19.7395

> <Gold.Chemscore.ZeroCoef>
-5.4800

> <Gold.Chemscore.Hbond>
3.1885

> <Gold.Chemscore.Metal>
0.0000

> <Gold.Chemscore.Lipo>
64.0897

> <Gold.Chemscore.Internal_Hbond>
0.0000

> <Gold.Chemscore.DEClash>
0.7864

> <Gold.Chemscore.DEInternal>
1.7021

> <Gold.Chemscore.Rot>
1.5190

> <Gold.Chemscore.Internal.Correction>
   9.000000E+99

> <Gold.Chemscore.Hbonds>
donor molecule, donor type, donor heavy atom, donor atom, acceptor molecule, acceptor atom, score
      L1  H    12    44       P1  7948  1.00
      P1  H  6896  6908       L1     7  0.02
      P1  H  6931  6943       L1    20  0.29
      P1  H  6934  6947       L1    20  0.60

> <Gold.Chemscore.Hbond.Weighted>
-10.6497

> <Gold.Chemscore.Metal.Weighted>
-0.0000

> <Gold.Chemscore.Lipo.Weighted>
-7.4985

> <Gold.Chemscore.Internal_Hbond.Weighted>
0.0000

> <Gold.Chemscore.DEClash.Weighted>
0.7864

> <Gold.Chemscore.DEInternal.Weighted>
1.7021

> <Gold.Chemscore.Rot.Weighted>
3.8886

> <Gold.Chemscore.Internal.Correction.Weighted>
   9.000000E+99

> <Gold.Protein.RotatedTorsions>
[ 6907 6896 6895 6894 ] final  123.46 input  -60.11 | X-H torsion
[ 7974 7965 7964 7962 ] final   16.22 input  175.53 | X-H torsion
[ 8008 7997 7996 7995 ] final -170.18 input   59.86 | X-H torsion
[ 10167 10162 10161 10158 ] final -156.55 input  -65.29 | X-H torsion
[ 10718 10713 10712 10709 ] final   51.53 input   66.30 | X-H torsion
[ 10763 10752 10751 10750 ] final   66.17 input  -60.55 | X-H torsion
[ 11005 11000 10999 10996 ] final   11.97 input  -57.11 | X-H torsion

> <Gold.Protein.ActiveResidues>
 VAL166  LYS551  ARG553  GLY616  TRP617  ASP618  TYR619  PRO620  LYS621  CYS622 
 ASP623  PHE694  ASN695  SER759  ASP760  ASP761  ALA762  ILE779  LEU786  VAL792 
 PHE793  MET794  SER795  GLU796  ALA797  LYS798  CYS799  TRP800  GLU811  SER814 

> <Gold.Protein.RotatedAtoms>
  152.4160  133.7039  159.6439 H   0  0  0  0  0  0  0  0  0  0  0  0  # atno 6907 bound_to 6896
  150.8037  133.8539  159.3222 H   0  0  0  0  0  0  0  0  0  0  0  0  # atno 6908 bound_to 6896
  151.6269  135.1028  160.0165 H   0  0  0  0  0  0  0  0  0  0  0  0  # atno 6909 bound_to 6896
  146.2256  139.8780  142.8576 H   0  0  0  0  0  0  0  0  0  0  0  0  # atno 7974 bound_to 7965
  155.9149  140.1064  157.1251 H   0  0  0  0  0  0  0  0  0  0  0  0  # atno 8008 bound_to 7997
  154.4045  140.1267  156.4670 H   0  0  0  0  0  0  0  0  0  0  0  0  # atno 8009 bound_to 7997
  155.7265  140.3469  155.5042 H   0  0  0  0  0  0  0  0  0  0  0  0  # atno 8010 bound_to 7997
  139.6841  143.9531  152.2352 H   0  0  0  0  0  0  0  0  0  0  0  0  # atno 10167 bound_to 10162
  157.4989  130.8425  149.8292 H   0  0  0  0  0  0  0  0  0  0  0  0  # atno 10718 bound_to 10713
  153.0128  135.5330  154.6782 H   0  0  0  0  0  0  0  0  0  0  0  0  # atno 10763 bound_to 10752
  154.5949  135.2862  155.0599 H   0  0  0  0  0  0  0  0  0  0  0  0  # atno 10764 bound_to 10752
  154.1677  135.6537  153.5054 H   0  0  0  0  0  0  0  0  0  0  0  0  # atno 10765 bound_to 10752
  140.4972  134.0782  155.7785 H   0  0  0  0  0  0  0  0  0  0  0  0  # atno 11005 bound_to 11000
  145.2541  141.0054  143.3864 LP  0  0  0  0  0  0  0  0  0  0  0  0  # atno 17320 bound_to 7965
  144.9350  139.4254  143.6476 LP  0  0  0  0  0  0  0  0  0  0  0  0  # atno 17321 bound_to 7965
  139.9329  144.6730  150.8344 LP  0  0  0  0  0  0  0  0  0  0  0  0  # atno 17342 bound_to 10162
  140.7662  143.3296  151.2439 LP  0  0  0  0  0  0  0  0  0  0  0  0  # atno 17343 bound_to 10162
  156.0217  130.3793  150.1942 LP  0  0  0  0  0  0  0  0  0  0  0  0  # atno 17370 bound_to 10713
  157.0132  130.9957  151.3360 LP  0  0  0  0  0  0  0  0  0  0  0  0  # atno 17371 bound_to 10713
  141.1454  133.9064  157.2228 LP  0  0  0  0  0  0  0  0  0  0  0  0  # atno 17394 bound_to 11000
  139.9734  135.0121  156.9571 LP  0  0  0  0  0  0  0  0  0  0  0  0  # atno 17395 bound_to 11000

$$$$
