AV-unprocessed.smi:285|AV-procd|sdf|2168|dock2
  -GOLD-   2262021523D 1   1.00000     0.00000
 Structure written by MMmdl.
 31 33  0  0  0  0  0  0  0  0  1 V2000
  153.2303  140.0112  158.7450 N   0  0  0  0  0  0  0  0  0  0  0  0
  152.5275  139.9438  157.6056 C   0  0  0  0  0  0  0  0  0  0  0  0
  153.0832  139.3147  156.5437 N   0  0  0  0  0  0  0  0  0  0  0  0
  152.4038  139.2341  155.3948 C   0  0  0  0  0  0  0  0  0  0  0  0
  151.1869  139.7048  155.1083 N   0  0  0  0  0  0  0  0  0  0  0  0
  150.6263  140.3382  156.1811 C   0  0  0  0  0  0  0  0  0  0  0  0
  151.2316  140.5005  157.4616 C   0  0  0  0  0  0  0  0  0  0  0  0
  150.3802  141.1972  158.3104 N   0  0  0  0  0  0  0  0  0  0  0  0
  149.3414  141.4212  157.5547 C   0  0  0  0  0  0  0  0  0  0  0  0
  147.8437  142.3813  158.2347 Br  0  0  0  0  0  0  0  0  0  0  0  0
  149.3899  140.9473  156.2633 N   0  0  0  0  0  0  0  0  0  0  0  0
  148.3647  141.0457  155.1811 C   0  0  1  0  0  0  0  0  0  0  0  0
  148.7080  140.1401  154.0030 C   0  0  0  0  0  0  0  0  0  0  0  0
  147.3299  139.7131  153.5091 C   0  0  2  0  0  0  0  0  0  0  0  0
  147.0729  140.2492  152.2263 O   0  0  0  0  0  0  0  0  0  0  0  0
  146.3392  140.2765  154.5488 C   0  0  1  0  0  0  0  0  0  0  0  0
  145.2498  139.2750  154.9616 C   0  0  0  0  0  0  0  0  0  0  0  0
  144.7245  138.6303  153.8208 O   0  0  0  0  0  0  0  0  0  0  0  0
  147.1544  140.5848  155.6719 O   0  0  0  0  0  0  0  0  0  0  0  0
  152.8383  140.4755  159.5517 H   0  0  0  0  0  0  0  0  0  0  0  0
  154.1495  139.5964  158.7956 H   0  0  0  0  0  0  0  0  0  0  0  0
  152.9065  138.7184  154.5900 H   0  0  0  0  0  0  0  0  0  0  0  0
  148.2916  142.1001  154.9141 H   0  0  0  0  0  0  0  0  0  0  0  0
  149.3103  140.6779  153.2694 H   0  0  0  0  0  0  0  0  0  0  0  0
  149.2685  139.2702  154.3473 H   0  0  0  0  0  0  0  0  0  0  0  0
  147.2814  138.6244  153.4594 H   0  0  0  0  0  0  0  0  0  0  0  0
  147.8699  140.2158  151.7195 H   0  0  0  0  0  0  0  0  0  0  0  0
  145.8965  141.2032  154.1766 H   0  0  0  0  0  0  0  0  0  0  0  0
  145.6743  138.5028  155.6038 H   0  0  0  0  0  0  0  0  0  0  0  0
  144.4540  139.7647  155.5241 H   0  0  0  0  0  0  0  0  0  0  0  0
  144.1240  139.2204  153.3918 H   0  0  0  0  0  0  0  0  0  0  0  0
  1  2  1  0  0  0  0
  1 20  1  0  0  0  0
  1 21  1  0  0  0  0
  2  7  1  0  0  0  0
  2  3  2  0  0  0  0
  3  4  1  0  0  0  0
  4  5  2  0  0  0  0
  4 22  1  0  0  0  0
  5  6  1  0  0  0  0
  6 11  1  0  0  0  0
  6  7  2  0  0  0  0
  7  8  1  0  0  0  0
  8  9  2  0  0  0  0
  9 10  1  0  0  0  0
  9 11  1  0  0  0  0
 11 12  1  0  0  0  0
 12 19  1  0  0  0  0
 12 13  1  0  0  0  0
 12 23  1  0  0  0  0
 13 14  1  0  0  0  0
 13 24  1  0  0  0  0
 13 25  1  0  0  0  0
 14 15  1  0  0  0  0
 14 16  1  0  0  0  0
 14 26  1  0  0  0  0
 15 27  1  0  0  0  0
 16 17  1  0  0  0  0
 16 19  1  0  0  0  0
 16 28  1  0  0  0  0
 17 18  1  0  0  0  0
 17 29  1  0  0  0  0
 17 30  1  0  0  0  0
 18 31  1  0  0  0  0
M  END
> <s_m_source_file>
AV-unprocessed.smi

> <i_m_source_file_index>
285

> <i_lp_mmshare_version>
43012

> <i_f3d_flags>
0

> <s_epik_input>
bjFbY0hdbmMoW05IMl0pYyhjMTIpbmMoQnIpbjJbQ0BASF0zW0NIMl1bQ0BASF0oW09IXSlbQ0BIXShPMylbQ0gyXVtPSF0=

> <s_epik_cmdline>
J2VwaWtfcHl0aG9uJywgJy1waCcsICc3LjAnLCAnLXRuJywgJzgnLCAnLW1hJywgJzIwMCcsICctbWV0YWxfYmluZGluZycsICctaW1hZScsICc8aW5maWxlLm1hZT4nLCAnLW9tYWUnLCAnPG91dGZpbGUubWFlPic=

> <r_lp_tautomer_probability>
1

> <r_epik_Ionization_Penalty>
0.000103242

> <r_epik_Ionization_Penalty_Charging>
0

> <r_epik_Ionization_Penalty_Neutral>
0.000103242

> <r_epik_State_Penalty>
-0

> <r_epik_Charging_Adjusted_Penalty>
0

> <i_epik_Tot_Q>
0

> <i_epik_Tot_abs_Q>
0

> <r_epik_Metal_State_Penalty>
-0

> <b_epik_Metal_Only>
0

> <s_epik_Chemistry_Notes>
This compound contains an acetal/aminal-like group ( X-CH(R)-Y where X, Y are N, S, or O) that may be acid/base labile, releasing an aldehyde.

> <s_lp_Force_Field>
OPLS_2005

> <r_lp_Energy>
33.2332

> <b_lp_Chiralities_Consistent>
1

> <s_lp_Variant>
AV-unprocessed.smi:285-4

> <Gold.Version>
5.8.1

> <Gold.Id.Protein>
6NUR|6NUR_protein|mol2

> <Gold.PLP.Fitness>
33.6805

> <Gold.PLP.PLP>
-22.3531

> <Gold.PLP.part.hbond>
-3.6689

> <Gold.PLP.part.metal>
0.0000

> <Gold.PLP.part.buried>
-0.5733

> <Gold.PLP.part.nonpolar>
-18.3979

> <Gold.PLP.part.repulsive>
0.7229

> <Gold.PLP.ligand.clash>
0.0416

> <Gold.PLP.ligand.torsion>
0.3248

> <Gold.PLP.Chemscore.Hbond>
4.0000

> <Gold.PLP.Chemscore.CHOScore>
0.0000

> <Gold.PLP.Chemscore.Metal>
0.0000

> <Gold.Chemscore.Hbonds>
donor molecule, donor type, donor heavy atom, donor atom, acceptor molecule, acceptor atom, score
      L1  H    15    27       P1  7957  1.00
      L1  H    18    31       P1 10175  1.00
      P1  H  7989  7998       L1     5  0.94
      P1  H  7997  8009       L1     3  1.00

> <Gold.PLP.Chemscore.Internal.Correction>
0.0185

> <Gold.Rescore>
     Score         DG    S(hbond)    S(metal)    S(lipo)     H(rot)  DE(clash)    DE(int)     intcor
      6.89      -8.87       2.47        0.00      25.41       3.06       0.06       1.92       ----

> <Gold.Chemscore.Fitness>
6.8918

> <Gold.Chemscore.DG>
-8.8704

> <Gold.Chemscore.ZeroCoef>
-5.4800

> <Gold.Chemscore.Hbond>
2.4709

> <Gold.Chemscore.Metal>
0.0000

> <Gold.Chemscore.Lipo>
25.4109

> <Gold.Chemscore.Internal_Hbond>
0.0000

> <Gold.Chemscore.DEClash>
0.0551

> <Gold.Chemscore.DEInternal>
1.9235

> <Gold.Chemscore.Rot>
3.0607

> <Gold.Chemscore.Internal.Correction>
   9.000000E+99

> <Gold.Chemscore.Hbonds>
donor molecule, donor type, donor heavy atom, donor atom, acceptor molecule, acceptor atom, score
      L1  H    15    27       P1  7957  1.00
      L1  H    18    31       P1 10175  0.98
      P1  H  7989  7998       L1     5  0.19
      P1  H  7997  8009       L1     3  0.25

> <Gold.Chemscore.Hbond.Weighted>
-8.2527

> <Gold.Chemscore.Metal.Weighted>
-0.0000

> <Gold.Chemscore.Lipo.Weighted>
-2.9731

> <Gold.Chemscore.Internal_Hbond.Weighted>
0.0000

> <Gold.Chemscore.DEClash.Weighted>
0.0551

> <Gold.Chemscore.DEInternal.Weighted>
1.9235

> <Gold.Chemscore.Rot.Weighted>
7.8354

> <Gold.Chemscore.Internal.Correction.Weighted>
   9.000000E+99

> <Gold.Protein.RotatedTorsions>
[ 6907 6896 6895 6894 ] final   -1.89 input  -60.11 | X-H torsion
[ 7974 7965 7964 7962 ] final  -26.70 input  175.53 | X-H torsion
[ 8008 7997 7996 7995 ] final -152.20 input   59.86 | X-H torsion
[ 10167 10162 10161 10158 ] final   84.69 input  -65.29 | X-H torsion
[ 10718 10713 10712 10709 ] final   96.32 input   66.30 | X-H torsion
[ 10763 10752 10751 10750 ] final  100.13 input  -60.55 | X-H torsion
[ 11005 11000 10999 10996 ] final    2.04 input  -57.11 | X-H torsion

> <Gold.Protein.ActiveResidues>
 VAL166  LYS551  ARG553  GLY616  TRP617  ASP618  TYR619  PRO620  LYS621  CYS622 
 ASP623  PHE694  ASN695  SER759  ASP760  ASP761  ALA762  ILE779  LEU786  VAL792 
 PHE793  MET794  SER795  GLU796  ALA797  LYS798  CYS799  TRP800  GLU811  SER814 

> <Gold.Protein.RotatedAtoms>
  151.5387  135.1068  159.9920 H   0  0  0  0  0  0  0  0  0  0  0  0  # atno 6907 bound_to 6896
  152.4545  133.7691  159.6799 H   0  0  0  0  0  0  0  0  0  0  0  0  # atno 6908 bound_to 6896
  150.8484  133.7759  159.3059 H   0  0  0  0  0  0  0  0  0  0  0  0  # atno 6909 bound_to 6896
  146.1408  140.5054  142.8653 H   0  0  0  0  0  0  0  0  0  0  0  0  # atno 7974 bound_to 7965
  155.6514  140.0712  157.2585 H   0  0  0  0  0  0  0  0  0  0  0  0  # atno 8008 bound_to 7997
  154.4162  140.1732  156.1729 H   0  0  0  0  0  0  0  0  0  0  0  0  # atno 8009 bound_to 7997
  155.9774  140.3357  155.6634 H   0  0  0  0  0  0  0  0  0  0  0  0  # atno 8010 bound_to 7997
  139.9054  144.6304  150.8593 H   0  0  0  0  0  0  0  0  0  0  0  0  # atno 10167 bound_to 10162
  157.6928  131.0574  150.4473 H   0  0  0  0  0  0  0  0  0  0  0  0  # atno 10718 bound_to 10713
  153.3101  135.4089  155.1328 H   0  0  0  0  0  0  0  0  0  0  0  0  # atno 10763 bound_to 10752
  154.8573  135.3562  154.5735 H   0  0  0  0  0  0  0  0  0  0  0  0  # atno 10764 bound_to 10752
  153.6164  135.7066  153.5386 H   0  0  0  0  0  0  0  0  0  0  0  0  # atno 10765 bound_to 10752
  140.6087  133.9768  155.8167 H   0  0  0  0  0  0  0  0  0  0  0  0  # atno 11005 bound_to 11000
  144.7790  140.5800  143.6618 LP  0  0  0  0  0  0  0  0  0  0  0  0  # atno 17320 bound_to 7965
  145.5052  139.1481  143.3635 LP  0  0  0  0  0  0  0  0  0  0  0  0  # atno 17321 bound_to 7965
  140.7697  143.3405  151.2218 LP  0  0  0  0  0  0  0  0  0  0  0  0  # atno 17342 bound_to 10162
  139.6989  143.9567  152.2896 LP  0  0  0  0  0  0  0  0  0  0  0  0  # atno 17343 bound_to 10162
  156.4827  130.4077  149.6452 LP  0  0  0  0  0  0  0  0  0  0  0  0  # atno 17370 bound_to 10713
  156.3492  130.7423  151.2380 LP  0  0  0  0  0  0  0  0  0  0  0  0  # atno 17371 bound_to 10713
  141.0823  134.0044  157.3367 LP  0  0  0  0  0  0  0  0  0  0  0  0  # atno 17394 bound_to 11000
  139.9201  135.0200  156.8032 LP  0  0  0  0  0  0  0  0  0  0  0  0  # atno 17395 bound_to 11000

$$$$
