AV-unprocessed.smi:2559|AV-procd|sdf|10037|dock4
  -GOLD-   2272014 83D 1   1.00000     0.00000
 Structure written by MMmdl.
 43 45  0  0  0  0  0  0  0  0  2 V2000
  155.2484  138.4354  161.4014 C   0  0  0  0  0  0  0  0  0  0  0  0
  154.1427  138.1756  160.4741 N   0  0  0  0  0  0  0  0  0  0  0  0
  153.7740  136.9137  160.0836 C   0  0  0  0  0  0  0  0  0  0  0  0
  154.3907  135.9494  160.5369 O   0  0  0  0  0  0  0  0  0  0  0  0
  152.7304  136.7500  159.1980 N   0  5  0  0  0  0  0  0  0  0  0  0
  151.9868  137.7522  158.6318 C   0  0  0  0  0  0  0  0  0  0  0  0
  151.0779  137.6167  157.8151 O   0  0  0  0  0  0  0  0  0  0  0  0
  152.4032  139.0923  159.1050 C   0  0  0  0  0  0  0  0  0  0  0  0
  153.4342  139.2964  159.9674 C   0  0  0  0  0  0  0  0  0  0  0  0
  153.6375  140.6465  160.2026 N   0  0  0  0  0  0  0  0  0  0  0  0
  152.6813  141.2230  159.4719 C   0  0  0  0  0  0  0  0  0  0  0  0
  152.5151  142.6068  159.3952 N   0  0  0  0  0  0  0  0  0  0  0  0
  152.2506  143.3162  158.1445 C   0  0  0  0  0  0  0  0  0  0  0  0
  151.0871  144.3127  158.2956 C   0  0  0  0  0  0  0  0  0  0  0  0
  151.3771  145.3225  159.4142 C   0  0  0  0  0  0  0  0  0  0  0  0
  151.7562  144.5804  160.7025 C   0  0  0  0  0  0  0  0  0  0  0  0
  152.8859  143.5713  160.4315 C   0  0  0  0  0  0  0  0  0  0  0  0
  151.9009  140.3560  158.7699 N   0  0  0  0  0  0  0  0  0  0  0  0
  150.8220  140.6726  157.8329 C   0  0  0  0  0  0  0  0  0  0  0  0
  151.2728  140.6023  156.3581 C   0  0  1  0  0  0  0  0  0  0  0  0
  151.8552  139.3419  156.0900 O   0  0  0  0  0  0  0  0  0  0  0  0
  150.1106  140.8032  155.3712 C   0  0  0  0  0  0  0  0  0  0  0  0
  150.4522  140.3248  154.0875 O   0  0  0  0  0  0  0  0  0  0  0  0
  155.7068  137.5386  161.8192 H   0  0  0  0  0  0  0  0  0  0  0  0
  154.8971  139.0369  162.2403 H   0  0  0  0  0  0  0  0  0  0  0  0
  156.0325  138.9966  160.8923 H   0  0  0  0  0  0  0  0  0  0  0  0
  153.1558  143.8342  157.8248 H   0  0  0  0  0  0  0  0  0  0  0  0
  152.0114  142.5958  157.3614 H   0  0  0  0  0  0  0  0  0  0  0  0
  150.9170  144.8355  157.3542 H   0  0  0  0  0  0  0  0  0  0  0  0
  150.1682  143.7693  158.5201 H   0  0  0  0  0  0  0  0  0  0  0  0
  152.1972  145.9753  159.1130 H   0  0  0  0  0  0  0  0  0  0  0  0
  150.5113  145.9630  159.5840 H   0  0  0  0  0  0  0  0  0  0  0  0
  152.0650  145.2928  161.4677 H   0  0  0  0  0  0  0  0  0  0  0  0
  150.8823  144.0615  161.0956 H   0  0  0  0  0  0  0  0  0  0  0  0
  153.1681  143.0540  161.3478 H   0  0  0  0  0  0  0  0  0  0  0  0
  153.7820  144.1023  160.1074 H   0  0  0  0  0  0  0  0  0  0  0  0
  149.9777  140.0104  158.0081 H   0  0  0  0  0  0  0  0  0  0  0  0
  150.4297  141.6609  158.0537 H   0  0  0  0  0  0  0  0  0  0  0  0
  152.0374  141.3579  156.1736 H   0  0  0  0  0  0  0  0  0  0  0  0
  151.7957  138.8116  156.8711 H   0  0  0  0  0  0  0  0  0  0  0  0
  149.2262  140.2620  155.7096 H   0  0  0  0  0  0  0  0  0  0  0  0
  149.8369  141.8565  155.3011 H   0  0  0  0  0  0  0  0  0  0  0  0
  149.8091  139.6834  153.8267 H   0  0  0  0  0  0  0  0  0  0  0  0
  1  2  1  0  0  0  0
  1 24  1  0  0  0  0
  1 25  1  0  0  0  0
  1 26  1  0  0  0  0
  2  9  1  0  0  0  0
  2  3  1  0  0  0  0
  3  4  2  0  0  0  0
  3  5  1  0  0  0  0
  5  6  1  0  0  0  0
  6  7  2  0  0  0  0
  6  8  1  0  0  0  0
  8 18  1  0  0  0  0
  8  9  2  0  0  0  0
  9 10  1  0  0  0  0
 10 11  2  0  0  0  0
 11 12  1  0  0  0  0
 11 18  1  0  0  0  0
 12 17  1  0  0  0  0
 12 13  1  0  0  0  0
 13 14  1  0  0  0  0
 13 27  1  0  0  0  0
 13 28  1  0  0  0  0
 14 15  1  0  0  0  0
 14 29  1  0  0  0  0
 14 30  1  0  0  0  0
 15 16  1  0  0  0  0
 15 31  1  0  0  0  0
 15 32  1  0  0  0  0
 16 17  1  0  0  0  0
 16 33  1  0  0  0  0
 16 34  1  0  0  0  0
 17 35  1  0  0  0  0
 17 36  1  0  0  0  0
 18 19  1  0  0  0  0
 19 20  1  0  0  0  0
 19 37  1  0  0  0  0
 19 38  1  0  0  0  0
 20 21  1  0  0  0  0
 20 22  1  0  0  0  0
 20 39  1  0  0  0  0
 21 40  1  0  0  0  0
 22 23  1  0  0  0  0
 22 41  1  0  0  0  0
 22 42  1  0  0  0  0
 23 43  1  0  0  0  0
M  CHG  1   5  -1
M  END
> <s_m_source_file>
AV-unprocessed.smi

> <i_m_source_file_index>
2559

> <i_lp_mmshare_version>
43012

> <i_f3d_flags>
0

> <s_epik_input>
Tz1jMVtuSF1jKD1PKW4oW0NIM10pYyhjMTIpbmMobjJbQ0gyXVtDQEhdKFtPSF0pW0NIMl1bT0hdKU4zW0NIMl1bQ0gyXVtDSDJdW0NIMl1bQ0gyXTM=

> <s_epik_cmdline>
J2VwaWtfcHl0aG9uJywgJy1waCcsICc3LjAnLCAnLXRuJywgJzgnLCAnLW1hJywgJzIwMCcsICctbWV0YWxfYmluZGluZycsICctaW1hZScsICc8aW5maWxlLm1hZT4nLCAnLW9tYWUnLCAnPG91dGZpbGUubWFlPic=

> <r_lp_tautomer_probability>
1

> <r_epik_Ionization_Penalty>
5.90509

> <r_epik_Ionization_Penalty_Charging>
0.0759636

> <r_epik_Ionization_Penalty_Neutral>
5.82913

> <r_epik_State_Penalty>
5.18635

> <r_epik_Charging_Adjusted_Penalty>
5.26231

> <i_epik_Tot_Q>
-1

> <i_epik_Tot_abs_Q>
1

> <r_epik_Metal_State_Penalty>
1.25614

> <b_epik_Metal_Only>
1

> <s_lp_Force_Field>
OPLS_2005

> <r_lp_Energy>
39.3002

> <b_lp_Chiralities_Consistent>
1

> <s_lp_Variant>
AV-unprocessed.smi:2559-4

> <Gold.Version>
5.8.1

> <Gold.Id.Protein>
6NUR|6NUR_protein|mol2

> <Gold.PLP.Fitness>
52.2603

> <Gold.PLP.PLP>
-44.4774

> <Gold.PLP.part.hbond>
-2.5509

> <Gold.PLP.part.metal>
0.0000

> <Gold.PLP.part.buried>
-7.8454

> <Gold.PLP.part.nonpolar>
-34.3923

> <Gold.PLP.part.repulsive>
0.0000

> <Gold.PLP.ligand.clash>
0.0000

> <Gold.PLP.ligand.torsion>
0.9573

> <Gold.PLP.Chemscore.Hbond>
3.0000

> <Gold.PLP.Chemscore.CHOScore>
0.0000

> <Gold.PLP.Chemscore.Metal>
0.0000

> <Gold.Chemscore.Hbonds>
donor molecule, donor type, donor heavy atom, donor atom, acceptor molecule, acceptor atom, score
      P1  H  6896  6907       L1     5  1.98
      P1  H  7989  7998       L1    23  0.71

> <Gold.PLP.Chemscore.Internal.Correction>
0.6974

> <Gold.Rescore>
     Score         DG    S(hbond)    S(metal)    S(lipo)     H(rot)  DE(clash)    DE(int)     intcor
     12.52     -14.17       1.85        0.00      85.51       2.93       0.06       1.59       ----

> <Gold.Chemscore.Fitness>
12.5178

> <Gold.Chemscore.DG>
-14.1703

> <Gold.Chemscore.ZeroCoef>
-5.4800

> <Gold.Chemscore.Hbond>
1.8544

> <Gold.Chemscore.Metal>
0.0000

> <Gold.Chemscore.Lipo>
85.5123

> <Gold.Chemscore.Internal_Hbond>
0.0000

> <Gold.Chemscore.DEClash>
0.0580

> <Gold.Chemscore.DEInternal>
1.5946

> <Gold.Chemscore.Rot>
2.9330

> <Gold.Chemscore.Internal.Correction>
   9.000000E+99

> <Gold.Chemscore.Hbonds>
donor molecule, donor type, donor heavy atom, donor atom, acceptor molecule, acceptor atom, score
      P1  H  6896  6907       L1     5  0.22
      P1  H  7989  7998       L1    23  0.62

> <Gold.Chemscore.Hbond.Weighted>
-6.1938

> <Gold.Chemscore.Metal.Weighted>
-0.0000

> <Gold.Chemscore.Lipo.Weighted>
-10.0049

> <Gold.Chemscore.Internal_Hbond.Weighted>
0.0000

> <Gold.Chemscore.DEClash.Weighted>
0.0580

> <Gold.Chemscore.DEInternal.Weighted>
1.5946

> <Gold.Chemscore.Rot.Weighted>
7.5084

> <Gold.Chemscore.Internal.Correction.Weighted>
   9.000000E+99

> <Gold.Protein.RotatedTorsions>
[ 6907 6896 6895 6894 ] final   15.26 input  -60.11 | X-H torsion
[ 7974 7965 7964 7962 ] final -156.40 input  175.53 | X-H torsion
[ 8008 7997 7996 7995 ] final   44.91 input   59.86 | X-H torsion
[ 10167 10162 10161 10158 ] final -138.87 input  -65.29 | X-H torsion
[ 10718 10713 10712 10709 ] final -155.17 input   66.30 | X-H torsion
[ 10763 10752 10751 10750 ] final  -99.23 input  -60.55 | X-H torsion
[ 11005 11000 10999 10996 ] final  132.53 input  -57.11 | X-H torsion

> <Gold.Protein.ActiveResidues>
 VAL166  LYS551  ARG553  GLY616  TRP617  ASP618  TYR619  PRO620  LYS621  CYS622 
 ASP623  PHE694  ASN695  SER759  ASP760  ASP761  ALA762  ILE779  LEU786  VAL792 
 PHE793  MET794  SER795  GLU796  ALA797  LYS798  CYS799  TRP800  GLU811  SER814 

> <Gold.Protein.RotatedAtoms>
  151.8153  135.0668  160.0417 H   0  0  0  0  0  0  0  0  0  0  0  0  # atno 6907 bound_to 6896
  152.2991  133.5632  159.5615 H   0  0  0  0  0  0  0  0  0  0  0  0  # atno 6908 bound_to 6896
  150.7265  134.0234  159.3751 H   0  0  0  0  0  0  0  0  0  0  0  0  # atno 6909 bound_to 6896
  144.7595  140.4115  143.5987 H   0  0  0  0  0  0  0  0  0  0  0  0  # atno 7974 bound_to 7965
  155.3272  140.3400  155.4240 H   0  0  0  0  0  0  0  0  0  0  0  0  # atno 8008 bound_to 7997
  156.1880  140.1687  156.8185 H   0  0  0  0  0  0  0  0  0  0  0  0  # atno 8009 bound_to 7997
  154.5408  140.0725  156.8490 H   0  0  0  0  0  0  0  0  0  0  0  0  # atno 8010 bound_to 7997
  139.8435  143.7291  152.2662 H   0  0  0  0  0  0  0  0  0  0  0  0  # atno 10167 bound_to 10162
  156.5093  130.8427  151.2640 H   0  0  0  0  0  0  0  0  0  0  0  0  # atno 10718 bound_to 10713
  154.7481  135.4980  153.9239 H   0  0  0  0  0  0  0  0  0  0  0  0  # atno 10763 bound_to 10752
  153.1113  135.6710  153.9503 H   0  0  0  0  0  0  0  0  0  0  0  0  # atno 10764 bound_to 10752
  153.9262  135.3083  155.3426 H   0  0  0  0  0  0  0  0  0  0  0  0  # atno 10765 bound_to 10752
  139.9796  134.9552  156.9595 H   0  0  0  0  0  0  0  0  0  0  0  0  # atno 11005 bound_to 11000
  145.6667  139.1591  143.2777 LP  0  0  0  0  0  0  0  0  0  0  0  0  # atno 17320 bound_to 7965
  146.1642  140.6743  142.9263 LP  0  0  0  0  0  0  0  0  0  0  0  0  # atno 17321 bound_to 7965
  139.7535  144.7527  151.0470 LP  0  0  0  0  0  0  0  0  0  0  0  0  # atno 17342 bound_to 10162
  140.7795  143.4832  150.9990 LP  0  0  0  0  0  0  0  0  0  0  0  0  # atno 17343 bound_to 10162
  157.7453  130.9955  150.2746 LP  0  0  0  0  0  0  0  0  0  0  0  0  # atno 17370 bound_to 10713
  156.3256  130.3792  149.7536 LP  0  0  0  0  0  0  0  0  0  0  0  0  # atno 17371 bound_to 10713
  140.5124  134.0989  155.7273 LP  0  0  0  0  0  0  0  0  0  0  0  0  # atno 17394 bound_to 11000
  141.1469  133.9038  157.2193 LP  0  0  0  0  0  0  0  0  0  0  0  0  # atno 17395 bound_to 11000

$$$$
