AV-unprocessed.smi:280|AV-procd|sdf|2100|dock9
  -GOLD-   2262021393D 1   1.00000     0.00000
 Structure written by MMmdl.
 59 62  0  0  0  0  0  0  0  0  2 V2000
  144.2848  135.4566  152.8449 C   0  0  0  0  0  0  0  0  0  0  0  0
  145.7452  134.9949  152.6589 C   0  0  1  0  0  0  0  0  0  0  0  0
  146.3695  134.8134  154.0617 C   0  0  0  0  0  0  0  0  0  0  0  0
  147.7116  134.2480  154.0017 N   0  0  0  0  0  0  0  0  0  0  0  0
  148.4230  134.3456  155.1540 C   0  0  0  0  0  0  0  0  0  0  0  0
  148.7737  133.2202  155.8325 N   0  0  0  0  0  0  0  0  0  0  0  0
  149.4721  133.3064  156.9684 C   0  0  0  0  0  0  0  0  0  0  0  0
  149.9173  134.3982  157.5923 N   0  0  0  0  0  0  0  0  0  0  0  0
  149.5739  135.5312  156.9157 C   0  0  0  0  0  0  0  0  0  0  0  0
  148.8339  135.5942  155.7010 C   0  0  0  0  0  0  0  0  0  0  0  0
  148.6907  136.9182  155.3037 N   0  0  0  0  0  0  0  0  0  0  0  0
  149.3060  137.5986  156.2320 C   0  0  0  0  0  0  0  0  0  0  0  0
  149.8586  136.8460  157.2440 N   0  0  0  0  0  0  0  0  0  0  0  0
  150.6030  137.3407  158.3927 C   0  0  0  0  0  0  0  0  0  0  0  0
  151.9154  138.0610  158.0230 C   0  0  0  0  0  0  0  0  0  0  0  0
  152.9115  137.9984  159.1941 C   0  0  0  0  0  0  0  0  0  0  0  0
  153.0568  136.6773  159.6745 O   0  0  0  0  0  0  0  0  0  0  0  0
  152.5075  137.7146  156.6500 C   0  0  0  0  0  0  0  0  0  0  0  0
  152.6113  139.1057  156.2787 O   0  0  0  0  0  0  0  0  0  0  0  0
  151.7631  139.4533  157.3934 C   0  0  0  0  0  0  0  0  0  0  0  0
  147.7908  132.9981  153.2567 C   0  0  0  0  0  0  0  0  0  0  0  0
  147.2435  133.1943  151.8394 C   0  0  0  0  0  0  0  0  0  0  0  0
  145.8599  133.7440  151.8431 N   0  3  2  0  0  0  0  0  0  0  0  0
  145.3252  133.8524  150.4534 C   0  0  0  0  0  0  0  0  0  0  0  0
  144.2421  132.7917  150.1373 C   0  0  0  0  0  0  0  0  0  0  0  0
  143.9186  132.6971  148.6355 C   0  0  0  0  0  0  0  0  0  0  0  0
  144.6792  131.4170  150.6712 C   0  0  0  0  0  0  0  0  0  0  0  0
  143.0521  133.1285  150.8226 O   0  0  0  0  0  0  0  0  0  0  0  0
  144.2394  136.3328  153.4923 H   0  0  0  0  0  0  0  0  0  0  0  0
  143.6805  134.6789  153.3123 H   0  0  0  0  0  0  0  0  0  0  0  0
  143.8001  135.7403  151.9125 H   0  0  0  0  0  0  0  0  0  0  0  0
  146.2976  135.7804  152.1400 H   0  0  0  0  0  0  0  0  0  0  0  0
  146.3710  135.7715  154.5808 H   0  0  0  0  0  0  0  0  0  0  0  0
  145.7492  134.1422  154.6578 H   0  0  0  0  0  0  0  0  0  0  0  0
  149.7093  132.3663  157.4445 H   0  0  0  0  0  0  0  0  0  0  0  0
  149.3760  138.6760  156.1995 H   0  0  0  0  0  0  0  0  0  0  0  0
  149.9527  137.9957  158.9732 H   0  0  0  0  0  0  0  0  0  0  0  0
  150.8077  136.4881  159.0414 H   0  0  0  0  0  0  0  0  0  0  0  0
  153.8954  138.3479  158.8799 H   0  0  0  0  0  0  0  0  0  0  0  0
  152.6097  138.6469  160.0163 H   0  0  0  0  0  0  0  0  0  0  0  0
  153.9117  136.5919  160.0683 H   0  0  0  0  0  0  0  0  0  0  0  0
  153.4782  137.2190  156.6938 H   0  0  0  0  0  0  0  0  0  0  0  0
  151.8234  137.1711  155.9962 H   0  0  0  0  0  0  0  0  0  0  0  0
  150.7499  139.6876  157.0640 H   0  0  0  0  0  0  0  0  0  0  0  0
  152.1732  140.2631  157.9982 H   0  0  0  0  0  0  0  0  0  0  0  0
  148.8254  132.6560  153.2019 H   0  0  0  0  0  0  0  0  0  0  0  0
  147.2201  132.2265  153.7758 H   0  0  0  0  0  0  0  0  0  0  0  0
  147.8988  133.8747  151.2928 H   0  0  0  0  0  0  0  0  0  0  0  0
  147.2678  132.2414  151.3106 H   0  0  0  0  0  0  0  0  0  0  0  0
  144.9158  134.8433  150.2662 H   0  0  0  0  0  0  0  0  0  0  0  0
  146.1406  133.7671  149.7326 H   0  0  0  0  0  0  0  0  0  0  0  0
  144.8059  132.4377  148.0572 H   0  0  0  0  0  0  0  0  0  0  0  0
  143.5288  133.6370  148.2441 H   0  0  0  0  0  0  0  0  0  0  0  0
  143.1669  131.9311  148.4407 H   0  0  0  0  0  0  0  0  0  0  0  0
  145.5938  131.0782  150.1835 H   0  0  0  0  0  0  0  0  0  0  0  0
  143.9152  130.6582  150.4967 H   0  0  0  0  0  0  0  0  0  0  0  0
  144.8716  131.4479  151.7445 H   0  0  0  0  0  0  0  0  0  0  0  0
  142.5343  133.6932  150.2684 H   0  0  0  0  0  0  0  0  0  0  0  0
  145.2853  133.0575  152.3109 H   0  0  0  0  0  0  0  0  0  0  0  0
  1  2  1  0  0  0  0
  1 29  1  0  0  0  0
  1 30  1  0  0  0  0
  1 31  1  0  0  0  0
  2 23  1  0  0  0  0
  2  3  1  0  0  0  0
  2 32  1  0  0  0  0
  3  4  1  0  0  0  0
  3 33  1  0  0  0  0
  3 34  1  0  0  0  0
  4  5  1  0  0  0  0
  4 21  1  0  0  0  0
  5 10  1  0  0  0  0
  5  6  2  0  0  0  0
  6  7  1  0  0  0  0
  7  8  2  0  0  0  0
  7 35  1  0  0  0  0
  8  9  1  0  0  0  0
  9 13  1  0  0  0  0
  9 10  2  0  0  0  0
 10 11  1  0  0  0  0
 11 12  2  0  0  0  0
 12 13  1  0  0  0  0
 12 36  1  0  0  0  0
 13 14  1  0  0  0  0
 14 15  1  0  0  0  0
 14 37  1  0  0  0  0
 14 38  1  0  0  0  0
 15 20  1  0  0  0  0
 15 16  1  0  0  0  0
 15 18  1  0  0  0  0
 16 17  1  0  0  0  0
 16 39  1  0  0  0  0
 16 40  1  0  0  0  0
 17 41  1  0  0  0  0
 18 19  1  0  0  0  0
 18 42  1  0  0  0  0
 18 43  1  0  0  0  0
 19 20  1  0  0  0  0
 20 44  1  0  0  0  0
 20 45  1  0  0  0  0
 21 22  1  0  0  0  0
 21 46  1  0  0  0  0
 21 47  1  0  0  0  0
 22 23  1  0  0  0  0
 22 48  1  0  0  0  0
 22 49  1  0  0  0  0
 23 24  1  0  0  0  0
 23 59  1  0  0  0  0
 24 25  1  0  0  0  0
 24 50  1  0  0  0  0
 24 51  1  0  0  0  0
 25 26  1  0  0  0  0
 25 27  1  0  0  0  0
 25 28  1  0  0  0  0
 26 52  1  0  0  0  0
 26 53  1  0  0  0  0
 26 54  1  0  0  0  0
 27 55  1  0  0  0  0
 27 56  1  0  0  0  0
 27 57  1  0  0  0  0
 28 58  1  0  0  0  0
M  CHG  1  23   1
M  END
> <s_m_source_file>
AV-unprocessed.smi

> <i_m_source_file_index>
280

> <i_lp_mmshare_version>
43012

> <i_f3d_flags>
0

> <s_epik_input>
W0NIM11DKFtDSDNdKShbT0hdKVtDSDJdTjFbQ0gyXVtDSDJdTihbQ0gyXVtDQEhdMVtDSDNdKWMobltjSF1uMiljKGMyMyluW2NIXW4zW0NIMl1DNChbQ0gyXVtPSF0pW0NIMl1PW0NIMl00

> <s_epik_cmdline>
J2VwaWtfcHl0aG9uJywgJy1waCcsICc3LjAnLCAnLXRuJywgJzgnLCAnLW1hJywgJzIwMCcsICctbWV0YWxfYmluZGluZycsICctaW1hZScsICc8aW5maWxlLm1hZT4nLCAnLW9tYWUnLCAnPG91dGZpbGUubWFlPic=

> <r_lp_tautomer_probability>
1

> <r_epik_Ionization_Penalty>
0.00179402

> <r_epik_Ionization_Penalty_Charging>
0.00173996

> <r_epik_Ionization_Penalty_Neutral>
5.40607e-05

> <r_epik_State_Penalty>
-0

> <r_epik_Charging_Adjusted_Penalty>
0.00173996

> <i_epik_Tot_Q>
1

> <i_epik_Tot_abs_Q>
1

> <r_epik_Metal_State_Penalty>
-0

> <b_epik_Metal_Only>
0

> <s_lp_Force_Field>
OPLS_2005

> <r_lp_Energy>
52.0143

> <b_lp_Chiralities_Consistent>
1

> <s_lp_Variant>
AV-unprocessed.smi:280-4

> <Gold.Version>
5.8.1

> <Gold.Id.Protein>
6NUR|6NUR_protein|mol2

> <Gold.PLP.Fitness>
43.3051

> <Gold.PLP.PLP>
-33.6223

> <Gold.PLP.part.hbond>
-4.0000

> <Gold.PLP.part.metal>
0.0000

> <Gold.PLP.part.buried>
-6.9439

> <Gold.PLP.part.nonpolar>
-23.3971

> <Gold.PLP.part.repulsive>
0.2077

> <Gold.PLP.ligand.clash>
0.0000

> <Gold.PLP.ligand.torsion>
1.8183

> <Gold.PLP.Chemscore.Hbond>
3.9600

> <Gold.PLP.Chemscore.CHOScore>
0.0000

> <Gold.PLP.Chemscore.Metal>
0.0000

> <Gold.Chemscore.Hbonds>
donor molecule, donor type, donor heavy atom, donor atom, acceptor molecule, acceptor atom, score
      L1  H    28    58       P1 10186  1.00
      P1  H  6896  6907       L1    17  1.00
      P1  H  6896  6909       L1     8  0.90
      P1  H  7997  8008       L1    19  0.96

> <Gold.PLP.Chemscore.Internal.Correction>
1.4394

> <Gold.Rescore>
     Score         DG    S(hbond)    S(metal)    S(lipo)     H(rot)  DE(clash)    DE(int)     intcor
     16.26     -18.24       3.74        0.00      81.58       3.63       0.06       1.92       ----

> <Gold.Chemscore.Fitness>
16.2558

> <Gold.Chemscore.DG>
-18.2408

> <Gold.Chemscore.ZeroCoef>
-5.4800

> <Gold.Chemscore.Hbond>
3.7420

> <Gold.Chemscore.Metal>
0.0000

> <Gold.Chemscore.Lipo>
81.5804

> <Gold.Chemscore.Internal_Hbond>
0.0000

> <Gold.Chemscore.DEClash>
0.0609

> <Gold.Chemscore.DEInternal>
1.9241

> <Gold.Chemscore.Rot>
3.6260

> <Gold.Chemscore.Internal.Correction>
   9.000000E+99

> <Gold.Chemscore.Hbonds>
donor molecule, donor type, donor heavy atom, donor atom, acceptor molecule, acceptor atom, score
      L1  H    28    58       P1 10186  0.98
      P1  H  6896  6907       L1    17  0.69
      P1  H  6896  6909       L1     8  0.84
      P1  H  7997  8008       L1    19  0.83

> <Gold.Chemscore.Hbond.Weighted>
-12.4984

> <Gold.Chemscore.Metal.Weighted>
-0.0000

> <Gold.Chemscore.Lipo.Weighted>
-9.5449

> <Gold.Chemscore.Internal_Hbond.Weighted>
0.0000

> <Gold.Chemscore.DEClash.Weighted>
0.0609

> <Gold.Chemscore.DEInternal.Weighted>
1.9241

> <Gold.Chemscore.Rot.Weighted>
9.2825

> <Gold.Chemscore.Internal.Correction.Weighted>
   9.000000E+99

> <Gold.Protein.RotatedTorsions>
[ 6907 6896 6895 6894 ] final   25.65 input  -60.11 | X-H torsion
[ 7974 7965 7964 7962 ] final  -52.59 input  175.53 | X-H torsion
[ 8008 7997 7996 7995 ] final  -29.87 input   59.86 | X-H torsion
[ 10167 10162 10161 10158 ] final   -9.62 input  -65.29 | X-H torsion
[ 10718 10713 10712 10709 ] final  -93.44 input   66.30 | X-H torsion
[ 10763 10752 10751 10750 ] final   74.92 input  -60.55 | X-H torsion
[ 11005 11000 10999 10996 ] final -156.61 input  -57.11 | X-H torsion

> <Gold.Protein.ActiveResidues>
 VAL166  LYS551  ARG553  GLY616  TRP617  ASP618  TYR619  PRO620  LYS621  CYS622 
 ASP623  PHE694  ASN695  SER759  ASP760  ASP761  ALA762  ILE779  LEU786  VAL792 
 PHE793  MET794  SER795  GLU796  ALA797  LYS798  CYS799  TRP800  GLU811  SER814 

> <Gold.Protein.RotatedAtoms>
  151.9757  135.0054  160.0554 H   0  0  0  0  0  0  0  0  0  0  0  0  # atno 6907 bound_to 6896
  152.1742  133.4659  159.4933 H   0  0  0  0  0  0  0  0  0  0  0  0  # atno 6908 bound_to 6896
  150.6906  134.1832  159.4299 H   0  0  0  0  0  0  0  0  0  0  0  0  # atno 6909 bound_to 6896
  145.9063  140.7952  142.9718 H   0  0  0  0  0  0  0  0  0  0  0  0  # atno 7974 bound_to 7965
  154.4272  140.1806  156.1317 H   0  0  0  0  0  0  0  0  0  0  0  0  # atno 8008 bound_to 7997
  156.0062  140.3355  155.6870 H   0  0  0  0  0  0  0  0  0  0  0  0  # atno 8009 bound_to 7997
  155.6174  140.0656  157.2679 H   0  0  0  0  0  0  0  0  0  0  0  0  # atno 8010 bound_to 7997
  140.7092  143.5837  150.8965 H   0  0  0  0  0  0  0  0  0  0  0  0  # atno 10167 bound_to 10162
  156.0013  130.5027  150.5776 H   0  0  0  0  0  0  0  0  0  0  0  0  # atno 10718 bound_to 10713
  153.0619  135.5008  154.8113 H   0  0  0  0  0  0  0  0  0  0  0  0  # atno 10763 bound_to 10752
  154.6896  135.2982  154.9501 H   0  0  0  0  0  0  0  0  0  0  0  0  # atno 10764 bound_to 10752
  154.0260  135.6736  153.4829 H   0  0  0  0  0  0  0  0  0  0  0  0  # atno 10765 bound_to 10752
  140.6737  134.4220  157.5230 H   0  0  0  0  0  0  0  0  0  0  0  0  # atno 11005 bound_to 11000
  144.6739  140.1756  143.7410 LP  0  0  0  0  0  0  0  0  0  0  0  0  # atno 17320 bound_to 7965
  145.8728  139.2281  143.1651 LP  0  0  0  0  0  0  0  0  0  0  0  0  # atno 17321 bound_to 7965
  139.9563  143.6214  152.3015 LP  0  0  0  0  0  0  0  0  0  0  0  0  # atno 17342 bound_to 10162
  139.6751  144.7659  151.1711 LP  0  0  0  0  0  0  0  0  0  0  0  0  # atno 17343 bound_to 10162
  157.3661  131.0758  151.1596 LP  0  0  0  0  0  0  0  0  0  0  0  0  # atno 17370 bound_to 10713
  157.2365  130.6549  149.5871 LP  0  0  0  0  0  0  0  0  0  0  0  0  # atno 17371 bound_to 10713
  139.8973  134.8639  156.2048 LP  0  0  0  0  0  0  0  0  0  0  0  0  # atno 17394 bound_to 11000
  141.0372  133.6957  156.1534 LP  0  0  0  0  0  0  0  0  0  0  0  0  # atno 17395 bound_to 11000

$$$$
