AV-unprocessed.smi:2098|AV-procd|sdf|8568|dock7
  -GOLD-   2272011293D 1   1.00000     0.00000
 Structure written by MMmdl.
 37 39  0  0  0  0  0  0  0  0  2 V2000
  150.8757  137.2030  157.1197 O   0  0  0  0  0  0  0  0  0  0  0  0
  149.9296  138.0411  157.7537 C   0  0  1  0  0  0  0  0  0  0  0  0
  149.6823  137.5163  159.1751 C   0  0  0  0  0  0  0  0  0  0  0  0
  149.1603  136.1965  159.0927 O   0  0  0  0  0  0  0  0  0  0  0  0
  148.2787  135.7816  160.0674 C   0  0  0  0  0  0  0  0  0  0  0  0
  147.7504  134.4799  159.9403 C   0  0  0  0  0  0  0  0  0  0  0  0
  146.8395  133.9755  160.8886 C   0  0  0  0  0  0  0  0  0  0  0  0
  146.4481  134.7720  161.9802 C   0  0  0  0  0  0  0  0  0  0  0  0
  145.5716  134.2895  162.8924 F   0  0  0  0  0  0  0  0  0  0  0  0
  146.9698  136.0711  162.1218 C   0  0  0  0  0  0  0  0  0  0  0  0
  147.8799  136.5761  161.1726 C   0  0  0  0  0  0  0  0  0  0  0  0
  150.4364  139.4977  157.7425 C   0  0  0  0  0  0  0  0  0  0  0  0
  151.5967  139.7034  158.6185 N   0  0  0  0  0  0  0  0  0  0  0  0
  152.4979  138.8075  159.1049 C   0  0  0  0  0  0  0  0  0  0  0  0
  153.3899  139.4962  159.8702 N   0  3  0  0  0  0  0  0  0  0  0  0
  153.0518  140.8515  159.8745 C   0  0  0  0  0  0  0  0  0  0  0  0
  153.6509  141.9394  160.5022 C   0  0  0  0  0  0  0  0  0  0  0  0
  153.0484  143.1984  160.2976 C   0  0  0  0  0  0  0  0  0  0  0  0
  151.8965  143.3408  159.4967 C   0  0  0  0  0  0  0  0  0  0  0  0
  151.2967  142.2309  158.8661 C   0  0  0  0  0  0  0  0  0  0  0  0
  151.8994  140.9907  159.0728 C   0  0  0  0  0  0  0  0  0  0  0  0
  150.7738  136.3261  157.4569 H   0  0  0  0  0  0  0  0  0  0  0  0
  149.0009  137.9697  157.1864 H   0  0  0  0  0  0  0  0  0  0  0  0
  150.6227  137.5001  159.7291 H   0  0  0  0  0  0  0  0  0  0  0  0
  148.9892  138.1746  159.7020 H   0  0  0  0  0  0  0  0  0  0  0  0
  148.0450  133.8618  159.1048 H   0  0  0  0  0  0  0  0  0  0  0  0
  146.4411  132.9778  160.7777 H   0  0  0  0  0  0  0  0  0  0  0  0
  146.6717  136.6832  162.9602 H   0  0  0  0  0  0  0  0  0  0  0  0
  148.2585  137.5764  161.3165 H   0  0  0  0  0  0  0  0  0  0  0  0
  150.7110  139.8106  156.7344 H   0  0  0  0  0  0  0  0  0  0  0  0
  149.6499  140.1775  158.0736 H   0  0  0  0  0  0  0  0  0  0  0  0
  152.5062  137.7439  158.9155 H   0  0  0  0  0  0  0  0  0  0  0  0
  154.5332  141.8335  161.1162 H   0  0  0  0  0  0  0  0  0  0  0  0
  153.4788  144.0726  160.7642 H   0  0  0  0  0  0  0  0  0  0  0  0
  151.4638  144.3216  159.3629 H   0  0  0  0  0  0  0  0  0  0  0  0
  150.4152  142.3491  158.2531 H   0  0  0  0  0  0  0  0  0  0  0  0
  154.1712  139.0701  160.3519 H   0  0  0  0  0  0  0  0  0  0  0  0
  1  2  1  0  0  0  0
  1 22  1  0  0  0  0
  2  3  1  0  0  0  0
  2 12  1  0  0  0  0
  2 23  1  0  0  0  0
  3  4  1  0  0  0  0
  3 24  1  0  0  0  0
  3 25  1  0  0  0  0
  4  5  1  0  0  0  0
  5 11  1  0  0  0  0
  5  6  2  0  0  0  0
  6  7  1  0  0  0  0
  6 26  1  0  0  0  0
  7  8  2  0  0  0  0
  7 27  1  0  0  0  0
  8  9  1  0  0  0  0
  8 10  1  0  0  0  0
 10 11  2  0  0  0  0
 10 28  1  0  0  0  0
 11 29  1  0  0  0  0
 12 13  1  0  0  0  0
 12 30  1  0  0  0  0
 12 31  1  0  0  0  0
 13 21  1  0  0  0  0
 13 14  1  0  0  0  0
 14 15  2  0  0  0  0
 14 32  1  0  0  0  0
 15 16  1  0  0  0  0
 15 37  1  0  0  0  0
 16 21  2  0  0  0  0
 16 17  1  0  0  0  0
 17 18  2  0  0  0  0
 17 33  1  0  0  0  0
 18 19  1  0  0  0  0
 18 34  1  0  0  0  0
 19 20  2  0  0  0  0
 19 35  1  0  0  0  0
 20 21  1  0  0  0  0
 20 36  1  0  0  0  0
M  CHG  1  15   1
M  END
> <s_m_source_file>
AV-unprocessed.smi

> <i_m_source_file_index>
2098

> <i_lp_mmshare_version>
43012

> <i_f3d_flags>
0

> <s_epik_input>
W2NIXTFbY0hdW2NIXVtjSF1jKGMxMiluKFtjSF1uMilbQ0gyXVtDQEhdKFtPSF0pW0NIMl1PYzNbY0hdW2NIXWMoRilbY0hdW2NIXTM=

> <s_epik_cmdline>
J2VwaWtfcHl0aG9uJywgJy1waCcsICc3LjAnLCAnLXRuJywgJzgnLCAnLW1hJywgJzIwMCcsICctbWV0YWxfYmluZGluZycsICctaW1hZScsICc8aW5maWxlLm1hZT4nLCAnLW9tYWUnLCAnPG91dGZpbGUubWFlPic=

> <r_lp_tautomer_probability>
1

> <r_epik_Ionization_Penalty>
1.3832

> <r_epik_Ionization_Penalty_Charging>
1.38319

> <r_epik_Ionization_Penalty_Neutral>
2.3993e-06

> <r_epik_State_Penalty>
1.46389

> <r_epik_Charging_Adjusted_Penalty>
2.84709

> <i_epik_Tot_Q>
1

> <i_epik_Tot_abs_Q>
1

> <r_epik_Metal_State_Penalty>
5.50438

> <b_epik_Metal_Only>
0

> <s_lp_Force_Field>
OPLS_2005

> <r_lp_Energy>
18.1934

> <b_lp_Chiralities_Consistent>
1

> <s_lp_Variant>
AV-unprocessed.smi:2098-4

> <Gold.Version>
5.8.1

> <Gold.Id.Protein>
6NUR|6NUR_protein|mol2

> <Gold.PLP.Fitness>
42.9717

> <Gold.PLP.PLP>
-41.0328

> <Gold.PLP.part.hbond>
-1.0000

> <Gold.PLP.part.metal>
0.0000

> <Gold.PLP.part.buried>
-3.9364

> <Gold.PLP.part.nonpolar>
-35.9596

> <Gold.PLP.part.repulsive>
0.0698

> <Gold.PLP.ligand.clash>
0.0000

> <Gold.PLP.ligand.torsion>
0.5514

> <Gold.PLP.Chemscore.Hbond>
1.0000

> <Gold.PLP.Chemscore.CHOScore>
0.0000

> <Gold.PLP.Chemscore.Metal>
0.0000

> <Gold.Chemscore.Hbonds>
donor molecule, donor type, donor heavy atom, donor atom, acceptor molecule, acceptor atom, score
      P1  H  6896  6909       L1     4  0.43

> <Gold.PLP.Chemscore.Internal.Correction>
0.0418

> <Gold.Rescore>
     Score         DG    S(hbond)    S(metal)    S(lipo)     H(rot)  DE(clash)    DE(int)     intcor
     13.36     -14.98       0.83        0.00     111.29       2.46       0.11       1.51       ----

> <Gold.Chemscore.Fitness>
13.3601

> <Gold.Chemscore.DG>
-14.9801

> <Gold.Chemscore.ZeroCoef>
-5.4800

> <Gold.Chemscore.Hbond>
0.8301

> <Gold.Chemscore.Metal>
0.0000

> <Gold.Chemscore.Lipo>
111.2914

> <Gold.Chemscore.Internal_Hbond>
0.0000

> <Gold.Chemscore.DEClash>
0.1090

> <Gold.Chemscore.DEInternal>
1.5110

> <Gold.Chemscore.Rot>
2.4584

> <Gold.Chemscore.Internal.Correction>
   9.000000E+99

> <Gold.Chemscore.Hbonds>
donor molecule, donor type, donor heavy atom, donor atom, acceptor molecule, acceptor atom, score
      P1  H  6896  6909       L1     4  0.03

> <Gold.Chemscore.Hbond.Weighted>
-2.7726

> <Gold.Chemscore.Metal.Weighted>
-0.0000

> <Gold.Chemscore.Lipo.Weighted>
-13.0211

> <Gold.Chemscore.Internal_Hbond.Weighted>
0.0000

> <Gold.Chemscore.DEClash.Weighted>
0.1090

> <Gold.Chemscore.DEInternal.Weighted>
1.5110

> <Gold.Chemscore.Rot.Weighted>
6.2936

> <Gold.Chemscore.Internal.Correction.Weighted>
   9.000000E+99

> <Gold.Protein.RotatedTorsions>
[ 6907 6896 6895 6894 ] final   69.06 input  -60.11 | X-H torsion
[ 7974 7965 7964 7962 ] final  -30.04 input  175.53 | X-H torsion
[ 8008 7997 7996 7995 ] final    8.42 input   59.86 | X-H torsion
[ 10167 10162 10161 10158 ] final   49.75 input  -65.29 | X-H torsion
[ 10718 10713 10712 10709 ] final -128.80 input   66.30 | X-H torsion
[ 10763 10752 10751 10750 ] final  145.00 input  -60.55 | X-H torsion
[ 11005 11000 10999 10996 ] final -115.92 input  -57.11 | X-H torsion

> <Gold.Protein.ActiveResidues>
 VAL166  LYS551  ARG553  GLY616  TRP617  ASP618  TYR619  PRO620  LYS621  CYS622 
 ASP623  PHE694  ASN695  SER759  ASP760  ASP761  ALA762  ILE779  LEU786  VAL792 
 PHE793  MET794  SER795  GLU796  ALA797  LYS798  CYS799  TRP800  GLU811  SER814 

> <Gold.Protein.RotatedAtoms>
  152.4661  134.5071  159.9742 H   0  0  0  0  0  0  0  0  0  0  0  0  # atno 6907 bound_to 6896
  151.5108  133.3479  159.2892 H   0  0  0  0  0  0  0  0  0  0  0  0  # atno 6908 bound_to 6896
  150.8647  134.8036  159.7171 H   0  0  0  0  0  0  0  0  0  0  0  0  # atno 6909 bound_to 6896
  146.1173  140.5489  142.8751 H   0  0  0  0  0  0  0  0  0  0  0  0  # atno 7974 bound_to 7965
  154.7666  140.2794  155.6171 H   0  0  0  0  0  0  0  0  0  0  0  0  # atno 8008 bound_to 7997
  156.2926  140.2649  156.2386 H   0  0  0  0  0  0  0  0  0  0  0  0  # atno 8009 bound_to 7997
  154.9951  140.0373  157.2326 H   0  0  0  0  0  0  0  0  0  0  0  0  # atno 8010 bound_to 7997
  140.2796  144.3172  150.6268 H   0  0  0  0  0  0  0  0  0  0  0  0  # atno 10167 bound_to 10162
  156.1985  130.6842  151.0511 H   0  0  0  0  0  0  0  0  0  0  0  0  # atno 10718 bound_to 10713
  153.9981  135.2926  155.3405 H   0  0  0  0  0  0  0  0  0  0  0  0  # atno 10763 bound_to 10752
  154.7175  135.5123  153.8764 H   0  0  0  0  0  0  0  0  0  0  0  0  # atno 10764 bound_to 10752
  153.0778  135.6669  154.0226 H   0  0  0  0  0  0  0  0  0  0  0  0  # atno 10765 bound_to 10752
  141.0456  133.9767  157.2923 H   0  0  0  0  0  0  0  0  0  0  0  0  # atno 11005 bound_to 11000
  144.7564  140.5318  143.6766 LP  0  0  0  0  0  0  0  0  0  0  0  0  # atno 17320 bound_to 7965
  145.5541  139.1477  143.3378 LP  0  0  0  0  0  0  0  0  0  0  0  0  # atno 17321 bound_to 7965
  140.5823  143.2172  151.7406 LP  0  0  0  0  0  0  0  0  0  0  0  0  # atno 17342 bound_to 10162
  139.4966  144.4062  152.0129 LP  0  0  0  0  0  0  0  0  0  0  0  0  # atno 17343 bound_to 10162
  157.6972  131.0789  150.6933 LP  0  0  0  0  0  0  0  0  0  0  0  0  # atno 17370 bound_to 10713
  156.6990  130.4618  149.5578 LP  0  0  0  0  0  0  0  0  0  0  0  0  # atno 17371 bound_to 10713
  139.9309  135.0200  156.8397 LP  0  0  0  0  0  0  0  0  0  0  0  0  # atno 17394 bound_to 11000
  140.6152  134.0045  155.7594 LP  0  0  0  0  0  0  0  0  0  0  0  0  # atno 17395 bound_to 11000

$$$$
