AV-unprocessed.smi:890|AV-procd|sdf|4059|dock6
  -GOLD-   22720 1543D 1   1.00000     0.00000
 Structure written by MMmdl.
 51 54  0  0  0  0  0  0  0  0  1 V2000
  150.5527  134.2554  155.6567 O   0  0  0  0  0  0  0  0  0  0  0  0
  149.9487  134.7962  154.7303 C   0  0  0  0  0  0  0  0  0  0  0  0
  149.1417  134.1664  153.8603 N   0  0  0  0  0  0  0  0  0  0  0  0
  148.7962  132.7858  153.8170 C   0  0  0  0  0  0  0  0  0  0  0  0
  149.5947  131.7991  154.4455 C   0  0  0  0  0  0  0  0  0  0  0  0
  149.2165  130.4482  154.3609 C   0  0  0  0  0  0  0  0  0  0  0  0
  148.0476  130.1290  153.6502 C   0  0  0  0  0  0  0  0  0  0  0  0
  147.2666  131.0572  153.0625 N   0  0  0  0  0  0  0  0  0  0  0  0
  147.6102  132.3659  153.1488 C   0  0  0  0  0  0  0  0  0  0  0  0
  146.7422  133.2961  152.5322 N   0  0  0  0  0  0  0  0  0  0  0  0
  146.5923  133.3190  151.0812 C   0  0  0  0  0  0  0  0  0  0  0  0
  145.3319  134.1410  150.8284 C   0  0  0  0  0  0  0  0  0  0  0  0
  144.4477  133.7497  152.0083 C   0  0  0  0  0  0  0  0  0  0  0  0
  145.4435  133.5378  153.1537 C   0  0  0  0  0  0  0  0  0  0  0  0
  150.0329  136.1036  154.4469 N   0  0  0  0  0  0  0  0  0  0  0  0
  150.8339  137.0856  155.1721 C   0  0  0  0  0  0  0  0  0  0  0  0
  150.3025  137.2362  156.6058 C   0  0  0  0  0  0  0  0  0  0  0  0
  151.0163  138.3827  157.3424 C   0  0  0  0  0  0  0  0  0  0  0  0
  150.8343  139.6383  156.6141 N   0  0  0  0  0  0  0  0  0  0  0  0
  151.4701  140.7116  157.3606 C   0  0  0  0  0  0  0  0  0  0  0  0
  150.6286  141.4503  158.3764 C   0  0  0  0  0  0  0  0  0  0  0  0
  151.0111  142.1248  157.0811 C   0  0  0  0  0  0  0  0  0  0  0  0
  151.4621  139.5411  155.2961 C   0  0  0  0  0  0  0  0  0  0  0  0
  150.7757  138.4468  154.4595 C   0  0  0  0  0  0  0  0  0  0  0  0
  148.8049  134.7197  153.0863 H   0  0  0  0  0  0  0  0  0  0  0  0
  150.4848  132.0572  154.9986 H   0  0  0  0  0  0  0  0  0  0  0  0
  149.8089  129.6760  154.8288 H   0  0  0  0  0  0  0  0  0  0  0  0
  147.7255  129.1024  153.5581 H   0  0  0  0  0  0  0  0  0  0  0  0
  147.4664  133.7571  150.5985 H   0  0  0  0  0  0  0  0  0  0  0  0
  146.4519  132.3112  150.6882 H   0  0  0  0  0  0  0  0  0  0  0  0
  145.5644  135.2059  150.8738 H   0  0  0  0  0  0  0  0  0  0  0  0
  144.8738  133.9324  149.8612 H   0  0  0  0  0  0  0  0  0  0  0  0
  143.6886  134.4975  152.2391 H   0  0  0  0  0  0  0  0  0  0  0  0
  143.9382  132.8107  151.7869 H   0  0  0  0  0  0  0  0  0  0  0  0
  145.1370  132.7139  153.8002 H   0  0  0  0  0  0  0  0  0  0  0  0
  145.5078  134.4409  153.7612 H   0  0  0  0  0  0  0  0  0  0  0  0
  149.5026  136.4500  153.6607 H   0  0  0  0  0  0  0  0  0  0  0  0
  151.8767  136.7674  155.2285 H   0  0  0  0  0  0  0  0  0  0  0  0
  149.2289  137.4310  156.5898 H   0  0  0  0  0  0  0  0  0  0  0  0
  150.4397  136.3033  157.1539 H   0  0  0  0  0  0  0  0  0  0  0  0
  150.6037  138.4805  158.3472 H   0  0  0  0  0  0  0  0  0  0  0  0
  152.0792  138.1602  157.4526 H   0  0  0  0  0  0  0  0  0  0  0  0
  152.5226  140.6094  157.6199 H   0  0  0  0  0  0  0  0  0  0  0  0
  149.5898  141.1480  158.4961 H   0  0  0  0  0  0  0  0  0  0  0  0
  151.1227  141.7887  159.2848 H   0  0  0  0  0  0  0  0  0  0  0  0
  151.7593  142.9134  157.1266 H   0  0  0  0  0  0  0  0  0  0  0  0
  150.2259  142.2700  156.3414 H   0  0  0  0  0  0  0  0  0  0  0  0
  151.3761  140.4985  154.7808 H   0  0  0  0  0  0  0  0  0  0  0  0
  152.5273  139.3277  155.4001 H   0  0  0  0  0  0  0  0  0  0  0  0
  151.2523  138.3767  153.4810 H   0  0  0  0  0  0  0  0  0  0  0  0
  149.7376  138.7305  154.2786 H   0  0  0  0  0  0  0  0  0  0  0  0
  1  2  2  0  0  0  0
  2  3  1  0  0  0  0
  2 15  1  0  0  0  0
  3  4  1  0  0  0  0
  3 25  1  0  0  0  0
  4  9  1  0  0  0  0
  4  5  2  0  0  0  0
  5  6  1  0  0  0  0
  5 26  1  0  0  0  0
  6  7  2  0  0  0  0
  6 27  1  0  0  0  0
  7  8  1  0  0  0  0
  7 28  1  0  0  0  0
  8  9  2  0  0  0  0
  9 10  1  0  0  0  0
 10 14  1  0  0  0  0
 10 11  1  0  0  0  0
 11 12  1  0  0  0  0
 11 29  1  0  0  0  0
 11 30  1  0  0  0  0
 12 13  1  0  0  0  0
 12 31  1  0  0  0  0
 12 32  1  0  0  0  0
 13 14  1  0  0  0  0
 13 33  1  0  0  0  0
 13 34  1  0  0  0  0
 14 35  1  0  0  0  0
 14 36  1  0  0  0  0
 15 16  1  0  0  0  0
 15 37  1  0  0  0  0
 16 24  1  0  0  0  0
 16 17  1  0  0  0  0
 16 38  1  0  0  0  0
 17 18  1  0  0  0  0
 17 39  1  0  0  0  0
 17 40  1  0  0  0  0
 18 19  1  0  0  0  0
 18 41  1  0  0  0  0
 18 42  1  0  0  0  0
 19 20  1  0  0  0  0
 19 23  1  0  0  0  0
 20 22  1  0  0  0  0
 20 21  1  0  0  0  0
 20 43  1  0  0  0  0
 21 22  1  0  0  0  0
 21 44  1  0  0  0  0
 21 45  1  0  0  0  0
 22 46  1  0  0  0  0
 22 47  1  0  0  0  0
 23 24  1  0  0  0  0
 23 48  1  0  0  0  0
 23 49  1  0  0  0  0
 24 50  1  0  0  0  0
 24 51  1  0  0  0  0
M  END
> <s_m_source_file>
AV-unprocessed.smi

> <i_m_source_file_index>
890

> <i_lp_mmshare_version>
43012

> <i_f3d_flags>
0

> <s_epik_input>
W0NIMl0xW0NIMl1bQ0hdMU4oW0NIMl1bQ0gyXTIpW0NIMl1bQ0gyXVtDSF0yW05IXUMoPU8pW05IXWMzW2NIXVtjSF1bY0hdbmMzTjRbQ0gyXVtDSDJdW0NIMl1bQ0gyXTQ=

> <s_epik_cmdline>
J2VwaWtfcHl0aG9uJywgJy1waCcsICc3LjAnLCAnLXRuJywgJzgnLCAnLW1hJywgJzIwMCcsICctbWV0YWxfYmluZGluZycsICctaW1hZScsICc8aW5maWxlLm1hZT4nLCAnLW9tYWUnLCAnPG91dGZpbGUubWFlPic=

> <r_lp_tautomer_probability>
1

> <r_epik_Ionization_Penalty>
1.12957

> <r_epik_Ionization_Penalty_Charging>
0

> <r_epik_Ionization_Penalty_Neutral>
1.12957

> <r_epik_State_Penalty>
1.1789

> <r_epik_Charging_Adjusted_Penalty>
1.1789

> <i_epik_Tot_Q>
0

> <i_epik_Tot_abs_Q>
0

> <r_epik_Metal_State_Penalty>
1.14786

> <b_epik_Metal_Only>
0

> <s_lp_Force_Field>
OPLS_2005

> <r_lp_Energy>
50.3158

> <b_lp_Chiralities_Consistent>
1

> <s_lp_Variant>
AV-unprocessed.smi:890-3

> <Gold.Version>
5.8.1

> <Gold.Id.Protein>
6NUR|6NUR_protein|mol2

> <Gold.PLP.Fitness>
43.9528

> <Gold.PLP.PLP>
-38.7412

> <Gold.PLP.part.hbond>
-2.7163

> <Gold.PLP.part.metal>
0.0000

> <Gold.PLP.part.buried>
-4.4749

> <Gold.PLP.part.nonpolar>
-32.1006

> <Gold.PLP.part.repulsive>
0.3492

> <Gold.PLP.ligand.clash>
0.0000

> <Gold.PLP.ligand.torsion>
0.8774

> <Gold.PLP.Chemscore.Hbond>
1.8260

> <Gold.PLP.Chemscore.CHOScore>
0.0000

> <Gold.PLP.Chemscore.Metal>
0.0000

> <Gold.Chemscore.Hbonds>
donor molecule, donor type, donor heavy atom, donor atom, acceptor molecule, acceptor atom, score
      L1  H     3    25       P1  7948  0.90
      L1  H    15    37       P1  7948  0.94

> <Gold.PLP.Chemscore.Internal.Correction>
1.4884

> <Gold.Rescore>
     Score         DG    S(hbond)    S(metal)    S(lipo)     H(rot)  DE(clash)    DE(int)     intcor
     14.47     -16.60       1.28        0.00      86.92       1.30       0.01       2.12       ----

> <Gold.Chemscore.Fitness>
14.4681

> <Gold.Chemscore.DG>
-16.5956

> <Gold.Chemscore.ZeroCoef>
-5.4800

> <Gold.Chemscore.Hbond>
1.2826

> <Gold.Chemscore.Metal>
0.0000

> <Gold.Chemscore.Lipo>
86.9170

> <Gold.Chemscore.Internal_Hbond>
0.0000

> <Gold.Chemscore.DEClash>
0.0084

> <Gold.Chemscore.DEInternal>
2.1191

> <Gold.Chemscore.Rot>
1.3037

> <Gold.Chemscore.Internal.Correction>
   9.000000E+99

> <Gold.Chemscore.Hbonds>
donor molecule, donor type, donor heavy atom, donor atom, acceptor molecule, acceptor atom, score
      L1  H     3    25       P1  7948  0.17
      L1  H    15    37       P1  7948  0.68

> <Gold.Chemscore.Hbond.Weighted>
-4.2839

> <Gold.Chemscore.Metal.Weighted>
-0.0000

> <Gold.Chemscore.Lipo.Weighted>
-10.1693

> <Gold.Chemscore.Internal_Hbond.Weighted>
0.0000

> <Gold.Chemscore.DEClash.Weighted>
0.0084

> <Gold.Chemscore.DEInternal.Weighted>
2.1191

> <Gold.Chemscore.Rot.Weighted>
3.3376

> <Gold.Chemscore.Internal.Correction.Weighted>
   9.000000E+99

> <Gold.Protein.RotatedTorsions>
[ 6907 6896 6895 6894 ] final   38.35 input  -60.11 | X-H torsion
[ 7974 7965 7964 7962 ] final -168.15 input  175.53 | X-H torsion
[ 8008 7997 7996 7995 ] final  -78.89 input   59.86 | X-H torsion
[ 10167 10162 10161 10158 ] final   64.35 input  -65.29 | X-H torsion
[ 10718 10713 10712 10709 ] final -145.22 input   66.30 | X-H torsion
[ 10763 10752 10751 10750 ] final  -25.77 input  -60.55 | X-H torsion
[ 11005 11000 10999 10996 ] final   -1.76 input  -57.11 | X-H torsion

> <Gold.Protein.ActiveResidues>
 VAL166  LYS551  ARG553  GLY616  TRP617  ASP618  TYR619  PRO620  LYS621  CYS622 
 ASP623  PHE694  ASN695  SER759  ASP760  ASP761  ALA762  ILE779  LEU786  VAL792 
 PHE793  MET794  SER795  GLU796  ALA797  LYS798  CYS799  TRP800  GLU811  SER814 

> <Gold.Protein.RotatedAtoms>
  152.1553  134.8955  160.0545 H   0  0  0  0  0  0  0  0  0  0  0  0  # atno 6907 bound_to 6896
  151.9971  133.3807  159.4175 H   0  0  0  0  0  0  0  0  0  0  0  0  # atno 6908 bound_to 6896
  150.6881  134.3796  159.5072 H   0  0  0  0  0  0  0  0  0  0  0  0  # atno 6909 bound_to 6896
  144.7208  140.2413  143.6291 H   0  0  0  0  0  0  0  0  0  0  0  0  # atno 7974 bound_to 7965
  154.5732  140.0687  156.8996 H   0  0  0  0  0  0  0  0  0  0  0  0  # atno 8008 bound_to 7997
  155.2596  140.3357  155.4256 H   0  0  0  0  0  0  0  0  0  0  0  0  # atno 8009 bound_to 7997
  156.2134  140.1768  156.7628 H   0  0  0  0  0  0  0  0  0  0  0  0  # atno 8010 bound_to 7997
  140.1231  144.4713  150.6908 H   0  0  0  0  0  0  0  0  0  0  0  0  # atno 10167 bound_to 10162
  156.3797  130.7831  151.2021 H   0  0  0  0  0  0  0  0  0  0  0  0  # atno 10718 bound_to 10713
  153.7052  135.6954  153.5052 H   0  0  0  0  0  0  0  0  0  0  0  0  # atno 10763 bound_to 10752
  153.2313  135.4336  155.0597 H   0  0  0  0  0  0  0  0  0  0  0  0  # atno 10764 bound_to 10752
  154.8332  135.3485  154.6590 H   0  0  0  0  0  0  0  0  0  0  0  0  # atno 10765 bound_to 10752
  140.6509  133.9406  155.8379 H   0  0  0  0  0  0  0  0  0  0  0  0  # atno 11005 bound_to 11000
  145.8317  139.2089  143.1879 LP  0  0  0  0  0  0  0  0  0  0  0  0  # atno 17320 bound_to 7965
  146.0425  140.8151  142.9822 LP  0  0  0  0  0  0  0  0  0  0  0  0  # atno 17321 bound_to 7965
  140.6860  143.2350  151.5258 LP  0  0  0  0  0  0  0  0  0  0  0  0  # atno 17342 bound_to 10162
  139.5558  144.2279  152.1610 LP  0  0  0  0  0  0  0  0  0  0  0  0  # atno 17343 bound_to 10162
  157.7491  131.0347  150.4332 LP  0  0  0  0  0  0  0  0  0  0  0  0  # atno 17370 bound_to 10713
  156.4574  130.4024  149.6598 LP  0  0  0  0  0  0  0  0  0  0  0  0  # atno 17371 bound_to 10713
  141.0538  134.0447  157.3750 LP  0  0  0  0  0  0  0  0  0  0  0  0  # atno 17394 bound_to 11000
  139.9046  135.0176  156.7428 LP  0  0  0  0  0  0  0  0  0  0  0  0  # atno 17395 bound_to 11000

$$$$
