AV-unprocessed.smi:38|AV-procd|sdf|350|dock4
  -GOLD-   2262016193D 1   1.00000     0.00000
 Structure written by MMmdl.
 27 28  0  0  0  0  0  0  0  0  2 V2000
  151.1271  134.5763  156.9321 O   0  0  0  0  0  0  0  0  0  0  0  0
  151.2133  135.7420  156.5492 C   0  0  0  0  0  0  0  0  0  0  0  0
  152.2957  136.5290  156.8156 N   0  5  0  0  0  0  0  0  0  0  0  0
  152.3901  137.8226  156.3888 C   0  0  0  0  0  0  0  0  0  0  0  0
  153.3549  138.5446  156.6412 O   0  0  0  0  0  0  0  0  0  0  0  0
  151.3254  138.3745  155.6244 N   0  0  0  0  0  0  0  0  0  0  0  0
  151.4216  139.8102  155.1515 C   0  0  2  0  0  0  0  0  0  0  0  0
  151.3382  140.7690  156.3419 C   0  0  0  0  0  0  0  0  0  0  0  0
  149.8684  141.1336  156.3399 C   0  0  1  0  0  0  0  0  0  0  0  0
  149.6576  142.3830  156.9649 O   0  0  0  0  0  0  0  0  0  0  0  0
  149.5574  141.1657  154.8416 C   0  0  2  0  0  0  0  0  0  0  0  0
  148.0703  140.9525  154.5167 C   0  0  0  0  0  0  0  0  0  0  0  0
  147.3090  142.0501  154.9735 O   0  0  0  0  0  0  0  0  0  0  0  0
  150.3412  140.0976  154.3087 O   0  0  0  0  0  0  0  0  0  0  0  0
  150.2096  137.6013  155.3491 C   0  0  0  0  0  0  0  0  0  0  0  0
  150.1183  136.3259  155.7774 C   0  0  0  0  0  0  0  0  0  0  0  0
  149.0213  135.6023  155.4954 F   0  0  0  0  0  0  0  0  0  0  0  0
  152.3534  139.8819  154.5883 H   0  0  0  0  0  0  0  0  0  0  0  0
  149.2874  140.3581  156.8413 H   0  0  0  0  0  0  0  0  0  0  0  0
  149.9206  142.1049  154.4191 H   0  0  0  0  0  0  0  0  0  0  0  0
  151.6841  140.3161  157.2721 H   0  0  0  0  0  0  0  0  0  0  0  0
  151.9589  141.6389  156.1212 H   0  0  0  0  0  0  0  0  0  0  0  0
  149.4853  143.0266  156.2949 H   0  0  0  0  0  0  0  0  0  0  0  0
  147.9105  140.7980  153.4498 H   0  0  0  0  0  0  0  0  0  0  0  0
  147.6999  140.0645  155.0294 H   0  0  0  0  0  0  0  0  0  0  0  0
  147.7884  142.8439  154.7925 H   0  0  0  0  0  0  0  0  0  0  0  0
  149.3875  138.0145  154.7866 H   0  0  0  0  0  0  0  0  0  0  0  0
  1  2  2  0  0  0  0
  2 16  1  0  0  0  0
  2  3  1  0  0  0  0
  3  4  1  0  0  0  0
  4  5  2  0  0  0  0
  4  6  1  0  0  0  0
  6  7  1  0  0  0  0
  6 15  1  0  0  0  0
  7 18  1  0  0  0  0
  7 14  1  0  0  0  0
  7  8  1  0  0  0  0
  8  9  1  0  0  0  0
  8 21  1  0  0  0  0
  8 22  1  0  0  0  0
  9 19  1  0  0  0  0
  9 10  1  0  0  0  0
  9 11  1  0  0  0  0
 10 23  1  0  0  0  0
 11 20  1  0  0  0  0
 11 12  1  0  0  0  0
 11 14  1  0  0  0  0
 12 13  1  0  0  0  0
 12 24  1  0  0  0  0
 12 25  1  0  0  0  0
 13 26  1  0  0  0  0
 15 16  2  0  0  0  0
 15 27  1  0  0  0  0
 16 17  1  0  0  0  0
M  CHG  1   3  -1
M  END
> <s_m_source_file>
AV-unprocessed.smi

> <i_m_source_file_index>
38

> <i_lp_mmshare_version>
43012

> <i_f3d_flags>
0

> <s_epik_input>
Tz1jMVtuSF1jKD1PKW4oW2NIXWMxRilbQ0BIXTJbQ0gyXVtDQEhdKFtPSF0pW0NASF0oTzIpW0NIMl1bT0hd

> <s_epik_cmdline>
J2VwaWtfcHl0aG9uJywgJy1waCcsICc3LjAnLCAnLXRuJywgJzgnLCAnLW1hJywgJzIwMCcsICctbWV0YWxfYmluZGluZycsICctaW1hZScsICc8aW5maWxlLm1hZT4nLCAnLW9tYWUnLCAnPG91dGZpbGUubWFlPic=

> <r_epik_Ionization_Penalty>
1.68146

> <r_epik_Ionization_Penalty_Charging>
3.4211e-08

> <r_epik_Ionization_Penalty_Neutral>
1.68146

> <r_epik_State_Penalty>
1.78593

> <r_epik_Charging_Adjusted_Penalty>
1.78593

> <i_epik_Tot_Q>
-1

> <i_epik_Tot_abs_Q>
1

> <r_epik_Metal_State_Penalty>
0.0113696

> <b_epik_Metal_Only>
0

> <s_epik_Chemistry_Notes>
This compound contains an acetal/aminal-like group ( X-CH(R)-Y where X, Y are N, S, or O) that may be acid/base labile, releasing an aldehyde.

> <s_lp_Force_Field>
OPLS_2005

> <r_lp_Energy>
36.3433

> <b_lp_Chiralities_Consistent>
1

> <s_lp_Variant>
AV-unprocessed.smi:38-16

> <Gold.Version>
5.8.1

> <Gold.Id.Protein>
6NUR|6NUR_protein|mol2

> <Gold.PLP.Fitness>
39.9384

> <Gold.PLP.PLP>
-25.3678

> <Gold.PLP.part.hbond>
-5.0000

> <Gold.PLP.part.metal>
0.0000

> <Gold.PLP.part.buried>
-1.4462

> <Gold.PLP.part.nonpolar>
-20.1413

> <Gold.PLP.part.repulsive>
1.0195

> <Gold.PLP.ligand.clash>
0.0000

> <Gold.PLP.ligand.torsion>
0.1359

> <Gold.PLP.Chemscore.Hbond>
4.9440

> <Gold.PLP.Chemscore.CHOScore>
0.0000

> <Gold.PLP.Chemscore.Metal>
0.0000

> <Gold.Chemscore.Hbonds>
donor molecule, donor type, donor heavy atom, donor atom, acceptor molecule, acceptor atom, score
      L1  H    10    23       P1  8028  1.00
      L1  H    13    26       P1  8028  0.30
      P1  H  7997  8009       L1     5  0.82
      P1  H 10752 10765       L1     3  0.42

> <Gold.PLP.Chemscore.Internal.Correction>
0.0104

> <Gold.Rescore>
     Score         DG    S(hbond)    S(metal)    S(lipo)     H(rot)  DE(clash)    DE(int)     intcor
      9.02     -11.06       2.63        0.00      35.77       2.88       1.67       0.36       ----

> <Gold.Chemscore.Fitness>
9.0216

> <Gold.Chemscore.DG>
-11.0600

> <Gold.Chemscore.ZeroCoef>
-5.4800

> <Gold.Chemscore.Hbond>
2.6262

> <Gold.Chemscore.Metal>
0.0000

> <Gold.Chemscore.Lipo>
35.7691

> <Gold.Chemscore.Internal_Hbond>
0.0000

> <Gold.Chemscore.DEClash>
1.6747

> <Gold.Chemscore.DEInternal>
0.3638

> <Gold.Chemscore.Rot>
2.8815

> <Gold.Chemscore.Internal.Correction>
   9.000000E+99

> <Gold.Chemscore.Hbonds>
donor molecule, donor type, donor heavy atom, donor atom, acceptor molecule, acceptor atom, score
      L1  H    10    23       P1  8028  0.97
      L1  H    13    26       P1  8028  0.24
      P1  H  7997  8009       L1     5  0.81

> <Gold.Chemscore.Hbond.Weighted>
-8.7716

> <Gold.Chemscore.Metal.Weighted>
-0.0000

> <Gold.Chemscore.Lipo.Weighted>
-4.1850

> <Gold.Chemscore.Internal_Hbond.Weighted>
0.0000

> <Gold.Chemscore.DEClash.Weighted>
1.6747

> <Gold.Chemscore.DEInternal.Weighted>
0.3638

> <Gold.Chemscore.Rot.Weighted>
7.3765

> <Gold.Chemscore.Internal.Correction.Weighted>
   9.000000E+99

> <Gold.Protein.RotatedTorsions>
[ 6907 6896 6895 6894 ] final  152.79 input  -60.11 | X-H torsion
[ 7974 7965 7964 7962 ] final   11.98 input  175.53 | X-H torsion
[ 8008 7997 7996 7995 ] final -159.32 input   59.86 | X-H torsion
[ 10167 10162 10161 10158 ] final -160.62 input  -65.29 | X-H torsion
[ 10718 10713 10712 10709 ] final   33.23 input   66.30 | X-H torsion
[ 10763 10752 10751 10750 ] final -134.97 input  -60.55 | X-H torsion
[ 11005 11000 10999 10996 ] final -105.93 input  -57.11 | X-H torsion

> <Gold.Protein.ActiveResidues>
 VAL166  LYS551  ARG553  GLY616  TRP617  ASP618  TYR619  PRO620  LYS621  CYS622 
 ASP623  PHE694  ASN695  SER759  ASP760  ASP761  ALA762  ILE779  LEU786  VAL792 
 PHE793  MET794  SER795  GLU796  ALA797  LYS798  CYS799  TRP800  GLU811  SER814 

> <Gold.Protein.RotatedAtoms>
  152.0818  133.4156  159.4504 H   0  0  0  0  0  0  0  0  0  0  0  0  # atno 6907 bound_to 6896
  150.6862  134.2973  159.4701 H   0  0  0  0  0  0  0  0  0  0  0  0  # atno 6908 bound_to 6896
  152.0816  134.9467  160.0624 H   0  0  0  0  0  0  0  0  0  0  0  0  # atno 6909 bound_to 6896
  146.2360  139.9405  142.8484 H   0  0  0  0  0  0  0  0  0  0  0  0  # atno 7974 bound_to 7965
  155.7608  140.0839  157.2156 H   0  0  0  0  0  0  0  0  0  0  0  0  # atno 8008 bound_to 7997
  154.4004  140.1543  156.2887 H   0  0  0  0  0  0  0  0  0  0  0  0  # atno 8009 bound_to 7997
  155.8841  140.3419  155.5911 H   0  0  0  0  0  0  0  0  0  0  0  0  # atno 8010 bound_to 7997
  139.6526  144.0057  152.2172 H   0  0  0  0  0  0  0  0  0  0  0  0  # atno 10167 bound_to 10162
  157.2953  130.7323  149.6634 H   0  0  0  0  0  0  0  0  0  0  0  0  # atno 10718 bound_to 10713
  154.8711  135.3718  154.4822 H   0  0  0  0  0  0  0  0  0  0  0  0  # atno 10763 bound_to 10752
  153.5475  135.7025  153.5612 H   0  0  0  0  0  0  0  0  0  0  0  0  # atno 10764 bound_to 10752
  153.3746  135.4012  155.1777 H   0  0  0  0  0  0  0  0  0  0  0  0  # atno 10765 bound_to 10752
  141.1030  133.8849  157.1794 H   0  0  0  0  0  0  0  0  0  0  0  0  # atno 11005 bound_to 11000
  145.1957  140.9832  143.4185 LP  0  0  0  0  0  0  0  0  0  0  0  0  # atno 17320 bound_to 7965
  144.9817  139.3776  143.6258 LP  0  0  0  0  0  0  0  0  0  0  0  0  # atno 17321 bound_to 7965
  139.9775  144.6451  150.7931 LP  0  0  0  0  0  0  0  0  0  0  0  0  # atno 17342 bound_to 10162
  140.7544  143.3027  151.3040 LP  0  0  0  0  0  0  0  0  0  0  0  0  # atno 17343 bound_to 10162
  155.9669  130.4296  150.4841 LP  0  0  0  0  0  0  0  0  0  0  0  0  # atno 17370 bound_to 10713
  157.2812  131.0607  151.2196 LP  0  0  0  0  0  0  0  0  0  0  0  0  # atno 17371 bound_to 10713
  139.9888  135.0072  156.9926 LP  0  0  0  0  0  0  0  0  0  0  0  0  # atno 17394 bound_to 11000
  140.4975  134.1131  155.7244 LP  0  0  0  0  0  0  0  0  0  0  0  0  # atno 17395 bound_to 11000

$$$$
