AV-unprocessed.smi:1376|AV-procd|sdf|5592|dock8
  -GOLD-   22720 5193D 1   1.00000     0.00000
 Structure written by MMmdl.
 42 43  0  0  0  0  0  0  0  0  1 V2000
  152.1099  140.2288  155.3870 O   0  0  0  0  0  0  0  0  0  0  0  0
  151.3742  139.8663  156.3062 C   0  0  0  0  0  0  0  0  0  0  0  0
  151.9479  139.5262  157.6893 C   0  0  0  0  0  0  0  0  0  0  0  0
  152.2742  140.7150  158.4944 N   0  0  0  0  0  0  0  0  0  0  0  0
  151.3238  141.7552  158.5139 C   0  0  0  0  0  0  0  0  0  0  0  0
  151.5229  142.8857  159.2098 C   0  0  0  0  0  0  0  0  0  0  0  0
  152.7522  143.0212  159.9545 C   0  0  0  0  0  0  0  0  0  0  0  0
  153.6699  142.0341  159.9390 C   0  0  0  0  0  0  0  0  0  0  0  0
  153.4582  140.7983  159.1761 C   0  0  0  0  0  0  0  0  0  0  0  0
  154.2939  139.8943  159.1515 O   0  0  0  0  0  0  0  0  0  0  0  0
  150.0425  139.7611  156.1819 N   0  0  0  0  0  0  0  0  0  0  0  0
  149.2855  140.0428  154.9659 C   0  0  2  0  0  0  0  0  0  0  0  0
  148.5871  141.4136  155.0668 C   0  0  0  0  0  0  0  0  0  0  0  0
  147.7279  141.6950  153.8245 C   0  0  0  0  0  0  0  0  0  0  0  0
  146.7112  140.5686  153.5840 C   0  0  0  0  0  0  0  0  0  0  0  0
  147.4056  139.2012  153.4666 C   0  0  2  0  0  0  0  0  0  0  0  0
  146.3871  138.2221  153.3078 O   0  0  0  0  0  0  0  0  0  0  0  0
  146.2521  137.7152  151.9867 C   0  0  0  0  0  0  0  0  0  0  0  0
  145.4209  136.4270  152.0211 C   0  0  0  0  0  0  0  0  0  0  0  0
  145.9450  135.5893  152.9151 F   0  0  0  0  0  0  0  0  0  0  0  0
  144.1645  136.6978  152.3736 F   0  0  0  0  0  0  0  0  0  0  0  0
  145.4337  135.8388  150.8251 F   0  0  0  0  0  0  0  0  0  0  0  0
  148.2593  138.9206  154.7212 C   0  0  0  0  0  0  0  0  0  0  0  0
  151.2238  138.9004  158.2128 H   0  0  0  0  0  0  0  0  0  0  0  0
  152.8324  138.8977  157.5688 H   0  0  0  0  0  0  0  0  0  0  0  0
  150.4358  141.5784  157.9245 H   0  0  0  0  0  0  0  0  0  0  0  0
  150.7853  143.6748  159.2081 H   0  0  0  0  0  0  0  0  0  0  0  0
  152.9375  143.9190  160.5254 H   0  0  0  0  0  0  0  0  0  0  0  0
  154.5846  142.1536  160.5012 H   0  0  0  0  0  0  0  0  0  0  0  0
  149.5136  139.4635  156.9890 H   0  0  0  0  0  0  0  0  0  0  0  0
  149.9710  140.0591  154.1164 H   0  0  0  0  0  0  0  0  0  0  0  0
  147.9569  141.4431  155.9569 H   0  0  0  0  0  0  0  0  0  0  0  0
  149.3265  142.2065  155.1859 H   0  0  0  0  0  0  0  0  0  0  0  0
  147.2082  142.6462  153.9403 H   0  0  0  0  0  0  0  0  0  0  0  0
  148.3721  141.7989  152.9505 H   0  0  0  0  0  0  0  0  0  0  0  0
  145.9918  140.5468  154.4037 H   0  0  0  0  0  0  0  0  0  0  0  0
  146.1403  140.7746  152.6780 H   0  0  0  0  0  0  0  0  0  0  0  0
  148.0446  139.2182  152.5815 H   0  0  0  0  0  0  0  0  0  0  0  0
  145.7600  138.4521  151.3500 H   0  0  0  0  0  0  0  0  0  0  0  0
  147.2296  137.5079  151.5508 H   0  0  0  0  0  0  0  0  0  0  0  0
  148.7851  137.9715  154.6199 H   0  0  0  0  0  0  0  0  0  0  0  0
  147.6054  138.8213  155.5891 H   0  0  0  0  0  0  0  0  0  0  0  0
  1  2  2  0  0  0  0
  2  3  1  0  0  0  0
  2 11  1  0  0  0  0
  3  4  1  0  0  0  0
  3 24  1  0  0  0  0
  3 25  1  0  0  0  0
  4  9  1  0  0  0  0
  4  5  1  0  0  0  0
  5  6  2  0  0  0  0
  5 26  1  0  0  0  0
  6  7  1  0  0  0  0
  6 27  1  0  0  0  0
  7  8  2  0  0  0  0
  7 28  1  0  0  0  0
  8  9  1  0  0  0  0
  8 29  1  0  0  0  0
  9 10  2  0  0  0  0
 11 12  1  0  0  0  0
 11 30  1  0  0  0  0
 12 23  1  0  0  0  0
 12 13  1  0  0  0  0
 12 31  1  0  0  0  0
 13 14  1  0  0  0  0
 13 32  1  0  0  0  0
 13 33  1  0  0  0  0
 14 15  1  0  0  0  0
 14 34  1  0  0  0  0
 14 35  1  0  0  0  0
 15 16  1  0  0  0  0
 15 36  1  0  0  0  0
 15 37  1  0  0  0  0
 16 17  1  0  0  0  0
 16 23  1  0  0  0  0
 16 38  1  0  0  0  0
 17 18  1  0  0  0  0
 18 19  1  0  0  0  0
 18 39  1  0  0  0  0
 18 40  1  0  0  0  0
 19 20  1  0  0  0  0
 19 21  1  0  0  0  0
 19 22  1  0  0  0  0
 23 41  1  0  0  0  0
 23 42  1  0  0  0  0
M  END
> <s_m_source_file>
AV-unprocessed.smi

> <i_m_source_file_index>
1376

> <i_lp_mmshare_version>
43012

> <i_f3d_flags>
0

> <s_epik_input>
Tz1jMVtjSF1bY0hdW2NIXVtjSF1uMVtDSDJdQyg9TylbTkhdW0NAQEhdMltDSDJdW0NIMl1bQ0gyXVtDQEhdKFtDSDJdMilPW0NIMl1DKEYpKEYpRg==

> <s_epik_cmdline>
J2VwaWtfcHl0aG9uJywgJy1waCcsICc3LjAnLCAnLXRuJywgJzgnLCAnLW1hJywgJzIwMCcsICctbWV0YWxfYmluZGluZycsICctaW1hZScsICc8aW5maWxlLm1hZT4nLCAnLW9tYWUnLCAnPG91dGZpbGUubWFlPic=

> <r_lp_tautomer_probability>
1

> <r_epik_Ionization_Penalty>
4.08567e-07

> <r_epik_Ionization_Penalty_Charging>
3.90028e-07

> <r_epik_Ionization_Penalty_Neutral>
1.85393e-08

> <r_epik_State_Penalty>
-0

> <r_epik_Charging_Adjusted_Penalty>
3.90028e-07

> <i_epik_Tot_Q>
0

> <i_epik_Tot_abs_Q>
0

> <r_epik_Metal_State_Penalty>
-0

> <b_epik_Metal_Only>
0

> <s_lp_Force_Field>
OPLS_2005

> <r_lp_Energy>
18.479

> <b_lp_Chiralities_Consistent>
1

> <s_lp_Variant>
AV-unprocessed.smi:1376-3

> <Gold.Version>
5.8.1

> <Gold.Id.Protein>
6NUR|6NUR_protein|mol2

> <Gold.PLP.Fitness>
44.1575

> <Gold.PLP.PLP>
-41.7022

> <Gold.PLP.part.hbond>
-2.0000

> <Gold.PLP.part.metal>
0.0000

> <Gold.PLP.part.buried>
-2.1560

> <Gold.PLP.part.nonpolar>
-38.1586

> <Gold.PLP.part.repulsive>
0.2634

> <Gold.PLP.ligand.clash>
0.0000

> <Gold.PLP.ligand.torsion>
1.3905

> <Gold.PLP.Chemscore.Hbond>
1.7296

> <Gold.PLP.Chemscore.CHOScore>
0.0000

> <Gold.PLP.Chemscore.Metal>
0.0000

> <Gold.Chemscore.Hbonds>
donor molecule, donor type, donor heavy atom, donor atom, acceptor molecule, acceptor atom, score
      P1  H  7989  7998       L1     1  0.70
      P1  H  7997  8010       L1    10  1.00

> <Gold.PLP.Chemscore.Internal.Correction>
0.0476

> <Gold.Rescore>
     Score         DG    S(hbond)    S(metal)    S(lipo)     H(rot)  DE(clash)    DE(int)     intcor
     13.91     -15.70       1.59        0.00      89.61       2.18       0.51       1.28       ----

> <Gold.Chemscore.Fitness>
13.9088

> <Gold.Chemscore.DG>
-15.6985

> <Gold.Chemscore.ZeroCoef>
-5.4800

> <Gold.Chemscore.Hbond>
1.5912

> <Gold.Chemscore.Metal>
0.0000

> <Gold.Chemscore.Lipo>
89.6083

> <Gold.Chemscore.Internal_Hbond>
0.0000

> <Gold.Chemscore.DEClash>
0.5061

> <Gold.Chemscore.DEInternal>
1.2836

> <Gold.Chemscore.Rot>
2.1797

> <Gold.Chemscore.Internal.Correction>
   9.000000E+99

> <Gold.Chemscore.Hbonds>
donor molecule, donor type, donor heavy atom, donor atom, acceptor molecule, acceptor atom, score
      P1  H  7989  7998       L1     1  0.65
      P1  H  7997  8010       L1    10  0.38

> <Gold.Chemscore.Hbond.Weighted>
-5.3145

> <Gold.Chemscore.Metal.Weighted>
-0.0000

> <Gold.Chemscore.Lipo.Weighted>
-10.4842

> <Gold.Chemscore.Internal_Hbond.Weighted>
0.0000

> <Gold.Chemscore.DEClash.Weighted>
0.5061

> <Gold.Chemscore.DEInternal.Weighted>
1.2836

> <Gold.Chemscore.Rot.Weighted>
5.5802

> <Gold.Chemscore.Internal.Correction.Weighted>
   9.000000E+99

> <Gold.Protein.RotatedTorsions>
[ 6907 6896 6895 6894 ] final  163.39 input  -60.11 | X-H torsion
[ 7974 7965 7964 7962 ] final -132.50 input  175.53 | X-H torsion
[ 8008 7997 7996 7995 ] final    2.73 input   59.86 | X-H torsion
[ 10167 10162 10161 10158 ] final  -56.32 input  -65.29 | X-H torsion
[ 10718 10713 10712 10709 ] final   25.52 input   66.30 | X-H torsion
[ 10763 10752 10751 10750 ] final  -96.43 input  -60.55 | X-H torsion
[ 11005 11000 10999 10996 ] final -172.86 input  -57.11 | X-H torsion

> <Gold.Protein.ActiveResidues>
 VAL166  LYS551  ARG553  GLY616  TRP617  ASP618  TYR619  PRO620  LYS621  CYS622 
 ASP623  PHE694  ASN695  SER759  ASP760  ASP761  ALA762  ILE779  LEU786  VAL792 
 PHE793  MET794  SER795  GLU796  ALA797  LYS798  CYS799  TRP800  GLU811  SER814 

> <Gold.Protein.RotatedAtoms>
  151.9259  133.3598  159.3913 H   0  0  0  0  0  0  0  0  0  0  0  0  # atno 6907 bound_to 6896
  150.7027  134.4587  159.5380 H   0  0  0  0  0  0  0  0  0  0  0  0  # atno 6908 bound_to 6896
  152.2219  134.8405  160.0535 H   0  0  0  0  0  0  0  0  0  0  0  0  # atno 6909 bound_to 6896
  144.9280  140.7094  143.4924 H   0  0  0  0  0  0  0  0  0  0  0  0  # atno 7974 bound_to 7965
  154.6951  140.2661  155.6774 H   0  0  0  0  0  0  0  0  0  0  0  0  # atno 8008 bound_to 7997
  156.2745  140.2783  156.1466 H   0  0  0  0  0  0  0  0  0  0  0  0  # atno 8009 bound_to 7997
  155.0843  140.0373  157.2639 H   0  0  0  0  0  0  0  0  0  0  0  0  # atno 8010 bound_to 7997
  140.6324  143.2466  151.5206 H   0  0  0  0  0  0  0  0  0  0  0  0  # atno 10167 bound_to 10162
  157.1945  130.6861  149.6163 H   0  0  0  0  0  0  0  0  0  0  0  0  # atno 10718 bound_to 10713
  154.7238  135.5084  153.8854 H   0  0  0  0  0  0  0  0  0  0  0  0  # atno 10763 bound_to 10752
  153.0886  135.6653  153.9907 H   0  0  0  0  0  0  0  0  0  0  0  0  # atno 10764 bound_to 10752
  153.9724  135.3037  155.3406 H   0  0  0  0  0  0  0  0  0  0  0  0  # atno 10765 bound_to 10752
  140.4922  134.5974  157.4958 H   0  0  0  0  0  0  0  0  0  0  0  0  # atno 11005 bound_to 11000
  145.3188  139.1795  143.4599 LP  0  0  0  0  0  0  0  0  0  0  0  0  # atno 17320 bound_to 7965
  146.3234  140.3202  142.8633 LP  0  0  0  0  0  0  0  0  0  0  0  0  # atno 17321 bound_to 7965
  139.5537  144.2330  152.1575 LP  0  0  0  0  0  0  0  0  0  0  0  0  # atno 17342 bound_to 10162
  140.1577  144.5055  150.6650 LP  0  0  0  0  0  0  0  0  0  0  0  0  # atno 17343 bound_to 10162
  155.9707  130.4603  150.6069 LP  0  0  0  0  0  0  0  0  0  0  0  0  # atno 17370 bound_to 10713
  157.3828  131.0783  151.1462 LP  0  0  0  0  0  0  0  0  0  0  0  0  # atno 17371 bound_to 10713
  139.9762  134.7211  155.9945 LP  0  0  0  0  0  0  0  0  0  0  0  0  # atno 17394 bound_to 11000
  141.1478  133.6553  156.3921 LP  0  0  0  0  0  0  0  0  0  0  0  0  # atno 17395 bound_to 11000

$$$$
