AV-unprocessed.smi:3234|AV-procd|sdf|12348|dock4
  -GOLD-   2272018213D 1   1.00000     0.00000
 Structure written by MMmdl.
 37 39  0  0  0  0  0  0  0  0  2 V2000
  150.2381  140.5186  156.6948 O   0  0  0  0  0  0  0  0  0  0  0  0
  149.7812  141.6169  156.3811 C   0  0  0  0  0  0  0  0  0  0  0  0
  150.1752  142.8049  156.8733 N   0  0  0  0  0  0  0  0  0  0  0  0
  151.1740  143.1027  157.8428 C   0  0  0  0  0  0  0  0  0  0  0  0
  151.5733  142.0544  158.6981 C   0  0  0  0  0  0  0  0  0  0  0  0
  152.5625  142.3058  159.6698 C   0  0  0  0  0  0  0  0  0  0  0  0
  153.1571  143.5064  159.8287 N   0  0  0  0  0  0  0  0  0  0  0  0
  152.7776  144.5085  159.0083 C   0  0  0  0  0  0  0  0  0  0  0  0
  151.7991  144.3637  158.0042 C   0  0  0  0  0  0  0  0  0  0  0  0
  148.8047  141.7700  155.4754 N   0  0  0  0  0  0  0  0  0  0  0  0
  148.1599  140.6750  154.7585 C   0  0  2  0  0  0  0  0  0  0  0  0
  148.2141  140.7884  153.2379 C   0  0  0  0  0  0  0  0  0  0  0  0
  147.0734  139.8649  152.7960 C   0  0  0  0  0  0  0  0  0  0  0  0
  146.0770  139.8603  153.8963 N   0  3  1  0  0  0  0  0  0  0  0  0
  145.6190  138.5055  154.2737 C   0  0  0  0  0  0  0  0  0  0  0  0
  146.6910  137.4490  154.1515 C   0  0  0  0  0  0  0  0  0  0  0  0
  145.5894  137.5348  153.1174 C   0  0  0  0  0  0  0  0  0  0  0  0
  146.6558  140.6249  155.0233 C   0  0  0  0  0  0  0  0  0  0  0  0
  149.7032  143.6119  156.4928 H   0  0  0  0  0  0  0  0  0  0  0  0
  151.1321  141.0718  158.6165 H   0  0  0  0  0  0  0  0  0  0  0  0
  152.8847  141.5201  160.3370 H   0  0  0  0  0  0  0  0  0  0  0  0
  153.2708  145.4580  159.1548 H   0  0  0  0  0  0  0  0  0  0  0  0
  151.5622  145.2176  157.3906 H   0  0  0  0  0  0  0  0  0  0  0  0
  148.4843  142.7058  155.2720 H   0  0  0  0  0  0  0  0  0  0  0  0
  148.6034  139.7257  155.0668 H   0  0  0  0  0  0  0  0  0  0  0  0
  148.0075  141.8133  152.9253 H   0  0  0  0  0  0  0  0  0  0  0  0
  149.1787  140.4956  152.8217 H   0  0  0  0  0  0  0  0  0  0  0  0
  146.6214  140.1915  151.8592 H   0  0  0  0  0  0  0  0  0  0  0  0
  147.4644  138.8582  152.6382 H   0  0  0  0  0  0  0  0  0  0  0  0
  144.8726  138.4477  155.0643 H   0  0  0  0  0  0  0  0  0  0  0  0
  147.6895  137.7615  153.8510 H   0  0  0  0  0  0  0  0  0  0  0  0
  146.6555  136.6138  154.8481 H   0  0  0  0  0  0  0  0  0  0  0  0
  144.8281  136.7574  153.1345 H   0  0  0  0  0  0  0  0  0  0  0  0
  145.8558  137.9027  152.1282 H   0  0  0  0  0  0  0  0  0  0  0  0
  146.4178  140.1925  155.9966 H   0  0  0  0  0  0  0  0  0  0  0  0
  146.2312  141.6296  154.9975 H   0  0  0  0  0  0  0  0  0  0  0  0
  145.2650  140.3710  153.5800 H   0  0  0  0  0  0  0  0  0  0  0  0
  1  2  2  0  0  0  0
  2  3  1  0  0  0  0
  2 10  1  0  0  0  0
  3  4  1  0  0  0  0
  3 19  1  0  0  0  0
  4  9  1  0  0  0  0
  4  5  2  0  0  0  0
  5  6  1  0  0  0  0
  5 20  1  0  0  0  0
  6  7  2  0  0  0  0
  6 21  1  0  0  0  0
  7  8  1  0  0  0  0
  8  9  2  0  0  0  0
  8 22  1  0  0  0  0
  9 23  1  0  0  0  0
 10 11  1  0  0  0  0
 10 24  1  0  0  0  0
 11 18  1  0  0  0  0
 11 12  1  0  0  0  0
 11 25  1  0  0  0  0
 12 13  1  0  0  0  0
 12 26  1  0  0  0  0
 12 27  1  0  0  0  0
 13 14  1  0  0  0  0
 13 28  1  0  0  0  0
 13 29  1  0  0  0  0
 14 15  1  0  0  0  0
 14 18  1  0  0  0  0
 14 37  1  0  0  0  0
 15 17  1  0  0  0  0
 15 16  1  0  0  0  0
 15 30  1  0  0  0  0
 16 17  1  0  0  0  0
 16 31  1  0  0  0  0
 16 32  1  0  0  0  0
 17 33  1  0  0  0  0
 17 34  1  0  0  0  0
 18 35  1  0  0  0  0
 18 36  1  0  0  0  0
M  CHG  1  14   1
M  END
> <s_m_source_file>
AV-unprocessed.smi

> <i_m_source_file_index>
3234

> <i_lp_mmshare_version>
43012

> <i_f3d_flags>
0

> <s_epik_input>
W2NIXTFbY0hdbltjSF1bY0hdYzFbTkhdQyg9TylbTkhdW0NAQEhdMltDSDJdW0NIMl1OKFtDSDJdMilbQ0hdM1tDSDJdW0NIMl0z

> <s_epik_cmdline>
J2VwaWtfcHl0aG9uJywgJy1waCcsICc3LjAnLCAnLXRuJywgJzgnLCAnLW1hJywgJzIwMCcsICctbWV0YWxfYmluZGluZycsICctaW1hZScsICc8aW5maWxlLm1hZT4nLCAnLW9tYWUnLCAnPG91dGZpbGUubWFlPic=

> <r_epik_Ionization_Penalty>
0.0934328

> <r_epik_Ionization_Penalty_Charging>
0.000606352

> <r_epik_Ionization_Penalty_Neutral>
0.0928265

> <r_epik_State_Penalty>
0.0830811

> <r_epik_Charging_Adjusted_Penalty>
0.0836875

> <i_epik_Tot_Q>
1

> <i_epik_Tot_abs_Q>
1

> <r_epik_Metal_State_Penalty>
0.0724491

> <b_epik_Metal_Only>
0

> <s_lp_Force_Field>
OPLS_2005

> <r_lp_Energy>
42.4864

> <b_lp_Chiralities_Consistent>
1

> <s_lp_Variant>
AV-unprocessed.smi:3234-1

> <Gold.Version>
5.8.1

> <Gold.Id.Protein>
6NUR|6NUR_protein|mol2

> <Gold.PLP.Fitness>
40.3842

> <Gold.PLP.PLP>
-29.2104

> <Gold.PLP.part.hbond>
-3.0000

> <Gold.PLP.part.metal>
0.0000

> <Gold.PLP.part.buried>
0.0252

> <Gold.PLP.part.nonpolar>
-26.3360

> <Gold.PLP.part.repulsive>
0.1737

> <Gold.PLP.ligand.clash>
0.0000

> <Gold.PLP.ligand.torsion>
0.7249

> <Gold.PLP.Chemscore.Hbond>
3.7865

> <Gold.PLP.Chemscore.CHOScore>
0.0000

> <Gold.PLP.Chemscore.Metal>
0.0000

> <Gold.Chemscore.Hbonds>
donor molecule, donor type, donor heavy atom, donor atom, acceptor molecule, acceptor atom, score
      L1  H     3    19       P1  8028  1.00
      L1  H    10    24       P1  8028  0.79
      L1  H    14    37       P1 10175  2.00

> <Gold.PLP.Chemscore.Internal.Correction>
1.2641

> <Gold.Rescore>
     Score         DG    S(hbond)    S(metal)    S(lipo)     H(rot)  DE(clash)    DE(int)     intcor
     18.34     -22.30       2.74        0.00      91.97       1.21       1.91       2.04       ----

> <Gold.Chemscore.Fitness>
18.3439

> <Gold.Chemscore.DG>
-22.2986

> <Gold.Chemscore.ZeroCoef>
-5.4800

> <Gold.Chemscore.Hbond>
2.7419

> <Gold.Chemscore.Metal>
0.0000

> <Gold.Chemscore.Lipo>
91.9678

> <Gold.Chemscore.Internal_Hbond>
0.0000

> <Gold.Chemscore.DEClash>
1.9130

> <Gold.Chemscore.DEInternal>
2.0418

> <Gold.Chemscore.Rot>
1.2108

> <Gold.Chemscore.Internal.Correction>
   9.000000E+99

> <Gold.Chemscore.Hbonds>
donor molecule, donor type, donor heavy atom, donor atom, acceptor molecule, acceptor atom, score
      L1  H     3    19       P1  8028  0.99
      L1  H    10    24       P1  8028  0.74
      L1  H    14    37       P1 10175  0.94

> <Gold.Chemscore.Hbond.Weighted>
-9.1580

> <Gold.Chemscore.Metal.Weighted>
-0.0000

> <Gold.Chemscore.Lipo.Weighted>
-10.7602

> <Gold.Chemscore.Internal_Hbond.Weighted>
0.0000

> <Gold.Chemscore.DEClash.Weighted>
1.9130

> <Gold.Chemscore.DEInternal.Weighted>
2.0418

> <Gold.Chemscore.Rot.Weighted>
3.0996

> <Gold.Chemscore.Internal.Correction.Weighted>
   9.000000E+99

> <Gold.Protein.RotatedTorsions>
[ 6907 6896 6895 6894 ] final   40.19 input  -60.11 | X-H torsion
[ 7974 7965 7964 7962 ] final  129.38 input  175.53 | X-H torsion
[ 8008 7997 7996 7995 ] final   28.78 input   59.86 | X-H torsion
[ 10167 10162 10161 10158 ] final  110.28 input  -65.29 | X-H torsion
[ 10718 10713 10712 10709 ] final   26.11 input   66.30 | X-H torsion
[ 10763 10752 10751 10750 ] final -157.75 input  -60.55 | X-H torsion
[ 11005 11000 10999 10996 ] final  154.14 input  -57.11 | X-H torsion

> <Gold.Protein.ActiveResidues>
 VAL166  LYS551  ARG553  GLY616  TRP617  ASP618  TYR619  PRO620  LYS621  CYS622 
 ASP623  PHE694  ASN695  SER759  ASP760  ASP761  ALA762  ILE779  LEU786  VAL792 
 PHE793  MET794  SER795  GLU796  ALA797  LYS798  CYS799  TRP800  GLU811  SER814 

> <Gold.Protein.RotatedAtoms>
  152.1792  134.8768  160.0527 H   0  0  0  0  0  0  0  0  0  0  0  0  # atno 6907 bound_to 6896
  151.9699  133.3717  159.4075 H   0  0  0  0  0  0  0  0  0  0  0  0  # atno 6908 bound_to 6896
  150.6914  134.4074  159.5190 H   0  0  0  0  0  0  0  0  0  0  0  0  # atno 6909 bound_to 6896
  145.0293  139.4061  143.5158 H   0  0  0  0  0  0  0  0  0  0  0  0  # atno 7974 bound_to 7965
  155.0640  140.3193  155.4651 H   0  0  0  0  0  0  0  0  0  0  0  0  # atno 8008 bound_to 7997
  156.2806  140.2123  156.5712 H   0  0  0  0  0  0  0  0  0  0  0  0  # atno 8009 bound_to 7997
  154.7108  140.0498  157.0536 H   0  0  0  0  0  0  0  0  0  0  0  0  # atno 8010 bound_to 7997
  139.6700  144.7125  151.1705 H   0  0  0  0  0  0  0  0  0  0  0  0  # atno 10167 bound_to 10162
  157.2024  130.6896  149.6194 H   0  0  0  0  0  0  0  0  0  0  0  0  # atno 10718 bound_to 10713
  154.7611  135.3118  154.8376 H   0  0  0  0  0  0  0  0  0  0  0  0  # atno 10763 bound_to 10752
  153.9136  135.6803  153.4754 H   0  0  0  0  0  0  0  0  0  0  0  0  # atno 10764 bound_to 10752
  153.1212  135.4821  154.9130 H   0  0  0  0  0  0  0  0  0  0  0  0  # atno 10765 bound_to 10752
  140.1462  134.8706  157.2395 H   0  0  0  0  0  0  0  0  0  0  0  0  # atno 11005 bound_to 11000
  146.3496  139.9834  142.8693 LP  0  0  0  0  0  0  0  0  0  0  0  0  # atno 17320 bound_to 7965
  145.1792  140.9759  143.4276 LP  0  0  0  0  0  0  0  0  0  0  0  0  # atno 17321 bound_to 7965
  140.7614  143.5859  150.8847 LP  0  0  0  0  0  0  0  0  0  0  0  0  # atno 17342 bound_to 10162
  139.9523  143.6258  152.3025 LP  0  0  0  0  0  0  0  0  0  0  0  0  # atno 17343 bound_to 10162
  155.9699  130.4578  150.5977 LP  0  0  0  0  0  0  0  0  0  0  0  0  # atno 17370 bound_to 10713
  157.3754  131.0772  151.1522 LP  0  0  0  0  0  0  0  0  0  0  0  0  # atno 17371 bound_to 10713
  140.2661  134.3514  155.7389 LP  0  0  0  0  0  0  0  0  0  0  0  0  # atno 17394 bound_to 11000
  141.2193  133.7397  156.9153 LP  0  0  0  0  0  0  0  0  0  0  0  0  # atno 17395 bound_to 11000

$$$$
