AV-unprocessed.smi:229|AV-procd|sdf|1754|dock4
  -GOLD-   2262020273D 1   1.00000     0.00000
 Structure written by MMmdl.
 58 62  0  0  0  0  0  0  0  0  1 V2000
  153.4567  142.3188  162.3727 C   0  0  0  0  0  0  0  0  0  0  0  0
  153.3750  141.3111  161.2191 C   0  0  0  0  0  0  0  0  0  0  0  0
  152.8783  141.9410  159.9095 C   0  0  1  0  0  0  0  0  0  0  0  0
  152.3498  140.8820  158.9283 C   0  0  0  0  0  0  0  0  0  0  0  0
  151.8020  141.5388  157.7506 N   0  0  0  0  0  0  0  0  0  0  0  0
  151.5024  140.7261  156.7158 C   0  0  0  0  0  0  0  0  0  0  0  0
  152.4587  139.8453  156.3326 N   0  0  0  0  0  0  0  0  0  0  0  0
  152.2300  139.0130  155.3122 C   0  0  0  0  0  0  0  0  0  0  0  0
  151.1383  138.9036  154.5521 N   0  0  0  0  0  0  0  0  0  0  0  0
  150.1794  139.7980  154.9286 C   0  0  0  0  0  0  0  0  0  0  0  0
  150.2767  140.7405  155.9909 C   0  0  0  0  0  0  0  0  0  0  0  0
  149.1072  141.4883  156.0680 N   0  0  0  0  0  0  0  0  0  0  0  0
  148.3594  141.0103  155.1111 C   0  0  0  0  0  0  0  0  0  0  0  0
  148.9260  139.9944  154.3762 N   0  0  0  0  0  0  0  0  0  0  0  0
  148.3223  139.2929  153.2569 C   0  0  0  0  0  0  0  0  0  0  0  0
  146.8048  139.5440  153.1570 C   0  0  1  0  0  0  0  0  0  0  0  0
  146.3693  139.4723  151.8118 O   0  0  0  0  0  0  0  0  0  0  0  0
  145.9759  138.5902  154.0423 C   0  0  1  0  0  0  0  0  0  0  0  0
  146.0474  137.1007  153.6640 C   0  0  0  0  0  0  0  0  0  0  0  0
  146.6635  136.4512  154.8885 C   0  0  0  0  0  0  0  0  0  0  0  0
  146.2515  137.4024  156.0039 C   0  0  0  0  0  0  0  0  0  0  0  0
  146.3870  138.6808  155.4044 O   0  0  0  0  0  0  0  0  0  0  0  0
  150.7357  142.4733  158.0774 C   0  0  0  0  0  0  0  0  0  0  0  0
  151.2272  143.5205  159.1003 C   0  0  1  0  0  0  0  0  0  0  0  0
  152.1395  144.5933  158.5137 C   0  0  0  0  0  0  0  0  0  0  0  0
  151.9647  145.7340  159.5044 C   0  0  0  0  0  0  0  0  0  0  0  0
  150.5803  145.7048  159.8161 O   0  0  0  0  0  0  0  0  0  0  0  0
  150.0800  144.3786  159.6571 C   0  0  0  0  0  0  0  0  0  0  0  0
  151.8247  142.8557  160.2214 O   0  0  0  0  0  0  0  0  0  0  0  0
  153.8305  141.8410  163.2785 H   0  0  0  0  0  0  0  0  0  0  0  0
  152.4775  142.7412  162.6004 H   0  0  0  0  0  0  0  0  0  0  0  0
  154.1287  143.1423  162.1299 H   0  0  0  0  0  0  0  0  0  0  0  0
  154.3646  140.8812  161.0597 H   0  0  0  0  0  0  0  0  0  0  0  0
  152.7226  140.4841  161.5016 H   0  0  0  0  0  0  0  0  0  0  0  0
  153.7123  142.4693  159.4487 H   0  0  0  0  0  0  0  0  0  0  0  0
  153.1517  140.2027  158.6357 H   0  0  0  0  0  0  0  0  0  0  0  0
  151.5794  140.2852  159.4166 H   0  0  0  0  0  0  0  0  0  0  0  0
  153.0374  138.3379  155.0697 H   0  0  0  0  0  0  0  0  0  0  0  0
  147.3685  141.3910  154.9099 H   0  0  0  0  0  0  0  0  0  0  0  0
  148.8253  139.6019  152.3399 H   0  0  0  0  0  0  0  0  0  0  0  0
  148.5204  138.2271  153.3755 H   0  0  0  0  0  0  0  0  0  0  0  0
  146.6043  140.5630  153.4902 H   0  0  0  0  0  0  0  0  0  0  0  0
  145.4756  139.7757  151.7689 H   0  0  0  0  0  0  0  0  0  0  0  0
  144.9310  138.9027  154.0047 H   0  0  0  0  0  0  0  0  0  0  0  0
  145.0408  136.7127  153.5031 H   0  0  0  0  0  0  0  0  0  0  0  0
  146.6220  136.9028  152.7588 H   0  0  0  0  0  0  0  0  0  0  0  0
  146.3214  135.4286  155.0495 H   0  0  0  0  0  0  0  0  0  0  0  0
  147.7502  136.4382  154.7959 H   0  0  0  0  0  0  0  0  0  0  0  0
  145.2108  137.2410  156.2896 H   0  0  0  0  0  0  0  0  0  0  0  0
  146.8748  137.3068  156.8931 H   0  0  0  0  0  0  0  0  0  0  0  0
  150.3707  142.9636  157.1737 H   0  0  0  0  0  0  0  0  0  0  0  0
  149.8966  141.9151  158.4958 H   0  0  0  0  0  0  0  0  0  0  0  0
  153.1789  144.2963  158.3867 H   0  0  0  0  0  0  0  0  0  0  0  0
  151.7696  144.9058  157.5362 H   0  0  0  0  0  0  0  0  0  0  0  0
  152.5423  145.5488  160.4113 H   0  0  0  0  0  0  0  0  0  0  0  0
  152.2648  146.6990  159.0965 H   0  0  0  0  0  0  0  0  0  0  0  0
  149.2465  144.4250  158.9551 H   0  0  0  0  0  0  0  0  0  0  0  0
  149.6927  143.9900  160.5998 H   0  0  0  0  0  0  0  0  0  0  0  0
  1  2  1  0  0  0  0
  1 30  1  0  0  0  0
  1 31  1  0  0  0  0
  1 32  1  0  0  0  0
  2  3  1  0  0  0  0
  2 33  1  0  0  0  0
  2 34  1  0  0  0  0
  3 29  1  0  0  0  0
  3  4  1  0  0  0  0
  3 35  1  0  0  0  0
  4  5  1  0  0  0  0
  4 36  1  0  0  0  0
  4 37  1  0  0  0  0
  5  6  1  0  0  0  0
  5 23  1  0  0  0  0
  6 11  1  0  0  0  0
  6  7  2  0  0  0  0
  7  8  1  0  0  0  0
  8  9  2  0  0  0  0
  8 38  1  0  0  0  0
  9 10  1  0  0  0  0
 10 14  1  0  0  0  0
 10 11  2  0  0  0  0
 11 12  1  0  0  0  0
 12 13  2  0  0  0  0
 13 14  1  0  0  0  0
 13 39  1  0  0  0  0
 14 15  1  0  0  0  0
 15 16  1  0  0  0  0
 15 40  1  0  0  0  0
 15 41  1  0  0  0  0
 16 17  1  0  0  0  0
 16 18  1  0  0  0  0
 16 42  1  0  0  0  0
 17 43  1  0  0  0  0
 18 22  1  0  0  0  0
 18 19  1  0  0  0  0
 18 44  1  0  0  0  0
 19 20  1  0  0  0  0
 19 45  1  0  0  0  0
 19 46  1  0  0  0  0
 20 21  1  0  0  0  0
 20 47  1  0  0  0  0
 20 48  1  0  0  0  0
 21 22  1  0  0  0  0
 21 49  1  0  0  0  0
 21 50  1  0  0  0  0
 23 24  1  0  0  0  0
 23 51  1  0  0  0  0
 23 52  1  0  0  0  0
 24 28  1  0  0  0  0
 24 25  1  0  0  0  0
 24 29  1  0  0  0  0
 25 26  1  0  0  0  0
 25 53  1  0  0  0  0
 25 54  1  0  0  0  0
 26 27  1  0  0  0  0
 26 55  1  0  0  0  0
 26 56  1  0  0  0  0
 27 28  1  0  0  0  0
 28 57  1  0  0  0  0
 28 58  1  0  0  0  0
M  END
> <s_m_source_file>
AV-unprocessed.smi

> <i_m_source_file_index>
229

> <i_lp_mmshare_version>
43012

> <i_f3d_flags>
0

> <s_epik_input>
W0NIMl0xT1tDSDJdW0NIMl1bQ0BdMTJbQ0gyXU4oW0NIMl1bQ0BIXShPMilbQ0gyXVtDSDNdKWMobltjSF1uMyljKGMzNCluW2NIXW40W0NIMl1bQ0BIXShbT0hdKVtDQEBIXTVbQ0gyXVtDSDJdW0NIMl1PNQ==

> <s_epik_cmdline>
J2VwaWtfcHl0aG9uJywgJy1waCcsICc3LjAnLCAnLXRuJywgJzgnLCAnLW1hJywgJzIwMCcsICctbWV0YWxfYmluZGluZycsICctaW1hZScsICc8aW5maWxlLm1hZT4nLCAnLW9tYWUnLCAnPG91dGZpbGUubWFlPic=

> <r_lp_tautomer_probability>
1

> <r_epik_Ionization_Penalty>
0.00318402

> <r_epik_Ionization_Penalty_Charging>
0

> <r_epik_Ionization_Penalty_Neutral>
0.00318402

> <r_epik_State_Penalty>
0.00215642

> <r_epik_Charging_Adjusted_Penalty>
0.00215642

> <i_epik_Tot_Q>
0

> <i_epik_Tot_abs_Q>
0

> <r_epik_Metal_State_Penalty>
-0

> <b_epik_Metal_Only>
0

> <s_lp_Force_Field>
OPLS_2005

> <r_lp_Energy>
59.0026

> <b_lp_Chiralities_Consistent>
1

> <s_lp_Variant>
AV-unprocessed.smi:229-8

> <Gold.Version>
5.8.1

> <Gold.Id.Protein>
6NUR|6NUR_protein|mol2

> <Gold.PLP.Fitness>
55.7593

> <Gold.PLP.PLP>
-51.1954

> <Gold.PLP.part.hbond>
-4.0517

> <Gold.PLP.part.metal>
0.0000

> <Gold.PLP.part.buried>
-1.5013

> <Gold.PLP.part.nonpolar>
-45.8413

> <Gold.PLP.part.repulsive>
0.5279

> <Gold.PLP.ligand.clash>
0.0000

> <Gold.PLP.ligand.torsion>
0.8133

> <Gold.PLP.Chemscore.Hbond>
2.0000

> <Gold.PLP.Chemscore.CHOScore>
0.0000

> <Gold.PLP.Chemscore.Metal>
0.0000

> <Gold.Chemscore.Hbonds>
donor molecule, donor type, donor heavy atom, donor atom, acceptor molecule, acceptor atom, score
      L1  H    17    43       P1 10175  1.00
      P1  H  7997  8010       L1     7  1.00

> <Gold.PLP.Chemscore.Internal.Correction>
0.1907

> <Gold.Rescore>
     Score         DG    S(hbond)    S(metal)    S(lipo)     H(rot)  DE(clash)    DE(int)     intcor
     14.83     -18.75       1.79        0.00     116.01       2.46       1.61       2.31       ----

> <Gold.Chemscore.Fitness>
14.8301

> <Gold.Chemscore.DG>
-18.7493

> <Gold.Chemscore.ZeroCoef>
-5.4800

> <Gold.Chemscore.Hbond>
1.7938

> <Gold.Chemscore.Metal>
0.0000

> <Gold.Chemscore.Lipo>
116.0125

> <Gold.Chemscore.Internal_Hbond>
0.0000

> <Gold.Chemscore.DEClash>
1.6133

> <Gold.Chemscore.DEInternal>
2.3060

> <Gold.Chemscore.Rot>
2.4591

> <Gold.Chemscore.Internal.Correction>
   9.000000E+99

> <Gold.Chemscore.Hbonds>
donor molecule, donor type, donor heavy atom, donor atom, acceptor molecule, acceptor atom, score
      L1  H    17    43       P1 10175  0.56
      P1  H  7997  8010       L1     7  0.24

> <Gold.Chemscore.Hbond.Weighted>
-5.9912

> <Gold.Chemscore.Metal.Weighted>
-0.0000

> <Gold.Chemscore.Lipo.Weighted>
-13.5735

> <Gold.Chemscore.Internal_Hbond.Weighted>
0.0000

> <Gold.Chemscore.DEClash.Weighted>
1.6133

> <Gold.Chemscore.DEInternal.Weighted>
2.3060

> <Gold.Chemscore.Rot.Weighted>
6.2953

> <Gold.Chemscore.Internal.Correction.Weighted>
   9.000000E+99

> <Gold.Protein.RotatedTorsions>
[ 6907 6896 6895 6894 ] final -107.21 input  -60.11 | X-H torsion
[ 7974 7965 7964 7962 ] final  142.46 input  175.53 | X-H torsion
[ 8008 7997 7996 7995 ] final   93.34 input   59.86 | X-H torsion
[ 10167 10162 10161 10158 ] final -109.05 input  -65.29 | X-H torsion
[ 10718 10713 10712 10709 ] final  109.99 input   66.30 | X-H torsion
[ 10763 10752 10751 10750 ] final  -16.38 input  -60.55 | X-H torsion
[ 11005 11000 10999 10996 ] final   -1.28 input  -57.11 | X-H torsion

> <Gold.Protein.ActiveResidues>
 VAL166  LYS551  ARG553  GLY616  TRP617  ASP618  TYR619  PRO620  LYS621  CYS622 
 ASP623  PHE694  ASN695  SER759  ASP760  ASP761  ALA762  ILE779  LEU786  VAL792 
 PHE793  MET794  SER795  GLU796  ALA797  LYS798  CYS799  TRP800  GLU811  SER814 

> <Gold.Protein.RotatedAtoms>
  150.7431  133.9861  159.3591 H   0  0  0  0  0  0  0  0  0  0  0  0  # atno 6907 bound_to 6896
  151.7805  135.0760  160.0382 H   0  0  0  0  0  0  0  0  0  0  0  0  # atno 6908 bound_to 6896
  152.3277  133.5886  159.5824 H   0  0  0  0  0  0  0  0  0  0  0  0  # atno 6909 bound_to 6896
  144.9006  139.5429  143.5755 H   0  0  0  0  0  0  0  0  0  0  0  0  # atno 7974 bound_to 7965
  156.0456  140.3314  155.7293 H   0  0  0  0  0  0  0  0  0  0  0  0  # atno 8008 bound_to 7997
  155.5679  140.0625  157.2831 H   0  0  0  0  0  0  0  0  0  0  0  0  # atno 8009 bound_to 7997
  154.4412  140.1866  156.0837 H   0  0  0  0  0  0  0  0  0  0  0  0  # atno 8010 bound_to 7997
  140.1595  143.4132  152.1436 H   0  0  0  0  0  0  0  0  0  0  0  0  # atno 10167 bound_to 10162
  157.6515  131.0924  150.6536 H   0  0  0  0  0  0  0  0  0  0  0  0  # atno 10718 bound_to 10713
  153.5577  135.7010  153.5561 H   0  0  0  0  0  0  0  0  0  0  0  0  # atno 10763 bound_to 10752
  153.3457  135.4009  155.1607 H   0  0  0  0  0  0  0  0  0  0  0  0  # atno 10764 bound_to 10752
  154.8652  135.3753  154.5093 H   0  0  0  0  0  0  0  0  0  0  0  0  # atno 10765 bound_to 10752
  140.6456  133.9450  155.8350 H   0  0  0  0  0  0  0  0  0  0  0  0  # atno 11005 bound_to 11000
  146.3106  139.7732  142.9023 LP  0  0  0  0  0  0  0  0  0  0  0  0  # atno 17320 bound_to 7965
  145.3624  141.0328  143.3277 LP  0  0  0  0  0  0  0  0  0  0  0  0  # atno 17321 bound_to 7965
  139.5387  144.7236  151.4804 LP  0  0  0  0  0  0  0  0  0  0  0  0  # atno 17342 bound_to 10162
  140.6652  143.8414  150.6933 LP  0  0  0  0  0  0  0  0  0  0  0  0  # atno 17343 bound_to 10162
  156.6847  130.4577  149.5617 LP  0  0  0  0  0  0  0  0  0  0  0  0  # atno 17370 bound_to 10713
  156.1904  130.6556  151.1055 LP  0  0  0  0  0  0  0  0  0  0  0  0  # atno 17371 bound_to 10713
  141.0575  134.0395  157.3703 LP  0  0  0  0  0  0  0  0  0  0  0  0  # atno 17394 bound_to 11000
  139.9064  135.0180  156.7505 LP  0  0  0  0  0  0  0  0  0  0  0  0  # atno 17395 bound_to 11000

$$$$
