AV-unprocessed.smi:195|AV-procd|sdf|1527|dock8
  -GOLD-   2262019373D 1   1.00000     0.00000
 Structure written by MMmdl.
 45 48  0  0  0  0  0  0  0  0  1 V2000
  149.0193  134.4972  159.0442 N   0  0  0  0  0  0  0  0  0  0  0  0
  149.0580  135.2271  158.1473 C   0  0  0  0  0  0  0  0  0  0  0  0
  149.1082  136.1555  157.0067 C   0  0  0  0  0  0  0  0  0  0  0  0
  149.7253  135.5397  155.7476 C   0  0  0  0  0  0  0  0  0  0  0  0
  148.7720  134.5981  155.3018 O   0  0  0  0  0  0  0  0  0  0  0  0
  150.2400  136.5013  154.6724 C   0  0  0  0  0  0  0  0  0  0  0  0
  151.5904  136.2481  155.1677 N   0  0  0  0  0  0  0  0  0  0  0  0
  152.1091  137.2996  155.9870 C   0  0  0  0  0  0  0  0  0  0  0  0
  153.2429  137.1219  156.7182 N   0  0  0  0  0  0  0  0  0  0  0  0
  153.7386  138.1029  157.4783 C   0  0  0  0  0  0  0  0  0  0  0  0
  153.2737  139.3407  157.6479 N   0  0  0  0  0  0  0  0  0  0  0  0
  152.1487  139.5429  156.9067 C   0  0  0  0  0  0  0  0  0  0  0  0
  151.5117  138.5911  156.0604 C   0  0  0  0  0  0  0  0  0  0  0  0
  150.3953  139.1661  155.4636 N   0  0  0  0  0  0  0  0  0  0  0  0
  150.3717  140.3839  155.9324 C   0  0  0  0  0  0  0  0  0  0  0  0
  151.3892  140.6940  156.8053 N   0  0  0  0  0  0  0  0  0  0  0  0
  151.6112  141.9653  157.4699 C   0  0  0  0  0  0  0  0  0  0  0  0
  151.8442  141.8013  158.9842 C   0  0  1  0  0  0  0  0  0  0  0  0
  153.1633  141.3579  159.2403 O   0  0  0  0  0  0  0  0  0  0  0  0
  151.5428  143.0889  159.7769 C   0  0  1  0  0  0  0  0  0  0  0  0
  152.3707  144.3242  159.4130 C   0  0  0  0  0  0  0  0  0  0  0  0
  151.4711  145.4351  159.9062 C   0  0  0  0  0  0  0  0  0  0  0  0
  150.0867  144.8971  159.5522 C   0  0  0  0  0  0  0  0  0  0  0  0
  150.1766  143.4788  159.6609 O   0  0  0  0  0  0  0  0  0  0  0  0
  151.1629  135.0160  155.8309 C   0  0  0  0  0  0  0  0  0  0  0  0
  148.0947  136.5100  156.8158 H   0  0  0  0  0  0  0  0  0  0  0  0
  149.6786  137.0243  157.3346 H   0  0  0  0  0  0  0  0  0  0  0  0
  149.2276  133.7786  155.1836 H   0  0  0  0  0  0  0  0  0  0  0  0
  150.1051  136.1300  153.6556 H   0  0  0  0  0  0  0  0  0  0  0  0
  149.8789  137.5246  154.7819 H   0  0  0  0  0  0  0  0  0  0  0  0
  154.6370  137.8606  158.0268 H   0  0  0  0  0  0  0  0  0  0  0  0
  149.6098  141.0955  155.6488 H   0  0  0  0  0  0  0  0  0  0  0  0
  152.4627  142.4591  157.0003 H   0  0  0  0  0  0  0  0  0  0  0  0
  150.7431  142.6002  157.2881 H   0  0  0  0  0  0  0  0  0  0  0  0
  151.1785  141.0203  159.3536 H   0  0  0  0  0  0  0  0  0  0  0  0
  153.2789  141.2948  160.1761 H   0  0  0  0  0  0  0  0  0  0  0  0
  151.7043  142.8832  160.8364 H   0  0  0  0  0  0  0  0  0  0  0  0
  153.3549  144.3293  159.8820 H   0  0  0  0  0  0  0  0  0  0  0  0
  152.5064  144.4164  158.3349 H   0  0  0  0  0  0  0  0  0  0  0  0
  151.5677  145.5436  160.9874 H   0  0  0  0  0  0  0  0  0  0  0  0
  151.6853  146.3993  159.4446 H   0  0  0  0  0  0  0  0  0  0  0  0
  149.3060  145.2983  160.1984 H   0  0  0  0  0  0  0  0  0  0  0  0
  149.8348  145.1484  158.5213 H   0  0  0  0  0  0  0  0  0  0  0  0
  151.5306  134.8408  156.8416 H   0  0  0  0  0  0  0  0  0  0  0  0
  151.3357  134.1456  155.1965 H   0  0  0  0  0  0  0  0  0  0  0  0
  1  2  3  0  0  0  0
  2  3  1  0  0  0  0
  3  4  1  0  0  0  0
  3 26  1  0  0  0  0
  3 27  1  0  0  0  0
  4 25  1  0  0  0  0
  4  5  1  0  0  0  0
  4  6  1  0  0  0  0
  5 28  1  0  0  0  0
  6  7  1  0  0  0  0
  6 29  1  0  0  0  0
  6 30  1  0  0  0  0
  7  8  1  0  0  0  0
  7 25  1  0  0  0  0
  8 13  1  0  0  0  0
  8  9  2  0  0  0  0
  9 10  1  0  0  0  0
 10 11  2  0  0  0  0
 10 31  1  0  0  0  0
 11 12  1  0  0  0  0
 12 16  1  0  0  0  0
 12 13  2  0  0  0  0
 13 14  1  0  0  0  0
 14 15  2  0  0  0  0
 15 16  1  0  0  0  0
 15 32  1  0  0  0  0
 16 17  1  0  0  0  0
 17 18  1  0  0  0  0
 17 33  1  0  0  0  0
 17 34  1  0  0  0  0
 18 19  1  0  0  0  0
 18 20  1  0  0  0  0
 18 35  1  0  0  0  0
 19 36  1  0  0  0  0
 20 24  1  0  0  0  0
 20 21  1  0  0  0  0
 20 37  1  0  0  0  0
 21 22  1  0  0  0  0
 21 38  1  0  0  0  0
 21 39  1  0  0  0  0
 22 23  1  0  0  0  0
 22 40  1  0  0  0  0
 22 41  1  0  0  0  0
 23 24  1  0  0  0  0
 23 42  1  0  0  0  0
 23 43  1  0  0  0  0
 25 44  1  0  0  0  0
 25 45  1  0  0  0  0
M  END
> <s_m_source_file>
AV-unprocessed.smi

> <i_m_source_file_index>
195

> <i_lp_mmshare_version>
43012

> <i_f3d_flags>
0

> <s_epik_input>
TiNDW0NIMl1DMShbT0hdKVtDSDJdTihbQ0gyXTEpYyhuW2NIXW4yKWMoYzIzKW5bY0hdbjNbQ0gyXVtDQEhdKFtPSF0pW0NAQEhdNFtDSDJdW0NIMl1bQ0gyXU80

> <s_epik_cmdline>
J2VwaWtfcHl0aG9uJywgJy1waCcsICc3LjAnLCAnLXRuJywgJzgnLCAnLW1hJywgJzIwMCcsICctbWV0YWxfYmluZGluZycsICctaW1hZScsICc8aW5maWxlLm1hZT4nLCAnLW9tYWUnLCAnPG91dGZpbGUubWFlPic=

> <r_lp_tautomer_probability>
1

> <r_epik_Ionization_Penalty>
0.00307146

> <r_epik_Ionization_Penalty_Charging>
0

> <r_epik_Ionization_Penalty_Neutral>
0.00307146

> <r_epik_State_Penalty>
0.0020279

> <r_epik_Charging_Adjusted_Penalty>
0.0020279

> <i_epik_Tot_Q>
0

> <i_epik_Tot_abs_Q>
0

> <r_epik_Metal_State_Penalty>
-0

> <b_epik_Metal_Only>
0

> <s_lp_Force_Field>
OPLS_2005

> <r_lp_Energy>
44.2023

> <b_lp_Chiralities_Consistent>
1

> <s_lp_Variant>
AV-unprocessed.smi:195-4

> <Gold.Version>
5.8.1

> <Gold.Id.Protein>
6NUR|6NUR_protein|mol2

> <Gold.PLP.Fitness>
41.4595

> <Gold.PLP.PLP>
-33.4210

> <Gold.PLP.part.hbond>
-4.4480

> <Gold.PLP.part.metal>
0.0000

> <Gold.PLP.part.buried>
-4.4069

> <Gold.PLP.part.nonpolar>
-25.8986

> <Gold.PLP.part.repulsive>
0.2414

> <Gold.PLP.ligand.clash>
0.0000

> <Gold.PLP.ligand.torsion>
0.5718

> <Gold.PLP.Chemscore.Hbond>
2.9440

> <Gold.PLP.Chemscore.CHOScore>
0.0000

> <Gold.PLP.Chemscore.Metal>
0.0000

> <Gold.Chemscore.Hbonds>
donor molecule, donor type, donor heavy atom, donor atom, acceptor molecule, acceptor atom, score
      P1  H  6896  6909       L1     1  1.00
      P1  H  7997  8010       L1    11  0.75
      P1  H 10752 10763       L1     7  0.88

> <Gold.PLP.Chemscore.Internal.Correction>
0.3502

> <Gold.Rescore>
     Score         DG    S(hbond)    S(metal)    S(lipo)     H(rot)  DE(clash)    DE(int)     intcor
      5.59      -7.73       0.73        0.00      79.87       3.72       0.10       2.03       ----

> <Gold.Chemscore.Fitness>
5.5930

> <Gold.Chemscore.DG>
-7.7260

> <Gold.Chemscore.ZeroCoef>
-5.4800

> <Gold.Chemscore.Hbond>
0.7265

> <Gold.Chemscore.Metal>
0.0000

> <Gold.Chemscore.Lipo>
79.8743

> <Gold.Chemscore.Internal_Hbond>
0.0000

> <Gold.Chemscore.DEClash>
0.1036

> <Gold.Chemscore.DEInternal>
2.0294

> <Gold.Chemscore.Rot>
3.7210

> <Gold.Chemscore.Internal.Correction>
   9.000000E+99

> <Gold.Chemscore.Hbonds>
donor molecule, donor type, donor heavy atom, donor atom, acceptor molecule, acceptor atom, score
      P1  H  6896  6909       L1     1  0.50
      P1  H  7997  8010       L1    11  0.05
      P1  H 10752 10763       L1     7  0.10

> <Gold.Chemscore.Hbond.Weighted>
-2.4264

> <Gold.Chemscore.Metal.Weighted>
-0.0000

> <Gold.Chemscore.Lipo.Weighted>
-9.3453

> <Gold.Chemscore.Internal_Hbond.Weighted>
0.0000

> <Gold.Chemscore.DEClash.Weighted>
0.1036

> <Gold.Chemscore.DEInternal.Weighted>
2.0294

> <Gold.Chemscore.Rot.Weighted>
9.5256

> <Gold.Chemscore.Internal.Correction.Weighted>
   9.000000E+99

> <Gold.Protein.RotatedTorsions>
[ 6907 6896 6895 6894 ] final   22.91 input  -60.11 | X-H torsion
[ 7974 7965 7964 7962 ] final  110.81 input  175.53 | X-H torsion
[ 8008 7997 7996 7995 ] final   49.32 input   59.86 | X-H torsion
[ 10167 10162 10161 10158 ] final  171.12 input  -65.29 | X-H torsion
[ 10718 10713 10712 10709 ] final   81.21 input   66.30 | X-H torsion
[ 10763 10752 10751 10750 ] final   41.84 input  -60.55 | X-H torsion
[ 11005 11000 10999 10996 ] final -166.07 input  -57.11 | X-H torsion

> <Gold.Protein.ActiveResidues>
 VAL166  LYS551  ARG553  GLY616  TRP617  ASP618  TYR619  PRO620  LYS621  CYS622 
 ASP623  PHE694  ASN695  SER759  ASP760  ASP761  ALA762  ILE779  LEU786  VAL792 
 PHE793  MET794  SER795  GLU796  ALA797  LYS798  CYS799  TRP800  GLU811  SER814 

> <Gold.Protein.RotatedAtoms>
  151.9343  135.0242  160.0531 H   0  0  0  0  0  0  0  0  0  0  0  0  # atno 6907 bound_to 6896
  152.2091  133.4893  159.5109 H   0  0  0  0  0  0  0  0  0  0  0  0  # atno 6908 bound_to 6896
  150.6972  134.1407  159.4146 H   0  0  0  0  0  0  0  0  0  0  0  0  # atno 6909 bound_to 6896
  145.2502  139.2743  143.4071 H   0  0  0  0  0  0  0  0  0  0  0  0  # atno 7974 bound_to 7965
  155.4002  140.3437  155.4256 H   0  0  0  0  0  0  0  0  0  0  0  0  # atno 8008 bound_to 7997
  156.1508  140.1570  156.8805 H   0  0  0  0  0  0  0  0  0  0  0  0  # atno 8009 bound_to 7997
  154.5051  140.0804  156.7858 H   0  0  0  0  0  0  0  0  0  0  0  0  # atno 8010 bound_to 7997
  139.5037  144.3521  151.9912 H   0  0  0  0  0  0  0  0  0  0  0  0  # atno 10167 bound_to 10162
  157.6827  130.9994  150.2194 H   0  0  0  0  0  0  0  0  0  0  0  0  # atno 10718 bound_to 10713
  152.9898  135.6150  154.2852 H   0  0  0  0  0  0  0  0  0  0  0  0  # atno 10763 bound_to 10752
  154.2580  135.2783  155.2791 H   0  0  0  0  0  0  0  0  0  0  0  0  # atno 10764 bound_to 10752
  154.5230  135.5809  153.6754 H   0  0  0  0  0  0  0  0  0  0  0  0  # atno 10765 bound_to 10752
  140.5686  134.5261  157.5157 H   0  0  0  0  0  0  0  0  0  0  0  0  # atno 11005 bound_to 11000
  146.3304  140.2891  142.8614 LP  0  0  0  0  0  0  0  0  0  0  0  0  # atno 17320 bound_to 7965
  144.9510  140.8178  143.5572 LP  0  0  0  0  0  0  0  0  0  0  0  0  # atno 17321 bound_to 7965
  140.2957  144.3703  150.6075 LP  0  0  0  0  0  0  0  0  0  0  0  0  # atno 17342 bound_to 10162
  140.5912  143.2168  151.7249 LP  0  0  0  0  0  0  0  0  0  0  0  0  # atno 17343 bound_to 10162
  156.2848  130.3738  149.7899 LP  0  0  0  0  0  0  0  0  0  0  0  0  # atno 17370 bound_to 10713
  156.5576  130.8369  151.3319 LP  0  0  0  0  0  0  0  0  0  0  0  0  # atno 17371 bound_to 10713
  139.9373  134.7852  156.0770 LP  0  0  0  0  0  0  0  0  0  0  0  0  # atno 17394 bound_to 11000
  141.1070  133.6656  156.2888 LP  0  0  0  0  0  0  0  0  0  0  0  0  # atno 17395 bound_to 11000

$$$$
