AV-unprocessed.smi:414|AV-procd|sdf|2516|dock9
  -GOLD-   2262022463D 1   1.00000     0.00000
 Structure written by MMmdl.
 37 38  0  0  0  0  0  0  0  0  2 V2000
  152.8853  143.1621  161.2191 C   0  0  0  0  0  0  0  0  0  0  0  0
  151.9242  142.9837  160.0354 C   0  0  2  0  0  0  0  0  0  0  0  0
  151.9595  141.5419  159.4934 C   0  0  0  0  0  0  0  0  0  0  0  0
  150.9988  141.3609  158.3072 C   0  0  0  0  0  0  0  0  0  0  0  0
  151.3042  142.3626  157.1790 C   0  0  1  0  0  0  0  0  0  0  0  0
  150.3369  142.1928  156.0995 N   0  0  0  0  0  0  0  0  0  0  0  0
  150.1722  141.0780  155.3712 C   0  0  0  0  0  0  0  0  0  0  0  0
  150.8552  140.0644  155.5224 O   0  0  0  0  0  0  0  0  0  0  0  0
  149.0903  141.1340  154.2847 C   0  0  0  0  0  0  0  0  0  0  0  0
  147.7901  141.5894  154.8017 N   0  0  0  0  0  0  0  0  0  0  0  0
  147.1160  142.5956  154.0870 C   0  0  0  0  0  0  0  0  0  0  0  0
  145.9206  143.0704  154.4856 C   0  0  0  0  0  0  0  0  0  0  0  0
  145.3248  142.5138  155.6940 C   0  0  0  0  0  0  0  0  0  0  0  0
  144.2358  142.9384  156.0755 O   0  0  0  0  0  0  0  0  0  0  0  0
  146.0157  141.5360  156.3499 N   0  5  0  0  0  0  0  0  0  0  0  0
  147.2294  141.0604  155.9310 C   0  0  0  0  0  0  0  0  0  0  0  0
  147.8346  140.1746  156.5361 O   0  0  0  0  0  0  0  0  0  0  0  0
  151.2749  143.8085  157.7137 C   0  0  0  0  0  0  0  0  0  0  0  0
  152.2282  143.9873  158.9067 C   0  0  0  0  0  0  0  0  0  0  0  0
  153.9180  142.9756  160.9229 H   0  0  0  0  0  0  0  0  0  0  0  0
  152.6420  142.4749  162.0298 H   0  0  0  0  0  0  0  0  0  0  0  0
  152.8313  144.1748  161.6193 H   0  0  0  0  0  0  0  0  0  0  0  0
  150.9148  143.1819  160.3992 H   0  0  0  0  0  0  0  0  0  0  0  0
  152.9734  141.2897  159.1800 H   0  0  0  0  0  0  0  0  0  0  0  0
  151.6979  140.8387  160.2847 H   0  0  0  0  0  0  0  0  0  0  0  0
  151.0712  140.3400  157.9299 H   0  0  0  0  0  0  0  0  0  0  0  0
  149.9716  141.4911  158.6512 H   0  0  0  0  0  0  0  0  0  0  0  0
  152.3047  142.1469  156.7985 H   0  0  0  0  0  0  0  0  0  0  0  0
  149.7317  142.9766  155.9027 H   0  0  0  0  0  0  0  0  0  0  0  0
  149.4143  141.7778  153.4647 H   0  0  0  0  0  0  0  0  0  0  0  0
  148.9993  140.1387  153.8477 H   0  0  0  0  0  0  0  0  0  0  0  0
  147.6220  142.9484  153.2005 H   0  0  0  0  0  0  0  0  0  0  0  0
  145.4138  143.8409  153.9236 H   0  0  0  0  0  0  0  0  0  0  0  0
  151.5478  144.5081  156.9227 H   0  0  0  0  0  0  0  0  0  0  0  0
  150.2607  144.0696  158.0194 H   0  0  0  0  0  0  0  0  0  0  0  0
  152.1513  145.0077  159.2843 H   0  0  0  0  0  0  0  0  0  0  0  0
  153.2576  143.8609  158.5685 H   0  0  0  0  0  0  0  0  0  0  0  0
  1  2  1  0  0  0  0
  1 20  1  0  0  0  0
  1 21  1  0  0  0  0
  1 22  1  0  0  0  0
  2 19  1  0  0  0  0
  2  3  1  0  0  0  0
  2 23  1  0  0  0  0
  3  4  1  0  0  0  0
  3 24  1  0  0  0  0
  3 25  1  0  0  0  0
  4  5  1  0  0  0  0
  4 26  1  0  0  0  0
  4 27  1  0  0  0  0
  5  6  1  0  0  0  0
  5 18  1  0  0  0  0
  5 28  1  0  0  0  0
  6  7  1  0  0  0  0
  6 29  1  0  0  0  0
  7  8  2  0  0  0  0
  7  9  1  0  0  0  0
  9 10  1  0  0  0  0
  9 30  1  0  0  0  0
  9 31  1  0  0  0  0
 10 16  1  0  0  0  0
 10 11  1  0  0  0  0
 11 12  2  0  0  0  0
 11 32  1  0  0  0  0
 12 13  1  0  0  0  0
 12 33  1  0  0  0  0
 13 14  2  0  0  0  0
 13 15  1  0  0  0  0
 15 16  1  0  0  0  0
 16 17  2  0  0  0  0
 18 19  1  0  0  0  0
 18 34  1  0  0  0  0
 18 35  1  0  0  0  0
 19 36  1  0  0  0  0
 19 37  1  0  0  0  0
M  CHG  1  15  -1
M  END
> <s_m_source_file>
AV-unprocessed.smi

> <i_m_source_file_index>
414

> <i_lp_mmshare_version>
43012

> <i_f3d_flags>
0

> <s_epik_input>
W0NIM11bQ0BASF0xW0NIMl1bQ0gyXVtDQEhdKFtDSDJdW0NIMl0xKVtOSF1DKD1PKVtDSDJdbjJbY0hdW2NIXWMoPU8pW25IXWMyPU8=

> <s_epik_cmdline>
J2VwaWtfcHl0aG9uJywgJy1waCcsICc3LjAnLCAnLXRuJywgJzgnLCAnLW1hJywgJzIwMCcsICctbWV0YWxfYmluZGluZycsICctaW1hZScsICc8aW5maWxlLm1hZT4nLCAnLW9tYWUnLCAnPG91dGZpbGUubWFlPic=

> <r_lp_tautomer_probability>
0.999537

> <r_epik_Ionization_Penalty>
3.11551

> <r_epik_Ionization_Penalty_Charging>
2.90498e-08

> <r_epik_Ionization_Penalty_Neutral>
3.11551

> <r_epik_State_Penalty>
3.11459

> <r_epik_Charging_Adjusted_Penalty>
3.11459

> <i_epik_Tot_Q>
-1

> <i_epik_Tot_abs_Q>
1

> <r_epik_Metal_State_Penalty>
0.463083

> <b_epik_Metal_Only>
1

> <s_lp_Force_Field>
OPLS_2005

> <r_lp_Energy>
17.7967

> <b_lp_Chiralities_Consistent>
1

> <s_lp_Variant>
AV-unprocessed.smi:414-3

> <Gold.Version>
5.8.1

> <Gold.Id.Protein>
6NUR|6NUR_protein|mol2

> <Gold.PLP.Fitness>
40.9923

> <Gold.PLP.PLP>
-38.3932

> <Gold.PLP.part.hbond>
-1.1560

> <Gold.PLP.part.metal>
0.0000

> <Gold.PLP.part.buried>
-3.9085

> <Gold.PLP.part.nonpolar>
-33.1221

> <Gold.PLP.part.repulsive>
0.2778

> <Gold.PLP.ligand.clash>
0.0000

> <Gold.PLP.ligand.torsion>
0.2030

> <Gold.PLP.Chemscore.Hbond>
1.0000

> <Gold.PLP.Chemscore.CHOScore>
0.0000

> <Gold.PLP.Chemscore.Metal>
0.0000

> <Gold.Chemscore.Hbonds>
donor molecule, donor type, donor heavy atom, donor atom, acceptor molecule, acceptor atom, score
      L1  H     6    29       P1  8028  1.00

> <Gold.PLP.Chemscore.Internal.Correction>
0.0050

> <Gold.Rescore>
     Score         DG    S(hbond)    S(metal)    S(lipo)     H(rot)  DE(clash)    DE(int)     intcor
     13.91     -15.36       0.99        0.00      92.26       1.65       0.02       1.42       ----

> <Gold.Chemscore.Fitness>
13.9137

> <Gold.Chemscore.DG>
-15.3557

> <Gold.Chemscore.ZeroCoef>
-5.4800

> <Gold.Chemscore.Hbond>
0.9932

> <Gold.Chemscore.Metal>
0.0000

> <Gold.Chemscore.Lipo>
92.2647

> <Gold.Chemscore.Internal_Hbond>
0.0000

> <Gold.Chemscore.DEClash>
0.0250

> <Gold.Chemscore.DEInternal>
1.4170

> <Gold.Chemscore.Rot>
1.6549

> <Gold.Chemscore.Internal.Correction>
   9.000000E+99

> <Gold.Chemscore.Hbonds>
donor molecule, donor type, donor heavy atom, donor atom, acceptor molecule, acceptor atom, score
      L1  H     6    29       P1  8028  0.99

> <Gold.Chemscore.Hbond.Weighted>
-3.3172

> <Gold.Chemscore.Metal.Weighted>
-0.0000

> <Gold.Chemscore.Lipo.Weighted>
-10.7950

> <Gold.Chemscore.Internal_Hbond.Weighted>
0.0000

> <Gold.Chemscore.DEClash.Weighted>
0.0250

> <Gold.Chemscore.DEInternal.Weighted>
1.4170

> <Gold.Chemscore.Rot.Weighted>
4.2364

> <Gold.Chemscore.Internal.Correction.Weighted>
   9.000000E+99

> <Gold.Protein.RotatedTorsions>
[ 6907 6896 6895 6894 ] final   95.24 input  -60.11 | X-H torsion
[ 7974 7965 7964 7962 ] final -172.57 input  175.53 | X-H torsion
[ 8008 7997 7996 7995 ] final  157.57 input   59.86 | X-H torsion
[ 10167 10162 10161 10158 ] final    9.80 input  -65.29 | X-H torsion
[ 10718 10713 10712 10709 ] final  153.67 input   66.30 | X-H torsion
[ 10763 10752 10751 10750 ] final  140.16 input  -60.55 | X-H torsion
[ 11005 11000 10999 10996 ] final  109.21 input  -57.11 | X-H torsion

> <Gold.Protein.ActiveResidues>
 VAL166  LYS551  ARG553  GLY616  TRP617  ASP618  TYR619  PRO620  LYS621  CYS622 
 ASP623  PHE694  ASN695  SER759  ASP760  ASP761  ALA762  ILE779  LEU786  VAL792 
 PHE793  MET794  SER795  GLU796  ALA797  LYS798  CYS799  TRP800  GLU811  SER814 

> <Gold.Protein.RotatedAtoms>
  152.5445  134.1070  159.8341 H   0  0  0  0  0  0  0  0  0  0  0  0  # atno 6907 bound_to 6896
  151.1141  133.5144  159.2612 H   0  0  0  0  0  0  0  0  0  0  0  0  # atno 6908 bound_to 6896
  151.1851  135.0388  159.8863 H   0  0  0  0  0  0  0  0  0  0  0  0  # atno 6909 bound_to 6896
  144.7145  140.1753  143.6363 H   0  0  0  0  0  0  0  0  0  0  0  0  # atno 7974 bound_to 7965
  156.2355  140.1881  156.7129 H   0  0  0  0  0  0  0  0  0  0  0  0  # atno 8008 bound_to 7997
  154.6100  140.0623  156.9508 H   0  0  0  0  0  0  0  0  0  0  0  0  # atno 8009 bound_to 7997
  155.2033  140.3294  155.4342 H   0  0  0  0  0  0  0  0  0  0  0  0  # atno 8010 bound_to 7997
  140.6233  143.8157  150.7201 H   0  0  0  0  0  0  0  0  0  0  0  0  # atno 10167 bound_to 10162
  157.2418  131.0760  151.1787 H   0  0  0  0  0  0  0  0  0  0  0  0  # atno 10718 bound_to 10713
  153.9181  135.3003  155.3448 H   0  0  0  0  0  0  0  0  0  0  0  0  # atno 10763 bound_to 10752
  154.7589  135.4944  153.9430 H   0  0  0  0  0  0  0  0  0  0  0  0  # atno 10764 bound_to 10752
  153.1156  135.6770  153.9526 H   0  0  0  0  0  0  0  0  0  0  0  0  # atno 10765 bound_to 10752
  139.8858  134.9452  156.6090 H   0  0  0  0  0  0  0  0  0  0  0  0  # atno 11005 bound_to 11000
  145.8906  139.2374  143.1551 LP  0  0  0  0  0  0  0  0  0  0  0  0  # atno 17320 bound_to 7965
  145.9907  140.8605  143.0068 LP  0  0  0  0  0  0  0  0  0  0  0  0  # atno 17321 bound_to 7965
  140.1752  143.4161  152.1972 LP  0  0  0  0  0  0  0  0  0  0  0  0  # atno 17342 bound_to 10162
  139.5457  144.7296  151.4590 LP  0  0  0  0  0  0  0  0  0  0  0  0  # atno 17343 bound_to 10162
  157.3371  130.7014  149.6359 LP  0  0  0  0  0  0  0  0  0  0  0  0  # atno 17370 bound_to 10713
  155.9670  130.4290  150.4815 LP  0  0  0  0  0  0  0  0  0  0  0  0  # atno 17371 bound_to 10713
  140.7826  133.8648  155.8580 LP  0  0  0  0  0  0  0  0  0  0  0  0  # atno 17394 bound_to 11000
  140.9747  134.1484  157.4546 LP  0  0  0  0  0  0  0  0  0  0  0  0  # atno 17395 bound_to 11000

$$$$
