AV-unprocessed.smi:820|AV-procd|sdf|3837|dock2
  -GOLD-   22720 1283D 1   1.00000     0.00000
 Structure written by MMmdl.
 31 32  0  0  0  0  0  0  0  0  2 V2000
  156.9769  137.1680  163.8508 C   0  0  0  0  0  0  0  0  0  0  0  0
  155.7633  136.2892  163.5366 C   0  0  0  0  0  0  0  0  0  0  0  0
  155.7916  135.7056  161.8174 S   0  0  0  0  0  0  0  0  0  0  0  0
  155.1110  136.9911  160.8118 C   0  0  0  0  0  0  0  0  0  0  0  0
  155.8387  138.1725  160.5807 C   0  0  0  0  0  0  0  0  0  0  0  0
  155.2507  139.1642  159.7733 C   0  0  0  0  0  0  0  0  0  0  0  0
  153.9673  138.9504  159.2217 C   0  0  0  0  0  0  0  0  0  0  0  0
  153.3717  139.8764  158.4536 N   0  5  0  0  0  0  0  0  0  0  0  0
  152.1434  140.3573  158.7762 C   0  0  0  0  0  0  0  0  0  0  0  0
  151.1164  139.6724  158.7926 O   0  0  0  0  0  0  0  0  0  0  0  0
  152.0914  141.7780  159.1120 C   0  0  0  0  0  0  0  0  0  0  0  0
  153.0935  142.3453  159.8255 C   0  0  0  0  0  0  0  0  0  0  0  0
  153.1020  143.6609  160.2174 O   0  0  0  0  0  0  0  0  0  0  0  0
  151.8634  144.3384  160.0448 C   0  0  0  0  0  0  0  0  0  0  0  0
  151.2208  143.9419  158.7083 C   0  0  0  0  0  0  0  0  0  0  0  0
  151.0328  142.5326  158.6548 O   0  0  0  0  0  0  0  0  0  0  0  0
  153.3353  137.7228  159.5309 C   0  0  0  0  0  0  0  0  0  0  0  0
  153.8832  136.7600  160.3033 N   0  0  0  0  0  0  0  0  0  0  0  0
  156.9485  137.5137  164.8842 H   0  0  0  0  0  0  0  0  0  0  0  0
  157.0037  138.0466  163.2056 H   0  0  0  0  0  0  0  0  0  0  0  0
  157.9074  136.6179  163.7087 H   0  0  0  0  0  0  0  0  0  0  0  0
  155.7454  135.4273  164.2040 H   0  0  0  0  0  0  0  0  0  0  0  0
  154.8440  136.8500  163.7067 H   0  0  0  0  0  0  0  0  0  0  0  0
  156.8194  138.3177  161.0085 H   0  0  0  0  0  0  0  0  0  0  0  0
  155.7839  140.0832  159.5776 H   0  0  0  0  0  0  0  0  0  0  0  0
  153.9628  141.8197  160.1937 H   0  0  0  0  0  0  0  0  0  0  0  0
  151.1998  144.0902  160.8742 H   0  0  0  0  0  0  0  0  0  0  0  0
  152.0359  145.4141  160.0820 H   0  0  0  0  0  0  0  0  0  0  0  0
  150.2566  144.4351  158.5868 H   0  0  0  0  0  0  0  0  0  0  0  0
  151.8500  144.2535  157.8734 H   0  0  0  0  0  0  0  0  0  0  0  0
  152.3515  137.5033  159.1420 H   0  0  0  0  0  0  0  0  0  0  0  0
  1  2  1  0  0  0  0
  1 19  1  0  0  0  0
  1 20  1  0  0  0  0
  1 21  1  0  0  0  0
  2  3  1  0  0  0  0
  2 22  1  0  0  0  0
  2 23  1  0  0  0  0
  3  4  1  0  0  0  0
  4 18  1  0  0  0  0
  4  5  2  0  0  0  0
  5  6  1  0  0  0  0
  5 24  1  0  0  0  0
  6  7  2  0  0  0  0
  6 25  1  0  0  0  0
  7  8  1  0  0  0  0
  7 17  1  0  0  0  0
  8  9  1  0  0  0  0
  9 10  2  0  0  0  0
  9 11  1  0  0  0  0
 11 16  1  0  0  0  0
 11 12  2  0  0  0  0
 12 13  1  0  0  0  0
 12 26  1  0  0  0  0
 13 14  1  0  0  0  0
 14 15  1  0  0  0  0
 14 27  1  0  0  0  0
 14 28  1  0  0  0  0
 15 16  1  0  0  0  0
 15 29  1  0  0  0  0
 15 30  1  0  0  0  0
 17 18  2  0  0  0  0
 17 31  1  0  0  0  0
M  CHG  1   8  -1
M  END
> <s_m_source_file>
AV-unprocessed.smi

> <i_m_source_file_index>
820

> <i_lp_mmshare_version>
43012

> <i_f3d_flags>
0

> <s_epik_input>
W0NIM11bQ0gyXVNjMVtjSF1bY0hdYyhbY0hdbjEpW05IXUMoPU8pQzI9W0NIXU9bQ0gyXVtDSDJdTzI=

> <s_epik_cmdline>
J2VwaWtfcHl0aG9uJywgJy1waCcsICc3LjAnLCAnLXRuJywgJzgnLCAnLW1hJywgJzIwMCcsICctbWV0YWxfYmluZGluZycsICctaW1hZScsICc8aW5maWxlLm1hZT4nLCAnLW9tYWUnLCAnPG91dGZpbGUubWFlPic=

> <r_lp_tautomer_probability>
1

> <r_epik_Ionization_Penalty>
5.63505

> <r_epik_Ionization_Penalty_Charging>
5.63079

> <r_epik_Ionization_Penalty_Neutral>
0.00426194

> <r_epik_State_Penalty>
5.63074

> <r_epik_Charging_Adjusted_Penalty>
11.2615

> <i_epik_Tot_Q>
-1

> <i_epik_Tot_abs_Q>
1

> <r_epik_Metal_State_Penalty>
1.62037

> <b_epik_Metal_Only>
1

> <s_lp_Force_Field>
OPLS_2005

> <r_lp_Energy>
4.11082

> <b_lp_Chiralities_Consistent>
1

> <s_lp_Variant>
AV-unprocessed.smi:820-2

> <Gold.Version>
5.8.1

> <Gold.Id.Protein>
6NUR|6NUR_protein|mol2

> <Gold.PLP.Fitness>
40.9674

> <Gold.PLP.PLP>
-35.7220

> <Gold.PLP.part.hbond>
-1.7617

> <Gold.PLP.part.metal>
0.0000

> <Gold.PLP.part.buried>
-4.6008

> <Gold.PLP.part.nonpolar>
-29.5163

> <Gold.PLP.part.repulsive>
0.0826

> <Gold.PLP.ligand.clash>
0.0000

> <Gold.PLP.ligand.torsion>
1.9755

> <Gold.PLP.Chemscore.Hbond>
2.8450

> <Gold.PLP.Chemscore.CHOScore>
0.0000

> <Gold.PLP.Chemscore.Metal>
0.0000

> <Gold.Chemscore.Hbonds>
donor molecule, donor type, donor heavy atom, donor atom, acceptor molecule, acceptor atom, score
      P1  H  7997  8009       L1     8  1.89

> <Gold.PLP.Chemscore.Internal.Correction>
0.6613

> <Gold.Rescore>
     Score         DG    S(hbond)    S(metal)    S(lipo)     H(rot)  DE(clash)    DE(int)     intcor
     17.73     -19.33       1.85        0.00      90.31       1.13       0.00       1.60       ----

> <Gold.Chemscore.Fitness>
17.7346

> <Gold.Chemscore.DG>
-19.3341

> <Gold.Chemscore.ZeroCoef>
-5.4800

> <Gold.Chemscore.Hbond>
1.8486

> <Gold.Chemscore.Metal>
0.0000

> <Gold.Chemscore.Lipo>
90.3148

> <Gold.Chemscore.Internal_Hbond>
0.0000

> <Gold.Chemscore.DEClash>
0.0030

> <Gold.Chemscore.DEInternal>
1.5965

> <Gold.Chemscore.Rot>
1.1277

> <Gold.Chemscore.Internal.Correction>
   9.000000E+99

> <Gold.Chemscore.Hbonds>
donor molecule, donor type, donor heavy atom, donor atom, acceptor molecule, acceptor atom, score
      P1  H  7997  8009       L1     8  0.50

> <Gold.Chemscore.Hbond.Weighted>
-6.1743

> <Gold.Chemscore.Metal.Weighted>
-0.0000

> <Gold.Chemscore.Lipo.Weighted>
-10.5668

> <Gold.Chemscore.Internal_Hbond.Weighted>
0.0000

> <Gold.Chemscore.DEClash.Weighted>
0.0030

> <Gold.Chemscore.DEInternal.Weighted>
1.5965

> <Gold.Chemscore.Rot.Weighted>
2.8870

> <Gold.Chemscore.Internal.Correction.Weighted>
   9.000000E+99

> <Gold.Protein.RotatedTorsions>
[ 6907 6896 6895 6894 ] final  -95.49 input  -60.11 | X-H torsion
[ 7974 7965 7964 7962 ] final  -14.42 input  175.53 | X-H torsion
[ 8008 7997 7996 7995 ] final  166.29 input   59.86 | X-H torsion
[ 10167 10162 10161 10158 ] final  156.91 input  -65.29 | X-H torsion
[ 10718 10713 10712 10709 ] final  102.82 input   66.30 | X-H torsion
[ 10763 10752 10751 10750 ] final  168.60 input  -60.55 | X-H torsion
[ 11005 11000 10999 10996 ] final  -26.24 input  -57.11 | X-H torsion

> <Gold.Protein.ActiveResidues>
 VAL166  LYS551  ARG553  GLY616  TRP617  ASP618  TYR619  PRO620  LYS621  CYS622 
 ASP623  PHE694  ASN695  SER759  ASP760  ASP761  ALA762  ILE779  LEU786  VAL792 
 PHE793  MET794  SER795  GLU796  ALA797  LYS798  CYS799  TRP800  GLU811  SER814 

> <Gold.Protein.RotatedAtoms>
  150.6965  134.1650  159.4190 H   0  0  0  0  0  0  0  0  0  0  0  0  # atno 6907 bound_to 6896
  151.9629  135.0112  160.0558 H   0  0  0  0  0  0  0  0  0  0  0  0  # atno 6908 bound_to 6896
  152.1910  133.4738  159.5045 H   0  0  0  0  0  0  0  0  0  0  0  0  # atno 6909 bound_to 6896
  146.2075  140.3346  142.8402 H   0  0  0  0  0  0  0  0  0  0  0  0  # atno 7974 bound_to 7965
  156.1730  140.1647  156.8413 H   0  0  0  0  0  0  0  0  0  0  0  0  # atno 8008 bound_to 7997
  154.5277  140.0764  156.8322 H   0  0  0  0  0  0  0  0  0  0  0  0  # atno 8009 bound_to 7997
  155.3472  140.3388  155.4241 H   0  0  0  0  0  0  0  0  0  0  0  0  # atno 8010 bound_to 7997
  139.4822  144.4966  151.8231 H   0  0  0  0  0  0  0  0  0  0  0  0  # atno 10167 bound_to 10162
  157.6791  131.0763  150.5462 H   0  0  0  0  0  0  0  0  0  0  0  0  # atno 10718 bound_to 10713
  154.3710  135.2753  155.2266 H   0  0  0  0  0  0  0  0  0  0  0  0  # atno 10763 bound_to 10752
  154.4414  135.5953  153.6135 H   0  0  0  0  0  0  0  0  0  0  0  0  # atno 10764 bound_to 10752
  152.9838  135.6019  154.3941 H   0  0  0  0  0  0  0  0  0  0  0  0  # atno 10765 bound_to 10752
  140.9011  133.7523  156.0545 H   0  0  0  0  0  0  0  0  0  0  0  0  # atno 11005 bound_to 11000
  144.8828  140.7423  143.5976 LP  0  0  0  0  0  0  0  0  0  0  0  0  # atno 17320 bound_to 7965
  145.3267  139.1772  143.4559 LP  0  0  0  0  0  0  0  0  0  0  0  0  # atno 17321 bound_to 7965
  140.4455  144.1928  150.5894 LP  0  0  0  0  0  0  0  0  0  0  0  0  # atno 17342 bound_to 10162
  140.4639  143.2438  151.9182 LP  0  0  0  0  0  0  0  0  0  0  0  0  # atno 17343 bound_to 10162
  156.5768  130.4294  149.5995 LP  0  0  0  0  0  0  0  0  0  0  0  0  # atno 17370 bound_to 10713
  156.2695  130.7008  151.1801 LP  0  0  0  0  0  0  0  0  0  0  0  0  # atno 17371 bound_to 10713
  140.8229  134.3269  157.5375 LP  0  0  0  0  0  0  0  0  0  0  0  0  # atno 17394 bound_to 11000
  139.8742  134.9319  156.3541 LP  0  0  0  0  0  0  0  0  0  0  0  0  # atno 17395 bound_to 11000

$$$$
