AV-unprocessed.smi:1386|AV-procd|sdf|5638|dock1
  -GOLD-   22720 5253D 1   1.00000     0.00000
 Structure written by MMmdl.
 35 36  0  0  0  0  0  0  0  0  1 V2000
  151.3636  139.0688  158.2870 C   0  0  0  0  0  0  0  0  0  0  0  0
  151.2600  140.3821  157.4974 C   0  0  2  0  0  0  0  0  0  0  0  0
  151.9654  140.2801  156.1317 C   0  0  0  0  0  0  0  0  0  0  0  0
  151.7301  139.0009  155.4874 N   0  0  0  0  0  0  0  0  0  0  0  0
  150.5025  138.4366  155.1678 C   0  0  0  0  0  0  0  0  0  0  0  0
  150.7707  137.2300  154.5616 C   0  0  0  0  0  0  0  0  0  0  0  0
  152.1481  137.0321  154.4995 N   0  0  0  0  0  0  0  0  0  0  0  0
  152.6497  138.1205  155.0684 C   0  0  0  0  0  0  0  0  0  0  0  0
  151.8388  141.4755  158.2752 N   0  0  0  0  0  0  0  0  0  0  0  0
  151.8757  142.7689  157.9122 C   0  0  0  0  0  0  0  0  0  0  0  0
  151.3610  143.1724  156.8685 O   0  0  0  0  0  0  0  0  0  0  0  0
  152.5343  143.5805  158.7784 N   0  0  0  0  0  0  0  0  0  0  0  0
  153.2453  143.1544  159.9955 C   0  0  0  0  0  0  0  0  0  0  0  0
  152.3272  143.3617  161.2112 C   0  0  0  0  0  0  0  0  0  0  0  0
  151.9228  145.1232  161.4273 S   0  0  0  0  0  0  0  0  0  0  0  0
  151.3946  145.5276  159.7328 C   0  0  0  0  0  0  0  0  0  0  0  0
  152.4258  145.0420  158.6999 C   0  0  0  0  0  0  0  0  0  0  0  0
  150.9177  138.2425  157.7330 H   0  0  0  0  0  0  0  0  0  0  0  0
  150.8435  139.1405  159.2428 H   0  0  0  0  0  0  0  0  0  0  0  0
  152.4029  138.8090  158.4918 H   0  0  0  0  0  0  0  0  0  0  0  0
  150.2028  140.5845  157.3143 H   0  0  0  0  0  0  0  0  0  0  0  0
  151.6339  141.0771  155.4644 H   0  0  0  0  0  0  0  0  0  0  0  0
  153.0423  140.4024  156.2541 H   0  0  0  0  0  0  0  0  0  0  0  0
  149.5664  138.9279  155.3887 H   0  0  0  0  0  0  0  0  0  0  0  0
  150.0839  136.4954  154.1682 H   0  0  0  0  0  0  0  0  0  0  0  0
  153.7118  138.2851  155.1761 H   0  0  0  0  0  0  0  0  0  0  0  0
  152.2802  141.2237  159.1474 H   0  0  0  0  0  0  0  0  0  0  0  0
  153.5841  142.1191  159.9548 H   0  0  0  0  0  0  0  0  0  0  0  0
  154.1577  143.7402  160.1157 H   0  0  0  0  0  0  0  0  0  0  0  0
  151.4032  142.7946  161.0923 H   0  0  0  0  0  0  0  0  0  0  0  0
  152.8099  143.0004  162.1193 H   0  0  0  0  0  0  0  0  0  0  0  0
  150.4227  145.0702  159.5440 H   0  0  0  0  0  0  0  0  0  0  0  0
  151.2598  146.6066  159.6566 H   0  0  0  0  0  0  0  0  0  0  0  0
  153.3960  145.5026  158.8908 H   0  0  0  0  0  0  0  0  0  0  0  0
  152.1388  145.3781  157.7023 H   0  0  0  0  0  0  0  0  0  0  0  0
  1  2  1  0  0  0  0
  1 18  1  0  0  0  0
  1 19  1  0  0  0  0
  1 20  1  0  0  0  0
  2  3  1  0  0  0  0
  2  9  1  0  0  0  0
  2 21  1  0  0  0  0
  3  4  1  0  0  0  0
  3 22  1  0  0  0  0
  3 23  1  0  0  0  0
  4  8  1  0  0  0  0
  4  5  1  0  0  0  0
  5  6  2  0  0  0  0
  5 24  1  0  0  0  0
  6  7  1  0  0  0  0
  6 25  1  0  0  0  0
  7  8  2  0  0  0  0
  8 26  1  0  0  0  0
  9 10  1  0  0  0  0
  9 27  1  0  0  0  0
 10 11  2  0  0  0  0
 10 12  1  0  0  0  0
 12 17  1  0  0  0  0
 12 13  1  0  0  0  0
 13 14  1  0  0  0  0
 13 28  1  0  0  0  0
 13 29  1  0  0  0  0
 14 15  1  0  0  0  0
 14 30  1  0  0  0  0
 14 31  1  0  0  0  0
 15 16  1  0  0  0  0
 16 17  1  0  0  0  0
 16 32  1  0  0  0  0
 16 33  1  0  0  0  0
 17 34  1  0  0  0  0
 17 35  1  0  0  0  0
M  END
> <s_m_source_file>
AV-unprocessed.smi

> <i_m_source_file_index>
1386

> <i_lp_mmshare_version>
43012

> <i_f3d_flags>
0

> <s_epik_input>
W2NIXTFuW2NIXVtjSF1uMVtDSDJdW0NAQEhdKFtDSDNdKVtOSF1DKD1PKU4yW0NIMl1bQ0gyXVNbQ0gyXVtDSDJdMg==

> <s_epik_cmdline>
J2VwaWtfcHl0aG9uJywgJy1waCcsICc3LjAnLCAnLXRuJywgJzgnLCAnLW1hJywgJzIwMCcsICctbWV0YWxfYmluZGluZycsICctaW1hZScsICc8aW5maWxlLm1hZT4nLCAnLW9tYWUnLCAnPG91dGZpbGUubWFlPic=

> <r_lp_tautomer_probability>
1

> <r_epik_Ionization_Penalty>
0.622677

> <r_epik_Ionization_Penalty_Charging>
0.62263

> <r_epik_Ionization_Penalty_Neutral>
4.67019e-05

> <r_epik_State_Penalty>
0.63879

> <r_epik_Charging_Adjusted_Penalty>
1.26142

> <i_epik_Tot_Q>
0

> <i_epik_Tot_abs_Q>
0

> <r_epik_Metal_State_Penalty>
0.307117

> <b_epik_Metal_Only>
0

> <s_lp_Force_Field>
OPLS_2005

> <r_lp_Energy>
25.5009

> <b_lp_Chiralities_Consistent>
1

> <s_lp_Variant>
AV-unprocessed.smi:1386-3

> <Gold.Version>
5.8.1

> <Gold.Id.Protein>
6NUR|6NUR_protein|mol2

> <Gold.PLP.Fitness>
46.0120

> <Gold.PLP.PLP>
-40.5556

> <Gold.PLP.part.hbond>
-1.0000

> <Gold.PLP.part.metal>
0.0000

> <Gold.PLP.part.buried>
-3.1341

> <Gold.PLP.part.nonpolar>
-37.7328

> <Gold.PLP.part.repulsive>
1.4142

> <Gold.PLP.ligand.clash>
0.0000

> <Gold.PLP.ligand.torsion>
0.2203

> <Gold.PLP.Chemscore.Hbond>
0.9440

> <Gold.PLP.Chemscore.CHOScore>
1.0086

> <Gold.PLP.Chemscore.Metal>
0.0000

> <Gold.Chemscore.Hbonds>
donor molecule, donor type, donor heavy atom, donor atom, acceptor molecule, acceptor atom, score
      P1  H 10752 10764       L1     7  0.86
      L1  C     6    25       P1  7948  0.97

> <Gold.PLP.Chemscore.Internal.Correction>
0.0393

> <Gold.Rescore>
     Score         DG    S(hbond)    S(metal)    S(lipo)     H(rot)  DE(clash)    DE(int)     intcor
     13.64     -15.21       0.89        0.00      92.45       1.59       1.38       0.18       ----

> <Gold.Chemscore.Fitness>
13.6404

> <Gold.Chemscore.DG>
-15.2084

> <Gold.Chemscore.ZeroCoef>
-5.4800

> <Gold.Chemscore.Hbond>
0.8929

> <Gold.Chemscore.Metal>
0.0000

> <Gold.Chemscore.Lipo>
92.4515

> <Gold.Chemscore.Internal_Hbond>
0.0000

> <Gold.Chemscore.DEClash>
1.3832

> <Gold.Chemscore.DEInternal>
0.1848

> <Gold.Chemscore.Rot>
1.5901

> <Gold.Chemscore.Internal.Correction>
   9.000000E+99

> <Gold.Chemscore.Hbonds>
donor molecule, donor type, donor heavy atom, donor atom, acceptor molecule, acceptor atom, score
      P1  H 10752 10764       L1     7  0.84

> <Gold.Chemscore.Hbond.Weighted>
-2.9822

> <Gold.Chemscore.Metal.Weighted>
-0.0000

> <Gold.Chemscore.Lipo.Weighted>
-10.8168

> <Gold.Chemscore.Internal_Hbond.Weighted>
0.0000

> <Gold.Chemscore.DEClash.Weighted>
1.3832

> <Gold.Chemscore.DEInternal.Weighted>
0.1848

> <Gold.Chemscore.Rot.Weighted>
4.0706

> <Gold.Chemscore.Internal.Correction.Weighted>
   9.000000E+99

> <Gold.Protein.RotatedTorsions>
[ 6907 6896 6895 6894 ] final  118.02 input  -60.11 | X-H torsion
[ 7974 7965 7964 7962 ] final  146.19 input  175.53 | X-H torsion
[ 8008 7997 7996 7995 ] final -101.46 input   59.86 | X-H torsion
[ 10167 10162 10161 10158 ] final  158.62 input  -65.29 | X-H torsion
[ 10718 10713 10712 10709 ] final    7.73 input   66.30 | X-H torsion
[ 10763 10752 10751 10750 ] final  -86.16 input  -60.55 | X-H torsion
[ 11005 11000 10999 10996 ] final  143.86 input  -57.11 | X-H torsion

> <Gold.Protein.ActiveResidues>
 VAL166  LYS551  ARG553  GLY616  TRP617  ASP618  TYR619  PRO620  LYS621  CYS622 
 ASP623  PHE694  ASN695  SER759  ASP760  ASP761  ALA762  ILE779  LEU786  VAL792 
 PHE793  MET794  SER795  GLU796  ALA797  LYS798  CYS799  TRP800  GLU811  SER814 

> <Gold.Protein.RotatedAtoms>
  152.4572  133.7747  159.6817 H   0  0  0  0  0  0  0  0  0  0  0  0  # atno 6907 bound_to 6896
  150.8502  133.7788  159.3034 H   0  0  0  0  0  0  0  0  0  0  0  0  # atno 6908 bound_to 6896
  151.5386  135.1071  159.9972 H   0  0  0  0  0  0  0  0  0  0  0  0  # atno 6909 bound_to 6896
  144.8691  139.5874  143.5895 H   0  0  0  0  0  0  0  0  0  0  0  0  # atno 7974 bound_to 7965
  154.8428  140.0434  157.1553 H   0  0  0  0  0  0  0  0  0  0  0  0  # atno 8008 bound_to 7997
  154.9028  140.3002  155.5288 H   0  0  0  0  0  0  0  0  0  0  0  0  # atno 8009 bound_to 7997
  156.2993  140.2373  156.4057 H   0  0  0  0  0  0  0  0  0  0  0  0  # atno 8010 bound_to 7997
  139.4828  144.4807  151.8448 H   0  0  0  0  0  0  0  0  0  0  0  0  # atno 10167 bound_to 10162
  156.9412  130.5862  149.5652 H   0  0  0  0  0  0  0  0  0  0  0  0  # atno 10718 bound_to 10713
  154.6193  135.5459  153.7557 H   0  0  0  0  0  0  0  0  0  0  0  0  # atno 10763 bound_to 10752
  153.0231  135.6409  154.1464 H   0  0  0  0  0  0  0  0  0  0  0  0  # atno 10764 bound_to 10752
  154.1399  135.2909  155.3143 H   0  0  0  0  0  0  0  0  0  0  0  0  # atno 10765 bound_to 10752
  140.0587  134.9216  157.1146 H   0  0  0  0  0  0  0  0  0  0  0  0  # atno 11005 bound_to 11000
  146.2917  139.7160  142.9156 LP  0  0  0  0  0  0  0  0  0  0  0  0  # atno 17320 bound_to 7965
  145.4164  141.0402  143.2988 LP  0  0  0  0  0  0  0  0  0  0  0  0  # atno 17321 bound_to 7965
  140.4283  144.2150  150.5887 LP  0  0  0  0  0  0  0  0  0  0  0  0  # atno 17342 bound_to 10162
  140.4805  143.2381  151.8962 LP  0  0  0  0  0  0  0  0  0  0  0  0  # atno 17343 bound_to 10162
  156.0404  130.5487  150.8756 LP  0  0  0  0  0  0  0  0  0  0  0  0  # atno 17370 bound_to 10713
  157.5784  131.0946  150.9310 LP  0  0  0  0  0  0  0  0  0  0  0  0  # atno 17371 bound_to 10713
  140.3803  134.2294  155.7171 LP  0  0  0  0  0  0  0  0  0  0  0  0  # atno 17394 bound_to 11000
  141.1963  133.8084  157.0675 LP  0  0  0  0  0  0  0  0  0  0  0  0  # atno 17395 bound_to 11000

$$$$
