AV-unprocessed.smi:2684|AV-procd|sdf|10379|dock6
  -GOLD-   2272014413D 1   1.00000     0.00000
 Structure written by MMmdl.
 45 46  0  0  0  0  0  0  0  0  2 V2000
  144.7299  132.4154  149.3138 C   0  0  0  0  0  0  0  0  0  0  0  0
  144.9596  133.1741  150.5888 C   0  0  0  0  0  0  0  0  0  0  0  0
  144.6947  132.7460  151.9207 C   0  0  0  0  0  0  0  0  0  0  0  0
  145.0045  133.6605  152.8255 N   0  0  0  0  0  0  0  0  0  0  0  0
  145.4718  134.7026  152.1061 N   0  0  0  0  0  0  0  0  0  0  0  0
  145.8948  135.9160  152.7820 C   0  0  0  0  0  0  0  0  0  0  0  0
  145.1328  137.1774  152.3142 C   0  0  1  0  0  0  0  0  0  0  0  0
  143.6761  137.1336  152.7946 C   0  0  0  0  0  0  0  0  0  0  0  0
  145.7746  138.4156  152.8139 N   0  3  0  0  0  0  0  0  0  0  0  0
  146.4051  138.3038  154.1470 C   0  0  0  0  0  0  0  0  0  0  0  0
  147.6916  139.1345  154.2393 C   0  0  0  0  0  0  0  0  0  0  0  0
  147.6361  140.3499  154.0620 O   0  0  0  0  0  0  0  0  0  0  0  0
  148.8679  138.5309  154.4885 N   0  0  0  0  0  0  0  0  0  0  0  0
  150.1932  139.1369  154.6138 C   0  0  0  0  0  0  0  0  0  0  0  0
  151.2636  138.0353  154.6275 C   0  0  0  0  0  0  0  0  0  0  0  0
  152.6576  138.6334  154.8788 C   0  0  0  0  0  0  0  0  0  0  0  0
  152.6588  139.3669  156.0985 O   0  0  0  0  0  0  0  0  0  0  0  0
  151.7613  140.4713  156.0824 C   0  0  0  0  0  0  0  0  0  0  0  0
  150.3183  139.9741  155.9002 C   0  0  0  0  0  0  0  0  0  0  0  0
  145.4662  134.4318  150.7539 C   0  0  0  0  0  0  0  0  0  0  0  0
  144.8380  131.3404  149.4584 H   0  0  0  0  0  0  0  0  0  0  0  0
  145.4365  132.7066  148.5364 H   0  0  0  0  0  0  0  0  0  0  0  0
  143.7293  132.5886  148.9188 H   0  0  0  0  0  0  0  0  0  0  0  0
  144.2850  131.8037  152.2542 H   0  0  0  0  0  0  0  0  0  0  0  0
  145.7510  135.7678  153.8535 H   0  0  0  0  0  0  0  0  0  0  0  0
  146.9678  136.0419  152.6300 H   0  0  0  0  0  0  0  0  0  0  0  0
  145.1099  137.2042  151.2234 H   0  0  0  0  0  0  0  0  0  0  0  0
  143.1637  136.2491  152.4143 H   0  0  0  0  0  0  0  0  0  0  0  0
  143.1217  138.0068  152.4494 H   0  0  0  0  0  0  0  0  0  0  0  0
  143.6157  137.1095  153.8833 H   0  0  0  0  0  0  0  0  0  0  0  0
  146.5021  138.6804  152.1650 H   0  0  0  0  0  0  0  0  0  0  0  0
  145.6913  138.6030  154.9073 H   0  0  0  0  0  0  0  0  0  0  0  0
  146.6491  137.2581  154.3365 H   0  0  0  0  0  0  0  0  0  0  0  0
  148.8421  137.5253  154.5827 H   0  0  0  0  0  0  0  0  0  0  0  0
  150.3906  139.7666  153.7463 H   0  0  0  0  0  0  0  0  0  0  0  0
  151.0407  137.3087  155.4102 H   0  0  0  0  0  0  0  0  0  0  0  0
  151.2579  137.4899  153.6830 H   0  0  0  0  0  0  0  0  0  0  0  0
  153.4000  137.8378  154.9457 H   0  0  0  0  0  0  0  0  0  0  0  0
  152.9596  139.2811  154.0546 H   0  0  0  0  0  0  0  0  0  0  0  0
  151.8542  141.0141  157.0231 H   0  0  0  0  0  0  0  0  0  0  0  0
  152.0355  141.1654  155.2860 H   0  0  0  0  0  0  0  0  0  0  0  0
  149.6402  140.8269  155.8800 H   0  0  0  0  0  0  0  0  0  0  0  0
  150.0341  139.3712  156.7638 H   0  0  0  0  0  0  0  0  0  0  0  0
  145.8094  135.1523  150.0262 H   0  0  0  0  0  0  0  0  0  0  0  0
  145.0847  139.1527  152.8330 H   0  0  0  0  0  0  0  0  0  0  0  0
  1  2  1  0  0  0  0
  1 21  1  0  0  0  0
  1 22  1  0  0  0  0
  1 23  1  0  0  0  0
  2 20  2  0  0  0  0
  2  3  1  0  0  0  0
  3  4  2  0  0  0  0
  3 24  1  0  0  0  0
  4  5  1  0  0  0  0
  5  6  1  0  0  0  0
  5 20  1  0  0  0  0
  6  7  1  0  0  0  0
  6 25  1  0  0  0  0
  6 26  1  0  0  0  0
  7  8  1  0  0  0  0
  7  9  1  0  0  0  0
  7 27  1  0  0  0  0
  8 28  1  0  0  0  0
  8 29  1  0  0  0  0
  8 30  1  0  0  0  0
  9 10  1  0  0  0  0
  9 31  1  0  0  0  0
  9 45  1  0  0  0  0
 10 11  1  0  0  0  0
 10 32  1  0  0  0  0
 10 33  1  0  0  0  0
 11 12  2  0  0  0  0
 11 13  1  0  0  0  0
 13 14  1  0  0  0  0
 13 34  1  0  0  0  0
 14 19  1  0  0  0  0
 14 15  1  0  0  0  0
 14 35  1  0  0  0  0
 15 16  1  0  0  0  0
 15 36  1  0  0  0  0
 15 37  1  0  0  0  0
 16 17  1  0  0  0  0
 16 38  1  0  0  0  0
 16 39  1  0  0  0  0
 17 18  1  0  0  0  0
 18 19  1  0  0  0  0
 18 40  1  0  0  0  0
 18 41  1  0  0  0  0
 19 42  1  0  0  0  0
 19 43  1  0  0  0  0
 20 44  1  0  0  0  0
M  CHG  1   9   1
M  END
> <s_m_source_file>
AV-unprocessed.smi

> <i_m_source_file_index>
2684

> <i_lp_mmshare_version>
43012

> <i_f3d_flags>
0

> <s_epik_input>
W0NIM11jMVtjSF1ubihbY0hdMSlbQ0gyXVtDQEhdKFtDSDNdKVtOSF1bQ0gyXUMoPU8pW05IXVtDSF0yW0NIMl1bQ0gyXU9bQ0gyXVtDSDJdMg==

> <s_epik_cmdline>
J2VwaWtfcHl0aG9uJywgJy1waCcsICc3LjAnLCAnLXRuJywgJzgnLCAnLW1hJywgJzIwMCcsICctbWV0YWxfYmluZGluZycsICctaW1hZScsICc8aW5maWxlLm1hZT4nLCAnLW9tYWUnLCAnPG91dGZpbGUubWFlPic=

> <r_lp_tautomer_probability>
1

> <r_epik_Ionization_Penalty>
0.128576

> <r_epik_Ionization_Penalty_Charging>
0.128567

> <r_epik_Ionization_Penalty_Neutral>
8.60003e-06

> <r_epik_State_Penalty>
0.117991

> <r_epik_Charging_Adjusted_Penalty>
0.246558

> <i_epik_Tot_Q>
1

> <i_epik_Tot_abs_Q>
1

> <r_epik_Metal_State_Penalty>
0.118015

> <b_epik_Metal_Only>
0

> <s_lp_Force_Field>
OPLS_2005

> <r_lp_Energy>
10.4868

> <b_lp_Chiralities_Consistent>
1

> <s_lp_Variant>
AV-unprocessed.smi:2684-2

> <Gold.Version>
5.8.1

> <Gold.Id.Protein>
6NUR|6NUR_protein|mol2

> <Gold.PLP.Fitness>
44.9393

> <Gold.PLP.PLP>
-34.3785

> <Gold.PLP.part.hbond>
-2.0000

> <Gold.PLP.part.metal>
0.0000

> <Gold.PLP.part.buried>
-3.9389

> <Gold.PLP.part.nonpolar>
-27.4256

> <Gold.PLP.part.repulsive>
0.2535

> <Gold.PLP.ligand.clash>
0.0000

> <Gold.PLP.ligand.torsion>
0.7396

> <Gold.PLP.Chemscore.Hbond>
3.0000

> <Gold.PLP.Chemscore.CHOScore>
0.9891

> <Gold.PLP.Chemscore.Metal>
0.0000

> <Gold.Chemscore.Hbonds>
donor molecule, donor type, donor heavy atom, donor atom, acceptor molecule, acceptor atom, score
      L1  H     9    45       P1 10175  2.00
      P1  H  7997  8008       L1    17  1.00
      L1  C    20    44       P1  7921  0.96

> <Gold.PLP.Chemscore.Internal.Correction>
0.0728

> <Gold.Rescore>
     Score         DG    S(hbond)    S(metal)    S(lipo)     H(rot)  DE(clash)    DE(int)     intcor
     15.09     -16.12       1.79        0.00      84.66       2.04       0.26       0.77       ----

> <Gold.Chemscore.Fitness>
15.0861

> <Gold.Chemscore.DG>
-16.1192

> <Gold.Chemscore.ZeroCoef>
-5.4800

> <Gold.Chemscore.Hbond>
1.7860

> <Gold.Chemscore.Metal>
0.0000

> <Gold.Chemscore.Lipo>
84.6645

> <Gold.Chemscore.Internal_Hbond>
0.0000

> <Gold.Chemscore.DEClash>
0.2602

> <Gold.Chemscore.DEInternal>
0.7729

> <Gold.Chemscore.Rot>
2.0437

> <Gold.Chemscore.Internal.Correction>
   9.000000E+99

> <Gold.Chemscore.Hbonds>
donor molecule, donor type, donor heavy atom, donor atom, acceptor molecule, acceptor atom, score
      L1  H     9    45       P1 10175  0.99
      P1  H  7997  8008       L1    17  0.33

> <Gold.Chemscore.Hbond.Weighted>
-5.9653

> <Gold.Chemscore.Metal.Weighted>
-0.0000

> <Gold.Chemscore.Lipo.Weighted>
-9.9058

> <Gold.Chemscore.Internal_Hbond.Weighted>
0.0000

> <Gold.Chemscore.DEClash.Weighted>
0.2602

> <Gold.Chemscore.DEInternal.Weighted>
0.7729

> <Gold.Chemscore.Rot.Weighted>
5.2318

> <Gold.Chemscore.Internal.Correction.Weighted>
   9.000000E+99

> <Gold.Protein.RotatedTorsions>
[ 6907 6896 6895 6894 ] final  138.16 input  -60.11 | X-H torsion
[ 7974 7965 7964 7962 ] final   51.66 input  175.53 | X-H torsion
[ 8008 7997 7996 7995 ] final  -40.57 input   59.86 | X-H torsion
[ 10167 10162 10161 10158 ] final -157.31 input  -65.29 | X-H torsion
[ 10718 10713 10712 10709 ] final  132.29 input   66.30 | X-H torsion
[ 10763 10752 10751 10750 ] final   87.96 input  -60.55 | X-H torsion
[ 11005 11000 10999 10996 ] final   45.94 input  -57.11 | X-H torsion

> <Gold.Protein.ActiveResidues>
 VAL166  LYS551  ARG553  GLY616  TRP617  ASP618  TYR619  PRO620  LYS621  CYS622 
 ASP623  PHE694  ASN695  SER759  ASP760  ASP761  ALA762  ILE779  LEU786  VAL792 
 PHE793  MET794  SER795  GLU796  ALA797  LYS798  CYS799  TRP800  GLU811  SER814 

> <Gold.Protein.RotatedAtoms>
  152.2698  133.5372  159.5431 H   0  0  0  0  0  0  0  0  0  0  0  0  # atno 6907 bound_to 6896
  150.7155  134.0713  159.3874 H   0  0  0  0  0  0  0  0  0  0  0  0  # atno 6908 bound_to 6896
  151.8628  135.0518  160.0522 H   0  0  0  0  0  0  0  0  0  0  0  0  # atno 6909 bound_to 6896
  145.9891  139.4321  143.0084 H   0  0  0  0  0  0  0  0  0  0  0  0  # atno 7974 bound_to 7965
  154.4011  140.1522  156.3048 H   0  0  0  0  0  0  0  0  0  0  0  0  # atno 8008 bound_to 7997
  155.8668  140.3451  155.5772 H   0  0  0  0  0  0  0  0  0  0  0  0  # atno 8009 bound_to 7997
  155.7819  140.0844  157.2045 H   0  0  0  0  0  0  0  0  0  0  0  0  # atno 8010 bound_to 7997
  139.6780  143.9629  152.2321 H   0  0  0  0  0  0  0  0  0  0  0  0  # atno 10167 bound_to 10162
  157.4885  131.1089  150.9587 H   0  0  0  0  0  0  0  0  0  0  0  0  # atno 10718 bound_to 10713
  153.1721  135.4524  154.9916 H   0  0  0  0  0  0  0  0  0  0  0  0  # atno 10763 bound_to 10752
  154.7973  135.3242  154.7639 H   0  0  0  0  0  0  0  0  0  0  0  0  # atno 10764 bound_to 10752
  153.8114  135.6954  153.4895 H   0  0  0  0  0  0  0  0  0  0  0  0  # atno 10765 bound_to 10752
  140.1414  134.4578  155.8447 H   0  0  0  0  0  0  0  0  0  0  0  0  # atno 11005 bound_to 11000
  145.7656  140.9917  143.1177 LP  0  0  0  0  0  0  0  0  0  0  0  0  # atno 17320 bound_to 7965
  144.6883  139.9384  143.7474 LP  0  0  0  0  0  0  0  0  0  0  0  0  # atno 17321 bound_to 7965
  139.9412  144.6680  150.8265 LP  0  0  0  0  0  0  0  0  0  0  0  0  # atno 17342 bound_to 10162
  140.7642  143.3243  151.2550 LP  0  0  0  0  0  0  0  0  0  0  0  0  # atno 17343 bound_to 10162
  157.0297  130.5706  149.5341 LP  0  0  0  0  0  0  0  0  0  0  0  0  # atno 17370 bound_to 10713
  156.0160  130.5254  150.8136 LP  0  0  0  0  0  0  0  0  0  0  0  0  # atno 17371 bound_to 10713
  141.2186  133.6835  156.7254 LP  0  0  0  0  0  0  0  0  0  0  0  0  # atno 17394 bound_to 11000
  140.2717  134.8386  157.3853 LP  0  0  0  0  0  0  0  0  0  0  0  0  # atno 17395 bound_to 11000

$$$$
