AV-unprocessed.smi:75|AV-procd|sdf|766|dock7
  -GOLD-   2262017113D 1   1.00000     0.00000
 Structure written by MMmdl.
 51 54  0  0  0  0  0  0  0  0  1 V2000
  149.5371  138.7185  153.0967 N   0  0  0  0  0  0  0  0  0  0  0  0
  150.1523  138.8387  154.2757 C   0  0  0  0  0  0  0  0  0  0  0  0
  150.7111  139.8775  154.6204 O   0  0  0  0  0  0  0  0  0  0  0  0
  150.1651  137.6049  155.1848 C   0  0  0  0  0  0  0  0  0  0  0  0
  149.1088  137.6193  156.3259 C   0  0  1  0  0  0  0  0  0  0  0  0
  149.2860  138.9065  157.1626 C   0  0  0  0  0  0  0  0  0  0  0  0
  148.3345  138.9552  158.2188 O   0  0  0  0  0  0  0  0  0  0  0  0
  147.0025  138.9829  157.7246 C   0  0  0  0  0  0  0  0  0  0  0  0
  146.7386  137.6913  156.9405 C   0  0  0  0  0  0  0  0  0  0  0  0
  147.7135  137.5381  155.8648 N   0  0  0  0  0  0  0  0  0  0  0  0
  147.3812  136.4931  155.0761 C   0  0  0  0  0  0  0  0  0  0  0  0
  147.8803  135.2803  155.4178 N   0  0  0  0  0  0  0  0  0  0  0  0
  147.5819  134.2059  154.6813 C   0  0  0  0  0  0  0  0  0  0  0  0
  146.8237  134.1284  153.5851 N   0  0  0  0  0  0  0  0  0  0  0  0
  146.3277  135.3503  153.2349 C   0  0  0  0  0  0  0  0  0  0  0  0
  146.5593  136.5778  153.9165 C   0  0  0  0  0  0  0  0  0  0  0  0
  145.8941  137.6132  153.2713 N   0  0  0  0  0  0  0  0  0  0  0  0
  145.2993  137.0301  152.2667 C   0  0  0  0  0  0  0  0  0  0  0  0
  145.5055  135.6718  152.1681 N   0  0  0  0  0  0  0  0  0  0  0  0
  144.9749  134.7945  151.1639 C   0  0  0  0  0  0  0  0  0  0  0  0
  144.3980  133.4278  151.5403 C   0  0  0  0  0  0  0  0  0  0  0  0
  144.9066  132.8581  150.1947 C   0  0  0  0  0  0  0  0  0  0  0  0
  145.5233  131.4456  150.2123 C   0  0  0  0  0  0  0  0  0  0  0  0
  146.5160  131.3005  151.2088 O   0  0  0  0  0  0  0  0  0  0  0  0
  143.8917  132.8980  149.0368 C   0  0  0  0  0  0  0  0  0  0  0  0
  142.7799  132.0633  149.2914 O   0  0  0  0  0  0  0  0  0  0  0  0
  145.9004  134.0433  150.2029 C   0  0  0  0  0  0  0  0  0  0  0  0
  149.5030  139.5072  152.4670 H   0  0  0  0  0  0  0  0  0  0  0  0
  149.1065  137.8425  152.8383 H   0  0  0  0  0  0  0  0  0  0  0  0
  149.9934  136.7443  154.5365 H   0  0  0  0  0  0  0  0  0  0  0  0
  151.1647  137.4630  155.5986 H   0  0  0  0  0  0  0  0  0  0  0  0
  149.2937  136.7742  156.9905 H   0  0  0  0  0  0  0  0  0  0  0  0
  150.2832  138.9366  157.6025 H   0  0  0  0  0  0  0  0  0  0  0  0
  149.1901  139.7952  156.5362 H   0  0  0  0  0  0  0  0  0  0  0  0
  146.3119  139.0612  158.5643 H   0  0  0  0  0  0  0  0  0  0  0  0
  146.8470  139.8622  157.0971 H   0  0  0  0  0  0  0  0  0  0  0  0
  146.7954  136.8371  157.6164 H   0  0  0  0  0  0  0  0  0  0  0  0
  145.7277  137.7100  156.5300 H   0  0  0  0  0  0  0  0  0  0  0  0
  148.0104  133.2742  155.0191 H   0  0  0  0  0  0  0  0  0  0  0  0
  144.6897  137.5800  151.5644 H   0  0  0  0  0  0  0  0  0  0  0  0
  144.2373  135.3674  150.5996 H   0  0  0  0  0  0  0  0  0  0  0  0
  144.8879  132.9912  152.4115 H   0  0  0  0  0  0  0  0  0  0  0  0
  143.3150  133.4219  151.6658 H   0  0  0  0  0  0  0  0  0  0  0  0
  144.7627  130.6860  150.3951 H   0  0  0  0  0  0  0  0  0  0  0  0
  145.9784  131.2095  149.2498 H   0  0  0  0  0  0  0  0  0  0  0  0
  147.2646  130.8693  150.8257 H   0  0  0  0  0  0  0  0  0  0  0  0
  143.5173  133.9084  148.8716 H   0  0  0  0  0  0  0  0  0  0  0  0
  144.3541  132.5883  148.0988 H   0  0  0  0  0  0  0  0  0  0  0  0
  142.0035  132.6012  149.3247 H   0  0  0  0  0  0  0  0  0  0  0  0
  146.0354  134.5332  149.2381 H   0  0  0  0  0  0  0  0  0  0  0  0
  146.8661  133.8065  150.6513 H   0  0  0  0  0  0  0  0  0  0  0  0
  1  2  1  0  0  0  0
  1 28  1  0  0  0  0
  1 29  1  0  0  0  0
  2  3  2  0  0  0  0
  2  4  1  0  0  0  0
  4  5  1  0  0  0  0
  4 30  1  0  0  0  0
  4 31  1  0  0  0  0
  5 10  1  0  0  0  0
  5  6  1  0  0  0  0
  5 32  1  0  0  0  0
  6  7  1  0  0  0  0
  6 33  1  0  0  0  0
  6 34  1  0  0  0  0
  7  8  1  0  0  0  0
  8  9  1  0  0  0  0
  8 35  1  0  0  0  0
  8 36  1  0  0  0  0
  9 10  1  0  0  0  0
  9 37  1  0  0  0  0
  9 38  1  0  0  0  0
 10 11  1  0  0  0  0
 11 16  1  0  0  0  0
 11 12  2  0  0  0  0
 12 13  1  0  0  0  0
 13 14  2  0  0  0  0
 13 39  1  0  0  0  0
 14 15  1  0  0  0  0
 15 19  1  0  0  0  0
 15 16  2  0  0  0  0
 16 17  1  0  0  0  0
 17 18  2  0  0  0  0
 18 19  1  0  0  0  0
 18 40  1  0  0  0  0
 19 20  1  0  0  0  0
 20 27  1  0  0  0  0
 20 21  1  0  0  0  0
 20 41  1  0  0  0  0
 21 22  1  0  0  0  0
 21 42  1  0  0  0  0
 21 43  1  0  0  0  0
 22 23  1  0  0  0  0
 22 25  1  0  0  0  0
 22 27  1  0  0  0  0
 23 24  1  0  0  0  0
 23 44  1  0  0  0  0
 23 45  1  0  0  0  0
 24 46  1  0  0  0  0
 25 26  1  0  0  0  0
 25 47  1  0  0  0  0
 25 48  1  0  0  0  0
 26 49  1  0  0  0  0
 27 50  1  0  0  0  0
 27 51  1  0  0  0  0
M  END
> <s_m_source_file>
AV-unprocessed.smi

> <i_m_source_file_index>
75

> <i_lp_mmshare_version>
43012

> <i_f3d_flags>
0

> <s_epik_input>
W05IMl1DKD1PKVtDSDJdW0NAQEhdMVtDSDJdT1tDSDJdW0NIMl1OMWMobltjSF1uMiljKGMyMyluW2NIXW4zW0NIXShbQ0gyXTQpW0NIMl1DNChbQ0gyXVtPSF0pW0NIMl1bT0hd

> <s_epik_cmdline>
J2VwaWtfcHl0aG9uJywgJy1waCcsICc3LjAnLCAnLXRuJywgJzgnLCAnLW1hJywgJzIwMCcsICctbWV0YWxfYmluZGluZycsICctaW1hZScsICc8aW5maWxlLm1hZT4nLCAnLW9tYWUnLCAnPG91dGZpbGUubWFlPic=

> <r_lp_tautomer_probability>
1

> <r_epik_Ionization_Penalty>
5.29078e-05

> <r_epik_Ionization_Penalty_Charging>
0

> <r_epik_Ionization_Penalty_Neutral>
5.29078e-05

> <r_epik_State_Penalty>
-0

> <r_epik_Charging_Adjusted_Penalty>
0

> <i_epik_Tot_Q>
0

> <i_epik_Tot_abs_Q>
0

> <r_epik_Metal_State_Penalty>
-0

> <b_epik_Metal_Only>
0

> <s_lp_Force_Field>
OPLS_2005

> <r_lp_Energy>
41.8109

> <b_lp_Chiralities_Consistent>
1

> <s_lp_Variant>
AV-unprocessed.smi:75-2

> <Gold.Version>
5.8.1

> <Gold.Id.Protein>
6NUR|6NUR_protein|mol2

> <Gold.PLP.Fitness>
50.9336

> <Gold.PLP.PLP>
-32.1369

> <Gold.PLP.part.hbond>
-7.7148

> <Gold.PLP.part.metal>
0.0000

> <Gold.PLP.part.buried>
-2.3958

> <Gold.PLP.part.nonpolar>
-21.3549

> <Gold.PLP.part.repulsive>
0.5250

> <Gold.PLP.ligand.clash>
0.0000

> <Gold.PLP.ligand.torsion>
1.3015

> <Gold.PLP.Chemscore.Hbond>
5.9100

> <Gold.PLP.Chemscore.CHOScore>
1.0000

> <Gold.PLP.Chemscore.Metal>
0.0000

> <Gold.Chemscore.Hbonds>
donor molecule, donor type, donor heavy atom, donor atom, acceptor molecule, acceptor atom, score
      L1  H     1    28       P1  7957  0.68
      L1  H     1    29       P1  7948  1.00
      L1  H    24    46       P1 10747  1.00
      L1  H    26    49       P1 10186  0.89
      P1  H  7989  7998       L1     3  1.00
      P1  H 10785 10796       L1    26  0.98
      L1  C    18    40       P1 10171  1.00

> <Gold.PLP.Chemscore.Internal.Correction>
0.6696

> <Gold.Rescore>
     Score         DG    S(hbond)    S(metal)    S(lipo)     H(rot)  DE(clash)    DE(int)     intcor
     16.29     -19.10       5.54        0.00      59.39       4.63       1.49       1.32       ----

> <Gold.Chemscore.Fitness>
16.2900

> <Gold.Chemscore.DG>
-19.0985

> <Gold.Chemscore.ZeroCoef>
-5.4800

> <Gold.Chemscore.Hbond>
5.5427

> <Gold.Chemscore.Metal>
0.0000

> <Gold.Chemscore.Lipo>
59.3901

> <Gold.Chemscore.Internal_Hbond>
0.0000

> <Gold.Chemscore.DEClash>
1.4857

> <Gold.Chemscore.DEInternal>
1.3227

> <Gold.Chemscore.Rot>
4.6261

> <Gold.Chemscore.Internal.Correction>
   9.000000E+99

> <Gold.Chemscore.Hbonds>
donor molecule, donor type, donor heavy atom, donor atom, acceptor molecule, acceptor atom, score
      L1  H     1    28       P1  7957  0.64
      L1  H     1    29       P1  7948  0.96
      L1  H    24    46       P1 10747  0.97
      L1  H    26    49       P1 10186  0.85
      P1  H  7989  7998       L1     3  0.99
      P1  H 10785 10796       L1    26  0.72

> <Gold.Chemscore.Hbond.Weighted>
-18.5127

> <Gold.Chemscore.Metal.Weighted>
-0.0000

> <Gold.Chemscore.Lipo.Weighted>
-6.9486

> <Gold.Chemscore.Internal_Hbond.Weighted>
0.0000

> <Gold.Chemscore.DEClash.Weighted>
1.4857

> <Gold.Chemscore.DEInternal.Weighted>
1.3227

> <Gold.Chemscore.Rot.Weighted>
11.8429

> <Gold.Chemscore.Internal.Correction.Weighted>
   9.000000E+99

> <Gold.Protein.RotatedTorsions>
[ 6907 6896 6895 6894 ] final -122.96 input  -60.11 | X-H torsion
[ 7974 7965 7964 7962 ] final  107.86 input  175.53 | X-H torsion
[ 8008 7997 7996 7995 ] final  -55.99 input   59.86 | X-H torsion
[ 10167 10162 10161 10158 ] final   58.16 input  -65.29 | X-H torsion
[ 10718 10713 10712 10709 ] final  -56.58 input   66.30 | X-H torsion
[ 10763 10752 10751 10750 ] final  149.76 input  -60.55 | X-H torsion
[ 11005 11000 10999 10996 ] final -120.23 input  -57.11 | X-H torsion

> <Gold.Protein.ActiveResidues>
 VAL166  LYS551  ARG553  GLY616  TRP617  ASP618  TYR619  PRO620  LYS621  CYS622 
 ASP623  PHE694  ASN695  SER759  ASP760  ASP761  ALA762  ILE779  LEU786  VAL792 
 PHE793  MET794  SER795  GLU796  ALA797  LYS798  CYS799  TRP800  GLU811  SER814 

> <Gold.Protein.RotatedAtoms>
  150.8625  133.7622  159.2987 H   0  0  0  0  0  0  0  0  0  0  0  0  # atno 6907 bound_to 6896
  151.5260  135.1066  159.9900 H   0  0  0  0  0  0  0  0  0  0  0  0  # atno 6908 bound_to 6896
  152.4637  133.7832  159.6918 H   0  0  0  0  0  0  0  0  0  0  0  0  # atno 6909 bound_to 6896
  145.2881  139.2609  143.3879 H   0  0  0  0  0  0  0  0  0  0  0  0  # atno 7974 bound_to 7965
  154.4214  140.1140  156.5565 H   0  0  0  0  0  0  0  0  0  0  0  0  # atno 8008 bound_to 7997
  155.6355  140.3496  155.4678 H   0  0  0  0  0  0  0  0  0  0  0  0  # atno 8009 bound_to 7997
  155.9913  140.1180  157.0625 H   0  0  0  0  0  0  0  0  0  0  0  0  # atno 8010 bound_to 7997
  140.1902  144.4093  150.6574 H   0  0  0  0  0  0  0  0  0  0  0  0  # atno 10167 bound_to 10162
  156.1277  130.4161  150.0324 H   0  0  0  0  0  0  0  0  0  0  0  0  # atno 10718 bound_to 10713
  154.0765  135.2862  155.3298 H   0  0  0  0  0  0  0  0  0  0  0  0  # atno 10763 bound_to 10752
  154.6712  135.5298  153.8144 H   0  0  0  0  0  0  0  0  0  0  0  0  # atno 10764 bound_to 10752
  153.0465  135.6558  154.0943 H   0  0  0  0  0  0  0  0  0  0  0  0  # atno 10765 bound_to 10752
  141.0159  134.0196  157.3351 H   0  0  0  0  0  0  0  0  0  0  0  0  # atno 11005 bound_to 11000
  146.3194  140.3365  142.8644 LP  0  0  0  0  0  0  0  0  0  0  0  0  # atno 17320 bound_to 7965
  144.9196  140.7852  143.5757 LP  0  0  0  0  0  0  0  0  0  0  0  0  # atno 17321 bound_to 7965
  140.6461  143.2214  151.6183 LP  0  0  0  0  0  0  0  0  0  0  0  0  # atno 17342 bound_to 10162
  139.5259  144.3061  152.1032 LP  0  0  0  0  0  0  0  0  0  0  0  0  # atno 17343 bound_to 10162
  156.8245  130.9370  151.3640 LP  0  0  0  0  0  0  0  0  0  0  0  0  # atno 17370 bound_to 10713
  157.6458  130.8843  149.9535 LP  0  0  0  0  0  0  0  0  0  0  0  0  # atno 17371 bound_to 10713
  139.9116  135.0191  156.7716 LP  0  0  0  0  0  0  0  0  0  0  0  0  # atno 17394 bound_to 11000
  140.6656  133.9606  155.7828 LP  0  0  0  0  0  0  0  0  0  0  0  0  # atno 17395 bound_to 11000

$$$$
