AV-unprocessed.smi:3249|AV-procd|sdf|12419|dock9
  -GOLD-   2272018303D 1   1.00000     0.00000
 Structure written by MMmdl.
 44 45  0  0  0  0  0  0  0  0  2 V2000
  150.7612  142.4393  158.2234 C   0  0  0  0  0  0  0  0  0  0  0  0
  150.5558  141.7050  156.9299 C   0  0  0  0  0  0  0  0  0  0  0  0
  151.4592  140.8243  156.2709 C   0  0  0  0  0  0  0  0  0  0  0  0
  150.9660  140.3295  155.1475 N   0  0  0  0  0  0  0  0  0  0  0  0
  149.7408  140.8871  155.0375 N   0  0  0  0  0  0  0  0  0  0  0  0
  148.8855  140.5324  153.9099 C   0  0  2  0  0  0  0  0  0  0  0  0
  147.5811  141.3497  153.9682 C   0  0  0  0  0  0  0  0  0  0  0  0
  148.6560  138.9993  153.8585 C   0  0  1  0  0  0  0  0  0  0  0  0
  147.8075  138.4872  155.0381 C   0  0  0  0  0  0  0  0  0  0  0  0
  148.0078  138.6333  152.5768 N   0  3  0  0  0  0  0  0  0  0  0  0
  146.5324  138.7182  152.5634 C   0  0  0  0  0  0  0  0  0  0  0  0
  145.8957  137.3298  152.3990 C   0  0  2  0  0  0  0  0  0  0  0  0
  146.1738  136.7068  151.0151 C   0  0  0  0  0  0  0  0  0  0  0  0
  145.4364  135.3710  150.8675 C   0  0  0  0  0  0  0  0  0  0  0  0
  143.9493  135.5637  151.1820 C   0  0  0  0  0  0  0  0  0  0  0  0
  143.7765  136.2474  152.5472 C   0  0  0  0  0  0  0  0  0  0  0  0
  144.4882  137.4814  152.5658 O   0  0  0  0  0  0  0  0  0  0  0  0
  149.4646  141.7138  156.1084 C   0  0  0  0  0  0  0  0  0  0  0  0
  151.8024  142.4098  158.5456 H   0  0  0  0  0  0  0  0  0  0  0  0
  150.1638  142.0100  159.0277 H   0  0  0  0  0  0  0  0  0  0  0  0
  150.4815  143.4896  158.1397 H   0  0  0  0  0  0  0  0  0  0  0  0
  152.4511  140.5266  156.5777 H   0  0  0  0  0  0  0  0  0  0  0  0
  149.4069  140.8283  152.9972 H   0  0  0  0  0  0  0  0  0  0  0  0
  147.0000  141.2471  153.0521 H   0  0  0  0  0  0  0  0  0  0  0  0
  147.7925  142.4127  154.0900 H   0  0  0  0  0  0  0  0  0  0  0  0
  146.9490  141.0393  154.8008 H   0  0  0  0  0  0  0  0  0  0  0  0
  149.6325  138.5133  153.8978 H   0  0  0  0  0  0  0  0  0  0  0  0
  148.3003  138.6616  155.9939 H   0  0  0  0  0  0  0  0  0  0  0  0
  147.6327  137.4136  154.9725 H   0  0  0  0  0  0  0  0  0  0  0  0
  146.8348  138.9792  155.0693 H   0  0  0  0  0  0  0  0  0  0  0  0
  148.3874  139.2104  151.8400 H   0  0  0  0  0  0  0  0  0  0  0  0
  146.2042  139.1530  153.5086 H   0  0  0  0  0  0  0  0  0  0  0  0
  146.1929  139.3852  151.7710 H   0  0  0  0  0  0  0  0  0  0  0  0
  146.2705  136.6730  153.1865 H   0  0  0  0  0  0  0  0  0  0  0  0
  145.8467  137.3907  150.2308 H   0  0  0  0  0  0  0  0  0  0  0  0
  147.2437  136.5541  150.8702 H   0  0  0  0  0  0  0  0  0  0  0  0
  145.5644  134.9739  149.8601 H   0  0  0  0  0  0  0  0  0  0  0  0
  145.8645  134.6369  151.5511 H   0  0  0  0  0  0  0  0  0  0  0  0
  143.4864  136.1768  150.4078 H   0  0  0  0  0  0  0  0  0  0  0  0
  143.4331  134.6035  151.1720 H   0  0  0  0  0  0  0  0  0  0  0  0
  142.7215  136.4470  152.7348 H   0  0  0  0  0  0  0  0  0  0  0  0
  144.1259  135.6008  153.3537 H   0  0  0  0  0  0  0  0  0  0  0  0
  148.5223  142.2339  156.1995 H   0  0  0  0  0  0  0  0  0  0  0  0
  148.2512  137.6718  152.3831 H   0  0  0  0  0  0  0  0  0  0  0  0
  1  2  1  0  0  0  0
  1 19  1  0  0  0  0
  1 20  1  0  0  0  0
  1 21  1  0  0  0  0
  2 18  2  0  0  0  0
  2  3  1  0  0  0  0
  3  4  2  0  0  0  0
  3 22  1  0  0  0  0
  4  5  1  0  0  0  0
  5  6  1  0  0  0  0
  5 18  1  0  0  0  0
  6  7  1  0  0  0  0
  6  8  1  0  0  0  0
  6 23  1  0  0  0  0
  7 24  1  0  0  0  0
  7 25  1  0  0  0  0
  7 26  1  0  0  0  0
  8  9  1  0  0  0  0
  8 10  1  0  0  0  0
  8 27  1  0  0  0  0
  9 28  1  0  0  0  0
  9 29  1  0  0  0  0
  9 30  1  0  0  0  0
 10 11  1  0  0  0  0
 10 31  1  0  0  0  0
 10 44  1  0  0  0  0
 11 12  1  0  0  0  0
 11 32  1  0  0  0  0
 11 33  1  0  0  0  0
 12 17  1  0  0  0  0
 12 13  1  0  0  0  0
 12 34  1  0  0  0  0
 13 14  1  0  0  0  0
 13 35  1  0  0  0  0
 13 36  1  0  0  0  0
 14 15  1  0  0  0  0
 14 37  1  0  0  0  0
 14 38  1  0  0  0  0
 15 16  1  0  0  0  0
 15 39  1  0  0  0  0
 15 40  1  0  0  0  0
 16 17  1  0  0  0  0
 16 41  1  0  0  0  0
 16 42  1  0  0  0  0
 18 43  1  0  0  0  0
M  CHG  1  10   1
M  END
> <s_m_source_file>
AV-unprocessed.smi

> <i_m_source_file_index>
3249

> <i_lp_mmshare_version>
43012

> <i_f3d_flags>
0

> <s_epik_input>
W0NIM11jMVtjSF1ubihbY0hdMSlbQ0BIXShbQ0gzXSlbQ0BIXShbQ0gzXSlbTkhdW0NIMl1bQ0BASF0yW0NIMl1bQ0gyXVtDSDJdW0NIMl1PMg==

> <s_epik_cmdline>
J2VwaWtfcHl0aG9uJywgJy1waCcsICc3LjAnLCAnLXRuJywgJzgnLCAnLW1hJywgJzIwMCcsICctbWV0YWxfYmluZGluZycsICctaW1hZScsICc8aW5maWxlLm1hZT4nLCAnLW9tYWUnLCAnPG91dGZpbGUubWFlPic=

> <r_lp_tautomer_probability>
1

> <r_epik_Ionization_Penalty>
0.00659207

> <r_epik_Ionization_Penalty_Charging>
0.00656881

> <r_epik_Ionization_Penalty_Neutral>
2.32662e-05

> <r_epik_State_Penalty>
0.0048654

> <r_epik_Charging_Adjusted_Penalty>
0.0114342

> <i_epik_Tot_Q>
1

> <i_epik_Tot_abs_Q>
1

> <r_epik_Metal_State_Penalty>
-0

> <b_epik_Metal_Only>
0

> <s_lp_Force_Field>
OPLS_2005

> <r_lp_Energy>
18.0919

> <b_lp_Chiralities_Consistent>
1

> <s_lp_Variant>
AV-unprocessed.smi:3249-3

> <Gold.Version>
5.8.1

> <Gold.Id.Protein>
6NUR|6NUR_protein|mol2

> <Gold.PLP.Fitness>
45.2471

> <Gold.PLP.PLP>
-33.0163

> <Gold.PLP.part.hbond>
-3.0000

> <Gold.PLP.part.metal>
0.0000

> <Gold.PLP.part.buried>
1.4763

> <Gold.PLP.part.nonpolar>
-31.4840

> <Gold.PLP.part.repulsive>
0.8162

> <Gold.PLP.ligand.clash>
0.0000

> <Gold.PLP.ligand.torsion>
0.7445

> <Gold.PLP.Chemscore.Hbond>
3.9000

> <Gold.PLP.Chemscore.CHOScore>
0.6427

> <Gold.PLP.Chemscore.Metal>
0.0000

> <Gold.Chemscore.Hbonds>
donor molecule, donor type, donor heavy atom, donor atom, acceptor molecule, acceptor atom, score
      L1  H    10    31       P1  7957  1.00
      L1  H    10    44       P1  7948  2.00
      P1  H  7989  7998       L1     4  0.90
      L1  C    18    43       P1  8028  0.54

> <Gold.PLP.Chemscore.Internal.Correction>
0.0917

> <Gold.Rescore>
     Score         DG    S(hbond)    S(metal)    S(lipo)     H(rot)  DE(clash)    DE(int)     intcor
     17.67     -19.84       2.62        0.00      81.45       1.53       1.38       0.80       ----

> <Gold.Chemscore.Fitness>
17.6653

> <Gold.Chemscore.DG>
-19.8388

> <Gold.Chemscore.ZeroCoef>
-5.4800

> <Gold.Chemscore.Hbond>
2.6213

> <Gold.Chemscore.Metal>
0.0000

> <Gold.Chemscore.Lipo>
81.4451

> <Gold.Chemscore.Internal_Hbond>
0.0000

> <Gold.Chemscore.DEClash>
1.3757

> <Gold.Chemscore.DEInternal>
0.7979

> <Gold.Chemscore.Rot>
1.5333

> <Gold.Chemscore.Internal.Correction>
   9.000000E+99

> <Gold.Chemscore.Hbonds>
donor molecule, donor type, donor heavy atom, donor atom, acceptor molecule, acceptor atom, score
      L1  H    10    31       P1  7957  0.94
      L1  H    10    44       P1  7948  1.00
      P1  H  7989  7998       L1     4  0.17

> <Gold.Chemscore.Hbond.Weighted>
-8.7550

> <Gold.Chemscore.Metal.Weighted>
-0.0000

> <Gold.Chemscore.Lipo.Weighted>
-9.5291

> <Gold.Chemscore.Internal_Hbond.Weighted>
0.0000

> <Gold.Chemscore.DEClash.Weighted>
1.3757

> <Gold.Chemscore.DEInternal.Weighted>
0.7979

> <Gold.Chemscore.Rot.Weighted>
3.9252

> <Gold.Chemscore.Internal.Correction.Weighted>
   9.000000E+99

> <Gold.Protein.RotatedTorsions>
[ 6907 6896 6895 6894 ] final   75.75 input  -60.11 | X-H torsion
[ 7974 7965 7964 7962 ] final  -19.10 input  175.53 | X-H torsion
[ 8008 7997 7996 7995 ] final  174.97 input   59.86 | X-H torsion
[ 10167 10162 10161 10158 ] final -152.12 input  -65.29 | X-H torsion
[ 10718 10713 10712 10709 ] final   97.16 input   66.30 | X-H torsion
[ 10763 10752 10751 10750 ] final -117.89 input  -60.55 | X-H torsion
[ 11005 11000 10999 10996 ] final   61.45 input  -57.11 | X-H torsion

> <Gold.Protein.ActiveResidues>
 VAL166  LYS551  ARG553  GLY616  TRP617  ASP618  TYR619  PRO620  LYS621  CYS622 
 ASP623  PHE694  ASN695  SER759  ASP760  ASP761  ALA762  ILE779  LEU786  VAL792 
 PHE793  MET794  SER795  GLU796  ALA797  LYS798  CYS799  TRP800  GLU811  SER814 

> <Gold.Protein.RotatedAtoms>
  152.5041  134.4073  159.9436 H   0  0  0  0  0  0  0  0  0  0  0  0  # atno 6907 bound_to 6896
  151.4040  133.3742  159.2743 H   0  0  0  0  0  0  0  0  0  0  0  0  # atno 6908 bound_to 6896
  150.9341  134.8775  159.7629 H   0  0  0  0  0  0  0  0  0  0  0  0  # atno 6909 bound_to 6896
  146.1858  140.4015  142.8477 H   0  0  0  0  0  0  0  0  0  0  0  0  # atno 7974 bound_to 7965
  156.0919  140.1421  156.9581 H   0  0  0  0  0  0  0  0  0  0  0  0  # atno 8008 bound_to 7997
  154.4647  140.0930  156.7035 H   0  0  0  0  0  0  0  0  0  0  0  0  # atno 8009 bound_to 7997
  155.4905  140.3448  155.4356 H   0  0  0  0  0  0  0  0  0  0  0  0  # atno 8010 bound_to 7997
  139.7208  143.8960  152.2502 H   0  0  0  0  0  0  0  0  0  0  0  0  # atno 10167 bound_to 10162
  157.6916  131.0601  150.4602 H   0  0  0  0  0  0  0  0  0  0  0  0  # atno 10718 bound_to 10713
  154.8570  135.4293  154.2051 H   0  0  0  0  0  0  0  0  0  0  0  0  # atno 10763 bound_to 10752
  153.3089  135.6974  153.7140 H   0  0  0  0  0  0  0  0  0  0  0  0  # atno 10764 bound_to 10752
  153.6240  135.3497  155.2994 H   0  0  0  0  0  0  0  0  0  0  0  0  # atno 10765 bound_to 10752
  140.0161  134.6223  155.9708 H   0  0  0  0  0  0  0  0  0  0  0  0  # atno 11005 bound_to 11000
  144.8395  140.6835  143.6238 LP  0  0  0  0  0  0  0  0  0  0  0  0  # atno 17320 bound_to 7965
  145.3941  139.1610  143.4213 LP  0  0  0  0  0  0  0  0  0  0  0  0  # atno 17321 bound_to 7965
  139.8855  144.6994  150.8829 LP  0  0  0  0  0  0  0  0  0  0  0  0  # atno 17342 bound_to 10162
  140.7753  143.3627  151.1797 LP  0  0  0  0  0  0  0  0  0  0  0  0  # atno 17343 bound_to 10162
  156.4947  130.4103  149.6387 LP  0  0  0  0  0  0  0  0  0  0  0  0  # atno 17370 bound_to 10713
  156.3384  130.7369  151.2310 LP  0  0  0  0  0  0  0  0  0  0  0  0  # atno 17371 bound_to 10713
  141.1743  133.6539  156.4770 LP  0  0  0  0  0  0  0  0  0  0  0  0  # atno 17394 bound_to 11000
  140.4469  134.6964  157.5020 LP  0  0  0  0  0  0  0  0  0  0  0  0  # atno 17395 bound_to 11000

$$$$
