AV-unprocessed.smi:1006|AV-procd|sdf|4395|dock4
  -GOLD-   22720 2323D 1   1.00000     0.00000
 Structure written by MMmdl.
 46 48  0  0  0  0  0  0  0  0  2 V2000
  147.2511  136.3474  162.5602 C   0  0  0  0  0  0  0  0  0  0  0  0
  147.9370  136.0211  161.2509 C   0  0  0  0  0  0  0  0  0  0  0  0
  147.6922  134.8082  160.5719 C   0  0  0  0  0  0  0  0  0  0  0  0
  148.3934  134.6186  159.3629 C   0  0  0  0  0  0  0  0  0  0  0  0
  148.2219  133.4570  158.6144 N   0  0  0  0  0  0  0  0  0  0  0  0
  149.2500  135.5457  158.8838 N   0  0  0  0  0  0  0  0  0  0  0  0
  149.3979  136.6551  159.6113 C   0  0  0  0  0  0  0  0  0  0  0  0
  150.5383  137.8537  158.9426 S   0  0  0  0  0  0  0  0  0  0  0  0
  149.7310  138.3439  157.3871 C   0  0  0  0  0  0  0  0  0  0  0  0
  150.6817  138.2375  156.1844 C   0  0  1  0  0  0  0  0  0  0  0  0
  149.9348  138.3605  154.9888 O   0  0  0  0  0  0  0  0  0  0  0  0
  151.7843  139.3131  156.2276 C   0  0  0  0  0  0  0  0  0  0  0  0
  151.2546  140.6595  156.4877 N   0  0  0  0  0  0  0  0  0  0  0  0
  150.3691  141.3963  155.7638 C   0  0  0  0  0  0  0  0  0  0  0  0
  150.1875  142.5780  156.4157 N   0  3  0  0  0  0  0  0  0  0  0  0
  150.9674  142.5960  157.5737 C   0  0  0  0  0  0  0  0  0  0  0  0
  151.1172  143.5698  158.5541 C   0  0  0  0  0  0  0  0  0  0  0  0
  151.9940  143.2791  159.6235 C   0  0  0  0  0  0  0  0  0  0  0  0
  152.1788  144.3212  160.7136 C   0  0  0  0  0  0  0  0  0  0  0  0
  152.6866  142.0421  159.6839 C   0  0  0  0  0  0  0  0  0  0  0  0
  153.6239  141.7385  160.8403 C   0  0  0  0  0  0  0  0  0  0  0  0
  152.5224  141.0658  158.6753 C   0  0  0  0  0  0  0  0  0  0  0  0
  151.6551  141.3677  157.6275 C   0  0  0  0  0  0  0  0  0  0  0  0
  148.7947  136.9472  160.7680 N   0  0  0  0  0  0  0  0  0  0  0  0
  146.4538  135.6349  162.7740 H   0  0  0  0  0  0  0  0  0  0  0  0
  146.8133  137.3454  162.5237 H   0  0  0  0  0  0  0  0  0  0  0  0
  147.9684  136.3152  163.3805 H   0  0  0  0  0  0  0  0  0  0  0  0
  147.0067  134.0670  160.9568 H   0  0  0  0  0  0  0  0  0  0  0  0
  147.5962  132.7229  158.9124 H   0  0  0  0  0  0  0  0  0  0  0  0
  148.7136  133.3172  157.7436 H   0  0  0  0  0  0  0  0  0  0  0  0
  148.8498  137.7215  157.2254 H   0  0  0  0  0  0  0  0  0  0  0  0
  149.3842  139.3726  157.4911 H   0  0  0  0  0  0  0  0  0  0  0  0
  151.1507  137.2526  156.1859 H   0  0  0  0  0  0  0  0  0  0  0  0
  149.0620  138.0334  155.1439 H   0  0  0  0  0  0  0  0  0  0  0  0
  152.5458  139.0728  156.9696 H   0  0  0  0  0  0  0  0  0  0  0  0
  152.2989  139.3534  155.2666 H   0  0  0  0  0  0  0  0  0  0  0  0
  149.8942  141.0966  154.8407 H   0  0  0  0  0  0  0  0  0  0  0  0
  150.5848  144.5083  158.5027 H   0  0  0  0  0  0  0  0  0  0  0  0
  153.2269  144.6099  160.7958 H   0  0  0  0  0  0  0  0  0  0  0  0
  151.8501  143.9291  161.6765 H   0  0  0  0  0  0  0  0  0  0  0  0
  151.6012  145.2224  160.5059 H   0  0  0  0  0  0  0  0  0  0  0  0
  154.0522  140.7392  160.7556 H   0  0  0  0  0  0  0  0  0  0  0  0
  153.0919  141.7918  161.7901 H   0  0  0  0  0  0  0  0  0  0  0  0
  154.4470  142.4527  160.8626 H   0  0  0  0  0  0  0  0  0  0  0  0
  153.0476  140.1240  158.7257 H   0  0  0  0  0  0  0  0  0  0  0  0
  149.5735  143.3149  156.0931 H   0  0  0  0  0  0  0  0  0  0  0  0
  1  2  1  0  0  0  0
  1 25  1  0  0  0  0
  1 26  1  0  0  0  0
  1 27  1  0  0  0  0
  2 24  1  0  0  0  0
  2  3  2  0  0  0  0
  3  4  1  0  0  0  0
  3 28  1  0  0  0  0
  4  5  1  0  0  0  0
  4  6  2  0  0  0  0
  5 29  1  0  0  0  0
  5 30  1  0  0  0  0
  6  7  1  0  0  0  0
  7  8  1  0  0  0  0
  7 24  2  0  0  0  0
  8  9  1  0  0  0  0
  9 10  1  0  0  0  0
  9 31  1  0  0  0  0
  9 32  1  0  0  0  0
 10 11  1  0  0  0  0
 10 12  1  0  0  0  0
 10 33  1  0  0  0  0
 11 34  1  0  0  0  0
 12 13  1  0  0  0  0
 12 35  1  0  0  0  0
 12 36  1  0  0  0  0
 13 23  1  0  0  0  0
 13 14  1  0  0  0  0
 14 15  2  0  0  0  0
 14 37  1  0  0  0  0
 15 16  1  0  0  0  0
 15 46  1  0  0  0  0
 16 23  2  0  0  0  0
 16 17  1  0  0  0  0
 17 18  2  0  0  0  0
 17 38  1  0  0  0  0
 18 19  1  0  0  0  0
 18 20  1  0  0  0  0
 19 39  1  0  0  0  0
 19 40  1  0  0  0  0
 19 41  1  0  0  0  0
 20 21  1  0  0  0  0
 20 22  2  0  0  0  0
 21 42  1  0  0  0  0
 21 43  1  0  0  0  0
 21 44  1  0  0  0  0
 22 23  1  0  0  0  0
 22 45  1  0  0  0  0
M  CHG  1  15   1
M  END
> <s_m_source_file>
AV-unprocessed.smi

> <i_m_source_file_index>
1006

> <i_lp_mmshare_version>
43012

> <i_f3d_flags>
0

> <s_epik_input>
W0NIM11jMVtjSF1jKFtOSDJdKW5jKG4xKVNbQ0gyXVtDQEhdKFtPSF0pW0NIMl1uKFtjSF1uMiljKGMyMylbY0hdYyhbQ0gzXSljKFtjSF0zKVtDSDNd

> <s_epik_cmdline>
J2VwaWtfcHl0aG9uJywgJy1waCcsICc3LjAnLCAnLXRuJywgJzgnLCAnLW1hJywgJzIwMCcsICctbWV0YWxfYmluZGluZycsICctaW1hZScsICc8aW5maWxlLm1hZT4nLCAnLW9tYWUnLCAnPG91dGZpbGUubWFlPic=

> <r_epik_Ionization_Penalty>
1.4378

> <r_epik_Ionization_Penalty_Charging>
1.06724

> <r_epik_Ionization_Penalty_Neutral>
0.370564

> <r_epik_State_Penalty>
1.48666

> <r_epik_Charging_Adjusted_Penalty>
2.5539

> <i_epik_Tot_Q>
1

> <i_epik_Tot_abs_Q>
1

> <r_epik_Metal_State_Penalty>
1.38026

> <b_epik_Metal_Only>
0

> <s_lp_Force_Field>
OPLS_2005

> <r_lp_Energy>
7.15152

> <b_lp_Chiralities_Consistent>
1

> <s_lp_Variant>
AV-unprocessed.smi:1006-6

> <Gold.Version>
5.8.1

> <Gold.Id.Protein>
6NUR|6NUR_protein|mol2

> <Gold.PLP.Fitness>
58.4758

> <Gold.PLP.PLP>
-48.2978

> <Gold.PLP.part.hbond>
-3.8213

> <Gold.PLP.part.metal>
0.0000

> <Gold.PLP.part.buried>
-5.4227

> <Gold.PLP.part.nonpolar>
-39.5377

> <Gold.PLP.part.repulsive>
0.1867

> <Gold.PLP.ligand.clash>
0.0000

> <Gold.PLP.ligand.torsion>
0.5123

> <Gold.PLP.Chemscore.Hbond>
3.7290

> <Gold.PLP.Chemscore.CHOScore>
0.0000

> <Gold.PLP.Chemscore.Metal>
0.0000

> <Gold.Chemscore.Hbonds>
donor molecule, donor type, donor heavy atom, donor atom, acceptor molecule, acceptor atom, score
      L1  H    15    46       P1  8028  2.00
      P1  H  6896  6908       L1     6  0.45
      P1  H  6931  6943       L1    24  0.88

> <Gold.PLP.Chemscore.Internal.Correction>
0.0155

> <Gold.Rescore>
     Score         DG    S(hbond)    S(metal)    S(lipo)     H(rot)  DE(clash)    DE(int)     intcor
     18.02     -18.62       1.90        0.00     121.29       2.89       0.06       0.54       ----

> <Gold.Chemscore.Fitness>
18.0219

> <Gold.Chemscore.DG>
-18.6243

> <Gold.Chemscore.ZeroCoef>
-5.4800

> <Gold.Chemscore.Hbond>
1.9026

> <Gold.Chemscore.Metal>
0.0000

> <Gold.Chemscore.Lipo>
121.2878

> <Gold.Chemscore.Internal_Hbond>
0.0000

> <Gold.Chemscore.DEClash>
0.0586

> <Gold.Chemscore.DEInternal>
0.5437

> <Gold.Chemscore.Rot>
2.8910

> <Gold.Chemscore.Internal.Correction>
   9.000000E+99

> <Gold.Chemscore.Hbonds>
donor molecule, donor type, donor heavy atom, donor atom, acceptor molecule, acceptor atom, score
      L1  H    15    46       P1  8028  0.99
      P1  H  6931  6943       L1    24  0.74

> <Gold.Chemscore.Hbond.Weighted>
-6.3545

> <Gold.Chemscore.Metal.Weighted>
-0.0000

> <Gold.Chemscore.Lipo.Weighted>
-14.1907

> <Gold.Chemscore.Internal_Hbond.Weighted>
0.0000

> <Gold.Chemscore.DEClash.Weighted>
0.0586

> <Gold.Chemscore.DEInternal.Weighted>
0.5437

> <Gold.Chemscore.Rot.Weighted>
7.4009

> <Gold.Chemscore.Internal.Correction.Weighted>
   9.000000E+99

> <Gold.Protein.RotatedTorsions>
[ 6907 6896 6895 6894 ] final -176.15 input  -60.11 | X-H torsion
[ 7974 7965 7964 7962 ] final  -77.17 input  175.53 | X-H torsion
[ 8008 7997 7996 7995 ] final  124.81 input   59.86 | X-H torsion
[ 10167 10162 10161 10158 ] final   97.16 input  -65.29 | X-H torsion
[ 10718 10713 10712 10709 ] final -121.77 input   66.30 | X-H torsion
[ 10763 10752 10751 10750 ] final   60.38 input  -60.55 | X-H torsion
[ 11005 11000 10999 10996 ] final   12.49 input  -57.11 | X-H torsion

> <Gold.Protein.ActiveResidues>
 VAL166  LYS551  ARG553  GLY616  TRP617  ASP618  TYR619  PRO620  LYS621  CYS622 
 ASP623  PHE694  ASN695  SER759  ASP760  ASP761  ALA762  ILE779  LEU786  VAL792 
 PHE793  MET794  SER795  GLU796  ALA797  LYS798  CYS799  TRP800  GLU811  SER814 

> <Gold.Protein.RotatedAtoms>
  151.6002  133.3357  159.3045 H   0  0  0  0  0  0  0  0  0  0  0  0  # atno 6907 bound_to 6896
  150.8212  134.7424  159.6785 H   0  0  0  0  0  0  0  0  0  0  0  0  # atno 6908 bound_to 6896
  152.4305  134.5792  159.9994 H   0  0  0  0  0  0  0  0  0  0  0  0  # atno 6909 bound_to 6896
  145.6032  140.9404  143.1229 H   0  0  0  0  0  0  0  0  0  0  0  0  # atno 7974 bound_to 7965
  156.2814  140.2731  156.1848 H   0  0  0  0  0  0  0  0  0  0  0  0  # atno 8008 bound_to 7997
  155.0519  140.0386  157.2564 H   0  0  0  0  0  0  0  0  0  0  0  0  # atno 8009 bound_to 7997
  154.7188  140.2683  155.6566 H   0  0  0  0  0  0  0  0  0  0  0  0  # atno 8010 bound_to 7997
  139.7827  144.6882  151.0000 H   0  0  0  0  0  0  0  0  0  0  0  0  # atno 10167 bound_to 10162
  156.1364  130.6433  150.9703 H   0  0  0  0  0  0  0  0  0  0  0  0  # atno 10718 bound_to 10713
  152.9920  135.5538  154.5865 H   0  0  0  0  0  0  0  0  0  0  0  0  # atno 10763 bound_to 10752
  154.5235  135.2809  155.1244 H   0  0  0  0  0  0  0  0  0  0  0  0  # atno 10764 bound_to 10752
  154.2587  135.6385  153.5319 H   0  0  0  0  0  0  0  0  0  0  0  0  # atno 10765 bound_to 10752
  140.4914  134.0837  155.7772 H   0  0  0  0  0  0  0  0  0  0  0  0  # atno 11005 bound_to 11000
  144.7301  139.7753  143.7350 LP  0  0  0  0  0  0  0  0  0  0  0  0  # atno 17320 bound_to 7965
  146.1560  139.4658  143.0018 LP  0  0  0  0  0  0  0  0  0  0  0  0  # atno 17321 bound_to 7965
  140.7819  143.4466  151.0474 LP  0  0  0  0  0  0  0  0  0  0  0  0  # atno 17342 bound_to 10162
  139.8145  143.7904  152.3173 LP  0  0  0  0  0  0  0  0  0  0  0  0  # atno 17343 bound_to 10162
  157.6536  131.0893  150.7997 LP  0  0  0  0  0  0  0  0  0  0  0  0  # atno 17370 bound_to 10713
  156.8076  130.4942  149.5360 LP  0  0  0  0  0  0  0  0  0  0  0  0  # atno 17371 bound_to 10713
  141.1482  133.9017  157.2163 LP  0  0  0  0  0  0  0  0  0  0  0  0  # atno 17394 bound_to 11000
  139.9767  135.0111  156.9649 LP  0  0  0  0  0  0  0  0  0  0  0  0  # atno 17395 bound_to 11000

$$$$
