AV-unprocessed.smi:72|AV-procd|sdf|709|dock2
  -GOLD-   2262017 33D 1   1.00000     0.00000
 Structure written by MMmdl.
 30 31  0  0  0  0  0  0  0  0  2 V2000
  149.8093  138.6282  153.2758 N   0  0  0  0  0  0  0  0  0  0  0  0
  149.9891  139.0898  154.5631 C   0  0  0  0  0  0  0  0  0  0  0  0
  150.0486  140.4590  154.7521 N   0  3  0  0  0  0  0  0  0  0  0  0
  150.2132  141.0676  155.9345 C   0  0  0  0  0  0  0  0  0  0  0  0
  150.3307  140.3319  157.0213 N   0  0  0  0  0  0  0  0  0  0  0  0
  150.5324  140.9540  158.3814 C   0  0  2  0  0  0  0  0  0  0  0  0
  150.4349  142.3416  158.2508 O   0  0  0  0  0  0  0  0  0  0  0  0
  151.7184  142.9431  158.4038 C   0  0  1  0  0  0  0  0  0  0  0  0
  151.5589  144.3995  158.8654 C   0  0  0  0  0  0  0  0  0  0  0  0
  150.6948  145.0884  157.9875 O   0  0  0  0  0  0  0  0  0  0  0  0
  152.3614  142.0307  159.4470 C   0  0  2  0  0  0  0  0  0  0  0  0
  153.7668  142.1764  159.5299 O   0  0  0  0  0  0  0  0  0  0  0  0
  151.9231  140.6461  158.9827 C   0  0  2  0  0  0  0  0  0  0  0  0
  152.8336  140.0913  158.0436 O   0  0  0  0  0  0  0  0  0  0  0  0
  150.2938  138.9171  156.9263 C   0  0  0  0  0  0  0  0  0  0  0  0
  150.4231  138.2218  157.9334 O   0  0  0  0  0  0  0  0  0  0  0  0
  150.1118  138.3735  155.6463 N   0  0  0  0  0  0  0  0  0  0  0  0
  149.6994  140.6149  158.9996 H   0  0  0  0  0  0  0  0  0  0  0  0
  152.2806  142.8841  157.4700 H   0  0  0  0  0  0  0  0  0  0  0  0
  151.9265  142.2367  160.4266 H   0  0  0  0  0  0  0  0  0  0  0  0
  151.8189  139.9544  159.8195 H   0  0  0  0  0  0  0  0  0  0  0  0
  149.7535  137.6464  153.0436 H   0  0  0  0  0  0  0  0  0  0  0  0
  149.7210  139.2285  152.4685 H   0  0  0  0  0  0  0  0  0  0  0  0
  150.2465  142.1479  155.9717 H   0  0  0  0  0  0  0  0  0  0  0  0
  151.1867  144.4553  159.8888 H   0  0  0  0  0  0  0  0  0  0  0  0
  152.5226  144.9091  158.8424 H   0  0  0  0  0  0  0  0  0  0  0  0
  150.1608  144.4547  157.5329 H   0  0  0  0  0  0  0  0  0  0  0  0
  154.1691  141.5666  158.9301 H   0  0  0  0  0  0  0  0  0  0  0  0
  152.5947  139.1890  157.8925 H   0  0  0  0  0  0  0  0  0  0  0  0
  149.9614  141.0432  153.9329 H   0  0  0  0  0  0  0  0  0  0  0  0
  1  2  1  0  0  0  0
  1 22  1  0  0  0  0
  1 23  1  0  0  0  0
  2 17  2  0  0  0  0
  2  3  1  0  0  0  0
  3  4  2  0  0  0  0
  3 30  1  0  0  0  0
  4  5  1  0  0  0  0
  4 24  1  0  0  0  0
  5  6  1  0  0  0  0
  5 15  1  0  0  0  0
  6 18  1  0  0  0  0
  6 13  1  0  0  0  0
  6  7  1  0  0  0  0
  7  8  1  0  0  0  0
  8 19  1  0  0  0  0
  8  9  1  0  0  0  0
  8 11  1  0  0  0  0
  9 10  1  0  0  0  0
  9 25  1  0  0  0  0
  9 26  1  0  0  0  0
 10 27  1  0  0  0  0
 11 20  1  0  0  0  0
 11 12  1  0  0  0  0
 11 13  1  0  0  0  0
 12 28  1  0  0  0  0
 13 21  1  0  0  0  0
 13 14  1  0  0  0  0
 14 29  1  0  0  0  0
 15 16  2  0  0  0  0
 15 17  1  0  0  0  0
M  CHG  1   3   1
M  END
> <s_m_source_file>
AV-unprocessed.smi

> <i_m_source_file_index>
72

> <i_lp_mmshare_version>
43012

> <i_f3d_flags>
0

> <s_epik_input>
W05IMl1jMW5bY0hdbihjKD1PKW4xKVtDQEBIXTJPW0NASF0oW0NIMl1bT0hdKVtDQEBIXShbT0hdKVtDQEhdMltPSF0=

> <s_epik_cmdline>
J2VwaWtfcHl0aG9uJywgJy1waCcsICc3LjAnLCAnLXRuJywgJzgnLCAnLW1hJywgJzIwMCcsICctbWV0YWxfYmluZGluZycsICctaW1hZScsICc8aW5maWxlLm1hZT4nLCAnLW9tYWUnLCAnPG91dGZpbGUubWFlPic=

> <r_lp_tautomer_probability>
4.77166e-05

> <r_epik_Ionization_Penalty>
0.104979

> <r_epik_Ionization_Penalty_Charging>
0.0999619

> <r_epik_Ionization_Penalty_Neutral>
0.00501745

> <r_epik_State_Penalty>
2.51541

> <r_epik_Charging_Adjusted_Penalty>
2.61537

> <i_epik_Tot_Q>
1

> <i_epik_Tot_abs_Q>
1

> <r_epik_Metal_State_Penalty>
3.53763

> <b_epik_Metal_Only>
0

> <s_epik_Chemistry_Notes>
This compound contains an acetal/aminal-like group ( X-CH(R)-Y where X, Y are N, S, or O) that may be acid/base labile, releasing an aldehyde.

> <s_lp_Force_Field>
OPLS_2005

> <r_lp_Energy>
36.649

> <b_lp_Chiralities_Consistent>
1

> <s_lp_Variant>
AV-unprocessed.smi:72-47

> <Gold.Version>
5.8.1

> <Gold.Id.Protein>
6NUR|6NUR_protein|mol2

> <Gold.PLP.Fitness>
34.0393

> <Gold.PLP.PLP>
-24.7575

> <Gold.PLP.part.hbond>
-4.9221

> <Gold.PLP.part.metal>
0.0000

> <Gold.PLP.part.buried>
-2.7212

> <Gold.PLP.part.nonpolar>
-17.2661

> <Gold.PLP.part.repulsive>
1.3727

> <Gold.PLP.ligand.clash>
0.0000

> <Gold.PLP.ligand.torsion>
0.1209

> <Gold.PLP.Chemscore.Hbond>
3.0393

> <Gold.PLP.Chemscore.CHOScore>
0.0954

> <Gold.PLP.Chemscore.Metal>
0.0000

> <Gold.Chemscore.Hbonds>
donor molecule, donor type, donor heavy atom, donor atom, acceptor molecule, acceptor atom, score
      L1  H     1    22       P1  7948  0.94
      L1  H     1    23       P1  7957  1.00
      L1  H    10    27       P1  8028  0.25
      P1  H  7997  8008       L1    14  0.80
      L1  C     4    24       P1  8028  0.01

> <Gold.PLP.Chemscore.Internal.Correction>
0.1194

> <Gold.Rescore>
     Score         DG    S(hbond)    S(metal)    S(lipo)     H(rot)  DE(clash)    DE(int)     intcor
      8.54      -9.01       2.79        0.00      39.84       4.08       0.18       0.29       ----

> <Gold.Chemscore.Fitness>
8.5426

> <Gold.Chemscore.DG>
-9.0116

> <Gold.Chemscore.ZeroCoef>
-5.4800

> <Gold.Chemscore.Hbond>
2.7875

> <Gold.Chemscore.Metal>
0.0000

> <Gold.Chemscore.Lipo>
39.8433

> <Gold.Chemscore.Internal_Hbond>
0.0000

> <Gold.Chemscore.DEClash>
0.1831

> <Gold.Chemscore.DEInternal>
0.2859

> <Gold.Chemscore.Rot>
4.0783

> <Gold.Chemscore.Internal.Correction>
   9.000000E+99

> <Gold.Chemscore.Hbonds>
donor molecule, donor type, donor heavy atom, donor atom, acceptor molecule, acceptor atom, score
      L1  H     1    22       P1  7948  0.49
      L1  H     1    23       P1  7957  0.87
      L1  H    10    27       P1  8028  0.09
      P1  H  7997  8008       L1    14  0.11

> <Gold.Chemscore.Hbond.Weighted>
-9.3103

> <Gold.Chemscore.Metal.Weighted>
-0.0000

> <Gold.Chemscore.Lipo.Weighted>
-4.6617

> <Gold.Chemscore.Internal_Hbond.Weighted>
0.0000

> <Gold.Chemscore.DEClash.Weighted>
0.1831

> <Gold.Chemscore.DEInternal.Weighted>
0.2859

> <Gold.Chemscore.Rot.Weighted>
10.4404

> <Gold.Chemscore.Internal.Correction.Weighted>
   9.000000E+99

> <Gold.Protein.RotatedTorsions>
[ 6907 6896 6895 6894 ] final  121.79 input  -60.11 | X-H torsion
[ 7974 7965 7964 7962 ] final  128.73 input  175.53 | X-H torsion
[ 8008 7997 7996 7995 ] final  -76.19 input   59.86 | X-H torsion
[ 10167 10162 10161 10158 ] final   95.23 input  -65.29 | X-H torsion
[ 10718 10713 10712 10709 ] final -159.69 input   66.30 | X-H torsion
[ 10763 10752 10751 10750 ] final   22.32 input  -60.55 | X-H torsion
[ 11005 11000 10999 10996 ] final -163.30 input  -57.11 | X-H torsion

> <Gold.Protein.ActiveResidues>
 VAL166  LYS551  ARG553  GLY616  TRP617  ASP618  TYR619  PRO620  LYS621  CYS622 
 ASP623  PHE694  ASN695  SER759  ASP760  ASP761  ALA762  ILE779  LEU786  VAL792 
 PHE793  MET794  SER795  GLU796  ALA797  LYS798  CYS799  TRP800  GLU811  SER814 

> <Gold.Protein.RotatedAtoms>
  152.4294  133.7252  159.6555 H   0  0  0  0  0  0  0  0  0  0  0  0  # atno 6907 bound_to 6896
  150.8172  133.8305  159.3161 H   0  0  0  0  0  0  0  0  0  0  0  0  # atno 6908 bound_to 6896
  151.5998  135.1050  160.0109 H   0  0  0  0  0  0  0  0  0  0  0  0  # atno 6909 bound_to 6896
  145.0364  139.4001  143.5124 H   0  0  0  0  0  0  0  0  0  0  0  0  # atno 7974 bound_to 7965
  154.5483  140.0731  156.8625 H   0  0  0  0  0  0  0  0  0  0  0  0  # atno 8008 bound_to 7997
  155.3044  140.3386  155.4228 H   0  0  0  0  0  0  0  0  0  0  0  0  # atno 8009 bound_to 7997
  156.1938  140.1696  156.8025 H   0  0  0  0  0  0  0  0  0  0  0  0  # atno 8010 bound_to 7997
  139.8009  144.6814  150.9767 H   0  0  0  0  0  0  0  0  0  0  0  0  # atno 10167 bound_to 10162
  156.5716  130.8691  151.2839 H   0  0  0  0  0  0  0  0  0  0  0  0  # atno 10718 bound_to 10713
  153.0925  135.6650  153.9827 H   0  0  0  0  0  0  0  0  0  0  0  0  # atno 10763 bound_to 10752
  153.9419  135.2993  155.3443 H   0  0  0  0  0  0  0  0  0  0  0  0  # atno 10764 bound_to 10752
  154.7341  135.5110  153.9085 H   0  0  0  0  0  0  0  0  0  0  0  0  # atno 10765 bound_to 10752
  140.5996  134.4961  157.5203 H   0  0  0  0  0  0  0  0  0  0  0  0  # atno 11005 bound_to 11000
  146.3504  139.9941  142.8682 LP  0  0  0  0  0  0  0  0  0  0  0  0  # atno 17320 bound_to 7965
  145.1704  140.9718  143.4325 LP  0  0  0  0  0  0  0  0  0  0  0  0  # atno 17321 bound_to 7965
  140.7820  143.4283  151.0734 LP  0  0  0  0  0  0  0  0  0  0  0  0  # atno 17342 bound_to 10162
  139.7955  143.8158  152.3157 LP  0  0  0  0  0  0  0  0  0  0  0  0  # atno 17343 bound_to 10162
  157.7347  130.9750  150.2042 LP  0  0  0  0  0  0  0  0  0  0  0  0  # atno 17370 bound_to 10713
  156.2710  130.3722  149.8032 LP  0  0  0  0  0  0  0  0  0  0  0  0  # atno 17371 bound_to 10713
  139.9238  134.8096  156.1130 LP  0  0  0  0  0  0  0  0  0  0  0  0  # atno 17394 bound_to 11000
  141.0881  133.6726  156.2480 LP  0  0  0  0  0  0  0  0  0  0  0  0  # atno 17395 bound_to 11000

$$$$
