AV-unprocessed.smi:2268|AV-procd|sdf|9151|dock3
  -GOLD-   2272012353D 1   1.00000     0.00000
 Structure written by MMmdl.
 37 38  0  0  0  0  0  0  0  0  1 V2000
  150.2591  144.9327  159.7937 C   0  0  0  0  0  0  0  0  0  0  0  0
  151.3463  143.9125  160.0860 C   0  0  0  0  0  0  0  0  0  0  0  0
  151.8649  143.8367  161.3968 C   0  0  0  0  0  0  0  0  0  0  0  0
  152.8617  142.8980  161.7197 C   0  0  0  0  0  0  0  0  0  0  0  0
  153.3498  142.8338  162.9810 F   0  0  0  0  0  0  0  0  0  0  0  0
  153.3466  142.0238  160.7315 C   0  0  0  0  0  0  0  0  0  0  0  0
  152.8370  142.0933  159.4219 C   0  0  0  0  0  0  0  0  0  0  0  0
  151.8419  143.0392  159.0809 C   0  0  0  0  0  0  0  0  0  0  0  0
  151.3083  143.0773  157.6490 C   0  0  1  0  0  0  0  0  0  0  0  0
  151.4243  144.3701  157.0865 O   0  0  0  0  0  0  0  0  0  0  0  0
  152.0714  142.0730  156.7553 C   0  0  0  0  0  0  0  0  0  0  0  0
  151.1659  141.1853  156.0045 N   0  0  0  0  0  0  0  0  0  0  0  0
  149.8831  141.6897  155.7323 C   0  0  0  0  0  0  0  0  0  0  0  0
  149.0072  141.0030  155.0750 N   0  0  0  0  0  0  0  0  0  0  0  0
  149.3279  139.7224  154.6159 C   0  0  0  0  0  0  0  0  0  0  0  0
  148.2273  139.0032  153.8563 C   0  0  0  0  0  0  0  0  0  0  0  0
  150.5523  139.1748  154.8467 C   0  0  0  0  0  0  0  0  0  0  0  0
  150.9568  137.7845  154.3724 C   0  0  0  0  0  0  0  0  0  0  0  0
  151.5597  139.9450  155.5944 C   0  0  0  0  0  0  0  0  0  0  0  0
  152.6857  139.5079  155.8388 O   0  0  0  0  0  0  0  0  0  0  0  0
  149.9220  145.4268  160.7055 H   0  0  0  0  0  0  0  0  0  0  0  0
  149.3924  144.4525  159.3399 H   0  0  0  0  0  0  0  0  0  0  0  0
  150.6288  145.7018  159.1152 H   0  0  0  0  0  0  0  0  0  0  0  0
  151.4964  144.4991  162.1666 H   0  0  0  0  0  0  0  0  0  0  0  0
  154.1080  141.2982  160.9771 H   0  0  0  0  0  0  0  0  0  0  0  0
  153.2158  141.4088  158.6771 H   0  0  0  0  0  0  0  0  0  0  0  0
  150.2445  142.8442  157.6491 H   0  0  0  0  0  0  0  0  0  0  0  0
  150.5916  144.6090  156.7090 H   0  0  0  0  0  0  0  0  0  0  0  0
  152.7695  142.5974  156.0999 H   0  0  0  0  0  0  0  0  0  0  0  0
  152.7137  141.4538  157.3852 H   0  0  0  0  0  0  0  0  0  0  0  0
  149.6843  142.6941  156.1099 H   0  0  0  0  0  0  0  0  0  0  0  0
  148.5552  138.7645  152.8442 H   0  0  0  0  0  0  0  0  0  0  0  0
  147.3295  139.6181  153.7796 H   0  0  0  0  0  0  0  0  0  0  0  0
  147.9559  138.0772  154.3636 H   0  0  0  0  0  0  0  0  0  0  0  0
  151.2212  137.1591  155.2257 H   0  0  0  0  0  0  0  0  0  0  0  0
  151.8262  137.8484  153.7176 H   0  0  0  0  0  0  0  0  0  0  0  0
  150.1694  137.2714  153.8228 H   0  0  0  0  0  0  0  0  0  0  0  0
  1  2  1  0  0  0  0
  1 21  1  0  0  0  0
  1 22  1  0  0  0  0
  1 23  1  0  0  0  0
  2  8  1  0  0  0  0
  2  3  2  0  0  0  0
  3  4  1  0  0  0  0
  3 24  1  0  0  0  0
  4  5  1  0  0  0  0
  4  6  2  0  0  0  0
  6  7  1  0  0  0  0
  6 25  1  0  0  0  0
  7  8  2  0  0  0  0
  7 26  1  0  0  0  0
  8  9  1  0  0  0  0
  9 10  1  0  0  0  0
  9 11  1  0  0  0  0
  9 27  1  0  0  0  0
 10 28  1  0  0  0  0
 11 12  1  0  0  0  0
 11 29  1  0  0  0  0
 11 30  1  0  0  0  0
 12 19  1  0  0  0  0
 12 13  1  0  0  0  0
 13 14  2  0  0  0  0
 13 31  1  0  0  0  0
 14 15  1  0  0  0  0
 15 16  1  0  0  0  0
 15 17  2  0  0  0  0
 16 32  1  0  0  0  0
 16 33  1  0  0  0  0
 16 34  1  0  0  0  0
 17 18  1  0  0  0  0
 17 19  1  0  0  0  0
 18 35  1  0  0  0  0
 18 36  1  0  0  0  0
 18 37  1  0  0  0  0
 19 20  2  0  0  0  0
M  END
> <s_m_source_file>
AV-unprocessed.smi

> <i_m_source_file_index>
2268

> <i_lp_mmshare_version>
43012

> <i_f3d_flags>
0

> <s_epik_input>
W0NIM11jMVtjSF1jKEYpW2NIXVtjSF1jMVtDQEhdKFtPSF0pW0NIMl1uMltjSF1uYyhbQ0gzXSljKFtDSDNdKWMyPU8=

> <s_epik_cmdline>
J2VwaWtfcHl0aG9uJywgJy1waCcsICc3LjAnLCAnLXRuJywgJzgnLCAnLW1hJywgJzIwMCcsICctbWV0YWxfYmluZGluZycsICctaW1hZScsICc8aW5maWxlLm1hZT4nLCAnLW9tYWUnLCAnPG91dGZpbGUubWFlPic=

> <r_lp_tautomer_probability>
1

> <r_epik_Ionization_Penalty>
5.07449e-05

> <r_epik_Ionization_Penalty_Charging>
7.56727e-08

> <r_epik_Ionization_Penalty_Neutral>
5.06692e-05

> <r_epik_State_Penalty>
-0

> <r_epik_Charging_Adjusted_Penalty>
7.56727e-08

> <i_epik_Tot_Q>
0

> <i_epik_Tot_abs_Q>
0

> <r_epik_Metal_State_Penalty>
-0

> <b_epik_Metal_Only>
0

> <s_lp_Force_Field>
OPLS_2005

> <r_lp_Energy>
20.6014

> <b_lp_Chiralities_Consistent>
1

> <s_lp_Variant>
AV-unprocessed.smi:2268-2

> <Gold.Version>
5.8.1

> <Gold.Id.Protein>
6NUR|6NUR_protein|mol2

> <Gold.PLP.Fitness>
54.2096

> <Gold.PLP.PLP>
-47.3821

> <Gold.PLP.part.hbond>
-2.0000

> <Gold.PLP.part.metal>
0.0000

> <Gold.PLP.part.buried>
-5.3121

> <Gold.PLP.part.nonpolar>
-38.0638

> <Gold.PLP.part.repulsive>
0.1120

> <Gold.PLP.ligand.clash>
0.0000

> <Gold.PLP.ligand.torsion>
1.0907

> <Gold.PLP.Chemscore.Hbond>
2.0000

> <Gold.PLP.Chemscore.CHOScore>
1.0000

> <Gold.PLP.Chemscore.Metal>
0.0000

> <Gold.Chemscore.Hbonds>
donor molecule, donor type, donor heavy atom, donor atom, acceptor molecule, acceptor atom, score
      L1  H    10    28       P1  8028  1.00
      P1  H  7997  8009       L1    20  1.00
      L1  C    13    31       P1  8028  1.00

> <Gold.PLP.Chemscore.Internal.Correction>
0.0089

> <Gold.Rescore>
     Score         DG    S(hbond)    S(metal)    S(lipo)     H(rot)  DE(clash)    DE(int)     intcor
     17.72     -20.93       1.93        0.00     120.44       1.98       2.13       1.09       ----

> <Gold.Chemscore.Fitness>
17.7159

> <Gold.Chemscore.DG>
-20.9275

> <Gold.Chemscore.ZeroCoef>
-5.4800

> <Gold.Chemscore.Hbond>
1.9254

> <Gold.Chemscore.Metal>
0.0000

> <Gold.Chemscore.Lipo>
120.4390

> <Gold.Chemscore.Internal_Hbond>
0.0000

> <Gold.Chemscore.DEClash>
2.1260

> <Gold.Chemscore.DEInternal>
1.0855

> <Gold.Chemscore.Rot>
1.9823

> <Gold.Chemscore.Internal.Correction>
   9.000000E+99

> <Gold.Chemscore.Hbonds>
donor molecule, donor type, donor heavy atom, donor atom, acceptor molecule, acceptor atom, score
      L1  H    10    28       P1  8028  0.91
      P1  H  7997  8009       L1    20  1.00

> <Gold.Chemscore.Hbond.Weighted>
-6.4309

> <Gold.Chemscore.Metal.Weighted>
-0.0000

> <Gold.Chemscore.Lipo.Weighted>
-14.0914

> <Gold.Chemscore.Internal_Hbond.Weighted>
0.0000

> <Gold.Chemscore.DEClash.Weighted>
2.1260

> <Gold.Chemscore.DEInternal.Weighted>
1.0855

> <Gold.Chemscore.Rot.Weighted>
5.0748

> <Gold.Chemscore.Internal.Correction.Weighted>
   9.000000E+99

> <Gold.Protein.RotatedTorsions>
[ 6907 6896 6895 6894 ] final -146.13 input  -60.11 | X-H torsion
[ 7974 7965 7964 7962 ] final  100.98 input  175.53 | X-H torsion
[ 8008 7997 7996 7995 ] final -167.59 input   59.86 | X-H torsion
[ 10167 10162 10161 10158 ] final   18.19 input  -65.29 | X-H torsion
[ 10718 10713 10712 10709 ] final  -10.67 input   66.30 | X-H torsion
[ 10763 10752 10751 10750 ] final -117.38 input  -60.55 | X-H torsion
[ 11005 11000 10999 10996 ] final  -16.07 input  -57.11 | X-H torsion

> <Gold.Protein.ActiveResidues>
 VAL166  LYS551  ARG553  GLY616  TRP617  ASP618  TYR619  PRO620  LYS621  CYS622 
 ASP623  PHE694  ASN695  SER759  ASP760  ASP761  ALA762  ILE779  LEU786  VAL792 
 PHE793  MET794  SER795  GLU796  ALA797  LYS798  CYS799  TRP800  GLU811  SER814 

> <Gold.Protein.RotatedAtoms>
  151.1373  133.4995  159.2597 H   0  0  0  0  0  0  0  0  0  0  0  0  # atno 6907 bound_to 6896
  151.1693  135.0310  159.8754 H   0  0  0  0  0  0  0  0  0  0  0  0  # atno 6908 bound_to 6896
  152.5461  134.1238  159.8463 H   0  0  0  0  0  0  0  0  0  0  0  0  # atno 6909 bound_to 6896
  145.3783  139.2384  143.3417 H   0  0  0  0  0  0  0  0  0  0  0  0  # atno 7974 bound_to 7965
  155.8798  140.1007  157.1493 H   0  0  0  0  0  0  0  0  0  0  0  0  # atno 8008 bound_to 7997
  154.4004  140.1331  156.4246 H   0  0  0  0  0  0  0  0  0  0  0  0  # atno 8009 bound_to 7997
  155.7655  140.3462  155.5222 H   0  0  0  0  0  0  0  0  0  0  0  0  # atno 8010 bound_to 7997
  140.5671  143.9230  150.6685 H   0  0  0  0  0  0  0  0  0  0  0  0  # atno 10167 bound_to 10162
  156.6701  130.5007  149.6003 H   0  0  0  0  0  0  0  0  0  0  0  0  # atno 10718 bound_to 10713
  154.8553  135.4312  154.1970 H   0  0  0  0  0  0  0  0  0  0  0  0  # atno 10763 bound_to 10752
  153.3026  135.6970  153.7195 H   0  0  0  0  0  0  0  0  0  0  0  0  # atno 10764 bound_to 10752
  153.6319  135.3483  155.3019 H   0  0  0  0  0  0  0  0  0  0  0  0  # atno 10765 bound_to 10752
  140.8031  133.8199  155.9489 H   0  0  0  0  0  0  0  0  0  0  0  0  # atno 11005 bound_to 11000
  146.2854  140.4446  142.8760 LP  0  0  0  0  0  0  0  0  0  0  0  0  # atno 17320 bound_to 7965
  144.8526  140.7023  143.6158 LP  0  0  0  0  0  0  0  0  0  0  0  0  # atno 17321 bound_to 7965
  140.2696  143.3466  152.1250 LP  0  0  0  0  0  0  0  0  0  0  0  0  # atno 17342 bound_to 10162
  139.5098  144.6874  151.5851 LP  0  0  0  0  0  0  0  0  0  0  0  0  # atno 17343 bound_to 10162
  156.1945  130.6581  151.1099 LP  0  0  0  0  0  0  0  0  0  0  0  0  # atno 17370 bound_to 10713
  157.7080  131.0747  150.6600 LP  0  0  0  0  0  0  0  0  0  0  0  0  # atno 17371 bound_to 10713
  140.9275  134.2064  157.4886 LP  0  0  0  0  0  0  0  0  0  0  0  0  # atno 17394 bound_to 11000
  139.8720  134.9818  156.5133 LP  0  0  0  0  0  0  0  0  0  0  0  0  # atno 17395 bound_to 11000

$$$$
