AV-unprocessed.smi:3274|AV-procd|sdf|12528|dock9
  -GOLD-   2272018443D 1   1.00000     0.00000
 Structure written by MMmdl.
 43 44  0  0  0  0  0  0  0  0  2 V2000
  154.4262  140.9572  159.7057 C   0  0  0  0  0  0  0  0  0  0  0  0
  153.5537  141.9477  160.4576 C   0  0  0  0  0  0  0  0  0  0  0  0
  153.4903  141.8961  161.8019 C   0  0  0  0  0  0  0  0  0  0  0  0
  152.7140  142.8709  162.6569 C   0  0  0  0  0  0  0  0  0  0  0  0
  152.4335  144.1683  161.8951 C   0  0  0  0  0  0  0  0  0  0  0  0
  151.8428  143.8865  160.5039 C   0  0  1  0  0  0  0  0  0  0  0  0
  151.4879  145.2215  159.8197 C   0  0  0  0  0  0  0  0  0  0  0  0
  152.7831  142.9982  159.6315 C   0  0  2  0  0  0  0  0  0  0  0  0
  151.9885  142.3678  158.4573 C   0  0  0  0  0  0  0  0  0  0  0  0
  151.5255  140.9939  158.7531 N   0  3  0  0  0  0  0  0  0  0  0  0
  151.1524  140.1776  157.5741 C   0  0  1  0  0  0  0  0  0  0  0  0
  149.8948  140.7343  156.8852 C   0  0  0  0  0  0  0  0  0  0  0  0
  152.3289  140.1061  156.5813 C   0  0  0  0  0  0  0  0  0  0  0  0
  152.1023  139.1362  155.5250 N   0  0  0  0  0  0  0  0  0  0  0  0
  152.7271  137.9901  155.2495 C   0  0  0  0  0  0  0  0  0  0  0  0
  152.2477  137.3630  154.1846 N   0  0  0  0  0  0  0  0  0  0  0  0
  151.2539  138.2327  153.8340 C   0  0  0  0  0  0  0  0  0  0  0  0
  151.1284  139.3152  154.6023 N   0  0  0  0  0  0  0  0  0  0  0  0
  155.0925  141.4806  159.0200 H   0  0  0  0  0  0  0  0  0  0  0  0
  153.8168  140.2513  159.1418 H   0  0  0  0  0  0  0  0  0  0  0  0
  155.0472  140.3758  160.3880 H   0  0  0  0  0  0  0  0  0  0  0  0
  154.0290  141.1277  162.3379 H   0  0  0  0  0  0  0  0  0  0  0  0
  151.7844  142.3961  162.9723 H   0  0  0  0  0  0  0  0  0  0  0  0
  153.2855  143.0895  163.5595 H   0  0  0  0  0  0  0  0  0  0  0  0
  151.7554  144.7908  162.4803 H   0  0  0  0  0  0  0  0  0  0  0  0
  153.3593  144.7360  161.7899 H   0  0  0  0  0  0  0  0  0  0  0  0
  150.9123  143.3385  160.6623 H   0  0  0  0  0  0  0  0  0  0  0  0
  152.3823  145.8112  159.6161 H   0  0  0  0  0  0  0  0  0  0  0  0
  150.8378  145.8235  160.4554 H   0  0  0  0  0  0  0  0  0  0  0  0
  150.9625  145.0817  158.8763 H   0  0  0  0  0  0  0  0  0  0  0  0
  153.5474  143.6553  159.2133 H   0  0  0  0  0  0  0  0  0  0  0  0
  151.1360  143.0033  158.2126 H   0  0  0  0  0  0  0  0  0  0  0  0
  152.5988  142.3180  157.5583 H   0  0  0  0  0  0  0  0  0  0  0  0
  152.2366  140.5090  159.2817 H   0  0  0  0  0  0  0  0  0  0  0  0
  150.9390  139.1628  157.9141 H   0  0  0  0  0  0  0  0  0  0  0  0
  149.6514  140.1573  155.9926 H   0  0  0  0  0  0  0  0  0  0  0  0
  150.0351  141.7718  156.5795 H   0  0  0  0  0  0  0  0  0  0  0  0
  149.0228  140.6925  157.5377 H   0  0  0  0  0  0  0  0  0  0  0  0
  152.4838  141.0781  156.1110 H   0  0  0  0  0  0  0  0  0  0  0  0
  153.2575  139.8603  157.0999 H   0  0  0  0  0  0  0  0  0  0  0  0
  153.5520  137.6102  155.8344 H   0  0  0  0  0  0  0  0  0  0  0  0
  150.6091  138.0671  152.9832 H   0  0  0  0  0  0  0  0  0  0  0  0
  150.7016  141.0762  159.3323 H   0  0  0  0  0  0  0  0  0  0  0  0
  1  2  1  0  0  0  0
  1 19  1  0  0  0  0
  1 20  1  0  0  0  0
  1 21  1  0  0  0  0
  2  8  1  0  0  0  0
  2  3  2  0  0  0  0
  3  4  1  0  0  0  0
  3 22  1  0  0  0  0
  4  5  1  0  0  0  0
  4 23  1  0  0  0  0
  4 24  1  0  0  0  0
  5  6  1  0  0  0  0
  5 25  1  0  0  0  0
  5 26  1  0  0  0  0
  6  7  1  0  0  0  0
  6  8  1  0  0  0  0
  6 27  1  0  0  0  0
  7 28  1  0  0  0  0
  7 29  1  0  0  0  0
  7 30  1  0  0  0  0
  8  9  1  0  0  0  0
  8 31  1  0  0  0  0
  9 10  1  0  0  0  0
  9 32  1  0  0  0  0
  9 33  1  0  0  0  0
 10 11  1  0  0  0  0
 10 34  1  0  0  0  0
 10 43  1  0  0  0  0
 11 12  1  0  0  0  0
 11 13  1  0  0  0  0
 11 35  1  0  0  0  0
 12 36  1  0  0  0  0
 12 37  1  0  0  0  0
 12 38  1  0  0  0  0
 13 14  1  0  0  0  0
 13 39  1  0  0  0  0
 13 40  1  0  0  0  0
 14 18  1  0  0  0  0
 14 15  1  0  0  0  0
 15 16  2  0  0  0  0
 15 41  1  0  0  0  0
 16 17  1  0  0  0  0
 17 18  2  0  0  0  0
 17 42  1  0  0  0  0
M  CHG  1  10   1
M  END
> <s_m_source_file>
AV-unprocessed.smi

> <i_m_source_file_index>
3274

> <i_lp_mmshare_version>
43012

> <i_f3d_flags>
0

> <s_epik_input>
W0NIM11DMT1bQ0hdW0NIMl1bQ0gyXVtDQEBIXShbQ0gzXSlbQ0BIXTFbQ0gyXVtOSF1bQ0BIXShbQ0gzXSlbQ0gyXW4yW2NIXW5bY0hdbjI=

> <s_epik_cmdline>
J2VwaWtfcHl0aG9uJywgJy1waCcsICc3LjAnLCAnLXRuJywgJzgnLCAnLW1hJywgJzIwMCcsICctbWV0YWxfYmluZGluZycsICctaW1hZScsICc8aW5maWxlLm1hZT4nLCAnLW9tYWUnLCAnPG91dGZpbGUubWFlPic=

> <r_lp_tautomer_probability>
1

> <r_epik_Ionization_Penalty>
0.0017527

> <r_epik_Ionization_Penalty_Charging>
0.00175191

> <r_epik_Ionization_Penalty_Neutral>
7.94565e-07

> <r_epik_State_Penalty>
0.00118605

> <r_epik_Charging_Adjusted_Penalty>
0.00293796

> <i_epik_Tot_Q>
1

> <i_epik_Tot_abs_Q>
1

> <r_epik_Metal_State_Penalty>
-0

> <b_epik_Metal_Only>
0

> <s_lp_Force_Field>
OPLS_2005

> <r_lp_Energy>
17.2451

> <b_lp_Chiralities_Consistent>
1

> <s_lp_Variant>
AV-unprocessed.smi:3274-7

> <Gold.Version>
5.8.1

> <Gold.Id.Protein>
6NUR|6NUR_protein|mol2

> <Gold.PLP.Fitness>
54.1747

> <Gold.PLP.PLP>
-44.9624

> <Gold.PLP.part.hbond>
-1.9385

> <Gold.PLP.part.metal>
0.0000

> <Gold.PLP.part.buried>
-5.5464

> <Gold.PLP.part.nonpolar>
-37.1999

> <Gold.PLP.part.repulsive>
0.7069

> <Gold.PLP.ligand.clash>
0.0000

> <Gold.PLP.ligand.torsion>
0.6014

> <Gold.PLP.Chemscore.Hbond>
1.7254

> <Gold.PLP.Chemscore.CHOScore>
1.7240

> <Gold.PLP.Chemscore.Metal>
0.0000

> <Gold.Chemscore.Hbonds>
donor molecule, donor type, donor heavy atom, donor atom, acceptor molecule, acceptor atom, score
      P1  H  7989  7998       L1    18  1.00
      P1  H 10752 10765       L1    16  0.82
      L1  C    17    42       P1  7948  0.37
      L1  C    17    42       P1  7949  0.37
      L1  C    17    42       P1  7957  0.16

> <Gold.PLP.Chemscore.Internal.Correction>
0.0670

> <Gold.Rescore>
     Score         DG    S(hbond)    S(metal)    S(lipo)     H(rot)  DE(clash)    DE(int)     intcor
     17.33     -19.17       1.75        0.00     118.59       2.36       0.37       1.46       ----

> <Gold.Chemscore.Fitness>
17.3318

> <Gold.Chemscore.DG>
-19.1665

> <Gold.Chemscore.ZeroCoef>
-5.4800

> <Gold.Chemscore.Hbond>
1.7537

> <Gold.Chemscore.Metal>
0.0000

> <Gold.Chemscore.Lipo>
118.5859

> <Gold.Chemscore.Internal_Hbond>
0.0000

> <Gold.Chemscore.DEClash>
0.3738

> <Gold.Chemscore.DEInternal>
1.4609

> <Gold.Chemscore.Rot>
2.3615

> <Gold.Chemscore.Internal.Correction>
   9.000000E+99

> <Gold.Chemscore.Hbonds>
donor molecule, donor type, donor heavy atom, donor atom, acceptor molecule, acceptor atom, score
      P1  H  7989  7998       L1    18  0.35
      P1  H 10752 10765       L1    16  0.57

> <Gold.Chemscore.Hbond.Weighted>
-5.8573

> <Gold.Chemscore.Metal.Weighted>
-0.0000

> <Gold.Chemscore.Lipo.Weighted>
-13.8746

> <Gold.Chemscore.Internal_Hbond.Weighted>
0.0000

> <Gold.Chemscore.DEClash.Weighted>
0.3738

> <Gold.Chemscore.DEInternal.Weighted>
1.4609

> <Gold.Chemscore.Rot.Weighted>
6.0454

> <Gold.Chemscore.Internal.Correction.Weighted>
   9.000000E+99

> <Gold.Protein.RotatedTorsions>
[ 6907 6896 6895 6894 ] final   77.81 input  -60.11 | X-H torsion
[ 7974 7965 7964 7962 ] final  161.93 input  175.53 | X-H torsion
[ 8008 7997 7996 7995 ] final  -65.86 input   59.86 | X-H torsion
[ 10167 10162 10161 10158 ] final  -58.39 input  -65.29 | X-H torsion
[ 10718 10713 10712 10709 ] final  173.53 input   66.30 | X-H torsion
[ 10763 10752 10751 10750 ] final  147.03 input  -60.55 | X-H torsion
[ 11005 11000 10999 10996 ] final  -14.71 input  -57.11 | X-H torsion

> <Gold.Protein.ActiveResidues>
 VAL166  LYS551  ARG553  GLY616  TRP617  ASP618  TYR619  PRO620  LYS621  CYS622 
 ASP623  PHE694  ASN695  SER759  ASP760  ASP761  ALA762  ILE779  LEU786  VAL792 
 PHE793  MET794  SER795  GLU796  ALA797  LYS798  CYS799  TRP800  GLU811  SER814 

> <Gold.Protein.RotatedAtoms>
  152.5133  134.3761  159.9334 H   0  0  0  0  0  0  0  0  0  0  0  0  # atno 6907 bound_to 6896
  151.3716  133.3846  159.2708 H   0  0  0  0  0  0  0  0  0  0  0  0  # atno 6908 bound_to 6896
  150.9573  134.8985  159.7767 H   0  0  0  0  0  0  0  0  0  0  0  0  # atno 6909 bound_to 6896
  144.7661  139.7968  143.6314 H   0  0  0  0  0  0  0  0  0  0  0  0  # atno 7974 bound_to 7965
  154.4698  140.0924  156.7115 H   0  0  0  0  0  0  0  0  0  0  0  0  # atno 8008 bound_to 7997
  155.4756  140.3466  155.4314 H   0  0  0  0  0  0  0  0  0  0  0  0  # atno 8009 bound_to 7997
  156.1019  140.1424  156.9444 H   0  0  0  0  0  0  0  0  0  0  0  0  # atno 8010 bound_to 7997
  140.6200  143.2416  151.5504 H   0  0  0  0  0  0  0  0  0  0  0  0  # atno 10167 bound_to 10162
  156.9629  131.0066  151.2923 H   0  0  0  0  0  0  0  0  0  0  0  0  # atno 10718 bound_to 10713
  154.0316  135.2897  155.3367 H   0  0  0  0  0  0  0  0  0  0  0  0  # atno 10763 bound_to 10752
  154.6984  135.5198  153.8495 H   0  0  0  0  0  0  0  0  0  0  0  0  # atno 10764 bound_to 10752
  153.0637  135.6623  154.0529 H   0  0  0  0  0  0  0  0  0  0  0  0  # atno 10765 bound_to 10752
  140.7892  133.8301  155.9364 H   0  0  0  0  0  0  0  0  0  0  0  0  # atno 11005 bound_to 11000
  146.1770  139.4945  142.9891 LP  0  0  0  0  0  0  0  0  0  0  0  0  # atno 17320 bound_to 7965
  145.6465  141.0273  143.1783 LP  0  0  0  0  0  0  0  0  0  0  0  0  # atno 17321 bound_to 7965
  139.5431  144.2595  152.1389 LP  0  0  0  0  0  0  0  0  0  0  0  0  # atno 17342 bound_to 10162
  140.1813  144.4842  150.6527 LP  0  0  0  0  0  0  0  0  0  0  0  0  # atno 17343 bound_to 10162
  157.5645  130.8268  149.8310 LP  0  0  0  0  0  0  0  0  0  0  0  0  # atno 17370 bound_to 10713
  156.0315  130.3763  150.1676 LP  0  0  0  0  0  0  0  0  0  0  0  0  # atno 17371 bound_to 10713
  140.9406  134.1905  157.4800 LP  0  0  0  0  0  0  0  0  0  0  0  0  # atno 17394 bound_to 11000
  139.8733  134.9870  156.5350 LP  0  0  0  0  0  0  0  0  0  0  0  0  # atno 17395 bound_to 11000

$$$$
