AV-unprocessed.smi:199|AV-procd|sdf|1572|dock1
  -GOLD-   2262019453D 1   1.00000     0.00000
 Structure written by MMmdl.
 51 55  0  0  0  0  0  0  0  0  1 V2000
  152.5215  137.5850  155.8412 C   0  0  0  0  0  0  0  0  0  0  0  0
  151.9895  139.0131  155.6436 C   0  0  2  0  0  0  0  0  0  0  0  0
  152.3253  139.7677  156.8050 O   0  0  0  0  0  0  0  0  0  0  0  0
  151.3548  140.7835  156.9829 C   0  0  0  0  0  0  0  0  0  0  0  0
  150.0609  140.0557  156.6521 C   0  0  0  0  0  0  0  0  0  0  0  0
  150.4521  139.1736  155.4685 C   0  0  1  0  0  0  0  0  0  0  0  0
  150.2314  139.9181  154.2825 O   0  0  0  0  0  0  0  0  0  0  0  0
  149.6266  137.8633  155.3726 C   0  0  0  0  0  0  0  0  0  0  0  0
  149.3173  137.2767  156.6684 N   0  0  0  0  0  0  0  0  0  0  0  0
  150.0365  136.3027  157.3225 C   0  0  0  0  0  0  0  0  0  0  0  0
  149.5581  135.9425  158.4812 N   0  0  0  0  0  0  0  0  0  0  0  0
  148.4119  136.7138  158.6349 C   0  0  0  0  0  0  0  0  0  0  0  0
  147.4185  136.8311  159.6494 C   0  0  0  0  0  0  0  0  0  0  0  0
  147.4272  136.0991  160.7953 N   0  0  0  0  0  0  0  0  0  0  0  0
  147.3254  136.7241  162.1045 C   0  0  2  0  0  0  0  0  0  0  0  0
  147.6231  135.5447  163.0469 C   0  0  0  0  0  0  0  0  0  0  0  0
  146.9828  134.3755  162.2787 C   0  0  0  0  0  0  0  0  0  0  0  0
  146.3988  135.1016  161.0532 C   0  0  1  0  0  0  0  0  0  0  0  0
  145.1572  135.9096  161.5091 C   0  0  2  0  0  0  0  0  0  0  0  0
  144.2127  136.3156  160.3614 C   0  0  0  0  0  0  0  0  0  0  0  0
  143.6393  135.1666  159.7751 O   0  0  0  0  0  0  0  0  0  0  0  0
  145.8338  137.0994  162.2207 C   0  0  0  0  0  0  0  0  0  0  0  0
  146.4317  137.7449  159.4514 N   0  0  0  0  0  0  0  0  0  0  0  0
  146.3965  138.4728  158.3320 C   0  0  0  0  0  0  0  0  0  0  0  0
  147.2422  138.4577  157.3008 N   0  0  0  0  0  0  0  0  0  0  0  0
  148.2479  137.5594  157.5004 C   0  0  0  0  0  0  0  0  0  0  0  0
  152.2991  136.9543  154.9805 H   0  0  0  0  0  0  0  0  0  0  0  0
  152.0953  137.1168  156.7285 H   0  0  0  0  0  0  0  0  0  0  0  0
  153.6043  137.5935  155.9672 H   0  0  0  0  0  0  0  0  0  0  0  0
  152.5166  139.4613  154.7988 H   0  0  0  0  0  0  0  0  0  0  0  0
  151.3686  141.1823  157.9974 H   0  0  0  0  0  0  0  0  0  0  0  0
  151.5391  141.6008  156.2839 H   0  0  0  0  0  0  0  0  0  0  0  0
  149.7819  139.4364  157.5056 H   0  0  0  0  0  0  0  0  0  0  0  0
  149.2290  140.7306  156.4456 H   0  0  0  0  0  0  0  0  0  0  0  0
  149.3344  140.2155  154.2771 H   0  0  0  0  0  0  0  0  0  0  0  0
  148.6897  138.0378  154.8420 H   0  0  0  0  0  0  0  0  0  0  0  0
  150.1707  137.1124  154.7993 H   0  0  0  0  0  0  0  0  0  0  0  0
  150.9376  135.8689  156.9143 H   0  0  0  0  0  0  0  0  0  0  0  0
  147.9991  137.5669  162.2637 H   0  0  0  0  0  0  0  0  0  0  0  0
  148.6976  135.3903  163.1531 H   0  0  0  0  0  0  0  0  0  0  0  0
  147.1986  135.6838  164.0415 H   0  0  0  0  0  0  0  0  0  0  0  0
  147.7444  133.6564  161.9743 H   0  0  0  0  0  0  0  0  0  0  0  0
  146.2303  133.8423  162.8605 H   0  0  0  0  0  0  0  0  0  0  0  0
  146.1905  134.4125  160.2365 H   0  0  0  0  0  0  0  0  0  0  0  0
  144.5818  135.3178  162.2229 H   0  0  0  0  0  0  0  0  0  0  0  0
  143.4127  136.9698  160.7063 H   0  0  0  0  0  0  0  0  0  0  0  0
  144.7627  136.8583  159.5923 H   0  0  0  0  0  0  0  0  0  0  0  0
  144.2189  134.4340  159.9184 H   0  0  0  0  0  0  0  0  0  0  0  0
  145.5086  137.2114  163.2555 H   0  0  0  0  0  0  0  0  0  0  0  0
  145.6298  138.0399  161.7073 H   0  0  0  0  0  0  0  0  0  0  0  0
  145.5730  139.1670  158.2517 H   0  0  0  0  0  0  0  0  0  0  0  0
  1  2  1  0  0  0  0
  1 27  1  0  0  0  0
  1 28  1  0  0  0  0
  1 29  1  0  0  0  0
  2  6  1  0  0  0  0
  2  3  1  0  0  0  0
  2 30  1  0  0  0  0
  3  4  1  0  0  0  0
  4  5  1  0  0  0  0
  4 31  1  0  0  0  0
  4 32  1  0  0  0  0
  5  6  1  0  0  0  0
  5 33  1  0  0  0  0
  5 34  1  0  0  0  0
  6  7  1  0  0  0  0
  6  8  1  0  0  0  0
  7 35  1  0  0  0  0
  8  9  1  0  0  0  0
  8 36  1  0  0  0  0
  8 37  1  0  0  0  0
  9 26  1  0  0  0  0
  9 10  1  0  0  0  0
 10 11  2  0  0  0  0
 10 38  1  0  0  0  0
 11 12  1  0  0  0  0
 12 26  2  0  0  0  0
 12 13  1  0  0  0  0
 13 14  1  0  0  0  0
 13 23  2  0  0  0  0
 14 18  1  0  0  0  0
 14 15  1  0  0  0  0
 15 22  1  0  0  0  0
 15 16  1  0  0  0  0
 15 39  1  0  0  0  0
 16 17  1  0  0  0  0
 16 40  1  0  0  0  0
 16 41  1  0  0  0  0
 17 18  1  0  0  0  0
 17 42  1  0  0  0  0
 17 43  1  0  0  0  0
 18 19  1  0  0  0  0
 18 44  1  0  0  0  0
 19 20  1  0  0  0  0
 19 22  1  0  0  0  0
 19 45  1  0  0  0  0
 20 21  1  0  0  0  0
 20 46  1  0  0  0  0
 20 47  1  0  0  0  0
 21 48  1  0  0  0  0
 22 49  1  0  0  0  0
 22 50  1  0  0  0  0
 23 24  1  0  0  0  0
 24 25  2  0  0  0  0
 24 51  1  0  0  0  0
 25 26  1  0  0  0  0
M  END
> <s_m_source_file>
AV-unprocessed.smi

> <i_m_source_file_index>
199

> <i_lp_mmshare_version>
43012

> <i_f3d_flags>
0

> <s_epik_input>
W0NIMl0xW0NIMl1PW0NAQEhdKFtDSDNdKVtDQEBdMShbT0hdKVtDSDJdbihbY0hdbjIpYyhjMjMpbltjSF1uYzNOKFtDQEBIXTQ1KVtDQEhdKFtDSDJdW0NIMl00KVtDQEhdKFtDSDJdNSlbQ0gyXVtPSF0=

> <s_epik_cmdline>
J2VwaWtfcHl0aG9uJywgJy1waCcsICc3LjAnLCAnLXRuJywgJzgnLCAnLW1hJywgJzIwMCcsICctbWV0YWxfYmluZGluZycsICctaW1hZScsICc8aW5maWxlLm1hZT4nLCAnLW9tYWUnLCAnPG91dGZpbGUubWFlPic=

> <r_lp_tautomer_probability>
1

> <r_epik_Ionization_Penalty>
0.00583903

> <r_epik_Ionization_Penalty_Charging>
0

> <r_epik_Ionization_Penalty_Neutral>
0.00583903

> <r_epik_State_Penalty>
-0

> <r_epik_Charging_Adjusted_Penalty>
0

> <i_epik_Tot_Q>
0

> <i_epik_Tot_abs_Q>
0

> <r_epik_Metal_State_Penalty>
-0

> <b_epik_Metal_Only>
0

> <s_lp_Force_Field>
OPLS_2005

> <r_lp_Energy>
83.4582

> <b_lp_Chiralities_Consistent>
1

> <s_lp_Variant>
AV-unprocessed.smi:199-13

> <Gold.Version>
5.8.1

> <Gold.Id.Protein>
6NUR|6NUR_protein|mol2

> <Gold.PLP.Fitness>
42.0415

> <Gold.PLP.PLP>
-33.3397

> <Gold.PLP.part.hbond>
-4.6842

> <Gold.PLP.part.metal>
0.0000

> <Gold.PLP.part.buried>
-3.7045

> <Gold.PLP.part.nonpolar>
-25.5378

> <Gold.PLP.part.repulsive>
0.0000

> <Gold.PLP.ligand.clash>
0.0000

> <Gold.PLP.ligand.torsion>
0.8479

> <Gold.PLP.Chemscore.Hbond>
3.4624

> <Gold.PLP.Chemscore.CHOScore>
0.0000

> <Gold.PLP.Chemscore.Metal>
0.0000

> <Gold.Chemscore.Hbonds>
donor molecule, donor type, donor heavy atom, donor atom, acceptor molecule, acceptor atom, score
      P1  H  6896  6907       L1    11  0.98
      P1  H  6934  6947       L1    23  0.54
      P1  H  7989  7998       L1     7  1.00
      P1  H  7997  8010       L1     3  0.91

> <Gold.PLP.Chemscore.Internal.Correction>
0.0105

> <Gold.Rescore>
     Score         DG    S(hbond)    S(metal)    S(lipo)     H(rot)  DE(clash)    DE(int)     intcor
     10.38     -14.00       2.00        0.00      82.85       3.07       0.04       3.58       ----

> <Gold.Chemscore.Fitness>
10.3811

> <Gold.Chemscore.DG>
-13.9957

> <Gold.Chemscore.ZeroCoef>
-5.4800

> <Gold.Chemscore.Hbond>
2.0028

> <Gold.Chemscore.Metal>
0.0000

> <Gold.Chemscore.Lipo>
82.8452

> <Gold.Chemscore.Internal_Hbond>
0.0000

> <Gold.Chemscore.DEClash>
0.0354

> <Gold.Chemscore.DEInternal>
3.5792

> <Gold.Chemscore.Rot>
3.0729

> <Gold.Chemscore.Internal.Correction>
   9.000000E+99

> <Gold.Chemscore.Hbonds>
donor molecule, donor type, donor heavy atom, donor atom, acceptor molecule, acceptor atom, score
      P1  H  6896  6907       L1    11  0.84
      P1  H  6934  6947       L1    23  0.02
      P1  H  7989  7998       L1     7  0.96
      P1  H  7997  8010       L1     3  0.30

> <Gold.Chemscore.Hbond.Weighted>
-6.6895

> <Gold.Chemscore.Metal.Weighted>
-0.0000

> <Gold.Chemscore.Lipo.Weighted>
-9.6929

> <Gold.Chemscore.Internal_Hbond.Weighted>
0.0000

> <Gold.Chemscore.DEClash.Weighted>
0.0354

> <Gold.Chemscore.DEInternal.Weighted>
3.5792

> <Gold.Chemscore.Rot.Weighted>
7.8667

> <Gold.Chemscore.Internal.Correction.Weighted>
   9.000000E+99

> <Gold.Protein.RotatedTorsions>
[ 6907 6896 6895 6894 ] final  -57.41 input  -60.11 | X-H torsion
[ 7974 7965 7964 7962 ] final    5.47 input  175.53 | X-H torsion
[ 8008 7997 7996 7995 ] final   66.03 input   59.86 | X-H torsion
[ 10167 10162 10161 10158 ] final  179.85 input  -65.29 | X-H torsion
[ 10718 10713 10712 10709 ] final -118.35 input   66.30 | X-H torsion
[ 10763 10752 10751 10750 ] final   20.53 input  -60.55 | X-H torsion
[ 11005 11000 10999 10996 ] final   91.61 input  -57.11 | X-H torsion

> <Gold.Protein.ActiveResidues>
 VAL166  LYS551  ARG553  GLY616  TRP617  ASP618  TYR619  PRO620  LYS621  CYS622 
 ASP623  PHE694  ASN695  SER759  ASP760  ASP761  ALA762  ILE779  LEU786  VAL792 
 PHE793  MET794  SER795  GLU796  ALA797  LYS798  CYS799  TRP800  GLU811  SER814 

> <Gold.Protein.RotatedAtoms>
  150.8088  134.7230  159.6668 H   0  0  0  0  0  0  0  0  0  0  0  0  # atno 6907 bound_to 6896
  152.4208  134.5955  159.9995 H   0  0  0  0  0  0  0  0  0  0  0  0  # atno 6908 bound_to 6896
  151.6171  133.3305  159.3116 H   0  0  0  0  0  0  0  0  0  0  0  0  # atno 6909 bound_to 6896
  146.2440  140.0379  142.8384 H   0  0  0  0  0  0  0  0  0  0  0  0  # atno 7974 bound_to 7965
  155.6710  140.3497  155.4818 H   0  0  0  0  0  0  0  0  0  0  0  0  # atno 8008 bound_to 7997
  155.9688  140.1151  157.0854 H   0  0  0  0  0  0  0  0  0  0  0  0  # atno 8009 bound_to 7997
  154.4161  140.1161  156.5264 H   0  0  0  0  0  0  0  0  0  0  0  0  # atno 8010 bound_to 7997
  139.5354  144.2512  152.0783 H   0  0  0  0  0  0  0  0  0  0  0  0  # atno 10167 bound_to 10162
  156.1100  130.6241  150.9280 H   0  0  0  0  0  0  0  0  0  0  0  0  # atno 10718 bound_to 10713
  153.1070  135.6687  153.9569 H   0  0  0  0  0  0  0  0  0  0  0  0  # atno 10763 bound_to 10752
  153.9123  135.3024  155.3450 H   0  0  0  0  0  0  0  0  0  0  0  0  # atno 10764 bound_to 10752
  154.7491  135.5043  153.9333 H   0  0  0  0  0  0  0  0  0  0  0  0  # atno 10765 bound_to 10752
  139.8836  134.8684  156.3454 H   0  0  0  0  0  0  0  0  0  0  0  0  # atno 11005 bound_to 11000
  145.1095  140.9396  143.4664 LP  0  0  0  0  0  0  0  0  0  0  0  0  # atno 17320 bound_to 7965
  145.0590  139.3120  143.5890 LP  0  0  0  0  0  0  0  0  0  0  0  0  # atno 17321 bound_to 7965
  140.1982  144.4685  150.6445 LP  0  0  0  0  0  0  0  0  0  0  0  0  # atno 17342 bound_to 10162
  140.6558  143.2237  151.5973 LP  0  0  0  0  0  0  0  0  0  0  0  0  # atno 17343 bound_to 10162
  157.6280  131.0924  150.8495 LP  0  0  0  0  0  0  0  0  0  0  0  0  # atno 17370 bound_to 10713
  156.8608  130.5112  149.5304 LP  0  0  0  0  0  0  0  0  0  0  0  0  # atno 17371 bound_to 10713
  140.9631  133.7376  156.0428 LP  0  0  0  0  0  0  0  0  0  0  0  0  # atno 17394 bound_to 11000
  140.7965  134.3557  157.5451 LP  0  0  0  0  0  0  0  0  0  0  0  0  # atno 17395 bound_to 11000

$$$$
