AV-unprocessed.smi:290|AV-procd|sdf|2242|dock1
  -GOLD-   2262022123D 1   1.00000     0.00000
 Structure written by MMmdl.
 59 62  0  0  0  0  0  0  0  0  2 V2000
  153.1153  142.1769  160.4365 C   0  0  0  0  0  0  0  0  0  0  0  0
  151.9376  143.0882  160.0560 C   0  0  1  0  0  0  0  0  0  0  0  0
  152.4383  144.4185  159.9533 O   0  0  0  0  0  0  0  0  0  0  0  0
  151.6687  145.1243  158.9966 C   0  0  0  0  0  0  0  0  0  0  0  0
  151.4665  144.0816  157.9079 C   0  0  0  0  0  0  0  0  0  0  0  0
  151.2334  142.7972  158.6998 C   0  0  2  0  0  0  0  0  0  0  0  0
  149.8426  142.6914  158.9530 O   0  0  0  0  0  0  0  0  0  0  0  0
  151.6838  141.5147  157.9519 C   0  0  0  0  0  0  0  0  0  0  0  0
  150.7433  141.0741  156.9324 N   0  0  0  0  0  0  0  0  0  0  0  0
  150.2794  141.8124  155.8682 C   0  0  0  0  0  0  0  0  0  0  0  0
  149.4413  141.1915  155.0846 N   0  0  0  0  0  0  0  0  0  0  0  0
  149.3267  139.9215  155.6396 C   0  0  0  0  0  0  0  0  0  0  0  0
  148.5941  138.7457  155.3023 C   0  0  0  0  0  0  0  0  0  0  0  0
  147.7820  138.6328  154.2198 N   0  0  0  0  0  0  0  0  0  0  0  0
  147.3433  139.7774  153.4469 C   0  0  0  0  0  0  0  0  0  0  0  0
  146.8362  139.1517  152.1553 C   0  0  0  0  0  0  0  0  0  0  0  0
  146.2018  137.8236  152.6099 C   0  0  1  0  0  0  0  0  0  0  0  0
  146.1809  136.7855  151.5320 N   0  3  2  0  0  0  0  0  0  0  0  0
  145.8889  137.3773  150.1996 C   0  0  0  0  0  0  0  0  0  0  0  0
  145.2988  135.6194  151.8266 C   0  0  0  0  0  0  0  0  0  0  0  0
  145.4152  134.4824  150.7938 C   0  0  0  0  0  0  0  0  0  0  0  0
  144.5318  134.7132  149.7164 O   0  0  0  0  0  0  0  0  0  0  0  0
  147.0131  137.4387  153.8803 C   0  0  2  0  0  0  0  0  0  0  0  0
  146.0827  137.0284  155.0440 C   0  0  0  0  0  0  0  0  0  0  0  0
  148.7202  137.6743  156.1283 N   0  0  0  0  0  0  0  0  0  0  0  0
  149.5212  137.7320  157.1959 C   0  0  0  0  0  0  0  0  0  0  0  0
  150.2715  138.7496  157.6207 N   0  0  0  0  0  0  0  0  0  0  0  0
  150.1373  139.8359  156.8080 C   0  0  0  0  0  0  0  0  0  0  0  0
  145.1703  138.0342  152.8999 H   0  0  0  0  0  0  0  0  0  0  0  0
  147.7183  136.6423  153.6431 H   0  0  0  0  0  0  0  0  0  0  0  0
  152.8002  141.1381  160.5352 H   0  0  0  0  0  0  0  0  0  0  0  0
  153.5410  142.4798  161.3934 H   0  0  0  0  0  0  0  0  0  0  0  0
  153.9141  142.2243  159.6960 H   0  0  0  0  0  0  0  0  0  0  0  0
  151.2124  143.0706  160.8718 H   0  0  0  0  0  0  0  0  0  0  0  0
  150.7172  145.4272  159.4362 H   0  0  0  0  0  0  0  0  0  0  0  0
  152.1867  146.0147  158.6398 H   0  0  0  0  0  0  0  0  0  0  0  0
  150.6581  144.3304  157.2190 H   0  0  0  0  0  0  0  0  0  0  0  0
  152.3860  144.0016  157.3265 H   0  0  0  0  0  0  0  0  0  0  0  0
  149.6183  141.7761  159.0231 H   0  0  0  0  0  0  0  0  0  0  0  0
  152.6418  141.6789  157.4583 H   0  0  0  0  0  0  0  0  0  0  0  0
  151.8358  140.6953  158.6556 H   0  0  0  0  0  0  0  0  0  0  0  0
  150.5820  142.8344  155.6914 H   0  0  0  0  0  0  0  0  0  0  0  0
  146.5428  140.2933  153.9789 H   0  0  0  0  0  0  0  0  0  0  0  0
  148.1520  140.4845  153.2582 H   0  0  0  0  0  0  0  0  0  0  0  0
  146.1398  139.8050  151.6287 H   0  0  0  0  0  0  0  0  0  0  0  0
  147.6836  138.9585  151.4953 H   0  0  0  0  0  0  0  0  0  0  0  0
  144.8799  137.7909  150.1710 H   0  0  0  0  0  0  0  0  0  0  0  0
  145.9772  136.6442  149.4001 H   0  0  0  0  0  0  0  0  0  0  0  0
  146.5868  138.1745  149.9463 H   0  0  0  0  0  0  0  0  0  0  0  0
  145.5464  135.1794  152.7898 H   0  0  0  0  0  0  0  0  0  0  0  0
  144.2645  135.9586  151.9010 H   0  0  0  0  0  0  0  0  0  0  0  0
  146.4306  134.4552  150.3975 H   0  0  0  0  0  0  0  0  0  0  0  0
  145.2301  133.4988  151.2227 H   0  0  0  0  0  0  0  0  0  0  0  0
  145.0315  134.7263  148.9135 H   0  0  0  0  0  0  0  0  0  0  0  0
  145.4337  136.1959  154.7768 H   0  0  0  0  0  0  0  0  0  0  0  0
  145.4382  137.8565  155.3412 H   0  0  0  0  0  0  0  0  0  0  0  0
  146.6442  136.7229  155.9259 H   0  0  0  0  0  0  0  0  0  0  0  0
  149.5693  136.8338  157.7938 H   0  0  0  0  0  0  0  0  0  0  0  0
  147.1197  136.4147  151.4868 H   0  0  0  0  0  0  0  0  0  0  0  0
  1  2  1  0  0  0  0
  1 31  1  0  0  0  0
  1 32  1  0  0  0  0
  1 33  1  0  0  0  0
  2  6  1  0  0  0  0
  2  3  1  0  0  0  0
  2 34  1  0  0  0  0
  3  4  1  0  0  0  0
  4  5  1  0  0  0  0
  4 35  1  0  0  0  0
  4 36  1  0  0  0  0
  5  6  1  0  0  0  0
  5 37  1  0  0  0  0
  5 38  1  0  0  0  0
  6  7  1  0  0  0  0
  6  8  1  0  0  0  0
  7 39  1  0  0  0  0
  8  9  1  0  0  0  0
  8 40  1  0  0  0  0
  8 41  1  0  0  0  0
  9 28  1  0  0  0  0
  9 10  1  0  0  0  0
 10 11  2  0  0  0  0
 10 42  1  0  0  0  0
 11 12  1  0  0  0  0
 12 28  2  0  0  0  0
 12 13  1  0  0  0  0
 13 14  1  0  0  0  0
 13 25  2  0  0  0  0
 14 23  1  0  0  0  0
 14 15  1  0  0  0  0
 15 16  1  0  0  0  0
 15 43  1  0  0  0  0
 15 44  1  0  0  0  0
 16 17  1  0  0  0  0
 16 45  1  0  0  0  0
 16 46  1  0  0  0  0
 17 29  1  0  0  0  0
 17 18  1  0  0  0  0
 17 23  1  0  0  0  0
 18 19  1  0  0  0  0
 18 20  1  0  0  0  0
 18 59  1  0  0  0  0
 19 47  1  0  0  0  0
 19 48  1  0  0  0  0
 19 49  1  0  0  0  0
 20 21  1  0  0  0  0
 20 50  1  0  0  0  0
 20 51  1  0  0  0  0
 21 22  1  0  0  0  0
 21 52  1  0  0  0  0
 21 53  1  0  0  0  0
 22 54  1  0  0  0  0
 23 30  1  0  0  0  0
 23 24  1  0  0  0  0
 24 55  1  0  0  0  0
 24 56  1  0  0  0  0
 24 57  1  0  0  0  0
 25 26  1  0  0  0  0
 26 27  2  0  0  0  0
 26 58  1  0  0  0  0
 27 28  1  0  0  0  0
M  CHG  1  18   1
M  END
> <s_m_source_file>
AV-unprocessed.smi

> <i_m_source_file_index>
290

> <i_lp_mmshare_version>
43012

> <i_f3d_flags>
0

> <s_epik_input>
W0NIMl0xW0NIMl1PW0NAQEhdKFtDSDNdKVtDQEBdMShbT0hdKVtDSDJdbihbY0hdbjIpYyhjMjMpbltjSF1uYzNONFtDSDJdW0NIMl1bQ0BIXShbQ0BIXTRbQ0gzXSlOKFtDSDNdKVtDSDJdW0NIMl1bT0hd

> <s_epik_cmdline>
J2VwaWtfcHl0aG9uJywgJy1waCcsICc3LjAnLCAnLXRuJywgJzgnLCAnLW1hJywgJzIwMCcsICctbWV0YWxfYmluZGluZycsICctaW1hZScsICc8aW5maWxlLm1hZT4nLCAnLW9tYWUnLCAnPG91dGZpbGUubWFlPic=

> <r_lp_tautomer_probability>
1

> <r_epik_Ionization_Penalty>
0.0036983

> <r_epik_Ionization_Penalty_Charging>
0.0032725

> <r_epik_Ionization_Penalty_Neutral>
0.000425798

> <r_epik_State_Penalty>
-0

> <r_epik_Charging_Adjusted_Penalty>
0.0032725

> <i_epik_Tot_Q>
1

> <i_epik_Tot_abs_Q>
1

> <r_epik_Metal_State_Penalty>
-0

> <b_epik_Metal_Only>
0

> <s_lp_Force_Field>
OPLS_2005

> <r_lp_Energy>
64.6527

> <b_lp_Chiralities_Consistent>
1

> <s_lp_Variant>
AV-unprocessed.smi:290-28

> <Gold.Version>
5.8.1

> <Gold.Id.Protein>
6NUR|6NUR_protein|mol2

> <Gold.PLP.Fitness>
53.7313

> <Gold.PLP.PLP>
-43.6209

> <Gold.PLP.part.hbond>
-2.5396

> <Gold.PLP.part.metal>
0.0000

> <Gold.PLP.part.buried>
2.3747

> <Gold.PLP.part.nonpolar>
-42.6482

> <Gold.PLP.part.repulsive>
0.2494

> <Gold.PLP.ligand.clash>
0.0000

> <Gold.PLP.ligand.torsion>
0.7952

> <Gold.PLP.Chemscore.Hbond>
3.0000

> <Gold.PLP.Chemscore.CHOScore>
0.6846

> <Gold.PLP.Chemscore.Metal>
0.0000

> <Gold.Chemscore.Hbonds>
donor molecule, donor type, donor heavy atom, donor atom, acceptor molecule, acceptor atom, score
      L1  H    18    59       P1  7948  2.00
      L1  H    22    54       P1  7921  1.00
      L1  C    10    42       P1  8028  0.84

> <Gold.PLP.Chemscore.Internal.Correction>
0.6468

> <Gold.Rescore>
     Score         DG    S(hbond)    S(metal)    S(lipo)     H(rot)  DE(clash)    DE(int)     intcor
     12.22     -17.26       1.98        0.00     117.33       3.35       2.05       2.98       ----

> <Gold.Chemscore.Fitness>
12.2185

> <Gold.Chemscore.DG>
-17.2558

> <Gold.Chemscore.ZeroCoef>
-5.4800

> <Gold.Chemscore.Hbond>
1.9848

> <Gold.Chemscore.Metal>
0.0000

> <Gold.Chemscore.Lipo>
117.3260

> <Gold.Chemscore.Internal_Hbond>
0.0000

> <Gold.Chemscore.DEClash>
2.0527

> <Gold.Chemscore.DEInternal>
2.9846

> <Gold.Chemscore.Rot>
3.3518

> <Gold.Chemscore.Internal.Correction>
   9.000000E+99

> <Gold.Chemscore.Hbonds>
donor molecule, donor type, donor heavy atom, donor atom, acceptor molecule, acceptor atom, score
      L1  H    18    59       P1  7948  1.00
      L1  H    22    54       P1  7921  1.00

> <Gold.Chemscore.Hbond.Weighted>
-6.6292

> <Gold.Chemscore.Metal.Weighted>
-0.0000

> <Gold.Chemscore.Lipo.Weighted>
-13.7271

> <Gold.Chemscore.Internal_Hbond.Weighted>
0.0000

> <Gold.Chemscore.DEClash.Weighted>
2.0527

> <Gold.Chemscore.DEInternal.Weighted>
2.9846

> <Gold.Chemscore.Rot.Weighted>
8.5806

> <Gold.Chemscore.Internal.Correction.Weighted>
   9.000000E+99

> <Gold.Protein.RotatedTorsions>
[ 6907 6896 6895 6894 ] final  -89.49 input  -60.11 | X-H torsion
[ 7974 7965 7964 7962 ] final -175.71 input  175.53 | X-H torsion
[ 8008 7997 7996 7995 ] final -137.74 input   59.86 | X-H torsion
[ 10167 10162 10161 10158 ] final -172.09 input  -65.29 | X-H torsion
[ 10718 10713 10712 10709 ] final   50.79 input   66.30 | X-H torsion
[ 10763 10752 10751 10750 ] final   89.12 input  -60.55 | X-H torsion
[ 11005 11000 10999 10996 ] final   72.44 input  -57.11 | X-H torsion

> <Gold.Protein.ActiveResidues>
 VAL166  LYS551  ARG553  GLY616  TRP617  ASP618  TYR619  PRO620  LYS621  CYS622 
 ASP623  PHE694  ASN695  SER759  ASP760  ASP761  ALA762  ILE779  LEU786  VAL792 
 PHE793  MET794  SER795  GLU796  ALA797  LYS798  CYS799  TRP800  GLU811  SER814 

> <Gold.Protein.RotatedAtoms>
  150.6874  134.2579  159.4536 H   0  0  0  0  0  0  0  0  0  0  0  0  # atno 6907 bound_to 6896
  152.0511  134.9650  160.0584 H   0  0  0  0  0  0  0  0  0  0  0  0  # atno 6908 bound_to 6896
  152.1114  133.4268  159.4670 H   0  0  0  0  0  0  0  0  0  0  0  0  # atno 6909 bound_to 6896
  144.7127  140.1280  143.6400 H   0  0  0  0  0  0  0  0  0  0  0  0  # atno 7974 bound_to 7965
  155.4168  140.0516  157.3028 H   0  0  0  0  0  0  0  0  0  0  0  0  # atno 8008 bound_to 7997
  154.4921  140.2124  155.9486 H   0  0  0  0  0  0  0  0  0  0  0  0  # atno 8009 bound_to 7997
  156.1356  140.3164  155.8420 H   0  0  0  0  0  0  0  0  0  0  0  0  # atno 8010 bound_to 7997
  139.5764  144.1522  152.1456 H   0  0  0  0  0  0  0  0  0  0  0  0  # atno 10167 bound_to 10162
  157.4919  130.8381  149.8212 H   0  0  0  0  0  0  0  0  0  0  0  0  # atno 10718 bound_to 10713
  153.1838  135.4482  155.0062 H   0  0  0  0  0  0  0  0  0  0  0  0  # atno 10763 bound_to 10752
  154.8047  135.3269  154.7464 H   0  0  0  0  0  0  0  0  0  0  0  0  # atno 10764 bound_to 10752
  153.7925  135.6969  153.4924 H   0  0  0  0  0  0  0  0  0  0  0  0  # atno 10765 bound_to 10752
  139.9491  134.7260  156.0907 H   0  0  0  0  0  0  0  0  0  0  0  0  # atno 11005 bound_to 11000
  145.9312  139.2608  143.1324 LP  0  0  0  0  0  0  0  0  0  0  0  0  # atno 17320 bound_to 7965
  145.9520  140.8901  143.0254 LP  0  0  0  0  0  0  0  0  0  0  0  0  # atno 17321 bound_to 7965
  140.1066  144.5493  150.6953 LP  0  0  0  0  0  0  0  0  0  0  0  0  # atno 17342 bound_to 10162
  140.7046  143.2459  151.4763 LP  0  0  0  0  0  0  0  0  0  0  0  0  # atno 17343 bound_to 10162
  156.0178  130.3807  150.2056 LP  0  0  0  0  0  0  0  0  0  0  0  0  # atno 17370 bound_to 10713
  157.0245  130.9989  151.3330 LP  0  0  0  0  0  0  0  0  0  0  0  0  # atno 17371 bound_to 10713
  141.1149  133.6631  156.3069 LP  0  0  0  0  0  0  0  0  0  0  0  0  # atno 17394 bound_to 11000
  140.5763  134.5790  157.5469 LP  0  0  0  0  0  0  0  0  0  0  0  0  # atno 17395 bound_to 11000

$$$$
