AV-unprocessed.smi:658|AV-procd|sdf|3231|dock1
  -GOLD-   22720 0173D 1   1.00000     0.00000
 Structure written by MMmdl.
 38 38  0  0  0  0  0  0  0  0  2 V2000
  146.9076  133.9556  153.7639 C   0  0  0  0  0  0  0  0  0  0  0  0
  146.0563  134.9918  153.0075 C   0  0  1  0  0  0  0  0  0  0  0  0
  146.5414  136.3473  153.3536 N   0  3  0  0  0  0  0  0  0  0  0  0
  146.8278  136.5591  154.7875 C   0  0  0  0  0  0  0  0  0  0  0  0
  146.9866  138.0513  155.1014 C   0  0  0  0  0  0  0  0  0  0  0  0
  148.3627  138.3840  155.6921 C   0  0  0  0  0  0  0  0  0  0  0  0
  149.5796  138.7255  154.3535 S   0  0  0  0  0  0  0  0  0  0  0  0
  148.6277  138.5759  152.9290 N   0  0  0  0  0  0  0  0  0  0  0  0
  150.0096  140.1278  154.4606 O   0  0  0  0  0  0  0  0  0  0  0  0
  150.5754  137.6436  154.3429 O   0  0  0  0  0  0  0  0  0  0  0  0
  146.0696  134.7833  151.4693 C   0  0  2  0  0  0  0  0  0  0  0  0
  145.5795  136.0148  150.6853 C   0  0  0  0  0  0  0  0  0  0  0  0
  145.2964  133.6112  151.0775 N   0  0  0  0  0  0  0  0  0  0  0  0
  145.7476  132.3466  150.7545 C   0  0  0  0  0  0  0  0  0  0  0  0
  144.6548  131.5903  150.4421 C   0  0  0  0  0  0  0  0  0  0  0  0
  143.5647  132.4905  150.5997 C   0  0  0  0  0  0  0  0  0  0  0  0
  143.9519  133.6983  150.9771 N   0  0  0  0  0  0  0  0  0  0  0  0
  146.5263  132.9424  153.6335 H   0  0  0  0  0  0  0  0  0  0  0  0
  146.9097  134.1583  154.8354 H   0  0  0  0  0  0  0  0  0  0  0  0
  147.9430  133.9677  153.4217 H   0  0  0  0  0  0  0  0  0  0  0  0
  145.0308  134.8787  153.3637 H   0  0  0  0  0  0  0  0  0  0  0  0
  147.3955  136.5145  152.8410 H   0  0  0  0  0  0  0  0  0  0  0  0
  146.0218  136.1378  155.3891 H   0  0  0  0  0  0  0  0  0  0  0  0
  147.7403  136.0231  155.0512 H   0  0  0  0  0  0  0  0  0  0  0  0
  146.8333  138.6343  154.1923 H   0  0  0  0  0  0  0  0  0  0  0  0
  146.2097  138.3605  155.8018 H   0  0  0  0  0  0  0  0  0  0  0  0
  148.3091  139.2636  156.3341 H   0  0  0  0  0  0  0  0  0  0  0  0
  148.7397  137.5546  156.2911 H   0  0  0  0  0  0  0  0  0  0  0  0
  148.6576  137.6407  152.5236 H   0  0  0  0  0  0  0  0  0  0  0  0
  148.7816  139.3323  152.2627 H   0  0  0  0  0  0  0  0  0  0  0  0
  147.1035  134.6024  151.1682 H   0  0  0  0  0  0  0  0  0  0  0  0
  146.2342  136.8727  150.8376 H   0  0  0  0  0  0  0  0  0  0  0  0
  144.5725  136.3066  150.9850 H   0  0  0  0  0  0  0  0  0  0  0  0
  145.5615  135.8138  149.6136 H   0  0  0  0  0  0  0  0  0  0  0  0
  146.7969  132.0918  150.7740 H   0  0  0  0  0  0  0  0  0  0  0  0
  144.6367  130.5521  150.1450 H   0  0  0  0  0  0  0  0  0  0  0  0
  142.5114  132.3038  150.4512 H   0  0  0  0  0  0  0  0  0  0  0  0
  145.8521  137.0210  153.0515 H   0  0  0  0  0  0  0  0  0  0  0  0
  1  2  1  0  0  0  0
  1 18  1  0  0  0  0
  1 19  1  0  0  0  0
  1 20  1  0  0  0  0
  2  3  1  0  0  0  0
  2 11  1  0  0  0  0
  2 21  1  0  0  0  0
  3  4  1  0  0  0  0
  3 22  1  0  0  0  0
  3 38  1  0  0  0  0
  4  5  1  0  0  0  0
  4 23  1  0  0  0  0
  4 24  1  0  0  0  0
  5  6  1  0  0  0  0
  5 25  1  0  0  0  0
  5 26  1  0  0  0  0
  6  7  1  0  0  0  0
  6 27  1  0  0  0  0
  6 28  1  0  0  0  0
  7  8  1  0  0  0  0
  7  9  2  0  0  0  0
  7 10  2  0  0  0  0
  8 29  1  0  0  0  0
  8 30  1  0  0  0  0
 11 12  1  0  0  0  0
 11 13  1  0  0  0  0
 11 31  1  0  0  0  0
 12 32  1  0  0  0  0
 12 33  1  0  0  0  0
 12 34  1  0  0  0  0
 13 17  1  0  0  0  0
 13 14  1  0  0  0  0
 14 15  2  0  0  0  0
 14 35  1  0  0  0  0
 15 16  1  0  0  0  0
 15 36  1  0  0  0  0
 16 17  2  0  0  0  0
 16 37  1  0  0  0  0
M  CHG  1   3   1
M  END
> <s_m_source_file>
AV-unprocessed.smi

> <i_m_source_file_index>
658

> <i_lp_mmshare_version>
43012

> <i_f3d_flags>
0

> <s_epik_input>
bjFbY0hdW2NIXVtjSF1uMVtDQEBIXShbQ0gzXSlbQ0BIXShbQ0gzXSlbTkhdW0NIMl1bQ0gyXVtDSDJdUyg9TykoPU8pW05IMl0=

> <s_epik_cmdline>
J2VwaWtfcHl0aG9uJywgJy1waCcsICc3LjAnLCAnLXRuJywgJzgnLCAnLW1hJywgJzIwMCcsICctbWV0YWxfYmluZGluZycsICctaW1hZScsICc8aW5maWxlLm1hZT4nLCAnLW9tYWUnLCAnPG91dGZpbGUubWFlPic=

> <r_lp_tautomer_probability>
1

> <r_epik_Ionization_Penalty>
0.00535781

> <r_epik_Ionization_Penalty_Charging>
0.00511015

> <r_epik_Ionization_Penalty_Neutral>
0.000247661

> <r_epik_State_Penalty>
-0

> <r_epik_Charging_Adjusted_Penalty>
0.00511015

> <i_epik_Tot_Q>
1

> <i_epik_Tot_abs_Q>
1

> <r_epik_Metal_State_Penalty>
0.149106

> <b_epik_Metal_Only>
0

> <s_lp_Force_Field>
OPLS_2005

> <r_lp_Energy>
8.89673

> <b_lp_Chiralities_Consistent>
1

> <s_lp_Variant>
AV-unprocessed.smi:658-2

> <Gold.Version>
5.8.1

> <Gold.Id.Protein>
6NUR|6NUR_protein|mol2

> <Gold.PLP.Fitness>
43.9089

> <Gold.PLP.PLP>
-26.1280

> <Gold.PLP.part.hbond>
-3.7950

> <Gold.PLP.part.metal>
0.0000

> <Gold.PLP.part.buried>
-5.3242

> <Gold.PLP.part.nonpolar>
-18.5828

> <Gold.PLP.part.repulsive>
0.5028

> <Gold.PLP.ligand.clash>
0.0000

> <Gold.PLP.ligand.torsion>
1.4177

> <Gold.PLP.Chemscore.Hbond>
5.0000

> <Gold.PLP.Chemscore.CHOScore>
1.7590

> <Gold.PLP.Chemscore.Metal>
0.0000

> <Gold.Chemscore.Hbonds>
donor molecule, donor type, donor heavy atom, donor atom, acceptor molecule, acceptor atom, score
      L1  H     3    22       P1  7948  2.00
      L1  H     8    29       P1  7948  1.00
      L1  H     8    30       P1  7957  1.00
      P1  H  7989  7998       L1     9  1.00
      L1  C    14    35       P1 10747  0.95
      L1  C    16    37       P1 10186  0.35
      L1  C    16    37       P1 10952  0.52

> <Gold.PLP.Chemscore.Internal.Correction>
0.3393

> <Gold.Rescore>
     Score         DG    S(hbond)    S(metal)    S(lipo)     H(rot)  DE(clash)    DE(int)     intcor
     15.17     -16.16       3.90        0.00      48.57       3.13       0.01       0.98       ----

> <Gold.Chemscore.Fitness>
15.1692

> <Gold.Chemscore.DG>
-16.1587

> <Gold.Chemscore.ZeroCoef>
-5.4800

> <Gold.Chemscore.Hbond>
3.8957

> <Gold.Chemscore.Metal>
0.0000

> <Gold.Chemscore.Lipo>
48.5714

> <Gold.Chemscore.Internal_Hbond>
0.0000

> <Gold.Chemscore.DEClash>
0.0060

> <Gold.Chemscore.DEInternal>
0.9835

> <Gold.Chemscore.Rot>
3.1312

> <Gold.Chemscore.Internal.Correction>
   9.000000E+99

> <Gold.Chemscore.Hbonds>
donor molecule, donor type, donor heavy atom, donor atom, acceptor molecule, acceptor atom, score
      L1  H     3    22       P1  7948  1.00
      L1  H     8    29       P1  7948  0.96
      L1  H     8    30       P1  7957  0.90
      P1  H  7989  7998       L1     9  0.89

> <Gold.Chemscore.Hbond.Weighted>
-13.0118

> <Gold.Chemscore.Metal.Weighted>
-0.0000

> <Gold.Chemscore.Lipo.Weighted>
-5.6829

> <Gold.Chemscore.Internal_Hbond.Weighted>
0.0000

> <Gold.Chemscore.DEClash.Weighted>
0.0060

> <Gold.Chemscore.DEInternal.Weighted>
0.9835

> <Gold.Chemscore.Rot.Weighted>
8.0160

> <Gold.Chemscore.Internal.Correction.Weighted>
   9.000000E+99

> <Gold.Protein.RotatedTorsions>
[ 6907 6896 6895 6894 ] final  -57.03 input  -60.11 | X-H torsion
[ 7974 7965 7964 7962 ] final   45.63 input  175.53 | X-H torsion
[ 8008 7997 7996 7995 ] final  164.44 input   59.86 | X-H torsion
[ 10167 10162 10161 10158 ] final   60.02 input  -65.29 | X-H torsion
[ 10718 10713 10712 10709 ] final   -6.59 input   66.30 | X-H torsion
[ 10763 10752 10751 10750 ] final  -45.28 input  -60.55 | X-H torsion
[ 11005 11000 10999 10996 ] final   97.39 input  -57.11 | X-H torsion

> <Gold.Protein.ActiveResidues>
 VAL166  LYS551  ARG553  GLY616  TRP617  ASP618  TYR619  PRO620  LYS621  CYS622 
 ASP623  PHE694  ASN695  SER759  ASP760  ASP761  ALA762  ILE779  LEU786  VAL792 
 PHE793  MET794  SER795  GLU796  ALA797  LYS798  CYS799  TRP800  GLU811  SER814 

> <Gold.Protein.RotatedAtoms>
  150.8119  134.7279  159.6695 H   0  0  0  0  0  0  0  0  0  0  0  0  # atno 6907 bound_to 6896
  152.4239  134.5902  159.9982 H   0  0  0  0  0  0  0  0  0  0  0  0  # atno 6908 bound_to 6896
  151.6109  133.3310  159.3103 H   0  0  0  0  0  0  0  0  0  0  0  0  # atno 6909 bound_to 6896
  146.0462  139.4943  142.9747 H   0  0  0  0  0  0  0  0  0  0  0  0  # atno 7974 bound_to 7965
  156.1879  140.1696  156.8149 H   0  0  0  0  0  0  0  0  0  0  0  0  # atno 8008 bound_to 7997
  154.5436  140.0731  156.8584 H   0  0  0  0  0  0  0  0  0  0  0  0  # atno 8009 bound_to 7997
  155.3165  140.3371  155.4244 H   0  0  0  0  0  0  0  0  0  0  0  0  # atno 8010 bound_to 7997
  140.1702  144.4285  150.6665 H   0  0  0  0  0  0  0  0  0  0  0  0  # atno 10167 bound_to 10162
  156.7296  130.5176  149.5848 H   0  0  0  0  0  0  0  0  0  0  0  0  # atno 10718 bound_to 10713
  154.0259  135.6663  153.4776 H   0  0  0  0  0  0  0  0  0  0  0  0  # atno 10763 bound_to 10752
  153.0560  135.5055  154.7979 H   0  0  0  0  0  0  0  0  0  0  0  0  # atno 10764 bound_to 10752
  154.6908  135.3061  154.9446 H   0  0  0  0  0  0  0  0  0  0  0  0  # atno 10765 bound_to 10752
  139.8776  134.8998  156.4300 H   0  0  0  0  0  0  0  0  0  0  0  0  # atno 11005 bound_to 11000
  145.6801  141.0193  143.1611 LP  0  0  0  0  0  0  0  0  0  0  0  0  # atno 17320 bound_to 7965
  144.7099  139.8411  143.7418 LP  0  0  0  0  0  0  0  0  0  0  0  0  # atno 17321 bound_to 7965
  140.6587  143.2245  151.5907 LP  0  0  0  0  0  0  0  0  0  0  0  0  # atno 17342 bound_to 10162
  139.5341  144.2830  152.1214 LP  0  0  0  0  0  0  0  0  0  0  0  0  # atno 17343 bound_to 10162
  156.1538  130.6328  151.0630 LP  0  0  0  0  0  0  0  0  0  0  0  0  # atno 17370 bound_to 10713
  157.6864  131.0823  150.7230 LP  0  0  0  0  0  0  0  0  0  0  0  0  # atno 17371 bound_to 10713
  140.9073  133.7737  155.9750 LP  0  0  0  0  0  0  0  0  0  0  0  0  # atno 17394 bound_to 11000
  140.8585  134.2869  157.5245 LP  0  0  0  0  0  0  0  0  0  0  0  0  # atno 17395 bound_to 11000

$$$$
