AV-unprocessed.smi:2908|AV-procd|sdf|11169|dock4
  -GOLD-   2272016 63D 1   1.00000     0.00000
 Structure written by MMmdl.
 44 45  0  0  0  0  0  0  0  0  2 V2000
  147.9334  139.2017  155.9307 O   0  0  0  0  0  0  0  0  0  0  0  0
  148.7372  138.9620  156.8333 C   0  0  0  0  0  0  0  0  0  0  0  0
  149.5875  139.8941  157.2987 N   0  0  0  0  0  0  0  0  0  0  0  0
  149.6727  141.2799  156.8429 C   0  0  0  0  0  0  0  0  0  0  0  0
  151.1277  141.7558  156.6624 C   0  0  0  0  0  0  0  0  0  0  0  0
  151.5519  142.8191  157.6599 C   0  0  0  0  0  0  0  0  0  0  0  0
  152.5898  142.6050  158.5934 C   0  0  0  0  0  0  0  0  0  0  0  0
  152.9507  143.6469  159.4725 C   0  0  0  0  0  0  0  0  0  0  0  0
  152.2662  144.8779  159.4023 C   0  0  0  0  0  0  0  0  0  0  0  0
  151.2357  145.0358  158.4535 C   0  0  0  0  0  0  0  0  0  0  0  0
  150.9187  144.0140  157.6287 N   0  3  0  0  0  0  0  0  0  0  0  0
  148.8821  137.7343  157.3916 N   0  0  0  0  0  0  0  0  0  0  0  0
  149.6771  137.4107  158.5858 C   0  0  0  0  0  0  0  0  0  0  0  0
  148.7196  137.2014  159.7716 C   0  0  0  0  0  0  0  0  0  0  0  0
  147.6750  136.0911  159.4859 C   0  0  0  0  0  0  0  0  0  0  0  0
  146.6591  135.9567  160.6531 C   0  0  2  0  0  0  0  0  0  0  0  0
  146.2309  137.2536  161.0267 O   0  0  0  0  0  0  0  0  0  0  0  0
  147.1888  135.2604  161.9286 C   0  0  0  0  0  0  0  0  0  0  0  0
  146.1758  135.0169  162.7617 F   0  0  0  0  0  0  0  0  0  0  0  0
  147.7386  134.0840  161.6294 F   0  0  0  0  0  0  0  0  0  0  0  0
  148.0952  136.0179  162.5471 F   0  0  0  0  0  0  0  0  0  0  0  0
  147.0035  136.3390  158.1123 C   0  0  0  0  0  0  0  0  0  0  0  0
  148.0394  136.5994  157.0033 C   0  0  0  0  0  0  0  0  0  0  0  0
  150.2267  139.6184  158.0303 H   0  0  0  0  0  0  0  0  0  0  0  0
  149.1133  141.4138  155.9155 H   0  0  0  0  0  0  0  0  0  0  0  0
  149.1777  141.9060  157.5855 H   0  0  0  0  0  0  0  0  0  0  0  0
  151.8033  140.9044  156.7515 H   0  0  0  0  0  0  0  0  0  0  0  0
  151.2632  142.1431  155.6518 H   0  0  0  0  0  0  0  0  0  0  0  0
  153.1105  141.6593  158.6297 H   0  0  0  0  0  0  0  0  0  0  0  0
  153.7453  143.5048  160.1903 H   0  0  0  0  0  0  0  0  0  0  0  0
  152.5293  145.6895  160.0648 H   0  0  0  0  0  0  0  0  0  0  0  0
  150.6625  145.9426  158.3275 H   0  0  0  0  0  0  0  0  0  0  0  0
  150.2472  136.4989  158.4031 H   0  0  0  0  0  0  0  0  0  0  0  0
  150.4189  138.1669  158.8420 H   0  0  0  0  0  0  0  0  0  0  0  0
  149.3031  136.9549  160.6587 H   0  0  0  0  0  0  0  0  0  0  0  0
  148.2093  138.1401  159.9913 H   0  0  0  0  0  0  0  0  0  0  0  0
  148.2192  135.1486  159.4071 H   0  0  0  0  0  0  0  0  0  0  0  0
  145.7792  135.4152  160.3032 H   0  0  0  0  0  0  0  0  0  0  0  0
  145.9025  137.2157  161.9122 H   0  0  0  0  0  0  0  0  0  0  0  0
  146.4041  135.4770  157.8225 H   0  0  0  0  0  0  0  0  0  0  0  0
  146.3219  137.1882  158.1801 H   0  0  0  0  0  0  0  0  0  0  0  0
  147.5344  136.7589  156.0496 H   0  0  0  0  0  0  0  0  0  0  0  0
  148.6639  135.7164  156.8594 H   0  0  0  0  0  0  0  0  0  0  0  0
  150.1751  144.1538  156.9441 H   0  0  0  0  0  0  0  0  0  0  0  0
  1  2  2  0  0  0  0
  2  3  1  0  0  0  0
  2 12  1  0  0  0  0
  3  4  1  0  0  0  0
  3 24  1  0  0  0  0
  4  5  1  0  0  0  0
  4 25  1  0  0  0  0
  4 26  1  0  0  0  0
  5  6  1  0  0  0  0
  5 27  1  0  0  0  0
  5 28  1  0  0  0  0
  6 11  1  0  0  0  0
  6  7  2  0  0  0  0
  7  8  1  0  0  0  0
  7 29  1  0  0  0  0
  8  9  2  0  0  0  0
  8 30  1  0  0  0  0
  9 10  1  0  0  0  0
  9 31  1  0  0  0  0
 10 11  2  0  0  0  0
 10 32  1  0  0  0  0
 11 44  1  0  0  0  0
 12 23  1  0  0  0  0
 12 13  1  0  0  0  0
 13 14  1  0  0  0  0
 13 33  1  0  0  0  0
 13 34  1  0  0  0  0
 14 15  1  0  0  0  0
 14 35  1  0  0  0  0
 14 36  1  0  0  0  0
 15 16  1  0  0  0  0
 15 22  1  0  0  0  0
 15 37  1  0  0  0  0
 16 17  1  0  0  0  0
 16 18  1  0  0  0  0
 16 38  1  0  0  0  0
 17 39  1  0  0  0  0
 18 19  1  0  0  0  0
 18 20  1  0  0  0  0
 18 21  1  0  0  0  0
 22 23  1  0  0  0  0
 22 40  1  0  0  0  0
 22 41  1  0  0  0  0
 23 42  1  0  0  0  0
 23 43  1  0  0  0  0
M  CHG  1  11   1
M  END
> <s_m_source_file>
AV-unprocessed.smi

> <i_m_source_file_index>
2908

> <i_lp_mmshare_version>
43012

> <i_f3d_flags>
0

> <s_epik_input>
RkMoRikoRilbQ0BASF0oW09IXSlbQ0hdKFtDSDJdW0NIMl0xKVtDSDJdW0NIMl1OMUMoPU8pW05IXVtDSDJdW0NIMl1jMltjSF1bY0hdW2NIXVtjSF1uMg==

> <s_epik_cmdline>
J2VwaWtfcHl0aG9uJywgJy1waCcsICc3LjAnLCAnLXRuJywgJzgnLCAnLW1hJywgJzIwMCcsICctbWV0YWxfYmluZGluZycsICctaW1hZScsICc8aW5maWxlLm1hZT4nLCAnLW9tYWUnLCAnPG91dGZpbGUubWFlPic=

> <r_epik_Ionization_Penalty>
1.55054

> <r_epik_Ionization_Penalty_Charging>
1.55036

> <r_epik_Ionization_Penalty_Neutral>
0.00017404

> <r_epik_State_Penalty>
1.64453

> <r_epik_Charging_Adjusted_Penalty>
3.19489

> <i_epik_Tot_Q>
1

> <i_epik_Tot_abs_Q>
1

> <r_epik_Metal_State_Penalty>
1.68672

> <b_epik_Metal_Only>
0

> <s_lp_Force_Field>
OPLS_2005

> <r_lp_Energy>
42.7125

> <b_lp_Chiralities_Consistent>
1

> <s_lp_Variant>
AV-unprocessed.smi:2908-3

> <Gold.Version>
5.8.1

> <Gold.Id.Protein>
6NUR|6NUR_protein|mol2

> <Gold.PLP.Fitness>
48.3073

> <Gold.PLP.PLP>
-40.7793

> <Gold.PLP.part.hbond>
-1.9306

> <Gold.PLP.part.metal>
0.0000

> <Gold.PLP.part.buried>
-4.1210

> <Gold.PLP.part.nonpolar>
-34.2359

> <Gold.PLP.part.repulsive>
0.1010

> <Gold.PLP.ligand.clash>
0.0000

> <Gold.PLP.ligand.torsion>
0.8908

> <Gold.PLP.Chemscore.Hbond>
2.9263

> <Gold.PLP.Chemscore.CHOScore>
0.0000

> <Gold.PLP.Chemscore.Metal>
0.0000

> <Gold.Chemscore.Hbonds>
donor molecule, donor type, donor heavy atom, donor atom, acceptor molecule, acceptor atom, score
      L1  H    11    44       P1  8028  2.00
      P1  H  6934  6947       L1    17  1.00

> <Gold.PLP.Chemscore.Internal.Correction>
0.5309

> <Gold.Rescore>
     Score         DG    S(hbond)    S(metal)    S(lipo)     H(rot)  DE(clash)    DE(int)     intcor
     14.99     -16.52       1.61        0.00     101.04       2.40       0.49       1.04       ----

> <Gold.Chemscore.Fitness>
14.9940

> <Gold.Chemscore.DG>
-16.5210

> <Gold.Chemscore.ZeroCoef>
-5.4800

> <Gold.Chemscore.Hbond>
1.6077

> <Gold.Chemscore.Metal>
0.0000

> <Gold.Chemscore.Lipo>
101.0438

> <Gold.Chemscore.Internal_Hbond>
0.0000

> <Gold.Chemscore.DEClash>
0.4886

> <Gold.Chemscore.DEInternal>
1.0384

> <Gold.Chemscore.Rot>
2.4026

> <Gold.Chemscore.Internal.Correction>
   9.000000E+99

> <Gold.Chemscore.Hbonds>
donor molecule, donor type, donor heavy atom, donor atom, acceptor molecule, acceptor atom, score
      L1  H    11    44       P1  8028  0.94
      P1  H  6934  6947       L1    17  0.43

> <Gold.Chemscore.Hbond.Weighted>
-5.3697

> <Gold.Chemscore.Metal.Weighted>
-0.0000

> <Gold.Chemscore.Lipo.Weighted>
-11.8221

> <Gold.Chemscore.Internal_Hbond.Weighted>
0.0000

> <Gold.Chemscore.DEClash.Weighted>
0.4886

> <Gold.Chemscore.DEInternal.Weighted>
1.0384

> <Gold.Chemscore.Rot.Weighted>
6.1508

> <Gold.Chemscore.Internal.Correction.Weighted>
   9.000000E+99

> <Gold.Protein.RotatedTorsions>
[ 6907 6896 6895 6894 ] final  -15.80 input  -60.11 | X-H torsion
[ 7974 7965 7964 7962 ] final  143.59 input  175.53 | X-H torsion
[ 8008 7997 7996 7995 ] final  -93.34 input   59.86 | X-H torsion
[ 10167 10162 10161 10158 ] final   -5.93 input  -65.29 | X-H torsion
[ 10718 10713 10712 10709 ] final   -8.12 input   66.30 | X-H torsion
[ 10763 10752 10751 10750 ] final   43.80 input  -60.55 | X-H torsion
[ 11005 11000 10999 10996 ] final -172.61 input  -57.11 | X-H torsion

> <Gold.Protein.ActiveResidues>
 VAL166  LYS551  ARG553  GLY616  TRP617  ASP618  TYR619  PRO620  LYS621  CYS622 
 ASP623  PHE694  ASN695  SER759  ASP760  ASP761  ALA762  ILE779  LEU786  VAL792 
 PHE793  MET794  SER795  GLU796  ALA797  LYS798  CYS799  TRP800  GLU811  SER814 

> <Gold.Protein.RotatedAtoms>
  151.3184  135.0812  159.9296 H   0  0  0  0  0  0  0  0  0  0  0  0  # atno 6907 bound_to 6896
  152.5262  133.9664  159.7752 H   0  0  0  0  0  0  0  0  0  0  0  0  # atno 6908 bound_to 6896
  150.9980  133.6031  159.2729 H   0  0  0  0  0  0  0  0  0  0  0  0  # atno 6909 bound_to 6896
  144.8908  139.5561  143.5799 H   0  0  0  0  0  0  0  0  0  0  0  0  # atno 7974 bound_to 7965
  154.7344  140.0500  157.0756 H   0  0  0  0  0  0  0  0  0  0  0  0  # atno 8008 bound_to 7997
  155.0259  140.3152  155.4757 H   0  0  0  0  0  0  0  0  0  0  0  0  # atno 8009 bound_to 7997
  156.2849  140.2158  156.5379 H   0  0  0  0  0  0  0  0  0  0  0  0  # atno 8010 bound_to 7997
  140.6980  143.6251  150.8575 H   0  0  0  0  0  0  0  0  0  0  0  0  # atno 10167 bound_to 10162
  156.7072  130.5111  149.5901 H   0  0  0  0  0  0  0  0  0  0  0  0  # atno 10718 bound_to 10713
  152.9853  135.6090  154.3171 H   0  0  0  0  0  0  0  0  0  0  0  0  # atno 10763 bound_to 10752
  154.2882  135.2775  155.2668 H   0  0  0  0  0  0  0  0  0  0  0  0  # atno 10764 bound_to 10752
  154.4976  135.5875  153.6562 H   0  0  0  0  0  0  0  0  0  0  0  0  # atno 10765 bound_to 10752
  140.4950  134.5948  157.4968 H   0  0  0  0  0  0  0  0  0  0  0  0  # atno 11005 bound_to 11000
  146.3052  139.7557  142.9061 LP  0  0  0  0  0  0  0  0  0  0  0  0  # atno 17320 bound_to 7965
  145.3787  141.0355  143.3190 LP  0  0  0  0  0  0  0  0  0  0  0  0  # atno 17321 bound_to 7965
  139.9971  143.5784  152.2889 LP  0  0  0  0  0  0  0  0  0  0  0  0  # atno 17342 bound_to 10162
  139.6460  144.7658  151.2243 LP  0  0  0  0  0  0  0  0  0  0  0  0  # atno 17343 bound_to 10162
  156.1686  130.6422  151.0810 LP  0  0  0  0  0  0  0  0  0  0  0  0  # atno 17370 bound_to 10713
  157.6950  131.0797  150.6995 LP  0  0  0  0  0  0  0  0  0  0  0  0  # atno 17371 bound_to 10713
  139.9747  134.7236  155.9974 LP  0  0  0  0  0  0  0  0  0  0  0  0  # atno 17394 bound_to 11000
  141.1465  133.6555  156.3882 LP  0  0  0  0  0  0  0  0  0  0  0  0  # atno 17395 bound_to 11000

$$$$
