AV-unprocessed.smi:1047|AV-procd|sdf|4602|dock1
  -GOLD-   22720 3 93D 1   1.00000     0.00000
 Structure written by MMmdl.
 57 59  0  0  0  0  0  0  0  0  3 V2000
  147.7145  132.2471  161.1552 C   0  0  0  0  0  0  0  0  0  0  0  0
  147.3634  133.4072  162.0971 C   0  0  0  0  0  0  0  0  0  0  0  0
  146.5135  134.4337  161.4374 N   0  3  1  0  0  0  0  0  0  0  0  0
  146.0334  135.5134  162.3372 C   0  0  0  0  0  0  0  0  0  0  0  0
  147.1351  136.5563  162.6048 C   0  0  0  0  0  0  0  0  0  0  0  0
  147.6282  137.0598  161.3695 O   0  0  0  0  0  0  0  0  0  0  0  0
  148.2162  136.0442  160.5621 C   0  0  2  0  0  0  0  0  0  0  0  0
  148.7884  136.7110  159.3029 C   0  0  0  0  0  0  0  0  0  0  0  0
  149.9114  137.5814  159.6351 N   0  0  0  0  0  0  0  0  0  0  0  0
  150.2830  138.4882  158.5536 C   0  0  0  0  0  0  0  0  0  0  0  0
  151.7915  138.4219  158.2597 C   0  0  1  0  0  0  0  0  0  0  0  0
  152.1496  137.0717  158.0398 O   0  0  0  0  0  0  0  0  0  0  0  0
  152.1635  139.2553  157.0182 C   0  0  0  0  0  0  0  0  0  0  0  0
  151.5648  140.5980  157.0315 N   0  0  0  0  0  0  0  0  0  0  0  0
  150.7372  141.1845  156.1245 C   0  0  0  0  0  0  0  0  0  0  0  0
  150.4583  142.4393  156.5729 N   0  3  0  0  0  0  0  0  0  0  0  0
  151.1156  142.6574  157.7853 C   0  0  0  0  0  0  0  0  0  0  0  0
  151.1408  143.7699  158.6177 C   0  0  0  0  0  0  0  0  0  0  0  0
  151.9118  143.6749  159.7981 C   0  0  0  0  0  0  0  0  0  0  0  0
  151.9623  144.8745  160.7291 C   0  0  0  0  0  0  0  0  0  0  0  0
  152.6235  142.4880  160.1113 C   0  0  0  0  0  0  0  0  0  0  0  0
  153.4432  142.3941  161.3869 C   0  0  0  0  0  0  0  0  0  0  0  0
  152.5870  141.3680  159.2499 C   0  0  0  0  0  0  0  0  0  0  0  0
  151.8252  141.4788  158.0886 C   0  0  0  0  0  0  0  0  0  0  0  0
  147.1226  135.0121  160.2140 C   0  0  0  0  0  0  0  0  0  0  0  0
  148.4121  131.5612  161.6367 H   0  0  0  0  0  0  0  0  0  0  0  0
  148.1875  132.6106  160.2424 H   0  0  0  0  0  0  0  0  0  0  0  0
  146.8363  131.6676  160.8722 H   0  0  0  0  0  0  0  0  0  0  0  0
  146.8889  133.0313  163.0034 H   0  0  0  0  0  0  0  0  0  0  0  0
  148.2998  133.8694  162.4118 H   0  0  0  0  0  0  0  0  0  0  0  0
  145.1888  136.0054  161.8531 H   0  0  0  0  0  0  0  0  0  0  0  0
  145.6510  135.1090  163.2736 H   0  0  0  0  0  0  0  0  0  0  0  0
  146.7288  137.3866  163.1825 H   0  0  0  0  0  0  0  0  0  0  0  0
  147.9511  136.1356  163.1934 H   0  0  0  0  0  0  0  0  0  0  0  0
  149.0260  135.5552  161.1071 H   0  0  0  0  0  0  0  0  0  0  0  0
  149.1244  135.9422  158.6061 H   0  0  0  0  0  0  0  0  0  0  0  0
  148.0049  137.2736  158.7933 H   0  0  0  0  0  0  0  0  0  0  0  0
  149.6952  138.1157  160.4708 H   0  0  0  0  0  0  0  0  0  0  0  0
  149.7045  138.2788  157.6526 H   0  0  0  0  0  0  0  0  0  0  0  0
  150.0287  139.5066  158.8506 H   0  0  0  0  0  0  0  0  0  0  0  0
  152.3559  138.7982  159.1143 H   0  0  0  0  0  0  0  0  0  0  0  0
  152.8776  137.0477  157.4380 H   0  0  0  0  0  0  0  0  0  0  0  0
  153.2442  139.3380  156.9023 H   0  0  0  0  0  0  0  0  0  0  0  0
  151.7996  138.7572  156.1187 H   0  0  0  0  0  0  0  0  0  0  0  0
  150.3697  140.7358  155.2128 H   0  0  0  0  0  0  0  0  0  0  0  0
  150.5944  144.6693  158.3738 H   0  0  0  0  0  0  0  0  0  0  0  0
  152.9894  145.2172  160.8580 H   0  0  0  0  0  0  0  0  0  0  0  0
  151.5571  144.6168  161.7081 H   0  0  0  0  0  0  0  0  0  0  0  0
  151.3800  145.7088  160.3365 H   0  0  0  0  0  0  0  0  0  0  0  0
  153.9205  141.4184  161.4838 H   0  0  0  0  0  0  0  0  0  0  0  0
  152.8084  142.5419  162.2609 H   0  0  0  0  0  0  0  0  0  0  0  0
  154.2275  143.1513  161.3955 H   0  0  0  0  0  0  0  0  0  0  0  0
  153.1271  140.4652  159.4924 H   0  0  0  0  0  0  0  0  0  0  0  0
  147.5208  134.2212  159.5772 H   0  0  0  0  0  0  0  0  0  0  0  0
  146.3341  135.4984  159.6377 H   0  0  0  0  0  0  0  0  0  0  0  0
  145.6936  133.9331  161.1252 H   0  0  0  0  0  0  0  0  0  0  0  0
  149.8621  143.0961  156.0856 H   0  0  0  0  0  0  0  0  0  0  0  0
  1  2  1  0  0  0  0
  1 26  1  0  0  0  0
  1 27  1  0  0  0  0
  1 28  1  0  0  0  0
  2  3  1  0  0  0  0
  2 29  1  0  0  0  0
  2 30  1  0  0  0  0
  3 25  1  0  0  0  0
  3  4  1  0  0  0  0
  3 56  1  0  0  0  0
  4  5  1  0  0  0  0
  4 31  1  0  0  0  0
  4 32  1  0  0  0  0
  5  6  1  0  0  0  0
  5 33  1  0  0  0  0
  5 34  1  0  0  0  0
  6  7  1  0  0  0  0
  7  8  1  0  0  0  0
  7 25  1  0  0  0  0
  7 35  1  0  0  0  0
  8  9  1  0  0  0  0
  8 36  1  0  0  0  0
  8 37  1  0  0  0  0
  9 10  1  0  0  0  0
  9 38  1  0  0  0  0
 10 11  1  0  0  0  0
 10 39  1  0  0  0  0
 10 40  1  0  0  0  0
 11 12  1  0  0  0  0
 11 13  1  0  0  0  0
 11 41  1  0  0  0  0
 12 42  1  0  0  0  0
 13 14  1  0  0  0  0
 13 43  1  0  0  0  0
 13 44  1  0  0  0  0
 14 24  1  0  0  0  0
 14 15  1  0  0  0  0
 15 16  2  0  0  0  0
 15 45  1  0  0  0  0
 16 17  1  0  0  0  0
 16 57  1  0  0  0  0
 17 24  2  0  0  0  0
 17 18  1  0  0  0  0
 18 19  2  0  0  0  0
 18 46  1  0  0  0  0
 19 20  1  0  0  0  0
 19 21  1  0  0  0  0
 20 47  1  0  0  0  0
 20 48  1  0  0  0  0
 20 49  1  0  0  0  0
 21 22  1  0  0  0  0
 21 23  2  0  0  0  0
 22 50  1  0  0  0  0
 22 51  1  0  0  0  0
 22 52  1  0  0  0  0
 23 24  1  0  0  0  0
 23 53  1  0  0  0  0
 25 54  1  0  0  0  0
 25 55  1  0  0  0  0
M  CHG  1   3   1
M  CHG  1  16   1
M  END
> <s_m_source_file>
AV-unprocessed.smi

> <i_m_source_file_index>
1047

> <i_lp_mmshare_version>
43012

> <i_f3d_flags>
0

> <s_epik_input>
W0NIM11bQ0gyXU4xW0NIMl1bQ0gyXU9bQ0BIXShbQ0gyXTEpW0NIMl1bTkhdW0NIMl1bQ0BIXShbT0hdKVtDSDJdbihbY0hdbjIpYyhjMjMpW2NIXWMoW0NIM10pYyhbY0hdMylbQ0gzXQ==

> <s_epik_cmdline>
J2VwaWtfcHl0aG9uJywgJy1waCcsICc3LjAnLCAnLXRuJywgJzgnLCAnLW1hJywgJzIwMCcsICctbWV0YWxfYmluZGluZycsICctaW1hZScsICc8aW5maWxlLm1hZT4nLCAnLW9tYWUnLCAnPG91dGZpbGUubWFlPic=

> <r_epik_Ionization_Penalty>
2.03028

> <r_epik_Ionization_Penalty_Charging>
1.21256

> <r_epik_Ionization_Penalty_Neutral>
0.817715

> <r_epik_State_Penalty>
2.54959

> <r_epik_Charging_Adjusted_Penalty>
3.76215

> <i_epik_Tot_Q>
2

> <i_epik_Tot_abs_Q>
2

> <r_epik_Metal_State_Penalty>
6.52811

> <b_epik_Metal_Only>
0

> <s_lp_Force_Field>
OPLS_2005

> <r_lp_Energy>
36.7228

> <b_lp_Chiralities_Consistent>
1

> <s_lp_Variant>
AV-unprocessed.smi:1047-43

> <Gold.Version>
5.8.1

> <Gold.Id.Protein>
6NUR|6NUR_protein|mol2

> <Gold.PLP.Fitness>
66.2997

> <Gold.PLP.PLP>
-55.8062

> <Gold.PLP.part.hbond>
-4.0000

> <Gold.PLP.part.metal>
0.0000

> <Gold.PLP.part.buried>
-8.1097

> <Gold.PLP.part.nonpolar>
-44.7801

> <Gold.PLP.part.repulsive>
0.1151

> <Gold.PLP.ligand.clash>
0.0000

> <Gold.PLP.ligand.torsion>
0.5443

> <Gold.PLP.Chemscore.Hbond>
3.8080

> <Gold.PLP.Chemscore.CHOScore>
0.0000

> <Gold.PLP.Chemscore.Metal>
0.0000

> <Gold.Chemscore.Hbonds>
donor molecule, donor type, donor heavy atom, donor atom, acceptor molecule, acceptor atom, score
      L1  H    16    57       P1  8028  2.00
      P1  H  6931  6943       L1     6  1.00
      P1  H  6934  6947       L1     6  0.81

> <Gold.PLP.Chemscore.Internal.Correction>
0.1582

> <Gold.Rescore>
     Score         DG    S(hbond)    S(metal)    S(lipo)     H(rot)  DE(clash)    DE(int)     intcor
     22.00     -22.59       2.08        0.00     146.03       2.71       0.12       0.47       ----

> <Gold.Chemscore.Fitness>
21.9990

> <Gold.Chemscore.DG>
-22.5854

> <Gold.Chemscore.ZeroCoef>
-5.4800

> <Gold.Chemscore.Hbond>
2.0824

> <Gold.Chemscore.Metal>
0.0000

> <Gold.Chemscore.Lipo>
146.0258

> <Gold.Chemscore.Internal_Hbond>
0.0000

> <Gold.Chemscore.DEClash>
0.1153

> <Gold.Chemscore.DEInternal>
0.4712

> <Gold.Chemscore.Rot>
2.7088

> <Gold.Chemscore.Internal.Correction>
   9.000000E+99

> <Gold.Chemscore.Hbonds>
donor molecule, donor type, donor heavy atom, donor atom, acceptor molecule, acceptor atom, score
      L1  H    16    57       P1  8028  0.99
      P1  H  6931  6943       L1     6  0.25
      P1  H  6934  6947       L1     6  0.71

> <Gold.Chemscore.Hbond.Weighted>
-6.9551

> <Gold.Chemscore.Metal.Weighted>
-0.0000

> <Gold.Chemscore.Lipo.Weighted>
-17.0850

> <Gold.Chemscore.Internal_Hbond.Weighted>
0.0000

> <Gold.Chemscore.DEClash.Weighted>
0.1153

> <Gold.Chemscore.DEInternal.Weighted>
0.4712

> <Gold.Chemscore.Rot.Weighted>
6.9346

> <Gold.Chemscore.Internal.Correction.Weighted>
   9.000000E+99

> <Gold.Protein.RotatedTorsions>
[ 6907 6896 6895 6894 ] final  -91.66 input  -60.11 | X-H torsion
[ 7974 7965 7964 7962 ] final  166.26 input  175.53 | X-H torsion
[ 8008 7997 7996 7995 ] final  102.60 input   59.86 | X-H torsion
[ 10167 10162 10161 10158 ] final -103.34 input  -65.29 | X-H torsion
[ 10718 10713 10712 10709 ] final -165.49 input   66.30 | X-H torsion
[ 10763 10752 10751 10750 ] final  -97.23 input  -60.55 | X-H torsion
[ 11005 11000 10999 10996 ] final  -46.49 input  -57.11 | X-H torsion

> <Gold.Protein.ActiveResidues>
 VAL166  LYS551  ARG553  GLY616  TRP617  ASP618  TYR619  PRO620  LYS621  CYS622 
 ASP623  PHE694  ASN695  SER759  ASP760  ASP761  ALA762  ILE779  LEU786  VAL792 
 PHE793  MET794  SER795  GLU796  ALA797  LYS798  CYS799  TRP800  GLU811  SER814 

> <Gold.Protein.RotatedAtoms>
  150.6895  134.2243  159.4408 H   0  0  0  0  0  0  0  0  0  0  0  0  # atno 6907 bound_to 6896
  152.0197  134.9827  160.0579 H   0  0  0  0  0  0  0  0  0  0  0  0  # atno 6908 bound_to 6896
  152.1409  133.4428  159.4803 H   0  0  0  0  0  0  0  0  0  0  0  0  # atno 6909 bound_to 6896
  144.7469  139.8590  143.6379 H   0  0  0  0  0  0  0  0  0  0  0  0  # atno 7974 bound_to 7965
  156.1407  140.3178  155.8492 H   0  0  0  0  0  0  0  0  0  0  0  0  # atno 8008 bound_to 7997
  155.4159  140.0509  157.3046 H   0  0  0  0  0  0  0  0  0  0  0  0  # atno 8009 bound_to 7997
  154.4974  140.2116  155.9430 H   0  0  0  0  0  0  0  0  0  0  0  0  # atno 8010 bound_to 7997
  140.2210  143.3676  152.0969 H   0  0  0  0  0  0  0  0  0  0  0  0  # atno 10167 bound_to 10162
  156.6542  130.9020  151.3018 H   0  0  0  0  0  0  0  0  0  0  0  0  # atno 10718 bound_to 10713
  154.7309  135.5054  153.8963 H   0  0  0  0  0  0  0  0  0  0  0  0  # atno 10763 bound_to 10752
  153.0949  135.6669  153.9791 H   0  0  0  0  0  0  0  0  0  0  0  0  # atno 10764 bound_to 10752
  153.9592  135.3049  155.3414 H   0  0  0  0  0  0  0  0  0  0  0  0  # atno 10765 bound_to 10752
  141.0582  133.6718  156.3162 H   0  0  0  0  0  0  0  0  0  0  0  0  # atno 11005 bound_to 11000
  146.1362  139.4408  143.0137 LP  0  0  0  0  0  0  0  0  0  0  0  0  # atno 17320 bound_to 7965
  145.7088  141.0113  143.1464 LP  0  0  0  0  0  0  0  0  0  0  0  0  # atno 17321 bound_to 7965
  139.5144  144.6947  151.5662 LP  0  0  0  0  0  0  0  0  0  0  0  0  # atno 17342 bound_to 10162
  140.6255  143.9177  150.6561 LP  0  0  0  0  0  0  0  0  0  0  0  0  # atno 17343 bound_to 10162
  157.7131  130.9464  150.1158 LP  0  0  0  0  0  0  0  0  0  0  0  0  # atno 17370 bound_to 10713
  156.2061  130.3663  149.8728 LP  0  0  0  0  0  0  0  0  0  0  0  0  # atno 17371 bound_to 10713
  140.5922  134.5639  157.5502 LP  0  0  0  0  0  0  0  0  0  0  0  0  # atno 17394 bound_to 11000
  139.9409  134.7789  156.0682 LP  0  0  0  0  0  0  0  0  0  0  0  0  # atno 17395 bound_to 11000

$$$$
