AV-unprocessed.smi:283|AV-procd|sdf|2125|dock9
  -GOLD-   2262021433D 1   1.00000     0.00000
 Structure written by MMmdl.
 48 51  0  0  0  0  0  0  0  0  1 V2000
  154.8900  141.0293  159.5079 C   0  0  0  0  0  0  0  0  0  0  0  0
  153.5397  140.8816  160.2328 C   0  0  2  0  0  0  0  0  0  0  0  0
  152.6748  139.9200  159.5495 N   0  0  0  0  0  0  0  0  0  0  0  0
  152.1844  140.1578  158.3125 C   0  0  0  0  0  0  0  0  0  0  0  0
  152.9254  139.9173  157.1995 N   0  0  0  0  0  0  0  0  0  0  0  0
  152.4142  140.1631  155.9898 C   0  0  0  0  0  0  0  0  0  0  0  0
  151.2080  140.6403  155.6753 N   0  0  0  0  0  0  0  0  0  0  0  0
  150.4562  140.8784  156.7891 C   0  0  0  0  0  0  0  0  0  0  0  0
  150.8700  140.6614  158.1332 C   0  0  0  0  0  0  0  0  0  0  0  0
  149.8459  141.0114  159.0035 N   0  0  0  0  0  0  0  0  0  0  0  0
  148.8851  141.4127  158.2150 C   0  0  0  0  0  0  0  0  0  0  0  0
  149.1694  141.3719  156.8679 N   0  0  0  0  0  0  0  0  0  0  0  0
  148.2778  141.7735  155.7378 C   0  0  2  0  0  0  0  0  0  0  0  0
  147.0162  142.0609  156.2582 O   0  0  0  0  0  0  0  0  0  0  0  0
  146.0134  141.5279  155.4004 C   0  0  2  0  0  0  0  0  0  0  0  0
  144.7147  141.3077  156.1914 C   0  0  0  0  0  0  0  0  0  0  0  0
  143.7548  142.2768  155.8281 O   0  0  0  0  0  0  0  0  0  0  0  0
  146.6597  140.2304  154.9127 C   0  0  1  0  0  0  0  0  0  0  0  0
  146.0596  139.7171  153.7370 O   0  0  0  0  0  0  0  0  0  0  0  0
  148.1230  140.6258  154.7264 C   0  0  1  0  0  0  0  0  0  0  0  0
  148.3931  141.0782  153.4117 O   0  0  0  0  0  0  0  0  0  0  0  0
  152.8838  142.2526  160.3912 C   0  0  0  0  0  0  0  0  0  0  0  0
  152.5037  142.9906  159.2451 C   0  0  0  0  0  0  0  0  0  0  0  0
  151.9096  144.2601  159.3720 C   0  0  0  0  0  0  0  0  0  0  0  0
  151.6940  144.8108  160.6477 C   0  0  0  0  0  0  0  0  0  0  0  0
  152.0781  144.0921  161.7944 C   0  0  0  0  0  0  0  0  0  0  0  0
  152.6741  142.8206  161.6739 C   0  0  0  0  0  0  0  0  0  0  0  0
  153.1438  141.9943  163.1187 Cl  0  0  0  0  0  0  0  0  0  0  0  0
  148.7398  142.6696  155.3203 H   0  0  0  0  0  0  0  0  0  0  0  0
  145.8590  142.2035  154.5566 H   0  0  0  0  0  0  0  0  0  0  0  0
  146.5879  139.4727  155.6930 H   0  0  0  0  0  0  0  0  0  0  0  0
  148.7953  139.7984  154.9581 H   0  0  0  0  0  0  0  0  0  0  0  0
  155.5488  141.7116  160.0457 H   0  0  0  0  0  0  0  0  0  0  0  0
  154.7563  141.4247  158.5005 H   0  0  0  0  0  0  0  0  0  0  0  0
  155.4134  140.0775  159.4214 H   0  0  0  0  0  0  0  0  0  0  0  0
  153.7203  140.4871  161.2319 H   0  0  0  0  0  0  0  0  0  0  0  0
  152.3967  139.1202  160.0997 H   0  0  0  0  0  0  0  0  0  0  0  0
  153.0644  139.9482  155.1548 H   0  0  0  0  0  0  0  0  0  0  0  0
  147.9359  141.7582  158.5984 H   0  0  0  0  0  0  0  0  0  0  0  0
  144.2940  140.3292  155.9585 H   0  0  0  0  0  0  0  0  0  0  0  0
  144.8956  141.3343  157.2665 H   0  0  0  0  0  0  0  0  0  0  0  0
  143.1705  141.8963  155.1903 H   0  0  0  0  0  0  0  0  0  0  0  0
  145.1254  139.8468  153.7960 H   0  0  0  0  0  0  0  0  0  0  0  0
  148.5923  140.3282  152.8726 H   0  0  0  0  0  0  0  0  0  0  0  0
  152.6702  142.5913  158.2555 H   0  0  0  0  0  0  0  0  0  0  0  0
  151.6223  144.8130  158.4898 H   0  0  0  0  0  0  0  0  0  0  0  0
  151.2395  145.7856  160.7467 H   0  0  0  0  0  0  0  0  0  0  0  0
  151.9178  144.5215  162.7724 H   0  0  0  0  0  0  0  0  0  0  0  0
  1  2  1  0  0  0  0
  1 33  1  0  0  0  0
  1 34  1  0  0  0  0
  1 35  1  0  0  0  0
  2  3  1  0  0  0  0
  2 22  1  0  0  0  0
  2 36  1  0  0  0  0
  3  4  1  0  0  0  0
  3 37  1  0  0  0  0
  4  9  1  0  0  0  0
  4  5  2  0  0  0  0
  5  6  1  0  0  0  0
  6  7  2  0  0  0  0
  6 38  1  0  0  0  0
  7  8  1  0  0  0  0
  8 12  1  0  0  0  0
  8  9  2  0  0  0  0
  9 10  1  0  0  0  0
 10 11  2  0  0  0  0
 11 12  1  0  0  0  0
 11 39  1  0  0  0  0
 12 13  1  0  0  0  0
 13 29  1  0  0  0  0
 13 20  1  0  0  0  0
 13 14  1  0  0  0  0
 14 15  1  0  0  0  0
 15 30  1  0  0  0  0
 15 16  1  0  0  0  0
 15 18  1  0  0  0  0
 16 17  1  0  0  0  0
 16 40  1  0  0  0  0
 16 41  1  0  0  0  0
 17 42  1  0  0  0  0
 18 31  1  0  0  0  0
 18 19  1  0  0  0  0
 18 20  1  0  0  0  0
 19 43  1  0  0  0  0
 20 32  1  0  0  0  0
 20 21  1  0  0  0  0
 21 44  1  0  0  0  0
 22 27  1  0  0  0  0
 22 23  2  0  0  0  0
 23 24  1  0  0  0  0
 23 45  1  0  0  0  0
 24 25  2  0  0  0  0
 24 46  1  0  0  0  0
 25 26  1  0  0  0  0
 25 47  1  0  0  0  0
 26 27  2  0  0  0  0
 26 48  1  0  0  0  0
 27 28  1  0  0  0  0
M  END
> <s_m_source_file>
AV-unprocessed.smi

> <i_m_source_file_index>
283

> <i_lp_mmshare_version>
43012

> <i_f3d_flags>
0

> <s_epik_input>
Q2xjMVtjSF1bY0hdW2NIXVtjSF1jMVtDQEhdKFtDSDNdKVtOSF1jKG5bY0hdbjIpYyhjMjMpbltjSF1uM1tDQEBIXTRPW0NASF0oW0NIMl1bT0hdKVtDQEBIXShbT0hdKVtDQEhdNFtPSF0=

> <s_epik_cmdline>
J2VwaWtfcHl0aG9uJywgJy1waCcsICc3LjAnLCAnLXRuJywgJzgnLCAnLW1hJywgJzIwMCcsICctbWV0YWxfYmluZGluZycsICctaW1hZScsICc8aW5maWxlLm1hZT4nLCAnLW9tYWUnLCAnPG91dGZpbGUubWFlPic=

> <r_lp_tautomer_probability>
1

> <r_epik_Ionization_Penalty>
0.000266407

> <r_epik_Ionization_Penalty_Charging>
0

> <r_epik_Ionization_Penalty_Neutral>
0.000266407

> <r_epik_State_Penalty>
-0

> <r_epik_Charging_Adjusted_Penalty>
0

> <i_epik_Tot_Q>
0

> <i_epik_Tot_abs_Q>
0

> <r_epik_Metal_State_Penalty>
-0

> <b_epik_Metal_Only>
0

> <s_epik_Chemistry_Notes>
This compound contains an acetal/aminal-like group ( X-CH(R)-Y where X, Y are N, S, or O) that may be acid/base labile, releasing an aldehyde.

> <s_lp_Force_Field>
OPLS_2005

> <r_lp_Energy>
47.4388

> <b_lp_Chiralities_Consistent>
1

> <s_lp_Variant>
AV-unprocessed.smi:283-1

> <Gold.Version>
5.8.1

> <Gold.Id.Protein>
6NUR|6NUR_protein|mol2

> <Gold.PLP.Fitness>
64.1280

> <Gold.PLP.PLP>
-53.1495

> <Gold.PLP.part.hbond>
-4.1652

> <Gold.PLP.part.metal>
0.0000

> <Gold.PLP.part.buried>
-4.1539

> <Gold.PLP.part.nonpolar>
-46.9211

> <Gold.PLP.part.repulsive>
2.0903

> <Gold.PLP.ligand.clash>
0.0218

> <Gold.PLP.ligand.torsion>
1.4769

> <Gold.PLP.Chemscore.Hbond>
4.6041

> <Gold.PLP.Chemscore.CHOScore>
0.0000

> <Gold.PLP.Chemscore.Metal>
0.0000

> <Gold.Chemscore.Hbonds>
donor molecule, donor type, donor heavy atom, donor atom, acceptor molecule, acceptor atom, score
      L1  H    19    43       P1 10175  0.65
      L1  H    21    44       P1  7957  0.69
      P1  H  7989  7998       L1     7  0.32
      P1  H  7997  8010       L1     5  0.80
      P1  H  8011  8017       L1    21  0.35

> <Gold.PLP.Chemscore.Internal.Correction>
0.1419

> <Gold.Rescore>
     Score         DG    S(hbond)    S(metal)    S(lipo)     H(rot)  DE(clash)    DE(int)     intcor
     13.65     -19.82       3.03        0.00     125.76       4.10       3.98       2.19       ----

> <Gold.Chemscore.Fitness>
13.6453

> <Gold.Chemscore.DG>
-19.8159

> <Gold.Chemscore.ZeroCoef>
-5.4800

> <Gold.Chemscore.Hbond>
3.0270

> <Gold.Chemscore.Metal>
0.0000

> <Gold.Chemscore.Lipo>
125.7581

> <Gold.Chemscore.Internal_Hbond>
0.0000

> <Gold.Chemscore.DEClash>
3.9803

> <Gold.Chemscore.DEInternal>
2.1903

> <Gold.Chemscore.Rot>
4.0968

> <Gold.Chemscore.Internal.Correction>
   9.000000E+99

> <Gold.Chemscore.Hbonds>
donor molecule, donor type, donor heavy atom, donor atom, acceptor molecule, acceptor atom, score
      L1  H    19    43       P1 10175  0.61
      L1  H    21    44       P1  7957  0.67
      P1  H  7989  7998       L1     7  0.04
      P1  H  7997  8010       L1     5  0.40
      P1  H  8011  8017       L1    21  0.03

> <Gold.Chemscore.Hbond.Weighted>
-10.1101

> <Gold.Chemscore.Metal.Weighted>
-0.0000

> <Gold.Chemscore.Lipo.Weighted>
-14.7137

> <Gold.Chemscore.Internal_Hbond.Weighted>
0.0000

> <Gold.Chemscore.DEClash.Weighted>
3.9803

> <Gold.Chemscore.DEInternal.Weighted>
2.1903

> <Gold.Chemscore.Rot.Weighted>
10.4879

> <Gold.Chemscore.Internal.Correction.Weighted>
   9.000000E+99

> <Gold.Protein.RotatedTorsions>
[ 6907 6896 6895 6894 ] final -172.78 input  -60.11 | X-H torsion
[ 7974 7965 7964 7962 ] final -109.88 input  175.53 | X-H torsion
[ 8008 7997 7996 7995 ] final   33.30 input   59.86 | X-H torsion
[ 10167 10162 10161 10158 ] final   85.18 input  -65.29 | X-H torsion
[ 10718 10713 10712 10709 ] final  135.61 input   66.30 | X-H torsion
[ 10763 10752 10751 10750 ] final  -38.77 input  -60.55 | X-H torsion
[ 11005 11000 10999 10996 ] final  125.37 input  -57.11 | X-H torsion

> <Gold.Protein.ActiveResidues>
 VAL166  LYS551  ARG553  GLY616  TRP617  ASP618  TYR619  PRO620  LYS621  CYS622 
 ASP623  PHE694  ASN695  SER759  ASP760  ASP761  ALA762  ILE779  LEU786  VAL792 
 PHE793  MET794  SER795  GLU796  ALA797  LYS798  CYS799  TRP800  GLU811  SER814 

> <Gold.Protein.RotatedAtoms>
  151.5455  133.3426  159.2942 H   0  0  0  0  0  0  0  0  0  0  0  0  # atno 6907 bound_to 6896
  150.8510  134.7837  159.7020 H   0  0  0  0  0  0  0  0  0  0  0  0  # atno 6908 bound_to 6896
  152.4556  134.5307  159.9861 H   0  0  0  0  0  0  0  0  0  0  0  0  # atno 6909 bound_to 6896
  145.1751  140.8944  143.3512 H   0  0  0  0  0  0  0  0  0  0  0  0  # atno 7974 bound_to 7965
  155.1365  140.3262  155.4462 H   0  0  0  0  0  0  0  0  0  0  0  0  # atno 8008 bound_to 7997
  156.2618  140.2001  156.6431 H   0  0  0  0  0  0  0  0  0  0  0  0  # atno 8009 bound_to 7997
  154.6574  140.0551  157.0011 H   0  0  0  0  0  0  0  0  0  0  0  0  # atno 8010 bound_to 7997
  139.9004  144.6333  150.8643 H   0  0  0  0  0  0  0  0  0  0  0  0  # atno 10167 bound_to 10162
  157.4552  131.1069  150.9986 H   0  0  0  0  0  0  0  0  0  0  0  0  # atno 10718 bound_to 10713
  153.9184  135.6785  153.4748 H   0  0  0  0  0  0  0  0  0  0  0  0  # atno 10763 bound_to 10752
  153.1041  135.4814  154.8918 H   0  0  0  0  0  0  0  0  0  0  0  0  # atno 10764 bound_to 10752
  154.7491  135.3180  154.8547 H   0  0  0  0  0  0  0  0  0  0  0  0  # atno 10765 bound_to 10752
  139.9403  134.9636  156.8548 H   0  0  0  0  0  0  0  0  0  0  0  0  # atno 11005 bound_to 11000
  145.0193  139.3439  143.6080 LP  0  0  0  0  0  0  0  0  0  0  0  0  # atno 17320 bound_to 7965
  146.3462  139.9487  142.8731 LP  0  0  0  0  0  0  0  0  0  0  0  0  # atno 17321 bound_to 7965
  140.7708  143.3441  151.2147 LP  0  0  0  0  0  0  0  0  0  0  0  0  # atno 17342 bound_to 10162
  139.7030  143.9501  152.2914 LP  0  0  0  0  0  0  0  0  0  0  0  0  # atno 17343 bound_to 10162
  157.0802  130.5900  149.5419 LP  0  0  0  0  0  0  0  0  0  0  0  0  # atno 17370 bound_to 10713
  156.0004  130.5082  150.7642 LP  0  0  0  0  0  0  0  0  0  0  0  0  # atno 17371 bound_to 10713
  140.5969  134.0209  155.7521 LP  0  0  0  0  0  0  0  0  0  0  0  0  # atno 17394 bound_to 11000
  141.1035  133.9731  157.3038 LP  0  0  0  0  0  0  0  0  0  0  0  0  # atno 17395 bound_to 11000

$$$$
