AV-unprocessed.smi:1830|AV-procd|sdf|7454|dock4
  -GOLD-   22720 9143D 1   1.00000     0.00000
 Structure written by MMmdl.
 53 56  0  0  0  0  0  0  0  0  2 V2000
  150.3445  134.1062  155.7499 O   0  0  0  0  0  0  0  0  0  0  0  0
  149.8831  134.7066  154.7800 C   0  0  0  0  0  0  0  0  0  0  0  0
  150.1324  135.9956  154.5124 N   0  0  0  0  0  0  0  0  0  0  0  0
  150.9347  136.8896  155.3410 C   0  0  0  0  0  0  0  0  0  0  0  0
  151.2941  138.1839  154.5820 C   0  0  2  0  0  0  0  0  0  0  0  0
  151.9805  139.2375  155.4838 C   0  0  0  0  0  0  0  0  0  0  0  0
  151.0120  139.8829  156.3495 N   0  0  0  0  0  0  0  0  0  0  0  0
  151.4998  140.9558  157.1848 C   0  0  0  0  0  0  0  0  0  0  0  0
  150.2279  141.6891  157.6440 C   0  0  0  0  0  0  0  0  0  0  0  0
  149.1545  141.2810  156.6110 C   0  0  0  0  0  0  0  0  0  0  0  0
  149.9587  140.4865  155.5802 C   0  0  2  0  0  0  0  0  0  0  0  0
  149.2079  139.4247  154.7677 C   0  0  0  0  0  0  0  0  0  0  0  0
  150.1481  138.7501  153.9248 O   0  0  0  0  0  0  0  0  0  0  0  0
  149.0850  134.1618  153.8472 N   0  0  0  0  0  0  0  0  0  0  0  0
  148.6225  132.8176  153.7739 C   0  0  0  0  0  0  0  0  0  0  0  0
  149.3035  131.7571  154.4246 C   0  0  0  0  0  0  0  0  0  0  0  0
  148.7864  130.4491  154.3596 C   0  0  0  0  0  0  0  0  0  0  0  0
  147.5907  130.2228  153.6550 C   0  0  0  0  0  0  0  0  0  0  0  0
  146.9591  131.2558  153.0594 N   0  3  0  0  0  0  0  0  0  0  0  0
  147.4091  132.5347  153.0888 C   0  0  0  0  0  0  0  0  0  0  0  0
  146.6776  133.5322  152.4089 N   0  0  0  0  0  0  0  0  0  0  0  0
  146.5566  133.3083  150.9700 C   0  0  0  0  0  0  0  0  0  0  0  0
  145.1461  133.7535  150.5763 C   0  0  0  0  0  0  0  0  0  0  0  0
  144.3551  133.5903  151.8684 C   0  0  0  0  0  0  0  0  0  0  0  0
  145.3840  133.9687  152.9315 C   0  0  0  0  0  0  0  0  0  0  0  0
  149.7142  136.4003  153.6876 H   0  0  0  0  0  0  0  0  0  0  0  0
  150.4381  137.1078  156.2873 H   0  0  0  0  0  0  0  0  0  0  0  0
  151.8495  136.3568  155.6013 H   0  0  0  0  0  0  0  0  0  0  0  0
  152.0013  137.9137  153.7968 H   0  0  0  0  0  0  0  0  0  0  0  0
  152.7701  138.7766  156.0782 H   0  0  0  0  0  0  0  0  0  0  0  0
  152.4627  139.9870  154.8543 H   0  0  0  0  0  0  0  0  0  0  0  0
  152.0917  140.5788  158.0190 H   0  0  0  0  0  0  0  0  0  0  0  0
  152.1272  141.6318  156.6016 H   0  0  0  0  0  0  0  0  0  0  0  0
  149.9319  141.3695  158.6437 H   0  0  0  0  0  0  0  0  0  0  0  0
  150.3834  142.7680  157.6687 H   0  0  0  0  0  0  0  0  0  0  0  0
  148.4002  140.6501  157.0833 H   0  0  0  0  0  0  0  0  0  0  0  0
  148.6499  142.1392  156.1666 H   0  0  0  0  0  0  0  0  0  0  0  0
  150.3977  141.2006  154.8800 H   0  0  0  0  0  0  0  0  0  0  0  0
  148.7060  138.7152  155.4256 H   0  0  0  0  0  0  0  0  0  0  0  0
  148.4390  139.8859  154.1482 H   0  0  0  0  0  0  0  0  0  0  0  0
  148.8601  134.7462  153.0553 H   0  0  0  0  0  0  0  0  0  0  0  0
  150.2078  131.9298  154.9882 H   0  0  0  0  0  0  0  0  0  0  0  0
  149.2973  129.6331  154.8495 H   0  0  0  0  0  0  0  0  0  0  0  0
  147.1211  129.2551  153.5534 H   0  0  0  0  0  0  0  0  0  0  0  0
  147.3138  133.8668  150.4197 H   0  0  0  0  0  0  0  0  0  0  0  0
  146.6907  132.2496  150.7407 H   0  0  0  0  0  0  0  0  0  0  0  0
  145.1582  134.8042  150.2836 H   0  0  0  0  0  0  0  0  0  0  0  0
  144.7354  133.1775  149.7469 H   0  0  0  0  0  0  0  0  0  0  0  0
  143.4589  134.2101  151.9036 H   0  0  0  0  0  0  0  0  0  0  0  0
  144.0550  132.5488  151.9925 H   0  0  0  0  0  0  0  0  0  0  0  0
  145.1251  133.5620  153.9087 H   0  0  0  0  0  0  0  0  0  0  0  0
  145.4207  135.0531  153.0422 H   0  0  0  0  0  0  0  0  0  0  0  0
  146.0944  131.0610  152.5543 H   0  0  0  0  0  0  0  0  0  0  0  0
  1  2  2  0  0  0  0
  2  3  1  0  0  0  0
  2 14  1  0  0  0  0
  3  4  1  0  0  0  0
  3 26  1  0  0  0  0
  4  5  1  0  0  0  0
  4 27  1  0  0  0  0
  4 28  1  0  0  0  0
  5 13  1  0  0  0  0
  5  6  1  0  0  0  0
  5 29  1  0  0  0  0
  6  7  1  0  0  0  0
  6 30  1  0  0  0  0
  6 31  1  0  0  0  0
  7 11  1  0  0  0  0
  7  8  1  0  0  0  0
  8  9  1  0  0  0  0
  8 32  1  0  0  0  0
  8 33  1  0  0  0  0
  9 10  1  0  0  0  0
  9 34  1  0  0  0  0
  9 35  1  0  0  0  0
 10 11  1  0  0  0  0
 10 36  1  0  0  0  0
 10 37  1  0  0  0  0
 11 12  1  0  0  0  0
 11 38  1  0  0  0  0
 12 13  1  0  0  0  0
 12 39  1  0  0  0  0
 12 40  1  0  0  0  0
 14 15  1  0  0  0  0
 14 41  1  0  0  0  0
 15 20  1  0  0  0  0
 15 16  2  0  0  0  0
 16 17  1  0  0  0  0
 16 42  1  0  0  0  0
 17 18  2  0  0  0  0
 17 43  1  0  0  0  0
 18 19  1  0  0  0  0
 18 44  1  0  0  0  0
 19 20  2  0  0  0  0
 19 53  1  0  0  0  0
 20 21  1  0  0  0  0
 21 25  1  0  0  0  0
 21 22  1  0  0  0  0
 22 23  1  0  0  0  0
 22 45  1  0  0  0  0
 22 46  1  0  0  0  0
 23 24  1  0  0  0  0
 23 47  1  0  0  0  0
 23 48  1  0  0  0  0
 24 25  1  0  0  0  0
 24 49  1  0  0  0  0
 24 50  1  0  0  0  0
 25 51  1  0  0  0  0
 25 52  1  0  0  0  0
M  CHG  1  19   1
M  END
> <s_m_source_file>
AV-unprocessed.smi

> <i_m_source_file_index>
1830

> <i_lp_mmshare_version>
43012

> <i_f3d_flags>
0

> <s_epik_input>
W0NIMl0xW0NIMl1bQ0gyXVtDQEhdKE4xMilbQ0gyXU9bQ0BASF0oW0NIMl0yKVtDSDJdW05IXUMoPU8pW05IXWMzW2NIXVtjSF1bY0hdbmMzTjRbQ0gyXVtDSDJdW0NIMl1bQ0gyXTQ=

> <s_epik_cmdline>
J2VwaWtfcHl0aG9uJywgJy1waCcsICc3LjAnLCAnLXRuJywgJzgnLCAnLW1hJywgJzIwMCcsICctbWV0YWxfYmluZGluZycsICctaW1hZScsICc8aW5maWxlLm1hZT4nLCAnLW9tYWUnLCAnPG91dGZpbGUubWFlPic=

> <r_epik_Ionization_Penalty>
2.19264

> <r_epik_Ionization_Penalty_Charging>
1.12452

> <r_epik_Ionization_Penalty_Neutral>
1.06812

> <r_epik_State_Penalty>
2.334

> <r_epik_Charging_Adjusted_Penalty>
3.45852

> <i_epik_Tot_Q>
1

> <i_epik_Tot_abs_Q>
1

> <r_epik_Metal_State_Penalty>
2.41144

> <b_epik_Metal_Only>
0

> <s_lp_Force_Field>
OPLS_2005

> <r_lp_Energy>
83.5645

> <b_lp_Chiralities_Consistent>
1

> <s_lp_Variant>
AV-unprocessed.smi:1830-23

> <Gold.Version>
5.8.1

> <Gold.Id.Protein>
6NUR|6NUR_protein|mol2

> <Gold.PLP.Fitness>
45.8871

> <Gold.PLP.PLP>
-41.2011

> <Gold.PLP.part.hbond>
-2.8531

> <Gold.PLP.part.metal>
0.0000

> <Gold.PLP.part.buried>
-4.9329

> <Gold.PLP.part.nonpolar>
-34.1338

> <Gold.PLP.part.repulsive>
1.7050

> <Gold.PLP.ligand.clash>
0.0000

> <Gold.PLP.ligand.torsion>
0.3630

> <Gold.PLP.Chemscore.Hbond>
1.7500

> <Gold.PLP.Chemscore.CHOScore>
0.0000

> <Gold.PLP.Chemscore.Metal>
0.0000

> <Gold.Chemscore.Hbonds>
donor molecule, donor type, donor heavy atom, donor atom, acceptor molecule, acceptor atom, score
      L1  H     3    26       P1  7948  1.00
      L1  H    14    41       P1  7948  0.80

> <Gold.PLP.Chemscore.Internal.Correction>
0.1619

> <Gold.Rescore>
     Score         DG    S(hbond)    S(metal)    S(lipo)     H(rot)  DE(clash)    DE(int)     intcor
     15.07     -16.64       1.54        0.00      82.09       1.40       0.03       1.55       ----

> <Gold.Chemscore.Fitness>
15.0706

> <Gold.Chemscore.DG>
-16.6446

> <Gold.Chemscore.ZeroCoef>
-5.4800

> <Gold.Chemscore.Hbond>
1.5370

> <Gold.Chemscore.Metal>
0.0000

> <Gold.Chemscore.Lipo>
82.0916

> <Gold.Chemscore.Internal_Hbond>
0.0000

> <Gold.Chemscore.DEClash>
0.0275

> <Gold.Chemscore.DEInternal>
1.5466

> <Gold.Chemscore.Rot>
1.3959

> <Gold.Chemscore.Internal.Correction>
   9.000000E+99

> <Gold.Chemscore.Hbonds>
donor molecule, donor type, donor heavy atom, donor atom, acceptor molecule, acceptor atom, score
      L1  H     3    26       P1  7948  0.42
      L1  H    14    41       P1  7948  0.12

> <Gold.Chemscore.Hbond.Weighted>
-5.1335

> <Gold.Chemscore.Metal.Weighted>
-0.0000

> <Gold.Chemscore.Lipo.Weighted>
-9.6047

> <Gold.Chemscore.Internal_Hbond.Weighted>
0.0000

> <Gold.Chemscore.DEClash.Weighted>
0.0275

> <Gold.Chemscore.DEInternal.Weighted>
1.5466

> <Gold.Chemscore.Rot.Weighted>
3.5736

> <Gold.Chemscore.Internal.Correction.Weighted>
   9.000000E+99

> <Gold.Protein.RotatedTorsions>
[ 6907 6896 6895 6894 ] final  134.33 input  -60.11 | X-H torsion
[ 7974 7965 7964 7962 ] final -115.07 input  175.53 | X-H torsion
[ 8008 7997 7996 7995 ] final  148.58 input   59.86 | X-H torsion
[ 10167 10162 10161 10158 ] final   47.99 input  -65.29 | X-H torsion
[ 10718 10713 10712 10709 ] final  102.92 input   66.30 | X-H torsion
[ 10763 10752 10751 10750 ] final   27.71 input  -60.55 | X-H torsion
[ 11005 11000 10999 10996 ] final   71.54 input  -57.11 | X-H torsion

> <Gold.Protein.ActiveResidues>
 VAL166  LYS551  ARG553  GLY616  TRP617  ASP618  TYR619  PRO620  LYS621  CYS622 
 ASP623  PHE694  ASN695  SER759  ASP760  ASP761  ALA762  ILE779  LEU786  VAL792 
 PHE793  MET794  SER795  GLU796  ALA797  LYS798  CYS799  TRP800  GLU811  SER814 

> <Gold.Protein.RotatedAtoms>
  152.3125  133.5767  159.5689 H   0  0  0  0  0  0  0  0  0  0  0  0  # atno 6907 bound_to 6896
  150.7330  134.0132  159.3685 H   0  0  0  0  0  0  0  0  0  0  0  0  # atno 6908 bound_to 6896
  151.8023  135.0705  160.0453 H   0  0  0  0  0  0  0  0  0  0  0  0  # atno 6909 bound_to 6896
  145.1128  140.8622  143.3860 H   0  0  0  0  0  0  0  0  0  0  0  0  # atno 7974 bound_to 7965
  156.2786  140.2125  156.5722 H   0  0  0  0  0  0  0  0  0  0  0  0  # atno 8008 bound_to 7997
  154.7127  140.0510  157.0588 H   0  0  0  0  0  0  0  0  0  0  0  0  # atno 8009 bound_to 7997
  155.0584  140.3164  155.4671 H   0  0  0  0  0  0  0  0  0  0  0  0  # atno 8010 bound_to 7997
  140.2979  144.2969  150.6225 H   0  0  0  0  0  0  0  0  0  0  0  0  # atno 10167 bound_to 10162
  157.6788  131.0765  150.5476 H   0  0  0  0  0  0  0  0  0  0  0  0  # atno 10718 bound_to 10713
  153.0538  135.6530  154.0628 H   0  0  0  0  0  0  0  0  0  0  0  0  # atno 10763 bound_to 10752
  154.0311  135.2911  155.3370 H   0  0  0  0  0  0  0  0  0  0  0  0  # atno 10764 bound_to 10752
  154.6841  135.5308  153.8370 H   0  0  0  0  0  0  0  0  0  0  0  0  # atno 10765 bound_to 10752
  139.9538  134.7180  156.0801 H   0  0  0  0  0  0  0  0  0  0  0  0  # atno 11005 bound_to 11000
  145.0828  139.2947  143.5775 LP  0  0  0  0  0  0  0  0  0  0  0  0  # atno 17320 bound_to 7965
  146.3525  140.0340  142.8648 LP  0  0  0  0  0  0  0  0  0  0  0  0  # atno 17321 bound_to 7965
  140.5676  143.2184  151.7655 LP  0  0  0  0  0  0  0  0  0  0  0  0  # atno 17342 bound_to 10162
  139.4922  144.4261  151.9924 LP  0  0  0  0  0  0  0  0  0  0  0  0  # atno 17343 bound_to 10162
  156.5782  130.4297  149.5989 LP  0  0  0  0  0  0  0  0  0  0  0  0  # atno 17370 bound_to 10713
  156.2684  130.7002  151.1792 LP  0  0  0  0  0  0  0  0  0  0  0  0  # atno 17371 bound_to 10713
  141.1206  133.6614  156.3204 LP  0  0  0  0  0  0  0  0  0  0  0  0  # atno 17394 bound_to 11000
  140.5657  134.5890  157.5445 LP  0  0  0  0  0  0  0  0  0  0  0  0  # atno 17395 bound_to 11000

$$$$
