AV-unprocessed.smi:2027|AV-procd|sdf|8219|dock3
  -GOLD-   2272010483D 1   1.00000     0.00000
 Structure written by MMmdl.
 51 53  0  0  0  0  0  0  0  0  3 V2000
  152.2815  142.9232  161.0900 C   0  0  0  0  0  0  0  0  0  0  0  0
  152.0940  142.1920  159.7717 C   0  0  0  0  0  0  0  0  0  0  0  0
  151.2600  142.7737  158.7909 C   0  0  0  0  0  0  0  0  0  0  0  0
  151.1100  142.0826  157.5948 C   0  0  0  0  0  0  0  0  0  0  0  0
  150.3704  142.3889  156.4512 N   0  3  0  0  0  0  0  0  0  0  0  0
  150.5356  141.4043  155.5260 C   0  0  0  0  0  0  0  0  0  0  0  0
  151.3655  140.4681  156.0633 N   0  0  0  0  0  0  0  0  0  0  0  0
  151.8685  139.2143  155.4761 C   0  0  0  0  0  0  0  0  0  0  0  0
  150.7602  138.2005  155.1165 C   0  0  2  0  0  0  0  0  0  0  0  0
  151.3568  137.0414  154.5671 O   0  0  0  0  0  0  0  0  0  0  0  0
  149.7204  138.7463  154.1140 C   0  0  0  0  0  0  0  0  0  0  0  0
  148.5006  137.9019  154.0115 N   0  3  2  0  0  0  0  0  0  0  0  0
  147.4041  138.6018  153.3047 C   0  0  0  0  0  0  0  0  0  0  0  0
  148.0523  137.3024  155.2966 C   0  0  0  0  0  0  0  0  0  0  0  0
  148.6930  135.9565  155.4998 C   0  0  0  0  0  0  0  0  0  0  0  0
  149.4251  135.4925  156.6306 C   0  0  0  0  0  0  0  0  0  0  0  0
  149.8652  134.2540  156.4867 N   0  0  0  0  0  0  0  0  0  0  0  0
  149.4217  133.8788  155.2699 N   0  0  0  0  0  0  0  0  0  0  0  0
  149.7261  132.5522  154.7778 C   0  0  0  0  0  0  0  0  0  0  0  0
  148.7081  134.8834  154.6532 C   0  0  0  0  0  0  0  0  0  0  0  0
  151.7539  140.8526  157.3535 C   0  0  0  0  0  0  0  0  0  0  0  0
  152.5782  140.2656  158.3116 C   0  0  0  0  0  0  0  0  0  0  0  0
  152.7436  140.9530  159.5353 C   0  0  0  0  0  0  0  0  0  0  0  0
  153.6378  140.3363  160.5978 C   0  0  0  0  0  0  0  0  0  0  0  0
  151.7591  143.8803  161.0931 H   0  0  0  0  0  0  0  0  0  0  0  0
  153.3379  143.1211  161.2728 H   0  0  0  0  0  0  0  0  0  0  0  0
  151.8920  142.3275  161.9158 H   0  0  0  0  0  0  0  0  0  0  0  0
  150.7620  143.7169  158.9643 H   0  0  0  0  0  0  0  0  0  0  0  0
  150.0871  141.3713  154.5434 H   0  0  0  0  0  0  0  0  0  0  0  0
  152.4283  139.4838  154.5792 H   0  0  0  0  0  0  0  0  0  0  0  0
  152.5948  138.7650  156.1528 H   0  0  0  0  0  0  0  0  0  0  0  0
  150.2663  137.9168  156.0443 H   0  0  0  0  0  0  0  0  0  0  0  0
  150.7005  136.5681  154.0778 H   0  0  0  0  0  0  0  0  0  0  0  0
  149.4302  139.7625  154.3848 H   0  0  0  0  0  0  0  0  0  0  0  0
  150.1827  138.8123  153.1281 H   0  0  0  0  0  0  0  0  0  0  0  0
  147.0587  139.4639  153.8770 H   0  0  0  0  0  0  0  0  0  0  0  0
  146.5583  137.9315  153.1470 H   0  0  0  0  0  0  0  0  0  0  0  0
  147.7318  138.9499  152.3245 H   0  0  0  0  0  0  0  0  0  0  0  0
  148.2714  137.9764  156.1259 H   0  0  0  0  0  0  0  0  0  0  0  0
  146.9667  137.1943  155.3046 H   0  0  0  0  0  0  0  0  0  0  0  0
  149.6539  136.0187  157.5456 H   0  0  0  0  0  0  0  0  0  0  0  0
  149.1645  132.3541  153.8647 H   0  0  0  0  0  0  0  0  0  0  0  0
  149.4573  131.8070  155.5270 H   0  0  0  0  0  0  0  0  0  0  0  0
  150.7921  132.4757  154.5627 H   0  0  0  0  0  0  0  0  0  0  0  0
  148.2789  134.7555  153.6702 H   0  0  0  0  0  0  0  0  0  0  0  0
  153.0770  139.3242  158.1371 H   0  0  0  0  0  0  0  0  0  0  0  0
  154.0161  139.3623  160.2859 H   0  0  0  0  0  0  0  0  0  0  0  0
  153.0886  140.1960  161.5291 H   0  0  0  0  0  0  0  0  0  0  0  0
  154.4956  140.9798  160.7948 H   0  0  0  0  0  0  0  0  0  0  0  0
  148.7517  137.1260  153.4149 H   0  0  0  0  0  0  0  0  0  0  0  0
  149.7976  143.2112  156.3081 H   0  0  0  0  0  0  0  0  0  0  0  0
  1  2  1  0  0  0  0
  1 25  1  0  0  0  0
  1 26  1  0  0  0  0
  1 27  1  0  0  0  0
  2 23  1  0  0  0  0
  2  3  2  0  0  0  0
  3  4  1  0  0  0  0
  3 28  1  0  0  0  0
  4 21  2  0  0  0  0
  4  5  1  0  0  0  0
  5  6  2  0  0  0  0
  5 51  1  0  0  0  0
  6  7  1  0  0  0  0
  6 29  1  0  0  0  0
  7  8  1  0  0  0  0
  7 21  1  0  0  0  0
  8  9  1  0  0  0  0
  8 30  1  0  0  0  0
  8 31  1  0  0  0  0
  9 10  1  0  0  0  0
  9 11  1  0  0  0  0
  9 32  1  0  0  0  0
 10 33  1  0  0  0  0
 11 12  1  0  0  0  0
 11 34  1  0  0  0  0
 11 35  1  0  0  0  0
 12 13  1  0  0  0  0
 12 14  1  0  0  0  0
 12 50  1  0  0  0  0
 13 36  1  0  0  0  0
 13 37  1  0  0  0  0
 13 38  1  0  0  0  0
 14 15  1  0  0  0  0
 14 39  1  0  0  0  0
 14 40  1  0  0  0  0
 15 20  2  0  0  0  0
 15 16  1  0  0  0  0
 16 17  2  0  0  0  0
 16 41  1  0  0  0  0
 17 18  1  0  0  0  0
 18 19  1  0  0  0  0
 18 20  1  0  0  0  0
 19 42  1  0  0  0  0
 19 43  1  0  0  0  0
 19 44  1  0  0  0  0
 20 45  1  0  0  0  0
 21 22  1  0  0  0  0
 22 23  2  0  0  0  0
 22 46  1  0  0  0  0
 23 24  1  0  0  0  0
 24 47  1  0  0  0  0
 24 48  1  0  0  0  0
 24 49  1  0  0  0  0
M  CHG  1   5   1
M  CHG  1  12   1
M  END
> <s_m_source_file>
AV-unprocessed.smi

> <i_m_source_file_index>
2027

> <i_lp_mmshare_version>
43012

> <i_f3d_flags>
0

> <s_epik_input>
W0NIM11jKFtjSF0xKWMoW0NIM10pW2NIXWMoYzEyKW4oW2NIXW4yKVtDSDJdW0NASF0oW09IXSlbQ0gyXU4oW0NIM10pW0NIMl1jM1tjSF1ubihbQ0gzXSlbY0hdMw==

> <s_epik_cmdline>
J2VwaWtfcHl0aG9uJywgJy1waCcsICc3LjAnLCAnLXRuJywgJzgnLCAnLW1hJywgJzIwMCcsICctbWV0YWxfYmluZGluZycsICctaW1hZScsICc8aW5maWxlLm1hZT4nLCAnLW9tYWUnLCAnPG91dGZpbGUubWFlPic=

> <r_lp_tautomer_probability>
1

> <r_epik_Ionization_Penalty>
1.77469

> <r_epik_Ionization_Penalty_Charging>
1.77463

> <r_epik_Ionization_Penalty_Neutral>
6.41153e-05

> <r_epik_State_Penalty>
1.85225

> <r_epik_Charging_Adjusted_Penalty>
3.62688

> <i_epik_Tot_Q>
2

> <i_epik_Tot_abs_Q>
2

> <r_epik_Metal_State_Penalty>
1.92669

> <b_epik_Metal_Only>
0

> <s_lp_Force_Field>
OPLS_2005

> <r_lp_Energy>
22.3184

> <b_lp_Chiralities_Consistent>
1

> <s_lp_Variant>
AV-unprocessed.smi:2027-11

> <Gold.Version>
5.8.1

> <Gold.Id.Protein>
6NUR|6NUR_protein|mol2

> <Gold.PLP.Fitness>
59.2546

> <Gold.PLP.PLP>
-43.7732

> <Gold.PLP.part.hbond>
-3.4032

> <Gold.PLP.part.metal>
0.0000

> <Gold.PLP.part.buried>
-2.9055

> <Gold.PLP.part.nonpolar>
-35.0645

> <Gold.PLP.part.repulsive>
0.0647

> <Gold.PLP.ligand.clash>
0.0000

> <Gold.PLP.ligand.torsion>
0.7593

> <Gold.PLP.Chemscore.Hbond>
4.7800

> <Gold.PLP.Chemscore.CHOScore>
0.8109

> <Gold.PLP.Chemscore.Metal>
0.0000

> <Gold.Chemscore.Hbonds>
donor molecule, donor type, donor heavy atom, donor atom, acceptor molecule, acceptor atom, score
      L1  H     5    51       P1  8028  2.00
      L1  H    12    50       P1  7948  2.00
      P1  H 10752 10764       L1    10  0.72
      L1  C    20    45       P1  7948  0.80

> <Gold.PLP.Chemscore.Internal.Correction>
0.2273

> <Gold.Rescore>
     Score         DG    S(hbond)    S(metal)    S(lipo)     H(rot)  DE(clash)    DE(int)     intcor
     18.04     -18.88       1.97        0.00     114.75       2.58       0.14       0.69       ----

> <Gold.Chemscore.Fitness>
18.0449

> <Gold.Chemscore.DG>
-18.8781

> <Gold.Chemscore.ZeroCoef>
-5.4800

> <Gold.Chemscore.Hbond>
1.9721

> <Gold.Chemscore.Metal>
0.0000

> <Gold.Chemscore.Lipo>
114.7454

> <Gold.Chemscore.Internal_Hbond>
0.0000

> <Gold.Chemscore.DEClash>
0.1400

> <Gold.Chemscore.DEInternal>
0.6933

> <Gold.Chemscore.Rot>
2.5836

> <Gold.Chemscore.Internal.Correction>
   9.000000E+99

> <Gold.Chemscore.Hbonds>
donor molecule, donor type, donor heavy atom, donor atom, acceptor molecule, acceptor atom, score
      L1  H     5    51       P1  8028  1.00
      L1  H    12    50       P1  7948  0.99
      P1  H 10752 10764       L1    10  0.14

> <Gold.Chemscore.Hbond.Weighted>
-6.5868

> <Gold.Chemscore.Metal.Weighted>
-0.0000

> <Gold.Chemscore.Lipo.Weighted>
-13.4252

> <Gold.Chemscore.Internal_Hbond.Weighted>
0.0000

> <Gold.Chemscore.DEClash.Weighted>
0.1400

> <Gold.Chemscore.DEInternal.Weighted>
0.6933

> <Gold.Chemscore.Rot.Weighted>
6.6139

> <Gold.Chemscore.Internal.Correction.Weighted>
   9.000000E+99

> <Gold.Protein.RotatedTorsions>
[ 6907 6896 6895 6894 ] final  -72.87 input  -60.11 | X-H torsion
[ 7974 7965 7964 7962 ] final   66.93 input  175.53 | X-H torsion
[ 8008 7997 7996 7995 ] final -131.63 input   59.86 | X-H torsion
[ 10167 10162 10161 10158 ] final  148.16 input  -65.29 | X-H torsion
[ 10718 10713 10712 10709 ] final    3.29 input   66.30 | X-H torsion
[ 10763 10752 10751 10750 ] final  -74.63 input  -60.55 | X-H torsion
[ 11005 11000 10999 10996 ] final   84.05 input  -57.11 | X-H torsion

> <Gold.Protein.ActiveResidues>
 VAL166  LYS551  ARG553  GLY616  TRP617  ASP618  TYR619  PRO620  LYS621  CYS622 
 ASP623  PHE694  ASN695  SER759  ASP760  ASP761  ALA762  ILE779  LEU786  VAL792 
 PHE793  MET794  SER795  GLU796  ALA797  LYS798  CYS799  TRP800  GLU811  SER814 

> <Gold.Protein.RotatedAtoms>
  150.7152  134.5100  159.5602 H   0  0  0  0  0  0  0  0  0  0  0  0  # atno 6907 bound_to 6896
  152.2679  134.7962  160.0428 H   0  0  0  0  0  0  0  0  0  0  0  0  # atno 6908 bound_to 6896
  151.8652  133.3429  159.3753 H   0  0  0  0  0  0  0  0  0  0  0  0  # atno 6909 bound_to 6896
  145.8208  139.3083  143.1045 H   0  0  0  0  0  0  0  0  0  0  0  0  # atno 7974 bound_to 7965
  155.3156  140.0459  157.3037 H   0  0  0  0  0  0  0  0  0  0  0  0  # atno 8008 bound_to 7997
  154.5408  140.2287  155.8610 H   0  0  0  0  0  0  0  0  0  0  0  0  # atno 8009 bound_to 7997
  156.1879  140.3058  155.9281 H   0  0  0  0  0  0  0  0  0  0  0  0  # atno 8010 bound_to 7997
  139.4879  144.5701  151.7071 H   0  0  0  0  0  0  0  0  0  0  0  0  # atno 10167 bound_to 10162
  156.8756  130.5635  149.5655 H   0  0  0  0  0  0  0  0  0  0  0  0  # atno 10718 bound_to 10713
  154.4756  135.5858  153.6353 H   0  0  0  0  0  0  0  0  0  0  0  0  # atno 10763 bound_to 10752
  152.9840  135.6077  154.3311 H   0  0  0  0  0  0  0  0  0  0  0  0  # atno 10764 bound_to 10752
  154.3197  135.2844  155.2505 H   0  0  0  0  0  0  0  0  0  0  0  0  # atno 10765 bound_to 10752
  139.9012  134.8188  156.2392 H   0  0  0  0  0  0  0  0  0  0  0  0  # atno 11005 bound_to 11000
  145.9677  140.8785  143.0178 LP  0  0  0  0  0  0  0  0  0  0  0  0  # atno 17320 bound_to 7965
  144.6748  140.1902  143.7397 LP  0  0  0  0  0  0  0  0  0  0  0  0  # atno 17321 bound_to 7965
  140.5286  144.0766  150.6046 LP  0  0  0  0  0  0  0  0  0  0  0  0  # atno 17342 bound_to 10162
  140.3748  143.2834  152.0237 LP  0  0  0  0  0  0  0  0  0  0  0  0  # atno 17343 bound_to 10162
  156.0704  130.5738  150.9371 LP  0  0  0  0  0  0  0  0  0  0  0  0  # atno 17370 bound_to 10713
  157.6170  131.0932  150.8691 LP  0  0  0  0  0  0  0  0  0  0  0  0  # atno 17371 bound_to 10713
  141.0296  133.6996  156.1407 LP  0  0  0  0  0  0  0  0  0  0  0  0  # atno 17394 bound_to 11000
  140.7116  134.4455  157.5581 LP  0  0  0  0  0  0  0  0  0  0  0  0  # atno 17395 bound_to 11000

$$$$
