AV-unprocessed.smi:2457|AV-procd|sdf|9705|dock8
  -GOLD-   2272013343D 1   1.00000     0.00000
 Structure written by MMmdl.
 40 41  0  0  0  0  0  0  0  0  1 V2000
  153.3024  138.6427  154.4298 C   0  0  0  0  0  0  0  0  0  0  0  0
  151.8108  138.5603  154.5122 C   0  0  0  0  0  0  0  0  0  0  0  0
  151.0546  137.4294  154.6936 C   0  0  0  0  0  0  0  0  0  0  0  0
  149.3504  137.7876  154.7355 S   0  0  0  0  0  0  0  0  0  0  0  0
  149.7334  139.4905  154.5035 C   0  0  0  0  0  0  0  0  0  0  0  0
  148.6867  140.5584  154.4025 C   0  0  1  0  0  0  0  0  0  0  0  0
  147.4481  140.0853  153.6284 C   0  0  0  0  0  0  0  0  0  0  0  0
  148.3380  141.1995  155.7646 C   0  0  0  0  0  0  0  0  0  0  0  0
  149.2958  142.2236  156.1737 N   0  0  0  0  0  0  0  0  0  0  0  0
  150.0953  142.1419  157.2456 C   0  0  0  0  0  0  0  0  0  0  0  0
  150.1466  141.1661  157.9946 O   0  0  0  0  0  0  0  0  0  0  0  0
  150.8128  143.2606  157.4169 N   0  0  0  0  0  0  0  0  0  0  0  0
  151.7306  143.5087  158.5246 C   0  0  2  0  0  0  0  0  0  0  0  0
  152.5424  142.2331  158.8327 C   0  0  0  0  0  0  0  0  0  0  0  0
  153.5704  142.4435  159.9556 C   0  0  0  0  0  0  0  0  0  0  0  0
  152.9123  142.8458  161.2829 C   0  0  0  0  0  0  0  0  0  0  0  0
  152.0295  144.4224  161.1282 S   0  0  0  0  0  0  0  0  0  0  0  0
  150.9329  143.9874  159.7500 C   0  0  0  0  0  0  0  0  0  0  0  0
  151.0453  139.7241  154.3993 N   0  0  0  0  0  0  0  0  0  0  0  0
  153.7648  137.6668  154.5793 H   0  0  0  0  0  0  0  0  0  0  0  0
  153.7011  139.3153  155.1897 H   0  0  0  0  0  0  0  0  0  0  0  0
  153.6232  139.0145  153.4566 H   0  0  0  0  0  0  0  0  0  0  0  0
  151.3950  136.4108  154.8062 H   0  0  0  0  0  0  0  0  0  0  0  0
  149.1273  141.3483  153.7930 H   0  0  0  0  0  0  0  0  0  0  0  0
  147.7189  139.7321  152.6329 H   0  0  0  0  0  0  0  0  0  0  0  0
  146.7285  140.8953  153.5072 H   0  0  0  0  0  0  0  0  0  0  0  0
  146.9448  139.2685  154.1466 H   0  0  0  0  0  0  0  0  0  0  0  0
  147.3302  141.6171  155.7458 H   0  0  0  0  0  0  0  0  0  0  0  0
  148.3383  140.4322  156.5390 H   0  0  0  0  0  0  0  0  0  0  0  0
  149.3224  143.0681  155.6212 H   0  0  0  0  0  0  0  0  0  0  0  0
  150.6944  144.0081  156.7490 H   0  0  0  0  0  0  0  0  0  0  0  0
  152.4189  144.3065  158.2379 H   0  0  0  0  0  0  0  0  0  0  0  0
  151.8674  141.4198  159.1027 H   0  0  0  0  0  0  0  0  0  0  0  0
  153.0683  141.9057  157.9350 H   0  0  0  0  0  0  0  0  0  0  0  0
  154.1361  141.5226  160.1000 H   0  0  0  0  0  0  0  0  0  0  0  0
  154.2938  143.2031  159.6564 H   0  0  0  0  0  0  0  0  0  0  0  0
  152.2121  142.0762  161.6091 H   0  0  0  0  0  0  0  0  0  0  0  0
  153.6670  142.9438  162.0636 H   0  0  0  0  0  0  0  0  0  0  0  0
  150.3379  144.8659  159.4980 H   0  0  0  0  0  0  0  0  0  0  0  0
  150.2381  143.2150  160.0818 H   0  0  0  0  0  0  0  0  0  0  0  0
  1  2  1  0  0  0  0
  1 20  1  0  0  0  0
  1 21  1  0  0  0  0
  1 22  1  0  0  0  0
  2 19  1  0  0  0  0
  2  3  2  0  0  0  0
  3  4  1  0  0  0  0
  3 23  1  0  0  0  0
  4  5  1  0  0  0  0
  5  6  1  0  0  0  0
  5 19  2  0  0  0  0
  6  7  1  0  0  0  0
  6  8  1  0  0  0  0
  6 24  1  0  0  0  0
  7 25  1  0  0  0  0
  7 26  1  0  0  0  0
  7 27  1  0  0  0  0
  8  9  1  0  0  0  0
  8 28  1  0  0  0  0
  8 29  1  0  0  0  0
  9 10  1  0  0  0  0
  9 30  1  0  0  0  0
 10 11  2  0  0  0  0
 10 12  1  0  0  0  0
 12 13  1  0  0  0  0
 12 31  1  0  0  0  0
 13 18  1  0  0  0  0
 13 14  1  0  0  0  0
 13 32  1  0  0  0  0
 14 15  1  0  0  0  0
 14 33  1  0  0  0  0
 14 34  1  0  0  0  0
 15 16  1  0  0  0  0
 15 35  1  0  0  0  0
 15 36  1  0  0  0  0
 16 17  1  0  0  0  0
 16 37  1  0  0  0  0
 16 38  1  0  0  0  0
 17 18  1  0  0  0  0
 18 39  1  0  0  0  0
 18 40  1  0  0  0  0
M  END
> <s_m_source_file>
AV-unprocessed.smi

> <i_m_source_file_index>
2457

> <i_lp_mmshare_version>
43012

> <i_f3d_flags>
0

> <s_epik_input>
W0NIM11jMVtjSF1zYyhuMSlbQ0BIXShbQ0gzXSlbQ0gyXVtOSF1DKD1PKVtOSF1bQ0BASF0yW0NIMl1bQ0gyXVtDSDJdU1tDSDJdMg==

> <s_epik_cmdline>
J2VwaWtfcHl0aG9uJywgJy1waCcsICc3LjAnLCAnLXRuJywgJzgnLCAnLW1hJywgJzIwMCcsICctbWV0YWxfYmluZGluZycsICctaW1hZScsICc8aW5maWxlLm1hZT4nLCAnLW9tYWUnLCAnPG91dGZpbGUubWFlPic=

> <r_epik_Ionization_Penalty>
0.00154805

> <r_epik_Ionization_Penalty_Charging>
0

> <r_epik_Ionization_Penalty_Neutral>
0.00154805

> <r_epik_State_Penalty>
0.00100357

> <r_epik_Charging_Adjusted_Penalty>
0.00100357

> <i_epik_Tot_Q>
0

> <i_epik_Tot_abs_Q>
0

> <r_epik_Metal_State_Penalty>
-0

> <b_epik_Metal_Only>
0

> <s_lp_Force_Field>
OPLS_2005

> <r_lp_Energy>
-7.39523

> <b_lp_Chiralities_Consistent>
1

> <s_lp_Variant>
AV-unprocessed.smi:2457-2

> <Gold.Version>
5.8.1

> <Gold.Id.Protein>
6NUR|6NUR_protein|mol2

> <Gold.PLP.Fitness>
47.3771

> <Gold.PLP.PLP>
-43.0027

> <Gold.PLP.part.hbond>
-2.8329

> <Gold.PLP.part.metal>
0.0000

> <Gold.PLP.part.buried>
-5.1802

> <Gold.PLP.part.nonpolar>
-35.4144

> <Gold.PLP.part.repulsive>
0.2397

> <Gold.PLP.ligand.clash>
0.0000

> <Gold.PLP.ligand.torsion>
1.2733

> <Gold.PLP.Chemscore.Hbond>
2.2667

> <Gold.PLP.Chemscore.CHOScore>
0.0000

> <Gold.PLP.Chemscore.Metal>
0.0000

> <Gold.Chemscore.Hbonds>
donor molecule, donor type, donor heavy atom, donor atom, acceptor molecule, acceptor atom, score
      L1  H     9    30       P1  8028  0.85
      L1  H    12    31       P1  8028  0.35
      P1  H  7989  7998       L1    19  1.00

> <Gold.PLP.Chemscore.Internal.Correction>
0.1209

> <Gold.Rescore>
     Score         DG    S(hbond)    S(metal)    S(lipo)     H(rot)  DE(clash)    DE(int)     intcor
     22.66     -25.03       2.68        0.00     122.54       1.46       0.15       2.22       ----

> <Gold.Chemscore.Fitness>
22.6581

> <Gold.Chemscore.DG>
-25.0303

> <Gold.Chemscore.ZeroCoef>
-5.4800

> <Gold.Chemscore.Hbond>
2.6811

> <Gold.Chemscore.Metal>
0.0000

> <Gold.Chemscore.Lipo>
122.5373

> <Gold.Chemscore.Internal_Hbond>
0.0000

> <Gold.Chemscore.DEClash>
0.1524

> <Gold.Chemscore.DEInternal>
2.2197

> <Gold.Chemscore.Rot>
1.4616

> <Gold.Chemscore.Internal.Correction>
   9.000000E+99

> <Gold.Chemscore.Hbonds>
donor molecule, donor type, donor heavy atom, donor atom, acceptor molecule, acceptor atom, score
      L1  H     9    30       P1  8028  0.85
      L1  H    12    31       P1  8028  0.36
      P1  H  7989  7998       L1    19  0.89

> <Gold.Chemscore.Hbond.Weighted>
-8.9550

> <Gold.Chemscore.Metal.Weighted>
-0.0000

> <Gold.Chemscore.Lipo.Weighted>
-14.3369

> <Gold.Chemscore.Internal_Hbond.Weighted>
0.0000

> <Gold.Chemscore.DEClash.Weighted>
0.1524

> <Gold.Chemscore.DEInternal.Weighted>
2.2197

> <Gold.Chemscore.Rot.Weighted>
3.7416

> <Gold.Chemscore.Internal.Correction.Weighted>
   9.000000E+99

> <Gold.Protein.RotatedTorsions>
[ 6907 6896 6895 6894 ] final -154.40 input  -60.11 | X-H torsion
[ 7974 7965 7964 7962 ] final -144.29 input  175.53 | X-H torsion
[ 8008 7997 7996 7995 ] final   34.23 input   59.86 | X-H torsion
[ 10167 10162 10161 10158 ] final  174.59 input  -65.29 | X-H torsion
[ 10718 10713 10712 10709 ] final -141.79 input   66.30 | X-H torsion
[ 10763 10752 10751 10750 ] final  100.39 input  -60.55 | X-H torsion
[ 11005 11000 10999 10996 ] final  160.95 input  -57.11 | X-H torsion

> <Gold.Protein.ActiveResidues>
 VAL166  LYS551  ARG553  GLY616  TRP617  ASP618  TYR619  PRO620  LYS621  CYS622 
 ASP623  PHE694  ASN695  SER759  ASP760  ASP761  ALA762  ILE779  LEU786  VAL792 
 PHE793  MET794  SER795  GLU796  ALA797  LYS798  CYS799  TRP800  GLU811  SER814 

> <Gold.Protein.RotatedAtoms>
  151.2569  133.4322  159.2613 H   0  0  0  0  0  0  0  0  0  0  0  0  # atno 6907 bound_to 6896
  151.0566  134.9709  159.8249 H   0  0  0  0  0  0  0  0  0  0  0  0  # atno 6908 bound_to 6896
  152.5391  134.2521  159.8955 H   0  0  0  0  0  0  0  0  0  0  0  0  # atno 6909 bound_to 6896
  144.8308  140.5728  143.5516 H   0  0  0  0  0  0  0  0  0  0  0  0  # atno 7974 bound_to 7965
  155.1515  140.3275  155.4430 H   0  0  0  0  0  0  0  0  0  0  0  0  # atno 8008 bound_to 7997
  156.2572  140.1976  156.6577 H   0  0  0  0  0  0  0  0  0  0  0  0  # atno 8009 bound_to 7997
  154.6470  140.0563  156.9898 H   0  0  0  0  0  0  0  0  0  0  0  0  # atno 8010 bound_to 7997
  139.5147  144.3129  152.0275 H   0  0  0  0  0  0  0  0  0  0  0  0  # atno 10167 bound_to 10162
  156.3382  130.7623  151.1754 H   0  0  0  0  0  0  0  0  0  0  0  0  # atno 10718 bound_to 10713
  153.3133  135.4080  155.1355 H   0  0  0  0  0  0  0  0  0  0  0  0  # atno 10763 bound_to 10752
  154.8582  135.3570  154.5694 H   0  0  0  0  0  0  0  0  0  0  0  0  # atno 10764 bound_to 10752
  153.6124  135.7067  153.5400 H   0  0  0  0  0  0  0  0  0  0  0  0  # atno 10765 bound_to 10752
  140.2110  134.8267  157.3120 H   0  0  0  0  0  0  0  0  0  0  0  0  # atno 11005 bound_to 11000
  145.4900  139.1489  143.3715 LP  0  0  0  0  0  0  0  0  0  0  0  0  # atno 17320 bound_to 7965
  146.2611  140.5038  142.8853 LP  0  0  0  0  0  0  0  0  0  0  0  0  # atno 17321 bound_to 7965
  140.2573  144.4105  150.6199 LP  0  0  0  0  0  0  0  0  0  0  0  0  # atno 17342 bound_to 10162
  140.6182  143.2174  151.6748 LP  0  0  0  0  0  0  0  0  0  0  0  0  # atno 17343 bound_to 10162
  157.7442  131.0462  150.4881 LP  0  0  0  0  0  0  0  0  0  0  0  0  # atno 17370 bound_to 10713
  156.5057  130.4127  149.6328 LP  0  0  0  0  0  0  0  0  0  0  0  0  # atno 17371 bound_to 10713
  140.1951  134.4324  155.7694 LP  0  0  0  0  0  0  0  0  0  0  0  0  # atno 17394 bound_to 11000
  141.2226  133.7045  156.8091 LP  0  0  0  0  0  0  0  0  0  0  0  0  # atno 17395 bound_to 11000

$$$$
