AV-unprocessed.smi:2878|AV-procd|sdf|11046|dock4
  -GOLD-   2272015513D 1   1.00000     0.00000
 Structure written by MMmdl.
 42 43  0  0  0  0  0  0  0  0  1 V2000
  142.9345  135.2645  153.4622 C   0  0  0  0  0  0  0  0  0  0  0  0
  143.7875  135.5298  151.8847 S   0  0  0  0  0  0  0  0  0  0  0  0
  144.0236  133.8150  151.3161 C   0  0  1  0  0  0  0  0  0  0  0  0
  144.6092  133.7951  149.8906 C   0  0  0  0  0  0  0  0  0  0  0  0
  144.7915  132.3588  149.3758 C   0  0  0  0  0  0  0  0  0  0  0  0
  145.6638  131.5317  150.3318 C   0  0  0  0  0  0  0  0  0  0  0  0
  145.0881  131.5409  151.7582 C   0  0  0  0  0  0  0  0  0  0  0  0
  144.8789  132.9729  152.2952 C   0  0  1  0  0  0  0  0  0  0  0  0
  146.1659  133.6174  152.5589 N   0  0  0  0  0  0  0  0  0  0  0  0
  147.1586  133.0947  153.2912 C   0  0  0  0  0  0  0  0  0  0  0  0
  147.1139  131.9873  153.8276 O   0  0  0  0  0  0  0  0  0  0  0  0
  148.2079  133.9244  153.3693 N   0  0  0  0  0  0  0  0  0  0  0  0
  149.4357  133.6477  154.1058 C   0  0  0  0  0  0  0  0  0  0  0  0
  149.4734  134.3880  155.4526 C   0  0  0  0  0  0  0  0  0  0  0  0
  149.9755  135.7861  155.3170 C   0  0  0  0  0  0  0  0  0  0  0  0
  151.1344  136.1767  154.7921 N   0  0  0  0  0  0  0  0  0  0  0  0
  151.0175  137.5302  154.8818 C   0  0  0  0  0  0  0  0  0  0  0  0
  152.0830  138.4659  154.4225 C   0  0  0  0  0  0  0  0  0  0  0  0
  149.8811  137.9824  155.3974 N   0  0  0  0  0  0  0  0  0  0  0  0
  149.1675  136.8098  155.6842 O   0  0  0  0  0  0  0  0  0  0  0  0
  142.6477  136.2231  153.8946 H   0  0  0  0  0  0  0  0  0  0  0  0
  143.5817  134.7525  154.1733 H   0  0  0  0  0  0  0  0  0  0  0  0
  142.0334  134.6694  153.3148 H   0  0  0  0  0  0  0  0  0  0  0  0
  143.0300  133.3674  151.2654 H   0  0  0  0  0  0  0  0  0  0  0  0
  143.9541  134.3437  149.2131 H   0  0  0  0  0  0  0  0  0  0  0  0
  145.5689  134.3135  149.8742 H   0  0  0  0  0  0  0  0  0  0  0  0
  143.8159  131.8834  149.2680 H   0  0  0  0  0  0  0  0  0  0  0  0
  145.2396  132.3736  148.3819 H   0  0  0  0  0  0  0  0  0  0  0  0
  145.7407  130.5058  149.9700 H   0  0  0  0  0  0  0  0  0  0  0  0
  146.6787  131.9310  150.3405 H   0  0  0  0  0  0  0  0  0  0  0  0
  144.1307  131.0185  151.7572 H   0  0  0  0  0  0  0  0  0  0  0  0
  145.7385  130.9755  152.4268 H   0  0  0  0  0  0  0  0  0  0  0  0
  144.3323  132.8922  153.2354 H   0  0  0  0  0  0  0  0  0  0  0  0
  146.3003  134.5363  152.1631 H   0  0  0  0  0  0  0  0  0  0  0  0
  148.1495  134.8138  152.8949 H   0  0  0  0  0  0  0  0  0  0  0  0
  149.4944  132.5717  154.2725 H   0  0  0  0  0  0  0  0  0  0  0  0
  150.3017  133.9157  153.4978 H   0  0  0  0  0  0  0  0  0  0  0  0
  148.4784  134.4229  155.8981 H   0  0  0  0  0  0  0  0  0  0  0  0
  150.1128  133.8546  156.1570 H   0  0  0  0  0  0  0  0  0  0  0  0
  152.0972  139.3649  155.0397 H   0  0  0  0  0  0  0  0  0  0  0  0
  151.9058  138.7576  153.3872 H   0  0  0  0  0  0  0  0  0  0  0  0
  153.0627  137.9912  154.4866 H   0  0  0  0  0  0  0  0  0  0  0  0
  1  2  1  0  0  0  0
  1 21  1  0  0  0  0
  1 22  1  0  0  0  0
  1 23  1  0  0  0  0
  2  3  1  0  0  0  0
  3  8  1  0  0  0  0
  3  4  1  0  0  0  0
  3 24  1  0  0  0  0
  4  5  1  0  0  0  0
  4 25  1  0  0  0  0
  4 26  1  0  0  0  0
  5  6  1  0  0  0  0
  5 27  1  0  0  0  0
  5 28  1  0  0  0  0
  6  7  1  0  0  0  0
  6 29  1  0  0  0  0
  6 30  1  0  0  0  0
  7  8  1  0  0  0  0
  7 31  1  0  0  0  0
  7 32  1  0  0  0  0
  8  9  1  0  0  0  0
  8 33  1  0  0  0  0
  9 10  1  0  0  0  0
  9 34  1  0  0  0  0
 10 11  2  0  0  0  0
 10 12  1  0  0  0  0
 12 13  1  0  0  0  0
 12 35  1  0  0  0  0
 13 14  1  0  0  0  0
 13 36  1  0  0  0  0
 13 37  1  0  0  0  0
 14 15  1  0  0  0  0
 14 38  1  0  0  0  0
 14 39  1  0  0  0  0
 15 20  1  0  0  0  0
 15 16  2  0  0  0  0
 16 17  1  0  0  0  0
 17 18  1  0  0  0  0
 17 19  2  0  0  0  0
 18 40  1  0  0  0  0
 18 41  1  0  0  0  0
 18 42  1  0  0  0  0
 19 20  1  0  0  0  0
M  END
> <s_m_source_file>
AV-unprocessed.smi

> <i_m_source_file_index>
2878

> <i_lp_mmshare_version>
43012

> <i_f3d_flags>
0

> <s_epik_input>
W0NIM11TW0NAQEhdMVtDSDJdW0NIMl1bQ0gyXVtDSDJdW0NASF0xW05IXUMoPU8pW05IXVtDSDJdW0NIMl1jMm5jKFtDSDNdKW5vMg==

> <s_epik_cmdline>
J2VwaWtfcHl0aG9uJywgJy1waCcsICc3LjAnLCAnLXRuJywgJzgnLCAnLW1hJywgJzIwMCcsICctbWV0YWxfYmluZGluZycsICctaW1hZScsICc8aW5maWxlLm1hZT4nLCAnLW9tYWUnLCAnPG91dGZpbGUubWFlPic=

> <r_lp_tautomer_probability>
1

> <r_epik_Ionization_Penalty>
4.9299e-05

> <r_epik_Ionization_Penalty_Charging>
0

> <r_epik_Ionization_Penalty_Neutral>
4.9299e-05

> <r_epik_State_Penalty>
-0

> <r_epik_Charging_Adjusted_Penalty>
0

> <i_epik_Tot_Q>
0

> <i_epik_Tot_abs_Q>
0

> <r_epik_Metal_State_Penalty>
-0

> <b_epik_Metal_Only>
0

> <s_lp_Force_Field>
OPLS_2005

> <r_lp_Energy>
0.0435146

> <b_lp_Chiralities_Consistent>
1

> <s_lp_Variant>
AV-unprocessed.smi:2878-2

> <Gold.Version>
5.8.1

> <Gold.Id.Protein>
6NUR|6NUR_protein|mol2

> <Gold.PLP.Fitness>
40.3050

> <Gold.PLP.PLP>
-35.2119

> <Gold.PLP.part.hbond>
-2.0000

> <Gold.PLP.part.metal>
0.0000

> <Gold.PLP.part.buried>
-3.8827

> <Gold.PLP.part.nonpolar>
-27.7778

> <Gold.PLP.part.repulsive>
0.4058

> <Gold.PLP.ligand.clash>
0.0000

> <Gold.PLP.ligand.torsion>
0.3231

> <Gold.PLP.Chemscore.Hbond>
1.8960

> <Gold.PLP.Chemscore.CHOScore>
0.0000

> <Gold.PLP.Chemscore.Metal>
0.0000

> <Gold.Chemscore.Hbonds>
donor molecule, donor type, donor heavy atom, donor atom, acceptor molecule, acceptor atom, score
      L1  H    12    35       P1  7948  0.99
      P1  H 10752 10764       L1    16  1.00

> <Gold.PLP.Chemscore.Internal.Correction>
0.0512

> <Gold.Rescore>
     Score         DG    S(hbond)    S(metal)    S(lipo)     H(rot)  DE(clash)    DE(int)     intcor
     12.93     -14.65       1.74        0.00      74.51       2.09       0.02       1.70       ----

> <Gold.Chemscore.Fitness>
12.9284

> <Gold.Chemscore.DG>
-14.6470

> <Gold.Chemscore.ZeroCoef>
-5.4800

> <Gold.Chemscore.Hbond>
1.7383

> <Gold.Chemscore.Metal>
0.0000

> <Gold.Chemscore.Lipo>
74.5060

> <Gold.Chemscore.Internal_Hbond>
0.0000

> <Gold.Chemscore.DEClash>
0.0153

> <Gold.Chemscore.DEInternal>
1.7034

> <Gold.Chemscore.Rot>
2.0923

> <Gold.Chemscore.Internal.Correction>
   9.000000E+99

> <Gold.Chemscore.Hbonds>
donor molecule, donor type, donor heavy atom, donor atom, acceptor molecule, acceptor atom, score
      L1  H    12    35       P1  7948  0.74
      P1  H 10752 10764       L1    16  0.82

> <Gold.Chemscore.Hbond.Weighted>
-5.8061

> <Gold.Chemscore.Metal.Weighted>
-0.0000

> <Gold.Chemscore.Lipo.Weighted>
-8.7172

> <Gold.Chemscore.Internal_Hbond.Weighted>
0.0000

> <Gold.Chemscore.DEClash.Weighted>
0.0153

> <Gold.Chemscore.DEInternal.Weighted>
1.7034

> <Gold.Chemscore.Rot.Weighted>
5.3562

> <Gold.Chemscore.Internal.Correction.Weighted>
   9.000000E+99

> <Gold.Protein.RotatedTorsions>
[ 6907 6896 6895 6894 ] final  -88.39 input  -60.11 | X-H torsion
[ 7974 7965 7964 7962 ] final   62.53 input  175.53 | X-H torsion
[ 8008 7997 7996 7995 ] final   62.62 input   59.86 | X-H torsion
[ 10167 10162 10161 10158 ] final   71.20 input  -65.29 | X-H torsion
[ 10718 10713 10712 10709 ] final   26.81 input   66.30 | X-H torsion
[ 10763 10752 10751 10750 ] final  -74.80 input  -60.55 | X-H torsion
[ 11005 11000 10999 10996 ] final  164.57 input  -57.11 | X-H torsion

> <Gold.Protein.ActiveResidues>
 VAL166  LYS551  ARG553  GLY616  TRP617  ASP618  TYR619  PRO620  LYS621  CYS622 
 ASP623  PHE694  ASN695  SER759  ASP760  ASP761  ALA762  ILE779  LEU786  VAL792 
 PHE793  MET794  SER795  GLU796  ALA797  LYS798  CYS799  TRP800  GLU811  SER814 

> <Gold.Protein.RotatedAtoms>
  150.6868  134.2748  159.4602 H   0  0  0  0  0  0  0  0  0  0  0  0  # atno 6907 bound_to 6896
  152.0667  134.9557  160.0584 H   0  0  0  0  0  0  0  0  0  0  0  0  # atno 6908 bound_to 6896
  152.0963  133.4191  159.4603 H   0  0  0  0  0  0  0  0  0  0  0  0  # atno 6909 bound_to 6896
  145.8723  139.3386  143.0755 H   0  0  0  0  0  0  0  0  0  0  0  0  # atno 7974 bound_to 7965
  155.6173  140.3495  155.4641 H   0  0  0  0  0  0  0  0  0  0  0  0  # atno 8008 bound_to 7997
  156.0107  140.1232  157.0480 H   0  0  0  0  0  0  0  0  0  0  0  0  # atno 8009 bound_to 7997
  154.4280  140.1082  156.5812 H   0  0  0  0  0  0  0  0  0  0  0  0  # atno 8010 bound_to 7997
  140.0487  144.5330  150.7379 H   0  0  0  0  0  0  0  0  0  0  0  0  # atno 10167 bound_to 10162
  157.2119  130.6938  149.6232 H   0  0  0  0  0  0  0  0  0  0  0  0  # atno 10718 bound_to 10713
  154.4780  135.5852  153.6369 H   0  0  0  0  0  0  0  0  0  0  0  0  # atno 10763 bound_to 10752
  152.9843  135.6083  154.3282 H   0  0  0  0  0  0  0  0  0  0  0  0  # atno 10764 bound_to 10752
  154.3170  135.2844  155.2517 H   0  0  0  0  0  0  0  0  0  0  0  0  # atno 10765 bound_to 10752
  140.2473  134.8005  157.3468 H   0  0  0  0  0  0  0  0  0  0  0  0  # atno 11005 bound_to 11000
  145.9123  140.9172  143.0448 LP  0  0  0  0  0  0  0  0  0  0  0  0  # atno 17320 bound_to 7965
  144.6726  140.1176  143.7451 LP  0  0  0  0  0  0  0  0  0  0  0  0  # atno 17321 bound_to 7965
  140.7227  143.2604  151.4225 LP  0  0  0  0  0  0  0  0  0  0  0  0  # atno 17342 bound_to 10162
  139.5967  144.1382  152.2152 LP  0  0  0  0  0  0  0  0  0  0  0  0  # atno 17343 bound_to 10162
  155.9690  130.4548  150.5865 LP  0  0  0  0  0  0  0  0  0  0  0  0  # atno 17370 bound_to 10713
  157.3664  131.0758  151.1594 LP  0  0  0  0  0  0  0  0  0  0  0  0  # atno 17371 bound_to 10713
  140.1593  134.4748  155.7905 LP  0  0  0  0  0  0  0  0  0  0  0  0  # atno 17394 bound_to 11000
  141.2205  133.6895  156.7517 LP  0  0  0  0  0  0  0  0  0  0  0  0  # atno 17395 bound_to 11000

$$$$
