AV-unprocessed.smi:212|AV-procd|sdf|1618|dock1
  -GOLD-   2262019543D 1   1.00000     0.00000
 Structure written by MMmdl.
 65 68  0  0  0  0  0  0  0  0  2 V2000
  144.3178  135.0537  154.8059 C   0  0  0  0  0  0  0  0  0  0  0  0
  145.6594  135.6711  154.3765 C   0  0  1  0  0  0  0  0  0  0  0  0
  146.3684  134.8287  153.2952 C   0  0  0  0  0  0  0  0  0  0  0  0
  145.6864  134.9445  151.9799 N   0  3  2  0  0  0  0  0  0  0  0  0
  146.2480  134.0417  150.9414 C   0  0  0  0  0  0  0  0  0  0  0  0
  145.4496  132.7236  150.8206 C   0  0  0  0  0  0  0  0  0  0  0  0
  143.9439  133.0207  150.7250 C   0  0  0  0  0  0  0  0  0  0  0  0
  145.8983  131.8605  149.6271 C   0  0  0  0  0  0  0  0  0  0  0  0
  145.6443  131.9767  152.0058 O   0  0  0  0  0  0  0  0  0  0  0  0
  145.5649  136.3543  151.5321 C   0  0  0  0  0  0  0  0  0  0  0  0
  144.8647  137.2128  152.6019 C   0  0  0  0  0  0  0  0  0  0  0  0
  145.4962  137.0517  153.9130 N   0  0  0  0  0  0  0  0  0  0  0  0
  146.4776  137.9187  154.2762 C   0  0  0  0  0  0  0  0  0  0  0  0
  146.9364  138.8373  153.3847 N   0  0  0  0  0  0  0  0  0  0  0  0
  147.9130  139.6824  153.7272 C   0  0  0  0  0  0  0  0  0  0  0  0
  148.5592  139.7825  154.8896 N   0  0  0  0  0  0  0  0  0  0  0  0
  148.0957  138.8733  155.7935 C   0  0  0  0  0  0  0  0  0  0  0  0
  147.0692  137.9125  155.5711 C   0  0  0  0  0  0  0  0  0  0  0  0
  146.8670  137.1618  156.7232 N   0  0  0  0  0  0  0  0  0  0  0  0
  147.7296  137.6449  157.5750 C   0  0  0  0  0  0  0  0  0  0  0  0
  148.4976  138.6864  157.1046 N   0  0  0  0  0  0  0  0  0  0  0  0
  149.5340  139.3994  157.8291 C   0  0  0  0  0  0  0  0  0  0  0  0
  150.1956  140.5700  157.0477 C   0  0  2  0  0  0  0  0  0  0  0  0
  151.3531  140.0315  156.1777 C   0  0  0  0  0  0  0  0  0  0  0  0
  151.0454  140.1176  154.8016 O   0  0  0  0  0  0  0  0  0  0  0  0
  150.6950  141.7776  157.8949 C   0  0  2  0  0  0  0  0  0  0  0  0
  151.2825  142.9577  157.1436 C   0  0  0  0  0  0  0  0  0  0  0  0
  151.9546  143.7474  158.2666 C   0  0  0  0  0  0  0  0  0  0  0  0
  152.2373  142.8138  159.3079 O   0  0  0  0  0  0  0  0  0  0  0  0
  151.7775  141.5177  158.9434 C   0  0  0  0  0  0  0  0  0  0  0  0
  144.4627  134.0506  155.2079 H   0  0  0  0  0  0  0  0  0  0  0  0
  143.6160  134.9758  153.9753 H   0  0  0  0  0  0  0  0  0  0  0  0
  143.8465  135.6532  155.5854 H   0  0  0  0  0  0  0  0  0  0  0  0
  146.3018  135.6517  155.2565 H   0  0  0  0  0  0  0  0  0  0  0  0
  147.4006  135.1662  153.1872 H   0  0  0  0  0  0  0  0  0  0  0  0
  146.4134  133.7845  153.6063 H   0  0  0  0  0  0  0  0  0  0  0  0
  146.2561  134.5462  149.9736 H   0  0  0  0  0  0  0  0  0  0  0  0
  147.2948  133.8235  151.1595 H   0  0  0  0  0  0  0  0  0  0  0  0
  143.7120  133.5971  149.8288 H   0  0  0  0  0  0  0  0  0  0  0  0
  143.5945  133.5951  151.5840 H   0  0  0  0  0  0  0  0  0  0  0  0
  143.3571  132.1021  150.6842 H   0  0  0  0  0  0  0  0  0  0  0  0
  145.7944  132.4043  148.6876 H   0  0  0  0  0  0  0  0  0  0  0  0
  145.3002  130.9522  149.5479 H   0  0  0  0  0  0  0  0  0  0  0  0
  146.9401  131.5515  149.7170 H   0  0  0  0  0  0  0  0  0  0  0  0
  145.7785  132.5780  152.7228 H   0  0  0  0  0  0  0  0  0  0  0  0
  146.5581  136.7501  151.3157 H   0  0  0  0  0  0  0  0  0  0  0  0
  144.9960  136.3974  150.6025 H   0  0  0  0  0  0  0  0  0  0  0  0
  144.8467  138.2611  152.3013 H   0  0  0  0  0  0  0  0  0  0  0  0
  143.8201  136.9128  152.6856 H   0  0  0  0  0  0  0  0  0  0  0  0
  148.2211  140.3781  152.9606 H   0  0  0  0  0  0  0  0  0  0  0  0
  147.8231  137.2560  158.5785 H   0  0  0  0  0  0  0  0  0  0  0  0
  149.1203  139.7565  158.7723 H   0  0  0  0  0  0  0  0  0  0  0  0
  150.2879  138.6601  158.1006 H   0  0  0  0  0  0  0  0  0  0  0  0
  149.4541  140.9712  156.3558 H   0  0  0  0  0  0  0  0  0  0  0  0
  152.2637  140.6083  156.3413 H   0  0  0  0  0  0  0  0  0  0  0  0
  151.5806  138.9960  156.4328 H   0  0  0  0  0  0  0  0  0  0  0  0
  150.1055  140.1318  154.7036 H   0  0  0  0  0  0  0  0  0  0  0  0
  149.8404  142.1536  158.4603 H   0  0  0  0  0  0  0  0  0  0  0  0
  152.0387  142.6358  156.4293 H   0  0  0  0  0  0  0  0  0  0  0  0
  150.5340  143.5412  156.6071 H   0  0  0  0  0  0  0  0  0  0  0  0
  152.8631  144.2461  157.9278 H   0  0  0  0  0  0  0  0  0  0  0  0
  151.2790  144.5077  158.6597 H   0  0  0  0  0  0  0  0  0  0  0  0
  151.4003  140.9722  159.8088 H   0  0  0  0  0  0  0  0  0  0  0  0
  152.6279  140.9705  158.5468 H   0  0  0  0  0  0  0  0  0  0  0  0
  144.7388  134.6264  152.1268 H   0  0  0  0  0  0  0  0  0  0  0  0
  1  2  1  0  0  0  0
  1 31  1  0  0  0  0
  1 32  1  0  0  0  0
  1 33  1  0  0  0  0
  2 12  1  0  0  0  0
  2  3  1  0  0  0  0
  2 34  1  0  0  0  0
  3  4  1  0  0  0  0
  3 35  1  0  0  0  0
  3 36  1  0  0  0  0
  4  5  1  0  0  0  0
  4 10  1  0  0  0  0
  4 65  1  0  0  0  0
  5  6  1  0  0  0  0
  5 37  1  0  0  0  0
  5 38  1  0  0  0  0
  6  7  1  0  0  0  0
  6  8  1  0  0  0  0
  6  9  1  0  0  0  0
  7 39  1  0  0  0  0
  7 40  1  0  0  0  0
  7 41  1  0  0  0  0
  8 42  1  0  0  0  0
  8 43  1  0  0  0  0
  8 44  1  0  0  0  0
  9 45  1  0  0  0  0
 10 11  1  0  0  0  0
 10 46  1  0  0  0  0
 10 47  1  0  0  0  0
 11 12  1  0  0  0  0
 11 48  1  0  0  0  0
 11 49  1  0  0  0  0
 12 13  1  0  0  0  0
 13 18  1  0  0  0  0
 13 14  2  0  0  0  0
 14 15  1  0  0  0  0
 15 16  2  0  0  0  0
 15 50  1  0  0  0  0
 16 17  1  0  0  0  0
 17 21  1  0  0  0  0
 17 18  2  0  0  0  0
 18 19  1  0  0  0  0
 19 20  2  0  0  0  0
 20 21  1  0  0  0  0
 20 51  1  0  0  0  0
 21 22  1  0  0  0  0
 22 23  1  0  0  0  0
 22 52  1  0  0  0  0
 22 53  1  0  0  0  0
 23 24  1  0  0  0  0
 23 26  1  0  0  0  0
 23 54  1  0  0  0  0
 24 25  1  0  0  0  0
 24 55  1  0  0  0  0
 24 56  1  0  0  0  0
 25 57  1  0  0  0  0
 26 30  1  0  0  0  0
 26 27  1  0  0  0  0
 26 58  1  0  0  0  0
 27 28  1  0  0  0  0
 27 59  1  0  0  0  0
 27 60  1  0  0  0  0
 28 29  1  0  0  0  0
 28 61  1  0  0  0  0
 28 62  1  0  0  0  0
 29 30  1  0  0  0  0
 30 63  1  0  0  0  0
 30 64  1  0  0  0  0
M  CHG  1   4   1
M  END
> <s_m_source_file>
AV-unprocessed.smi

> <i_m_source_file_index>
212

> <i_lp_mmshare_version>
43012

> <i_f3d_flags>
0

> <s_epik_input>
W0NIM11bQ0BASF0xW0NIMl1OKFtDSDJdQyhbQ0gzXSkoW0NIM10pW09IXSlbQ0gyXVtDSDJdTjFjKG5bY0hdbjIpYyhjMjMpbltjSF1uM1tDSDJdW0NASF0oW0NIMl1bT0hdKVtDQEBIXTRbQ0gyXVtDSDJdT1tDSDJdNA==

> <s_epik_cmdline>
J2VwaWtfcHl0aG9uJywgJy1waCcsICc3LjAnLCAnLXRuJywgJzgnLCAnLW1hJywgJzIwMCcsICctbWV0YWxfYmluZGluZycsICctaW1hZScsICc8aW5maWxlLm1hZT4nLCAnLW9tYWUnLCAnPG91dGZpbGUubWFlPic=

> <r_lp_tautomer_probability>
1

> <r_epik_Ionization_Penalty>
0.00182193

> <r_epik_Ionization_Penalty_Charging>
0.00173996

> <r_epik_Ionization_Penalty_Neutral>
8.19718e-05

> <r_epik_State_Penalty>
-0

> <r_epik_Charging_Adjusted_Penalty>
0.00173996

> <i_epik_Tot_Q>
1

> <i_epik_Tot_abs_Q>
1

> <r_epik_Metal_State_Penalty>
-0

> <b_epik_Metal_Only>
0

> <s_lp_Force_Field>
OPLS_2005

> <r_lp_Energy>
59.4292

> <b_lp_Chiralities_Consistent>
1

> <s_lp_Variant>
AV-unprocessed.smi:212-2

> <Gold.Version>
5.8.1

> <Gold.Id.Protein>
6NUR|6NUR_protein|mol2

> <Gold.PLP.Fitness>
41.4847

> <Gold.PLP.PLP>
-38.3877

> <Gold.PLP.part.hbond>
-1.0000

> <Gold.PLP.part.metal>
0.0000

> <Gold.PLP.part.buried>
-7.3974

> <Gold.PLP.part.nonpolar>
-30.3678

> <Gold.PLP.part.repulsive>
0.2954

> <Gold.PLP.ligand.clash>
0.0000

> <Gold.PLP.ligand.torsion>
2.0610

> <Gold.PLP.Chemscore.Hbond>
1.0000

> <Gold.PLP.Chemscore.CHOScore>
0.9763

> <Gold.PLP.Chemscore.Metal>
0.0000

> <Gold.Chemscore.Hbonds>
donor molecule, donor type, donor heavy atom, donor atom, acceptor molecule, acceptor atom, score
      P1  H  7989  7998       L1    25  1.00
      L1  C    15    50       P1  7957  0.99

> <Gold.PLP.Chemscore.Internal.Correction>
1.2904

> <Gold.Rescore>
     Score         DG    S(hbond)    S(metal)    S(lipo)     H(rot)  DE(clash)    DE(int)     intcor
      8.20     -11.71       0.95        0.00     100.45       3.40       0.04       3.47       ----

> <Gold.Chemscore.Fitness>
8.2044

> <Gold.Chemscore.DG>
-11.7109

> <Gold.Chemscore.ZeroCoef>
-5.4800

> <Gold.Chemscore.Hbond>
0.9517

> <Gold.Chemscore.Metal>
0.0000

> <Gold.Chemscore.Lipo>
100.4505

> <Gold.Chemscore.Internal_Hbond>
0.0000

> <Gold.Chemscore.DEClash>
0.0383

> <Gold.Chemscore.DEInternal>
3.4681

> <Gold.Chemscore.Rot>
3.3986

> <Gold.Chemscore.Internal.Correction>
   9.000000E+99

> <Gold.Chemscore.Hbonds>
donor molecule, donor type, donor heavy atom, donor atom, acceptor molecule, acceptor atom, score
      P1  H  7989  7998       L1    25  0.55

> <Gold.Chemscore.Hbond.Weighted>
-3.1787

> <Gold.Chemscore.Metal.Weighted>
-0.0000

> <Gold.Chemscore.Lipo.Weighted>
-11.7527

> <Gold.Chemscore.Internal_Hbond.Weighted>
0.0000

> <Gold.Chemscore.DEClash.Weighted>
0.0383

> <Gold.Chemscore.DEInternal.Weighted>
3.4681

> <Gold.Chemscore.Rot.Weighted>
8.7005

> <Gold.Chemscore.Internal.Correction.Weighted>
   9.000000E+99

> <Gold.Protein.RotatedTorsions>
[ 6907 6896 6895 6894 ] final -173.58 input  -60.11 | X-H torsion
[ 7974 7965 7964 7962 ] final -173.03 input  175.53 | X-H torsion
[ 8008 7997 7996 7995 ] final   79.68 input   59.86 | X-H torsion
[ 10167 10162 10161 10158 ] final   51.29 input  -65.29 | X-H torsion
[ 10718 10713 10712 10709 ] final   91.32 input   66.30 | X-H torsion
[ 10763 10752 10751 10750 ] final  -60.27 input  -60.55 | X-H torsion
[ 11005 11000 10999 10996 ] final  -93.80 input  -57.11 | X-H torsion

> <Gold.Protein.ActiveResidues>
 VAL166  LYS551  ARG553  GLY616  TRP617  ASP618  TYR619  PRO620  LYS621  CYS622 
 ASP623  PHE694  ASN695  SER759  ASP760  ASP761  ALA762  ILE779  LEU786  VAL792 
 PHE793  MET794  SER795  GLU796  ALA797  LYS798  CYS799  TRP800  GLU811  SER814 

> <Gold.Protein.RotatedAtoms>
  151.5585  133.3406  159.2966 H   0  0  0  0  0  0  0  0  0  0  0  0  # atno 6907 bound_to 6896
  150.8436  134.7740  159.6964 H   0  0  0  0  0  0  0  0  0  0  0  0  # atno 6908 bound_to 6896
  152.4499  134.5423  159.9894 H   0  0  0  0  0  0  0  0  0  0  0  0  # atno 6909 bound_to 6896
  144.7141  140.1683  143.6370 H   0  0  0  0  0  0  0  0  0  0  0  0  # atno 7974 bound_to 7965
  155.8731  140.3448  155.5835 H   0  0  0  0  0  0  0  0  0  0  0  0  # atno 8008 bound_to 7997
  155.7805  140.0858  157.2081 H   0  0  0  0  0  0  0  0  0  0  0  0  # atno 8009 bound_to 7997
  154.4019  140.1501  156.3034 H   0  0  0  0  0  0  0  0  0  0  0  0  # atno 8010 bound_to 7997
  140.2635  144.3346  150.6311 H   0  0  0  0  0  0  0  0  0  0  0  0  # atno 10167 bound_to 10162
  157.6960  131.0403  150.3712 H   0  0  0  0  0  0  0  0  0  0  0  0  # atno 10718 bound_to 10713
  154.2666  135.6298  153.5294 H   0  0  0  0  0  0  0  0  0  0  0  0  # atno 10763 bound_to 10752
  152.9887  135.5600  154.5646 H   0  0  0  0  0  0  0  0  0  0  0  0  # atno 10764 bound_to 10752
  154.5207  135.2882  155.1240 H   0  0  0  0  0  0  0  0  0  0  0  0  # atno 10765 bound_to 10752
  141.1488  133.7912  157.0209 H   0  0  0  0  0  0  0  0  0  0  0  0  # atno 11005 bound_to 11000
  145.8967  139.2407  143.1518 LP  0  0  0  0  0  0  0  0  0  0  0  0  # atno 17320 bound_to 7965
  145.9851  140.8650  143.0095 LP  0  0  0  0  0  0  0  0  0  0  0  0  # atno 17321 bound_to 7965
  140.5947  143.2167  151.7187 LP  0  0  0  0  0  0  0  0  0  0  0  0  # atno 17342 bound_to 10162
  139.5010  144.3886  152.0303 LP  0  0  0  0  0  0  0  0  0  0  0  0  # atno 17343 bound_to 10162
  156.4137  130.3939  149.6873 LP  0  0  0  0  0  0  0  0  0  0  0  0  # atno 17370 bound_to 10713
  156.4149  130.7740  151.2755 LP  0  0  0  0  0  0  0  0  0  0  0  0  # atno 17371 bound_to 10713
  140.0816  134.9645  157.1633 LP  0  0  0  0  0  0  0  0  0  0  0  0  # atno 17394 bound_to 11000
  140.3569  134.2537  155.7191 LP  0  0  0  0  0  0  0  0  0  0  0  0  # atno 17395 bound_to 11000

$$$$
