AV-unprocessed.smi:1232|AV-procd|sdf|5170|dock8
  -GOLD-   22720 4243D 1   1.00000     0.00000
 Structure written by MMmdl.
 53 54  0  0  0  0  0  0  0  0  1 V2000
  147.3565  132.9248  152.5685 C   0  0  0  0  0  0  0  0  0  0  0  0
  147.8669  133.2664  153.9641 C   0  0  0  0  0  0  0  0  0  0  0  0
  147.9165  132.3923  154.8276 O   0  0  0  0  0  0  0  0  0  0  0  0
  148.2333  134.5460  154.1593 N   0  0  0  0  0  0  0  0  0  0  0  0
  148.7907  135.1705  155.3676 C   0  0  1  0  0  0  0  0  0  0  0  0
  149.9493  136.1220  155.0169 C   0  0  0  0  0  0  0  0  0  0  0  0
  151.1181  135.7534  155.1357 O   0  0  0  0  0  0  0  0  0  0  0  0
  149.6113  137.3400  154.5640 N   0  0  0  0  0  0  0  0  0  0  0  0
  150.5586  138.3762  154.1661 C   0  0  0  0  0  0  0  0  0  0  0  0
  151.0152  139.2833  155.3005 C   0  0  0  0  0  0  0  0  0  0  0  0
  150.5158  140.5926  155.4625 C   0  0  0  0  0  0  0  0  0  0  0  0
  150.9878  141.3774  156.5316 C   0  0  0  0  0  0  0  0  0  0  0  0
  151.9508  140.8350  157.4158 C   0  0  0  0  0  0  0  0  0  0  0  0
  152.4361  141.6014  158.4984 N   0  0  0  0  0  0  0  0  0  0  0  0
  153.2650  140.9289  159.4972 C   0  0  0  0  0  0  0  0  0  0  0  0
  153.9335  141.9599  160.4213 C   0  0  0  0  0  0  0  0  0  0  0  0
  152.9403  142.7987  161.0013 O   0  0  0  0  0  0  0  0  0  0  0  0
  152.2181  143.5340  160.0175 C   0  0  2  0  0  0  0  0  0  0  0  0
  151.2429  144.4713  160.7378 C   0  0  0  0  0  0  0  0  0  0  0  0
  151.4900  142.5512  159.0795 C   0  0  0  0  0  0  0  0  0  0  0  0
  152.4386  139.5810  157.2469 N   0  0  0  0  0  0  0  0  0  0  0  0
  151.9821  138.8325  156.2208 C   0  0  0  0  0  0  0  0  0  0  0  0
  147.7203  135.7478  156.3466 C   0  0  0  0  0  0  0  0  0  0  0  0
  148.3363  136.3041  157.6456 C   0  0  0  0  0  0  0  0  0  0  0  0
  146.6397  134.7088  156.7046 C   0  0  0  0  0  0  0  0  0  0  0  0
  146.6401  133.6721  152.2256 H   0  0  0  0  0  0  0  0  0  0  0  0
  146.8618  131.9530  152.5647 H   0  0  0  0  0  0  0  0  0  0  0  0
  148.1861  132.8899  151.8618 H   0  0  0  0  0  0  0  0  0  0  0  0
  148.1272  135.1642  153.3685 H   0  0  0  0  0  0  0  0  0  0  0  0
  149.2488  134.3310  155.8936 H   0  0  0  0  0  0  0  0  0  0  0  0
  148.6294  137.5624  154.4849 H   0  0  0  0  0  0  0  0  0  0  0  0
  151.4253  137.9149  153.6893 H   0  0  0  0  0  0  0  0  0  0  0  0
  150.0833  138.9959  153.4055 H   0  0  0  0  0  0  0  0  0  0  0  0
  149.7853  140.9989  154.7789 H   0  0  0  0  0  0  0  0  0  0  0  0
  150.6181  142.3848  156.6501 H   0  0  0  0  0  0  0  0  0  0  0  0
  152.6444  140.2496  160.0836 H   0  0  0  0  0  0  0  0  0  0  0  0
  154.0353  140.3300  159.0095 H   0  0  0  0  0  0  0  0  0  0  0  0
  154.4782  141.4522  161.2171 H   0  0  0  0  0  0  0  0  0  0  0  0
  154.6595  142.5620  159.8725 H   0  0  0  0  0  0  0  0  0  0  0  0
  152.9180  144.1407  159.4399 H   0  0  0  0  0  0  0  0  0  0  0  0
  150.6719  145.0666  160.0251 H   0  0  0  0  0  0  0  0  0  0  0  0
  151.7767  145.1597  161.3932 H   0  0  0  0  0  0  0  0  0  0  0  0
  150.5352  143.9104  161.3488 H   0  0  0  0  0  0  0  0  0  0  0  0
  150.9667  143.1189  158.3115 H   0  0  0  0  0  0  0  0  0  0  0  0
  150.7318  141.9950  159.6328 H   0  0  0  0  0  0  0  0  0  0  0  0
  152.4029  137.8415  156.1345 H   0  0  0  0  0  0  0  0  0  0  0  0
  147.2199  136.5887  155.8673 H   0  0  0  0  0  0  0  0  0  0  0  0
  148.9063  135.5391  158.1734 H   0  0  0  0  0  0  0  0  0  0  0  0
  147.5618  136.6648  158.3229 H   0  0  0  0  0  0  0  0  0  0  0  0
  149.0019  137.1458  157.4531 H   0  0  0  0  0  0  0  0  0  0  0  0
  147.0768  133.8353  157.1890 H   0  0  0  0  0  0  0  0  0  0  0  0
  146.0958  134.3639  155.8258 H   0  0  0  0  0  0  0  0  0  0  0  0
  145.9020  135.1302  157.3877 H   0  0  0  0  0  0  0  0  0  0  0  0
  1  2  1  0  0  0  0
  1 26  1  0  0  0  0
  1 27  1  0  0  0  0
  1 28  1  0  0  0  0
  2  3  2  0  0  0  0
  2  4  1  0  0  0  0
  4  5  1  0  0  0  0
  4 29  1  0  0  0  0
  5  6  1  0  0  0  0
  5 23  1  0  0  0  0
  5 30  1  0  0  0  0
  6  7  2  0  0  0  0
  6  8  1  0  0  0  0
  8  9  1  0  0  0  0
  8 31  1  0  0  0  0
  9 10  1  0  0  0  0
  9 32  1  0  0  0  0
  9 33  1  0  0  0  0
 10 22  1  0  0  0  0
 10 11  2  0  0  0  0
 11 12  1  0  0  0  0
 11 34  1  0  0  0  0
 12 13  2  0  0  0  0
 12 35  1  0  0  0  0
 13 14  1  0  0  0  0
 13 21  1  0  0  0  0
 14 20  1  0  0  0  0
 14 15  1  0  0  0  0
 15 16  1  0  0  0  0
 15 36  1  0  0  0  0
 15 37  1  0  0  0  0
 16 17  1  0  0  0  0
 16 38  1  0  0  0  0
 16 39  1  0  0  0  0
 17 18  1  0  0  0  0
 18 19  1  0  0  0  0
 18 20  1  0  0  0  0
 18 40  1  0  0  0  0
 19 41  1  0  0  0  0
 19 42  1  0  0  0  0
 19 43  1  0  0  0  0
 20 44  1  0  0  0  0
 20 45  1  0  0  0  0
 21 22  2  0  0  0  0
 22 46  1  0  0  0  0
 23 24  1  0  0  0  0
 23 25  1  0  0  0  0
 23 47  1  0  0  0  0
 24 48  1  0  0  0  0
 24 49  1  0  0  0  0
 24 50  1  0  0  0  0
 25 51  1  0  0  0  0
 25 52  1  0  0  0  0
 25 53  1  0  0  0  0
M  END
> <s_m_source_file>
AV-unprocessed.smi

> <i_m_source_file_index>
1232

> <i_lp_mmshare_version>
43012

> <i_f3d_flags>
0

> <s_epik_input>
W0NIM11DKD1PKVtOSF1bQ0BASF0oW0NIXShbQ0gzXSlbQ0gzXSlDKD1PKVtOSF1bQ0gyXWMxW2NIXVtjSF1jKG5bY0hdMSlOMltDSDJdW0NIMl1PW0NAQEhdKFtDSDNdKVtDSDJdMg==

> <s_epik_cmdline>
J2VwaWtfcHl0aG9uJywgJy1waCcsICc3LjAnLCAnLXRuJywgJzgnLCAnLW1hJywgJzIwMCcsICctbWV0YWxfYmluZGluZycsICctaW1hZScsICc8aW5maWxlLm1hZT4nLCAnLW9tYWUnLCAnPG91dGZpbGUubWFlPic=

> <r_lp_tautomer_probability>
1

> <r_epik_Ionization_Penalty>
0.00557618

> <r_epik_Ionization_Penalty_Charging>
0

> <r_epik_Ionization_Penalty_Neutral>
0.00557618

> <r_epik_State_Penalty>
0.00408363

> <r_epik_Charging_Adjusted_Penalty>
0.00408363

> <i_epik_Tot_Q>
0

> <i_epik_Tot_abs_Q>
0

> <r_epik_Metal_State_Penalty>
-0

> <b_epik_Metal_Only>
0

> <s_lp_Force_Field>
OPLS_2005

> <r_lp_Energy>
20.9167

> <b_lp_Chiralities_Consistent>
1

> <s_lp_Variant>
AV-unprocessed.smi:1232-4

> <Gold.Version>
5.8.1

> <Gold.Id.Protein>
6NUR|6NUR_protein|mol2

> <Gold.PLP.Fitness>
47.1709

> <Gold.PLP.PLP>
-40.6184

> <Gold.PLP.part.hbond>
-4.0000

> <Gold.PLP.part.metal>
0.0000

> <Gold.PLP.part.buried>
-5.1396

> <Gold.PLP.part.nonpolar>
-32.1294

> <Gold.PLP.part.repulsive>
0.1893

> <Gold.PLP.ligand.clash>
0.0000

> <Gold.PLP.ligand.torsion>
1.5608

> <Gold.PLP.Chemscore.Hbond>
3.0000

> <Gold.PLP.Chemscore.CHOScore>
0.0000

> <Gold.PLP.Chemscore.Metal>
0.0000

> <Gold.Chemscore.Hbonds>
donor molecule, donor type, donor heavy atom, donor atom, acceptor molecule, acceptor atom, score
      L1  H     4    29       P1  7948  0.98
      P1  H  7997  8008       L1    21  0.76
      P1  H 10752 10765       L1     7  1.00

> <Gold.PLP.Chemscore.Internal.Correction>
0.6741

> <Gold.Rescore>
     Score         DG    S(hbond)    S(metal)    S(lipo)     H(rot)  DE(clash)    DE(int)     intcor
     17.45     -18.97       2.13        0.00     101.09       2.13       0.21       1.31       ----

> <Gold.Chemscore.Fitness>
17.4532

> <Gold.Chemscore.DG>
-18.9686

> <Gold.Chemscore.ZeroCoef>
-5.4800

> <Gold.Chemscore.Hbond>
2.1312

> <Gold.Chemscore.Metal>
0.0000

> <Gold.Chemscore.Lipo>
101.0902

> <Gold.Chemscore.Internal_Hbond>
0.0000

> <Gold.Chemscore.DEClash>
0.2097

> <Gold.Chemscore.DEInternal>
1.3058

> <Gold.Chemscore.Rot>
2.1317

> <Gold.Chemscore.Internal.Correction>
   9.000000E+99

> <Gold.Chemscore.Hbonds>
donor molecule, donor type, donor heavy atom, donor atom, acceptor molecule, acceptor atom, score
      L1  H     4    29       P1  7948  0.89
      P1  H  7997  8008       L1    21  0.06
      P1  H 10752 10765       L1     7  0.98

> <Gold.Chemscore.Hbond.Weighted>
-7.1183

> <Gold.Chemscore.Metal.Weighted>
-0.0000

> <Gold.Chemscore.Lipo.Weighted>
-11.8276

> <Gold.Chemscore.Internal_Hbond.Weighted>
0.0000

> <Gold.Chemscore.DEClash.Weighted>
0.2097

> <Gold.Chemscore.DEInternal.Weighted>
1.3058

> <Gold.Chemscore.Rot.Weighted>
5.4572

> <Gold.Chemscore.Internal.Correction.Weighted>
   9.000000E+99

> <Gold.Protein.RotatedTorsions>
[ 6907 6896 6895 6894 ] final  134.84 input  -60.11 | X-H torsion
[ 7974 7965 7964 7962 ] final    3.36 input  175.53 | X-H torsion
[ 8008 7997 7996 7995 ] final  -59.08 input   59.86 | X-H torsion
[ 10167 10162 10161 10158 ] final -134.04 input  -65.29 | X-H torsion
[ 10718 10713 10712 10709 ] final  -48.02 input   66.30 | X-H torsion
[ 10763 10752 10751 10750 ] final -164.23 input  -60.55 | X-H torsion
[ 11005 11000 10999 10996 ] final -136.41 input  -57.11 | X-H torsion

> <Gold.Protein.ActiveResidues>
 VAL166  LYS551  ARG553  GLY616  TRP617  ASP618  TYR619  PRO620  LYS621  CYS622 
 ASP623  PHE694  ASN695  SER759  ASP760  ASP761  ALA762  ILE779  LEU786  VAL792 
 PHE793  MET794  SER795  GLU796  ALA797  LYS798  CYS799  TRP800  GLU811  SER814 

> <Gold.Protein.RotatedAtoms>
  152.3069  133.5713  159.5654 H   0  0  0  0  0  0  0  0  0  0  0  0  # atno 6907 bound_to 6896
  150.7304  134.0209  159.3710 H   0  0  0  0  0  0  0  0  0  0  0  0  # atno 6908 bound_to 6896
  151.8105  135.0682  160.0463 H   0  0  0  0  0  0  0  0  0  0  0  0  # atno 6909 bound_to 6896
  146.2445  140.0696  142.8363 H   0  0  0  0  0  0  0  0  0  0  0  0  # atno 7974 bound_to 7965
  154.4336  140.1070  156.6059 H   0  0  0  0  0  0  0  0  0  0  0  0  # atno 8008 bound_to 7997
  155.5861  140.3491  155.4535 H   0  0  0  0  0  0  0  0  0  0  0  0  # atno 8009 bound_to 7997
  156.0281  140.1254  157.0276 H   0  0  0  0  0  0  0  0  0  0  0  0  # atno 8010 bound_to 7997
  139.8921  143.6709  152.2610 H   0  0  0  0  0  0  0  0  0  0  0  0  # atno 10167 bound_to 10162
  156.2028  130.4157  149.9218 H   0  0  0  0  0  0  0  0  0  0  0  0  # atno 10718 bound_to 10713
  154.7048  135.2995  154.9287 H   0  0  0  0  0  0  0  0  0  0  0  0  # atno 10763 bound_to 10752
  154.0207  135.6683  153.4776 H   0  0  0  0  0  0  0  0  0  0  0  0  # atno 10764 bound_to 10752
  153.0709  135.5061  154.8212 H   0  0  0  0  0  0  0  0  0  0  0  0  # atno 10765 bound_to 10752
  140.8808  134.1934  157.4592 H   0  0  0  0  0  0  0  0  0  0  0  0  # atno 11005 bound_to 11000
  145.0827  140.9232  143.4815 LP  0  0  0  0  0  0  0  0  0  0  0  0  # atno 17320 bound_to 7965
  145.0853  139.2930  143.5763 LP  0  0  0  0  0  0  0  0  0  0  0  0  # atno 17321 bound_to 7965
  139.7100  144.7622  151.1128 LP  0  0  0  0  0  0  0  0  0  0  0  0  # atno 17342 bound_to 10162
  140.7724  143.5343  150.9386 LP  0  0  0  0  0  0  0  0  0  0  0  0  # atno 17343 bound_to 10162
  156.6922  130.8900  151.3589 LP  0  0  0  0  0  0  0  0  0  0  0  0  # atno 17370 bound_to 10713
  157.6995  130.9318  150.0743 LP  0  0  0  0  0  0  0  0  0  0  0  0  # atno 17371 bound_to 10713
  139.8719  134.9816  156.5123 LP  0  0  0  0  0  0  0  0  0  0  0  0  # atno 17394 bound_to 11000
  140.8463  133.8166  155.9125 LP  0  0  0  0  0  0  0  0  0  0  0  0  # atno 17395 bound_to 11000

$$$$
