AV-unprocessed.smi:1627|AV-procd|sdf|6518|dock9
  -GOLD-   22720 7193D 1   1.00000     0.00000
 Structure written by MMmdl.
 44 45  0  0  0  0  0  0  0  0  2 V2000
  140.2219  139.5728  156.7715 C   0  0  0  0  0  0  0  0  0  0  0  0
  139.5155  138.9195  155.5744 C   0  0  2  0  0  0  0  0  0  0  0  0
  138.1649  138.6726  155.9564 O   0  0  0  0  0  0  0  0  0  0  0  0
  137.2172  138.6685  154.8932 C   0  0  0  0  0  0  0  0  0  0  0  0
  136.8516  137.2207  154.5448 C   0  0  0  0  0  0  0  0  0  0  0  0
  135.6518  137.1981  153.9656 F   0  0  0  0  0  0  0  0  0  0  0  0
  137.7458  136.7120  153.6976 F   0  0  0  0  0  0  0  0  0  0  0  0
  136.8067  136.4773  155.6501 F   0  0  0  0  0  0  0  0  0  0  0  0
  140.2049  137.6063  155.1693 C   0  0  0  0  0  0  0  0  0  0  0  0
  139.8491  136.5502  155.6902 O   0  0  0  0  0  0  0  0  0  0  0  0
  141.1714  137.7188  154.2383 N   0  0  0  0  0  0  0  0  0  0  0  0
  141.9854  136.7102  153.6511 C   0  0  0  0  0  0  0  0  0  0  0  0
  142.6852  137.0479  152.4718 C   0  0  0  0  0  0  0  0  0  0  0  0
  143.5013  136.0880  151.8389 C   0  0  0  0  0  0  0  0  0  0  0  0
  143.6048  134.7934  152.3959 C   0  0  0  0  0  0  0  0  0  0  0  0
  144.3849  133.7724  151.8378 N   0  0  0  0  0  0  0  0  0  0  0  0
  145.4482  134.2769  150.9725 C   0  0  0  0  0  0  0  0  0  0  0  0
  146.3877  133.1383  150.5381 C   0  0  0  0  0  0  0  0  0  0  0  0
  145.5977  131.9898  149.8902 C   0  0  0  0  0  0  0  0  0  0  0  0
  144.4785  131.5189  150.8325 C   0  0  0  0  0  0  0  0  0  0  0  0
  143.5853  132.6980  151.2548 C   0  0  0  0  0  0  0  0  0  0  0  0
  142.9197  134.5054  153.5232 N   0  3  0  0  0  0  0  0  0  0  0  0
  142.1275  135.3950  154.1604 C   0  0  0  0  0  0  0  0  0  0  0  0
  141.2703  139.7761  156.5504 H   0  0  0  0  0  0  0  0  0  0  0  0
  140.1831  138.9385  157.6580 H   0  0  0  0  0  0  0  0  0  0  0  0
  139.7500  140.5218  157.0269 H   0  0  0  0  0  0  0  0  0  0  0  0
  139.5341  139.6245  154.7408 H   0  0  0  0  0  0  0  0  0  0  0  0
  136.3200  139.2118  155.1935 H   0  0  0  0  0  0  0  0  0  0  0  0
  137.6184  139.1644  154.0086 H   0  0  0  0  0  0  0  0  0  0  0  0
  141.3607  138.6597  153.9245 H   0  0  0  0  0  0  0  0  0  0  0  0
  142.5998  138.0387  152.0498 H   0  0  0  0  0  0  0  0  0  0  0  0
  144.0378  136.3460  150.9372 H   0  0  0  0  0  0  0  0  0  0  0  0
  145.0094  134.7497  150.0926 H   0  0  0  0  0  0  0  0  0  0  0  0
  146.0171  135.0449  151.4982 H   0  0  0  0  0  0  0  0  0  0  0  0
  147.1383  133.5165  149.8435 H   0  0  0  0  0  0  0  0  0  0  0  0
  146.9309  132.7622  151.4063 H   0  0  0  0  0  0  0  0  0  0  0  0
  145.1668  132.3262  148.9465 H   0  0  0  0  0  0  0  0  0  0  0  0
  146.2641  131.1603  149.6512 H   0  0  0  0  0  0  0  0  0  0  0  0
  143.8776  130.7491  150.3473 H   0  0  0  0  0  0  0  0  0  0  0  0
  144.9170  131.0574  151.7183 H   0  0  0  0  0  0  0  0  0  0  0  0
  142.8421  132.3590  151.9779 H   0  0  0  0  0  0  0  0  0  0  0  0
  143.0404  133.0761  150.3887 H   0  0  0  0  0  0  0  0  0  0  0  0
  141.6431  135.0053  155.0421 H   0  0  0  0  0  0  0  0  0  0  0  0
  143.0024  133.5660  153.9129 H   0  0  0  0  0  0  0  0  0  0  0  0
  1  2  1  0  0  0  0
  1 24  1  0  0  0  0
  1 25  1  0  0  0  0
  1 26  1  0  0  0  0
  2  3  1  0  0  0  0
  2  9  1  0  0  0  0
  2 27  1  0  0  0  0
  3  4  1  0  0  0  0
  4  5  1  0  0  0  0
  4 28  1  0  0  0  0
  4 29  1  0  0  0  0
  5  6  1  0  0  0  0
  5  7  1  0  0  0  0
  5  8  1  0  0  0  0
  9 10  2  0  0  0  0
  9 11  1  0  0  0  0
 11 12  1  0  0  0  0
 11 30  1  0  0  0  0
 12 23  1  0  0  0  0
 12 13  2  0  0  0  0
 13 14  1  0  0  0  0
 13 31  1  0  0  0  0
 14 15  2  0  0  0  0
 14 32  1  0  0  0  0
 15 16  1  0  0  0  0
 15 22  1  0  0  0  0
 16 21  1  0  0  0  0
 16 17  1  0  0  0  0
 17 18  1  0  0  0  0
 17 33  1  0  0  0  0
 17 34  1  0  0  0  0
 18 19  1  0  0  0  0
 18 35  1  0  0  0  0
 18 36  1  0  0  0  0
 19 20  1  0  0  0  0
 19 37  1  0  0  0  0
 19 38  1  0  0  0  0
 20 21  1  0  0  0  0
 20 39  1  0  0  0  0
 20 40  1  0  0  0  0
 21 41  1  0  0  0  0
 21 42  1  0  0  0  0
 22 23  2  0  0  0  0
 22 44  1  0  0  0  0
 23 43  1  0  0  0  0
M  CHG  1  22   1
M  END
> <s_m_source_file>
AV-unprocessed.smi

> <i_m_source_file_index>
1627

> <i_lp_mmshare_version>
43012

> <i_f3d_flags>
0

> <s_epik_input>
RkMoRikoRilbQ0gyXU9bQ0BASF0oW0NIM10pQyg9TylbTkhdYzFbY0hdW2NIXWMobltjSF0xKU4yW0NIMl1bQ0gyXVtDSDJdW0NIMl1bQ0gyXTI=

> <s_epik_cmdline>
J2VwaWtfcHl0aG9uJywgJy1waCcsICc3LjAnLCAnLXRuJywgJzgnLCAnLW1hJywgJzIwMCcsICctbWV0YWxfYmluZGluZycsICctaW1hZScsICc8aW5maWxlLm1hZT4nLCAnLW9tYWUnLCAnPG91dGZpbGUubWFlPic=

> <r_lp_tautomer_probability>
0.999994

> <r_epik_Ionization_Penalty>
1.93197

> <r_epik_Ionization_Penalty_Charging>
1.93197

> <r_epik_Ionization_Penalty_Neutral>
3.16684e-06

> <r_epik_State_Penalty>
2.05557

> <r_epik_Charging_Adjusted_Penalty>
3.98754

> <i_epik_Tot_Q>
1

> <i_epik_Tot_abs_Q>
1

> <r_epik_Metal_State_Penalty>
2.08108

> <b_epik_Metal_Only>
0

> <s_lp_Force_Field>
OPLS_2005

> <r_lp_Energy>
33.3851

> <b_lp_Chiralities_Consistent>
1

> <s_lp_Variant>
AV-unprocessed.smi:1627-3

> <Gold.Version>
5.8.1

> <Gold.Id.Protein>
6NUR|6NUR_protein|mol2

> <Gold.PLP.Fitness>
40.5704

> <Gold.PLP.PLP>
-36.3565

> <Gold.PLP.part.hbond>
-2.0000

> <Gold.PLP.part.metal>
0.0000

> <Gold.PLP.part.buried>
-6.7840

> <Gold.PLP.part.nonpolar>
-29.7786

> <Gold.PLP.part.repulsive>
0.1122

> <Gold.PLP.ligand.clash>
0.0000

> <Gold.PLP.ligand.torsion>
2.2164

> <Gold.PLP.Chemscore.Hbond>
2.8160

> <Gold.PLP.Chemscore.CHOScore>
0.0000

> <Gold.PLP.Chemscore.Metal>
0.0000

> <Gold.Chemscore.Hbonds>
donor molecule, donor type, donor heavy atom, donor atom, acceptor molecule, acceptor atom, score
      L1  H    22    44       P1 10957  2.00
      P1  H 11000 11005       L1    10  1.00

> <Gold.PLP.Chemscore.Internal.Correction>
0.1988

> <Gold.Rescore>
     Score         DG    S(hbond)    S(metal)    S(lipo)     H(rot)  DE(clash)    DE(int)     intcor
     11.93     -15.40       1.83        0.00      74.28       1.90       0.07       3.41       ----

> <Gold.Chemscore.Fitness>
11.9255

> <Gold.Chemscore.DG>
-15.4048

> <Gold.Chemscore.ZeroCoef>
-5.4800

> <Gold.Chemscore.Hbond>
1.8262

> <Gold.Chemscore.Metal>
0.0000

> <Gold.Chemscore.Lipo>
74.2824

> <Gold.Chemscore.Internal_Hbond>
0.0000

> <Gold.Chemscore.DEClash>
0.0650

> <Gold.Chemscore.DEInternal>
3.4143

> <Gold.Chemscore.Rot>
1.9007

> <Gold.Chemscore.Internal.Correction>
   9.000000E+99

> <Gold.Chemscore.Hbonds>
donor molecule, donor type, donor heavy atom, donor atom, acceptor molecule, acceptor atom, score
      L1  H    22    44       P1 10957  0.93
      P1  H 11000 11005       L1    10  0.96

> <Gold.Chemscore.Hbond.Weighted>
-6.0995

> <Gold.Chemscore.Metal.Weighted>
-0.0000

> <Gold.Chemscore.Lipo.Weighted>
-8.6910

> <Gold.Chemscore.Internal_Hbond.Weighted>
0.0000

> <Gold.Chemscore.DEClash.Weighted>
0.0650

> <Gold.Chemscore.DEInternal.Weighted>
3.4143

> <Gold.Chemscore.Rot.Weighted>
4.8657

> <Gold.Chemscore.Internal.Correction.Weighted>
   9.000000E+99

> <Gold.Protein.RotatedTorsions>
[ 6907 6896 6895 6894 ] final -146.02 input  -60.11 | X-H torsion
[ 7974 7965 7964 7962 ] final   16.70 input  175.53 | X-H torsion
[ 8008 7997 7996 7995 ] final  116.27 input   59.86 | X-H torsion
[ 10167 10162 10161 10158 ] final  -44.30 input  -65.29 | X-H torsion
[ 10718 10713 10712 10709 ] final  -26.74 input   66.30 | X-H torsion
[ 10763 10752 10751 10750 ] final   59.20 input  -60.55 | X-H torsion
[ 11005 11000 10999 10996 ] final  100.51 input  -57.11 | X-H torsion

> <Gold.Protein.ActiveResidues>
 VAL166  LYS551  ARG553  GLY616  TRP617  ASP618  TYR619  PRO620  LYS621  CYS622 
 ASP623  PHE694  ASN695  SER759  ASP760  ASP761  ALA762  ILE779  LEU786  VAL792 
 PHE793  MET794  SER795  GLU796  ALA797  LYS798  CYS799  TRP800  GLU811  SER814 

> <Gold.Protein.RotatedAtoms>
  151.1359  133.5004  159.2597 H   0  0  0  0  0  0  0  0  0  0  0  0  # atno 6907 bound_to 6896
  151.1707  135.0316  159.8760 H   0  0  0  0  0  0  0  0  0  0  0  0  # atno 6908 bound_to 6896
  152.5461  134.1222  159.8457 H   0  0  0  0  0  0  0  0  0  0  0  0  # atno 6909 bound_to 6896
  146.2241  139.8709  142.8587 H   0  0  0  0  0  0  0  0  0  0  0  0  # atno 7974 bound_to 7965
  156.2430  140.2921  156.0498 H   0  0  0  0  0  0  0  0  0  0  0  0  # atno 8008 bound_to 7997
  155.1894  140.0406  157.2915 H   0  0  0  0  0  0  0  0  0  0  0  0  # atno 8009 bound_to 7997
  154.6205  140.2474  155.7563 H   0  0  0  0  0  0  0  0  0  0  0  0  # atno 8010 bound_to 7997
  140.6902  143.2937  151.3476 H   0  0  0  0  0  0  0  0  0  0  0  0  # atno 10167 bound_to 10162
  156.4472  130.4476  149.7013 H   0  0  0  0  0  0  0  0  0  0  0  0  # atno 10718 bound_to 10713
  152.9889  135.5580  154.5676 H   0  0  0  0  0  0  0  0  0  0  0  0  # atno 10763 bound_to 10752
  154.5082  135.2801  155.1366 H   0  0  0  0  0  0  0  0  0  0  0  0  # atno 10764 bound_to 10752
  154.2769  135.6352  153.5384 H   0  0  0  0  0  0  0  0  0  0  0  0  # atno 10765 bound_to 10752
  139.8771  134.9143  156.4767 H   0  0  0  0  0  0  0  0  0  0  0  0  # atno 11005 bound_to 11000
  145.2609  141.0076  143.3827 LP  0  0  0  0  0  0  0  0  0  0  0  0  # atno 17320 bound_to 7965
  144.9299  139.4311  143.6500 LP  0  0  0  0  0  0  0  0  0  0  0  0  # atno 17321 bound_to 7965
  139.6297  144.0745  152.2465 LP  0  0  0  0  0  0  0  0  0  0  0  0  # atno 17342 bound_to 10162
  140.0216  144.6149  150.7562 LP  0  0  0  0  0  0  0  0  0  0  0  0  # atno 17343 bound_to 10162
  156.3854  130.7600  151.2597 LP  0  0  0  0  0  0  0  0  0  0  0  0  # atno 17370 bound_to 10713
  157.7504  131.0283  150.4045 LP  0  0  0  0  0  0  0  0  0  0  0  0  # atno 17371 bound_to 10713
  140.8757  133.7955  155.9412 LP  0  0  0  0  0  0  0  0  0  0  0  0  # atno 17394 bound_to 11000
  140.8907  134.2499  157.5096 LP  0  0  0  0  0  0  0  0  0  0  0  0  # atno 17395 bound_to 11000

$$$$
