AV-unprocessed.smi:1717|AV-procd|sdf|6919|dock5
  -GOLD-   22720 8123D 1   1.00000     0.00000
 Structure written by MMmdl.
 41 42  0  0  0  0  0  0  0  0  2 V2000
  145.9332  132.6729  150.6472 C   0  0  0  0  0  0  0  0  0  0  0  0
  145.8893  134.1147  150.4563 N   0  0  0  0  0  0  0  0  0  0  0  0
  145.4977  134.9868  151.3955 C   0  0  0  0  0  0  0  0  0  0  0  0
  145.1265  134.6470  152.5197 O   0  0  0  0  0  0  0  0  0  0  0  0
  145.5119  136.4660  150.9969 C   0  0  0  0  0  0  0  0  0  0  0  0
  146.3750  137.2947  151.8776 N   0  3  2  0  0  0  0  0  0  0  0  0
  145.8635  137.3642  153.2702 C   0  0  0  0  0  0  0  0  0  0  0  0
  146.8508  138.1044  154.1914 C   0  0  0  0  0  0  0  0  0  0  0  0
  147.1930  139.5089  153.6644 C   0  0  2  0  0  0  0  0  0  0  0  0
  146.0489  140.4067  153.8222 N   0  0  0  0  0  0  0  0  0  0  0  0
  146.0418  141.5323  154.5508 C   0  0  0  0  0  0  0  0  0  0  0  0
  147.0225  141.9492  155.1663 O   0  0  0  0  0  0  0  0  0  0  0  0
  144.8407  142.1312  154.5123 N   0  0  0  0  0  0  0  0  0  0  0  0
  144.4622  143.3352  155.1575 C   0  0  0  0  0  0  0  0  0  0  0  0
  145.0239  143.9561  156.3119 C   0  0  0  0  0  0  0  0  0  0  0  0
  144.3873  145.0801  156.6091 N   0  0  0  0  0  0  0  0  0  0  0  0
  143.4285  145.1819  155.6613 N   0  0  0  0  0  0  0  0  0  0  0  0
  143.4379  144.1412  154.7591 C   0  0  0  0  0  0  0  0  0  0  0  0
  147.6533  139.4136  152.1959 C   0  0  0  0  0  0  0  0  0  0  0  0
  146.6420  138.6492  151.3244 C   0  0  0  0  0  0  0  0  0  0  0  0
  142.7826  145.9586  155.6445 H   0  0  0  0  0  0  0  0  0  0  0  0
  146.2973  132.1884  149.7413 H   0  0  0  0  0  0  0  0  0  0  0  0
  144.9401  132.2797  150.8686 H   0  0  0  0  0  0  0  0  0  0  0  0
  146.6030  132.4089  151.4669 H   0  0  0  0  0  0  0  0  0  0  0  0
  146.1732  134.4685  149.5538 H   0  0  0  0  0  0  0  0  0  0  0  0
  145.8182  136.5819  149.9559 H   0  0  0  0  0  0  0  0  0  0  0  0
  144.4801  136.8141  151.0602 H   0  0  0  0  0  0  0  0  0  0  0  0
  144.8907  137.8583  153.2777 H   0  0  0  0  0  0  0  0  0  0  0  0
  145.7079  136.3557  153.6552 H   0  0  0  0  0  0  0  0  0  0  0  0
  146.4468  138.1670  155.2027 H   0  0  0  0  0  0  0  0  0  0  0  0
  147.7688  137.5200  154.2687 H   0  0  0  0  0  0  0  0  0  0  0  0
  148.0137  139.9047  154.2657 H   0  0  0  0  0  0  0  0  0  0  0  0
  145.1929  140.1410  153.3579 H   0  0  0  0  0  0  0  0  0  0  0  0
  144.1220  141.6815  153.9645 H   0  0  0  0  0  0  0  0  0  0  0  0
  145.8494  143.6452  156.9349 H   0  0  0  0  0  0  0  0  0  0  0  0
  142.7370  144.0702  153.9403 H   0  0  0  0  0  0  0  0  0  0  0  0
  147.8299  140.4065  151.7809 H   0  0  0  0  0  0  0  0  0  0  0  0
  148.6142  138.8987  152.1564 H   0  0  0  0  0  0  0  0  0  0  0  0
  147.0363  138.5702  150.3110 H   0  0  0  0  0  0  0  0  0  0  0  0
  145.7071  139.2073  151.2529 H   0  0  0  0  0  0  0  0  0  0  0  0
  147.2638  136.8163  151.9254 H   0  0  0  0  0  0  0  0  0  0  0  0
  1  2  1  0  0  0  0
  1 22  1  0  0  0  0
  1 23  1  0  0  0  0
  1 24  1  0  0  0  0
  2  3  1  0  0  0  0
  2 25  1  0  0  0  0
  3  4  2  0  0  0  0
  3  5  1  0  0  0  0
  5  6  1  0  0  0  0
  5 26  1  0  0  0  0
  5 27  1  0  0  0  0
  6 20  1  0  0  0  0
  6  7  1  0  0  0  0
  6 41  1  0  0  0  0
  7  8  1  0  0  0  0
  7 28  1  0  0  0  0
  7 29  1  0  0  0  0
  8  9  1  0  0  0  0
  8 30  1  0  0  0  0
  8 31  1  0  0  0  0
  9 10  1  0  0  0  0
  9 19  1  0  0  0  0
  9 32  1  0  0  0  0
 10 11  1  0  0  0  0
 10 33  1  0  0  0  0
 11 12  2  0  0  0  0
 11 13  1  0  0  0  0
 13 14  1  0  0  0  0
 13 34  1  0  0  0  0
 14 18  2  0  0  0  0
 14 15  1  0  0  0  0
 15 16  2  0  0  0  0
 15 35  1  0  0  0  0
 16 17  1  0  0  0  0
 17 21  1  0  0  0  0
 17 18  1  0  0  0  0
 18 36  1  0  0  0  0
 19 20  1  0  0  0  0
 19 37  1  0  0  0  0
 19 38  1  0  0  0  0
 20 39  1  0  0  0  0
 20 40  1  0  0  0  0
M  CHG  1   6   1
M  END
> <s_m_source_file>
AV-unprocessed.smi

> <i_m_source_file_index>
1717

> <i_lp_mmshare_version>
43012

> <i_f3d_flags>
0

> <s_epik_input>
W0NIM11bTkhdQyg9TylbQ0gyXU4xW0NIMl1bQ0gyXVtDSF0oW0NIMl1bQ0gyXTEpW05IXUMoPU8pW05IXWMyW2NIXW5bbkhdW2NIXTI=

> <s_epik_cmdline>
J2VwaWtfcHl0aG9uJywgJy1waCcsICc3LjAnLCAnLXRuJywgJzgnLCAnLW1hJywgJzIwMCcsICctbWV0YWxfYmluZGluZycsICctaW1hZScsICc8aW5maWxlLm1hZT4nLCAnLW9tYWUnLCAnPG91dGZpbGUubWFlPic=

> <r_lp_tautomer_probability>
0.5

> <r_epik_Ionization_Penalty>
0.838906

> <r_epik_Ionization_Penalty_Charging>
0.838844

> <r_epik_Ionization_Penalty_Neutral>
6.24243e-05

> <r_epik_State_Penalty>
0.8734

> <r_epik_Charging_Adjusted_Penalty>
1.71224

> <i_epik_Tot_Q>
1

> <i_epik_Tot_abs_Q>
1

> <r_epik_Metal_State_Penalty>
0.877921

> <b_epik_Metal_Only>
0

> <s_lp_Force_Field>
OPLS_2005

> <r_lp_Energy>
16.7427

> <b_lp_Chiralities_Consistent>
1

> <s_lp_Variant>
AV-unprocessed.smi:1717-3

> <Gold.Version>
5.8.1

> <Gold.Id.Protein>
6NUR|6NUR_protein|mol2

> <Gold.PLP.Fitness>
39.5109

> <Gold.PLP.PLP>
-22.2597

> <Gold.PLP.part.hbond>
-4.0000

> <Gold.PLP.part.metal>
0.0000

> <Gold.PLP.part.buried>
3.4450

> <Gold.PLP.part.nonpolar>
-23.3610

> <Gold.PLP.part.repulsive>
0.4460

> <Gold.PLP.ligand.clash>
0.0000

> <Gold.PLP.ligand.torsion>
0.1764

> <Gold.PLP.Chemscore.Hbond>
4.8736

> <Gold.PLP.Chemscore.CHOScore>
0.9851

> <Gold.PLP.Chemscore.Metal>
0.0000

> <Gold.Chemscore.Hbonds>
donor molecule, donor type, donor heavy atom, donor atom, acceptor molecule, acceptor atom, score
      L1  H     2    25       P1  7921  1.00
      L1  H     6    41       P1  7948  2.00
      L1  H    10    33       P1 10175  1.00
      L1  H    13    34       P1 10175  0.59
      L1  C    18    36       P1 10174  1.00

> <Gold.PLP.Chemscore.Internal.Correction>
0.0279

> <Gold.Rescore>
     Score         DG    S(hbond)    S(metal)    S(lipo)     H(rot)  DE(clash)    DE(int)     intcor
     14.07     -18.53       3.27        0.00      57.67       1.81       2.18       2.28       ----

> <Gold.Chemscore.Fitness>
14.0742

> <Gold.Chemscore.DG>
-18.5334

> <Gold.Chemscore.ZeroCoef>
-5.4800

> <Gold.Chemscore.Hbond>
3.2749

> <Gold.Chemscore.Metal>
0.0000

> <Gold.Chemscore.Lipo>
57.6719

> <Gold.Chemscore.Internal_Hbond>
0.0000

> <Gold.Chemscore.DEClash>
2.1790

> <Gold.Chemscore.DEInternal>
2.2802

> <Gold.Chemscore.Rot>
1.8096

> <Gold.Chemscore.Internal.Correction>
   9.000000E+99

> <Gold.Chemscore.Hbonds>
donor molecule, donor type, donor heavy atom, donor atom, acceptor molecule, acceptor atom, score
      L1  H     2    25       P1  7921  0.25
      L1  H     6    41       P1  7948  1.00
      L1  H    10    33       P1 10175  0.97
      L1  H    13    34       P1 10175  0.04

> <Gold.Chemscore.Hbond.Weighted>
-10.9383

> <Gold.Chemscore.Metal.Weighted>
-0.0000

> <Gold.Chemscore.Lipo.Weighted>
-6.7476

> <Gold.Chemscore.Internal_Hbond.Weighted>
0.0000

> <Gold.Chemscore.DEClash.Weighted>
2.1790

> <Gold.Chemscore.DEInternal.Weighted>
2.2802

> <Gold.Chemscore.Rot.Weighted>
4.6325

> <Gold.Chemscore.Internal.Correction.Weighted>
   9.000000E+99

> <Gold.Protein.RotatedTorsions>
[ 6907 6896 6895 6894 ] final  -56.54 input  -60.11 | X-H torsion
[ 7974 7965 7964 7962 ] final  -97.49 input  175.53 | X-H torsion
[ 8008 7997 7996 7995 ] final  101.39 input   59.86 | X-H torsion
[ 10167 10162 10161 10158 ] final  -53.57 input  -65.29 | X-H torsion
[ 10718 10713 10712 10709 ] final -178.92 input   66.30 | X-H torsion
[ 10763 10752 10751 10750 ] final  115.08 input  -60.55 | X-H torsion
[ 11005 11000 10999 10996 ] final  -74.32 input  -57.11 | X-H torsion

> <Gold.Protein.ActiveResidues>
 VAL166  LYS551  ARG553  GLY616  TRP617  ASP618  TYR619  PRO620  LYS621  CYS622 
 ASP623  PHE694  ASN695  SER759  ASP760  ASP761  ALA762  ILE779  LEU786  VAL792 
 PHE793  MET794  SER795  GLU796  ALA797  LYS798  CYS799  TRP800  GLU811  SER814 

> <Gold.Protein.RotatedAtoms>
  150.8159  134.7341  159.6729 H   0  0  0  0  0  0  0  0  0  0  0  0  # atno 6907 bound_to 6896
  152.4278  134.5832  159.9963 H   0  0  0  0  0  0  0  0  0  0  0  0  # atno 6908 bound_to 6896
  151.6029  133.3317  159.3087 H   0  0  0  0  0  0  0  0  0  0  0  0  # atno 6909 bound_to 6896
  145.3331  140.9445  143.2650 H   0  0  0  0  0  0  0  0  0  0  0  0  # atno 7974 bound_to 7965
  156.1294  140.3198  155.8327 H   0  0  0  0  0  0  0  0  0  0  0  0  # atno 8008 bound_to 7997
  155.4359  140.0522  157.3032 H   0  0  0  0  0  0  0  0  0  0  0  0  # atno 8009 bound_to 7997
  154.4888  140.2083  155.9608 H   0  0  0  0  0  0  0  0  0  0  0  0  # atno 8010 bound_to 7997
  140.6478  143.2546  151.4811 H   0  0  0  0  0  0  0  0  0  0  0  0  # atno 10167 bound_to 10162
  156.8514  130.9720  151.3092 H   0  0  0  0  0  0  0  0  0  0  0  0  # atno 10718 bound_to 10713
  153.5169  135.3606  155.2613 H   0  0  0  0  0  0  0  0  0  0  0  0  # atno 10763 bound_to 10752
  154.8738  135.4036  154.3304 H   0  0  0  0  0  0  0  0  0  0  0  0  # atno 10764 bound_to 10752
  153.3968  135.7073  153.6522 H   0  0  0  0  0  0  0  0  0  0  0  0  # atno 10765 bound_to 10752
  141.1633  133.6907  156.7346 H   0  0  0  0  0  0  0  0  0  0  0  0  # atno 11005 bound_to 11000
  144.8849  139.4853  143.6705 LP  0  0  0  0  0  0  0  0  0  0  0  0  # atno 17320 bound_to 7965
  146.3038  139.7511  142.9072 LP  0  0  0  0  0  0  0  0  0  0  0  0  # atno 17321 bound_to 7965
  139.5690  144.1974  152.1808 LP  0  0  0  0  0  0  0  0  0  0  0  0  # atno 17342 bound_to 10162
  140.1265  144.5327  150.6830 LP  0  0  0  0  0  0  0  0  0  0  0  0  # atno 17343 bound_to 10162
  157.6301  130.8723  149.9259 LP  0  0  0  0  0  0  0  0  0  0  0  0  # atno 17370 bound_to 10713
  156.0826  130.3671  150.0550 LP  0  0  0  0  0  0  0  0  0  0  0  0  # atno 17371 bound_to 10713
  140.2720  134.8385  157.3855 LP  0  0  0  0  0  0  0  0  0  0  0  0  # atno 17394 bound_to 11000
  140.1513  134.4846  155.7959 LP  0  0  0  0  0  0  0  0  0  0  0  0  # atno 17395 bound_to 11000

$$$$
