AV-unprocessed.smi:3303|AV-procd|sdf|12686|dock4
  -GOLD-   2272019 23D 1   1.00000     0.00000
 Structure written by MMmdl.
 44 45  0  0  0  0  0  0  0  0  2 V2000
  145.8645  135.8048  150.8348 C   0  0  0  0  0  0  0  0  0  0  0  0
  145.2434  134.6184  151.6017 C   0  0  1  0  0  0  0  0  0  0  0  0
  144.1405  133.9342  150.7680 C   0  0  0  0  0  0  0  0  0  0  0  0
  144.7110  133.1572  149.6369 N   0  3  2  0  0  0  0  0  0  0  0  0
  143.6777  132.6741  148.6934 C   0  0  0  0  0  0  0  0  0  0  0  0
  145.6871  132.1126  150.0621 C   0  0  2  0  0  0  0  0  0  0  0  0
  145.0350  130.9118  150.7814 C   0  0  0  0  0  0  0  0  0  0  0  0
  146.8175  132.7503  150.8949 C   0  0  0  0  0  0  0  0  0  0  0  0
  146.2720  133.5618  152.0851 C   0  0  1  0  0  0  0  0  0  0  0  0
  147.3977  134.1458  152.8072 N   0  0  0  0  0  0  0  0  0  0  0  0
  148.4537  133.1755  153.0576 C   0  0  0  0  0  0  0  0  0  0  0  0
  148.5268  132.8711  154.5598 C   0  0  0  0  0  0  0  0  0  0  0  0
  149.6762  131.9401  154.8956 C   0  0  0  0  0  0  0  0  0  0  0  0
  150.5640  132.2434  155.9501 C   0  0  0  0  0  0  0  0  0  0  0  0
  151.6088  131.3411  156.2279 C   0  0  0  0  0  0  0  0  0  0  0  0
  151.7248  130.1760  155.4457 C   0  0  0  0  0  0  0  0  0  0  0  0
  150.7861  129.9640  154.4162 C   0  0  0  0  0  0  0  0  0  0  0  0
  149.7801  130.8222  154.1418 N   0  0  0  0  0  0  0  0  0  0  0  0
  146.3760  135.4839  149.9277 H   0  0  0  0  0  0  0  0  0  0  0  0
  146.5856  136.3456  151.4480 H   0  0  0  0  0  0  0  0  0  0  0  0
  145.0975  136.5213  150.5409 H   0  0  0  0  0  0  0  0  0  0  0  0
  144.7491  135.0388  152.4779 H   0  0  0  0  0  0  0  0  0  0  0  0
  143.5431  133.2781  151.4014 H   0  0  0  0  0  0  0  0  0  0  0  0
  143.4532  134.6884  150.3818 H   0  0  0  0  0  0  0  0  0  0  0  0
  142.9553  132.0251  149.1890 H   0  0  0  0  0  0  0  0  0  0  0  0
  144.1314  132.1221  147.8697 H   0  0  0  0  0  0  0  0  0  0  0  0
  143.1328  133.5165  148.2664 H   0  0  0  0  0  0  0  0  0  0  0  0
  146.1475  131.7227  149.1532 H   0  0  0  0  0  0  0  0  0  0  0  0
  145.7915  130.1836  151.0743 H   0  0  0  0  0  0  0  0  0  0  0  0
  144.3292  130.3882  150.1368 H   0  0  0  0  0  0  0  0  0  0  0  0
  144.5043  131.2057  151.6863 H   0  0  0  0  0  0  0  0  0  0  0  0
  147.4973  131.9742  151.2492 H   0  0  0  0  0  0  0  0  0  0  0  0
  147.4159  133.3958  150.2505 H   0  0  0  0  0  0  0  0  0  0  0  0
  145.7705  132.8657  152.7588 H   0  0  0  0  0  0  0  0  0  0  0  0
  147.7811  134.9083  152.2663 H   0  0  0  0  0  0  0  0  0  0  0  0
  148.2606  132.2537  152.5094 H   0  0  0  0  0  0  0  0  0  0  0  0
  149.4088  133.5723  152.7107 H   0  0  0  0  0  0  0  0  0  0  0  0
  148.6436  133.7957  155.1274 H   0  0  0  0  0  0  0  0  0  0  0  0
  147.5922  132.4199  154.8965 H   0  0  0  0  0  0  0  0  0  0  0  0
  150.4476  133.1443  156.5345 H   0  0  0  0  0  0  0  0  0  0  0  0
  152.3078  131.5393  157.0270 H   0  0  0  0  0  0  0  0  0  0  0  0
  152.5133  129.4618  155.6307 H   0  0  0  0  0  0  0  0  0  0  0  0
  150.8444  129.0811  153.7971 H   0  0  0  0  0  0  0  0  0  0  0  0
  145.2575  133.8234  149.1097 H   0  0  0  0  0  0  0  0  0  0  0  0
  1  2  1  0  0  0  0
  1 19  1  0  0  0  0
  1 20  1  0  0  0  0
  1 21  1  0  0  0  0
  2  9  1  0  0  0  0
  2  3  1  0  0  0  0
  2 22  1  0  0  0  0
  3  4  1  0  0  0  0
  3 23  1  0  0  0  0
  3 24  1  0  0  0  0
  4  5  1  0  0  0  0
  4  6  1  0  0  0  0
  4 44  1  0  0  0  0
  5 25  1  0  0  0  0
  5 26  1  0  0  0  0
  5 27  1  0  0  0  0
  6  7  1  0  0  0  0
  6  8  1  0  0  0  0
  6 28  1  0  0  0  0
  7 29  1  0  0  0  0
  7 30  1  0  0  0  0
  7 31  1  0  0  0  0
  8  9  1  0  0  0  0
  8 32  1  0  0  0  0
  8 33  1  0  0  0  0
  9 10  1  0  0  0  0
  9 34  1  0  0  0  0
 10 11  1  0  0  0  0
 10 35  1  0  0  0  0
 11 12  1  0  0  0  0
 11 36  1  0  0  0  0
 11 37  1  0  0  0  0
 12 13  1  0  0  0  0
 12 38  1  0  0  0  0
 12 39  1  0  0  0  0
 13 18  1  0  0  0  0
 13 14  2  0  0  0  0
 14 15  1  0  0  0  0
 14 40  1  0  0  0  0
 15 16  2  0  0  0  0
 15 41  1  0  0  0  0
 16 17  1  0  0  0  0
 16 42  1  0  0  0  0
 17 18  2  0  0  0  0
 17 43  1  0  0  0  0
M  CHG  1   4   1
M  END
> <s_m_source_file>
AV-unprocessed.smi

> <i_m_source_file_index>
3303

> <i_lp_mmshare_version>
43012

> <i_f3d_flags>
0

> <s_epik_input>
W0NIM11bQ0BASF0xW0NIMl1OKFtDSDNdKVtDQEBIXShbQ0gzXSlbQ0gyXVtDQEhdMVtOSF1bQ0gyXVtDSDJdYzJbY0hdW2NIXVtjSF1bY0hdbjI=

> <s_epik_cmdline>
J2VwaWtfcHl0aG9uJywgJy1waCcsICc3LjAnLCAnLXRuJywgJzgnLCAnLW1hJywgJzIwMCcsICctbWV0YWxfYmluZGluZycsICctaW1hZScsICc8aW5maWxlLm1hZT4nLCAnLW9tYWUnLCAnPG91dGZpbGUubWFlPic=

> <r_epik_Ionization_Penalty>
2.31085

> <r_epik_Ionization_Penalty_Charging>
0.000313057

> <r_epik_Ionization_Penalty_Neutral>
2.31054

> <r_epik_State_Penalty>
2.4087

> <r_epik_Charging_Adjusted_Penalty>
2.40902

> <i_epik_Tot_Q>
1

> <i_epik_Tot_abs_Q>
1

> <r_epik_Metal_State_Penalty>
2.30979

> <b_epik_Metal_Only>
0

> <s_lp_Force_Field>
OPLS_2005

> <r_lp_Energy>
26.3275

> <b_lp_Chiralities_Consistent>
1

> <s_lp_Variant>
AV-unprocessed.smi:3303-30

> <Gold.Version>
5.8.1

> <Gold.Id.Protein>
6NUR|6NUR_protein|mol2

> <Gold.PLP.Fitness>
42.7088

> <Gold.PLP.PLP>
-35.5125

> <Gold.PLP.part.hbond>
-2.0000

> <Gold.PLP.part.metal>
0.0000

> <Gold.PLP.part.buried>
-1.4772

> <Gold.PLP.part.nonpolar>
-31.6871

> <Gold.PLP.part.repulsive>
0.2184

> <Gold.PLP.ligand.clash>
0.1787

> <Gold.PLP.ligand.torsion>
0.5339

> <Gold.PLP.Chemscore.Hbond>
2.0000

> <Gold.PLP.Chemscore.CHOScore>
0.8122

> <Gold.PLP.Chemscore.Metal>
0.0000

> <Gold.Chemscore.Hbonds>
donor molecule, donor type, donor heavy atom, donor atom, acceptor molecule, acceptor atom, score
      L1  H     4    44       P1  7921  1.00
      L1  H    10    35       P1  7948  1.00
      L1  C    17    43       P1 10737  0.46

> <Gold.PLP.Chemscore.Internal.Correction>
0.0062

> <Gold.Rescore>
     Score         DG    S(hbond)    S(metal)    S(lipo)     H(rot)  DE(clash)    DE(int)     intcor
     19.92     -20.55       1.86        0.00     104.89       1.33       0.06       0.57       ----

> <Gold.Chemscore.Fitness>
19.9225

> <Gold.Chemscore.DG>
-20.5504

> <Gold.Chemscore.ZeroCoef>
-5.4800

> <Gold.Chemscore.Hbond>
1.8552

> <Gold.Chemscore.Metal>
0.0000

> <Gold.Chemscore.Lipo>
104.8866

> <Gold.Chemscore.Internal_Hbond>
0.0000

> <Gold.Chemscore.DEClash>
0.0555

> <Gold.Chemscore.DEInternal>
0.5724

> <Gold.Chemscore.Rot>
1.3272

> <Gold.Chemscore.Internal.Correction>
   9.000000E+99

> <Gold.Chemscore.Hbonds>
donor molecule, donor type, donor heavy atom, donor atom, acceptor molecule, acceptor atom, score
      L1  H     4    44       P1  7921  0.80
      L1  H    10    35       P1  7948  0.81

> <Gold.Chemscore.Hbond.Weighted>
-6.1963

> <Gold.Chemscore.Metal.Weighted>
-0.0000

> <Gold.Chemscore.Lipo.Weighted>
-12.2717

> <Gold.Chemscore.Internal_Hbond.Weighted>
0.0000

> <Gold.Chemscore.DEClash.Weighted>
0.0555

> <Gold.Chemscore.DEInternal.Weighted>
0.5724

> <Gold.Chemscore.Rot.Weighted>
3.3976

> <Gold.Chemscore.Internal.Correction.Weighted>
   9.000000E+99

> <Gold.Protein.RotatedTorsions>
[ 6907 6896 6895 6894 ] final  -13.44 input  -60.11 | X-H torsion
[ 7974 7965 7964 7962 ] final  -61.91 input  175.53 | X-H torsion
[ 8008 7997 7996 7995 ] final  -40.54 input   59.86 | X-H torsion
[ 10167 10162 10161 10158 ] final  -93.87 input  -65.29 | X-H torsion
[ 10718 10713 10712 10709 ] final  115.68 input   66.30 | X-H torsion
[ 10763 10752 10751 10750 ] final  -54.41 input  -60.55 | X-H torsion
[ 11005 11000 10999 10996 ] final  -54.30 input  -57.11 | X-H torsion

> <Gold.Protein.ActiveResidues>
 VAL166  LYS551  ARG553  GLY616  TRP617  ASP618  TYR619  PRO620  LYS621  CYS622 
 ASP623  PHE694  ASN695  SER759  ASP760  ASP761  ALA762  ILE779  LEU786  VAL792 
 PHE793  MET794  SER795  GLU796  ALA797  LYS798  CYS799  TRP800  GLU811  SER814 

> <Gold.Protein.RotatedAtoms>
  151.3549  135.0892  159.9415 H   0  0  0  0  0  0  0  0  0  0  0  0  # atno 6907 bound_to 6896
  152.5177  133.9315  159.7593 H   0  0  0  0  0  0  0  0  0  0  0  0  # atno 6908 bound_to 6896
  150.9698  133.6302  159.2769 H   0  0  0  0  0  0  0  0  0  0  0  0  # atno 6909 bound_to 6896
  145.7978  140.8673  143.0247 H   0  0  0  0  0  0  0  0  0  0  0  0  # atno 7974 bound_to 7965
  154.4011  140.1523  156.3043 H   0  0  0  0  0  0  0  0  0  0  0  0  # atno 8008 bound_to 7997
  155.8672  140.3450  155.5775 H   0  0  0  0  0  0  0  0  0  0  0  0  # atno 8009 bound_to 7997
  155.7814  140.0844  157.2047 H   0  0  0  0  0  0  0  0  0  0  0  0  # atno 8010 bound_to 7997
  140.3203  143.3053  152.0054 H   0  0  0  0  0  0  0  0  0  0  0  0  # atno 10167 bound_to 10162
  157.6207  131.1015  150.7364 H   0  0  0  0  0  0  0  0  0  0  0  0  # atno 10718 bound_to 10713
  154.1743  135.6454  153.5017 H   0  0  0  0  0  0  0  0  0  0  0  0  # atno 10763 bound_to 10752
  153.0076  135.5391  154.6580 H   0  0  0  0  0  0  0  0  0  0  0  0  # atno 10764 bound_to 10752
  154.5927  135.2936  155.0590 H   0  0  0  0  0  0  0  0  0  0  0  0  # atno 10765 bound_to 10752
  141.1019  133.6617  156.4300 H   0  0  0  0  0  0  0  0  0  0  0  0  # atno 11005 bound_to 11000
  144.6773  140.0215  143.7483 LP  0  0  0  0  0  0  0  0  0  0  0  0  # atno 17320 bound_to 7965
  145.9910  139.3015  143.0985 LP  0  0  0  0  0  0  0  0  0  0  0  0  # atno 17321 bound_to 7965
  139.4875  144.6316  151.7058 LP  0  0  0  0  0  0  0  0  0  0  0  0  # atno 17342 bound_to 10162
  140.5490  144.0457  150.6119 LP  0  0  0  0  0  0  0  0  0  0  0  0  # atno 17343 bound_to 10162
  156.7722  130.4832  149.5416 LP  0  0  0  0  0  0  0  0  0  0  0  0  # atno 17370 bound_to 10713
  156.1352  130.6206  151.0389 LP  0  0  0  0  0  0  0  0  0  0  0  0  # atno 17371 bound_to 10713
  140.5000  134.6494  157.5245 LP  0  0  0  0  0  0  0  0  0  0  0  0  # atno 17394 bound_to 11000
  139.9874  134.7040  155.9750 LP  0  0  0  0  0  0  0  0  0  0  0  0  # atno 17395 bound_to 11000

$$$$
