AV-unprocessed.smi:3176|AV-procd|sdf|12125|dock1
  -GOLD-   2272017563D 1   1.00000     0.00000
 Structure written by MMmdl.
 32 33  0  0  0  0  0  0  0  0  1 V2000
  150.6005  140.3444  154.8479 O   0  0  0  0  0  0  0  0  0  0  0  0
  149.8386  141.3054  154.9564 C   0  0  0  0  0  0  0  0  0  0  0  0
  149.8688  142.1426  156.0050 N   0  0  0  0  0  0  0  0  0  0  0  0
  150.7134  141.9888  157.1852 C   0  0  0  0  0  0  0  0  0  0  0  0
  151.4534  143.2899  157.5569 C   0  0  0  0  0  0  0  0  0  0  0  0
  152.1072  143.2437  158.9284 C   0  0  0  0  0  0  0  0  0  0  0  0
  153.0530  142.2436  159.2415 C   0  0  0  0  0  0  0  0  0  0  0  0
  153.6090  142.2262  160.5348 C   0  0  0  0  0  0  0  0  0  0  0  0
  153.2038  143.2076  161.4595 C   0  0  0  0  0  0  0  0  0  0  0  0
  152.2564  144.1662  161.0477 C   0  0  0  0  0  0  0  0  0  0  0  0
  151.7147  144.1899  159.8108 N   0  0  0  0  0  0  0  0  0  0  0  0
  148.7920  141.5951  153.8675 C   0  0  1  0  0  0  0  0  0  0  0  0
  147.6749  140.5387  153.7755 C   0  0  0  0  0  0  0  0  0  0  0  0
  146.4953  141.2166  154.4400 C   0  0  0  0  0  0  0  0  0  0  0  0
  146.7247  142.6695  154.0528 C   0  0  0  0  0  0  0  0  0  0  0  0
  148.1316  142.8311  154.1598 O   0  0  0  0  0  0  0  0  0  0  0  0
  149.2141  142.9119  156.0093 H   0  0  0  0  0  0  0  0  0  0  0  0
  150.1265  141.6264  158.0303 H   0  0  0  0  0  0  0  0  0  0  0  0
  151.4432  141.2108  156.9604 H   0  0  0  0  0  0  0  0  0  0  0  0
  152.2191  143.5011  156.8095 H   0  0  0  0  0  0  0  0  0  0  0  0
  150.7601  144.1310  157.5195 H   0  0  0  0  0  0  0  0  0  0  0  0
  153.3373  141.4995  158.5120 H   0  0  0  0  0  0  0  0  0  0  0  0
  154.3307  141.4723  160.8124 H   0  0  0  0  0  0  0  0  0  0  0  0
  153.6091  143.2257  162.4602 H   0  0  0  0  0  0  0  0  0  0  0  0
  151.9232  144.9334  161.7309 H   0  0  0  0  0  0  0  0  0  0  0  0
  149.3060  141.6791  152.9095 H   0  0  0  0  0  0  0  0  0  0  0  0
  147.4452  140.3407  152.7277 H   0  0  0  0  0  0  0  0  0  0  0  0
  147.9115  139.5815  154.2415 H   0  0  0  0  0  0  0  0  0  0  0  0
  145.5329  140.8312  154.1036 H   0  0  0  0  0  0  0  0  0  0  0  0
  146.5534  141.1013  155.5227 H   0  0  0  0  0  0  0  0  0  0  0  0
  146.4188  142.8467  153.0207 H   0  0  0  0  0  0  0  0  0  0  0  0
  146.1908  143.3683  154.6967 H   0  0  0  0  0  0  0  0  0  0  0  0
  1  2  2  0  0  0  0
  2  3  1  0  0  0  0
  2 12  1  0  0  0  0
  3  4  1  0  0  0  0
  3 17  1  0  0  0  0
  4  5  1  0  0  0  0
  4 18  1  0  0  0  0
  4 19  1  0  0  0  0
  5  6  1  0  0  0  0
  5 20  1  0  0  0  0
  5 21  1  0  0  0  0
  6 11  1  0  0  0  0
  6  7  2  0  0  0  0
  7  8  1  0  0  0  0
  7 22  1  0  0  0  0
  8  9  2  0  0  0  0
  8 23  1  0  0  0  0
  9 10  1  0  0  0  0
  9 24  1  0  0  0  0
 10 11  2  0  0  0  0
 10 25  1  0  0  0  0
 12 16  1  0  0  0  0
 12 13  1  0  0  0  0
 12 26  1  0  0  0  0
 13 14  1  0  0  0  0
 13 27  1  0  0  0  0
 13 28  1  0  0  0  0
 14 15  1  0  0  0  0
 14 29  1  0  0  0  0
 14 30  1  0  0  0  0
 15 16  1  0  0  0  0
 15 31  1  0  0  0  0
 15 32  1  0  0  0  0
M  END
> <s_m_source_file>
AV-unprocessed.smi

> <i_m_source_file_index>
3176

> <i_lp_mmshare_version>
43012

> <i_f3d_flags>
0

> <s_epik_input>
TzFbQ0gyXVtDSDJdW0NIMl1bQ0BIXTFDKD1PKVtOSF1bQ0gyXVtDSDJdYzJbY0hdW2NIXVtjSF1bY0hdbjI=

> <s_epik_cmdline>
J2VwaWtfcHl0aG9uJywgJy1waCcsICc3LjAnLCAnLXRuJywgJzgnLCAnLW1hJywgJzIwMCcsICctbWV0YWxfYmluZGluZycsICctaW1hZScsICc8aW5maWxlLm1hZT4nLCAnLW9tYWUnLCAnPG91dGZpbGUubWFlPic=

> <r_epik_Ionization_Penalty>
0.0282744

> <r_epik_Ionization_Penalty_Charging>
0

> <r_epik_Ionization_Penalty_Neutral>
0.0282744

> <r_epik_State_Penalty>
0.0231919

> <r_epik_Charging_Adjusted_Penalty>
0.0231919

> <i_epik_Tot_Q>
0

> <i_epik_Tot_abs_Q>
0

> <r_epik_Metal_State_Penalty>
0.02213

> <b_epik_Metal_Only>
0

> <s_lp_Force_Field>
OPLS_2005

> <r_lp_Energy>
16.341

> <b_lp_Chiralities_Consistent>
1

> <s_lp_Variant>
AV-unprocessed.smi:3176-2

> <Gold.Version>
5.8.1

> <Gold.Id.Protein>
6NUR|6NUR_protein|mol2

> <Gold.PLP.Fitness>
44.7159

> <Gold.PLP.PLP>
-36.2884

> <Gold.PLP.part.hbond>
-4.0000

> <Gold.PLP.part.metal>
0.0000

> <Gold.PLP.part.buried>
-1.4824

> <Gold.PLP.part.nonpolar>
-34.4242

> <Gold.PLP.part.repulsive>
4.7122

> <Gold.PLP.ligand.clash>
0.0000

> <Gold.PLP.ligand.torsion>
0.1969

> <Gold.PLP.Chemscore.Hbond>
2.9360

> <Gold.PLP.Chemscore.CHOScore>
0.0000

> <Gold.PLP.Chemscore.Metal>
0.0000

> <Gold.Chemscore.Hbonds>
donor molecule, donor type, donor heavy atom, donor atom, acceptor molecule, acceptor atom, score
      L1  H     3    17       P1  8028  0.96
      P1  H  7989  7998       L1     1  1.00
      P1  H  8022  8030       L1    16  0.92

> <Gold.PLP.Chemscore.Internal.Correction>
0.0134

> <Gold.Rescore>
     Score         DG    S(hbond)    S(metal)    S(lipo)     H(rot)  DE(clash)    DE(int)     intcor
     18.03     -21.51       2.34        0.00     103.30       1.52       3.29       0.19       ----

> <Gold.Chemscore.Fitness>
18.0260

> <Gold.Chemscore.DG>
-21.5149

> <Gold.Chemscore.ZeroCoef>
-5.4800

> <Gold.Chemscore.Hbond>
2.3442

> <Gold.Chemscore.Metal>
0.0000

> <Gold.Chemscore.Lipo>
103.2987

> <Gold.Chemscore.Internal_Hbond>
0.0000

> <Gold.Chemscore.DEClash>
3.2947

> <Gold.Chemscore.DEInternal>
0.1942

> <Gold.Chemscore.Rot>
1.5159

> <Gold.Chemscore.Internal.Correction>
   9.000000E+99

> <Gold.Chemscore.Hbonds>
donor molecule, donor type, donor heavy atom, donor atom, acceptor molecule, acceptor atom, score
      L1  H     3    17       P1  8028  0.92
      P1  H  7989  7998       L1     1  0.30
      P1  H  8022  8030       L1    16  0.51

> <Gold.Chemscore.Hbond.Weighted>
-7.8296

> <Gold.Chemscore.Metal.Weighted>
-0.0000

> <Gold.Chemscore.Lipo.Weighted>
-12.0859

> <Gold.Chemscore.Internal_Hbond.Weighted>
0.0000

> <Gold.Chemscore.DEClash.Weighted>
3.2947

> <Gold.Chemscore.DEInternal.Weighted>
0.1942

> <Gold.Chemscore.Rot.Weighted>
3.8807

> <Gold.Chemscore.Internal.Correction.Weighted>
   9.000000E+99

> <Gold.Protein.RotatedTorsions>
[ 6907 6896 6895 6894 ] final -159.64 input  -60.11 | X-H torsion
[ 7974 7965 7964 7962 ] final -130.14 input  175.53 | X-H torsion
[ 8008 7997 7996 7995 ] final  124.70 input   59.86 | X-H torsion
[ 10167 10162 10161 10158 ] final  -32.96 input  -65.29 | X-H torsion
[ 10718 10713 10712 10709 ] final  -50.58 input   66.30 | X-H torsion
[ 10763 10752 10751 10750 ] final  -43.18 input  -60.55 | X-H torsion
[ 11005 11000 10999 10996 ] final   62.80 input  -57.11 | X-H torsion

> <Gold.Protein.ActiveResidues>
 VAL166  LYS551  ARG553  GLY616  TRP617  ASP618  TYR619  PRO620  LYS621  CYS622 
 ASP623  PHE694  ASN695  SER759  ASP760  ASP761  ALA762  ILE779  LEU786  VAL792 
 PHE793  MET794  SER795  GLU796  ALA797  LYS798  CYS799  TRP800  GLU811  SER814 

> <Gold.Protein.RotatedAtoms>
  151.3367  133.3978  159.2667 H   0  0  0  0  0  0  0  0  0  0  0  0  # atno 6907 bound_to 6896
  150.9911  134.9246  159.7910 H   0  0  0  0  0  0  0  0  0  0  0  0  # atno 6908 bound_to 6896
  152.5247  134.3332  159.9243 H   0  0  0  0  0  0  0  0  0  0  0  0  # atno 6909 bound_to 6896
  144.9504  140.7338  143.4791 H   0  0  0  0  0  0  0  0  0  0  0  0  # atno 7974 bound_to 7965
  156.2810  140.2733  156.1831 H   0  0  0  0  0  0  0  0  0  0  0  0  # atno 8008 bound_to 7997
  155.0536  140.0386  157.2570 H   0  0  0  0  0  0  0  0  0  0  0  0  # atno 8009 bound_to 7997
  154.7175  140.2681  155.6577 H   0  0  0  0  0  0  0  0  0  0  0  0  # atno 8010 bound_to 7997
  140.7212  143.3655  151.1878 H   0  0  0  0  0  0  0  0  0  0  0  0  # atno 10167 bound_to 10162
  156.1788  130.4150  149.9537 H   0  0  0  0  0  0  0  0  0  0  0  0  # atno 10718 bound_to 10713
  153.9913  135.6705  153.4754 H   0  0  0  0  0  0  0  0  0  0  0  0  # atno 10763 bound_to 10752
  153.0704  135.4977  154.8288 H   0  0  0  0  0  0  0  0  0  0  0  0  # atno 10764 bound_to 10752
  154.7108  135.3097  154.9163 H   0  0  0  0  0  0  0  0  0  0  0  0  # atno 10765 bound_to 10752
  140.0068  134.6358  155.9843 H   0  0  0  0  0  0  0  0  0  0  0  0  # atno 11005 bound_to 11000
  145.2853  139.1903  143.4769 LP  0  0  0  0  0  0  0  0  0  0  0  0  # atno 17320 bound_to 7965
  146.3319  140.2822  142.8611 LP  0  0  0  0  0  0  0  0  0  0  0  0  # atno 17321 bound_to 7965
  139.7216  143.9214  152.2987 LP  0  0  0  0  0  0  0  0  0  0  0  0  # atno 17342 bound_to 10162
  139.8973  144.6932  150.8704 LP  0  0  0  0  0  0  0  0  0  0  0  0  # atno 17343 bound_to 10162
  156.7314  130.9045  151.3626 LP  0  0  0  0  0  0  0  0  0  0  0  0  # atno 17370 bound_to 10713
  157.6854  130.9180  150.0373 LP  0  0  0  0  0  0  0  0  0  0  0  0  # atno 17371 bound_to 10713
  141.1682  133.6537  156.4557 LP  0  0  0  0  0  0  0  0  0  0  0  0  # atno 17394 bound_to 11000
  140.4627  134.6826  157.5093 LP  0  0  0  0  0  0  0  0  0  0  0  0  # atno 17395 bound_to 11000

$$$$
