AV-unprocessed.smi:193|AV-procd|sdf|1511|dock1
  -GOLD-   2262019343D 1   1.00000     0.00000
 Structure written by MMmdl.
 62 66  0  0  0  0  0  0  0  0  2 V2000
  144.5934  132.2804  150.0517 C   0  0  0  0  0  0  0  0  0  0  0  0
  145.7672  131.9634  150.9927 C   0  0  1  0  0  0  0  0  0  0  0  0
  145.7214  132.9118  152.2082 C   0  0  0  0  0  0  0  0  0  0  0  0
  147.0097  133.0884  152.8818 N   0  0  0  0  0  0  0  0  0  0  0  0
  147.1961  134.2122  153.6231 C   0  0  0  0  0  0  0  0  0  0  0  0
  146.3527  135.2638  153.4449 N   0  0  0  0  0  0  0  0  0  0  0  0
  146.5018  136.3813  154.1617 C   0  0  0  0  0  0  0  0  0  0  0  0
  147.4146  136.6577  155.0940 N   0  0  0  0  0  0  0  0  0  0  0  0
  148.2711  135.6121  155.2730 C   0  0  0  0  0  0  0  0  0  0  0  0
  148.2361  134.3650  154.5861 C   0  0  0  0  0  0  0  0  0  0  0  0
  149.2800  133.5579  155.0252 N   0  0  0  0  0  0  0  0  0  0  0  0
  149.8865  134.2799  155.9277 C   0  0  0  0  0  0  0  0  0  0  0  0
  149.3421  135.5250  156.1449 N   0  0  0  0  0  0  0  0  0  0  0  0
  149.8133  136.5292  157.0865 C   0  0  0  0  0  0  0  0  0  0  0  0
  150.4743  137.7582  156.4146 C   0  0  0  0  0  0  0  0  0  0  0  0
  149.4793  138.4184  155.6511 O   0  0  0  0  0  0  0  0  0  0  0  0
  150.9960  138.7385  157.4843 C   0  0  0  0  0  0  0  0  0  0  0  0
  151.8098  139.8911  156.8694 C   0  0  0  0  0  0  0  0  0  0  0  0
  152.8737  139.3703  156.0822 O   0  0  0  0  0  0  0  0  0  0  0  0
  152.4152  138.6018  154.9769 C   0  0  0  0  0  0  0  0  0  0  0  0
  151.6361  137.3708  155.4735 C   0  0  0  0  0  0  0  0  0  0  0  0
  147.9857  132.0070  153.0123 C   0  0  0  0  0  0  0  0  0  0  0  0
  147.3492  130.6333  153.2645 C   0  0  0  0  0  0  0  0  0  0  0  0
  146.9709  129.9688  151.9946 N   0  3  1  0  0  0  0  0  0  0  0  0
  146.9429  128.4952  152.1363 C   0  0  1  0  0  0  0  0  0  0  0  0
  147.3523  127.7589  150.8813 C   0  0  0  0  0  0  0  0  0  0  0  0
  148.3076  127.8465  152.0519 C   0  0  2  0  0  0  0  0  0  0  0  0
  148.6282  126.6120  152.8657 C   0  0  0  0  0  0  0  0  0  0  0  0
  145.7046  130.4793  151.4145 C   0  0  0  0  0  0  0  0  0  0  0  0
  143.6341  132.1291  150.5476 H   0  0  0  0  0  0  0  0  0  0  0  0
  144.6138  131.6466  149.1645 H   0  0  0  0  0  0  0  0  0  0  0  0
  144.6308  133.3152  149.7095 H   0  0  0  0  0  0  0  0  0  0  0  0
  146.6818  132.1427  150.4251 H   0  0  0  0  0  0  0  0  0  0  0  0
  145.3957  133.8944  151.8624 H   0  0  0  0  0  0  0  0  0  0  0  0
  144.9727  132.5776  152.9276 H   0  0  0  0  0  0  0  0  0  0  0  0
  145.7872  137.1656  153.9600 H   0  0  0  0  0  0  0  0  0  0  0  0
  150.7519  133.9217  156.4665 H   0  0  0  0  0  0  0  0  0  0  0  0
  148.9684  136.8419  157.7017 H   0  0  0  0  0  0  0  0  0  0  0  0
  150.5193  136.0500  157.7657 H   0  0  0  0  0  0  0  0  0  0  0  0
  148.8561  137.7746  155.3509 H   0  0  0  0  0  0  0  0  0  0  0  0
  150.1697  139.1366  158.0748 H   0  0  0  0  0  0  0  0  0  0  0  0
  151.6379  138.2002  158.1830 H   0  0  0  0  0  0  0  0  0  0  0  0
  151.1774  140.5416  156.2634 H   0  0  0  0  0  0  0  0  0  0  0  0
  152.2317  140.5107  157.6608 H   0  0  0  0  0  0  0  0  0  0  0  0
  151.7993  139.2189  154.3211 H   0  0  0  0  0  0  0  0  0  0  0  0
  153.2772  138.2841  154.3903 H   0  0  0  0  0  0  0  0  0  0  0  0
  152.3274  136.7171  156.0070 H   0  0  0  0  0  0  0  0  0  0  0  0
  151.2721  136.7996  154.6187 H   0  0  0  0  0  0  0  0  0  0  0  0
  148.6323  131.9838  152.1345 H   0  0  0  0  0  0  0  0  0  0  0  0
  148.6358  132.2133  153.8630 H   0  0  0  0  0  0  0  0  0  0  0  0
  148.1037  130.0177  153.7565 H   0  0  0  0  0  0  0  0  0  0  0  0
  146.5079  130.6890  153.9572 H   0  0  0  0  0  0  0  0  0  0  0  0
  146.1712  128.0872  152.7871 H   0  0  0  0  0  0  0  0  0  0  0  0
  146.8785  126.7984  150.6884 H   0  0  0  0  0  0  0  0  0  0  0  0
  147.5936  128.3423  149.9945 H   0  0  0  0  0  0  0  0  0  0  0  0
  149.1590  128.5126  151.9209 H   0  0  0  0  0  0  0  0  0  0  0  0
  147.7479  125.9768  152.9696 H   0  0  0  0  0  0  0  0  0  0  0  0
  148.9695  126.8982  153.8606 H   0  0  0  0  0  0  0  0  0  0  0  0
  149.4165  126.0375  152.3790 H   0  0  0  0  0  0  0  0  0  0  0  0
  144.8806  130.3094  152.1097 H   0  0  0  0  0  0  0  0  0  0  0  0
  145.4829  129.8786  150.5313 H   0  0  0  0  0  0  0  0  0  0  0  0
  147.7042  130.1710  151.3304 H   0  0  0  0  0  0  0  0  0  0  0  0
  1  2  1  0  0  0  0
  1 30  1  0  0  0  0
  1 31  1  0  0  0  0
  1 32  1  0  0  0  0
  2 29  1  0  0  0  0
  2  3  1  0  0  0  0
  2 33  1  0  0  0  0
  3  4  1  0  0  0  0
  3 34  1  0  0  0  0
  3 35  1  0  0  0  0
  4  5  1  0  0  0  0
  4 22  1  0  0  0  0
  5 10  1  0  0  0  0
  5  6  2  0  0  0  0
  6  7  1  0  0  0  0
  7  8  2  0  0  0  0
  7 36  1  0  0  0  0
  8  9  1  0  0  0  0
  9 13  1  0  0  0  0
  9 10  2  0  0  0  0
 10 11  1  0  0  0  0
 11 12  2  0  0  0  0
 12 13  1  0  0  0  0
 12 37  1  0  0  0  0
 13 14  1  0  0  0  0
 14 15  1  0  0  0  0
 14 38  1  0  0  0  0
 14 39  1  0  0  0  0
 15 21  1  0  0  0  0
 15 16  1  0  0  0  0
 15 17  1  0  0  0  0
 16 40  1  0  0  0  0
 17 18  1  0  0  0  0
 17 41  1  0  0  0  0
 17 42  1  0  0  0  0
 18 19  1  0  0  0  0
 18 43  1  0  0  0  0
 18 44  1  0  0  0  0
 19 20  1  0  0  0  0
 20 21  1  0  0  0  0
 20 45  1  0  0  0  0
 20 46  1  0  0  0  0
 21 47  1  0  0  0  0
 21 48  1  0  0  0  0
 22 23  1  0  0  0  0
 22 49  1  0  0  0  0
 22 50  1  0  0  0  0
 23 24  1  0  0  0  0
 23 51  1  0  0  0  0
 23 52  1  0  0  0  0
 24 25  1  0  0  0  0
 24 29  1  0  0  0  0
 24 62  1  0  0  0  0
 25 27  1  0  0  0  0
 25 26  1  0  0  0  0
 25 53  1  0  0  0  0
 26 27  1  0  0  0  0
 26 54  1  0  0  0  0
 26 55  1  0  0  0  0
 27 28  1  0  0  0  0
 27 56  1  0  0  0  0
 28 57  1  0  0  0  0
 28 58  1  0  0  0  0
 28 59  1  0  0  0  0
 29 60  1  0  0  0  0
 29 61  1  0  0  0  0
M  CHG  1  24   1
M  END
> <s_m_source_file>
AV-unprocessed.smi

> <i_m_source_file_index>
193

> <i_lp_mmshare_version>
43012

> <i_f3d_flags>
0

> <s_epik_input>
W0NIM11bQ0BASF0xW0NIMl1bQ0BIXTFOKFtDSDJdMilbQ0gyXVtDSDJdTihbQ0gyXVtDQEhdMltDSDNdKWMobltjSF1uMyljKGMzNCluW2NIXW40W0NIMl1DNShbT0hdKVtDSDJdW0NIMl1PW0NIMl1bQ0gyXTU=

> <s_epik_cmdline>
J2VwaWtfcHl0aG9uJywgJy1waCcsICc3LjAnLCAnLXRuJywgJzgnLCAnLW1hJywgJzIwMCcsICctbWV0YWxfYmluZGluZycsICctaW1hZScsICc8aW5maWxlLm1hZT4nLCAnLW9tYWUnLCAnPG91dGZpbGUubWFlPic=

> <r_lp_tautomer_probability>
1

> <r_epik_Ionization_Penalty>
0.0540825

> <r_epik_Ionization_Penalty_Charging>
0.0538476

> <r_epik_Ionization_Penalty_Neutral>
0.000234891

> <r_epik_State_Penalty>
0.0200719

> <r_epik_Charging_Adjusted_Penalty>
0.0739194

> <i_epik_Tot_Q>
1

> <i_epik_Tot_abs_Q>
1

> <r_epik_Metal_State_Penalty>
0.0199414

> <b_epik_Metal_Only>
0

> <s_lp_Force_Field>
OPLS_2005

> <r_lp_Energy>
53.3477

> <b_lp_Chiralities_Consistent>
1

> <s_lp_Variant>
AV-unprocessed.smi:193-16

> <Gold.Version>
5.8.1

> <Gold.Id.Protein>
6NUR|6NUR_protein|mol2

> <Gold.PLP.Fitness>
49.2756

> <Gold.PLP.PLP>
-43.5874

> <Gold.PLP.part.hbond>
-2.0000

> <Gold.PLP.part.metal>
0.0000

> <Gold.PLP.part.buried>
-5.2596

> <Gold.PLP.part.nonpolar>
-36.6127

> <Gold.PLP.part.repulsive>
0.2647

> <Gold.PLP.ligand.clash>
0.0000

> <Gold.PLP.ligand.torsion>
0.8135

> <Gold.PLP.Chemscore.Hbond>
2.0000

> <Gold.PLP.Chemscore.CHOScore>
0.0000

> <Gold.PLP.Chemscore.Metal>
0.0000

> <Gold.Chemscore.Hbonds>
donor molecule, donor type, donor heavy atom, donor atom, acceptor molecule, acceptor atom, score
      L1  H    24    62       P1 10747  1.00
      P1  H  7997  8009       L1    19  1.00

> <Gold.PLP.Chemscore.Internal.Correction>
1.3151

> <Gold.Rescore>
     Score         DG    S(hbond)    S(metal)    S(lipo)     H(rot)  DE(clash)    DE(int)     intcor
     17.91     -20.06       1.97        0.00     110.47       1.93       0.04       2.11       ----

> <Gold.Chemscore.Fitness>
17.9062

> <Gold.Chemscore.DG>
-20.0591

> <Gold.Chemscore.ZeroCoef>
-5.4800

> <Gold.Chemscore.Hbond>
1.9736

> <Gold.Chemscore.Metal>
0.0000

> <Gold.Chemscore.Lipo>
110.4744

> <Gold.Chemscore.Internal_Hbond>
0.0000

> <Gold.Chemscore.DEClash>
0.0398

> <Gold.Chemscore.DEInternal>
2.1131

> <Gold.Chemscore.Rot>
1.9290

> <Gold.Chemscore.Internal.Correction>
   9.000000E+99

> <Gold.Chemscore.Hbonds>
donor molecule, donor type, donor heavy atom, donor atom, acceptor molecule, acceptor atom, score
      L1  H    24    62       P1 10747  1.00
      P1  H  7997  8009       L1    19  0.96

> <Gold.Chemscore.Hbond.Weighted>
-6.5918

> <Gold.Chemscore.Metal.Weighted>
-0.0000

> <Gold.Chemscore.Lipo.Weighted>
-12.9255

> <Gold.Chemscore.Internal_Hbond.Weighted>
0.0000

> <Gold.Chemscore.DEClash.Weighted>
0.0398

> <Gold.Chemscore.DEInternal.Weighted>
2.1131

> <Gold.Chemscore.Rot.Weighted>
4.9383

> <Gold.Chemscore.Internal.Correction.Weighted>
   9.000000E+99

> <Gold.Protein.RotatedTorsions>
[ 6907 6896 6895 6894 ] final  -87.49 input  -60.11 | X-H torsion
[ 7974 7965 7964 7962 ] final  132.09 input  175.53 | X-H torsion
[ 8008 7997 7996 7995 ] final -144.60 input   59.86 | X-H torsion
[ 10167 10162 10161 10158 ] final  -40.66 input  -65.29 | X-H torsion
[ 10718 10713 10712 10709 ] final  -70.03 input   66.30 | X-H torsion
[ 10763 10752 10751 10750 ] final  -81.34 input  -60.55 | X-H torsion
[ 11005 11000 10999 10996 ] final    2.50 input  -57.11 | X-H torsion

> <Gold.Protein.ActiveResidues>
 VAL166  LYS551  ARG553  GLY616  TRP617  ASP618  TYR619  PRO620  LYS621  CYS622 
 ASP623  PHE694  ASN695  SER759  ASP760  ASP761  ALA762  ILE779  LEU786  VAL792 
 PHE793  MET794  SER795  GLU796  ALA797  LYS798  CYS799  TRP800  GLU811  SER814 

> <Gold.Protein.RotatedAtoms>
  150.6866  134.2888  159.4657 H   0  0  0  0  0  0  0  0  0  0  0  0  # atno 6907 bound_to 6896
  152.0795  134.9478  160.0583 H   0  0  0  0  0  0  0  0  0  0  0  0  # atno 6908 bound_to 6896
  152.0836  133.4130  159.4549 H   0  0  0  0  0  0  0  0  0  0  0  0  # atno 6909 bound_to 6896
  145.0005  139.4317  143.5295 H   0  0  0  0  0  0  0  0  0  0  0  0  # atno 7974 bound_to 7965
  155.5296  140.0598  157.2891 H   0  0  0  0  0  0  0  0  0  0  0  0  # atno 8008 bound_to 7997
  154.4489  140.1938  156.0526 H   0  0  0  0  0  0  0  0  0  0  0  0  # atno 8009 bound_to 7997
  156.0661  140.3266  155.7524 H   0  0  0  0  0  0  0  0  0  0  0  0  # atno 8010 bound_to 7997
  140.7027  143.3140  151.2956 H   0  0  0  0  0  0  0  0  0  0  0  0  # atno 10167 bound_to 10162
  156.0427  130.4324  150.2235 H   0  0  0  0  0  0  0  0  0  0  0  0  # atno 10718 bound_to 10713
  154.5624  135.5629  153.7019 H   0  0  0  0  0  0  0  0  0  0  0  0  # atno 10763 bound_to 10752
  153.0022  135.6277  154.2227 H   0  0  0  0  0  0  0  0  0  0  0  0  # atno 10764 bound_to 10752
  154.2165  135.2871  155.2920 H   0  0  0  0  0  0  0  0  0  0  0  0  # atno 10765 bound_to 10752
  140.6035  133.9813  155.8143 H   0  0  0  0  0  0  0  0  0  0  0  0  # atno 11005 bound_to 11000
  146.3451  139.9390  142.8743 LP  0  0  0  0  0  0  0  0  0  0  0  0  # atno 17320 bound_to 7965
  145.2160  140.9915  143.4073 LP  0  0  0  0  0  0  0  0  0  0  0  0  # atno 17321 bound_to 7965
  139.6572  144.0254  152.2668 LP  0  0  0  0  0  0  0  0  0  0  0  0  # atno 17342 bound_to 10162
  139.9810  144.6428  150.7901 LP  0  0  0  0  0  0  0  0  0  0  0  0  # atno 17343 bound_to 10162
  157.0328  131.0012  151.3307 LP  0  0  0  0  0  0  0  0  0  0  0  0  # atno 17370 bound_to 10713
  157.5265  130.8031  149.7868 LP  0  0  0  0  0  0  0  0  0  0  0  0  # atno 17371 bound_to 10713
  141.0856  133.9996  157.3319 LP  0  0  0  0  0  0  0  0  0  0  0  0  # atno 17394 bound_to 11000
  139.9222  135.0201  156.8106 LP  0  0  0  0  0  0  0  0  0  0  0  0  # atno 17395 bound_to 11000

$$$$
