AV-unprocessed.smi:3266|AV-procd|sdf|12502|dock10
  -GOLD-   2272018403D 1   1.00000     0.00000
 Structure written by MMmdl.
 39 40  0  0  0  0  0  0  0  0  2 V2000
  152.9771  139.7072  154.8872 O   0  0  0  0  0  0  0  0  0  0  0  0
  152.2465  139.2523  155.7680 C   0  0  0  0  0  0  0  0  0  0  0  0
  152.3660  137.7885  156.2021 C   0  0  0  0  0  0  0  0  0  0  0  0
  153.7835  137.4146  156.6736 C   0  0  0  0  0  0  0  0  0  0  0  0
  154.1093  137.9705  158.0676 C   0  0  2  0  0  0  0  0  0  0  0  0
  153.2348  137.3933  159.1807 C   0  0  0  0  0  0  0  0  0  0  0  0
  153.2731  138.5017  160.2070 C   0  0  0  0  0  0  0  0  0  0  0  0
  153.2249  139.7409  159.3197 C   0  0  0  0  0  0  0  0  0  0  0  0
  153.8908  139.3795  158.1126 O   0  0  0  0  0  0  0  0  0  0  0  0
  151.3124  139.9844  156.3944 N   0  0  0  0  0  0  0  0  0  0  0  0
  151.0346  141.3900  156.1236 C   0  0  0  0  0  0  0  0  0  0  0  0
  150.0976  141.9982  157.1811 C   0  0  0  0  0  0  0  0  0  0  0  0
  150.8162  142.9744  158.0917 C   0  0  0  0  0  0  0  0  0  0  0  0
  151.7593  142.5530  159.0542 C   0  0  0  0  0  0  0  0  0  0  0  0
  152.3883  143.5170  159.8695 C   0  0  0  0  0  0  0  0  0  0  0  0
  152.0615  144.8794  159.7059 C   0  0  0  0  0  0  0  0  0  0  0  0
  151.1114  145.2441  158.7303 C   0  0  0  0  0  0  0  0  0  0  0  0
  150.5301  144.2911  157.9689 N   0  3  0  0  0  0  0  0  0  0  0  0
  151.6511  137.5895  157.0022 H   0  0  0  0  0  0  0  0  0  0  0  0
  152.0753  137.1597  155.3598 H   0  0  0  0  0  0  0  0  0  0  0  0
  153.9016  136.3300  156.6847 H   0  0  0  0  0  0  0  0  0  0  0  0
  154.5138  137.7979  155.9593 H   0  0  0  0  0  0  0  0  0  0  0  0
  155.1573  137.7882  158.3109 H   0  0  0  0  0  0  0  0  0  0  0  0
  152.2112  137.2468  158.8325 H   0  0  0  0  0  0  0  0  0  0  0  0
  153.6051  136.4420  159.5634 H   0  0  0  0  0  0  0  0  0  0  0  0
  152.4514  138.4553  160.9222 H   0  0  0  0  0  0  0  0  0  0  0  0
  154.2131  138.4694  160.7595 H   0  0  0  0  0  0  0  0  0  0  0  0
  152.1919  139.9969  159.0805 H   0  0  0  0  0  0  0  0  0  0  0  0
  153.6890  140.6085  159.7889 H   0  0  0  0  0  0  0  0  0  0  0  0
  150.7508  139.5333  157.1025 H   0  0  0  0  0  0  0  0  0  0  0  0
  151.9715  141.9475  156.0731 H   0  0  0  0  0  0  0  0  0  0  0  0
  150.5768  141.4621  155.1366 H   0  0  0  0  0  0  0  0  0  0  0  0
  149.2658  142.5081  156.6930 H   0  0  0  0  0  0  0  0  0  0  0  0
  149.6569  141.2128  157.7970 H   0  0  0  0  0  0  0  0  0  0  0  0
  151.9991  141.5056  159.1677 H   0  0  0  0  0  0  0  0  0  0  0  0
  153.1131  143.2149  160.6115 H   0  0  0  0  0  0  0  0  0  0  0  0
  152.5324  145.6331  160.3200 H   0  0  0  0  0  0  0  0  0  0  0  0
  150.8010  146.2607  158.5374 H   0  0  0  0  0  0  0  0  0  0  0  0
  149.8443  144.5771  157.2693 H   0  0  0  0  0  0  0  0  0  0  0  0
  1  2  2  0  0  0  0
  2  3  1  0  0  0  0
  2 10  1  0  0  0  0
  3  4  1  0  0  0  0
  3 19  1  0  0  0  0
  3 20  1  0  0  0  0
  4  5  1  0  0  0  0
  4 21  1  0  0  0  0
  4 22  1  0  0  0  0
  5  9  1  0  0  0  0
  5  6  1  0  0  0  0
  5 23  1  0  0  0  0
  6  7  1  0  0  0  0
  6 24  1  0  0  0  0
  6 25  1  0  0  0  0
  7  8  1  0  0  0  0
  7 26  1  0  0  0  0
  7 27  1  0  0  0  0
  8  9  1  0  0  0  0
  8 28  1  0  0  0  0
  8 29  1  0  0  0  0
 10 11  1  0  0  0  0
 10 30  1  0  0  0  0
 11 12  1  0  0  0  0
 11 31  1  0  0  0  0
 11 32  1  0  0  0  0
 12 13  1  0  0  0  0
 12 33  1  0  0  0  0
 12 34  1  0  0  0  0
 13 18  1  0  0  0  0
 13 14  2  0  0  0  0
 14 15  1  0  0  0  0
 14 35  1  0  0  0  0
 15 16  2  0  0  0  0
 15 36  1  0  0  0  0
 16 17  1  0  0  0  0
 16 37  1  0  0  0  0
 17 18  2  0  0  0  0
 17 38  1  0  0  0  0
 18 39  1  0  0  0  0
M  CHG  1  18   1
M  END
> <s_m_source_file>
AV-unprocessed.smi

> <i_m_source_file_index>
3266

> <i_lp_mmshare_version>
43012

> <i_f3d_flags>
0

> <s_epik_input>
TzFbQ0gyXVtDSDJdW0NIMl1bQ0BIXTFbQ0gyXVtDSDJdQyg9TylbTkhdW0NIMl1bQ0gyXWMyW2NIXVtjSF1bY0hdW2NIXW4y

> <s_epik_cmdline>
J2VwaWtfcHl0aG9uJywgJy1waCcsICc3LjAnLCAnLXRuJywgJzgnLCAnLW1hJywgJzIwMCcsICctbWV0YWxfYmluZGluZycsICctaW1hZScsICc8aW5maWxlLm1hZT4nLCAnLW9tYWUnLCAnPG91dGZpbGUubWFlPic=

> <r_epik_Ionization_Penalty>
1.8495

> <r_epik_Ionization_Penalty_Charging>
1.8495

> <r_epik_Ionization_Penalty_Neutral>
1.53068e-08

> <r_epik_State_Penalty>
1.96688

> <r_epik_Charging_Adjusted_Penalty>
3.81638

> <i_epik_Tot_Q>
1

> <i_epik_Tot_abs_Q>
1

> <r_epik_Metal_State_Penalty>
1.99263

> <b_epik_Metal_Only>
0

> <s_lp_Force_Field>
OPLS_2005

> <r_lp_Energy>
20.4442

> <b_lp_Chiralities_Consistent>
1

> <s_lp_Variant>
AV-unprocessed.smi:3266-3

> <Gold.Version>
5.8.1

> <Gold.Id.Protein>
6NUR|6NUR_protein|mol2

> <Gold.PLP.Fitness>
46.2144

> <Gold.PLP.PLP>
-34.6663

> <Gold.PLP.part.hbond>
-4.1754

> <Gold.PLP.part.metal>
0.0000

> <Gold.PLP.part.buried>
-4.6224

> <Gold.PLP.part.nonpolar>
-26.6363

> <Gold.PLP.part.repulsive>
0.1819

> <Gold.PLP.ligand.clash>
0.0000

> <Gold.PLP.ligand.torsion>
0.5796

> <Gold.PLP.Chemscore.Hbond>
4.2262

> <Gold.PLP.Chemscore.CHOScore>
0.0000

> <Gold.PLP.Chemscore.Metal>
0.0000

> <Gold.Chemscore.Hbonds>
donor molecule, donor type, donor heavy atom, donor atom, acceptor molecule, acceptor atom, score
      L1  H    18    39       P1  8028  1.80
      P1  H  7989  7998       L1     1  0.22
      P1  H  7997  8008       L1     1  1.00
      P1  H  7997  8010       L1     9  0.93

> <Gold.PLP.Chemscore.Internal.Correction>
0.0287

> <Gold.Rescore>
     Score         DG    S(hbond)    S(metal)    S(lipo)     H(rot)  DE(clash)    DE(int)     intcor
     19.60     -21.73       2.75        0.00     100.71       1.84       0.29       1.84       ----

> <Gold.Chemscore.Fitness>
19.5995

> <Gold.Chemscore.DG>
-21.7325

> <Gold.Chemscore.ZeroCoef>
-5.4800

> <Gold.Chemscore.Hbond>
2.7470

> <Gold.Chemscore.Metal>
0.0000

> <Gold.Chemscore.Lipo>
100.7130

> <Gold.Chemscore.Internal_Hbond>
0.0000

> <Gold.Chemscore.DEClash>
0.2941

> <Gold.Chemscore.DEInternal>
1.8389

> <Gold.Chemscore.Rot>
1.8382

> <Gold.Chemscore.Internal.Correction>
   9.000000E+99

> <Gold.Chemscore.Hbonds>
donor molecule, donor type, donor heavy atom, donor atom, acceptor molecule, acceptor atom, score
      L1  H    18    39       P1  8028  0.18
      P1  H  7989  7998       L1     1  0.15
      P1  H  7997  8008       L1     1  0.74
      P1  H  7997  8010       L1     9  0.51

> <Gold.Chemscore.Hbond.Weighted>
-9.1748

> <Gold.Chemscore.Metal.Weighted>
-0.0000

> <Gold.Chemscore.Lipo.Weighted>
-11.7834

> <Gold.Chemscore.Internal_Hbond.Weighted>
0.0000

> <Gold.Chemscore.DEClash.Weighted>
0.2941

> <Gold.Chemscore.DEInternal.Weighted>
1.8389

> <Gold.Chemscore.Rot.Weighted>
4.7058

> <Gold.Chemscore.Internal.Correction.Weighted>
   9.000000E+99

> <Gold.Protein.RotatedTorsions>
[ 6907 6896 6895 6894 ] final  136.82 input  -60.11 | X-H torsion
[ 7974 7965 7964 7962 ] final -144.17 input  175.53 | X-H torsion
[ 8008 7997 7996 7995 ] final    6.50 input   59.86 | X-H torsion
[ 10167 10162 10161 10158 ] final -159.77 input  -65.29 | X-H torsion
[ 10718 10713 10712 10709 ] final   96.83 input   66.30 | X-H torsion
[ 10763 10752 10751 10750 ] final -139.08 input  -60.55 | X-H torsion
[ 11005 11000 10999 10996 ] final -163.46 input  -57.11 | X-H torsion

> <Gold.Protein.ActiveResidues>
 VAL166  LYS551  ARG553  GLY616  TRP617  ASP618  TYR619  PRO620  LYS621  CYS622 
 ASP623  PHE694  ASN695  SER759  ASP760  ASP761  ALA762  ILE779  LEU786  VAL792 
 PHE793  MET794  SER795  GLU796  ALA797  LYS798  CYS799  TRP800  GLU811  SER814 

> <Gold.Protein.RotatedAtoms>
  152.2850  133.5507  159.5521 H   0  0  0  0  0  0  0  0  0  0  0  0  # atno 6907 bound_to 6896
  150.7211  134.0509  159.3807 H   0  0  0  0  0  0  0  0  0  0  0  0  # atno 6908 bound_to 6896
  151.8418  135.0587  160.0500 H   0  0  0  0  0  0  0  0  0  0  0  0  # atno 6909 bound_to 6896
  144.8316  140.5743  143.5511 H   0  0  0  0  0  0  0  0  0  0  0  0  # atno 7974 bound_to 7965
  154.7418  140.2750  155.6366 H   0  0  0  0  0  0  0  0  0  0  0  0  # atno 8008 bound_to 7997
  156.2875  140.2695  156.2074 H   0  0  0  0  0  0  0  0  0  0  0  0  # atno 8009 bound_to 7997
  155.0248  140.0371  157.2441 H   0  0  0  0  0  0  0  0  0  0  0  0  # atno 8010 bound_to 7997
  139.6590  143.9947  152.2213 H   0  0  0  0  0  0  0  0  0  0  0  0  # atno 10167 bound_to 10162
  157.6921  131.0590  150.4550 H   0  0  0  0  0  0  0  0  0  0  0  0  # atno 10718 bound_to 10713
  154.8619  135.3593  154.5488 H   0  0  0  0  0  0  0  0  0  0  0  0  # atno 10763 bound_to 10752
  153.6107  135.7009  153.5353 H   0  0  0  0  0  0  0  0  0  0  0  0  # atno 10764 bound_to 10752
  153.3212  135.4151  155.1378 H   0  0  0  0  0  0  0  0  0  0  0  0  # atno 10765 bound_to 10752
  140.5979  134.4978  157.5201 H   0  0  0  0  0  0  0  0  0  0  0  0  # atno 11005 bound_to 11000
  145.4882  139.1490  143.3724 LP  0  0  0  0  0  0  0  0  0  0  0  0  # atno 17320 bound_to 7965
  146.2619  140.5020  142.8850 LP  0  0  0  0  0  0  0  0  0  0  0  0  # atno 17321 bound_to 7965
  139.9681  144.6512  150.8015 LP  0  0  0  0  0  0  0  0  0  0  0  0  # atno 17342 bound_to 10162
  140.7571  143.3080  151.2913 LP  0  0  0  0  0  0  0  0  0  0  0  0  # atno 17343 bound_to 10162
  156.4899  130.4093  149.6413 LP  0  0  0  0  0  0  0  0  0  0  0  0  # atno 17370 bound_to 10713
  156.3427  130.7390  151.2338 LP  0  0  0  0  0  0  0  0  0  0  0  0  # atno 17371 bound_to 10713
  139.9245  134.8083  156.1110 LP  0  0  0  0  0  0  0  0  0  0  0  0  # atno 17394 bound_to 11000
  141.0892  133.6721  156.2502 LP  0  0  0  0  0  0  0  0  0  0  0  0  # atno 17395 bound_to 11000

$$$$
