AV-unprocessed.smi:1010|AV-procd|sdf|4415|dock6
  -GOLD-   22720 2363D 1   1.00000     0.00000
 Structure written by MMmdl.
 55 57  0  0  0  0  0  0  0  0  2 V2000
  149.0320  138.9161  153.9625 C   0  0  0  0  0  0  0  0  0  0  0  0
  148.3114  138.3621  155.1367 N   0  3  0  0  0  0  0  0  0  0  0  0
  147.0389  137.7270  154.7037 C   0  0  0  0  0  0  0  0  0  0  0  0
  149.1299  137.5596  156.1222 C   0  0  0  0  0  0  0  0  0  0  0  0
  150.5893  138.1231  156.1217 C   0  0  0  0  0  0  0  0  0  0  0  0
  150.8281  139.1357  157.1494 N   0  0  0  0  0  0  0  0  0  0  0  0
  151.0758  140.4352  156.9375 C   0  0  0  0  0  0  0  0  0  0  0  0
  151.1353  140.9437  155.8185 O   0  0  0  0  0  0  0  0  0  0  0  0
  151.2780  141.0816  158.0963 N   0  0  0  0  0  0  0  0  0  0  0  0
  151.7010  142.4265  158.2845 C   0  0  0  0  0  0  0  0  0  0  0  0
  151.3627  143.4460  157.3616 C   0  0  0  0  0  0  0  0  0  0  0  0
  151.7467  144.7715  157.6280 C   0  0  0  0  0  0  0  0  0  0  0  0
  152.4437  145.0349  158.8190 C   0  0  0  0  0  0  0  0  0  0  0  0
  152.7605  144.0779  159.7139 N   0  0  0  0  0  0  0  0  0  0  0  0
  152.4084  142.7927  159.4651 C   0  0  0  0  0  0  0  0  0  0  0  0
  152.7796  141.8286  160.4303 N   0  0  0  0  0  0  0  0  0  0  0  0
  153.1992  142.2421  161.7653 C   0  0  0  0  0  0  0  0  0  0  0  0
  153.8768  141.0128  162.3638 C   0  0  0  0  0  0  0  0  0  0  0  0
  154.5648  140.3981  161.1488 C   0  0  0  0  0  0  0  0  0  0  0  0
  153.6051  140.7058  159.9940 C   0  0  0  0  0  0  0  0  0  0  0  0
  148.5242  137.6470  157.5510 C   0  0  0  0  0  0  0  0  0  0  0  0
  149.1871  136.6790  158.5522 C   0  0  0  0  0  0  0  0  0  0  0  0
  149.1402  135.3445  158.0649 O   0  0  0  0  0  0  0  0  0  0  0  0
  149.8309  135.1767  156.8341 C   0  0  0  0  0  0  0  0  0  0  0  0
  149.1577  136.0423  155.7550 C   0  0  0  0  0  0  0  0  0  0  0  0
  149.5230  138.1292  153.3891 H   0  0  0  0  0  0  0  0  0  0  0  0
  149.7736  139.6571  154.2598 H   0  0  0  0  0  0  0  0  0  0  0  0
  148.3414  139.4320  153.2943 H   0  0  0  0  0  0  0  0  0  0  0  0
  147.2193  136.9062  154.0088 H   0  0  0  0  0  0  0  0  0  0  0  0
  146.4114  138.4574  154.1920 H   0  0  0  0  0  0  0  0  0  0  0  0
  146.4547  137.3449  155.5387 H   0  0  0  0  0  0  0  0  0  0  0  0
  151.3281  137.3268  156.2090 H   0  0  0  0  0  0  0  0  0  0  0  0
  150.8273  138.6000  155.1734 H   0  0  0  0  0  0  0  0  0  0  0  0
  150.7968  138.8168  158.1072 H   0  0  0  0  0  0  0  0  0  0  0  0
  151.2681  140.5141  158.9313 H   0  0  0  0  0  0  0  0  0  0  0  0
  150.7959  143.2363  156.4672 H   0  0  0  0  0  0  0  0  0  0  0  0
  151.5006  145.5686  156.9424 H   0  0  0  0  0  0  0  0  0  0  0  0
  152.7499  146.0412  159.0636 H   0  0  0  0  0  0  0  0  0  0  0  0
  153.9183  143.0601  161.7101 H   0  0  0  0  0  0  0  0  0  0  0  0
  152.3501  142.5707  162.3653 H   0  0  0  0  0  0  0  0  0  0  0  0
  154.5686  141.2588  163.1697 H   0  0  0  0  0  0  0  0  0  0  0  0
  153.1268  140.3244  162.7558 H   0  0  0  0  0  0  0  0  0  0  0  0
  155.5182  140.9000  160.9776 H   0  0  0  0  0  0  0  0  0  0  0  0
  154.7625  139.3322  161.2641 H   0  0  0  0  0  0  0  0  0  0  0  0
  152.9600  139.8465  159.8094 H   0  0  0  0  0  0  0  0  0  0  0  0
  154.1476  140.9273  159.0737 H   0  0  0  0  0  0  0  0  0  0  0  0
  148.6026  138.6594  157.9478 H   0  0  0  0  0  0  0  0  0  0  0  0
  147.4592  137.4153  157.5119 H   0  0  0  0  0  0  0  0  0  0  0  0
  150.2175  136.9635  158.7658 H   0  0  0  0  0  0  0  0  0  0  0  0
  148.6570  136.7162  159.5039 H   0  0  0  0  0  0  0  0  0  0  0  0
  150.8897  135.4079  156.9498 H   0  0  0  0  0  0  0  0  0  0  0  0
  149.7747  134.1257  156.5505 H   0  0  0  0  0  0  0  0  0  0  0  0
  148.1471  135.6457  155.6651 H   0  0  0  0  0  0  0  0  0  0  0  0
  149.6342  135.8759  154.7884 H   0  0  0  0  0  0  0  0  0  0  0  0
  148.0244  139.1777  155.6598 H   0  0  0  0  0  0  0  0  0  0  0  0
  1  2  1  0  0  0  0
  1 26  1  0  0  0  0
  1 27  1  0  0  0  0
  1 28  1  0  0  0  0
  2  3  1  0  0  0  0
  2  4  1  0  0  0  0
  2 55  1  0  0  0  0
  3 29  1  0  0  0  0
  3 30  1  0  0  0  0
  3 31  1  0  0  0  0
  4 25  1  0  0  0  0
  4  5  1  0  0  0  0
  4 21  1  0  0  0  0
  5  6  1  0  0  0  0
  5 32  1  0  0  0  0
  5 33  1  0  0  0  0
  6  7  1  0  0  0  0
  6 34  1  0  0  0  0
  7  8  2  0  0  0  0
  7  9  1  0  0  0  0
  9 10  1  0  0  0  0
  9 35  1  0  0  0  0
 10 15  1  0  0  0  0
 10 11  2  0  0  0  0
 11 12  1  0  0  0  0
 11 36  1  0  0  0  0
 12 13  2  0  0  0  0
 12 37  1  0  0  0  0
 13 14  1  0  0  0  0
 13 38  1  0  0  0  0
 14 15  2  0  0  0  0
 15 16  1  0  0  0  0
 16 20  1  0  0  0  0
 16 17  1  0  0  0  0
 17 18  1  0  0  0  0
 17 39  1  0  0  0  0
 17 40  1  0  0  0  0
 18 19  1  0  0  0  0
 18 41  1  0  0  0  0
 18 42  1  0  0  0  0
 19 20  1  0  0  0  0
 19 43  1  0  0  0  0
 19 44  1  0  0  0  0
 20 45  1  0  0  0  0
 20 46  1  0  0  0  0
 21 22  1  0  0  0  0
 21 47  1  0  0  0  0
 21 48  1  0  0  0  0
 22 23  1  0  0  0  0
 22 49  1  0  0  0  0
 22 50  1  0  0  0  0
 23 24  1  0  0  0  0
 24 25  1  0  0  0  0
 24 51  1  0  0  0  0
 24 52  1  0  0  0  0
 25 53  1  0  0  0  0
 25 54  1  0  0  0  0
M  CHG  1   2   1
M  END
> <s_m_source_file>
AV-unprocessed.smi

> <i_m_source_file_index>
1010

> <i_lp_mmshare_version>
43012

> <i_f3d_flags>
0

> <s_epik_input>
W0NIMl0xW0NIMl1PW0NIMl1bQ0gyXUMxKE4oW0NIM10pW0NIM10pW0NIMl1bTkhdQyg9TylbTkhdYzJbY0hdW2NIXVtjSF1uYzJOM1tDSDJdW0NIMl1bQ0gyXVtDSDJdMw==

> <s_epik_cmdline>
J2VwaWtfcHl0aG9uJywgJy1waCcsICc3LjAnLCAnLXRuJywgJzgnLCAnLW1hJywgJzIwMCcsICctbWV0YWxfYmluZGluZycsICctaW1hZScsICc8aW5maWxlLm1hZT4nLCAnLW9tYWUnLCAnPG91dGZpbGUubWFlPic=

> <r_lp_tautomer_probability>
1

> <r_epik_Ionization_Penalty>
0.0977718

> <r_epik_Ionization_Penalty_Charging>
0.0128317

> <r_epik_Ionization_Penalty_Neutral>
0.0849401

> <r_epik_State_Penalty>
0.0837778

> <r_epik_Charging_Adjusted_Penalty>
0.0966095

> <i_epik_Tot_Q>
1

> <i_epik_Tot_abs_Q>
1

> <r_epik_Metal_State_Penalty>
0.0755623

> <b_epik_Metal_Only>
0

> <s_lp_Force_Field>
OPLS_2005

> <r_lp_Energy>
58.4563

> <b_lp_Chiralities_Consistent>
1

> <s_lp_Variant>
AV-unprocessed.smi:1010-1

> <Gold.Version>
5.8.1

> <Gold.Id.Protein>
6NUR|6NUR_protein|mol2

> <Gold.PLP.Fitness>
38.8128

> <Gold.PLP.PLP>
-38.6816

> <Gold.PLP.part.hbond>
-1.6186

> <Gold.PLP.part.metal>
0.0000

> <Gold.PLP.part.buried>
-4.8980

> <Gold.PLP.part.nonpolar>
-32.2557

> <Gold.PLP.part.repulsive>
0.1408

> <Gold.PLP.ligand.clash>
0.0000

> <Gold.PLP.ligand.torsion>
1.8386

> <Gold.PLP.Chemscore.Hbond>
1.1230

> <Gold.PLP.Chemscore.CHOScore>
0.0000

> <Gold.PLP.Chemscore.Metal>
0.0000

> <Gold.Chemscore.Hbonds>
donor molecule, donor type, donor heavy atom, donor atom, acceptor molecule, acceptor atom, score
      P1  H  6896  6908       L1    23  0.34
      P1  H  7989  7998       L1     8  0.12

> <Gold.PLP.Chemscore.Internal.Correction>
0.4395

> <Gold.Rescore>
     Score         DG    S(hbond)    S(metal)    S(lipo)     H(rot)  DE(clash)    DE(int)     intcor
     13.60     -18.09       0.96        0.00     115.50       1.60       1.39       3.10       ----

> <Gold.Chemscore.Fitness>
13.6043

> <Gold.Chemscore.DG>
-18.0925

> <Gold.Chemscore.ZeroCoef>
-5.4800

> <Gold.Chemscore.Hbond>
0.9591

> <Gold.Chemscore.Metal>
0.0000

> <Gold.Chemscore.Lipo>
115.5006

> <Gold.Chemscore.Internal_Hbond>
0.0000

> <Gold.Chemscore.DEClash>
1.3926

> <Gold.Chemscore.DEInternal>
3.0956

> <Gold.Chemscore.Rot>
1.6033

> <Gold.Chemscore.Internal.Correction>
   9.000000E+99

> <Gold.Chemscore.Hbonds>
donor molecule, donor type, donor heavy atom, donor atom, acceptor molecule, acceptor atom, score
      P1  H  6896  6908       L1    23  0.03
      P1  H  7989  7998       L1     8  0.13

> <Gold.Chemscore.Hbond.Weighted>
-3.2035

> <Gold.Chemscore.Metal.Weighted>
-0.0000

> <Gold.Chemscore.Lipo.Weighted>
-13.5136

> <Gold.Chemscore.Internal_Hbond.Weighted>
0.0000

> <Gold.Chemscore.DEClash.Weighted>
1.3926

> <Gold.Chemscore.DEInternal.Weighted>
3.0956

> <Gold.Chemscore.Rot.Weighted>
4.1046

> <Gold.Chemscore.Internal.Correction.Weighted>
   9.000000E+99

> <Gold.Protein.RotatedTorsions>
[ 6907 6896 6895 6894 ] final  149.12 input  -60.11 | X-H torsion
[ 7974 7965 7964 7962 ] final  177.51 input  175.53 | X-H torsion
[ 8008 7997 7996 7995 ] final  -25.07 input   59.86 | X-H torsion
[ 10167 10162 10161 10158 ] final   89.24 input  -65.29 | X-H torsion
[ 10718 10713 10712 10709 ] final  -56.72 input   66.30 | X-H torsion
[ 10763 10752 10751 10750 ] final -158.53 input  -60.55 | X-H torsion
[ 11005 11000 10999 10996 ] final   52.11 input  -57.11 | X-H torsion

> <Gold.Protein.ActiveResidues>
 VAL166  LYS551  ARG553  GLY616  TRP617  ASP618  TYR619  PRO620  LYS621  CYS622 
 ASP623  PHE694  ASN695  SER759  ASP760  ASP761  ALA762  ILE779  LEU786  VAL792 
 PHE793  MET794  SER795  GLU796  ALA797  LYS798  CYS799  TRP800  GLU811  SER814 

> <Gold.Protein.RotatedAtoms>
  152.1324  133.4415  159.4726 H   0  0  0  0  0  0  0  0  0  0  0  0  # atno 6907 bound_to 6896
  150.6879  134.2405  159.4479 H   0  0  0  0  0  0  0  0  0  0  0  0  # atno 6908 bound_to 6896
  152.0290  134.9778  160.0623 H   0  0  0  0  0  0  0  0  0  0  0  0  # atno 6909 bound_to 6896
  144.7168  140.0257  143.6439 H   0  0  0  0  0  0  0  0  0  0  0  0  # atno 7974 bound_to 7965
  154.4495  140.1936  156.0563 H   0  0  0  0  0  0  0  0  0  0  0  0  # atno 8008 bound_to 7997
  156.0616  140.3296  155.7442 H   0  0  0  0  0  0  0  0  0  0  0  0  # atno 8009 bound_to 7997
  155.5402  140.0585  157.2862 H   0  0  0  0  0  0  0  0  0  0  0  0  # atno 8010 bound_to 7997
  139.8592  144.6553  150.9078 H   0  0  0  0  0  0  0  0  0  0  0  0  # atno 10167 bound_to 10162
  156.1266  130.4162  150.0343 H   0  0  0  0  0  0  0  0  0  0  0  0  # atno 10718 bound_to 10713
  154.7549  135.3102  154.8489 H   0  0  0  0  0  0  0  0  0  0  0  0  # atno 10763 bound_to 10752
  153.9266  135.6790  153.4750 H   0  0  0  0  0  0  0  0  0  0  0  0  # atno 10764 bound_to 10752
  153.1146  135.4850  154.9022 H   0  0  0  0  0  0  0  0  0  0  0  0  # atno 10765 bound_to 10752
  140.0876  134.5252  155.8883 H   0  0  0  0  0  0  0  0  0  0  0  0  # atno 11005 bound_to 11000
  146.0144  139.3197  143.0851 LP  0  0  0  0  0  0  0  0  0  0  0  0  # atno 17320 bound_to 7965
  145.8644  140.9457  143.0683 LP  0  0  0  0  0  0  0  0  0  0  0  0  # atno 17321 bound_to 7965
  140.7777  143.3759  151.1564 LP  0  0  0  0  0  0  0  0  0  0  0  0  # atno 17342 bound_to 10162
  139.7390  143.8954  152.3044 LP  0  0  0  0  0  0  0  0  0  0  0  0  # atno 17343 bound_to 10162
  156.8267  130.9378  151.3639 LP  0  0  0  0  0  0  0  0  0  0  0  0  # atno 17370 bound_to 10713
  157.6447  130.8835  149.9516 LP  0  0  0  0  0  0  0  0  0  0  0  0  # atno 17371 bound_to 10713
  141.2068  133.6658  156.6263 LP  0  0  0  0  0  0  0  0  0  0  0  0  # atno 17394 bound_to 11000
  140.3397  134.7859  157.4389 LP  0  0  0  0  0  0  0  0  0  0  0  0  # atno 17395 bound_to 11000

$$$$
