AV-unprocessed.smi:115|AV-procd|sdf|1126|dock8
  -GOLD-   2262018253D 1   1.00000     0.00000
 Structure written by MMmdl.
 55 57  0  0  0  0  0  0  0  0  1 V2000
  152.3255  137.3570  159.9828 C   0  0  0  0  0  0  0  0  0  0  0  0
  151.2755  136.8469  159.1796 O   0  0  0  0  0  0  0  0  0  0  0  0
  150.7857  137.8005  158.2502 C   0  0  0  0  0  0  0  0  0  0  0  0
  149.5105  137.2439  157.5846 C   0  0  1  0  0  0  0  0  0  0  0  0
  148.6992  138.2991  156.8131 C   0  0  0  0  0  0  0  0  0  0  0  0
  149.7464  136.0355  156.7770 N   0  0  0  0  0  0  0  0  0  0  0  0
  150.4536  136.0313  155.5751 C   0  0  0  0  0  0  0  0  0  0  0  0
  151.0572  137.2572  154.9653 C   0  0  0  0  0  0  0  0  0  0  0  0
  150.4693  134.7548  155.1010 C   0  0  0  0  0  0  0  0  0  0  0  0
  149.7777  133.9216  156.0193 C   0  0  0  0  0  0  0  0  0  0  0  0
  149.5152  132.4641  155.9032 C   0  0  0  0  0  0  0  0  0  0  0  0
  149.0337  131.7884  156.8136 O   0  0  0  0  0  0  0  0  0  0  0  0
  149.8700  131.8271  154.5465 C   0  0  0  0  0  0  0  0  0  0  0  0
  148.6970  131.5186  153.7381 N   0  0  0  0  0  0  0  0  0  0  0  0
  148.3650  130.1550  153.5397 C   0  0  0  0  0  0  0  0  0  0  0  0
  149.0279  129.2405  154.0327 O   0  0  0  0  0  0  0  0  0  0  0  0
  147.1950  129.9332  152.6970 C   0  0  0  0  0  0  0  0  0  0  0  0
  146.7903  128.6779  152.4394 F   0  0  0  0  0  0  0  0  0  0  0  0
  146.5125  130.9690  152.1633 C   0  0  0  0  0  0  0  0  0  0  0  0
  146.8622  132.2928  152.3724 N   0  0  0  0  0  0  0  0  0  0  0  0
  146.0842  133.4250  151.7386 C   0  0  1  0  0  0  0  0  0  0  0  0
  146.1234  133.3043  150.2111 C   0  0  0  0  0  0  0  0  0  0  0  0
  144.8604  132.5203  149.9301 C   0  0  0  0  0  0  0  0  0  0  0  0
  143.9195  133.0604  151.0012 C   0  0  0  0  0  0  0  0  0  0  0  0
  144.7443  133.3378  152.1308 O   0  0  0  0  0  0  0  0  0  0  0  0
  147.9871  132.6022  153.1669 C   0  0  0  0  0  0  0  0  0  0  0  0
  148.3387  133.7721  153.3363 O   0  0  0  0  0  0  0  0  0  0  0  0
  149.3649  134.7157  157.0664 C   0  0  0  0  0  0  0  0  0  0  0  0
  148.6317  134.3412  158.3253 C   0  0  0  0  0  0  0  0  0  0  0  0
  152.6652  136.5856  160.6737 H   0  0  0  0  0  0  0  0  0  0  0  0
  151.9921  138.2126  160.5714 H   0  0  0  0  0  0  0  0  0  0  0  0
  153.1771  137.6611  159.3730 H   0  0  0  0  0  0  0  0  0  0  0  0
  150.5979  138.7395  158.7684 H   0  0  0  0  0  0  0  0  0  0  0  0
  151.5498  137.9859  157.4934 H   0  0  0  0  0  0  0  0  0  0  0  0
  148.8839  136.9476  158.4237 H   0  0  0  0  0  0  0  0  0  0  0  0
  148.4408  139.1380  157.4595 H   0  0  0  0  0  0  0  0  0  0  0  0
  147.7656  137.8744  156.4431 H   0  0  0  0  0  0  0  0  0  0  0  0
  149.2364  138.7023  155.9571 H   0  0  0  0  0  0  0  0  0  0  0  0
  151.6437  137.0018  154.0826 H   0  0  0  0  0  0  0  0  0  0  0  0
  151.7222  137.7593  155.6682 H   0  0  0  0  0  0  0  0  0  0  0  0
  150.2841  137.9610  154.6562 H   0  0  0  0  0  0  0  0  0  0  0  0
  150.9325  134.4519  154.1735 H   0  0  0  0  0  0  0  0  0  0  0  0
  150.5215  132.4829  153.9671 H   0  0  0  0  0  0  0  0  0  0  0  0
  150.4353  130.9035  154.6812 H   0  0  0  0  0  0  0  0  0  0  0  0
  145.6612  130.7377  151.5410 H   0  0  0  0  0  0  0  0  0  0  0  0
  146.5223  134.3471  152.1241 H   0  0  0  0  0  0  0  0  0  0  0  0
  146.0561  134.3045  149.7815 H   0  0  0  0  0  0  0  0  0  0  0  0
  147.0350  132.8251  149.8521 H   0  0  0  0  0  0  0  0  0  0  0  0
  144.4826  132.6642  148.9176 H   0  0  0  0  0  0  0  0  0  0  0  0
  145.0358  131.4545  150.0808 H   0  0  0  0  0  0  0  0  0  0  0  0
  143.4619  133.9923  150.6674 H   0  0  0  0  0  0  0  0  0  0  0  0
  143.1221  132.3603  151.2509 H   0  0  0  0  0  0  0  0  0  0  0  0
  148.8706  133.3276  158.6420 H   0  0  0  0  0  0  0  0  0  0  0  0
  147.5535  134.4018  158.1780 H   0  0  0  0  0  0  0  0  0  0  0  0
  148.8988  134.9715  159.1681 H   0  0  0  0  0  0  0  0  0  0  0  0
  1  2  1  0  0  0  0
  1 30  1  0  0  0  0
  1 31  1  0  0  0  0
  1 32  1  0  0  0  0
  2  3  1  0  0  0  0
  3  4  1  0  0  0  0
  3 33  1  0  0  0  0
  3 34  1  0  0  0  0
  4  5  1  0  0  0  0
  4  6  1  0  0  0  0
  4 35  1  0  0  0  0
  5 36  1  0  0  0  0
  5 37  1  0  0  0  0
  5 38  1  0  0  0  0
  6 28  1  0  0  0  0
  6  7  1  0  0  0  0
  7  8  1  0  0  0  0
  7  9  2  0  0  0  0
  8 39  1  0  0  0  0
  8 40  1  0  0  0  0
  8 41  1  0  0  0  0
  9 10  1  0  0  0  0
  9 42  1  0  0  0  0
 10 11  1  0  0  0  0
 10 28  2  0  0  0  0
 11 12  2  0  0  0  0
 11 13  1  0  0  0  0
 13 14  1  0  0  0  0
 13 43  1  0  0  0  0
 13 44  1  0  0  0  0
 14 26  1  0  0  0  0
 14 15  1  0  0  0  0
 15 16  2  0  0  0  0
 15 17  1  0  0  0  0
 17 18  1  0  0  0  0
 17 19  2  0  0  0  0
 19 20  1  0  0  0  0
 19 45  1  0  0  0  0
 20 21  1  0  0  0  0
 20 26  1  0  0  0  0
 21 25  1  0  0  0  0
 21 22  1  0  0  0  0
 21 46  1  0  0  0  0
 22 23  1  0  0  0  0
 22 47  1  0  0  0  0
 22 48  1  0  0  0  0
 23 24  1  0  0  0  0
 23 49  1  0  0  0  0
 23 50  1  0  0  0  0
 24 25  1  0  0  0  0
 24 51  1  0  0  0  0
 24 52  1  0  0  0  0
 26 27  2  0  0  0  0
 28 29  1  0  0  0  0
 29 53  1  0  0  0  0
 29 54  1  0  0  0  0
 29 55  1  0  0  0  0
M  END
> <s_m_source_file>
AV-unprocessed.smi

> <i_m_source_file_index>
115

> <i_lp_mmshare_version>
43012

> <i_f3d_flags>
0

> <s_epik_input>
W0NIM11PW0NIMl1bQ0BIXShbQ0gzXSluMWMoW0NIM10pW2NIXWMoYzFbQ0gzXSlDKD1PKVtDSDJdbjJjKD1PKWMoRilbY0hdbihjMj1PKVtDQEBIXTNbQ0gyXVtDSDJdW0NIMl1PMw==

> <s_epik_cmdline>
J2VwaWtfcHl0aG9uJywgJy1waCcsICc3LjAnLCAnLXRuJywgJzgnLCAnLW1hJywgJzIwMCcsICctbWV0YWxfYmluZGluZycsICctaW1hZScsICc8aW5maWxlLm1hZT4nLCAnLW9tYWUnLCAnPG91dGZpbGUubWFlPic=

> <r_lp_tautomer_probability>
1

> <r_epik_Ionization_Penalty>
5.02611e-09

> <r_epik_Ionization_Penalty_Charging>
5.01743e-09

> <r_epik_Ionization_Penalty_Neutral>
8.68114e-12

> <r_epik_State_Penalty>
-0

> <r_epik_Charging_Adjusted_Penalty>
5.01743e-09

> <i_epik_Tot_Q>
0

> <i_epik_Tot_abs_Q>
0

> <r_epik_Metal_State_Penalty>
-0

> <b_epik_Metal_Only>
0

> <s_epik_Chemistry_Notes>
This compound contains an acetal/aminal-like group ( X-CH(R)-Y where X, Y are N, S, or O) that may be acid/base labile, releasing an aldehyde.

> <s_lp_Force_Field>
OPLS_2005

> <r_lp_Energy>
46.6669

> <b_lp_Chiralities_Consistent>
1

> <s_lp_Variant>
AV-unprocessed.smi:115-4

> <Gold.Version>
5.8.1

> <Gold.Id.Protein>
6NUR|6NUR_protein|mol2

> <Gold.PLP.Fitness>
45.0553

> <Gold.PLP.PLP>
-42.7138

> <Gold.PLP.part.hbond>
-1.0000

> <Gold.PLP.part.metal>
0.0000

> <Gold.PLP.part.buried>
-6.2382

> <Gold.PLP.part.nonpolar>
-35.8834

> <Gold.PLP.part.repulsive>
0.8167

> <Gold.PLP.ligand.clash>
0.0000

> <Gold.PLP.ligand.torsion>
0.4892

> <Gold.PLP.Chemscore.Hbond>
0.9920

> <Gold.PLP.Chemscore.CHOScore>
0.0000

> <Gold.PLP.Chemscore.Metal>
0.0000

> <Gold.Chemscore.Hbonds>
donor molecule, donor type, donor heavy atom, donor atom, acceptor molecule, acceptor atom, score
      P1  H  6896  6908       L1     2  0.98

> <Gold.PLP.Chemscore.Internal.Correction>
0.3439

> <Gold.Rescore>
     Score         DG    S(hbond)    S(metal)    S(lipo)     H(rot)  DE(clash)    DE(int)     intcor
      7.75      -9.29       0.00        0.00      80.54       2.19       0.08       1.46       ----

> <Gold.Chemscore.Fitness>
7.7511

> <Gold.Chemscore.DG>
-9.2877

> <Gold.Chemscore.ZeroCoef>
-5.4800

> <Gold.Chemscore.Hbond>
0.0000

> <Gold.Chemscore.Metal>
0.0000

> <Gold.Chemscore.Lipo>
80.5441

> <Gold.Chemscore.Internal_Hbond>
0.0000

> <Gold.Chemscore.DEClash>
0.0808

> <Gold.Chemscore.DEInternal>
1.4558

> <Gold.Chemscore.Rot>
2.1938

> <Gold.Chemscore.Internal.Correction>
   9.000000E+99

> <Gold.Chemscore.Hbonds>
donor molecule, donor type, donor heavy atom, donor atom, acceptor molecule, acceptor atom, score
      P1  H  6896  6908       L1     2  0.28

> <Gold.Chemscore.Hbond.Weighted>
-0.0000

> <Gold.Chemscore.Metal.Weighted>
-0.0000

> <Gold.Chemscore.Lipo.Weighted>
-9.4237

> <Gold.Chemscore.Internal_Hbond.Weighted>
0.0000

> <Gold.Chemscore.DEClash.Weighted>
0.0808

> <Gold.Chemscore.DEInternal.Weighted>
1.4558

> <Gold.Chemscore.Rot.Weighted>
5.6160

> <Gold.Chemscore.Internal.Correction.Weighted>
   9.000000E+99

> <Gold.Protein.RotatedTorsions>
[ 6907 6896 6895 6894 ] final -148.34 input  -60.11 | X-H torsion
[ 7974 7965 7964 7962 ] final   -1.04 input  175.53 | X-H torsion
[ 8008 7997 7996 7995 ] final   62.98 input   59.86 | X-H torsion
[ 10167 10162 10161 10158 ] final   51.05 input  -65.29 | X-H torsion
[ 10718 10713 10712 10709 ] final   64.99 input   66.30 | X-H torsion
[ 10763 10752 10751 10750 ] final    0.03 input  -60.55 | X-H torsion
[ 11005 11000 10999 10996 ] final  175.65 input  -57.11 | X-H torsion

> <Gold.Protein.ActiveResidues>
 VAL166  LYS551  ARG553  GLY616  TRP617  ASP618  TYR619  PRO620  LYS621  CYS622 
 ASP623  PHE694  ASN695  SER759  ASP760  ASP761  ALA762  ILE779  LEU786  VAL792 
 PHE793  MET794  SER795  GLU796  ALA797  LYS798  CYS799  TRP800  GLU811  SER814 

> <Gold.Protein.RotatedAtoms>
  151.1684  133.4800  159.2593 H   0  0  0  0  0  0  0  0  0  0  0  0  # atno 6907 bound_to 6896
  151.1381  135.0165  159.8623 H   0  0  0  0  0  0  0  0  0  0  0  0  # atno 6908 bound_to 6896
  152.5462  134.1580  159.8599 H   0  0  0  0  0  0  0  0  0  0  0  0  # atno 6909 bound_to 6896
  146.2421  140.1360  142.8336 H   0  0  0  0  0  0  0  0  0  0  0  0  # atno 7974 bound_to 7965
  155.6229  140.3496  155.4658 H   0  0  0  0  0  0  0  0  0  0  0  0  # atno 8008 bound_to 7997
  156.0065  140.1224  157.0520 H   0  0  0  0  0  0  0  0  0  0  0  0  # atno 8009 bound_to 7997
  154.4266  140.1090  156.5755 H   0  0  0  0  0  0  0  0  0  0  0  0  # atno 8010 bound_to 7997
  140.2660  144.3319  150.6304 H   0  0  0  0  0  0  0  0  0  0  0  0  # atno 10167 bound_to 10162
  157.6076  130.9190  149.9918 H   0  0  0  0  0  0  0  0  0  0  0  0  # atno 10718 bound_to 10713
  153.3259  135.6972  153.6990 H   0  0  0  0  0  0  0  0  0  0  0  0  # atno 10763 bound_to 10752
  153.5812  135.3497  155.2876 H   0  0  0  0  0  0  0  0  0  0  0  0  # atno 10764 bound_to 10752
  154.8608  135.4295  154.2435 H   0  0  0  0  0  0  0  0  0  0  0  0  # atno 10765 bound_to 10752
  140.3646  134.7083  157.4353 H   0  0  0  0  0  0  0  0  0  0  0  0  # atno 11005 bound_to 11000
  145.0286  140.8852  143.5123 LP  0  0  0  0  0  0  0  0  0  0  0  0  # atno 17320 bound_to 7965
  145.1420  139.2566  143.5485 LP  0  0  0  0  0  0  0  0  0  0  0  0  # atno 17321 bound_to 7965
  140.5928  143.2167  151.7221 LP  0  0  0  0  0  0  0  0  0  0  0  0  # atno 17342 bound_to 10162
  139.5002  144.3914  152.0276 LP  0  0  0  0  0  0  0  0  0  0  0  0  # atno 17343 bound_to 10162
  156.1168  130.3647  149.9955 LP  0  0  0  0  0  0  0  0  0  0  0  0  # atno 17370 bound_to 10713
  156.8043  130.9302  151.3645 LP  0  0  0  0  0  0  0  0  0  0  0  0  # atno 17371 bound_to 10713
  140.0600  134.6009  155.8760 LP  0  0  0  0  0  0  0  0  0  0  0  0  # atno 17394 bound_to 11000
  141.1974  133.6596  156.5738 LP  0  0  0  0  0  0  0  0  0  0  0  0  # atno 17395 bound_to 11000

$$$$
