AV-unprocessed.smi:438|AV-procd|sdf|2565|dock3
  -GOLD-   2262022533D 1   1.00000     0.00000
 Structure written by MMmdl.
 48 49  0  0  0  0  0  0  0  0  1 V2000
  148.2336  133.6820  157.0321 C   0  0  0  0  0  0  0  0  0  0  0  0
  148.7971  134.8805  157.7745 C   0  0  0  0  0  0  0  0  0  0  0  0
  149.6134  135.7316  157.0189 N   0  0  0  0  0  0  0  0  0  0  0  0
  150.1371  136.7822  157.5645 C   0  0  0  0  0  0  0  0  0  0  0  0
  151.2072  138.0482  156.8263 S   0  0  0  0  0  0  0  0  0  0  0  0
  150.9814  139.4266  157.9863 C   0  0  0  0  0  0  0  0  0  0  0  0
  152.1855  140.3622  158.0030 C   0  0  0  0  0  0  0  0  0  0  0  0
  153.2394  140.0251  157.4644 O   0  0  0  0  0  0  0  0  0  0  0  0
  152.0138  141.5331  158.6351 N   0  0  0  0  0  0  0  0  0  0  0  0
  153.0376  142.5587  158.8312 C   0  0  2  0  0  0  0  0  0  0  0  0
  153.9984  142.1593  159.9725 C   0  0  0  0  0  0  0  0  0  0  0  0
  153.3097  142.1956  161.3480 C   0  0  0  0  0  0  0  0  0  0  0  0
  152.6768  143.5692  161.6161 C   0  0  0  0  0  0  0  0  0  0  0  0
  151.7073  143.9696  160.4923 C   0  0  0  0  0  0  0  0  0  0  0  0
  152.3943  143.9397  159.1104 C   0  0  2  0  0  0  0  0  0  0  0  0
  151.4373  144.3889  157.9927 C   0  0  0  0  0  0  0  0  0  0  0  0
  149.9012  137.0741  158.9083 N   0  0  0  0  0  0  0  0  0  0  0  0
  149.1331  136.3166  159.7222 C   0  0  0  0  0  0  0  0  0  0  0  0
  148.9724  136.6325  160.8999 O   0  0  0  0  0  0  0  0  0  0  0  0
  148.5385  135.1275  159.0893 C   0  0  0  0  0  0  0  0  0  0  0  0
  147.6371  134.2429  159.9461 C   0  0  0  0  0  0  0  0  0  0  0  0
  148.3794  133.6554  161.1551 C   0  0  0  0  0  0  0  0  0  0  0  0
  148.2860  134.5412  162.2493 O   0  0  0  0  0  0  0  0  0  0  0  0
  148.4471  132.7592  157.5719 H   0  0  0  0  0  0  0  0  0  0  0  0
  148.6693  133.5927  156.0361 H   0  0  0  0  0  0  0  0  0  0  0  0
  147.1536  133.7777  156.9184 H   0  0  0  0  0  0  0  0  0  0  0  0
  150.8252  139.0342  158.9917 H   0  0  0  0  0  0  0  0  0  0  0  0
  150.0833  139.9823  157.7131 H   0  0  0  0  0  0  0  0  0  0  0  0
  151.1083  141.7186  159.0417 H   0  0  0  0  0  0  0  0  0  0  0  0
  153.6171  142.6409  157.9097 H   0  0  0  0  0  0  0  0  0  0  0  0
  154.4171  141.1685  159.7918 H   0  0  0  0  0  0  0  0  0  0  0  0
  154.8462  142.8453  159.9812 H   0  0  0  0  0  0  0  0  0  0  0  0
  152.5425  141.4218  161.3983 H   0  0  0  0  0  0  0  0  0  0  0  0
  154.0323  141.9616  162.1302 H   0  0  0  0  0  0  0  0  0  0  0  0
  152.1524  143.5565  162.5721 H   0  0  0  0  0  0  0  0  0  0  0  0
  153.4619  144.3213  161.7053 H   0  0  0  0  0  0  0  0  0  0  0  0
  150.8475  143.2982  160.4968 H   0  0  0  0  0  0  0  0  0  0  0  0
  151.3157  144.9677  160.6912 H   0  0  0  0  0  0  0  0  0  0  0  0
  153.2053  144.6693  159.1384 H   0  0  0  0  0  0  0  0  0  0  0  0
  150.5565  143.7491  157.9308 H   0  0  0  0  0  0  0  0  0  0  0  0
  151.9327  144.3690  157.0217 H   0  0  0  0  0  0  0  0  0  0  0  0
  151.0908  145.4085  158.1631 H   0  0  0  0  0  0  0  0  0  0  0  0
  150.3291  137.8986  159.3040 H   0  0  0  0  0  0  0  0  0  0  0  0
  147.2213  133.4342  159.3454 H   0  0  0  0  0  0  0  0  0  0  0  0
  146.7745  134.8212  160.2806 H   0  0  0  0  0  0  0  0  0  0  0  0
  147.9522  132.6933  161.4394 H   0  0  0  0  0  0  0  0  0  0  0  0
  149.4319  133.4903  160.9227 H   0  0  0  0  0  0  0  0  0  0  0  0
  147.9837  134.0576  163.0029 H   0  0  0  0  0  0  0  0  0  0  0  0
  1 24  1  0  0  0  0
  1 25  1  0  0  0  0
  1 26  1  0  0  0  0
  1  2  1  0  0  0  0
  2 20  2  0  0  0  0
  2  3  1  0  0  0  0
  3  4  2  0  0  0  0
  4  5  1  0  0  0  0
  4 17  1  0  0  0  0
  5  6  1  0  0  0  0
  6  7  1  0  0  0  0
  6 27  1  0  0  0  0
  6 28  1  0  0  0  0
  7  8  2  0  0  0  0
  7  9  1  0  0  0  0
  9 10  1  0  0  0  0
  9 29  1  0  0  0  0
 10 15  1  0  0  0  0
 10 11  1  0  0  0  0
 10 30  1  0  0  0  0
 11 12  1  0  0  0  0
 11 31  1  0  0  0  0
 11 32  1  0  0  0  0
 12 13  1  0  0  0  0
 12 33  1  0  0  0  0
 12 34  1  0  0  0  0
 13 14  1  0  0  0  0
 13 35  1  0  0  0  0
 13 36  1  0  0  0  0
 14 15  1  0  0  0  0
 14 37  1  0  0  0  0
 14 38  1  0  0  0  0
 15 16  1  0  0  0  0
 15 39  1  0  0  0  0
 16 40  1  0  0  0  0
 16 41  1  0  0  0  0
 16 42  1  0  0  0  0
 17 43  1  0  0  0  0
 17 18  1  0  0  0  0
 18 19  2  0  0  0  0
 18 20  1  0  0  0  0
 20 21  1  0  0  0  0
 21 22  1  0  0  0  0
 21 44  1  0  0  0  0
 21 45  1  0  0  0  0
 22 23  1  0  0  0  0
 22 46  1  0  0  0  0
 22 47  1  0  0  0  0
 23 48  1  0  0  0  0
M  END
> <s_m_source_file>
AV-unprocessed.smi

> <i_m_source_file_index>
438

> <i_lp_mmshare_version>
43012

> <i_f3d_flags>
0

> <s_epik_input>
W09IXVtDSDJdW0NIMl1jMWMoW09IXSluYyhuYzFbQ0gzXSlTW0NIMl1DKD1PKVtOSF1bQ0BASF0yW0NIMl1bQ0gyXVtDSDJdW0NIMl1bQ0BIXTJbQ0gzXQ==

> <s_epik_cmdline>
J2VwaWtfcHl0aG9uJywgJy1waCcsICc3LjAnLCAnLXRuJywgJzgnLCAnLW1hJywgJzIwMCcsICctbWV0YWxfYmluZGluZycsICctaW1hZScsICc8aW5maWxlLm1hZT4nLCAnLW9tYWUnLCAnPG91dGZpbGUubWFlPic=

> <r_lp_tautomer_probability>
0.660323

> <r_epik_Ionization_Penalty>
0.00860626

> <r_epik_Ionization_Penalty_Charging>
0.00860522

> <r_epik_Ionization_Penalty_Neutral>
1.04215e-06

> <r_epik_State_Penalty>
0.156825

> <r_epik_Charging_Adjusted_Penalty>
0.16543

> <i_epik_Tot_Q>
0

> <i_epik_Tot_abs_Q>
0

> <r_epik_Metal_State_Penalty>
0.752038

> <b_epik_Metal_Only>
0

> <s_lp_Force_Field>
OPLS_2005

> <r_lp_Energy>
12.4019

> <b_lp_Chiralities_Consistent>
1

> <s_lp_Variant>
AV-unprocessed.smi:438-3

> <Gold.Version>
5.8.1

> <Gold.Id.Protein>
6NUR|6NUR_protein|mol2

> <Gold.PLP.Fitness>
51.2788

> <Gold.PLP.PLP>
-45.6791

> <Gold.PLP.part.hbond>
-3.3221

> <Gold.PLP.part.metal>
0.0000

> <Gold.PLP.part.buried>
-5.2228

> <Gold.PLP.part.nonpolar>
-37.0329

> <Gold.PLP.part.repulsive>
0.3506

> <Gold.PLP.ligand.clash>
0.0762

> <Gold.PLP.ligand.torsion>
1.0156

> <Gold.PLP.Chemscore.Hbond>
2.5616

> <Gold.PLP.Chemscore.CHOScore>
0.0000

> <Gold.PLP.Chemscore.Metal>
0.0000

> <Gold.Chemscore.Hbonds>
donor molecule, donor type, donor heavy atom, donor atom, acceptor molecule, acceptor atom, score
      P1  H  6931  6943       L1    19  0.98
      P1  H  7997  8009       L1     8  0.65

> <Gold.PLP.Chemscore.Internal.Correction>
0.0222

> <Gold.Rescore>
     Score         DG    S(hbond)    S(metal)    S(lipo)     H(rot)  DE(clash)    DE(int)     intcor
     17.24     -19.42       2.56        0.00     108.81       2.86       0.03       2.15       ----

> <Gold.Chemscore.Fitness>
17.2361

> <Gold.Chemscore.DG>
-19.4153

> <Gold.Chemscore.ZeroCoef>
-5.4800

> <Gold.Chemscore.Hbond>
2.5561

> <Gold.Chemscore.Metal>
0.0000

> <Gold.Chemscore.Lipo>
108.8114

> <Gold.Chemscore.Internal_Hbond>
0.0000

> <Gold.Chemscore.DEClash>
0.0292

> <Gold.Chemscore.DEInternal>
2.1500

> <Gold.Chemscore.Rot>
2.8645

> <Gold.Chemscore.Internal.Correction>
   9.000000E+99

> <Gold.Chemscore.Hbonds>
donor molecule, donor type, donor heavy atom, donor atom, acceptor molecule, acceptor atom, score
      P1  H  6931  6943       L1    19  0.93
      P1  H  7997  8009       L1     8  0.62

> <Gold.Chemscore.Hbond.Weighted>
-8.5375

> <Gold.Chemscore.Metal.Weighted>
-0.0000

> <Gold.Chemscore.Lipo.Weighted>
-12.7309

> <Gold.Chemscore.Internal_Hbond.Weighted>
0.0000

> <Gold.Chemscore.DEClash.Weighted>
0.0292

> <Gold.Chemscore.DEInternal.Weighted>
2.1500

> <Gold.Chemscore.Rot.Weighted>
7.3331

> <Gold.Chemscore.Internal.Correction.Weighted>
   9.000000E+99

> <Gold.Protein.RotatedTorsions>
[ 6907 6896 6895 6894 ] final   52.73 input  -60.11 | X-H torsion
[ 7974 7965 7964 7962 ] final  -75.87 input  175.53 | X-H torsion
[ 8008 7997 7996 7995 ] final  144.21 input   59.86 | X-H torsion
[ 10167 10162 10161 10158 ] final -108.94 input  -65.29 | X-H torsion
[ 10718 10713 10712 10709 ] final  119.37 input   66.30 | X-H torsion
[ 10763 10752 10751 10750 ] final -155.10 input  -60.55 | X-H torsion
[ 11005 11000 10999 10996 ] final   10.29 input  -57.11 | X-H torsion

> <Gold.Protein.ActiveResidues>
 VAL166  LYS551  ARG553  GLY616  TRP617  ASP618  TYR619  PRO620  LYS621  CYS622 
 ASP623  PHE694  ASN695  SER759  ASP760  ASP761  ALA762  ILE779  LEU786  VAL792 
 PHE793  MET794  SER795  GLU796  ALA797  LYS798  CYS799  TRP800  GLU811  SER814 

> <Gold.Protein.RotatedAtoms>
  152.3263  134.7316  160.0300 H   0  0  0  0  0  0  0  0  0  0  0  0  # atno 6907 bound_to 6896
  151.7748  133.3339  159.3463 H   0  0  0  0  0  0  0  0  0  0  0  0  # atno 6908 bound_to 6896
  150.7398  134.5917  159.6035 H   0  0  0  0  0  0  0  0  0  0  0  0  # atno 6909 bound_to 6896
  145.6204  140.9364  143.1141 H   0  0  0  0  0  0  0  0  0  0  0  0  # atno 7974 bound_to 7965
  156.2913  140.2242  156.5017 H   0  0  0  0  0  0  0  0  0  0  0  0  # atno 8008 bound_to 7997
  154.7684  140.0468  157.1053 H   0  0  0  0  0  0  0  0  0  0  0  0  # atno 8009 bound_to 7997
  154.9904  140.3089  155.4912 H   0  0  0  0  0  0  0  0  0  0  0  0  # atno 8010 bound_to 7997
  140.1607  143.4122  152.1427 H   0  0  0  0  0  0  0  0  0  0  0  0  # atno 10167 bound_to 10162
  157.5966  131.1057  150.7886 H   0  0  0  0  0  0  0  0  0  0  0  0  # atno 10718 bound_to 10713
  154.7811  135.3175  154.7987 H   0  0  0  0  0  0  0  0  0  0  0  0  # atno 10763 bound_to 10752
  153.8698  135.6845  153.4779 H   0  0  0  0  0  0  0  0  0  0  0  0  # atno 10764 bound_to 10752
  153.1448  135.4724  154.9487 H   0  0  0  0  0  0  0  0  0  0  0  0  # atno 10765 bound_to 10752
  140.5162  134.0604  155.7832 H   0  0  0  0  0  0  0  0  0  0  0  0  # atno 11005 bound_to 11000
  144.7233  139.7956  143.7374 LP  0  0  0  0  0  0  0  0  0  0  0  0  # atno 17320 bound_to 7965
  146.1436  139.4499  143.0093 LP  0  0  0  0  0  0  0  0  0  0  0  0  # atno 17321 bound_to 7965
  139.5382  144.7231  151.4821 LP  0  0  0  0  0  0  0  0  0  0  0  0  # atno 17342 bound_to 10162
  140.6644  143.8429  150.6925 LP  0  0  0  0  0  0  0  0  0  0  0  0  # atno 17343 bound_to 10162
  156.8295  130.5011  149.5333 LP  0  0  0  0  0  0  0  0  0  0  0  0  # atno 17370 bound_to 10713
  156.1030  130.5983  150.9925 LP  0  0  0  0  0  0  0  0  0  0  0  0  # atno 17371 bound_to 10713
  141.1359  133.9222  157.2435 LP  0  0  0  0  0  0  0  0  0  0  0  0  # atno 17394 bound_to 11000
  139.9631  135.0149  156.9315 LP  0  0  0  0  0  0  0  0  0  0  0  0  # atno 17395 bound_to 11000

$$$$
