AV-unprocessed.smi:2971|AV-procd|sdf|11333|dock10
  -GOLD-   2272016243D 1   1.00000     0.00000
 Structure written by MMmdl.
 36 38  0  0  0  0  0  0  0  0  1 V2000
  147.4859  137.8667  151.3712 O   0  0  0  0  0  0  0  0  0  0  0  0
  146.2308  138.0969  151.9815 C   0  0  1  0  0  0  0  0  0  0  0  0
  145.2949  136.9312  151.6248 C   0  0  0  0  0  0  0  0  0  0  0  0
  145.9052  135.7113  152.0254 O   0  0  0  0  0  0  0  0  0  0  0  0
  145.5106  134.5458  151.4025 C   0  0  0  0  0  0  0  0  0  0  0  0
  144.5211  134.4821  150.3881 C   0  0  0  0  0  0  0  0  0  0  0  0
  144.1767  133.2479  149.8034 C   0  0  0  0  0  0  0  0  0  0  0  0
  144.8140  132.0652  150.2209 C   0  0  0  0  0  0  0  0  0  0  0  0
  145.7976  132.1183  151.2255 C   0  0  0  0  0  0  0  0  0  0  0  0
  146.1419  133.3517  151.8122 C   0  0  0  0  0  0  0  0  0  0  0  0
  147.0893  133.3883  152.7797 F   0  0  0  0  0  0  0  0  0  0  0  0
  146.4308  138.2263  153.5042 C   0  0  0  0  0  0  0  0  0  0  0  0
  147.1462  139.4354  153.8729 N   0  0  0  0  0  0  0  0  0  0  0  0
  146.7509  140.7051  153.6601 C   0  0  0  0  0  0  0  0  0  0  0  0
  147.5573  141.6744  154.0836 N   0  0  0  0  0  0  0  0  0  0  0  0
  148.5992  140.9487  154.6356 C   0  0  0  0  0  0  0  0  0  0  0  0
  149.7877  141.3843  155.2643 C   0  0  0  0  0  0  0  0  0  0  0  0
  150.7194  140.4476  155.7583 C   0  0  0  0  0  0  0  0  0  0  0  0
  150.4789  139.0641  155.6302 C   0  0  0  0  0  0  0  0  0  0  0  0
  149.3018  138.6061  155.0078 C   0  0  0  0  0  0  0  0  0  0  0  0
  148.3734  139.5438  154.5187 C   0  0  0  0  0  0  0  0  0  0  0  0
  148.0330  137.3965  151.9821 H   0  0  0  0  0  0  0  0  0  0  0  0
  145.8158  139.0301  151.5979 H   0  0  0  0  0  0  0  0  0  0  0  0
  144.3154  137.0653  152.0880 H   0  0  0  0  0  0  0  0  0  0  0  0
  145.1514  136.9032  150.5433 H   0  0  0  0  0  0  0  0  0  0  0  0
  144.0102  135.3664  150.0396 H   0  0  0  0  0  0  0  0  0  0  0  0
  143.4213  133.2095  149.0322 H   0  0  0  0  0  0  0  0  0  0  0  0
  144.5492  131.1193  149.7716 H   0  0  0  0  0  0  0  0  0  0  0  0
  146.2891  131.2120  151.5474 H   0  0  0  0  0  0  0  0  0  0  0  0
  145.4649  138.2394  154.0107 H   0  0  0  0  0  0  0  0  0  0  0  0
  146.9732  137.3639  153.8944 H   0  0  0  0  0  0  0  0  0  0  0  0
  145.8167  140.9303  153.1666 H   0  0  0  0  0  0  0  0  0  0  0  0
  149.9830  142.4416  155.3665 H   0  0  0  0  0  0  0  0  0  0  0  0
  151.6239  140.7924  156.2372 H   0  0  0  0  0  0  0  0  0  0  0  0
  151.1996  138.3543  156.0094 H   0  0  0  0  0  0  0  0  0  0  0  0
  149.1154  137.5475  154.9045 H   0  0  0  0  0  0  0  0  0  0  0  0
  1  2  1  0  0  0  0
  1 22  1  0  0  0  0
  2  3  1  0  0  0  0
  2 12  1  0  0  0  0
  2 23  1  0  0  0  0
  3  4  1  0  0  0  0
  3 24  1  0  0  0  0
  3 25  1  0  0  0  0
  4  5  1  0  0  0  0
  5 10  1  0  0  0  0
  5  6  2  0  0  0  0
  6  7  1  0  0  0  0
  6 26  1  0  0  0  0
  7  8  2  0  0  0  0
  7 27  1  0  0  0  0
  8  9  1  0  0  0  0
  8 28  1  0  0  0  0
  9 10  2  0  0  0  0
  9 29  1  0  0  0  0
 10 11  1  0  0  0  0
 12 13  1  0  0  0  0
 12 30  1  0  0  0  0
 12 31  1  0  0  0  0
 13 21  1  0  0  0  0
 13 14  1  0  0  0  0
 14 15  2  0  0  0  0
 14 32  1  0  0  0  0
 15 16  1  0  0  0  0
 16 21  2  0  0  0  0
 16 17  1  0  0  0  0
 17 18  2  0  0  0  0
 17 33  1  0  0  0  0
 18 19  1  0  0  0  0
 18 34  1  0  0  0  0
 19 20  2  0  0  0  0
 19 35  1  0  0  0  0
 20 21  1  0  0  0  0
 20 36  1  0  0  0  0
M  END
> <s_m_source_file>
AV-unprocessed.smi

> <i_m_source_file_index>
2971

> <i_lp_mmshare_version>
43012

> <i_f3d_flags>
0

> <s_epik_input>
W2NIXTFbY0hdW2NIXVtjSF1jKGMxMiluKFtjSF1uMilbQ0gyXVtDQEhdKFtPSF0pW0NIMl1PYzNbY0hdW2NIXVtjSF1bY0hdYzNG

> <s_epik_cmdline>
J2VwaWtfcHl0aG9uJywgJy1waCcsICc3LjAnLCAnLXRuJywgJzgnLCAnLW1hJywgJzIwMCcsICctbWV0YWxfYmluZGluZycsICctaW1hZScsICc8aW5maWxlLm1hZT4nLCAnLW9tYWUnLCAnPG91dGZpbGUubWFlPic=

> <r_lp_tautomer_probability>
1

> <r_epik_Ionization_Penalty>
0.0600913

> <r_epik_Ionization_Penalty_Charging>
0

> <r_epik_Ionization_Penalty_Neutral>
0.0600913

> <r_epik_State_Penalty>
0.0520726

> <r_epik_Charging_Adjusted_Penalty>
0.0520726

> <i_epik_Tot_Q>
0

> <i_epik_Tot_abs_Q>
0

> <r_epik_Metal_State_Penalty>
5.44269e-05

> <b_epik_Metal_Only>
0

> <s_lp_Force_Field>
OPLS_2005

> <r_lp_Energy>
16.3694

> <b_lp_Chiralities_Consistent>
1

> <s_lp_Variant>
AV-unprocessed.smi:2971-2

> <Gold.Version>
5.8.1

> <Gold.Id.Protein>
6NUR|6NUR_protein|mol2

> <Gold.PLP.Fitness>
47.9599

> <Gold.PLP.PLP>
-39.9541

> <Gold.PLP.part.hbond>
-2.4585

> <Gold.PLP.part.metal>
0.0000

> <Gold.PLP.part.buried>
-0.9971

> <Gold.PLP.part.nonpolar>
-37.9930

> <Gold.PLP.part.repulsive>
1.0834

> <Gold.PLP.ligand.clash>
0.0000

> <Gold.PLP.ligand.torsion>
0.1707

> <Gold.PLP.Chemscore.Hbond>
1.7620

> <Gold.PLP.Chemscore.CHOScore>
1.0000

> <Gold.PLP.Chemscore.Metal>
0.0000

> <Gold.Chemscore.Hbonds>
donor molecule, donor type, donor heavy atom, donor atom, acceptor molecule, acceptor atom, score
      L1  H     1    22       P1  7948  0.53
      P1  H  7954  7966       L1     1  1.00
      L1  C    14    32       P1 10175  1.00

> <Gold.PLP.Chemscore.Internal.Correction>
0.0612

> <Gold.Rescore>
     Score         DG    S(hbond)    S(metal)    S(lipo)     H(rot)  DE(clash)    DE(int)     intcor
     13.08     -14.14       0.95        0.00      98.79       2.37       0.84       0.22       ----

> <Gold.Chemscore.Fitness>
13.0753

> <Gold.Chemscore.DG>
-14.1382

> <Gold.Chemscore.ZeroCoef>
-5.4800

> <Gold.Chemscore.Hbond>
0.9509

> <Gold.Chemscore.Metal>
0.0000

> <Gold.Chemscore.Lipo>
98.7910

> <Gold.Chemscore.Internal_Hbond>
0.0000

> <Gold.Chemscore.DEClash>
0.8450

> <Gold.Chemscore.DEInternal>
0.2179

> <Gold.Chemscore.Rot>
2.3735

> <Gold.Chemscore.Internal.Correction>
   9.000000E+99

> <Gold.Chemscore.Hbonds>
donor molecule, donor type, donor heavy atom, donor atom, acceptor molecule, acceptor atom, score
      L1  H     1    22       P1  7948  0.53
      P1  H  7954  7966       L1     1  0.74

> <Gold.Chemscore.Hbond.Weighted>
-3.1759

> <Gold.Chemscore.Metal.Weighted>
-0.0000

> <Gold.Chemscore.Lipo.Weighted>
-11.5585

> <Gold.Chemscore.Internal_Hbond.Weighted>
0.0000

> <Gold.Chemscore.DEClash.Weighted>
0.8450

> <Gold.Chemscore.DEInternal.Weighted>
0.2179

> <Gold.Chemscore.Rot.Weighted>
6.0762

> <Gold.Chemscore.Internal.Correction.Weighted>
   9.000000E+99

> <Gold.Protein.RotatedTorsions>
[ 6907 6896 6895 6894 ] final  153.66 input  -60.11 | X-H torsion
[ 7974 7965 7964 7962 ] final -162.49 input  175.53 | X-H torsion
[ 8008 7997 7996 7995 ] final   83.25 input   59.86 | X-H torsion
[ 10167 10162 10161 10158 ] final  -26.46 input  -65.29 | X-H torsion
[ 10718 10713 10712 10709 ] final  133.37 input   66.30 | X-H torsion
[ 10763 10752 10751 10750 ] final   45.40 input  -60.55 | X-H torsion
[ 11005 11000 10999 10996 ] final -126.55 input  -57.11 | X-H torsion

> <Gold.Protein.ActiveResidues>
 VAL166  LYS551  ARG553  GLY616  TRP617  ASP618  TYR619  PRO620  LYS621  CYS622 
 ASP623  PHE694  ASN695  SER759  ASP760  ASP761  ALA762  ILE779  LEU786  VAL792 
 PHE793  MET794  SER795  GLU796  ALA797  LYS798  CYS799  TRP800  GLU811  SER814 

> <Gold.Protein.RotatedAtoms>
  152.0696  133.4100  159.4452 H   0  0  0  0  0  0  0  0  0  0  0  0  # atno 6907 bound_to 6896
  150.6864  134.3107  159.4754 H   0  0  0  0  0  0  0  0  0  0  0  0  # atno 6908 bound_to 6896
  152.0937  134.9389  160.0622 H   0  0  0  0  0  0  0  0  0  0  0  0  # atno 6909 bound_to 6896
  144.7356  140.3246  143.6164 H   0  0  0  0  0  0  0  0  0  0  0  0  # atno 7974 bound_to 7965
  155.9214  140.3421  155.6176 H   0  0  0  0  0  0  0  0  0  0  0  0  # atno 8008 bound_to 7997
  155.7269  140.0790  157.2325 H   0  0  0  0  0  0  0  0  0  0  0  0  # atno 8009 bound_to 7997
  154.4070  140.1595  156.2452 H   0  0  0  0  0  0  0  0  0  0  0  0  # atno 8010 bound_to 7997
  140.7282  143.4176  151.1003 H   0  0  0  0  0  0  0  0  0  0  0  0  # atno 10167 bound_to 10162
  157.4780  131.1084  150.9718 H   0  0  0  0  0  0  0  0  0  0  0  0  # atno 10718 bound_to 10713
  152.9825  135.6041  154.3430 H   0  0  0  0  0  0  0  0  0  0  0  0  # atno 10763 bound_to 10752
  154.3126  135.2771  155.2560 H   0  0  0  0  0  0  0  0  0  0  0  0  # atno 10764 bound_to 10752
  154.4763  135.5928  153.6413 H   0  0  0  0  0  0  0  0  0  0  0  0  # atno 10765 bound_to 10752
  140.9672  134.0855  157.3907 H   0  0  0  0  0  0  0  0  0  0  0  0  # atno 11005 bound_to 11000
  145.7534  139.1801  143.2308 LP  0  0  0  0  0  0  0  0  0  0  0  0  # atno 17320 bound_to 7965
  146.1043  140.7506  142.9534 LP  0  0  0  0  0  0  0  0  0  0  0  0  # atno 17321 bound_to 7965
  139.7818  143.8345  152.3138 LP  0  0  0  0  0  0  0  0  0  0  0  0  # atno 17342 bound_to 10162
  139.8298  144.7258  150.9464 LP  0  0  0  0  0  0  0  0  0  0  0  0  # atno 17343 bound_to 10162
  157.0461  130.5768  149.5363 LP  0  0  0  0  0  0  0  0  0  0  0  0  # atno 17370 bound_to 10713
  156.0107  130.5198  150.7977 LP  0  0  0  0  0  0  0  0  0  0  0  0  # atno 17371 bound_to 10713
  139.8899  135.0108  156.6704 LP  0  0  0  0  0  0  0  0  0  0  0  0  # atno 17394 bound_to 11000
  140.7382  133.9001  155.8259 LP  0  0  0  0  0  0  0  0  0  0  0  0  # atno 17395 bound_to 11000

$$$$
