AV-unprocessed.smi:2822|AV-procd|sdf|10878|dock5
  -GOLD-   2272015323D 1   1.00000     0.00000
 Structure written by MMmdl.
 40 42  0  0  0  0  0  0  0  0  2 V2000
  147.1312  142.2136  154.2053 Cl  0  0  0  0  0  0  0  0  0  0  0  0
  148.3060  140.9458  154.2565 C   0  0  0  0  0  0  0  0  0  0  0  0
  148.2207  139.8902  153.3253 C   0  0  0  0  0  0  0  0  0  0  0  0
  149.1288  138.8918  153.3504 N   0  3  0  0  0  0  0  0  0  0  0  0
  150.1412  138.8498  154.2419 C   0  0  0  0  0  0  0  0  0  0  0  0
  150.2797  139.8766  155.1973 C   0  0  0  0  0  0  0  0  0  0  0  0
  149.3498  140.9463  155.2144 C   0  0  0  0  0  0  0  0  0  0  0  0
  149.4328  141.9970  156.1405 N   0  0  0  0  0  0  0  0  0  0  0  0
  150.1437  141.8342  157.3994 C   0  0  0  0  0  0  0  0  0  0  0  0
  151.5694  142.4113  157.3190 C   0  0  2  0  0  0  0  0  0  0  0  0
  152.5044  141.8488  158.4062 C   0  0  0  0  0  0  0  0  0  0  0  0
  152.1913  142.3555  159.7370 N   0  0  0  0  0  0  0  0  0  0  0  0
  153.1141  141.8141  160.7345 C   0  0  0  0  0  0  0  0  0  0  0  0
  152.8009  142.3055  162.1563 C   0  0  0  0  0  0  0  0  0  0  0  0
  152.8076  143.8397  162.2026 C   0  0  0  0  0  0  0  0  0  0  0  0
  151.8723  144.4020  161.1217 C   0  0  0  0  0  0  0  0  0  0  0  0
  152.2178  143.8210  159.7346 C   0  0  2  0  0  0  0  0  0  0  0  0
  151.2681  144.3896  158.6617 C   0  0  0  0  0  0  0  0  0  0  0  0
  151.5722  143.8388  157.3825 O   0  0  0  0  0  0  0  0  0  0  0  0
  147.4570  139.8153  152.5651 H   0  0  0  0  0  0  0  0  0  0  0  0
  150.8068  138.0023  154.1648 H   0  0  0  0  0  0  0  0  0  0  0  0
  151.0980  139.8279  155.9003 H   0  0  0  0  0  0  0  0  0  0  0  0
  148.8178  142.7927  156.0396 H   0  0  0  0  0  0  0  0  0  0  0  0
  149.5820  142.2992  158.2096 H   0  0  0  0  0  0  0  0  0  0  0  0
  150.1999  140.7686  157.6252 H   0  0  0  0  0  0  0  0  0  0  0  0
  151.9858  142.1349  156.3495 H   0  0  0  0  0  0  0  0  0  0  0  0
  152.4567  140.7592  158.4024 H   0  0  0  0  0  0  0  0  0  0  0  0
  153.5328  142.1109  158.1524 H   0  0  0  0  0  0  0  0  0  0  0  0
  153.0712  140.7243  160.7188 H   0  0  0  0  0  0  0  0  0  0  0  0
  154.1391  142.0853  160.4764 H   0  0  0  0  0  0  0  0  0  0  0  0
  151.8250  141.9307  162.4676 H   0  0  0  0  0  0  0  0  0  0  0  0
  153.5293  141.9049  162.8618 H   0  0  0  0  0  0  0  0  0  0  0  0
  152.5039  144.1913  163.1889 H   0  0  0  0  0  0  0  0  0  0  0  0
  153.8209  144.2071  162.0365 H   0  0  0  0  0  0  0  0  0  0  0  0
  150.8391  144.1611  161.3762 H   0  0  0  0  0  0  0  0  0  0  0  0
  151.9417  145.4902  161.1041 H   0  0  0  0  0  0  0  0  0  0  0  0
  153.2284  144.1464  159.4815 H   0  0  0  0  0  0  0  0  0  0  0  0
  150.2264  144.1944  158.9175 H   0  0  0  0  0  0  0  0  0  0  0  0
  151.3735  145.4730  158.6016 H   0  0  0  0  0  0  0  0  0  0  0  0
  149.0465  138.1385  152.6668 H   0  0  0  0  0  0  0  0  0  0  0  0
  1  2  1  0  0  0  0
  2  7  1  0  0  0  0
  2  3  2  0  0  0  0
  3  4  1  0  0  0  0
  3 20  1  0  0  0  0
  4  5  2  0  0  0  0
  4 40  1  0  0  0  0
  5  6  1  0  0  0  0
  5 21  1  0  0  0  0
  6  7  2  0  0  0  0
  6 22  1  0  0  0  0
  7  8  1  0  0  0  0
  8  9  1  0  0  0  0
  8 23  1  0  0  0  0
  9 10  1  0  0  0  0
  9 24  1  0  0  0  0
  9 25  1  0  0  0  0
 10 19  1  0  0  0  0
 10 11  1  0  0  0  0
 10 26  1  0  0  0  0
 11 12  1  0  0  0  0
 11 27  1  0  0  0  0
 11 28  1  0  0  0  0
 12 17  1  0  0  0  0
 12 13  1  0  0  0  0
 13 14  1  0  0  0  0
 13 29  1  0  0  0  0
 13 30  1  0  0  0  0
 14 15  1  0  0  0  0
 14 31  1  0  0  0  0
 14 32  1  0  0  0  0
 15 16  1  0  0  0  0
 15 33  1  0  0  0  0
 15 34  1  0  0  0  0
 16 17  1  0  0  0  0
 16 35  1  0  0  0  0
 16 36  1  0  0  0  0
 17 18  1  0  0  0  0
 17 37  1  0  0  0  0
 18 19  1  0  0  0  0
 18 38  1  0  0  0  0
 18 39  1  0  0  0  0
M  CHG  1   4   1
M  END
> <s_m_source_file>
AV-unprocessed.smi

> <i_m_source_file_index>
2822

> <i_lp_mmshare_version>
43012

> <i_f3d_flags>
0

> <s_epik_input>
Q2xjMVtjSF1uW2NIXVtjSF1jMVtOSF1bQ0gyXVtDQEhdKFtDSDJdMilPW0NIMl1bQ0BASF0oTjIzKVtDSDJdW0NIMl1bQ0gyXVtDSDJdMw==

> <s_epik_cmdline>
J2VwaWtfcHl0aG9uJywgJy1waCcsICc3LjAnLCAnLXRuJywgJzgnLCAnLW1hJywgJzIwMCcsICctbWV0YWxfYmluZGluZycsICctaW1hZScsICc8aW5maWxlLm1hZT4nLCAnLW9tYWUnLCAnPG91dGZpbGUubWFlPic=

> <r_epik_Ionization_Penalty>
1.37653

> <r_epik_Ionization_Penalty_Charging>
0.152973

> <r_epik_Ionization_Penalty_Neutral>
1.22356

> <r_epik_State_Penalty>
1.42693

> <r_epik_Charging_Adjusted_Penalty>
1.5799

> <i_epik_Tot_Q>
1

> <i_epik_Tot_abs_Q>
1

> <r_epik_Metal_State_Penalty>
4.59822

> <b_epik_Metal_Only>
0

> <s_lp_Force_Field>
OPLS_2005

> <r_lp_Energy>
45.685

> <b_lp_Chiralities_Consistent>
1

> <s_lp_Variant>
AV-unprocessed.smi:2822-19

> <Gold.Version>
5.8.1

> <Gold.Id.Protein>
6NUR|6NUR_protein|mol2

> <Gold.PLP.Fitness>
52.1667

> <Gold.PLP.PLP>
-44.5023

> <Gold.PLP.part.hbond>
-2.8470

> <Gold.PLP.part.metal>
0.0000

> <Gold.PLP.part.buried>
-3.6169

> <Gold.PLP.part.nonpolar>
-37.5517

> <Gold.PLP.part.repulsive>
0.3147

> <Gold.PLP.ligand.clash>
0.0000

> <Gold.PLP.ligand.torsion>
0.4181

> <Gold.PLP.Chemscore.Hbond>
2.8320

> <Gold.PLP.Chemscore.CHOScore>
0.0000

> <Gold.PLP.Chemscore.Metal>
0.0000

> <Gold.Chemscore.Hbonds>
donor molecule, donor type, donor heavy atom, donor atom, acceptor molecule, acceptor atom, score
      L1  H     4    40       P1  7948  1.98
      L1  H     8    23       P1  8028  0.82

> <Gold.PLP.Chemscore.Internal.Correction>
0.0045

> <Gold.Rescore>
     Score         DG    S(hbond)    S(metal)    S(lipo)     H(rot)  DE(clash)    DE(int)     intcor
     22.65     -24.41       1.88        0.00     133.91       1.18       1.36       0.40       ----

> <Gold.Chemscore.Fitness>
22.6528

> <Gold.Chemscore.DG>
-24.4123

> <Gold.Chemscore.ZeroCoef>
-5.4800

> <Gold.Chemscore.Hbond>
1.8811

> <Gold.Chemscore.Metal>
0.0000

> <Gold.Chemscore.Lipo>
133.9072

> <Gold.Chemscore.Internal_Hbond>
0.0000

> <Gold.Chemscore.DEClash>
1.3627

> <Gold.Chemscore.DEInternal>
0.3969

> <Gold.Chemscore.Rot>
1.1788

> <Gold.Chemscore.Internal.Correction>
   9.000000E+99

> <Gold.Chemscore.Hbonds>
donor molecule, donor type, donor heavy atom, donor atom, acceptor molecule, acceptor atom, score
      L1  H     4    40       P1  7948  0.91
      L1  H     8    23       P1  8028  0.80

> <Gold.Chemscore.Hbond.Weighted>
-6.2829

> <Gold.Chemscore.Metal.Weighted>
-0.0000

> <Gold.Chemscore.Lipo.Weighted>
-15.6671

> <Gold.Chemscore.Internal_Hbond.Weighted>
0.0000

> <Gold.Chemscore.DEClash.Weighted>
1.3627

> <Gold.Chemscore.DEInternal.Weighted>
0.3969

> <Gold.Chemscore.Rot.Weighted>
3.0177

> <Gold.Chemscore.Internal.Correction.Weighted>
   9.000000E+99

> <Gold.Protein.RotatedTorsions>
[ 6907 6896 6895 6894 ] final  100.27 input  -60.11 | X-H torsion
[ 7974 7965 7964 7962 ] final   -1.93 input  175.53 | X-H torsion
[ 8008 7997 7996 7995 ] final  109.06 input   59.86 | X-H torsion
[ 10167 10162 10161 10158 ] final  162.11 input  -65.29 | X-H torsion
[ 10718 10713 10712 10709 ] final -165.41 input   66.30 | X-H torsion
[ 10763 10752 10751 10750 ] final -174.35 input  -60.55 | X-H torsion
[ 11005 11000 10999 10996 ] final -125.64 input  -57.11 | X-H torsion

> <Gold.Protein.ActiveResidues>
 VAL166  LYS551  ARG553  GLY616  TRP617  ASP618  TYR619  PRO620  LYS621  CYS622 
 ASP623  PHE694  ASN695  SER759  ASP760  ASP761  ALA762  ILE779  LEU786  VAL792 
 PHE793  MET794  SER795  GLU796  ALA797  LYS798  CYS799  TRP800  GLU811  SER814 

> <Gold.Protein.RotatedAtoms>
  152.5375  134.0302  159.8020 H   0  0  0  0  0  0  0  0  0  0  0  0  # atno 6907 bound_to 6896
  151.0474  133.5646  159.2652 H   0  0  0  0  0  0  0  0  0  0  0  0  # atno 6908 bound_to 6896
  151.2593  135.0656  159.9145 H   0  0  0  0  0  0  0  0  0  0  0  0  # atno 6909 bound_to 6896
  146.2411  140.1494  142.8334 H   0  0  0  0  0  0  0  0  0  0  0  0  # atno 7974 bound_to 7965
  156.1950  140.3065  155.9409 H   0  0  0  0  0  0  0  0  0  0  0  0  # atno 8008 bound_to 7997
  155.3086  140.0450  157.3050 H   0  0  0  0  0  0  0  0  0  0  0  0  # atno 8009 bound_to 7997
  154.5499  140.2288  155.8512 H   0  0  0  0  0  0  0  0  0  0  0  0  # atno 8010 bound_to 7997
  139.4857  144.4470  151.8879 H   0  0  0  0  0  0  0  0  0  0  0  0  # atno 10167 bound_to 10162
  156.6530  130.9015  151.3016 H   0  0  0  0  0  0  0  0  0  0  0  0  # atno 10718 bound_to 10713
  154.5973  135.2851  155.0573 H   0  0  0  0  0  0  0  0  0  0  0  0  # atno 10763 bound_to 10752
  154.1851  135.6450  153.5048 H   0  0  0  0  0  0  0  0  0  0  0  0  # atno 10764 bound_to 10752
  153.0143  135.5433  154.6679 H   0  0  0  0  0  0  0  0  0  0  0  0  # atno 10765 bound_to 10752
  140.9746  134.0758  157.3832 H   0  0  0  0  0  0  0  0  0  0  0  0  # atno 11005 bound_to 11000
  145.0180  140.8770  143.5184 LP  0  0  0  0  0  0  0  0  0  0  0  0  # atno 17320 bound_to 7965
  145.1538  139.2498  143.5427 LP  0  0  0  0  0  0  0  0  0  0  0  0  # atno 17321 bound_to 7965
  140.3925  144.2598  150.5898 LP  0  0  0  0  0  0  0  0  0  0  0  0  # atno 17342 bound_to 10162
  140.5133  143.2285  151.8502 LP  0  0  0  0  0  0  0  0  0  0  0  0  # atno 17343 bound_to 10162
  157.7134  130.9468  150.1170 LP  0  0  0  0  0  0  0  0  0  0  0  0  # atno 17370 bound_to 10713
  156.2069  130.3664  149.8718 LP  0  0  0  0  0  0  0  0  0  0  0  0  # atno 17371 bound_to 10713
  139.8925  135.0125  156.6851 LP  0  0  0  0  0  0  0  0  0  0  0  0  # atno 17394 bound_to 11000
  140.7278  133.9085  155.8190 LP  0  0  0  0  0  0  0  0  0  0  0  0  # atno 17395 bound_to 11000

$$$$
