AV-unprocessed.smi:319|AV-procd|sdf|2331|dock9
  -GOLD-   2262022233D 1   1.00000     0.00000
 Structure written by MMmdl.
 38 39  0  0  0  0  0  0  0  0  1 V2000
  144.6871  145.0567  153.2075 C   0  0  0  0  0  0  0  0  0  0  0  0
  144.1533  144.1341  154.6767 S   0  0  0  0  0  0  0  0  0  0  0  0
  145.5817  143.1425  154.9896 C   0  0  0  0  0  0  0  0  0  0  0  0
  145.7965  142.5247  156.1518 N   0  0  0  0  0  0  0  0  0  0  0  0
  146.9908  141.7988  156.1726 C   0  0  0  0  0  0  0  0  0  0  0  0
  147.3740  141.0516  157.4140 C   0  0  0  0  0  0  0  0  0  0  0  0
  147.6989  141.8740  154.9949 C   0  0  0  0  0  0  0  0  0  0  0  0
  149.0109  141.2367  154.6598 C   0  0  0  0  0  0  0  0  0  0  0  0
  149.9994  141.3928  155.8150 C   0  0  0  0  0  0  0  0  0  0  0  0
  150.6268  140.4165  156.2246 O   0  0  0  0  0  0  0  0  0  0  0  0
  150.1324  142.6273  156.3238 N   0  0  0  0  0  0  0  0  0  0  0  0
  151.0403  143.0060  157.4013 C   0  0  0  0  0  0  0  0  0  0  0  0
  150.2527  143.3441  158.6842 C   0  0  0  0  0  0  0  0  0  0  0  0
  151.1864  143.8259  159.8066 C   0  0  0  0  0  0  0  0  0  0  0  0
  152.0372  145.0218  159.3507 C   0  0  0  0  0  0  0  0  0  0  0  0
  152.8283  144.6849  158.0771 C   0  0  0  0  0  0  0  0  0  0  0  0
  151.8966  144.2053  156.9524 C   0  0  0  0  0  0  0  0  0  0  0  0
  146.8706  142.8645  153.8205 S   0  0  0  0  0  0  0  0  0  0  0  0
  143.8851  145.7158  152.8756 H   0  0  0  0  0  0  0  0  0  0  0  0
  144.9269  144.3776  152.3893 H   0  0  0  0  0  0  0  0  0  0  0  0
  145.5592  145.6717  153.4298 H   0  0  0  0  0  0  0  0  0  0  0  0
  147.6971  140.0368  157.1819 H   0  0  0  0  0  0  0  0  0  0  0  0
  146.5399  140.9757  158.1123 H   0  0  0  0  0  0  0  0  0  0  0  0
  148.1923  141.5495  157.9342 H   0  0  0  0  0  0  0  0  0  0  0  0
  148.8732  140.1802  154.4263 H   0  0  0  0  0  0  0  0  0  0  0  0
  149.4340  141.6951  153.7653 H   0  0  0  0  0  0  0  0  0  0  0  0
  149.5731  143.3654  155.9218 H   0  0  0  0  0  0  0  0  0  0  0  0
  151.7120  142.1707  157.6095 H   0  0  0  0  0  0  0  0  0  0  0  0
  149.5148  144.1190  158.4714 H   0  0  0  0  0  0  0  0  0  0  0  0
  149.6941  142.4717  159.0252 H   0  0  0  0  0  0  0  0  0  0  0  0
  150.6012  144.0991  160.6851 H   0  0  0  0  0  0  0  0  0  0  0  0
  151.8400  143.0081  160.1130 H   0  0  0  0  0  0  0  0  0  0  0  0
  151.3910  145.8803  159.1639 H   0  0  0  0  0  0  0  0  0  0  0  0
  152.7214  145.3169  160.1467 H   0  0  0  0  0  0  0  0  0  0  0  0
  153.3901  145.5590  157.7463 H   0  0  0  0  0  0  0  0  0  0  0  0
  153.5636  143.9100  158.2977 H   0  0  0  0  0  0  0  0  0  0  0  0
  152.4881  143.9351  156.0767 H   0  0  0  0  0  0  0  0  0  0  0  0
  151.2494  145.0284  156.6456 H   0  0  0  0  0  0  0  0  0  0  0  0
  1  2  1  0  0  0  0
  1 19  1  0  0  0  0
  1 20  1  0  0  0  0
  1 21  1  0  0  0  0
  2  3  1  0  0  0  0
  3 18  1  0  0  0  0
  3  4  2  0  0  0  0
  4  5  1  0  0  0  0
  5  6  1  0  0  0  0
  5  7  2  0  0  0  0
  6 22  1  0  0  0  0
  6 23  1  0  0  0  0
  6 24  1  0  0  0  0
  7  8  1  0  0  0  0
  7 18  1  0  0  0  0
  8  9  1  0  0  0  0
  8 25  1  0  0  0  0
  8 26  1  0  0  0  0
  9 10  2  0  0  0  0
  9 11  1  0  0  0  0
 11 12  1  0  0  0  0
 11 27  1  0  0  0  0
 12 17  1  0  0  0  0
 12 13  1  0  0  0  0
 12 28  1  0  0  0  0
 13 14  1  0  0  0  0
 13 29  1  0  0  0  0
 13 30  1  0  0  0  0
 14 15  1  0  0  0  0
 14 31  1  0  0  0  0
 14 32  1  0  0  0  0
 15 16  1  0  0  0  0
 15 33  1  0  0  0  0
 15 34  1  0  0  0  0
 16 17  1  0  0  0  0
 16 35  1  0  0  0  0
 16 36  1  0  0  0  0
 17 37  1  0  0  0  0
 17 38  1  0  0  0  0
M  END
> <s_m_source_file>
AV-unprocessed.smi

> <i_m_source_file_index>
319

> <i_lp_mmshare_version>
43012

> <i_f3d_flags>
0

> <s_epik_input>
W0NIM11TYzFuYyhbQ0gzXSljKHMxKVtDSDJdQyg9TylbTkhdW0NIXTJbQ0gyXVtDSDJdW0NIMl1bQ0gyXVtDSDJdMg==

> <s_epik_cmdline>
J2VwaWtfcHl0aG9uJywgJy1waCcsICc3LjAnLCAnLXRuJywgJzgnLCAnLW1hJywgJzIwMCcsICctbWV0YWxfYmluZGluZycsICctaW1hZScsICc8aW5maWxlLm1hZT4nLCAnLW9tYWUnLCAnPG91dGZpbGUubWFlPic=

> <r_lp_tautomer_probability>
1

> <r_epik_Ionization_Penalty>
2.85285e-06

> <r_epik_Ionization_Penalty_Charging>
0

> <r_epik_Ionization_Penalty_Neutral>
2.85285e-06

> <r_epik_State_Penalty>
-0

> <r_epik_Charging_Adjusted_Penalty>
0

> <i_epik_Tot_Q>
0

> <i_epik_Tot_abs_Q>
0

> <r_epik_Metal_State_Penalty>
-0

> <b_epik_Metal_Only>
0

> <s_lp_Force_Field>
OPLS_2005

> <r_lp_Energy>
6.2973

> <b_lp_Chiralities_Consistent>
1

> <s_lp_Variant>
AV-unprocessed.smi:319-1

> <Gold.Version>
5.8.1

> <Gold.Id.Protein>
6NUR|6NUR_protein|mol2

> <Gold.PLP.Fitness>
42.1860

> <Gold.PLP.PLP>
-40.3840

> <Gold.PLP.part.hbond>
-1.0000

> <Gold.PLP.part.metal>
0.0000

> <Gold.PLP.part.buried>
-4.7504

> <Gold.PLP.part.nonpolar>
-35.2551

> <Gold.PLP.part.repulsive>
0.2327

> <Gold.PLP.ligand.clash>
0.0000

> <Gold.PLP.ligand.torsion>
0.6042

> <Gold.PLP.Chemscore.Hbond>
1.0000

> <Gold.PLP.Chemscore.CHOScore>
0.0000

> <Gold.PLP.Chemscore.Metal>
0.0000

> <Gold.Chemscore.Hbonds>
donor molecule, donor type, donor heavy atom, donor atom, acceptor molecule, acceptor atom, score
      L1  H    11    27       P1  8028  1.00

> <Gold.PLP.Chemscore.Internal.Correction>
0.0104

> <Gold.Rescore>
     Score         DG    S(hbond)    S(metal)    S(lipo)     H(rot)  DE(clash)    DE(int)     intcor
     17.22     -18.07       0.92        0.00     110.31       1.33       0.38       0.46       ----

> <Gold.Chemscore.Fitness>
17.2231

> <Gold.Chemscore.DG>
-18.0658

> <Gold.Chemscore.ZeroCoef>
-5.4800

> <Gold.Chemscore.Hbond>
0.9226

> <Gold.Chemscore.Metal>
0.0000

> <Gold.Chemscore.Lipo>
110.3095

> <Gold.Chemscore.Internal_Hbond>
0.0000

> <Gold.Chemscore.DEClash>
0.3845

> <Gold.Chemscore.DEInternal>
0.4582

> <Gold.Chemscore.Rot>
1.3289

> <Gold.Chemscore.Internal.Correction>
   9.000000E+99

> <Gold.Chemscore.Hbonds>
donor molecule, donor type, donor heavy atom, donor atom, acceptor molecule, acceptor atom, score
      L1  H    11    27       P1  8028  0.94

> <Gold.Chemscore.Hbond.Weighted>
-3.0815

> <Gold.Chemscore.Metal.Weighted>
-0.0000

> <Gold.Chemscore.Lipo.Weighted>
-12.9062

> <Gold.Chemscore.Internal_Hbond.Weighted>
0.0000

> <Gold.Chemscore.DEClash.Weighted>
0.3845

> <Gold.Chemscore.DEInternal.Weighted>
0.4582

> <Gold.Chemscore.Rot.Weighted>
3.4019

> <Gold.Chemscore.Internal.Correction.Weighted>
   9.000000E+99

> <Gold.Protein.RotatedTorsions>
[ 6907 6896 6895 6894 ] final -152.78 input  -60.11 | X-H torsion
[ 7974 7965 7964 7962 ] final -138.61 input  175.53 | X-H torsion
[ 8008 7997 7996 7995 ] final  -82.07 input   59.86 | X-H torsion
[ 10167 10162 10161 10158 ] final   55.33 input  -65.29 | X-H torsion
[ 10718 10713 10712 10709 ] final -150.15 input   66.30 | X-H torsion
[ 10763 10752 10751 10750 ] final  -31.23 input  -60.55 | X-H torsion
[ 11005 11000 10999 10996 ] final  -26.04 input  -57.11 | X-H torsion

> <Gold.Protein.ActiveResidues>
 VAL166  LYS551  ARG553  GLY616  TRP617  ASP618  TYR619  PRO620  LYS621  CYS622 
 ASP623  PHE694  ASN695  SER759  ASP760  ASP761  ALA762  ILE779  LEU786  VAL792 
 PHE793  MET794  SER795  GLU796  ALA797  LYS798  CYS799  TRP800  GLU811  SER814 

> <Gold.Protein.RotatedAtoms>
  151.2328  133.4441  159.2604 H   0  0  0  0  0  0  0  0  0  0  0  0  # atno 6907 bound_to 6896
  151.0779  134.9839  159.8351 H   0  0  0  0  0  0  0  0  0  0  0  0  # atno 6908 bound_to 6896
  152.5420  134.2269  159.8862 H   0  0  0  0  0  0  0  0  0  0  0  0  # atno 6909 bound_to 6896
  144.8744  140.6415  143.5246 H   0  0  0  0  0  0  0  0  0  0  0  0  # atno 7974 bound_to 7965
  154.6048  140.0638  156.9417 H   0  0  0  0  0  0  0  0  0  0  0  0  # atno 8008 bound_to 7997
  155.2071  140.3319  155.4316 H   0  0  0  0  0  0  0  0  0  0  0  0  # atno 8009 bound_to 7997
  156.2341  140.1854  156.7150 H   0  0  0  0  0  0  0  0  0  0  0  0  # atno 8010 bound_to 7997
  140.2206  144.3792  150.6452 H   0  0  0  0  0  0  0  0  0  0  0  0  # atno 10167 bound_to 10162
  156.4424  130.8128  151.2358 H   0  0  0  0  0  0  0  0  0  0  0  0  # atno 10718 bound_to 10713
  153.7939  135.6895  153.4867 H   0  0  0  0  0  0  0  0  0  0  0  0  # atno 10763 bound_to 10752
  153.1732  135.4535  154.9928 H   0  0  0  0  0  0  0  0  0  0  0  0  # atno 10764 bound_to 10752
  154.8033  135.3347  154.7433 H   0  0  0  0  0  0  0  0  0  0  0  0  # atno 10765 bound_to 10752
  140.8993  133.7535  156.0523 H   0  0  0  0  0  0  0  0  0  0  0  0  # atno 11005 bound_to 11000
  145.4070  139.1587  143.4147 LP  0  0  0  0  0  0  0  0  0  0  0  0  # atno 17320 bound_to 7965
  146.2953  140.4171  142.8724 LP  0  0  0  0  0  0  0  0  0  0  0  0  # atno 17321 bound_to 7965
  140.6257  143.2181  151.6600 LP  0  0  0  0  0  0  0  0  0  0  0  0  # atno 17342 bound_to 10162
  139.5145  144.3407  152.0743 LP  0  0  0  0  0  0  0  0  0  0  0  0  # atno 17343 bound_to 10162
  157.7506  131.0164  150.3542 LP  0  0  0  0  0  0  0  0  0  0  0  0  # atno 17370 bound_to 10713
  156.3903  130.3896  149.7035 LP  0  0  0  0  0  0  0  0  0  0  0  0  # atno 17371 bound_to 10713
  140.8250  134.3245  157.5369 LP  0  0  0  0  0  0  0  0  0  0  0  0  # atno 17394 bound_to 11000
  139.8740  134.9331  156.3571 LP  0  0  0  0  0  0  0  0  0  0  0  0  # atno 17395 bound_to 11000

$$$$
