AV-unprocessed.smi:2510|AV-procd|sdf|9884|dock7
  -GOLD-   2272013523D 1   1.00000     0.00000
 Structure written by MMmdl.
 48 49  0  0  0  0  0  0  0  0  1 V2000
  146.8914  143.5580  152.0469 C   0  0  0  0  0  0  0  0  0  0  0  0
  147.2906  142.0927  152.3046 C   0  0  0  0  0  0  0  0  0  0  0  0
  147.4376  141.6509  153.7891 C   0  0  0  0  0  0  0  0  0  0  0  0
  146.7191  142.6719  154.6980 C   0  0  0  0  0  0  0  0  0  0  0  0
  145.2079  142.8042  154.4488 C   0  0  0  0  0  0  0  0  0  0  0  0
  147.1711  140.1591  154.1373 C   0  0  1  0  0  0  0  0  0  0  0  0
  146.2599  139.4554  153.2427 N   0  0  0  0  0  0  0  0  0  0  0  0
  145.9296  138.1606  153.3603 C   0  0  0  0  0  0  0  0  0  0  0  0
  146.3429  137.4334  154.2632 O   0  0  0  0  0  0  0  0  0  0  0  0
  144.9855  137.6001  152.2973 C   0  0  0  0  0  0  0  0  0  0  0  0
  144.8968  136.1116  152.4002 C   0  0  0  0  0  0  0  0  0  0  0  0
  143.8180  135.2732  152.4416 C   0  0  0  0  0  0  0  0  0  0  0  0
  144.3871  133.9705  152.5488 C   0  0  0  0  0  0  0  0  0  0  0  0
  143.6748  132.6530  152.6379 C   0  0  0  0  0  0  0  0  0  0  0  0
  145.7116  133.9968  152.5665 N   0  0  0  0  0  0  0  0  0  0  0  0
  146.0108  135.3057  152.4732 N   0  0  0  0  0  0  0  0  0  0  0  0
  148.6399  139.8412  153.8420 C   0  0  2  0  0  0  0  0  0  0  0  0
  149.3355  138.7207  154.6054 C   0  0  0  0  0  0  0  0  0  0  0  0
  148.9067  141.3192  154.1814 C   0  0  2  0  0  0  0  0  0  0  0  0
  149.1529  141.5222  155.5694 O   0  0  0  0  0  0  0  0  0  0  0  0
  150.4665  141.1605  155.9608 C   0  0  0  0  0  0  0  0  0  0  0  0
  146.9672  135.6298  152.4632 H   0  0  0  0  0  0  0  0  0  0  0  0
  146.7038  143.7167  150.9849 H   0  0  0  0  0  0  0  0  0  0  0  0
  147.6814  144.2519  152.3331 H   0  0  0  0  0  0  0  0  0  0  0  0
  145.9869  143.8418  152.5804 H   0  0  0  0  0  0  0  0  0  0  0  0
  146.5559  141.4656  151.8002 H   0  0  0  0  0  0  0  0  0  0  0  0
  148.2207  141.8979  151.7703 H   0  0  0  0  0  0  0  0  0  0  0  0
  146.8984  142.4494  155.7492 H   0  0  0  0  0  0  0  0  0  0  0  0
  147.1621  143.6589  154.5617 H   0  0  0  0  0  0  0  0  0  0  0  0
  144.7852  143.5929  155.0714 H   0  0  0  0  0  0  0  0  0  0  0  0
  144.6749  141.8842  154.6861 H   0  0  0  0  0  0  0  0  0  0  0  0
  144.9960  143.0572  153.4100 H   0  0  0  0  0  0  0  0  0  0  0  0
  146.9466  140.0123  155.1970 H   0  0  0  0  0  0  0  0  0  0  0  0
  145.8706  139.9823  152.4746 H   0  0  0  0  0  0  0  0  0  0  0  0
  143.9974  138.0425  152.4283 H   0  0  0  0  0  0  0  0  0  0  0  0
  145.3268  137.8930  151.3032 H   0  0  0  0  0  0  0  0  0  0  0  0
  142.7747  135.5500  152.4050 H   0  0  0  0  0  0  0  0  0  0  0  0
  142.5931  132.7884  152.6339 H   0  0  0  0  0  0  0  0  0  0  0  0
  143.9386  132.1249  153.5544 H   0  0  0  0  0  0  0  0  0  0  0  0
  143.9314  132.0107  151.7954 H   0  0  0  0  0  0  0  0  0  0  0  0
  148.7835  139.6978  152.7695 H   0  0  0  0  0  0  0  0  0  0  0  0
  149.2077  138.8285  155.6827 H   0  0  0  0  0  0  0  0  0  0  0  0
  150.4052  138.7050  154.3972 H   0  0  0  0  0  0  0  0  0  0  0  0
  148.9317  137.7477  154.3253 H   0  0  0  0  0  0  0  0  0  0  0  0
  149.6411  141.8037  153.5350 H   0  0  0  0  0  0  0  0  0  0  0  0
  150.5798  141.3007  157.0357 H   0  0  0  0  0  0  0  0  0  0  0  0
  151.2072  141.7861  155.4615 H   0  0  0  0  0  0  0  0  0  0  0  0
  150.6825  140.1169  155.7325 H   0  0  0  0  0  0  0  0  0  0  0  0
  1  2  1  0  0  0  0
  1 23  1  0  0  0  0
  1 24  1  0  0  0  0
  1 25  1  0  0  0  0
  2  3  1  0  0  0  0
  2 26  1  0  0  0  0
  2 27  1  0  0  0  0
  3 19  1  0  0  0  0
  3  4  1  0  0  0  0
  3  6  1  0  0  0  0
  4  5  1  0  0  0  0
  4 28  1  0  0  0  0
  4 29  1  0  0  0  0
  5 30  1  0  0  0  0
  5 31  1  0  0  0  0
  5 32  1  0  0  0  0
  6  7  1  0  0  0  0
  6 17  1  0  0  0  0
  6 33  1  0  0  0  0
  7  8  1  0  0  0  0
  7 34  1  0  0  0  0
  8  9  2  0  0  0  0
  8 10  1  0  0  0  0
 10 35  1  0  0  0  0
 10 36  1  0  0  0  0
 10 11  1  0  0  0  0
 11 16  1  0  0  0  0
 11 12  2  0  0  0  0
 12 13  1  0  0  0  0
 12 37  1  0  0  0  0
 13 14  1  0  0  0  0
 13 15  2  0  0  0  0
 14 38  1  0  0  0  0
 14 39  1  0  0  0  0
 14 40  1  0  0  0  0
 15 16  1  0  0  0  0
 16 22  1  0  0  0  0
 17 18  1  0  0  0  0
 17 19  1  0  0  0  0
 17 41  1  0  0  0  0
 18 42  1  0  0  0  0
 18 43  1  0  0  0  0
 18 44  1  0  0  0  0
 19 20  1  0  0  0  0
 19 45  1  0  0  0  0
 20 21  1  0  0  0  0
 21 46  1  0  0  0  0
 21 47  1  0  0  0  0
 21 48  1  0  0  0  0
M  END
> <s_m_source_file>
AV-unprocessed.smi

> <i_m_source_file_index>
2510

> <i_lp_mmshare_version>
43012

> <i_f3d_flags>
0

> <s_epik_input>
W0NIM11PW0NAQEhdMVtDQEhdKFtDSDNdKVtDQEBIXShDMShbQ0gyXVtDSDNdKVtDSDJdW0NIM10pW05IXUMoPU8pW0NIMl1jMltjSF1jKFtDSDNdKVtuSF1uMg==

> <s_epik_cmdline>
J2VwaWtfcHl0aG9uJywgJy1waCcsICc3LjAnLCAnLXRuJywgJzgnLCAnLW1hJywgJzIwMCcsICctbWV0YWxfYmluZGluZycsICctaW1hZScsICc8aW5maWxlLm1hZT4nLCAnLW9tYWUnLCAnPG91dGZpbGUubWFlPic=

> <r_lp_tautomer_probability>
0.5

> <r_epik_Ionization_Penalty>
0.000134763

> <r_epik_Ionization_Penalty_Charging>
0

> <r_epik_Ionization_Penalty_Neutral>
0.000134763

> <r_epik_State_Penalty>
0.41068

> <r_epik_Charging_Adjusted_Penalty>
0.41068

> <i_epik_Tot_Q>
0

> <i_epik_Tot_abs_Q>
0

> <r_epik_Metal_State_Penalty>
0.410661

> <b_epik_Metal_Only>
0

> <s_lp_Force_Field>
OPLS_2005

> <r_lp_Energy>
27.4462

> <b_lp_Chiralities_Consistent>
1

> <s_lp_Variant>
AV-unprocessed.smi:2510-15

> <Gold.Version>
5.8.1

> <Gold.Id.Protein>
6NUR|6NUR_protein|mol2

> <Gold.PLP.Fitness>
35.2988

> <Gold.PLP.PLP>
-31.2435

> <Gold.PLP.part.hbond>
-2.0000

> <Gold.PLP.part.metal>
0.0000

> <Gold.PLP.part.buried>
-3.0416

> <Gold.PLP.part.nonpolar>
-26.7346

> <Gold.PLP.part.repulsive>
0.4195

> <Gold.PLP.ligand.clash>
0.0000

> <Gold.PLP.ligand.torsion>
1.3062

> <Gold.PLP.Chemscore.Hbond>
2.0000

> <Gold.PLP.Chemscore.CHOScore>
0.0000

> <Gold.PLP.Chemscore.Metal>
0.0000

> <Gold.Chemscore.Hbonds>
donor molecule, donor type, donor heavy atom, donor atom, acceptor molecule, acceptor atom, score
      L1  H     7    34       P1 10175  0.20
      L1  H    16    22       P1  7948  0.71

> <Gold.PLP.Chemscore.Internal.Correction>
0.6678

> <Gold.Rescore>
     Score         DG    S(hbond)    S(metal)    S(lipo)     H(rot)  DE(clash)    DE(int)     intcor
     15.11     -16.17       1.97        0.00      74.73       1.81       0.14       0.92       ----

> <Gold.Chemscore.Fitness>
15.1112

> <Gold.Chemscore.DG>
-16.1685

> <Gold.Chemscore.ZeroCoef>
-5.4800

> <Gold.Chemscore.Hbond>
1.9698

> <Gold.Chemscore.Metal>
0.0000

> <Gold.Chemscore.Lipo>
74.7301

> <Gold.Chemscore.Internal_Hbond>
0.0000

> <Gold.Chemscore.DEClash>
0.1371

> <Gold.Chemscore.DEInternal>
0.9202

> <Gold.Chemscore.Rot>
1.8102

> <Gold.Chemscore.Internal.Correction>
   9.000000E+99

> <Gold.Chemscore.Hbonds>
donor molecule, donor type, donor heavy atom, donor atom, acceptor molecule, acceptor atom, score
      L1  H     7    34       P1 10175  0.17
      L1  H    16    22       P1  7948  0.73

> <Gold.Chemscore.Hbond.Weighted>
-6.5792

> <Gold.Chemscore.Metal.Weighted>
-0.0000

> <Gold.Chemscore.Lipo.Weighted>
-8.7434

> <Gold.Chemscore.Internal_Hbond.Weighted>
0.0000

> <Gold.Chemscore.DEClash.Weighted>
0.1371

> <Gold.Chemscore.DEInternal.Weighted>
0.9202

> <Gold.Chemscore.Rot.Weighted>
4.6341

> <Gold.Chemscore.Internal.Correction.Weighted>
   9.000000E+99

> <Gold.Protein.RotatedTorsions>
[ 6907 6896 6895 6894 ] final -173.49 input  -60.11 | X-H torsion
[ 7974 7965 7964 7962 ] final -173.95 input  175.53 | X-H torsion
[ 8008 7997 7996 7995 ] final   69.12 input   59.86 | X-H torsion
[ 10167 10162 10161 10158 ] final -166.81 input  -65.29 | X-H torsion
[ 10718 10713 10712 10709 ] final  -15.22 input   66.30 | X-H torsion
[ 10763 10752 10751 10750 ] final  -53.93 input  -60.55 | X-H torsion
[ 11005 11000 10999 10996 ] final  -81.43 input  -57.11 | X-H torsion

> <Gold.Protein.ActiveResidues>
 VAL166  LYS551  ARG553  GLY616  TRP617  ASP618  TYR619  PRO620  LYS621  CYS622 
 ASP623  PHE694  ASN695  SER759  ASP760  ASP761  ALA762  ILE779  LEU786  VAL792 
 PHE793  MET794  SER795  GLU796  ALA797  LYS798  CYS799  TRP800  GLU811  SER814 

> <Gold.Protein.RotatedAtoms>
  151.5570  133.3409  159.2963 H   0  0  0  0  0  0  0  0  0  0  0  0  # atno 6907 bound_to 6896
  150.8445  134.7751  159.6970 H   0  0  0  0  0  0  0  0  0  0  0  0  # atno 6908 bound_to 6896
  152.4505  134.5410  159.9891 H   0  0  0  0  0  0  0  0  0  0  0  0  # atno 6909 bound_to 6896
  144.7134  140.1544  143.6381 H   0  0  0  0  0  0  0  0  0  0  0  0  # atno 7974 bound_to 7965
  155.7188  140.3493  155.5006 H   0  0  0  0  0  0  0  0  0  0  0  0  # atno 8008 bound_to 7997
  155.9289  140.1080  157.1170 H   0  0  0  0  0  0  0  0  0  0  0  0  # atno 8009 bound_to 7997
  154.4082  140.1235  156.4763 H   0  0  0  0  0  0  0  0  0  0  0  0  # atno 8010 bound_to 7997
  139.6090  144.0853  152.1823 H   0  0  0  0  0  0  0  0  0  0  0  0  # atno 10167 bound_to 10162
  156.6048  130.4834  149.6225 H   0  0  0  0  0  0  0  0  0  0  0  0  # atno 10718 bound_to 10713
  154.1668  135.6466  153.4999 H   0  0  0  0  0  0  0  0  0  0  0  0  # atno 10763 bound_to 10752
  153.0095  135.5374  154.6654 H   0  0  0  0  0  0  0  0  0  0  0  0  # atno 10764 bound_to 10752
  154.5983  135.2941  155.0535 H   0  0  0  0  0  0  0  0  0  0  0  0  # atno 10765 bound_to 10752
  141.1666  133.7196  156.8421 H   0  0  0  0  0  0  0  0  0  0  0  0  # atno 11005 bound_to 11000
  145.9087  139.2474  143.1450 LP  0  0  0  0  0  0  0  0  0  0  0  0  # atno 17320 bound_to 7965
  145.9738  140.8739  143.0149 LP  0  0  0  0  0  0  0  0  0  0  0  0  # atno 17321 bound_to 7965
  140.0467  144.5964  150.7368 LP  0  0  0  0  0  0  0  0  0  0  0  0  # atno 17342 bound_to 10162
  140.7306  143.2685  151.3967 LP  0  0  0  0  0  0  0  0  0  0  0  0  # atno 17343 bound_to 10162
  156.2438  130.6867  151.1581 LP  0  0  0  0  0  0  0  0  0  0  0  0  # atno 17370 bound_to 10713
  157.7270  131.0642  150.5885 LP  0  0  0  0  0  0  0  0  0  0  0  0  # atno 17371 bound_to 10713
  140.1976  134.8920  157.3132 LP  0  0  0  0  0  0  0  0  0  0  0  0  # atno 17394 bound_to 11000
  140.2222  134.4009  155.7560 LP  0  0  0  0  0  0  0  0  0  0  0  0  # atno 17395 bound_to 11000

$$$$
