AV-unprocessed.smi:1900|AV-procd|sdf|7713|dock3
  -GOLD-   22720 9453D 1   1.00000     0.00000
 Structure written by MMmdl.
 43 44  0  0  0  0  0  0  0  0  1 V2000
  153.4417  141.9179  161.2446 C   0  0  0  0  0  0  0  0  0  0  0  0
  152.4315  142.6050  160.3201 C   0  0  2  0  0  0  0  0  0  0  0  0
  151.9234  141.6615  159.2149 C   0  0  0  0  0  0  0  0  0  0  0  0
  151.0302  142.3429  158.2877 N   0  0  0  0  0  0  0  0  0  0  0  0
  150.5070  141.4199  157.2804 C   0  0  0  0  0  0  0  0  0  0  0  0
  151.5296  140.9377  156.2353 C   0  0  0  0  0  0  0  0  0  0  0  0
  151.2583  139.5040  155.7448 C   0  0  0  0  0  0  0  0  0  0  0  0
  150.4254  139.4950  154.5480 N   0  0  0  0  0  0  0  0  0  0  0  0
  149.1709  139.0241  154.4943 C   0  0  0  0  0  0  0  0  0  0  0  0
  148.5805  138.5491  155.4647 O   0  0  0  0  0  0  0  0  0  0  0  0
  148.6566  139.1424  153.2594 N   0  0  0  0  0  0  0  0  0  0  0  0
  147.3632  138.7543  152.8290 C   0  0  0  0  0  0  0  0  0  0  0  0
  146.3181  138.1231  153.5658 C   0  0  0  0  0  0  0  0  0  0  0  0
  145.2505  137.9208  152.8066 N   0  0  0  0  0  0  0  0  0  0  0  0
  145.6020  138.4144  151.5980 N   0  0  0  0  0  0  0  0  0  0  0  0
  146.8788  138.9304  151.5674 C   0  0  0  0  0  0  0  0  0  0  0  0
  151.7311  143.4841  157.7031 C   0  0  0  0  0  0  0  0  0  0  0  0
  152.2858  144.4478  158.7704 C   0  0  1  0  0  0  0  0  0  0  0  0
  151.1932  145.2935  159.4471 C   0  0  0  0  0  0  0  0  0  0  0  0
  153.0724  143.7321  159.7248 O   0  0  0  0  0  0  0  0  0  0  0  0
  144.9664  138.3919  150.8133 H   0  0  0  0  0  0  0  0  0  0  0  0
  152.9994  141.0499  161.7340 H   0  0  0  0  0  0  0  0  0  0  0  0
  153.7834  142.6004  162.0229 H   0  0  0  0  0  0  0  0  0  0  0  0
  154.3173  141.5801  160.6897 H   0  0  0  0  0  0  0  0  0  0  0  0
  151.5897  142.9447  160.9241 H   0  0  0  0  0  0  0  0  0  0  0  0
  152.7721  141.2448  158.6700 H   0  0  0  0  0  0  0  0  0  0  0  0
  151.4045  140.8195  159.6744 H   0  0  0  0  0  0  0  0  0  0  0  0
  150.0663  140.5534  157.7754 H   0  0  0  0  0  0  0  0  0  0  0  0
  149.6888  141.9040  156.7452 H   0  0  0  0  0  0  0  0  0  0  0  0
  151.5655  141.6284  155.3933 H   0  0  0  0  0  0  0  0  0  0  0  0
  152.5240  140.9740  156.6813 H   0  0  0  0  0  0  0  0  0  0  0  0
  152.2000  139.0067  155.5121 H   0  0  0  0  0  0  0  0  0  0  0  0
  150.7809  138.9106  156.5266 H   0  0  0  0  0  0  0  0  0  0  0  0
  150.8339  139.8686  153.7039 H   0  0  0  0  0  0  0  0  0  0  0  0
  149.2511  139.5528  152.5545 H   0  0  0  0  0  0  0  0  0  0  0  0
  146.2890  137.8093  154.5985 H   0  0  0  0  0  0  0  0  0  0  0  0
  147.3142  139.3633  150.6789 H   0  0  0  0  0  0  0  0  0  0  0  0
  152.5565  143.1251  157.0866 H   0  0  0  0  0  0  0  0  0  0  0  0
  151.0711  144.0428  157.0405 H   0  0  0  0  0  0  0  0  0  0  0  0
  152.9636  145.1428  158.2742 H   0  0  0  0  0  0  0  0  0  0  0  0
  150.6762  145.9145  158.7152 H   0  0  0  0  0  0  0  0  0  0  0  0
  151.6228  145.9559  160.1986 H   0  0  0  0  0  0  0  0  0  0  0  0
  150.4407  144.6754  159.9360 H   0  0  0  0  0  0  0  0  0  0  0  0
  1  2  1  0  0  0  0
  1 22  1  0  0  0  0
  1 23  1  0  0  0  0
  1 24  1  0  0  0  0
  2 20  1  0  0  0  0
  2  3  1  0  0  0  0
  2 25  1  0  0  0  0
  3  4  1  0  0  0  0
  3 26  1  0  0  0  0
  3 27  1  0  0  0  0
  4  5  1  0  0  0  0
  4 17  1  0  0  0  0
  5  6  1  0  0  0  0
  5 28  1  0  0  0  0
  5 29  1  0  0  0  0
  6  7  1  0  0  0  0
  6 30  1  0  0  0  0
  6 31  1  0  0  0  0
  7  8  1  0  0  0  0
  7 32  1  0  0  0  0
  7 33  1  0  0  0  0
  8  9  1  0  0  0  0
  8 34  1  0  0  0  0
  9 10  2  0  0  0  0
  9 11  1  0  0  0  0
 11 12  1  0  0  0  0
 11 35  1  0  0  0  0
 12 16  2  0  0  0  0
 12 13  1  0  0  0  0
 13 14  2  0  0  0  0
 13 36  1  0  0  0  0
 14 15  1  0  0  0  0
 15 21  1  0  0  0  0
 15 16  1  0  0  0  0
 16 37  1  0  0  0  0
 17 18  1  0  0  0  0
 17 38  1  0  0  0  0
 17 39  1  0  0  0  0
 18 19  1  0  0  0  0
 18 20  1  0  0  0  0
 18 40  1  0  0  0  0
 19 41  1  0  0  0  0
 19 42  1  0  0  0  0
 19 43  1  0  0  0  0
M  END
> <s_m_source_file>
AV-unprocessed.smi

> <i_m_source_file_index>
1900

> <i_lp_mmshare_version>
43012

> <i_f3d_flags>
0

> <s_epik_input>
W0NIM11bQ0BASF0xW0NIMl1OKFtDSDJdW0NASF0oTzEpW0NIM10pW0NIMl1bQ0gyXVtDSDJdW05IXUMoPU8pW05IXWMyW2NIXW5bbkhdW2NIXTI=

> <s_epik_cmdline>
J2VwaWtfcHl0aG9uJywgJy1waCcsICc3LjAnLCAnLXRuJywgJzgnLCAnLW1hJywgJzIwMCcsICctbWV0YWxfYmluZGluZycsICctaW1hZScsICc8aW5maWxlLm1hZT4nLCAnLW9tYWUnLCAnPG91dGZpbGUubWFlPic=

> <r_lp_tautomer_probability>
0.5

> <r_epik_Ionization_Penalty>
0.594715

> <r_epik_Ionization_Penalty_Charging>
0

> <r_epik_Ionization_Penalty_Neutral>
0.594715

> <r_epik_State_Penalty>
0.608529

> <r_epik_Charging_Adjusted_Penalty>
0.608529

> <i_epik_Tot_Q>
0

> <i_epik_Tot_abs_Q>
0

> <r_epik_Metal_State_Penalty>
0.608528

> <b_epik_Metal_Only>
0

> <s_lp_Force_Field>
OPLS_2005

> <r_lp_Energy>
27.7437

> <b_lp_Chiralities_Consistent>
1

> <s_lp_Variant>
AV-unprocessed.smi:1900-5

> <Gold.Version>
5.8.1

> <Gold.Id.Protein>
6NUR|6NUR_protein|mol2

> <Gold.PLP.Fitness>
48.8868

> <Gold.PLP.PLP>
-42.0249

> <Gold.PLP.part.hbond>
-3.2240

> <Gold.PLP.part.metal>
0.0000

> <Gold.PLP.part.buried>
-4.1441

> <Gold.PLP.part.nonpolar>
-35.0395

> <Gold.PLP.part.repulsive>
1.1204

> <Gold.PLP.ligand.clash>
0.0000

> <Gold.PLP.ligand.torsion>
0.4927

> <Gold.PLP.Chemscore.Hbond>
2.0000

> <Gold.PLP.Chemscore.CHOScore>
0.6023

> <Gold.PLP.Chemscore.Metal>
0.0000

> <Gold.Chemscore.Hbonds>
donor molecule, donor type, donor heavy atom, donor atom, acceptor molecule, acceptor atom, score
      L1  H    11    35       P1  7957  0.96
      L1  H    15    21       P1 10171  0.89
      L1  C    16    37       P1  7957  0.61

> <Gold.PLP.Chemscore.Internal.Correction>
0.0402

> <Gold.Rescore>
     Score         DG    S(hbond)    S(metal)    S(lipo)     H(rot)  DE(clash)    DE(int)     intcor
     18.03     -19.76       1.99        0.00     106.41       1.88       0.05       1.68       ----

> <Gold.Chemscore.Fitness>
18.0282

> <Gold.Chemscore.DG>
-19.7611

> <Gold.Chemscore.ZeroCoef>
-5.4800

> <Gold.Chemscore.Hbond>
1.9891

> <Gold.Chemscore.Metal>
0.0000

> <Gold.Chemscore.Lipo>
106.4120

> <Gold.Chemscore.Internal_Hbond>
0.0000

> <Gold.Chemscore.DEClash>
0.0546

> <Gold.Chemscore.DEInternal>
1.6782

> <Gold.Chemscore.Rot>
1.8799

> <Gold.Chemscore.Internal.Correction>
   9.000000E+99

> <Gold.Chemscore.Hbonds>
donor molecule, donor type, donor heavy atom, donor atom, acceptor molecule, acceptor atom, score
      L1  H    11    35       P1  7957  0.89
      L1  H    15    21       P1 10171  0.87

> <Gold.Chemscore.Hbond.Weighted>
-6.6434

> <Gold.Chemscore.Metal.Weighted>
-0.0000

> <Gold.Chemscore.Lipo.Weighted>
-12.4502

> <Gold.Chemscore.Internal_Hbond.Weighted>
0.0000

> <Gold.Chemscore.DEClash.Weighted>
0.0546

> <Gold.Chemscore.DEInternal.Weighted>
1.6782

> <Gold.Chemscore.Rot.Weighted>
4.8126

> <Gold.Chemscore.Internal.Correction.Weighted>
   9.000000E+99

> <Gold.Protein.RotatedTorsions>
[ 6907 6896 6895 6894 ] final  -33.32 input  -60.11 | X-H torsion
[ 7974 7965 7964 7962 ] final  164.16 input  175.53 | X-H torsion
[ 8008 7997 7996 7995 ] final -176.38 input   59.86 | X-H torsion
[ 10167 10162 10161 10158 ] final  -64.99 input  -65.29 | X-H torsion
[ 10718 10713 10712 10709 ] final   46.48 input   66.30 | X-H torsion
[ 10763 10752 10751 10750 ] final   79.06 input  -60.55 | X-H torsion
[ 11005 11000 10999 10996 ] final   38.48 input  -57.11 | X-H torsion

> <Gold.Protein.ActiveResidues>
 VAL166  LYS551  ARG553  GLY616  TRP617  ASP618  TYR619  PRO620  LYS621  CYS622 
 ASP623  PHE694  ASN695  SER759  ASP760  ASP761  ALA762  ILE779  LEU786  VAL792 
 PHE793  MET794  SER795  GLU796  ALA797  LYS798  CYS799  TRP800  GLU811  SER814 

> <Gold.Protein.RotatedAtoms>
  151.0671  134.9774  159.8289 H   0  0  0  0  0  0  0  0  0  0  0  0  # atno 6907 bound_to 6896
  152.5403  134.2345  159.8848 H   0  0  0  0  0  0  0  0  0  0  0  0  # atno 6908 bound_to 6896
  151.2368  133.4377  159.2639 H   0  0  0  0  0  0  0  0  0  0  0  0  # atno 6909 bound_to 6896
  144.7557  139.8287  143.6350 H   0  0  0  0  0  0  0  0  0  0  0  0  # atno 7974 bound_to 7965
  155.9942  140.1207  157.0609 H   0  0  0  0  0  0  0  0  0  0  0  0  # atno 8008 bound_to 7997
  154.4221  140.1119  156.5676 H   0  0  0  0  0  0  0  0  0  0  0  0  # atno 8009 bound_to 7997
  155.6301  140.3473  155.4682 H   0  0  0  0  0  0  0  0  0  0  0  0  # atno 8010 bound_to 7997
  140.5761  143.2322  151.6439 H   0  0  0  0  0  0  0  0  0  0  0  0  # atno 10167 bound_to 10162
  157.4486  130.8124  149.7765 H   0  0  0  0  0  0  0  0  0  0  0  0  # atno 10718 bound_to 10713
  153.0923  135.4854  154.8713 H   0  0  0  0  0  0  0  0  0  0  0  0  # atno 10763 bound_to 10752
  154.7283  135.3054  154.8935 H   0  0  0  0  0  0  0  0  0  0  0  0  # atno 10764 bound_to 10752
  153.9579  135.6816  153.4798 H   0  0  0  0  0  0  0  0  0  0  0  0  # atno 10765 bound_to 10752
  140.2122  134.3741  155.8043 H   0  0  0  0  0  0  0  0  0  0  0  0  # atno 11005 bound_to 11000
  146.1564  139.4664  143.0016 LP  0  0  0  0  0  0  0  0  0  0  0  0  # atno 17320 bound_to 7965
  145.6787  141.0197  143.1618 LP  0  0  0  0  0  0  0  0  0  0  0  0  # atno 17321 bound_to 7965
  139.5143  144.3413  152.0737 LP  0  0  0  0  0  0  0  0  0  0  0  0  # atno 17342 bound_to 10162
  140.2557  144.4121  150.6204 LP  0  0  0  0  0  0  0  0  0  0  0  0  # atno 17343 bound_to 10162
  155.9977  130.3898  150.2728 LP  0  0  0  0  0  0  0  0  0  0  0  0  # atno 17370 bound_to 10713
  157.0898  131.0166  151.3126 LP  0  0  0  0  0  0  0  0  0  0  0  0  # atno 17371 bound_to 10713
  141.2226  133.7149  156.8437 LP  0  0  0  0  0  0  0  0  0  0  0  0  # atno 17394 bound_to 11000
  140.1938  134.8946  157.3091 LP  0  0  0  0  0  0  0  0  0  0  0  0  # atno 17395 bound_to 11000

$$$$
