AV-unprocessed.smi:1672|AV-procd|sdf|6706|dock9
  -GOLD-   22720 7453D 1   1.00000     0.00000
 Structure written by MMmdl.
 49 51  0  0  0  0  0  0  0  0  3 V2000
  151.1318  139.7153  154.4991 C   0  0  0  0  0  0  0  0  0  0  0  0
  150.1371  138.6433  154.9666 C   0  0  2  0  0  0  0  0  0  0  0  0
  150.6739  137.2230  154.7218 C   0  0  0  0  0  0  0  0  0  0  0  0
  149.6561  136.1566  155.1607 C   0  0  0  0  0  0  0  0  0  0  0  0
  148.3537  136.3430  154.4712 N   0  3  1  0  0  0  0  0  0  0  0  0
  147.3978  135.2430  154.7611 C   0  0  0  0  0  0  0  0  0  0  0  0
  146.0710  135.3917  153.9902 C   0  0  1  0  0  0  0  0  0  0  0  0
  146.3581  135.8514  152.6847 O   0  0  0  0  0  0  0  0  0  0  0  0
  145.3099  134.0537  153.9020 C   0  0  0  0  0  0  0  0  0  0  0  0
  144.5732  133.8907  152.6373 N   0  0  0  0  0  0  0  0  0  0  0  0
  143.3360  134.3315  152.2608 C   0  0  0  0  0  0  0  0  0  0  0  0
  142.3665  135.1214  153.0777 C   0  0  0  0  0  0  0  0  0  0  0  0
  141.4741  134.2984  153.7951 O   0  0  0  0  0  0  0  0  0  0  0  0
  143.1286  133.9060  150.9826 N   0  3  0  0  0  0  0  0  0  0  0  0
  144.2420  133.1964  150.5324 C   0  0  0  0  0  0  0  0  0  0  0  0
  144.4972  132.5797  149.3116 C   0  0  0  0  0  0  0  0  0  0  0  0
  145.7458  131.9380  149.1758 C   0  0  0  0  0  0  0  0  0  0  0  0
  146.6834  131.9256  150.2290 C   0  0  0  0  0  0  0  0  0  0  0  0
  146.4126  132.5535  151.4628 C   0  0  0  0  0  0  0  0  0  0  0  0
  145.1756  133.1853  151.5888 C   0  0  0  0  0  0  0  0  0  0  0  0
  147.7922  137.6961  154.7266 C   0  0  0  0  0  0  0  0  0  0  0  0
  148.7704  138.7944  154.2770 C   0  0  0  0  0  0  0  0  0  0  0  0
  151.3224  139.6416  153.4278 H   0  0  0  0  0  0  0  0  0  0  0  0
  152.0876  139.6146  155.0142 H   0  0  0  0  0  0  0  0  0  0  0  0
  150.7532  140.7178  154.7009 H   0  0  0  0  0  0  0  0  0  0  0  0
  149.9919  138.7712  156.0404 H   0  0  0  0  0  0  0  0  0  0  0  0
  150.9050  137.0909  153.6636 H   0  0  0  0  0  0  0  0  0  0  0  0
  151.6106  137.0793  155.2619 H   0  0  0  0  0  0  0  0  0  0  0  0
  150.0573  135.1684  154.9319 H   0  0  0  0  0  0  0  0  0  0  0  0
  149.5076  136.1969  156.2412 H   0  0  0  0  0  0  0  0  0  0  0  0
  147.8449  134.2848  154.4909 H   0  0  0  0  0  0  0  0  0  0  0  0
  147.2149  135.1991  155.8358 H   0  0  0  0  0  0  0  0  0  0  0  0
  145.4304  136.1278  154.4738 H   0  0  0  0  0  0  0  0  0  0  0  0
  147.2834  135.7429  152.5223 H   0  0  0  0  0  0  0  0  0  0  0  0
  146.0020  133.2171  153.9999 H   0  0  0  0  0  0  0  0  0  0  0  0
  144.6002  133.9567  154.7244 H   0  0  0  0  0  0  0  0  0  0  0  0
  142.9043  135.7646  153.7738 H   0  0  0  0  0  0  0  0  0  0  0  0
  141.7917  135.7757  152.4215 H   0  0  0  0  0  0  0  0  0  0  0  0
  141.9049  133.4777  153.9814 H   0  0  0  0  0  0  0  0  0  0  0  0
  143.7812  132.5887  148.5028 H   0  0  0  0  0  0  0  0  0  0  0  0
  145.9894  131.4468  148.2448 H   0  0  0  0  0  0  0  0  0  0  0  0
  147.6301  131.4242  150.0871 H   0  0  0  0  0  0  0  0  0  0  0  0
  147.1387  132.5386  152.2618 H   0  0  0  0  0  0  0  0  0  0  0  0
  146.8506  137.8256  154.1948 H   0  0  0  0  0  0  0  0  0  0  0  0
  147.5699  137.8049  155.7894 H   0  0  0  0  0  0  0  0  0  0  0  0
  148.3472  139.7748  154.4984 H   0  0  0  0  0  0  0  0  0  0  0  0
  148.8940  138.7492  153.1938 H   0  0  0  0  0  0  0  0  0  0  0  0
  148.5523  136.2858  153.4819 H   0  0  0  0  0  0  0  0  0  0  0  0
  142.2828  134.0905  150.4579 H   0  0  0  0  0  0  0  0  0  0  0  0
  1  2  1  0  0  0  0
  1 23  1  0  0  0  0
  1 24  1  0  0  0  0
  1 25  1  0  0  0  0
  2 22  1  0  0  0  0
  2  3  1  0  0  0  0
  2 26  1  0  0  0  0
  3  4  1  0  0  0  0
  3 27  1  0  0  0  0
  3 28  1  0  0  0  0
  4  5  1  0  0  0  0
  4 29  1  0  0  0  0
  4 30  1  0  0  0  0
  5  6  1  0  0  0  0
  5 21  1  0  0  0  0
  5 48  1  0  0  0  0
  6  7  1  0  0  0  0
  6 31  1  0  0  0  0
  6 32  1  0  0  0  0
  7  8  1  0  0  0  0
  7  9  1  0  0  0  0
  7 33  1  0  0  0  0
  8 34  1  0  0  0  0
  9 10  1  0  0  0  0
  9 35  1  0  0  0  0
  9 36  1  0  0  0  0
 10 20  1  0  0  0  0
 10 11  1  0  0  0  0
 11 12  1  0  0  0  0
 11 14  2  0  0  0  0
 12 13  1  0  0  0  0
 12 37  1  0  0  0  0
 12 38  1  0  0  0  0
 13 39  1  0  0  0  0
 14 15  1  0  0  0  0
 14 49  1  0  0  0  0
 15 20  2  0  0  0  0
 15 16  1  0  0  0  0
 16 17  2  0  0  0  0
 16 40  1  0  0  0  0
 17 18  1  0  0  0  0
 17 41  1  0  0  0  0
 18 19  2  0  0  0  0
 18 42  1  0  0  0  0
 19 20  1  0  0  0  0
 19 43  1  0  0  0  0
 21 22  1  0  0  0  0
 21 44  1  0  0  0  0
 21 45  1  0  0  0  0
 22 46  1  0  0  0  0
 22 47  1  0  0  0  0
M  CHG  1   5   1
M  CHG  1  14   1
M  END
> <s_m_source_file>
AV-unprocessed.smi

> <i_m_source_file_index>
1672

> <i_lp_mmshare_version>
43012

> <i_f3d_flags>
0

> <s_epik_input>
W0NIM11bQ0hdMVtDSDJdW0NIMl1OKFtDSDJdW0NIMl0xKVtDSDJdW0NASF0oW09IXSlbQ0gyXW4oYyhuMilbQ0gyXVtPSF0pYyhjMjMpW2NIXVtjSF1bY0hdW2NIXTM=

> <s_epik_cmdline>
J2VwaWtfcHl0aG9uJywgJy1waCcsICc3LjAnLCAnLXRuJywgJzgnLCAnLW1hJywgJzIwMCcsICctbWV0YWxfYmluZGluZycsICctaW1hZScsICc8aW5maWxlLm1hZT4nLCAnLW9tYWUnLCAnPG91dGZpbGUubWFlPic=

> <r_epik_Ionization_Penalty>
1.51642

> <r_epik_Ionization_Penalty_Charging>
1.51557

> <r_epik_Ionization_Penalty_Neutral>
0.000856474

> <r_epik_State_Penalty>
1.6048

> <r_epik_Charging_Adjusted_Penalty>
3.12037

> <i_epik_Tot_Q>
2

> <i_epik_Tot_abs_Q>
2

> <r_epik_Metal_State_Penalty>
5.65673

> <b_epik_Metal_Only>
0

> <s_lp_Force_Field>
OPLS_2005

> <r_lp_Energy>
28.534

> <b_lp_Chiralities_Consistent>
1

> <s_lp_Variant>
AV-unprocessed.smi:1672-6

> <Gold.Version>
5.8.1

> <Gold.Id.Protein>
6NUR|6NUR_protein|mol2

> <Gold.PLP.Fitness>
54.3860

> <Gold.PLP.PLP>
-36.3168

> <Gold.PLP.part.hbond>
-5.1584

> <Gold.PLP.part.metal>
0.0000

> <Gold.PLP.part.buried>
1.0063

> <Gold.PLP.part.nonpolar>
-31.2439

> <Gold.PLP.part.repulsive>
0.0000

> <Gold.PLP.ligand.clash>
0.0000

> <Gold.PLP.ligand.torsion>
1.3730

> <Gold.PLP.Chemscore.Hbond>
6.9272

> <Gold.PLP.Chemscore.CHOScore>
0.0000

> <Gold.PLP.Chemscore.Metal>
0.0000

> <Gold.Chemscore.Hbonds>
donor molecule, donor type, donor heavy atom, donor atom, acceptor molecule, acceptor atom, score
      L1  H     5    48       P1  7948  2.00
      L1  H     8    34       P1  7948  1.00
      L1  H    13    39       P1 10957  1.00
      L1  H    14    49       P1 10186  2.00
      P1  H 11000 11005       L1    13  0.32

> <Gold.PLP.Chemscore.Internal.Correction>
0.0336

> <Gold.Rescore>
     Score         DG    S(hbond)    S(metal)    S(lipo)     H(rot)  DE(clash)    DE(int)     intcor
     18.58     -22.62       3.93        0.00      99.07       2.96       2.62       1.42       ----

> <Gold.Chemscore.Fitness>
18.5775

> <Gold.Chemscore.DG>
-22.6212

> <Gold.Chemscore.ZeroCoef>
-5.4800

> <Gold.Chemscore.Hbond>
3.9269

> <Gold.Chemscore.Metal>
0.0000

> <Gold.Chemscore.Lipo>
99.0711

> <Gold.Chemscore.Internal_Hbond>
0.0000

> <Gold.Chemscore.DEClash>
2.6206

> <Gold.Chemscore.DEInternal>
1.4231

> <Gold.Chemscore.Rot>
2.9555

> <Gold.Chemscore.Internal.Correction>
   9.000000E+99

> <Gold.Chemscore.Hbonds>
donor molecule, donor type, donor heavy atom, donor atom, acceptor molecule, acceptor atom, score
      L1  H     5    48       P1  7948  1.00
      L1  H     8    34       P1  7948  0.98
      L1  H    13    39       P1 10957  0.94
      L1  H    14    49       P1 10186  0.73
      P1  H 11000 11005       L1    13  0.02

> <Gold.Chemscore.Hbond.Weighted>
-13.1158

> <Gold.Chemscore.Metal.Weighted>
-0.0000

> <Gold.Chemscore.Lipo.Weighted>
-11.5913

> <Gold.Chemscore.Internal_Hbond.Weighted>
0.0000

> <Gold.Chemscore.DEClash.Weighted>
2.6206

> <Gold.Chemscore.DEInternal.Weighted>
1.4231

> <Gold.Chemscore.Rot.Weighted>
7.5660

> <Gold.Chemscore.Internal.Correction.Weighted>
   9.000000E+99

> <Gold.Protein.RotatedTorsions>
[ 6907 6896 6895 6894 ] final   69.73 input  -60.11 | X-H torsion
[ 7974 7965 7964 7962 ] final  -11.01 input  175.53 | X-H torsion
[ 8008 7997 7996 7995 ] final   44.85 input   59.86 | X-H torsion
[ 10167 10162 10161 10158 ] final  117.68 input  -65.29 | X-H torsion
[ 10718 10713 10712 10709 ] final  -58.18 input   66.30 | X-H torsion
[ 10763 10752 10751 10750 ] final  176.98 input  -60.55 | X-H torsion
[ 11005 11000 10999 10996 ] final   24.26 input  -57.11 | X-H torsion

> <Gold.Protein.ActiveResidues>
 VAL166  LYS551  ARG553  GLY616  TRP617  ASP618  TYR619  PRO620  LYS621  CYS622 
 ASP623  PHE694  ASN695  SER759  ASP760  ASP761  ALA762  ILE779  LEU786  VAL792 
 PHE793  MET794  SER795  GLU796  ALA797  LYS798  CYS799  TRP800  GLU811  SER814 

> <Gold.Protein.RotatedAtoms>
  152.4704  134.4973  159.9713 H   0  0  0  0  0  0  0  0  0  0  0  0  # atno 6907 bound_to 6896
  151.5001  133.3500  159.2875 H   0  0  0  0  0  0  0  0  0  0  0  0  # atno 6908 bound_to 6896
  150.8711  134.8113  159.7217 H   0  0  0  0  0  0  0  0  0  0  0  0  # atno 6909 bound_to 6896
  146.2202  140.2848  142.8364 H   0  0  0  0  0  0  0  0  0  0  0  0  # atno 7974 bound_to 7965
  155.3261  140.3400  155.4240 H   0  0  0  0  0  0  0  0  0  0  0  0  # atno 8008 bound_to 7997
  156.1885  140.1689  156.8176 H   0  0  0  0  0  0  0  0  0  0  0  0  # atno 8009 bound_to 7997
  154.5414  140.0724  156.8499 H   0  0  0  0  0  0  0  0  0  0  0  0  # atno 8010 bound_to 7997
  139.6162  144.7092  151.2734 H   0  0  0  0  0  0  0  0  0  0  0  0  # atno 10167 bound_to 10162
  156.1154  130.4171  150.0542 H   0  0  0  0  0  0  0  0  0  0  0  0  # atno 10718 bound_to 10713
  154.4884  135.2778  155.1516 H   0  0  0  0  0  0  0  0  0  0  0  0  # atno 10763 bound_to 10752
  154.3197  135.6212  153.5506 H   0  0  0  0  0  0  0  0  0  0  0  0  # atno 10764 bound_to 10752
  152.9884  135.5740  154.5300 H   0  0  0  0  0  0  0  0  0  0  0  0  # atno 10765 bound_to 10752
  140.3607  134.2129  155.7672 H   0  0  0  0  0  0  0  0  0  0  0  0  # atno 11005 bound_to 11000
  144.9170  140.7824  143.5772 LP  0  0  0  0  0  0  0  0  0  0  0  0  # atno 17320 bound_to 7965
  145.2782  139.1928  143.4805 LP  0  0  0  0  0  0  0  0  0  0  0  0  # atno 17321 bound_to 7965
  140.7352  143.6743  150.8055 LP  0  0  0  0  0  0  0  0  0  0  0  0  # atno 17342 bound_to 10162
  140.0346  143.5408  152.2745 LP  0  0  0  0  0  0  0  0  0  0  0  0  # atno 17343 bound_to 10162
  156.8494  130.9453  151.3626 LP  0  0  0  0  0  0  0  0  0  0  0  0  # atno 17370 bound_to 10713
  157.6337  130.8750  149.9321 LP  0  0  0  0  0  0  0  0  0  0  0  0  # atno 17371 bound_to 10713
  141.1985  133.8034  157.0580 LP  0  0  0  0  0  0  0  0  0  0  0  0  # atno 17394 bound_to 11000
  140.0629  134.9745  157.1336 LP  0  0  0  0  0  0  0  0  0  0  0  0  # atno 17395 bound_to 11000

$$$$
