AV-unprocessed.smi:1362|AV-procd|sdf|5561|dock7
  -GOLD-   22720 5153D 1   1.00000     0.00000
 Structure written by MMmdl.
 39 39  0  0  0  0  0  0  0  0  1 V2000
  154.8506  139.9173  160.3535 C   0  0  0  0  0  0  0  0  0  0  0  0
  153.7328  140.5266  159.5351 C   0  0  0  0  0  0  0  0  0  0  0  0
  153.3147  141.7632  159.9980 N   0  0  0  0  0  0  0  0  0  0  0  0
  152.2985  142.4022  159.3100 C   0  0  0  0  0  0  0  0  0  0  0  0
  151.9026  143.7535  159.8800 C   0  0  0  0  0  0  0  0  0  0  0  0
  151.7290  141.8384  158.2146 C   0  0  0  0  0  0  0  0  0  0  0  0
  150.6100  142.5165  157.4253 C   0  0  0  0  0  0  0  0  0  0  0  0
  149.3124  141.7164  157.2853 C   0  0  0  0  0  0  0  0  0  0  0  0
  149.1797  140.6375  157.8633 O   0  0  0  0  0  0  0  0  0  0  0  0
  148.3638  142.2593  156.5068 N   0  0  0  0  0  0  0  0  0  0  0  0
  147.0657  141.6590  156.2006 C   0  0  1  0  0  0  0  0  0  0  0  0
  145.9711  142.4233  156.9697 C   0  0  0  0  0  0  0  0  0  0  0  0
  146.8360  141.6366  154.6661 C   0  0  0  0  0  0  0  0  0  0  0  0
  148.0771  141.1537  153.8937 C   0  0  0  0  0  0  0  0  0  0  0  0
  146.3954  143.0098  154.1210 C   0  0  0  0  0  0  0  0  0  0  0  0
  152.2212  140.5146  157.7649 C   0  0  0  0  0  0  0  0  0  0  0  0
  151.7537  139.9560  156.7734 O   0  0  0  0  0  0  0  0  0  0  0  0
  153.2511  139.9065  158.5012 N   0  0  0  0  0  0  0  0  0  0  0  0
  153.7144  142.2207  160.8047 H   0  0  0  0  0  0  0  0  0  0  0  0
  155.0250  138.8803  160.0641 H   0  0  0  0  0  0  0  0  0  0  0  0
  154.6034  139.9362  161.4155 H   0  0  0  0  0  0  0  0  0  0  0  0
  155.7757  140.4742  160.2024 H   0  0  0  0  0  0  0  0  0  0  0  0
  150.8610  143.7413  160.2018 H   0  0  0  0  0  0  0  0  0  0  0  0
  152.0232  144.5350  159.1293 H   0  0  0  0  0  0  0  0  0  0  0  0
  152.5160  144.0212  160.7413 H   0  0  0  0  0  0  0  0  0  0  0  0
  150.9879  142.7414  156.4271 H   0  0  0  0  0  0  0  0  0  0  0  0
  150.3664  143.4886  157.8548 H   0  0  0  0  0  0  0  0  0  0  0  0
  148.5614  143.1513  156.0772 H   0  0  0  0  0  0  0  0  0  0  0  0
  147.0685  140.6249  156.5508 H   0  0  0  0  0  0  0  0  0  0  0  0
  145.0007  141.9362  156.8812 H   0  0  0  0  0  0  0  0  0  0  0  0
  145.8692  143.4458  156.6046 H   0  0  0  0  0  0  0  0  0  0  0  0
  146.1994  142.4742  158.0348 H   0  0  0  0  0  0  0  0  0  0  0  0
  146.0292  140.9329  154.4559 H   0  0  0  0  0  0  0  0  0  0  0  0
  148.9450  141.7783  154.1084 H   0  0  0  0  0  0  0  0  0  0  0  0
  147.9059  141.1845  152.8173 H   0  0  0  0  0  0  0  0  0  0  0  0
  148.3343  140.1241  154.1404 H   0  0  0  0  0  0  0  0  0  0  0  0
  147.1406  143.7763  154.3355 H   0  0  0  0  0  0  0  0  0  0  0  0
  145.4486  143.3368  154.5512 H   0  0  0  0  0  0  0  0  0  0  0  0
  146.2567  142.9766  153.0400 H   0  0  0  0  0  0  0  0  0  0  0  0
  1 20  1  0  0  0  0
  1 21  1  0  0  0  0
  1 22  1  0  0  0  0
  1  2  1  0  0  0  0
  2  3  1  0  0  0  0
  2 18  2  0  0  0  0
  3  4  1  0  0  0  0
  3 19  1  0  0  0  0
  4  6  2  0  0  0  0
  4  5  1  0  0  0  0
  5 23  1  0  0  0  0
  5 24  1  0  0  0  0
  5 25  1  0  0  0  0
  6 16  1  0  0  0  0
  6  7  1  0  0  0  0
  7  8  1  0  0  0  0
  7 26  1  0  0  0  0
  7 27  1  0  0  0  0
  8  9  2  0  0  0  0
  8 10  1  0  0  0  0
 10 11  1  0  0  0  0
 10 28  1  0  0  0  0
 11 12  1  0  0  0  0
 11 13  1  0  0  0  0
 11 29  1  0  0  0  0
 12 30  1  0  0  0  0
 12 31  1  0  0  0  0
 12 32  1  0  0  0  0
 13 14  1  0  0  0  0
 13 15  1  0  0  0  0
 13 33  1  0  0  0  0
 14 34  1  0  0  0  0
 14 35  1  0  0  0  0
 14 36  1  0  0  0  0
 15 37  1  0  0  0  0
 15 38  1  0  0  0  0
 15 39  1  0  0  0  0
 16 17  2  0  0  0  0
 16 18  1  0  0  0  0
M  END
> <s_m_source_file>
AV-unprocessed.smi

> <i_m_source_file_index>
1362

> <i_lp_mmshare_version>
43012

> <i_f3d_flags>
0

> <s_epik_input>
W0NIM11jMW5jKFtDSDNdKWMoYyg9TylbbkhdMSlbQ0gyXUMoPU8pW05IXVtDQEhdKFtDSDNdKVtDSF0oW0NIM10pW0NIM10=

> <s_epik_cmdline>
J2VwaWtfcHl0aG9uJywgJy1waCcsICc3LjAnLCAnLXRuJywgJzgnLCAnLW1hJywgJzIwMCcsICctbWV0YWxfYmluZGluZycsICctaW1hZScsICc8aW5maWxlLm1hZT4nLCAnLW9tYWUnLCAnPG91dGZpbGUubWFlPic=

> <r_lp_tautomer_probability>
0.156392

> <r_epik_Ionization_Penalty>
0.0140737

> <r_epik_Ionization_Penalty_Charging>
0.0139511

> <r_epik_Ionization_Penalty_Neutral>
0.000122633

> <r_epik_State_Penalty>
1.53034

> <r_epik_Charging_Adjusted_Penalty>
1.54429

> <i_epik_Tot_Q>
0

> <i_epik_Tot_abs_Q>
0

> <r_epik_Metal_State_Penalty>
1.70655

> <b_epik_Metal_Only>
0

> <s_lp_Force_Field>
OPLS_2005

> <r_lp_Energy>
10.7391

> <b_lp_Chiralities_Consistent>
1

> <s_lp_Variant>
AV-unprocessed.smi:1362-4

> <Gold.Version>
5.8.1

> <Gold.Id.Protein>
6NUR|6NUR_protein|mol2

> <Gold.PLP.Fitness>
37.1016

> <Gold.PLP.PLP>
-31.8486

> <Gold.PLP.part.hbond>
-2.0000

> <Gold.PLP.part.metal>
0.0000

> <Gold.PLP.part.buried>
-5.3847

> <Gold.PLP.part.nonpolar>
-25.7397

> <Gold.PLP.part.repulsive>
0.0923

> <Gold.PLP.ligand.clash>
0.0000

> <Gold.PLP.ligand.torsion>
0.3854

> <Gold.PLP.Chemscore.Hbond>
2.0000

> <Gold.PLP.Chemscore.CHOScore>
0.0000

> <Gold.PLP.Chemscore.Metal>
0.0000

> <Gold.Chemscore.Hbonds>
donor molecule, donor type, donor heavy atom, donor atom, acceptor molecule, acceptor atom, score
      L1  H    10    28       P1  8028  1.00
      P1  H  7997  8009       L1    18  1.00

> <Gold.PLP.Chemscore.Internal.Correction>
0.0239

> <Gold.Rescore>
     Score         DG    S(hbond)    S(metal)    S(lipo)     H(rot)  DE(clash)    DE(int)     intcor
     13.13     -13.49       1.27        0.00      69.20       1.69       0.07       0.29       ----

> <Gold.Chemscore.Fitness>
13.1298

> <Gold.Chemscore.DG>
-13.4860

> <Gold.Chemscore.ZeroCoef>
-5.4800

> <Gold.Chemscore.Hbond>
1.2693

> <Gold.Chemscore.Metal>
0.0000

> <Gold.Chemscore.Lipo>
69.2045

> <Gold.Chemscore.Internal_Hbond>
0.0000

> <Gold.Chemscore.DEClash>
0.0654

> <Gold.Chemscore.DEInternal>
0.2908

> <Gold.Chemscore.Rot>
1.6916

> <Gold.Chemscore.Internal.Correction>
   9.000000E+99

> <Gold.Chemscore.Hbonds>
donor molecule, donor type, donor heavy atom, donor atom, acceptor molecule, acceptor atom, score
      L1  H    10    28       P1  8028  0.95
      P1  H  7997  8009       L1    18  0.08

> <Gold.Chemscore.Hbond.Weighted>
-4.2396

> <Gold.Chemscore.Metal.Weighted>
-0.0000

> <Gold.Chemscore.Lipo.Weighted>
-8.0969

> <Gold.Chemscore.Internal_Hbond.Weighted>
0.0000

> <Gold.Chemscore.DEClash.Weighted>
0.0654

> <Gold.Chemscore.DEInternal.Weighted>
0.2908

> <Gold.Chemscore.Rot.Weighted>
4.3305

> <Gold.Chemscore.Internal.Correction.Weighted>
   9.000000E+99

> <Gold.Protein.RotatedTorsions>
[ 6907 6896 6895 6894 ] final -101.95 input  -60.11 | X-H torsion
[ 7974 7965 7964 7962 ] final  106.81 input  175.53 | X-H torsion
[ 8008 7997 7996 7995 ] final  138.59 input   59.86 | X-H torsion
[ 10167 10162 10161 10158 ] final   42.77 input  -65.29 | X-H torsion
[ 10718 10713 10712 10709 ] final   38.26 input   66.30 | X-H torsion
[ 10763 10752 10751 10750 ] final   44.77 input  -60.55 | X-H torsion
[ 11005 11000 10999 10996 ] final  120.41 input  -57.11 | X-H torsion

> <Gold.Protein.ActiveResidues>
 VAL166  LYS551  ARG553  GLY616  TRP617  ASP618  TYR619  PRO620  LYS621  CYS622 
 ASP623  PHE694  ASN695  SER759  ASP760  ASP761  ALA762  ILE779  LEU786  VAL792 
 PHE793  MET794  SER795  GLU796  ALA797  LYS798  CYS799  TRP800  GLU811  SER814 

> <Gold.Protein.RotatedAtoms>
  150.7175  134.0656  159.3846 H   0  0  0  0  0  0  0  0  0  0  0  0  # atno 6907 bound_to 6896
  151.8637  135.0512  160.0481 H   0  0  0  0  0  0  0  0  0  0  0  0  # atno 6908 bound_to 6896
  152.2697  133.5335  159.5468 H   0  0  0  0  0  0  0  0  0  0  0  0  # atno 6909 bound_to 6896
  145.3018  139.2567  143.3810 H   0  0  0  0  0  0  0  0  0  0  0  0  # atno 7974 bound_to 7965
  156.2996  140.2389  156.4099 H   0  0  0  0  0  0  0  0  0  0  0  0  # atno 8008 bound_to 7997
  154.8450  140.0426  157.1587 H   0  0  0  0  0  0  0  0  0  0  0  0  # atno 8009 bound_to 7997
  154.9060  140.2983  155.5295 H   0  0  0  0  0  0  0  0  0  0  0  0  # atno 8010 bound_to 7997
  140.3511  144.2349  150.6145 H   0  0  0  0  0  0  0  0  0  0  0  0  # atno 10167 bound_to 10162
  157.3567  130.7627  149.7017 H   0  0  0  0  0  0  0  0  0  0  0  0  # atno 10718 bound_to 10713
  152.9835  135.6060  154.3328 H   0  0  0  0  0  0  0  0  0  0  0  0  # atno 10763 bound_to 10752
  154.3031  135.2772  155.2603 H   0  0  0  0  0  0  0  0  0  0  0  0  # atno 10764 bound_to 10752
  154.4847  135.5908  153.6471 H   0  0  0  0  0  0  0  0  0  0  0  0  # atno 10765 bound_to 10752
  139.9184  134.9634  156.7803 H   0  0  0  0  0  0  0  0  0  0  0  0  # atno 11005 bound_to 11000
  146.3149  140.3534  142.8658 LP  0  0  0  0  0  0  0  0  0  0  0  0  # atno 17320 bound_to 7965
  144.9087  140.7731  143.5821 LP  0  0  0  0  0  0  0  0  0  0  0  0  # atno 17321 bound_to 7965
  140.5218  143.2264  151.8376 LP  0  0  0  0  0  0  0  0  0  0  0  0  # atno 17342 bound_to 10162
  139.4826  144.4827  151.9286 LP  0  0  0  0  0  0  0  0  0  0  0  0  # atno 17343 bound_to 10162
  155.9730  130.4125  150.4036 LP  0  0  0  0  0  0  0  0  0  0  0  0  # atno 17370 bound_to 10713
  157.2107  131.0460  151.2600 LP  0  0  0  0  0  0  0  0  0  0  0  0  # atno 17371 bound_to 10713
  140.6550  133.9697  155.7775 LP  0  0  0  0  0  0  0  0  0  0  0  0  # atno 17394 bound_to 11000
  141.0682  134.0244  157.3563 LP  0  0  0  0  0  0  0  0  0  0  0  0  # atno 17395 bound_to 11000

$$$$
