AV-unprocessed.smi:2032|AV-procd|sdf|8248|dock5
  -GOLD-   2272010513D 1   1.00000     0.00000
 Structure written by MMmdl.
 41 42  0  0  0  0  0  0  0  0  2 V2000
  154.5216  141.1608  160.9507 C   0  0  0  0  0  0  0  0  0  0  0  0
  153.8051  141.7427  159.7277 C   0  0  1  0  0  0  0  0  0  0  0  0
  152.6442  140.8480  159.2527 C   0  0  0  0  0  0  0  0  0  0  0  0
  151.9028  141.4251  158.1264 N   0  0  0  0  0  0  0  0  0  0  0  0
  150.7733  140.5729  157.6847 C   0  0  1  0  0  0  0  0  0  0  0  0
  150.0339  141.1536  156.4522 C   0  0  0  0  0  0  0  0  0  0  0  0
  151.1919  139.1047  157.3777 C   0  0  0  0  0  0  0  0  0  0  0  0
  150.1631  138.1200  157.7045 N   0  0  0  0  0  0  0  0  0  0  0  0
  150.3135  137.0603  158.5120 C   0  0  0  0  0  0  0  0  0  0  0  0
  151.4027  136.8444  159.0482 O   0  0  0  0  0  0  0  0  0  0  0  0
  149.1898  136.3203  158.6505 N   0  5  0  0  0  0  0  0  0  0  0  0
  148.9169  135.7215  159.8212 C   0  0  0  0  0  0  0  0  0  0  0  0
  148.8039  136.3912  160.9742 N   0  0  0  0  0  0  0  0  0  0  0  0
  148.5300  135.5694  162.0690 C   0  0  0  0  0  0  0  0  0  0  0  0
  148.4409  134.2419  161.7436 C   0  0  0  0  0  0  0  0  0  0  0  0
  148.6984  133.9830  160.0415 S   0  0  0  0  0  0  0  0  0  0  0  0
  151.4695  142.7714  158.5156 C   0  0  0  0  0  0  0  0  0  0  0  0
  152.6315  143.6627  158.9943 C   0  0  1  0  0  0  0  0  0  0  0  0
  152.1475  145.0357  159.4727 C   0  0  0  0  0  0  0  0  0  0  0  0
  153.2962  143.0238  160.0767 O   0  0  0  0  0  0  0  0  0  0  0  0
  154.9421  140.1798  160.7283 H   0  0  0  0  0  0  0  0  0  0  0  0
  153.8380  141.0491  161.7927 H   0  0  0  0  0  0  0  0  0  0  0  0
  155.3392  141.8083  161.2682 H   0  0  0  0  0  0  0  0  0  0  0  0
  154.5307  141.8577  158.9206 H   0  0  0  0  0  0  0  0  0  0  0  0
  153.0794  139.8905  158.9739 H   0  0  0  0  0  0  0  0  0  0  0  0
  151.9631  140.6579  160.0838 H   0  0  0  0  0  0  0  0  0  0  0  0
  150.0481  140.5350  158.4990 H   0  0  0  0  0  0  0  0  0  0  0  0
  149.2307  140.5049  156.1044 H   0  0  0  0  0  0  0  0  0  0  0  0
  150.7188  141.3032  155.6172 H   0  0  0  0  0  0  0  0  0  0  0  0
  149.5509  142.1051  156.6682 H   0  0  0  0  0  0  0  0  0  0  0  0
  151.4315  139.0014  156.3191 H   0  0  0  0  0  0  0  0  0  0  0  0
  152.0866  138.8124  157.9260 H   0  0  0  0  0  0  0  0  0  0  0  0
  149.2543  138.2567  157.2875 H   0  0  0  0  0  0  0  0  0  0  0  0
  148.4162  136.0147  163.0462 H   0  0  0  0  0  0  0  0  0  0  0  0
  148.2422  133.4053  162.3964 H   0  0  0  0  0  0  0  0  0  0  0  0
  151.0030  143.2811  157.6748 H   0  0  0  0  0  0  0  0  0  0  0  0
  150.7156  142.7016  159.3014 H   0  0  0  0  0  0  0  0  0  0  0  0
  153.3408  143.8075  158.1774 H   0  0  0  0  0  0  0  0  0  0  0  0
  151.6359  145.5724  158.6735 H   0  0  0  0  0  0  0  0  0  0  0  0
  152.9852  145.6505  159.8028 H   0  0  0  0  0  0  0  0  0  0  0  0
  151.4546  144.9402  160.3094 H   0  0  0  0  0  0  0  0  0  0  0  0
  1  2  1  0  0  0  0
  1 21  1  0  0  0  0
  1 22  1  0  0  0  0
  1 23  1  0  0  0  0
  2 20  1  0  0  0  0
  2  3  1  0  0  0  0
  2 24  1  0  0  0  0
  3  4  1  0  0  0  0
  3 25  1  0  0  0  0
  3 26  1  0  0  0  0
  4  5  1  0  0  0  0
  4 17  1  0  0  0  0
  5  6  1  0  0  0  0
  5  7  1  0  0  0  0
  5 27  1  0  0  0  0
  6 28  1  0  0  0  0
  6 29  1  0  0  0  0
  6 30  1  0  0  0  0
  7  8  1  0  0  0  0
  7 31  1  0  0  0  0
  7 32  1  0  0  0  0
  8  9  1  0  0  0  0
  8 33  1  0  0  0  0
  9 10  2  0  0  0  0
  9 11  1  0  0  0  0
 11 12  1  0  0  0  0
 12 16  1  0  0  0  0
 12 13  2  0  0  0  0
 13 14  1  0  0  0  0
 14 15  2  0  0  0  0
 14 34  1  0  0  0  0
 15 16  1  0  0  0  0
 15 35  1  0  0  0  0
 17 18  1  0  0  0  0
 17 36  1  0  0  0  0
 17 37  1  0  0  0  0
 18 19  1  0  0  0  0
 18 20  1  0  0  0  0
 18 38  1  0  0  0  0
 19 39  1  0  0  0  0
 19 40  1  0  0  0  0
 19 41  1  0  0  0  0
M  CHG  1  11  -1
M  END
> <s_m_source_file>
AV-unprocessed.smi

> <i_m_source_file_index>
2032

> <i_lp_mmshare_version>
43012

> <i_f3d_flags>
0

> <s_epik_input>
W0NIM11bQ0BASF0xW0NIMl1OKFtDSDJdW0NASF0oTzEpW0NIM10pW0NASF0oW0NIM10pW0NIMl1bTkhdQyg9TylbTkhdYzJuW2NIXVtjSF1zMg==

> <s_epik_cmdline>
J2VwaWtfcHl0aG9uJywgJy1waCcsICc3LjAnLCAnLXRuJywgJzgnLCAnLW1hJywgJzIwMCcsICctbWV0YWxfYmluZGluZycsICctaW1hZScsICc8aW5maWxlLm1hZT4nLCAnLW9tYWUnLCAnPG91dGZpbGUubWFlPic=

> <r_lp_tautomer_probability>
0.999

> <r_epik_Ionization_Penalty>
7.22375

> <r_epik_Ionization_Penalty_Charging>
5.82415

> <r_epik_Ionization_Penalty_Neutral>
1.39959

> <r_epik_State_Penalty>
6.03347

> <r_epik_Charging_Adjusted_Penalty>
11.8576

> <i_epik_Tot_Q>
-1

> <i_epik_Tot_abs_Q>
1

> <r_epik_Metal_State_Penalty>
2.01024

> <b_epik_Metal_Only>
1

> <s_lp_Force_Field>
OPLS_2005

> <r_lp_Energy>
22.8045

> <b_lp_Chiralities_Consistent>
1

> <s_lp_Variant>
AV-unprocessed.smi:2032-18

> <Gold.Version>
5.8.1

> <Gold.Id.Protein>
6NUR|6NUR_protein|mol2

> <Gold.PLP.Fitness>
47.3842

> <Gold.PLP.PLP>
-44.0566

> <Gold.PLP.part.hbond>
-3.1087

> <Gold.PLP.part.metal>
0.0000

> <Gold.PLP.part.buried>
-6.1975

> <Gold.PLP.part.nonpolar>
-34.9242

> <Gold.PLP.part.repulsive>
0.1038

> <Gold.PLP.ligand.clash>
0.0000

> <Gold.PLP.ligand.torsion>
1.1998

> <Gold.PLP.Chemscore.Hbond>
1.8824

> <Gold.PLP.Chemscore.CHOScore>
0.0000

> <Gold.PLP.Chemscore.Metal>
0.0000

> <Gold.Chemscore.Hbonds>
donor molecule, donor type, donor heavy atom, donor atom, acceptor molecule, acceptor atom, score
      P1  H  6896  6907       L1    10  0.09
      P1  H  6931  6943       L1    13  0.88

> <Gold.PLP.Chemscore.Internal.Correction>
0.0798

> <Gold.Rescore>
     Score         DG    S(hbond)    S(metal)    S(lipo)     H(rot)  DE(clash)    DE(int)     intcor
     14.62     -16.78       0.96        0.00     103.00       1.54       0.04       2.12       ----

> <Gold.Chemscore.Fitness>
14.6206

> <Gold.Chemscore.DG>
-16.7798

> <Gold.Chemscore.ZeroCoef>
-5.4800

> <Gold.Chemscore.Hbond>
0.9579

> <Gold.Chemscore.Metal>
0.0000

> <Gold.Chemscore.Lipo>
102.9973

> <Gold.Chemscore.Internal_Hbond>
0.0000

> <Gold.Chemscore.DEClash>
0.0434

> <Gold.Chemscore.DEInternal>
2.1158

> <Gold.Chemscore.Rot>
1.5431

> <Gold.Chemscore.Internal.Correction>
   9.000000E+99

> <Gold.Chemscore.Hbonds>
donor molecule, donor type, donor heavy atom, donor atom, acceptor molecule, acceptor atom, score
      P1  H  6896  6907       L1    10  0.01
      P1  H  6931  6943       L1    13  0.29

> <Gold.Chemscore.Hbond.Weighted>
-3.1993

> <Gold.Chemscore.Metal.Weighted>
-0.0000

> <Gold.Chemscore.Lipo.Weighted>
-12.0507

> <Gold.Chemscore.Internal_Hbond.Weighted>
0.0000

> <Gold.Chemscore.DEClash.Weighted>
0.0434

> <Gold.Chemscore.DEInternal.Weighted>
2.1158

> <Gold.Chemscore.Rot.Weighted>
3.9503

> <Gold.Chemscore.Internal.Correction.Weighted>
   9.000000E+99

> <Gold.Protein.RotatedTorsions>
[ 6907 6896 6895 6894 ] final  -59.51 input  -60.11 | X-H torsion
[ 7974 7965 7964 7962 ] final   -6.50 input  175.53 | X-H torsion
[ 8008 7997 7996 7995 ] final  -51.19 input   59.86 | X-H torsion
[ 10167 10162 10161 10158 ] final  -68.45 input  -65.29 | X-H torsion
[ 10718 10713 10712 10709 ] final  -53.53 input   66.30 | X-H torsion
[ 10763 10752 10751 10750 ] final  -41.95 input  -60.55 | X-H torsion
[ 11005 11000 10999 10996 ] final  -89.56 input  -57.11 | X-H torsion

> <Gold.Protein.ActiveResidues>
 VAL166  LYS551  ARG553  GLY616  TRP617  ASP618  TYR619  PRO620  LYS621  CYS622 
 ASP623  PHE694  ASN695  SER759  ASP760  ASP761  ALA762  ILE779  LEU786  VAL792 
 PHE793  MET794  SER795  GLU796  ALA797  LYS798  CYS799  TRP800  GLU811  SER814 

> <Gold.Protein.RotatedAtoms>
  150.7925  134.6958  159.6522 H   0  0  0  0  0  0  0  0  0  0  0  0  # atno 6907 bound_to 6896
  152.4032  134.6248  160.0070 H   0  0  0  0  0  0  0  0  0  0  0  0  # atno 6908 bound_to 6896
  151.6513  133.3284  159.3188 H   0  0  0  0  0  0  0  0  0  0  0  0  # atno 6909 bound_to 6896
  146.2329  140.2179  142.8337 H   0  0  0  0  0  0  0  0  0  0  0  0  # atno 7974 bound_to 7965
  154.4077  140.1254  156.4788 H   0  0  0  0  0  0  0  0  0  0  0  0  # atno 8008 bound_to 7997
  155.7105  140.3494  155.4952 H   0  0  0  0  0  0  0  0  0  0  0  0  # atno 8009 bound_to 7997
  155.9304  140.1068  157.1127 H   0  0  0  0  0  0  0  0  0  0  0  0  # atno 8010 bound_to 7997
  140.5506  143.2312  151.6918 H   0  0  0  0  0  0  0  0  0  0  0  0  # atno 10167 bound_to 10162
  156.1527  130.4151  149.9919 H   0  0  0  0  0  0  0  0  0  0  0  0  # atno 10718 bound_to 10713
  153.9710  135.6728  153.4747 H   0  0  0  0  0  0  0  0  0  0  0  0  # atno 10763 bound_to 10752
  153.0793  135.4932  154.8466 H   0  0  0  0  0  0  0  0  0  0  0  0  # atno 10764 bound_to 10752
  154.7219  135.3119  154.8994 H   0  0  0  0  0  0  0  0  0  0  0  0  # atno 10765 bound_to 10752
  141.1582  133.7638  156.9612 H   0  0  0  0  0  0  0  0  0  0  0  0  # atno 11005 bound_to 11000
  144.9655  140.8317  143.5487 LP  0  0  0  0  0  0  0  0  0  0  0  0  # atno 17320 bound_to 7965
  145.2155  139.2184  143.5121 LP  0  0  0  0  0  0  0  0  0  0  0  0  # atno 17321 bound_to 7965
  139.5026  144.3823  152.0363 LP  0  0  0  0  0  0  0  0  0  0  0  0  # atno 17342 bound_to 10162
  140.2940  144.3721  150.6080 LP  0  0  0  0  0  0  0  0  0  0  0  0  # atno 17343 bound_to 10162
  156.7771  130.9208  151.3645 LP  0  0  0  0  0  0  0  0  0  0  0  0  # atno 17370 bound_to 10713
  157.6670  130.9016  149.9954 LP  0  0  0  0  0  0  0  0  0  0  0  0  # atno 17371 bound_to 10713
  140.1191  134.9428  157.2178 LP  0  0  0  0  0  0  0  0  0  0  0  0  # atno 17394 bound_to 11000
  140.3095  134.3040  155.7270 LP  0  0  0  0  0  0  0  0  0  0  0  0  # atno 17395 bound_to 11000

$$$$
