AV-unprocessed.smi:1738|AV-procd|sdf|7000|dock7
  -GOLD-   22720 8213D 1   1.00000     0.00000
 Structure written by MMmdl.
 46 48  0  0  0  0  0  0  0  0  2 V2000
  151.6324  138.3670  159.1807 C   0  0  0  0  0  0  0  0  0  0  0  0
  152.7079  137.3208  158.1171 S   0  0  0  0  0  0  0  0  0  0  0  0
  153.5973  138.2053  157.3482 O   0  0  0  0  0  0  0  0  0  0  0  0
  153.2871  136.2645  158.9618 O   0  0  0  0  0  0  0  0  0  0  0  0
  151.5627  136.5608  156.9718 C   0  0  0  0  0  0  0  0  0  0  0  0
  150.3842  135.9474  157.4414 C   0  0  0  0  0  0  0  0  0  0  0  0
  149.4957  135.4028  156.4947 C   0  0  0  0  0  0  0  0  0  0  0  0
  149.8132  135.5057  155.1169 C   0  0  0  0  0  0  0  0  0  0  0  0
  149.0115  135.0036  154.0542 N   0  0  0  0  0  0  0  0  0  0  0  0
  148.0258  134.0901  154.0842 C   0  0  0  0  0  0  0  0  0  0  0  0
  147.6479  133.4724  155.0783 O   0  0  0  0  0  0  0  0  0  0  0  0
  147.4880  133.9227  152.8671 N   0  0  0  0  0  0  0  0  0  0  0  0
  146.3801  133.0219  152.5524 C   0  0  1  0  0  0  0  0  0  0  0  0
  145.9331  133.1035  151.0806 C   0  0  0  0  0  0  0  0  0  0  0  0
  145.6275  131.6535  150.6914 C   0  0  0  0  0  0  0  0  0  0  0  0
  146.6125  130.8940  151.4701 N   0  3  2  0  0  0  0  0  0  0  0  0
  146.4799  129.4252  151.5439 C   0  0  0  0  0  0  0  0  0  0  0  0
  147.7346  128.8592  152.2438 C   0  0  0  0  0  0  0  0  0  0  0  0
  148.0125  129.5489  153.5993 C   0  0  0  0  0  0  0  0  0  0  0  0
  148.0030  131.0884  153.4760 C   0  0  0  0  0  0  0  0  0  0  0  0
  146.6928  131.5266  152.7977 C   0  0  1  0  0  0  0  0  0  0  0  0
  151.0210  136.1478  154.7678 C   0  0  0  0  0  0  0  0  0  0  0  0
  151.8798  136.6745  155.6651 N   0  0  0  0  0  0  0  0  0  0  0  0
  152.2432  138.8735  159.9276 H   0  0  0  0  0  0  0  0  0  0  0  0
  150.8935  137.7402  159.6794 H   0  0  0  0  0  0  0  0  0  0  0  0
  151.1233  139.1087  158.5655 H   0  0  0  0  0  0  0  0  0  0  0  0
  150.1627  135.8900  158.4967 H   0  0  0  0  0  0  0  0  0  0  0  0
  148.5998  134.9217  156.8521 H   0  0  0  0  0  0  0  0  0  0  0  0
  149.1865  135.4285  153.1553 H   0  0  0  0  0  0  0  0  0  0  0  0
  147.8619  134.4697  152.1055 H   0  0  0  0  0  0  0  0  0  0  0  0
  145.5210  133.2931  153.1695 H   0  0  0  0  0  0  0  0  0  0  0  0
  145.0772  133.7638  150.9364 H   0  0  0  0  0  0  0  0  0  0  0  0
  146.7465  133.4783  150.4574 H   0  0  0  0  0  0  0  0  0  0  0  0
  144.6186  131.3757  151.0006 H   0  0  0  0  0  0  0  0  0  0  0  0
  145.7252  131.4746  149.6204 H   0  0  0  0  0  0  0  0  0  0  0  0
  145.5734  129.1557  152.0877 H   0  0  0  0  0  0  0  0  0  0  0  0
  146.3909  129.0113  150.5391 H   0  0  0  0  0  0  0  0  0  0  0  0
  147.6307  127.7831  152.3862 H   0  0  0  0  0  0  0  0  0  0  0  0
  148.5985  128.9986  151.5927 H   0  0  0  0  0  0  0  0  0  0  0  0
  147.2521  129.2421  154.3186 H   0  0  0  0  0  0  0  0  0  0  0  0
  148.9681  129.2118  154.0016 H   0  0  0  0  0  0  0  0  0  0  0  0
  148.0926  131.5371  154.4655 H   0  0  0  0  0  0  0  0  0  0  0  0
  148.8630  131.4224  152.8943 H   0  0  0  0  0  0  0  0  0  0  0  0
  145.8648  131.1391  153.3957 H   0  0  0  0  0  0  0  0  0  0  0  0
  151.3066  136.2487  153.7308 H   0  0  0  0  0  0  0  0  0  0  0  0
  147.5002  131.0763  151.0241 H   0  0  0  0  0  0  0  0  0  0  0  0
  1  2  1  0  0  0  0
  1 24  1  0  0  0  0
  1 25  1  0  0  0  0
  1 26  1  0  0  0  0
  2  3  2  0  0  0  0
  2  4  2  0  0  0  0
  2  5  1  0  0  0  0
  5 23  1  0  0  0  0
  5  6  2  0  0  0  0
  6  7  1  0  0  0  0
  6 27  1  0  0  0  0
  7  8  2  0  0  0  0
  7 28  1  0  0  0  0
  8  9  1  0  0  0  0
  8 22  1  0  0  0  0
  9 10  1  0  0  0  0
  9 29  1  0  0  0  0
 10 11  2  0  0  0  0
 10 12  1  0  0  0  0
 12 13  1  0  0  0  0
 12 30  1  0  0  0  0
 13 21  1  0  0  0  0
 13 14  1  0  0  0  0
 13 31  1  0  0  0  0
 14 15  1  0  0  0  0
 14 32  1  0  0  0  0
 14 33  1  0  0  0  0
 15 16  1  0  0  0  0
 15 34  1  0  0  0  0
 15 35  1  0  0  0  0
 16 21  1  0  0  0  0
 16 17  1  0  0  0  0
 16 46  1  0  0  0  0
 17 18  1  0  0  0  0
 17 36  1  0  0  0  0
 17 37  1  0  0  0  0
 18 19  1  0  0  0  0
 18 38  1  0  0  0  0
 18 39  1  0  0  0  0
 19 20  1  0  0  0  0
 19 40  1  0  0  0  0
 19 41  1  0  0  0  0
 20 21  1  0  0  0  0
 20 42  1  0  0  0  0
 20 43  1  0  0  0  0
 21 44  1  0  0  0  0
 22 23  2  0  0  0  0
 22 45  1  0  0  0  0
M  CHG  1  16   1
M  END
> <s_m_source_file>
AV-unprocessed.smi

> <i_m_source_file_index>
1738

> <i_lp_mmshare_version>
43012

> <i_f3d_flags>
0

> <s_epik_input>
W0NIM11TKD1PKSg9TyljMVtjSF1bY0hdYyhbY0hdbjEpW05IXUMoPU8pW05IXVtDQEhdKFtDSDJdW0NIMl0yKVtDQEBIXShOMjMpW0NIMl1bQ0gyXVtDSDJdW0NIMl0z

> <s_epik_cmdline>
J2VwaWtfcHl0aG9uJywgJy1waCcsICc3LjAnLCAnLXRuJywgJzgnLCAnLW1hJywgJzIwMCcsICctbWV0YWxfYmluZGluZycsICctaW1hZScsICc8aW5maWxlLm1hZT4nLCAnLW9tYWUnLCAnPG91dGZpbGUubWFlPic=

> <r_epik_Ionization_Penalty>
0.00100042

> <r_epik_Ionization_Penalty_Charging>
0.000974069

> <r_epik_Ionization_Penalty_Neutral>
2.63543e-05

> <r_epik_State_Penalty>
0.000633842

> <r_epik_Charging_Adjusted_Penalty>
0.00160791

> <i_epik_Tot_Q>
1

> <i_epik_Tot_abs_Q>
1

> <r_epik_Metal_State_Penalty>
-0

> <b_epik_Metal_Only>
0

> <s_lp_Force_Field>
OPLS_2005

> <r_lp_Energy>
43.1339

> <b_lp_Chiralities_Consistent>
1

> <s_lp_Variant>
AV-unprocessed.smi:1738-4

> <Gold.Version>
5.8.1

> <Gold.Id.Protein>
6NUR|6NUR_protein|mol2

> <Gold.PLP.Fitness>
45.8219

> <Gold.PLP.PLP>
-29.2671

> <Gold.PLP.part.hbond>
-5.9302

> <Gold.PLP.part.metal>
0.0000

> <Gold.PLP.part.buried>
-0.9556

> <Gold.PLP.part.nonpolar>
-21.6909

> <Gold.PLP.part.repulsive>
0.0935

> <Gold.PLP.ligand.clash>
0.0000

> <Gold.PLP.ligand.torsion>
1.1854

> <Gold.PLP.Chemscore.Hbond>
4.6349

> <Gold.PLP.Chemscore.CHOScore>
1.0000

> <Gold.PLP.Chemscore.Metal>
0.0000

> <Gold.Chemscore.Hbonds>
donor molecule, donor type, donor heavy atom, donor atom, acceptor molecule, acceptor atom, score
      L1  H     9    29       P1  7948  0.93
      L1  H    12    30       P1  7948  0.78
      L1  H    16    46       P1 10747  1.00
      P1  H  6896  6908       L1     4  0.86
      P1  H  7997  8008       L1     3  0.81
      L1  C    22    45       P1  7949  1.00

> <Gold.PLP.Chemscore.Internal.Correction>
2.0207

> <Gold.Rescore>
     Score         DG    S(hbond)    S(metal)    S(lipo)     H(rot)  DE(clash)    DE(int)     intcor
     21.01     -23.41       3.60        0.00      72.44       1.00       0.17       2.23       ----

> <Gold.Chemscore.Fitness>
21.0072

> <Gold.Chemscore.DG>
-23.4079

> <Gold.Chemscore.ZeroCoef>
-5.4800

> <Gold.Chemscore.Hbond>
3.5966

> <Gold.Chemscore.Metal>
0.0000

> <Gold.Chemscore.Lipo>
72.4371

> <Gold.Chemscore.Internal_Hbond>
0.0000

> <Gold.Chemscore.DEClash>
0.1739

> <Gold.Chemscore.DEInternal>
2.2269

> <Gold.Chemscore.Rot>
1.0000

> <Gold.Chemscore.Internal.Correction>
   9.000000E+99

> <Gold.Chemscore.Hbonds>
donor molecule, donor type, donor heavy atom, donor atom, acceptor molecule, acceptor atom, score
      L1  H     9    29       P1  7948  0.23
      L1  H    12    30       P1  7948  0.22
      L1  H    16    46       P1 10747  1.00
      P1  H  6896  6908       L1     4  0.80
      P1  H  7997  8008       L1     3  0.75

> <Gold.Chemscore.Hbond.Weighted>
-12.0128

> <Gold.Chemscore.Metal.Weighted>
-0.0000

> <Gold.Chemscore.Lipo.Weighted>
-8.4751

> <Gold.Chemscore.Internal_Hbond.Weighted>
0.0000

> <Gold.Chemscore.DEClash.Weighted>
0.1739

> <Gold.Chemscore.DEInternal.Weighted>
2.2269

> <Gold.Chemscore.Rot.Weighted>
2.5600

> <Gold.Chemscore.Internal.Correction.Weighted>
   9.000000E+99

> <Gold.Protein.RotatedTorsions>
[ 6907 6896 6895 6894 ] final  -78.16 input  -60.11 | X-H torsion
[ 7974 7965 7964 7962 ] final   51.41 input  175.53 | X-H torsion
[ 8008 7997 7996 7995 ] final  -75.48 input   59.86 | X-H torsion
[ 10167 10162 10161 10158 ] final  126.47 input  -65.29 | X-H torsion
[ 10718 10713 10712 10709 ] final  -33.27 input   66.30 | X-H torsion
[ 10763 10752 10751 10750 ] final  174.45 input  -60.55 | X-H torsion
[ 11005 11000 10999 10996 ] final  176.06 input  -57.11 | X-H torsion

> <Gold.Protein.ActiveResidues>
 VAL166  LYS551  ARG553  GLY616  TRP617  ASP618  TYR619  PRO620  LYS621  CYS622 
 ASP623  PHE694  ASN695  SER759  ASP760  ASP761  ALA762  ILE779  LEU786  VAL792 
 PHE793  MET794  SER795  GLU796  ALA797  LYS798  CYS799  TRP800  GLU811  SER814 

> <Gold.Protein.RotatedAtoms>
  150.6980  134.4314  159.5249 H   0  0  0  0  0  0  0  0  0  0  0  0  # atno 6907 bound_to 6896
  152.2040  134.8560  160.0514 H   0  0  0  0  0  0  0  0  0  0  0  0  # atno 6908 bound_to 6896
  151.9469  133.3619  159.4022 H   0  0  0  0  0  0  0  0  0  0  0  0  # atno 6909 bound_to 6896
  145.9916  139.4344  143.0070 H   0  0  0  0  0  0  0  0  0  0  0  0  # atno 7974 bound_to 7965
  154.5421  140.0743  156.8527 H   0  0  0  0  0  0  0  0  0  0  0  0  # atno 8008 bound_to 7997
  155.3161  140.3393  155.4224 H   0  0  0  0  0  0  0  0  0  0  0  0  # atno 8009 bound_to 7997
  156.1884  140.1677  156.8127 H   0  0  0  0  0  0  0  0  0  0  0  0  # atno 8010 bound_to 7997
  139.5629  144.6893  151.3991 H   0  0  0  0  0  0  0  0  0  0  0  0  # atno 10167 bound_to 10162
  156.3647  130.4329  149.7595 H   0  0  0  0  0  0  0  0  0  0  0  0  # atno 10718 bound_to 10713
  154.4540  135.2765  155.1760 H   0  0  0  0  0  0  0  0  0  0  0  0  # atno 10763 bound_to 10752
  154.3576  135.6136  153.5678 H   0  0  0  0  0  0  0  0  0  0  0  0  # atno 10764 bound_to 10752
  152.9849  135.5826  154.4890 H   0  0  0  0  0  0  0  0  0  0  0  0  # atno 10765 bound_to 10752
  140.3690  134.7047  157.4380 H   0  0  0  0  0  0  0  0  0  0  0  0  # atno 11005 bound_to 11000
  145.7622  140.9931  143.1194 LP  0  0  0  0  0  0  0  0  0  0  0  0  # atno 17320 bound_to 7965
  144.6890  139.9344  143.7473 LP  0  0  0  0  0  0  0  0  0  0  0  0  # atno 17321 bound_to 7965
  140.6910  143.7860  150.7256 LP  0  0  0  0  0  0  0  0  0  0  0  0  # atno 17342 bound_to 10162
  140.1343  143.4498  152.2235 LP  0  0  0  0  0  0  0  0  0  0  0  0  # atno 17343 bound_to 10162
  156.4745  130.8012  151.3029 LP  0  0  0  0  0  0  0  0  0  0  0  0  # atno 17370 bound_to 10713
  157.7477  131.0025  150.3003 LP  0  0  0  0  0  0  0  0  0  0  0  0  # atno 17371 bound_to 10713
  140.0567  134.6054  155.8797 LP  0  0  0  0  0  0  0  0  0  0  0  0  # atno 17394 bound_to 11000
  141.1960  133.6590  156.5673 LP  0  0  0  0  0  0  0  0  0  0  0  0  # atno 17395 bound_to 11000

$$$$
