AV-unprocessed.smi:1406|AV-procd|sdf|5718|dock3
  -GOLD-   22720 5353D 1   1.00000     0.00000
 Structure written by MMmdl.
 41 43  0  0  0  0  0  0  0  0  2 V2000
  151.0021  137.8071  155.6473 C   0  0  0  0  0  0  0  0  0  0  0  0
  150.6843  139.1152  156.3999 C   0  0  1  0  0  0  0  0  0  0  0  0
  151.8955  139.6734  157.1637 C   0  0  0  0  0  0  0  0  0  0  0  0
  152.9844  139.0995  157.1278 O   0  0  0  0  0  0  0  0  0  0  0  0
  151.6905  140.8065  157.8534 N   0  0  0  0  0  0  0  0  0  0  0  0
  152.7142  141.5240  158.6083 C   0  0  2  0  0  0  0  0  0  0  0  0
  153.0041  140.9289  160.0025 C   0  0  0  0  0  0  0  0  0  0  0  0
  153.1353  142.1448  160.9253 C   0  0  0  0  0  0  0  0  0  0  0  0
  152.2004  143.1084  160.3330 N   0  3  1  0  0  0  0  0  0  0  0  0
  152.2308  144.5067  160.8079 C   0  0  0  0  0  0  0  0  0  0  0  0
  151.0486  145.2655  160.1666 C   0  0  0  0  0  0  0  0  0  0  0  0
  151.0187  145.1134  158.6281 C   0  0  0  0  0  0  0  0  0  0  0  0
  151.1172  143.6341  158.1955 C   0  0  0  0  0  0  0  0  0  0  0  0
  152.3459  143.0003  158.8714 C   0  0  2  0  0  0  0  0  0  0  0  0
  150.1326  140.1375  155.5189 N   0  0  0  0  0  0  0  0  0  0  0  0
  149.8981  140.1026  154.2053 C   0  0  0  0  0  0  0  0  0  0  0  0
  149.3338  141.2034  153.7290 N   0  0  0  0  0  0  0  0  0  0  0  0
  149.2330  141.9259  154.8840 C   0  0  0  0  0  0  0  0  0  0  0  0
  149.6856  141.3298  155.9867 N   0  0  0  0  0  0  0  0  0  0  0  0
  151.3682  137.0395  156.3300 H   0  0  0  0  0  0  0  0  0  0  0  0
  151.7592  137.9508  154.8753 H   0  0  0  0  0  0  0  0  0  0  0  0
  150.1089  137.4119  155.1628 H   0  0  0  0  0  0  0  0  0  0  0  0
  149.9162  138.8817  157.1391 H   0  0  0  0  0  0  0  0  0  0  0  0
  150.7669  141.2139  157.8306 H   0  0  0  0  0  0  0  0  0  0  0  0
  153.6329  141.5105  158.0181 H   0  0  0  0  0  0  0  0  0  0  0  0
  152.1647  140.3155  160.3345 H   0  0  0  0  0  0  0  0  0  0  0  0
  153.8947  140.2997  160.0129 H   0  0  0  0  0  0  0  0  0  0  0  0
  152.8856  141.9169  161.9618 H   0  0  0  0  0  0  0  0  0  0  0  0
  154.1498  142.5453  160.8913 H   0  0  0  0  0  0  0  0  0  0  0  0
  152.1475  144.5290  161.8950 H   0  0  0  0  0  0  0  0  0  0  0  0
  153.1817  144.9733  160.5459 H   0  0  0  0  0  0  0  0  0  0  0  0
  150.1143  144.8823  160.5789 H   0  0  0  0  0  0  0  0  0  0  0  0
  151.0911  146.3209  160.4376 H   0  0  0  0  0  0  0  0  0  0  0  0
  150.1103  145.5619  158.2247 H   0  0  0  0  0  0  0  0  0  0  0  0
  151.8520  145.6703  158.1975 H   0  0  0  0  0  0  0  0  0  0  0  0
  150.2078  143.1026  158.4791 H   0  0  0  0  0  0  0  0  0  0  0  0
  151.2006  143.5675  157.1100 H   0  0  0  0  0  0  0  0  0  0  0  0
  153.2219  143.5879  158.5874 H   0  0  0  0  0  0  0  0  0  0  0  0
  150.1387  139.2521  153.5847 H   0  0  0  0  0  0  0  0  0  0  0  0
  148.8058  142.9176  154.9147 H   0  0  0  0  0  0  0  0  0  0  0  0
  151.2797  142.7534  160.5485 H   0  0  0  0  0  0  0  0  0  0  0  0
  1  2  1  0  0  0  0
  1 20  1  0  0  0  0
  1 21  1  0  0  0  0
  1 22  1  0  0  0  0
  2  3  1  0  0  0  0
  2 15  1  0  0  0  0
  2 23  1  0  0  0  0
  3  4  2  0  0  0  0
  3  5  1  0  0  0  0
  5  6  1  0  0  0  0
  5 24  1  0  0  0  0
  6 14  1  0  0  0  0
  6  7  1  0  0  0  0
  6 25  1  0  0  0  0
  7  8  1  0  0  0  0
  7 26  1  0  0  0  0
  7 27  1  0  0  0  0
  8  9  1  0  0  0  0
  8 28  1  0  0  0  0
  8 29  1  0  0  0  0
  9 14  1  0  0  0  0
  9 10  1  0  0  0  0
  9 41  1  0  0  0  0
 10 11  1  0  0  0  0
 10 30  1  0  0  0  0
 10 31  1  0  0  0  0
 11 12  1  0  0  0  0
 11 32  1  0  0  0  0
 11 33  1  0  0  0  0
 12 13  1  0  0  0  0
 12 34  1  0  0  0  0
 12 35  1  0  0  0  0
 13 14  1  0  0  0  0
 13 36  1  0  0  0  0
 13 37  1  0  0  0  0
 14 38  1  0  0  0  0
 15 19  1  0  0  0  0
 15 16  1  0  0  0  0
 16 17  2  0  0  0  0
 16 39  1  0  0  0  0
 17 18  1  0  0  0  0
 18 19  2  0  0  0  0
 18 40  1  0  0  0  0
M  CHG  1   9   1
M  END
> <s_m_source_file>
AV-unprocessed.smi

> <i_m_source_file_index>
1406

> <i_lp_mmshare_version>
43012

> <i_f3d_flags>
0

> <s_epik_input>
bjFbY0hdbltjSF1uMVtDQEhdKFtDSDNdKUMoPU8pW05IXVtDQEhdKFtDSDJdW0NIMl0yKVtDQEBIXShOMjMpW0NIMl1bQ0gyXVtDSDJdW0NIMl0z

> <s_epik_cmdline>
J2VwaWtfcHl0aG9uJywgJy1waCcsICc3LjAnLCAnLXRuJywgJzgnLCAnLW1hJywgJzIwMCcsICctbWV0YWxfYmluZGluZycsICctaW1hZScsICc8aW5maWxlLm1hZT4nLCAnLW9tYWUnLCAnPG91dGZpbGUubWFlPic=

> <r_lp_tautomer_probability>
1

> <r_epik_Ionization_Penalty>
0.00197066

> <r_epik_Ionization_Penalty_Charging>
0.00196223

> <r_epik_Ionization_Penalty_Neutral>
8.43107e-06

> <r_epik_State_Penalty>
0.00133866

> <r_epik_Charging_Adjusted_Penalty>
0.00330089

> <i_epik_Tot_Q>
1

> <i_epik_Tot_abs_Q>
1

> <r_epik_Metal_State_Penalty>
-0

> <b_epik_Metal_Only>
0

> <s_lp_Force_Field>
OPLS_2005

> <r_lp_Energy>
46.7011

> <b_lp_Chiralities_Consistent>
1

> <s_lp_Variant>
AV-unprocessed.smi:1406-10

> <Gold.Version>
5.8.1

> <Gold.Id.Protein>
6NUR|6NUR_protein|mol2

> <Gold.PLP.Fitness>
44.0186

> <Gold.PLP.PLP>
-35.1989

> <Gold.PLP.part.hbond>
-3.0000

> <Gold.PLP.part.metal>
0.0000

> <Gold.PLP.part.buried>
-2.8552

> <Gold.PLP.part.nonpolar>
-31.0979

> <Gold.PLP.part.repulsive>
2.2235

> <Gold.PLP.ligand.clash>
0.0000

> <Gold.PLP.ligand.torsion>
0.3472

> <Gold.PLP.Chemscore.Hbond>
1.9357

> <Gold.PLP.Chemscore.CHOScore>
1.2024

> <Gold.PLP.Chemscore.Metal>
0.0000

> <Gold.Chemscore.Hbonds>
donor molecule, donor type, donor heavy atom, donor atom, acceptor molecule, acceptor atom, score
      P1  H  7997  8009       L1     4  1.00
      P1  H  8011  8017       L1    17  0.91
      L1  C    16    39       P1  7957  0.42
      L1  C    18    40       P1  8028  0.76

> <Gold.PLP.Chemscore.Internal.Correction>
0.0996

> <Gold.Rescore>
     Score         DG    S(hbond)    S(metal)    S(lipo)     H(rot)  DE(clash)    DE(int)     intcor
     14.52     -16.67       1.62        0.00      90.77       1.89       0.33       1.82       ----

> <Gold.Chemscore.Fitness>
14.5247

> <Gold.Chemscore.DG>
-16.6721

> <Gold.Chemscore.ZeroCoef>
-5.4800

> <Gold.Chemscore.Hbond>
1.6171

> <Gold.Chemscore.Metal>
0.0000

> <Gold.Chemscore.Lipo>
90.7750

> <Gold.Chemscore.Internal_Hbond>
0.0000

> <Gold.Chemscore.DEClash>
0.3288

> <Gold.Chemscore.DEInternal>
1.8186

> <Gold.Chemscore.Rot>
1.8865

> <Gold.Chemscore.Internal.Correction>
   9.000000E+99

> <Gold.Chemscore.Hbonds>
donor molecule, donor type, donor heavy atom, donor atom, acceptor molecule, acceptor atom, score
      P1  H  7997  8009       L1     4  0.94
      P1  H  8011  8017       L1    17  0.54

> <Gold.Chemscore.Hbond.Weighted>
-5.4010

> <Gold.Chemscore.Metal.Weighted>
-0.0000

> <Gold.Chemscore.Lipo.Weighted>
-10.6207

> <Gold.Chemscore.Internal_Hbond.Weighted>
0.0000

> <Gold.Chemscore.DEClash.Weighted>
0.3288

> <Gold.Chemscore.DEInternal.Weighted>
1.8186

> <Gold.Chemscore.Rot.Weighted>
4.8295

> <Gold.Chemscore.Internal.Correction.Weighted>
   9.000000E+99

> <Gold.Protein.RotatedTorsions>
[ 6907 6896 6895 6894 ] final    2.34 input  -60.11 | X-H torsion
[ 7974 7965 7964 7962 ] final  -39.33 input  175.53 | X-H torsion
[ 8008 7997 7996 7995 ] final  178.56 input   59.86 | X-H torsion
[ 10167 10162 10161 10158 ] final  -72.19 input  -65.29 | X-H torsion
[ 10718 10713 10712 10709 ] final  -38.19 input   66.30 | X-H torsion
[ 10763 10752 10751 10750 ] final  -29.17 input  -60.55 | X-H torsion
[ 11005 11000 10999 10996 ] final -152.24 input  -57.11 | X-H torsion

> <Gold.Protein.ActiveResidues>
 VAL166  LYS551  ARG553  GLY616  TRP617  ASP618  TYR619  PRO620  LYS621  CYS622 
 ASP623  PHE694  ASN695  SER759  ASP760  ASP761  ALA762  ILE779  LEU786  VAL792 
 PHE793  MET794  SER795  GLU796  ALA797  LYS798  CYS799  TRP800  GLU811  SER814 

> <Gold.Protein.RotatedAtoms>
  151.6072  135.1043  160.0073 H   0  0  0  0  0  0  0  0  0  0  0  0  # atno 6907 bound_to 6896
  152.4227  133.7139  159.6505 H   0  0  0  0  0  0  0  0  0  0  0  0  # atno 6908 bound_to 6896
  150.8115  133.8341  159.3202 H   0  0  0  0  0  0  0  0  0  0  0  0  # atno 6909 bound_to 6896
  146.0406  140.6614  142.9089 H   0  0  0  0  0  0  0  0  0  0  0  0  # atno 7974 bound_to 7965
  156.0532  140.1330  157.0026 H   0  0  0  0  0  0  0  0  0  0  0  0  # atno 8008 bound_to 7997
  154.4445  140.1006  156.6478 H   0  0  0  0  0  0  0  0  0  0  0  0  # atno 8009 bound_to 7997
  155.5491  140.3462  155.4466 H   0  0  0  0  0  0  0  0  0  0  0  0  # atno 8010 bound_to 7997
  140.5212  143.2331  151.7426 H   0  0  0  0  0  0  0  0  0  0  0  0  # atno 10167 bound_to 10162
  156.3066  130.4247  149.8091 H   0  0  0  0  0  0  0  0  0  0  0  0  # atno 10718 bound_to 10713
  153.7603  135.6920  153.4927 H   0  0  0  0  0  0  0  0  0  0  0  0  # atno 10763 bound_to 10752
  153.1943  135.4459  155.0187 H   0  0  0  0  0  0  0  0  0  0  0  0  # atno 10764 bound_to 10752
  154.8155  135.3397  154.7119 H   0  0  0  0  0  0  0  0  0  0  0  0  # atno 10765 bound_to 10752
  140.7210  134.3727  157.5183 H   0  0  0  0  0  0  0  0  0  0  0  0  # atno 11005 bound_to 11000
  144.7072  140.3900  143.7108 LP  0  0  0  0  0  0  0  0  0  0  0  0  # atno 17320 bound_to 7965
  145.6891  139.1635  143.2657 LP  0  0  0  0  0  0  0  0  0  0  0  0  # atno 17321 bound_to 7965
  139.4924  144.4251  151.9934 LP  0  0  0  0  0  0  0  0  0  0  0  0  # atno 17342 bound_to 10162
  140.3348  144.3273  150.5979 LP  0  0  0  0  0  0  0  0  0  0  0  0  # atno 17343 bound_to 10162
  156.5449  130.8316  151.3281 LP  0  0  0  0  0  0  0  0  0  0  0  0  # atno 17370 bound_to 10713
  157.7381  130.9807  150.2232 LP  0  0  0  0  0  0  0  0  0  0  0  0  # atno 17371 bound_to 10713
  139.8848  134.8955  156.2681 LP  0  0  0  0  0  0  0  0  0  0  0  0  # atno 17394 bound_to 11000
  141.0003  133.7155  156.0950 LP  0  0  0  0  0  0  0  0  0  0  0  0  # atno 17395 bound_to 11000

$$$$
