AV-unprocessed.smi:528|AV-procd|sdf|2838|dock8
  -GOLD-   2262023333D 1   1.00000     0.00000
 Structure written by MMmdl.
 45 47  0  0  0  0  0  0  0  0  1 V2000
  146.1668  132.3212  157.0982 C   0  0  0  0  0  0  0  0  0  0  0  0
  147.3051  133.2154  157.6190 C   0  0  1  0  0  0  0  0  0  0  0  0
  147.1768  133.3776  159.0653 N   0  0  0  0  0  0  0  0  0  0  0  0
  147.8667  134.2483  159.8176 C   0  0  0  0  0  0  0  0  0  0  0  0
  148.6839  135.0443  159.3527 O   0  0  0  0  0  0  0  0  0  0  0  0
  147.5652  134.2132  161.3228 C   0  0  0  0  0  0  0  0  0  0  0  0
  146.7132  135.3244  161.7786 N   0  0  0  0  0  0  0  0  0  0  0  0
  145.3725  135.0199  162.0858 C   0  0  0  0  0  0  0  0  0  0  0  0
  144.4936  135.9406  162.5260 C   0  0  0  0  0  0  0  0  0  0  0  0
  143.0382  135.5907  162.7942 C   0  0  0  0  0  0  0  0  0  0  0  0
  142.3369  136.6731  163.1319 F   0  0  0  0  0  0  0  0  0  0  0  0
  142.4698  135.0413  161.7203 F   0  0  0  0  0  0  0  0  0  0  0  0
  142.9608  134.7166  163.7966 F   0  0  0  0  0  0  0  0  0  0  0  0
  144.9869  137.2990  162.6431 C   0  0  0  0  0  0  0  0  0  0  0  0
  146.2631  137.6096  162.3420 C   0  0  0  0  0  0  0  0  0  0  0  0
  147.2120  136.5929  161.8823 C   0  0  0  0  0  0  0  0  0  0  0  0
  148.3814  136.8638  161.6069 O   0  0  0  0  0  0  0  0  0  0  0  0
  148.6992  132.6366  157.2809 C   0  0  1  0  0  0  0  0  0  0  0  0
  148.6782  131.3154  156.4793 C   0  0  0  0  0  0  0  0  0  0  0  0
  149.6553  131.5959  155.3222 C   0  0  1  0  0  0  0  0  0  0  0  0
  148.9819  132.5462  154.3155 C   0  0  0  0  0  0  0  0  0  0  0  0
  148.9852  133.8902  155.0661 C   0  0  0  0  0  0  0  0  0  0  0  0
  149.6317  133.5255  156.4186 C   0  0  2  0  0  0  0  0  0  0  0  0
  150.6825  132.5109  155.9789 C   0  0  0  0  0  0  0  0  0  0  0  0
  146.2194  132.2011  156.0162 H   0  0  0  0  0  0  0  0  0  0  0  0
  145.1914  132.7508  157.3283 H   0  0  0  0  0  0  0  0  0  0  0  0
  146.2056  131.3271  157.5449 H   0  0  0  0  0  0  0  0  0  0  0  0
  147.2072  134.1902  157.1392 H   0  0  0  0  0  0  0  0  0  0  0  0
  146.5232  132.7660  159.5326 H   0  0  0  0  0  0  0  0  0  0  0  0
  147.0988  133.2542  161.5531 H   0  0  0  0  0  0  0  0  0  0  0  0
  148.5054  134.2125  161.8776 H   0  0  0  0  0  0  0  0  0  0  0  0
  145.0999  133.9859  161.9316 H   0  0  0  0  0  0  0  0  0  0  0  0
  144.3233  138.0812  162.9813 H   0  0  0  0  0  0  0  0  0  0  0  0
  146.5966  138.6321  162.4427 H   0  0  0  0  0  0  0  0  0  0  0  0
  149.2166  132.4499  158.2239 H   0  0  0  0  0  0  0  0  0  0  0  0
  149.0291  130.4884  157.0976 H   0  0  0  0  0  0  0  0  0  0  0  0
  147.6853  131.0536  156.1114 H   0  0  0  0  0  0  0  0  0  0  0  0
  150.0635  130.6938  154.8659 H   0  0  0  0  0  0  0  0  0  0  0  0
  149.5660  132.6191  153.3972 H   0  0  0  0  0  0  0  0  0  0  0  0
  147.9760  132.2212  154.0475 H   0  0  0  0  0  0  0  0  0  0  0  0
  149.6015  134.6165  154.5346 H   0  0  0  0  0  0  0  0  0  0  0  0
  147.9905  134.3237  155.1634 H   0  0  0  0  0  0  0  0  0  0  0  0
  150.0338  134.3862  156.9540 H   0  0  0  0  0  0  0  0  0  0  0  0
  151.2110  132.0421  156.8110 H   0  0  0  0  0  0  0  0  0  0  0  0
  151.4117  132.9180  155.2761 H   0  0  0  0  0  0  0  0  0  0  0  0
  1  2  1  0  0  0  0
  1 25  1  0  0  0  0
  1 26  1  0  0  0  0
  1 27  1  0  0  0  0
  2  3  1  0  0  0  0
  2 18  1  0  0  0  0
  2 28  1  0  0  0  0
  3  4  1  0  0  0  0
  3 29  1  0  0  0  0
  4  5  2  0  0  0  0
  4  6  1  0  0  0  0
  6  7  1  0  0  0  0
  6 30  1  0  0  0  0
  6 31  1  0  0  0  0
  7 16  1  0  0  0  0
  7  8  1  0  0  0  0
  8  9  2  0  0  0  0
  8 32  1  0  0  0  0
  9 10  1  0  0  0  0
  9 14  1  0  0  0  0
 10 11  1  0  0  0  0
 10 12  1  0  0  0  0
 10 13  1  0  0  0  0
 14 15  2  0  0  0  0
 14 33  1  0  0  0  0
 15 16  1  0  0  0  0
 15 34  1  0  0  0  0
 16 17  2  0  0  0  0
 18 23  1  0  0  0  0
 18 19  1  0  0  0  0
 18 35  1  0  0  0  0
 19 20  1  0  0  0  0
 19 36  1  0  0  0  0
 19 37  1  0  0  0  0
 20 24  1  0  0  0  0
 20 21  1  0  0  0  0
 20 38  1  0  0  0  0
 21 22  1  0  0  0  0
 21 39  1  0  0  0  0
 21 40  1  0  0  0  0
 22 23  1  0  0  0  0
 22 41  1  0  0  0  0
 22 42  1  0  0  0  0
 23 24  1  0  0  0  0
 23 43  1  0  0  0  0
 24 44  1  0  0  0  0
 24 45  1  0  0  0  0
M  END
> <s_m_source_file>
AV-unprocessed.smi

> <i_m_source_file_index>
528

> <i_lp_mmshare_version>
43012

> <i_f3d_flags>
0

> <s_epik_input>
W0NIMl0xW0NIMl1bQ0BASF0oW0NIMl0yKVtDQEBIXShbQ0gyXVtDQEhdMTIpW0NASF0oW0NIM10pW05IXUMoPU8pW0NIMl1uM1tjSF1jKEMoRikoRilGKVtjSF1bY0hdYzM9Tw==

> <s_epik_cmdline>
J2VwaWtfcHl0aG9uJywgJy1waCcsICc3LjAnLCAnLXRuJywgJzgnLCAnLW1hJywgJzIwMCcsICctbWV0YWxfYmluZGluZycsICctaW1hZScsICc8aW5maWxlLm1hZT4nLCAnLW9tYWUnLCAnPG91dGZpbGUubWFlPic=

> <r_lp_tautomer_probability>
1

> <r_epik_Ionization_Penalty>
4.09479e-08

> <r_epik_Ionization_Penalty_Charging>
1.9321e-08

> <r_epik_Ionization_Penalty_Neutral>
2.16269e-08

> <r_epik_State_Penalty>
-0

> <r_epik_Charging_Adjusted_Penalty>
1.9321e-08

> <i_epik_Tot_Q>
0

> <i_epik_Tot_abs_Q>
0

> <r_epik_Metal_State_Penalty>
-0

> <b_epik_Metal_Only>
0

> <s_lp_Force_Field>
OPLS_2005

> <r_lp_Energy>
62.533

> <b_lp_Chiralities_Consistent>
1

> <s_lp_Variant>
AV-unprocessed.smi:528-8

> <Gold.Version>
5.8.1

> <Gold.Id.Protein>
6NUR|6NUR_protein|mol2

> <Gold.PLP.Fitness>
39.9608

> <Gold.PLP.PLP>
-37.8654

> <Gold.PLP.part.hbond>
-2.1315

> <Gold.PLP.part.metal>
0.0000

> <Gold.PLP.part.buried>
-5.0005

> <Gold.PLP.part.nonpolar>
-30.6682

> <Gold.PLP.part.repulsive>
0.0390

> <Gold.PLP.ligand.clash>
0.0000

> <Gold.PLP.ligand.torsion>
1.9829

> <Gold.PLP.Chemscore.Hbond>
2.0000

> <Gold.PLP.Chemscore.CHOScore>
0.0000

> <Gold.PLP.Chemscore.Metal>
0.0000

> <Gold.Chemscore.Hbonds>
donor molecule, donor type, donor heavy atom, donor atom, acceptor molecule, acceptor atom, score
      P1  H  6896  6908       L1     5  0.94
      P1  H  6931  6943       L1    17  1.00

> <Gold.PLP.Chemscore.Internal.Correction>
0.0611

> <Gold.Rescore>
     Score         DG    S(hbond)    S(metal)    S(lipo)     H(rot)  DE(clash)    DE(int)     intcor
     12.55     -15.77       1.94        0.00      70.16       1.71       0.05       3.18       ----

> <Gold.Chemscore.Fitness>
12.5452

> <Gold.Chemscore.DG>
-15.7683

> <Gold.Chemscore.ZeroCoef>
-5.4800

> <Gold.Chemscore.Hbond>
1.9350

> <Gold.Chemscore.Metal>
0.0000

> <Gold.Chemscore.Lipo>
70.1642

> <Gold.Chemscore.Internal_Hbond>
0.0000

> <Gold.Chemscore.DEClash>
0.0480

> <Gold.Chemscore.DEInternal>
3.1751

> <Gold.Chemscore.Rot>
1.7125

> <Gold.Chemscore.Internal.Correction>
   9.000000E+99

> <Gold.Chemscore.Hbonds>
donor molecule, donor type, donor heavy atom, donor atom, acceptor molecule, acceptor atom, score
      P1  H  6896  6908       L1     5  0.76
      P1  H  6931  6943       L1    17  0.96

> <Gold.Chemscore.Hbond.Weighted>
-6.4630

> <Gold.Chemscore.Metal.Weighted>
-0.0000

> <Gold.Chemscore.Lipo.Weighted>
-8.2092

> <Gold.Chemscore.Internal_Hbond.Weighted>
0.0000

> <Gold.Chemscore.DEClash.Weighted>
0.0480

> <Gold.Chemscore.DEInternal.Weighted>
3.1751

> <Gold.Chemscore.Rot.Weighted>
4.3840

> <Gold.Chemscore.Internal.Correction.Weighted>
   9.000000E+99

> <Gold.Protein.RotatedTorsions>
[ 6907 6896 6895 6894 ] final  156.45 input  -60.11 | X-H torsion
[ 7974 7965 7964 7962 ] final -152.05 input  175.53 | X-H torsion
[ 8008 7997 7996 7995 ] final   47.57 input   59.86 | X-H torsion
[ 10167 10162 10161 10158 ] final  125.36 input  -65.29 | X-H torsion
[ 10718 10713 10712 10709 ] final   40.35 input   66.30 | X-H torsion
[ 10763 10752 10751 10750 ] final  -12.80 input  -60.55 | X-H torsion
[ 11005 11000 10999 10996 ] final   68.94 input  -57.11 | X-H torsion

> <Gold.Protein.ActiveResidues>
 VAL166  LYS551  ARG553  GLY616  TRP617  ASP618  TYR619  PRO620  LYS621  CYS622 
 ASP623  PHE694  ASN695  SER759  ASP760  ASP761  ALA762  ILE779  LEU786  VAL792 
 PHE793  MET794  SER795  GLU796  ALA797  LYS798  CYS799  TRP800  GLU811  SER814 

> <Gold.Protein.RotatedAtoms>
  152.0295  133.3931  159.4290 H   0  0  0  0  0  0  0  0  0  0  0  0  # atno 6907 bound_to 6896
  150.6883  134.3537  159.4929 H   0  0  0  0  0  0  0  0  0  0  0  0  # atno 6908 bound_to 6896
  152.1321  134.9126  160.0609 H   0  0  0  0  0  0  0  0  0  0  0  0  # atno 6909 bound_to 6896
  144.7815  140.4715  143.5836 H   0  0  0  0  0  0  0  0  0  0  0  0  # atno 7974 bound_to 7965
  155.3712  140.3424  155.4243 H   0  0  0  0  0  0  0  0  0  0  0  0  # atno 8008 bound_to 7997
  156.1661  140.1616  156.8562 H   0  0  0  0  0  0  0  0  0  0  0  0  # atno 8009 bound_to 7997
  154.5187  140.0772  156.8112 H   0  0  0  0  0  0  0  0  0  0  0  0  # atno 8010 bound_to 7997
  139.5690  144.6928  151.3831 H   0  0  0  0  0  0  0  0  0  0  0  0  # atno 10167 bound_to 10162
  157.3811  130.7754  149.7194 H   0  0  0  0  0  0  0  0  0  0  0  0  # atno 10718 bound_to 10713
  153.5038  135.7017  153.5817 H   0  0  0  0  0  0  0  0  0  0  0  0  # atno 10763 bound_to 10752
  153.3937  135.3889  155.1941 H   0  0  0  0  0  0  0  0  0  0  0  0  # atno 10764 bound_to 10752
  154.8708  135.3864  154.4511 H   0  0  0  0  0  0  0  0  0  0  0  0  # atno 10765 bound_to 10752
  139.9682  134.6944  156.0500 H   0  0  0  0  0  0  0  0  0  0  0  0  # atno 11005 bound_to 11000
  145.6036  139.1506  143.3115 LP  0  0  0  0  0  0  0  0  0  0  0  0  # atno 17320 bound_to 7965
  146.2026  140.6156  142.9095 LP  0  0  0  0  0  0  0  0  0  0  0  0  # atno 17321 bound_to 7965
  140.6974  143.7716  150.7348 LP  0  0  0  0  0  0  0  0  0  0  0  0  # atno 17342 bound_to 10162
  140.1216  143.4607  152.2309 LP  0  0  0  0  0  0  0  0  0  0  0  0  # atno 17343 bound_to 10162
  155.9776  130.4061  150.3702 LP  0  0  0  0  0  0  0  0  0  0  0  0  # atno 17370 bound_to 10713
  157.1806  131.0391  151.2750 LP  0  0  0  0  0  0  0  0  0  0  0  0  # atno 17371 bound_to 10713
  141.1362  133.6574  156.3601 LP  0  0  0  0  0  0  0  0  0  0  0  0  # atno 17394 bound_to 11000
  140.5349  134.6176  157.5362 LP  0  0  0  0  0  0  0  0  0  0  0  0  # atno 17395 bound_to 11000

$$$$
