AV-unprocessed.smi:821|AV-procd|sdf|3840|dock8
  -GOLD-   22720 1283D 1   1.00000     0.00000
 Structure written by MMmdl.
 45 46  0  0  0  0  0  0  0  0  2 V2000
  147.4686  138.7334  155.5875 C   0  0  0  0  0  0  0  0  0  0  0  0
  148.7698  138.4313  154.8323 C   0  0  2  0  0  0  0  0  0  0  0  0
  149.4209  137.1173  155.3234 C   0  0  0  0  0  0  0  0  0  0  0  0
  148.8162  135.8964  154.7286 N   0  3  0  0  0  0  0  0  0  0  0  0
  149.5661  134.6629  155.0645 C   0  0  0  0  0  0  0  0  0  0  0  0
  148.9346  133.4407  154.3742 C   0  0  0  0  0  0  0  0  0  0  0  0
  147.5604  133.3404  154.7274 O   0  0  0  0  0  0  0  0  0  0  0  0
  146.8203  134.4884  154.3310 C   0  0  0  0  0  0  0  0  0  0  0  0
  147.3785  135.7272  155.0495 C   0  0  0  0  0  0  0  0  0  0  0  0
  149.6930  139.5558  154.9865 N   0  0  0  0  0  0  0  0  0  0  0  0
  150.2165  139.9905  156.1437 C   0  0  0  0  0  0  0  0  0  0  0  0
  150.0324  139.4325  157.2254 O   0  0  0  0  0  0  0  0  0  0  0  0
  151.0644  141.2668  156.0665 C   0  0  0  0  0  0  0  0  0  0  0  0
  151.5245  141.7139  157.3931 N   0  0  0  0  0  0  0  0  0  0  0  0
  151.0467  142.9536  157.8535 C   0  0  0  0  0  0  0  0  0  0  0  0
  151.4147  143.4542  159.0405 C   0  0  0  0  0  0  0  0  0  0  0  0
  152.3275  142.6868  159.8523 C   0  0  0  0  0  0  0  0  0  0  0  0
  152.8076  141.4926  159.4350 C   0  0  0  0  0  0  0  0  0  0  0  0
  153.7743  140.6675  160.2815 C   0  0  0  0  0  0  0  0  0  0  0  0
  153.3853  139.3932  160.3383 F   0  0  0  0  0  0  0  0  0  0  0  0
  154.9992  140.7050  159.7557 F   0  0  0  0  0  0  0  0  0  0  0  0
  153.8525  141.1250  161.5319 F   0  0  0  0  0  0  0  0  0  0  0  0
  152.3906  140.9472  158.1274 C   0  0  0  0  0  0  0  0  0  0  0  0
  152.8005  139.8649  157.7026 O   0  0  0  0  0  0  0  0  0  0  0  0
  146.7517  137.9199  155.4726 H   0  0  0  0  0  0  0  0  0  0  0  0
  146.9975  139.6417  155.2101 H   0  0  0  0  0  0  0  0  0  0  0  0
  147.6477  138.8704  156.6546 H   0  0  0  0  0  0  0  0  0  0  0  0
  148.5017  138.3153  153.7813 H   0  0  0  0  0  0  0  0  0  0  0  0
  150.4777  137.1445  155.0532 H   0  0  0  0  0  0  0  0  0  0  0  0
  149.3872  137.0536  156.4121 H   0  0  0  0  0  0  0  0  0  0  0  0
  150.6056  134.7625  154.7497 H   0  0  0  0  0  0  0  0  0  0  0  0
  149.5697  134.5210  156.1464 H   0  0  0  0  0  0  0  0  0  0  0  0
  149.0387  133.5060  153.2912 H   0  0  0  0  0  0  0  0  0  0  0  0
  149.4455  132.5293  154.6848 H   0  0  0  0  0  0  0  0  0  0  0  0
  146.8639  134.6135  153.2478 H   0  0  0  0  0  0  0  0  0  0  0  0
  145.7728  134.3413  154.5933 H   0  0  0  0  0  0  0  0  0  0  0  0
  147.2516  135.6227  156.1282 H   0  0  0  0  0  0  0  0  0  0  0  0
  146.8106  136.6059  154.7476 H   0  0  0  0  0  0  0  0  0  0  0  0
  149.9188  140.0718  154.1480 H   0  0  0  0  0  0  0  0  0  0  0  0
  151.9055  141.0741  155.3996 H   0  0  0  0  0  0  0  0  0  0  0  0
  150.4949  142.0672  155.5894 H   0  0  0  0  0  0  0  0  0  0  0  0
  150.3732  143.4695  157.1847 H   0  0  0  0  0  0  0  0  0  0  0  0
  151.0409  144.4095  159.3790 H   0  0  0  0  0  0  0  0  0  0  0  0
  152.6263  143.0900  160.8083 H   0  0  0  0  0  0  0  0  0  0  0  0
  148.8836  136.0032  153.7260 H   0  0  0  0  0  0  0  0  0  0  0  0
  1  2  1  0  0  0  0
  1 25  1  0  0  0  0
  1 26  1  0  0  0  0
  1 27  1  0  0  0  0
  2  3  1  0  0  0  0
  2 10  1  0  0  0  0
  2 28  1  0  0  0  0
  3  4  1  0  0  0  0
  3 29  1  0  0  0  0
  3 30  1  0  0  0  0
  4  9  1  0  0  0  0
  4  5  1  0  0  0  0
  4 45  1  0  0  0  0
  5  6  1  0  0  0  0
  5 31  1  0  0  0  0
  5 32  1  0  0  0  0
  6  7  1  0  0  0  0
  6 33  1  0  0  0  0
  6 34  1  0  0  0  0
  7  8  1  0  0  0  0
  8  9  1  0  0  0  0
  8 35  1  0  0  0  0
  8 36  1  0  0  0  0
  9 37  1  0  0  0  0
  9 38  1  0  0  0  0
 10 11  1  0  0  0  0
 10 39  1  0  0  0  0
 11 12  2  0  0  0  0
 11 13  1  0  0  0  0
 13 14  1  0  0  0  0
 13 40  1  0  0  0  0
 13 41  1  0  0  0  0
 14 23  1  0  0  0  0
 14 15  1  0  0  0  0
 15 16  2  0  0  0  0
 15 42  1  0  0  0  0
 16 17  1  0  0  0  0
 16 43  1  0  0  0  0
 17 18  2  0  0  0  0
 17 44  1  0  0  0  0
 18 19  1  0  0  0  0
 18 23  1  0  0  0  0
 19 20  1  0  0  0  0
 19 21  1  0  0  0  0
 19 22  1  0  0  0  0
 23 24  2  0  0  0  0
M  CHG  1   4   1
M  END
> <s_m_source_file>
AV-unprocessed.smi

> <i_m_source_file_index>
821

> <i_lp_mmshare_version>
43012

> <i_f3d_flags>
0

> <s_epik_input>
W0NIMl0xW0NIMl1PW0NIMl1bQ0gyXU4xW0NIMl1bQ0BASF0oW0NIM10pW05IXUMoPU8pW0NIMl1uMltjSF1bY0hdW2NIXWMoQyhGKShGKUYpYzI9Tw==

> <s_epik_cmdline>
J2VwaWtfcHl0aG9uJywgJy1waCcsICc3LjAnLCAnLXRuJywgJzgnLCAnLW1hJywgJzIwMCcsICctbWV0YWxfYmluZGluZycsICctaW1hZScsICc8aW5maWxlLm1hZT4nLCAnLW9tYWUnLCAnPG91dGZpbGUubWFlPic=

> <r_lp_tautomer_probability>
1

> <r_epik_Ionization_Penalty>
0.656654

> <r_epik_Ionization_Penalty_Charging>
0.656653

> <r_epik_Ionization_Penalty_Neutral>
9.12373e-08

> <r_epik_State_Penalty>
0.675641

> <r_epik_Charging_Adjusted_Penalty>
1.33229

> <i_epik_Tot_Q>
1

> <i_epik_Tot_abs_Q>
1

> <r_epik_Metal_State_Penalty>
0.675695

> <b_epik_Metal_Only>
0

> <s_lp_Force_Field>
OPLS_2005

> <r_lp_Energy>
29.4747

> <b_lp_Chiralities_Consistent>
1

> <s_lp_Variant>
AV-unprocessed.smi:821-3

> <Gold.Version>
5.8.1

> <Gold.Id.Protein>
6NUR|6NUR_protein|mol2

> <Gold.PLP.Fitness>
50.0335

> <Gold.PLP.PLP>
-39.0783

> <Gold.PLP.part.hbond>
-2.0000

> <Gold.PLP.part.metal>
0.0000

> <Gold.PLP.part.buried>
-5.3111

> <Gold.PLP.part.nonpolar>
-31.9327

> <Gold.PLP.part.repulsive>
0.1459

> <Gold.PLP.ligand.clash>
0.0000

> <Gold.PLP.ligand.torsion>
0.7106

> <Gold.PLP.Chemscore.Hbond>
3.0000

> <Gold.PLP.Chemscore.CHOScore>
1.0000

> <Gold.PLP.Chemscore.Metal>
0.0000

> <Gold.Chemscore.Hbonds>
donor molecule, donor type, donor heavy atom, donor atom, acceptor molecule, acceptor atom, score
      L1  H     4    45       P1  7948  2.00
      P1  H  7997  8010       L1    24  1.00
      L1  C    15    42       P1  8028  1.00

> <Gold.PLP.Chemscore.Internal.Correction>
0.3763

> <Gold.Rescore>
     Score         DG    S(hbond)    S(metal)    S(lipo)     H(rot)  DE(clash)    DE(int)     intcor
     10.45     -15.26       1.89        0.00      77.09       2.17       0.02       4.79       ----

> <Gold.Chemscore.Fitness>
10.4492

> <Gold.Chemscore.DG>
-15.2637

> <Gold.Chemscore.ZeroCoef>
-5.4800

> <Gold.Chemscore.Hbond>
1.8933

> <Gold.Chemscore.Metal>
0.0000

> <Gold.Chemscore.Lipo>
77.0879

> <Gold.Chemscore.Internal_Hbond>
0.0000

> <Gold.Chemscore.DEClash>
0.0233

> <Gold.Chemscore.DEInternal>
4.7912

> <Gold.Chemscore.Rot>
2.1716

> <Gold.Chemscore.Internal.Correction>
   9.000000E+99

> <Gold.Chemscore.Hbonds>
donor molecule, donor type, donor heavy atom, donor atom, acceptor molecule, acceptor atom, score
      L1  H     4    45       P1  7948  0.98
      P1  H  7997  8010       L1    24  0.77

> <Gold.Chemscore.Hbond.Weighted>
-6.3236

> <Gold.Chemscore.Metal.Weighted>
-0.0000

> <Gold.Chemscore.Lipo.Weighted>
-9.0193

> <Gold.Chemscore.Internal_Hbond.Weighted>
0.0000

> <Gold.Chemscore.DEClash.Weighted>
0.0233

> <Gold.Chemscore.DEInternal.Weighted>
4.7912

> <Gold.Chemscore.Rot.Weighted>
5.5592

> <Gold.Chemscore.Internal.Correction.Weighted>
   9.000000E+99

> <Gold.Protein.RotatedTorsions>
[ 6907 6896 6895 6894 ] final  -56.29 input  -60.11 | X-H torsion
[ 7974 7965 7964 7962 ] final   62.43 input  175.53 | X-H torsion
[ 8008 7997 7996 7995 ] final   40.52 input   59.86 | X-H torsion
[ 10167 10162 10161 10158 ] final -167.66 input  -65.29 | X-H torsion
[ 10718 10713 10712 10709 ] final   17.15 input   66.30 | X-H torsion
[ 10763 10752 10751 10750 ] final   65.05 input  -60.55 | X-H torsion
[ 11005 11000 10999 10996 ] final  -43.19 input  -57.11 | X-H torsion

> <Gold.Protein.ActiveResidues>
 VAL166  LYS551  ARG553  GLY616  TRP617  ASP618  TYR619  PRO620  LYS621  CYS622 
 ASP623  PHE694  ASN695  SER759  ASP760  ASP761  ALA762  ILE779  LEU786  VAL792 
 PHE793  MET794  SER795  GLU796  ALA797  LYS798  CYS799  TRP800  GLU811  SER814 

> <Gold.Protein.RotatedAtoms>
  150.8180  134.7372  159.6746 H   0  0  0  0  0  0  0  0  0  0  0  0  # atno 6907 bound_to 6896
  152.4297  134.5797  159.9954 H   0  0  0  0  0  0  0  0  0  0  0  0  # atno 6908 bound_to 6896
  151.5989  133.3321  159.3079 H   0  0  0  0  0  0  0  0  0  0  0  0  # atno 6909 bound_to 6896
  145.8734  139.3394  143.0749 H   0  0  0  0  0  0  0  0  0  0  0  0  # atno 7974 bound_to 7965
  155.2544  140.3355  155.4279 H   0  0  0  0  0  0  0  0  0  0  0  0  # atno 8008 bound_to 7997
  156.2202  140.1805  156.7539 H   0  0  0  0  0  0  0  0  0  0  0  0  # atno 8009 bound_to 7997
  154.5813  140.0653  156.9093 H   0  0  0  0  0  0  0  0  0  0  0  0  # atno 8010 bound_to 7997
  139.6035  144.0961  152.1768 H   0  0  0  0  0  0  0  0  0  0  0  0  # atno 10167 bound_to 10162
  157.0780  130.6376  149.5820 H   0  0  0  0  0  0  0  0  0  0  0  0  # atno 10718 bound_to 10713
  153.0080  135.5371  154.6607 H   0  0  0  0  0  0  0  0  0  0  0  0  # atno 10763 bound_to 10752
  154.5816  135.2850  155.0729 H   0  0  0  0  0  0  0  0  0  0  0  0  # atno 10764 bound_to 10752
  154.1856  135.6509  153.5098 H   0  0  0  0  0  0  0  0  0  0  0  0  # atno 10765 bound_to 10752
  141.0367  133.6797  156.2699 H   0  0  0  0  0  0  0  0  0  0  0  0  # atno 11005 bound_to 11000
  145.9109  140.9180  143.0454 LP  0  0  0  0  0  0  0  0  0  0  0  0  # atno 17320 bound_to 7965
  144.6726  140.1159  143.7452 LP  0  0  0  0  0  0  0  0  0  0  0  0  # atno 17321 bound_to 7965
  140.0563  144.5892  150.7297 LP  0  0  0  0  0  0  0  0  0  0  0  0  # atno 17342 bound_to 10162
  140.7267  143.2644  151.4094 LP  0  0  0  0  0  0  0  0  0  0  0  0  # atno 17343 bound_to 10162
  155.9931  130.4991  150.7369 LP  0  0  0  0  0  0  0  0  0  0  0  0  # atno 17370 bound_to 10713
  157.4823  131.0903  151.0522 LP  0  0  0  0  0  0  0  0  0  0  0  0  # atno 17371 bound_to 10713
  140.6309  134.5265  157.5559 LP  0  0  0  0  0  0  0  0  0  0  0  0  # atno 17394 bound_to 11000
  139.9246  134.8082  156.1108 LP  0  0  0  0  0  0  0  0  0  0  0  0  # atno 17395 bound_to 11000

$$$$
