AV-unprocessed.smi:837|AV-procd|sdf|3903|dock9
  -GOLD-   22720 1363D 1   1.00000     0.00000
 Structure written by MMmdl.
 48 50  0  0  0  0  0  0  0  0  2 V2000
  152.2212  138.7925  159.3221 C   0  0  0  0  0  0  0  0  0  0  0  0
  151.8392  140.2864  159.2351 C   0  0  1  0  0  0  0  0  0  0  0  0
  152.9508  141.1700  159.8424 C   0  0  0  0  0  0  0  0  0  0  0  0
  152.5531  142.6533  159.8691 C   0  0  0  0  0  0  0  0  0  0  0  0
  152.1840  143.1532  158.4666 C   0  0  0  0  0  0  0  0  0  0  0  0
  151.0704  142.2934  157.8437 C   0  0  0  0  0  0  0  0  0  0  0  0
  151.4269  140.7839  157.8109 C   0  0  1  0  0  0  0  0  0  0  0  0
  152.4703  140.5376  156.8277 N   0  5  0  0  0  0  0  0  0  0  0  0
  151.9728  139.7503  155.8462 C   0  0  0  0  0  0  0  0  0  0  0  0
  152.5716  139.3554  154.8461 O   0  0  0  0  0  0  0  0  0  0  0  0
  150.6883  139.4271  156.0888 N   0  0  0  0  0  0  0  0  0  0  0  0
  149.8517  138.6023  155.2073 C   0  0  0  0  0  0  0  0  0  0  0  0
  150.2354  137.1172  155.2458 C   0  0  0  0  0  0  0  0  0  0  0  0
  151.4021  136.7634  155.0707 O   0  0  0  0  0  0  0  0  0  0  0  0
  149.2301  136.2529  155.4494 N   0  0  0  0  0  0  0  0  0  0  0  0
  149.3736  134.8019  155.5114 C   0  0  0  0  0  0  0  0  0  0  0  0
  149.7453  134.1853  154.1495 C   0  0  0  0  0  0  0  0  0  0  0  0
  148.7897  133.0919  153.7044 C   0  0  0  0  0  0  0  0  0  0  0  0
  148.8302  131.8086  154.2884 C   0  0  0  0  0  0  0  0  0  0  0  0
  147.9278  130.8281  153.8332 C   0  0  0  0  0  0  0  0  0  0  0  0
  147.0211  131.1736  152.8112 C   0  0  0  0  0  0  0  0  0  0  0  0
  146.9734  132.3987  152.2451 N   0  0  0  0  0  0  0  0  0  0  0  0
  147.8413  133.3335  152.6881 C   0  0  0  0  0  0  0  0  0  0  0  0
  150.2660  139.9908  157.2260 C   0  0  0  0  0  0  0  0  0  0  0  0
  149.1477  139.9059  157.7361 O   0  0  0  0  0  0  0  0  0  0  0  0
  153.1006  138.5679  158.7183 H   0  0  0  0  0  0  0  0  0  0  0  0
  151.4118  138.1443  158.9872 H   0  0  0  0  0  0  0  0  0  0  0  0
  152.4515  138.5108  160.3495 H   0  0  0  0  0  0  0  0  0  0  0  0
  150.9658  140.4103  159.8779 H   0  0  0  0  0  0  0  0  0  0  0  0
  153.1745  140.8406  160.8576 H   0  0  0  0  0  0  0  0  0  0  0  0
  153.8735  141.0497  159.2730 H   0  0  0  0  0  0  0  0  0  0  0  0
  151.7070  142.7939  160.5429 H   0  0  0  0  0  0  0  0  0  0  0  0
  153.3724  143.2498  160.2713 H   0  0  0  0  0  0  0  0  0  0  0  0
  151.8638  144.1941  158.5164 H   0  0  0  0  0  0  0  0  0  0  0  0
  153.0671  143.1346  157.8268 H   0  0  0  0  0  0  0  0  0  0  0  0
  150.1583  142.4398  158.4246 H   0  0  0  0  0  0  0  0  0  0  0  0
  150.8461  142.6590  156.8399 H   0  0  0  0  0  0  0  0  0  0  0  0
  148.8020  138.7227  155.4810 H   0  0  0  0  0  0  0  0  0  0  0  0
  149.9282  138.9488  154.1754 H   0  0  0  0  0  0  0  0  0  0  0  0
  148.3010  136.6270  155.5767 H   0  0  0  0  0  0  0  0  0  0  0  0
  150.1118  134.5279  156.2665 H   0  0  0  0  0  0  0  0  0  0  0  0
  148.4219  134.3916  155.8506 H   0  0  0  0  0  0  0  0  0  0  0  0
  149.7761  134.9643  153.3866 H   0  0  0  0  0  0  0  0  0  0  0  0
  150.7537  133.7726  154.1977 H   0  0  0  0  0  0  0  0  0  0  0  0
  149.5421  131.5770  155.0673 H   0  0  0  0  0  0  0  0  0  0  0  0
  147.9313  129.8344  154.2559 H   0  0  0  0  0  0  0  0  0  0  0  0
  146.3161  130.4460  152.4374 H   0  0  0  0  0  0  0  0  0  0  0  0
  147.7805  134.3020  152.2139 H   0  0  0  0  0  0  0  0  0  0  0  0
  1  2  1  0  0  0  0
  1 26  1  0  0  0  0
  1 27  1  0  0  0  0
  1 28  1  0  0  0  0
  2  7  1  0  0  0  0
  2  3  1  0  0  0  0
  2 29  1  0  0  0  0
  3  4  1  0  0  0  0
  3 30  1  0  0  0  0
  3 31  1  0  0  0  0
  4  5  1  0  0  0  0
  4 32  1  0  0  0  0
  4 33  1  0  0  0  0
  5  6  1  0  0  0  0
  5 34  1  0  0  0  0
  5 35  1  0  0  0  0
  6  7  1  0  0  0  0
  6 36  1  0  0  0  0
  6 37  1  0  0  0  0
  7 24  1  0  0  0  0
  7  8  1  0  0  0  0
  8  9  1  0  0  0  0
  9 10  2  0  0  0  0
  9 11  1  0  0  0  0
 11 12  1  0  0  0  0
 11 24  1  0  0  0  0
 12 13  1  0  0  0  0
 12 38  1  0  0  0  0
 12 39  1  0  0  0  0
 13 14  2  0  0  0  0
 13 15  1  0  0  0  0
 15 16  1  0  0  0  0
 15 40  1  0  0  0  0
 16 17  1  0  0  0  0
 16 41  1  0  0  0  0
 16 42  1  0  0  0  0
 17 18  1  0  0  0  0
 17 43  1  0  0  0  0
 17 44  1  0  0  0  0
 18 23  1  0  0  0  0
 18 19  2  0  0  0  0
 19 20  1  0  0  0  0
 19 45  1  0  0  0  0
 20 21  2  0  0  0  0
 20 46  1  0  0  0  0
 21 22  1  0  0  0  0
 21 47  1  0  0  0  0
 22 23  2  0  0  0  0
 23 48  1  0  0  0  0
 24 25  2  0  0  0  0
M  CHG  1   8  -1
M  END
> <s_m_source_file>
AV-unprocessed.smi

> <i_m_source_file_index>
837

> <i_lp_mmshare_version>
43012

> <i_f3d_flags>
0

> <s_epik_input>
W0NIMl0xW0NIMl1bQ0gyXVtDSDJdW0NAQEhdKFtDSDNdKVtDQEBdMTJbTkhdQyg9TylOKEMyPU8pW0NIMl1DKD1PKVtOSF1bQ0gyXVtDSDJdYzNbY0hdW2NIXVtjSF1uW2NIXTM=

> <s_epik_cmdline>
J2VwaWtfcHl0aG9uJywgJy1waCcsICc3LjAnLCAnLXRuJywgJzgnLCAnLW1hJywgJzIwMCcsICctbWV0YWxfYmluZGluZycsICctaW1hZScsICc8aW5maWxlLm1hZT4nLCAnLW9tYWUnLCAnPG91dGZpbGUubWFlPic=

> <r_lp_tautomer_probability>
1

> <r_epik_Ionization_Penalty>
6.03002

> <r_epik_Ionization_Penalty_Charging>
6.01728

> <r_epik_Ionization_Penalty_Neutral>
0.0127382

> <r_epik_State_Penalty>
6.02713

> <r_epik_Charging_Adjusted_Penalty>
12.0444

> <i_epik_Tot_Q>
-1

> <i_epik_Tot_abs_Q>
1

> <r_epik_Metal_State_Penalty>
1.99078

> <b_epik_Metal_Only>
1

> <s_lp_Force_Field>
OPLS_2005

> <r_lp_Energy>
20.5142

> <b_lp_Chiralities_Consistent>
1

> <s_lp_Variant>
AV-unprocessed.smi:837-12

> <Gold.Version>
5.8.1

> <Gold.Id.Protein>
6NUR|6NUR_protein|mol2

> <Gold.PLP.Fitness>
51.6283

> <Gold.PLP.PLP>
-40.2012

> <Gold.PLP.part.hbond>
-3.0000

> <Gold.PLP.part.metal>
0.0000

> <Gold.PLP.part.buried>
-0.2206

> <Gold.PLP.part.nonpolar>
-35.1396

> <Gold.PLP.part.repulsive>
0.3094

> <Gold.PLP.ligand.clash>
0.0000

> <Gold.PLP.ligand.torsion>
0.7981

> <Gold.PLP.Chemscore.Hbond>
3.3312

> <Gold.PLP.Chemscore.CHOScore>
1.0000

> <Gold.PLP.Chemscore.Metal>
0.0000

> <Gold.Chemscore.Hbonds>
donor molecule, donor type, donor heavy atom, donor atom, acceptor molecule, acceptor atom, score
      P1  H  7989  7998       L1    10  0.27
      P1  H  7997  8009       L1     8  1.41
      P1  H 10752 10765       L1    14  1.00
      L1  C    23    48       P1  7948  1.00

> <Gold.PLP.Chemscore.Internal.Correction>
0.0297

> <Gold.Rescore>
     Score         DG    S(hbond)    S(metal)    S(lipo)     H(rot)  DE(clash)    DE(int)     intcor
     15.93     -18.00       1.93        0.00      91.61       1.81       0.10       1.97       ----

> <Gold.Chemscore.Fitness>
15.9253

> <Gold.Chemscore.DG>
-17.9977

> <Gold.Chemscore.ZeroCoef>
-5.4800

> <Gold.Chemscore.Hbond>
1.9253

> <Gold.Chemscore.Metal>
0.0000

> <Gold.Chemscore.Lipo>
91.6096

> <Gold.Chemscore.Internal_Hbond>
0.0000

> <Gold.Chemscore.DEClash>
0.0997

> <Gold.Chemscore.DEInternal>
1.9727

> <Gold.Chemscore.Rot>
1.8090

> <Gold.Chemscore.Internal.Correction>
   9.000000E+99

> <Gold.Chemscore.Hbonds>
donor molecule, donor type, donor heavy atom, donor atom, acceptor molecule, acceptor atom, score
      P1  H  7989  7998       L1    10  0.03
      P1  H  7997  8009       L1     8  0.10
      P1  H 10752 10765       L1    14  0.97

> <Gold.Chemscore.Hbond.Weighted>
-6.4304

> <Gold.Chemscore.Metal.Weighted>
-0.0000

> <Gold.Chemscore.Lipo.Weighted>
-10.7183

> <Gold.Chemscore.Internal_Hbond.Weighted>
0.0000

> <Gold.Chemscore.DEClash.Weighted>
0.0997

> <Gold.Chemscore.DEInternal.Weighted>
1.9727

> <Gold.Chemscore.Rot.Weighted>
4.6310

> <Gold.Chemscore.Internal.Correction.Weighted>
   9.000000E+99

> <Gold.Protein.RotatedTorsions>
[ 6907 6896 6895 6894 ] final -170.26 input  -60.11 | X-H torsion
[ 7974 7965 7964 7962 ] final   -1.15 input  175.53 | X-H torsion
[ 8008 7997 7996 7995 ] final -171.24 input   59.86 | X-H torsion
[ 10167 10162 10161 10158 ] final -163.64 input  -65.29 | X-H torsion
[ 10718 10713 10712 10709 ] final -120.62 input   66.30 | X-H torsion
[ 10763 10752 10751 10750 ] final  171.35 input  -60.55 | X-H torsion
[ 11005 11000 10999 10996 ] final -109.63 input  -57.11 | X-H torsion

> <Gold.Protein.ActiveResidues>
 VAL166  LYS551  ARG553  GLY616  TRP617  ASP618  TYR619  PRO620  LYS621  CYS622 
 ASP623  PHE694  ASN695  SER759  ASP760  ASP761  ALA762  ILE779  LEU786  VAL792 
 PHE793  MET794  SER795  GLU796  ALA797  LYS798  CYS799  TRP800  GLU811  SER814 

> <Gold.Protein.RotatedAtoms>
  151.5048  133.3497  159.2874 H   0  0  0  0  0  0  0  0  0  0  0  0  # atno 6907 bound_to 6896
  150.8750  134.8133  159.7194 H   0  0  0  0  0  0  0  0  0  0  0  0  # atno 6908 bound_to 6896
  152.4724  134.4937  159.9755 H   0  0  0  0  0  0  0  0  0  0  0  0  # atno 6909 bound_to 6896
  146.2420  140.1376  142.8336 H   0  0  0  0  0  0  0  0  0  0  0  0  # atno 7974 bound_to 7965
  155.9290  140.1088  157.1147 H   0  0  0  0  0  0  0  0  0  0  0  0  # atno 8008 bound_to 7997
  154.4067  140.1241  156.4843 H   0  0  0  0  0  0  0  0  0  0  0  0  # atno 8009 bound_to 7997
  155.7103  140.3471  155.4973 H   0  0  0  0  0  0  0  0  0  0  0  0  # atno 8010 bound_to 7997
  139.6306  144.0447  152.2012 H   0  0  0  0  0  0  0  0  0  0  0  0  # atno 10167 bound_to 10162
  156.1273  130.6368  150.9563 H   0  0  0  0  0  0  0  0  0  0  0  0  # atno 10718 bound_to 10713
  154.4107  135.2756  155.2038 H   0  0  0  0  0  0  0  0  0  0  0  0  # atno 10763 bound_to 10752
  154.4025  135.6041  153.5909 H   0  0  0  0  0  0  0  0  0  0  0  0  # atno 10764 bound_to 10752
  152.9831  135.5930  154.4388 H   0  0  0  0  0  0  0  0  0  0  0  0  # atno 10765 bound_to 10752
  141.0837  133.9176  157.2233 H   0  0  0  0  0  0  0  0  0  0  0  0  # atno 11005 bound_to 11000
  145.0273  140.8842  143.5130 LP  0  0  0  0  0  0  0  0  0  0  0  0  # atno 17320 bound_to 7965
  145.1435  139.2558  143.5478 LP  0  0  0  0  0  0  0  0  0  0  0  0  # atno 17321 bound_to 7965
  140.0111  144.6223  150.7646 LP  0  0  0  0  0  0  0  0  0  0  0  0  # atno 17342 bound_to 10162
  140.7437  143.2849  151.3491 LP  0  0  0  0  0  0  0  0  0  0  0  0  # atno 17343 bound_to 10162
  157.6453  131.0905  150.8166 LP  0  0  0  0  0  0  0  0  0  0  0  0  # atno 17370 bound_to 10713
  156.8255  130.4998  149.5338 LP  0  0  0  0  0  0  0  0  0  0  0  0  # atno 17371 bound_to 10713
  139.9653  135.0143  156.9369 LP  0  0  0  0  0  0  0  0  0  0  0  0  # atno 17394 bound_to 11000
  140.5412  134.0718  155.7342 LP  0  0  0  0  0  0  0  0  0  0  0  0  # atno 17395 bound_to 11000

$$$$
