AV-unprocessed.smi:2142|AV-procd|sdf|8720|dock1
  -GOLD-   2272011483D 1   1.00000     0.00000
 Structure written by MMmdl.
 40 41  0  0  0  0  0  0  0  0  1 V2000
  153.4474  133.2363  165.4190 C   0  0  0  0  0  0  0  0  0  0  0  0
  154.4969  132.4075  164.9513 O   0  0  0  0  0  0  0  0  0  0  0  0
  154.8099  132.6455  163.5891 C   0  0  0  0  0  0  0  0  0  0  0  0
  155.3700  134.0632  163.4412 C   0  0  0  0  0  0  0  0  0  0  0  0
  155.2609  134.4602  162.0773 O   0  0  0  0  0  0  0  0  0  0  0  0
  154.8399  135.7436  161.7964 C   0  0  0  0  0  0  0  0  0  0  0  0
  154.7600  136.1463  160.4484 C   0  0  0  0  0  0  0  0  0  0  0  0
  154.3380  137.4565  160.1522 C   0  0  0  0  0  0  0  0  0  0  0  0
  154.0139  138.3271  161.2195 C   0  0  0  0  0  0  0  0  0  0  0  0
  153.5573  139.6615  161.0521 N   0  0  0  0  0  0  0  0  0  0  0  0
  153.7421  140.4916  160.0044 C   0  0  0  0  0  0  0  0  0  0  0  0
  154.3881  140.2011  158.9976 O   0  0  0  0  0  0  0  0  0  0  0  0
  153.1279  141.8404  160.1457 C   0  0  0  0  0  0  0  0  0  0  0  0
  153.1308  142.6624  159.1430 N   0  0  0  0  0  0  0  0  0  0  0  0
  152.5599  143.9158  159.2145 N   0  0  0  0  0  0  0  0  0  0  0  0
  152.4304  144.5742  157.9146 C   0  0  0  0  0  0  0  0  0  0  0  0
  152.1733  144.5183  160.3685 C   0  0  0  0  0  0  0  0  0  0  0  0
  151.6434  145.6277  160.4247 O   0  0  0  0  0  0  0  0  0  0  0  0
  152.4578  143.7545  161.6651 C   0  0  0  0  0  0  0  0  0  0  0  0
  152.4695  142.2280  161.4549 C   0  0  0  0  0  0  0  0  0  0  0  0
  154.1101  137.8216  162.5323 C   0  0  0  0  0  0  0  0  0  0  0  0
  154.5166  136.5682  162.8232 N   0  0  0  0  0  0  0  0  0  0  0  0
  153.2421  133.0124  166.4658 H   0  0  0  0  0  0  0  0  0  0  0  0
  152.5300  133.0696  164.8529 H   0  0  0  0  0  0  0  0  0  0  0  0
  153.7170  134.2908  165.3471 H   0  0  0  0  0  0  0  0  0  0  0  0
  155.5601  131.9234  163.2632 H   0  0  0  0  0  0  0  0  0  0  0  0
  153.9310  132.5142  162.9559 H   0  0  0  0  0  0  0  0  0  0  0  0
  154.8360  134.7506  164.0996 H   0  0  0  0  0  0  0  0  0  0  0  0
  156.4206  134.0636  163.7359 H   0  0  0  0  0  0  0  0  0  0  0  0
  155.0147  135.4606  159.6538 H   0  0  0  0  0  0  0  0  0  0  0  0
  154.2588  137.7601  159.1200 H   0  0  0  0  0  0  0  0  0  0  0  0
  153.0833  140.0612  161.8495 H   0  0  0  0  0  0  0  0  0  0  0  0
  151.9999  145.5750  157.9668 H   0  0  0  0  0  0  0  0  0  0  0  0
  151.7959  143.9802  157.2559 H   0  0  0  0  0  0  0  0  0  0  0  0
  153.4094  144.6665  157.4425 H   0  0  0  0  0  0  0  0  0  0  0  0
  153.4323  144.0816  162.0297 H   0  0  0  0  0  0  0  0  0  0  0  0
  151.7292  144.0265  162.4296 H   0  0  0  0  0  0  0  0  0  0  0  0
  151.4500  141.8414  161.4723 H   0  0  0  0  0  0  0  0  0  0  0  0
  152.9869  141.7694  162.2985 H   0  0  0  0  0  0  0  0  0  0  0  0
  153.8593  138.4440  163.3789 H   0  0  0  0  0  0  0  0  0  0  0  0
  1  2  1  0  0  0  0
  1 23  1  0  0  0  0
  1 24  1  0  0  0  0
  1 25  1  0  0  0  0
  2  3  1  0  0  0  0
  3  4  1  0  0  0  0
  3 26  1  0  0  0  0
  3 27  1  0  0  0  0
  4  5  1  0  0  0  0
  4 28  1  0  0  0  0
  4 29  1  0  0  0  0
  5  6  1  0  0  0  0
  6 22  1  0  0  0  0
  6  7  2  0  0  0  0
  7  8  1  0  0  0  0
  7 30  1  0  0  0  0
  8  9  2  0  0  0  0
  8 31  1  0  0  0  0
  9 10  1  0  0  0  0
  9 21  1  0  0  0  0
 10 11  1  0  0  0  0
 10 32  1  0  0  0  0
 11 12  2  0  0  0  0
 11 13  1  0  0  0  0
 13 20  1  0  0  0  0
 13 14  2  0  0  0  0
 14 15  1  0  0  0  0
 15 16  1  0  0  0  0
 15 17  1  0  0  0  0
 16 33  1  0  0  0  0
 16 34  1  0  0  0  0
 16 35  1  0  0  0  0
 17 18  2  0  0  0  0
 17 19  1  0  0  0  0
 19 20  1  0  0  0  0
 19 36  1  0  0  0  0
 19 37  1  0  0  0  0
 20 38  1  0  0  0  0
 20 39  1  0  0  0  0
 21 22  2  0  0  0  0
 21 40  1  0  0  0  0
M  END
> <s_m_source_file>
AV-unprocessed.smi

> <i_m_source_file_index>
2142

> <i_lp_mmshare_version>
43012

> <i_f3d_flags>
0

> <s_epik_input>
W0NIM11PW0NIMl1bQ0gyXU9jMVtjSF1bY0hdYyhbY0hdbjEpW05IXUMoPU8pQzI9Tk4oW0NIM10pQyg9TylbQ0gyXVtDSDJdMg==

> <s_epik_cmdline>
J2VwaWtfcHl0aG9uJywgJy1waCcsICc3LjAnLCAnLXRuJywgJzgnLCAnLW1hJywgJzIwMCcsICctbWV0YWxfYmluZGluZycsICctaW1hZScsICc8aW5maWxlLm1hZT4nLCAnLW9tYWUnLCAnPG91dGZpbGUubWFlPic=

> <r_lp_tautomer_probability>
1

> <r_epik_Ionization_Penalty>
2.74522e-05

> <r_epik_Ionization_Penalty_Charging>
0

> <r_epik_Ionization_Penalty_Neutral>
2.74522e-05

> <r_epik_State_Penalty>
-0

> <r_epik_Charging_Adjusted_Penalty>
0

> <i_epik_Tot_Q>
0

> <i_epik_Tot_abs_Q>
0

> <r_epik_Metal_State_Penalty>
0.0227286

> <b_epik_Metal_Only>
0

> <s_epik_Chemistry_Notes>
This compound has an imine and may undergo hydrolysis.

> <s_lp_Force_Field>
OPLS_2005

> <r_lp_Energy>
20.7246

> <b_lp_Chiralities_Consistent>
1

> <s_lp_Variant>
AV-unprocessed.smi:2142-1

> <Gold.Version>
5.8.1

> <Gold.Id.Protein>
6NUR|6NUR_protein|mol2

> <Gold.PLP.Fitness>
43.0353

> <Gold.PLP.PLP>
-41.1975

> <Gold.PLP.part.hbond>
-1.0000

> <Gold.PLP.part.metal>
0.0000

> <Gold.PLP.part.buried>
-4.1453

> <Gold.PLP.part.nonpolar>
-35.9799

> <Gold.PLP.part.repulsive>
0.3054

> <Gold.PLP.ligand.clash>
0.0000

> <Gold.PLP.ligand.torsion>
0.5306

> <Gold.PLP.Chemscore.Hbond>
0.9440

> <Gold.PLP.Chemscore.CHOScore>
0.0000

> <Gold.PLP.Chemscore.Metal>
0.0000

> <Gold.Chemscore.Hbonds>
donor molecule, donor type, donor heavy atom, donor atom, acceptor molecule, acceptor atom, score
      P1  H  7997  8008       L1    12  0.93

> <Gold.PLP.Chemscore.Internal.Correction>
0.0670

> <Gold.Rescore>
     Score         DG    S(hbond)    S(metal)    S(lipo)     H(rot)  DE(clash)    DE(int)     intcor
     13.29     -14.98       0.97        0.00      91.61       1.74       0.06       1.63       ----

> <Gold.Chemscore.Fitness>
13.2929

> <Gold.Chemscore.DG>
-14.9777

> <Gold.Chemscore.ZeroCoef>
-5.4800

> <Gold.Chemscore.Hbond>
0.9693

> <Gold.Chemscore.Metal>
0.0000

> <Gold.Chemscore.Lipo>
91.6097

> <Gold.Chemscore.Internal_Hbond>
0.0000

> <Gold.Chemscore.DEClash>
0.0585

> <Gold.Chemscore.DEInternal>
1.6263

> <Gold.Chemscore.Rot>
1.7414

> <Gold.Chemscore.Internal.Correction>
   9.000000E+99

> <Gold.Chemscore.Hbonds>
donor molecule, donor type, donor heavy atom, donor atom, acceptor molecule, acceptor atom, score
      P1  H  7997  8008       L1    12  0.90

> <Gold.Chemscore.Hbond.Weighted>
-3.2373

> <Gold.Chemscore.Metal.Weighted>
-0.0000

> <Gold.Chemscore.Lipo.Weighted>
-10.7183

> <Gold.Chemscore.Internal_Hbond.Weighted>
0.0000

> <Gold.Chemscore.DEClash.Weighted>
0.0585

> <Gold.Chemscore.DEInternal.Weighted>
1.6263

> <Gold.Chemscore.Rot.Weighted>
4.4580

> <Gold.Chemscore.Internal.Correction.Weighted>
   9.000000E+99

> <Gold.Protein.RotatedTorsions>
[ 6907 6896 6895 6894 ] final   62.10 input  -60.11 | X-H torsion
[ 7974 7965 7964 7962 ] final -110.42 input  175.53 | X-H torsion
[ 8008 7997 7996 7995 ] final -113.65 input   59.86 | X-H torsion
[ 10167 10162 10161 10158 ] final -131.20 input  -65.29 | X-H torsion
[ 10718 10713 10712 10709 ] final -158.09 input   66.30 | X-H torsion
[ 10763 10752 10751 10750 ] final   65.97 input  -60.55 | X-H torsion
[ 11005 11000 10999 10996 ] final  121.22 input  -57.11 | X-H torsion

> <Gold.Protein.ActiveResidues>
 VAL166  LYS551  ARG553  GLY616  TRP617  ASP618  TYR619  PRO620  LYS621  CYS622 
 ASP623  PHE694  ASN695  SER759  ASP760  ASP761  ALA762  ILE779  LEU786  VAL792 
 PHE793  MET794  SER795  GLU796  ALA797  LYS798  CYS799  TRP800  GLU811  SER814 

> <Gold.Protein.RotatedAtoms>
  152.4144  134.6067  160.0014 H   0  0  0  0  0  0  0  0  0  0  0  0  # atno 6907 bound_to 6896
  151.6235  133.3331  159.3101 H   0  0  0  0  0  0  0  0  0  0  0  0  # atno 6908 bound_to 6896
  150.8034  134.7182  159.6687 H   0  0  0  0  0  0  0  0  0  0  0  0  # atno 6909 bound_to 6896
  145.1684  140.8914  143.3549 H   0  0  0  0  0  0  0  0  0  0  0  0  # atno 7974 bound_to 7965
  155.0240  140.0393  157.2448 H   0  0  0  0  0  0  0  0  0  0  0  0  # atno 8008 bound_to 7997
  154.7353  140.2738  155.6396 H   0  0  0  0  0  0  0  0  0  0  0  0  # atno 8009 bound_to 7997
  156.2851  140.2676  156.2065 H   0  0  0  0  0  0  0  0  0  0  0  0  # atno 8010 bound_to 7997
  139.9214  143.6378  152.2553 H   0  0  0  0  0  0  0  0  0  0  0  0  # atno 10167 bound_to 10162
  156.5493  130.8598  151.2775 H   0  0  0  0  0  0  0  0  0  0  0  0  # atno 10718 bound_to 10713
  153.0119  135.5337  154.6751 H   0  0  0  0  0  0  0  0  0  0  0  0  # atno 10763 bound_to 10752
  154.5926  135.2860  155.0622 H   0  0  0  0  0  0  0  0  0  0  0  0  # atno 10764 bound_to 10752
  154.1709  135.6532  153.5062 H   0  0  0  0  0  0  0  0  0  0  0  0  # atno 10765 bound_to 10752
  139.9217  134.9638  156.7925 H   0  0  0  0  0  0  0  0  0  0  0  0  # atno 11005 bound_to 11000
  145.0258  139.3384  143.6049 LP  0  0  0  0  0  0  0  0  0  0  0  0  # atno 17320 bound_to 7965
  146.3472  139.9576  142.8721 LP  0  0  0  0  0  0  0  0  0  0  0  0  # atno 17321 bound_to 7965
  139.6859  144.7651  151.1525 LP  0  0  0  0  0  0  0  0  0  0  0  0  # atno 17342 bound_to 10162
  140.7661  143.5658  150.9049 LP  0  0  0  0  0  0  0  0  0  0  0  0  # atno 17343 bound_to 10162
  157.7390  130.9824  150.2289 LP  0  0  0  0  0  0  0  0  0  0  0  0  # atno 17370 bound_to 10713
  156.2899  130.3744  149.7852 LP  0  0  0  0  0  0  0  0  0  0  0  0  # atno 17371 bound_to 10713
  140.6455  133.9779  155.7729 LP  0  0  0  0  0  0  0  0  0  0  0  0  # atno 17394 bound_to 11000
  141.0743  134.0159  157.3481 LP  0  0  0  0  0  0  0  0  0  0  0  0  # atno 17395 bound_to 11000

$$$$
