AV-unprocessed.smi:645|AV-procd|sdf|3159|dock1
  -GOLD-   22720 0 83D 1   1.00000     0.00000
 Structure written by MMmdl.
 23 24  0  0  0  0  0  0  0  0  1 V2000
  143.2807  135.9928  152.6043 C   0  0  0  0  0  0  0  0  0  0  0  0
  144.6790  135.7085  152.0193 C   0  0  1  0  0  0  0  0  0  0  0  0
  144.7453  134.3572  151.2903 C   0  0  0  0  0  0  0  0  0  0  0  0
  143.5975  133.5519  151.0905 C   0  0  0  0  0  0  0  0  0  0  0  0
  143.7360  132.3206  150.4193 C   0  0  0  0  0  0  0  0  0  0  0  0
  144.9133  131.8572  149.9513 N   0  0  0  0  0  0  0  0  0  0  0  0
  146.0082  132.6219  150.1417 C   0  0  0  0  0  0  0  0  0  0  0  0
  145.9782  133.8666  150.8003 C   0  0  0  0  0  0  0  0  0  0  0  0
  145.1110  136.8361  151.2029 N   0  0  0  0  0  0  0  0  0  0  0  0
  146.2350  137.4099  151.6519 C   0  0  0  0  0  0  0  0  0  0  0  0
  146.8199  138.3575  151.1328 O   0  0  0  0  0  0  0  0  0  0  0  0
  146.6007  136.7754  152.7688 N   0  0  0  0  0  0  0  0  0  0  0  0
  145.7642  135.7901  153.0906 C   0  0  0  0  0  0  0  0  0  0  0  0
  145.8347  135.0664  154.0830 O   0  0  0  0  0  0  0  0  0  0  0  0
  142.9744  135.2299  153.3204 H   0  0  0  0  0  0  0  0  0  0  0  0
  142.5279  136.0246  151.8161 H   0  0  0  0  0  0  0  0  0  0  0  0
  143.2511  136.9521  153.1234 H   0  0  0  0  0  0  0  0  0  0  0  0
  142.6205  133.8538  151.4365 H   0  0  0  0  0  0  0  0  0  0  0  0
  142.8750  131.6896  150.2548 H   0  0  0  0  0  0  0  0  0  0  0  0
  146.9384  132.2305  149.7575 H   0  0  0  0  0  0  0  0  0  0  0  0
  146.8899  134.4331  150.9181 H   0  0  0  0  0  0  0  0  0  0  0  0
  144.6205  137.1233  150.3685 H   0  0  0  0  0  0  0  0  0  0  0  0
  147.4112  137.0250  153.3165 H   0  0  0  0  0  0  0  0  0  0  0  0
  1  2  1  0  0  0  0
  1 15  1  0  0  0  0
  1 16  1  0  0  0  0
  1 17  1  0  0  0  0
  2 13  1  0  0  0  0
  2  3  1  0  0  0  0
  2  9  1  0  0  0  0
  3  8  1  0  0  0  0
  3  4  2  0  0  0  0
  4  5  1  0  0  0  0
  4 18  1  0  0  0  0
  5  6  2  0  0  0  0
  5 19  1  0  0  0  0
  6  7  1  0  0  0  0
  7  8  2  0  0  0  0
  7 20  1  0  0  0  0
  8 21  1  0  0  0  0
  9 10  1  0  0  0  0
  9 22  1  0  0  0  0
 10 11  2  0  0  0  0
 10 12  1  0  0  0  0
 12 13  1  0  0  0  0
 12 23  1  0  0  0  0
 13 14  2  0  0  0  0
M  END
> <s_m_source_file>
AV-unprocessed.smi

> <i_m_source_file_index>
645

> <i_lp_mmshare_version>
43012

> <i_f3d_flags>
0

> <s_epik_input>
Tz1DMVtOSF1DKD1PKVtOSF1bQ0BAXTEoW0NIM10pYzJbY0hdW2NIXW5bY0hdW2NIXTI=

> <s_epik_cmdline>
J2VwaWtfcHl0aG9uJywgJy1waCcsICc3LjAnLCAnLXRuJywgJzgnLCAnLW1hJywgJzIwMCcsICctbWV0YWxfYmluZGluZycsICctaW1hZScsICc8aW5maWxlLm1hZT4nLCAnLW9tYWUnLCAnPG91dGZpbGUubWFlPic=

> <r_lp_tautomer_probability>
1

> <r_epik_Ionization_Penalty>
0.0327402

> <r_epik_Ionization_Penalty_Charging>
0

> <r_epik_Ionization_Penalty_Neutral>
0.0327402

> <r_epik_State_Penalty>
0.022996

> <r_epik_Charging_Adjusted_Penalty>
0.022996

> <i_epik_Tot_Q>
0

> <i_epik_Tot_abs_Q>
0

> <r_epik_Metal_State_Penalty>
0.426243

> <b_epik_Metal_Only>
0

> <s_lp_Force_Field>
OPLS_2005

> <r_lp_Energy>
18.0362

> <b_lp_Chiralities_Consistent>
1

> <s_lp_Variant>
AV-unprocessed.smi:645-1

> <Gold.Version>
5.8.1

> <Gold.Id.Protein>
6NUR|6NUR_protein|mol2

> <Gold.PLP.Fitness>
34.2651

> <Gold.PLP.PLP>
-23.3685

> <Gold.PLP.part.hbond>
-3.0152

> <Gold.PLP.part.metal>
0.0000

> <Gold.PLP.part.buried>
-2.7040

> <Gold.PLP.part.nonpolar>
-19.1116

> <Gold.PLP.part.repulsive>
0.9376

> <Gold.PLP.ligand.clash>
0.0000

> <Gold.PLP.ligand.torsion>
0.1457

> <Gold.PLP.Chemscore.Hbond>
1.7360

> <Gold.PLP.Chemscore.CHOScore>
1.9537

> <Gold.PLP.Chemscore.Metal>
0.0000

> <Gold.Chemscore.Hbonds>
donor molecule, donor type, donor heavy atom, donor atom, acceptor molecule, acceptor atom, score
      L1  H     9    22       P1 10171  0.74
      P1  H  7954  7966       L1    11  1.00
      L1  C     5    19       P1 10952  0.96
      L1  C     7    20       P1 10747  1.00

> <Gold.PLP.Chemscore.Internal.Correction>
0.1188

> <Gold.Rescore>
     Score         DG    S(hbond)    S(metal)    S(lipo)     H(rot)  DE(clash)    DE(int)     intcor
     13.77     -15.06       1.93        0.00      48.72       1.00       1.19       0.10       ----

> <Gold.Chemscore.Fitness>
13.7706

> <Gold.Chemscore.DG>
-15.0641

> <Gold.Chemscore.ZeroCoef>
-5.4800

> <Gold.Chemscore.Hbond>
1.9294

> <Gold.Chemscore.Metal>
0.0000

> <Gold.Chemscore.Lipo>
48.7185

> <Gold.Chemscore.Internal_Hbond>
0.0000

> <Gold.Chemscore.DEClash>
1.1889

> <Gold.Chemscore.DEInternal>
0.1045

> <Gold.Chemscore.Rot>
1.0000

> <Gold.Chemscore.Internal.Correction>
   9.000000E+99

> <Gold.Chemscore.Hbonds>
donor molecule, donor type, donor heavy atom, donor atom, acceptor molecule, acceptor atom, score
      L1  H     9    22       P1 10171  0.74
      L1  H    12    23       P1  7948  0.01
      P1  H  7954  7966       L1    11  0.90

> <Gold.Chemscore.Hbond.Weighted>
-6.4440

> <Gold.Chemscore.Metal.Weighted>
-0.0000

> <Gold.Chemscore.Lipo.Weighted>
-5.7001

> <Gold.Chemscore.Internal_Hbond.Weighted>
0.0000

> <Gold.Chemscore.DEClash.Weighted>
1.1889

> <Gold.Chemscore.DEInternal.Weighted>
0.1045

> <Gold.Chemscore.Rot.Weighted>
2.5600

> <Gold.Chemscore.Internal.Correction.Weighted>
   9.000000E+99

> <Gold.Protein.RotatedTorsions>
[ 6907 6896 6895 6894 ] final -103.24 input  -60.11 | X-H torsion
[ 7974 7965 7964 7962 ] final -108.72 input  175.53 | X-H torsion
[ 8008 7997 7996 7995 ] final  -67.84 input   59.86 | X-H torsion
[ 10167 10162 10161 10158 ] final  -94.74 input  -65.29 | X-H torsion
[ 10718 10713 10712 10709 ] final   92.55 input   66.30 | X-H torsion
[ 10763 10752 10751 10750 ] final   93.85 input  -60.55 | X-H torsion
[ 11005 11000 10999 10996 ] final  129.58 input  -57.11 | X-H torsion

> <Gold.Protein.ActiveResidues>
 VAL166  LYS551  ARG553  GLY616  TRP617  ASP618  TYR619  PRO620  LYS621  CYS622 
 ASP623  PHE694  ASN695  SER759  ASP760  ASP761  ALA762  ILE779  LEU786  VAL792 
 PHE793  MET794  SER795  GLU796  ALA797  LYS798  CYS799  TRP800  GLU811  SER814 

> <Gold.Protein.RotatedAtoms>
  150.7231  134.0460  159.3781 H   0  0  0  0  0  0  0  0  0  0  0  0  # atno 6907 bound_to 6896
  151.8435  135.0580  160.0460 H   0  0  0  0  0  0  0  0  0  0  0  0  # atno 6908 bound_to 6896
  152.2845  133.5465  159.5555 H   0  0  0  0  0  0  0  0  0  0  0  0  # atno 6909 bound_to 6896
  145.1894  140.9007  143.3434 H   0  0  0  0  0  0  0  0  0  0  0  0  # atno 7974 bound_to 7965
  154.4827  140.0885  156.7414 H   0  0  0  0  0  0  0  0  0  0  0  0  # atno 8008 bound_to 7997
  155.4430  140.3454  155.4274 H   0  0  0  0  0  0  0  0  0  0  0  0  # atno 8009 bound_to 7997
  156.1215  140.1475  156.9186 H   0  0  0  0  0  0  0  0  0  0  0  0  # atno 8010 bound_to 7997
  140.3114  143.3103  152.0145 H   0  0  0  0  0  0  0  0  0  0  0  0  # atno 10167 bound_to 10162
  157.6958  131.0447  150.3899 H   0  0  0  0  0  0  0  0  0  0  0  0  # atno 10718 bound_to 10713
  153.2349  135.4311  155.0636 H   0  0  0  0  0  0  0  0  0  0  0  0  # atno 10763 bound_to 10752
  154.8314  135.3388  154.6733 H   0  0  0  0  0  0  0  0  0  0  0  0  # atno 10764 bound_to 10752
  153.7159  135.7020  153.5081 H   0  0  0  0  0  0  0  0  0  0  0  0  # atno 10765 bound_to 10752
  139.9623  134.9599  156.9169 H   0  0  0  0  0  0  0  0  0  0  0  0  # atno 11005 bound_to 11000
  145.0057  139.3557  143.6145 LP  0  0  0  0  0  0  0  0  0  0  0  0  # atno 17320 bound_to 7965
  146.3439  139.9298  142.8755 LP  0  0  0  0  0  0  0  0  0  0  0  0  # atno 17321 bound_to 7965
  139.4893  144.6382  151.6932 LP  0  0  0  0  0  0  0  0  0  0  0  0  # atno 17342 bound_to 10162
  140.5565  144.0339  150.6150 LP  0  0  0  0  0  0  0  0  0  0  0  0  # atno 17343 bound_to 10162
  156.4303  130.3971  149.6764 LP  0  0  0  0  0  0  0  0  0  0  0  0  # atno 17370 bound_to 10713
  156.3984  130.7662  151.2668 LP  0  0  0  0  0  0  0  0  0  0  0  0  # atno 17371 bound_to 10713
  140.5472  134.0662  155.7358 LP  0  0  0  0  0  0  0  0  0  0  0  0  # atno 17394 bound_to 11000
  141.1301  133.9316  157.2553 LP  0  0  0  0  0  0  0  0  0  0  0  0  # atno 17395 bound_to 11000

$$$$
