AV-unprocessed.smi:15|AV-procd|sdf|81|dock7
  -GOLD-   2262015213D 1   1.00000     0.00000
 Structure written by MMmdl.
 53 56  0  0  0  0  0  0  0  0  1 V2000
  141.6738  134.8241  153.2715 C   0  0  0  0  0  0  0  0  0  0  0  0
  142.9753  134.4786  152.5351 C   0  0  0  0  0  0  0  0  0  0  0  0
  143.6875  135.6590  152.0367 N   0  0  0  0  0  0  0  0  0  0  0  0
  144.5365  135.5368  150.8483 C   0  0  0  0  0  0  0  0  0  0  0  0
  145.1763  134.1445  150.6971 C   0  0  2  0  0  0  0  0  0  0  0  0
  144.2074  133.0866  150.1761 C   0  0  0  0  0  0  0  0  0  0  0  0
  144.8188  131.7820  150.6606 C   0  0  0  0  0  0  0  0  0  0  0  0
  145.7732  132.2135  151.7782 C   0  0  0  0  0  0  0  0  0  0  0  0
  145.5353  133.6027  151.9582 O   0  0  0  0  0  0  0  0  0  0  0  0
  144.1530  136.5305  152.9700 C   0  0  0  0  0  0  0  0  0  0  0  0
  143.6141  136.5302  154.2191 N   0  0  0  0  0  0  0  0  0  0  0  0
  144.0817  137.3576  155.1579 C   0  0  0  0  0  0  0  0  0  0  0  0
  145.0644  138.2546  155.0641 N   0  0  0  0  0  0  0  0  0  0  0  0
  145.6023  138.2701  153.8112 C   0  0  0  0  0  0  0  0  0  0  0  0
  145.2130  137.4471  152.7162 C   0  0  0  0  0  0  0  0  0  0  0  0
  145.9890  137.7471  151.6024 N   0  0  0  0  0  0  0  0  0  0  0  0
  146.7973  138.6830  152.0187 C   0  0  0  0  0  0  0  0  0  0  0  0
  146.6254  139.0679  153.3291 N   0  0  0  0  0  0  0  0  0  0  0  0
  147.3830  140.0832  154.0449 C   0  0  0  0  0  0  0  0  0  0  0  0
  148.5173  139.5220  154.9450 C   0  0  2  0  0  0  0  0  0  0  0  0
  148.0257  138.3836  155.6304 O   0  0  0  0  0  0  0  0  0  0  0  0
  149.0487  140.5195  155.9685 C   0  0  0  0  0  0  0  0  0  0  0  0
  150.0788  141.2902  155.1586 C   0  0  0  0  0  0  0  0  0  0  0  0
  150.6989  140.2894  154.3652 O   0  0  0  0  0  0  0  0  0  0  0  0
  149.7886  139.2181  154.1110 C   0  0  1  0  0  0  0  0  0  0  0  0
  150.5284  137.9176  154.4695 C   0  0  0  0  0  0  0  0  0  0  0  0
  141.2276  133.9259  153.6985 H   0  0  0  0  0  0  0  0  0  0  0  0
  140.9348  135.2646  152.6026 H   0  0  0  0  0  0  0  0  0  0  0  0
  141.8560  135.5243  154.0871 H   0  0  0  0  0  0  0  0  0  0  0  0
  143.6202  133.9386  153.2301 H   0  0  0  0  0  0  0  0  0  0  0  0
  142.7679  133.7967  151.7102 H   0  0  0  0  0  0  0  0  0  0  0  0
  143.9646  135.7847  149.9549 H   0  0  0  0  0  0  0  0  0  0  0  0
  145.3295  136.2821  150.8893 H   0  0  0  0  0  0  0  0  0  0  0  0
  146.0553  134.1805  150.0506 H   0  0  0  0  0  0  0  0  0  0  0  0
  143.2248  133.2208  150.6310 H   0  0  0  0  0  0  0  0  0  0  0  0
  144.0853  133.1232  149.0931 H   0  0  0  0  0  0  0  0  0  0  0  0
  144.0514  131.0954  151.0190 H   0  0  0  0  0  0  0  0  0  0  0  0
  145.3703  131.2842  149.8623 H   0  0  0  0  0  0  0  0  0  0  0  0
  145.6059  131.6672  152.7066 H   0  0  0  0  0  0  0  0  0  0  0  0
  146.8105  132.0623  151.4762 H   0  0  0  0  0  0  0  0  0  0  0  0
  143.6013  137.2895  156.1226 H   0  0  0  0  0  0  0  0  0  0  0  0
  147.5410  139.1286  151.3738 H   0  0  0  0  0  0  0  0  0  0  0  0
  147.7986  140.7752  153.3109 H   0  0  0  0  0  0  0  0  0  0  0  0
  146.6796  140.6679  154.6388 H   0  0  0  0  0  0  0  0  0  0  0  0
  148.5024  137.6246  155.3316 H   0  0  0  0  0  0  0  0  0  0  0  0
  148.2917  141.1581  156.4208 H   0  0  0  0  0  0  0  0  0  0  0  0
  149.5590  139.9972  156.7796 H   0  0  0  0  0  0  0  0  0  0  0  0
  149.5976  142.0235  154.5104 H   0  0  0  0  0  0  0  0  0  0  0  0
  150.8041  141.8106  155.7840 H   0  0  0  0  0  0  0  0  0  0  0  0
  149.5540  139.2026  153.0457 H   0  0  0  0  0  0  0  0  0  0  0  0
  149.9148  137.0402  154.2624 H   0  0  0  0  0  0  0  0  0  0  0  0
  150.8071  137.8962  155.5235 H   0  0  0  0  0  0  0  0  0  0  0  0
  151.4433  137.8200  153.8848 H   0  0  0  0  0  0  0  0  0  0  0  0
  1  2  1  0  0  0  0
  1 27  1  0  0  0  0
  1 28  1  0  0  0  0
  1 29  1  0  0  0  0
  2  3  1  0  0  0  0
  2 30  1  0  0  0  0
  2 31  1  0  0  0  0
  3  4  1  0  0  0  0
  3 10  1  0  0  0  0
  4  5  1  0  0  0  0
  4 32  1  0  0  0  0
  4 33  1  0  0  0  0
  5  9  1  0  0  0  0
  5  6  1  0  0  0  0
  5 34  1  0  0  0  0
  6  7  1  0  0  0  0
  6 35  1  0  0  0  0
  6 36  1  0  0  0  0
  7  8  1  0  0  0  0
  7 37  1  0  0  0  0
  7 38  1  0  0  0  0
  8  9  1  0  0  0  0
  8 39  1  0  0  0  0
  8 40  1  0  0  0  0
 10 15  1  0  0  0  0
 10 11  2  0  0  0  0
 11 12  1  0  0  0  0
 12 13  2  0  0  0  0
 12 41  1  0  0  0  0
 13 14  1  0  0  0  0
 14 18  1  0  0  0  0
 14 15  2  0  0  0  0
 15 16  1  0  0  0  0
 16 17  2  0  0  0  0
 17 18  1  0  0  0  0
 17 42  1  0  0  0  0
 18 19  1  0  0  0  0
 19 20  1  0  0  0  0
 19 43  1  0  0  0  0
 19 44  1  0  0  0  0
 20 25  1  0  0  0  0
 20 21  1  0  0  0  0
 20 22  1  0  0  0  0
 21 45  1  0  0  0  0
 22 23  1  0  0  0  0
 22 46  1  0  0  0  0
 22 47  1  0  0  0  0
 23 24  1  0  0  0  0
 23 48  1  0  0  0  0
 23 49  1  0  0  0  0
 24 25  1  0  0  0  0
 25 26  1  0  0  0  0
 25 50  1  0  0  0  0
 26 51  1  0  0  0  0
 26 52  1  0  0  0  0
 26 53  1  0  0  0  0
M  END
> <s_m_source_file>
AV-unprocessed.smi

> <i_m_source_file_index>
15

> <i_lp_mmshare_version>
43012

> <i_f3d_flags>
0

> <s_epik_input>
TzFbQ0gyXVtDSDJdW0NIMl1bQ0BIXTFbQ0gyXU4oW0NIMl1bQ0gzXSljKG5bY0hdbjIpYyhjMjMpbltjSF1uM1tDSDJdW0NAQF00KFtPSF0pW0NIMl1bQ0gyXU9bQ0BIXTRbQ0gzXQ==

> <s_epik_cmdline>
J2VwaWtfcHl0aG9uJywgJy1waCcsICc3LjAnLCAnLXRuJywgJzgnLCAnLW1hJywgJzIwMCcsICctbWV0YWxfYmluZGluZycsICctaW1hZScsICc8aW5maWxlLm1hZT4nLCAnLW9tYWUnLCAnPG91dGZpbGUubWFlPic=

> <r_lp_tautomer_probability>
1

> <r_epik_Ionization_Penalty>
0.00360814

> <r_epik_Ionization_Penalty_Charging>
0

> <r_epik_Ionization_Penalty_Neutral>
0.00360814

> <r_epik_State_Penalty>
0.00237482

> <r_epik_Charging_Adjusted_Penalty>
0.00237482

> <i_epik_Tot_Q>
0

> <i_epik_Tot_abs_Q>
0

> <r_epik_Metal_State_Penalty>
-0

> <b_epik_Metal_Only>
0

> <s_lp_Force_Field>
OPLS_2005

> <r_lp_Energy>
47.2651

> <b_lp_Chiralities_Consistent>
1

> <s_lp_Variant>
AV-unprocessed.smi:15-3

> <Gold.Version>
5.8.1

> <Gold.Id.Protein>
6NUR|6NUR_protein|mol2

> <Gold.PLP.Fitness>
44.5305

> <Gold.PLP.PLP>
-40.1004

> <Gold.PLP.part.hbond>
-0.9515

> <Gold.PLP.part.metal>
0.0000

> <Gold.PLP.part.buried>
-5.4986

> <Gold.PLP.part.nonpolar>
-35.4233

> <Gold.PLP.part.repulsive>
1.9007

> <Gold.PLP.ligand.clash>
0.0000

> <Gold.PLP.ligand.torsion>
1.2562

> <Gold.PLP.Chemscore.Hbond>
1.0000

> <Gold.PLP.Chemscore.CHOScore>
1.0000

> <Gold.PLP.Chemscore.Metal>
0.0000

> <Gold.Chemscore.Hbonds>
donor molecule, donor type, donor heavy atom, donor atom, acceptor molecule, acceptor atom, score
      P1  H  7989  7998       L1    24  0.67
      L1  C    17    42       P1  7957  1.00

> <Gold.PLP.Chemscore.Internal.Correction>
0.9425

> <Gold.Rescore>
     Score         DG    S(hbond)    S(metal)    S(lipo)     H(rot)  DE(clash)    DE(int)     intcor
      6.87     -12.81       0.89        0.00      90.56       2.44       0.36       5.58       ----

> <Gold.Chemscore.Fitness>
6.8684

> <Gold.Chemscore.DG>
-12.8082

> <Gold.Chemscore.ZeroCoef>
-5.4800

> <Gold.Chemscore.Hbond>
0.8943

> <Gold.Chemscore.Metal>
0.0000

> <Gold.Chemscore.Lipo>
90.5626

> <Gold.Chemscore.Internal_Hbond>
0.0000

> <Gold.Chemscore.DEClash>
0.3613

> <Gold.Chemscore.DEInternal>
5.5785

> <Gold.Chemscore.Rot>
2.4431

> <Gold.Chemscore.Internal.Correction>
   9.000000E+99

> <Gold.Chemscore.Hbonds>
donor molecule, donor type, donor heavy atom, donor atom, acceptor molecule, acceptor atom, score
      P1  H  7989  7998       L1    24  0.49

> <Gold.Chemscore.Hbond.Weighted>
-2.9868

> <Gold.Chemscore.Metal.Weighted>
-0.0000

> <Gold.Chemscore.Lipo.Weighted>
-10.5958

> <Gold.Chemscore.Internal_Hbond.Weighted>
0.0000

> <Gold.Chemscore.DEClash.Weighted>
0.3613

> <Gold.Chemscore.DEInternal.Weighted>
5.5785

> <Gold.Chemscore.Rot.Weighted>
6.2544

> <Gold.Chemscore.Internal.Correction.Weighted>
   9.000000E+99

> <Gold.Protein.RotatedTorsions>
[ 6907 6896 6895 6894 ] final  143.01 input  -60.11 | X-H torsion
[ 7974 7965 7964 7962 ] final  147.70 input  175.53 | X-H torsion
[ 8008 7997 7996 7995 ] final -112.93 input   59.86 | X-H torsion
[ 10167 10162 10161 10158 ] final   57.86 input  -65.29 | X-H torsion
[ 10718 10713 10712 10709 ] final -137.88 input   66.30 | X-H torsion
[ 10763 10752 10751 10750 ] final   96.25 input  -60.55 | X-H torsion
[ 11005 11000 10999 10996 ] final  -48.85 input  -57.11 | X-H torsion

> <Gold.Protein.ActiveResidues>
 VAL166  LYS551  ARG553  GLY616  TRP617  ASP618  TYR619  PRO620  LYS621  CYS622 
 ASP623  PHE694  ASN695  SER759  ASP760  ASP761  ALA762  ILE779  LEU786  VAL792 
 PHE793  MET794  SER795  GLU796  ALA797  LYS798  CYS799  TRP800  GLU811  SER814 

> <Gold.Protein.RotatedAtoms>
  152.2116  133.4916  159.5113 H   0  0  0  0  0  0  0  0  0  0  0  0  # atno 6907 bound_to 6896
  150.6991  134.1459  159.4131 H   0  0  0  0  0  0  0  0  0  0  0  0  # atno 6908 bound_to 6896
  151.9378  135.0227  160.0584 H   0  0  0  0  0  0  0  0  0  0  0  0  # atno 6909 bound_to 6896
  144.8571  139.6061  143.5947 H   0  0  0  0  0  0  0  0  0  0  0  0  # atno 7974 bound_to 7965
  155.0129  140.0393  157.2406 H   0  0  0  0  0  0  0  0  0  0  0  0  # atno 8008 bound_to 7997
  154.7445  140.2755  155.6322 H   0  0  0  0  0  0  0  0  0  0  0  0  # atno 8009 bound_to 7997
  156.2871  140.2659  156.2181 H   0  0  0  0  0  0  0  0  0  0  0  0  # atno 8010 bound_to 7997
  140.1934  144.4062  150.6561 H   0  0  0  0  0  0  0  0  0  0  0  0  # atno 10167 bound_to 10162
  156.2931  130.7386  151.1417 H   0  0  0  0  0  0  0  0  0  0  0  0  # atno 10718 bound_to 10713
  153.2627  135.4225  155.0910 H   0  0  0  0  0  0  0  0  0  0  0  0  # atno 10763 bound_to 10752
  154.8426  135.3453  154.6355 H   0  0  0  0  0  0  0  0  0  0  0  0  # atno 10764 bound_to 10752
  153.6775  135.7040  153.5185 H   0  0  0  0  0  0  0  0  0  0  0  0  # atno 10765 bound_to 10752
  141.0725  133.6675  156.3500 H   0  0  0  0  0  0  0  0  0  0  0  0  # atno 11005 bound_to 11000
  146.2831  139.6932  142.9214 LP  0  0  0  0  0  0  0  0  0  0  0  0  # atno 17320 bound_to 7965
  145.4385  141.0420  143.2871 LP  0  0  0  0  0  0  0  0  0  0  0  0  # atno 17321 bound_to 7965
  140.6440  143.2209  151.6227 LP  0  0  0  0  0  0  0  0  0  0  0  0  # atno 17342 bound_to 10162
  139.5246  144.3098  152.1002 LP  0  0  0  0  0  0  0  0  0  0  0  0  # atno 17343 bound_to 10162
  157.7348  131.0578  150.5505 LP  0  0  0  0  0  0  0  0  0  0  0  0  # atno 17370 bound_to 10713
  156.5624  130.4259  149.6057 LP  0  0  0  0  0  0  0  0  0  0  0  0  # atno 17371 bound_to 10713
  140.5644  134.5902  157.5442 LP  0  0  0  0  0  0  0  0  0  0  0  0  # atno 17394 bound_to 11000
  139.9537  134.7571  156.0389 LP  0  0  0  0  0  0  0  0  0  0  0  0  # atno 17395 bound_to 11000

$$$$
