AV-unprocessed.smi:1809|AV-procd|sdf|7312|dock10
  -GOLD-   22720 8573D 1   1.00000     0.00000
 Structure written by MMmdl.
 40 42  0  0  0  0  0  0  0  0  2 V2000
  150.6216  142.0449  156.0182 C   0  0  0  0  0  0  0  0  0  0  0  0
  150.1641  140.9045  155.1741 C   0  0  0  0  0  0  0  0  0  0  0  0
  150.9861  139.9311  154.7618 N   0  0  0  0  0  0  0  0  0  0  0  0
  150.3340  138.9809  153.9873 N   0  0  0  0  0  0  0  0  0  0  0  0
  149.0373  139.2642  153.8366 C   0  0  0  0  0  0  0  0  0  0  0  0
  148.2473  138.3792  153.0609 N   0  0  0  0  0  0  0  0  0  0  0  0
  147.0431  138.6105  152.5139 C   0  0  0  0  0  0  0  0  0  0  0  0
  146.3920  139.6483  152.6328 O   0  0  0  0  0  0  0  0  0  0  0  0
  146.6188  137.5527  151.8081 N   0  0  0  0  0  0  0  0  0  0  0  0
  145.3628  137.4912  151.0685 C   0  0  0  0  0  0  0  0  0  0  0  0
  144.6068  136.1755  151.3235 C   0  0  1  0  0  0  0  0  0  0  0  0
  144.5140  135.3188  150.0509 C   0  0  0  0  0  0  0  0  0  0  0  0
  143.8266  134.0283  150.3094 N   0  3  1  0  0  0  0  0  0  0  0  0
  143.9876  133.0751  149.1874 C   0  0  0  0  0  0  0  0  0  0  0  0
  145.1008  132.0920  149.5954 C   0  0  0  0  0  0  0  0  0  0  0  0
  145.5364  132.5215  151.0000 C   0  0  0  0  0  0  0  0  0  0  0  0
  144.3406  133.3263  151.5062 C   0  0  1  0  0  0  0  0  0  0  0  0
  144.6128  134.2656  152.6992 C   0  0  0  0  0  0  0  0  0  0  0  0
  145.3269  135.4240  152.2922 O   0  0  0  0  0  0  0  0  0  0  0  0
  148.4959  140.7375  154.6411 S   0  0  0  0  0  0  0  0  0  0  0  0
  151.6559  141.9009  156.3324 H   0  0  0  0  0  0  0  0  0  0  0  0
  149.9956  142.1259  156.9069 H   0  0  0  0  0  0  0  0  0  0  0  0
  150.5541  142.9757  155.4549 H   0  0  0  0  0  0  0  0  0  0  0  0
  148.6567  137.4729  152.8879 H   0  0  0  0  0  0  0  0  0  0  0  0
  147.2122  136.7366  151.7669 H   0  0  0  0  0  0  0  0  0  0  0  0
  144.7390  138.3446  151.3400 H   0  0  0  0  0  0  0  0  0  0  0  0
  145.5842  137.5974  150.0061 H   0  0  0  0  0  0  0  0  0  0  0  0
  143.6027  136.3983  151.6898 H   0  0  0  0  0  0  0  0  0  0  0  0
  143.9740  135.8570  149.2712 H   0  0  0  0  0  0  0  0  0  0  0  0
  145.5192  135.1314  149.6683 H   0  0  0  0  0  0  0  0  0  0  0  0
  143.0496  132.5346  149.0551 H   0  0  0  0  0  0  0  0  0  0  0  0
  144.2048  133.5773  148.2434 H   0  0  0  0  0  0  0  0  0  0  0  0
  144.7110  131.0735  149.6113 H   0  0  0  0  0  0  0  0  0  0  0  0
  145.9386  132.1117  148.8978 H   0  0  0  0  0  0  0  0  0  0  0  0
  145.7785  131.6754  151.6438 H   0  0  0  0  0  0  0  0  0  0  0  0
  146.4210  133.1569  150.9366 H   0  0  0  0  0  0  0  0  0  0  0  0
  143.5745  132.6102  151.8096 H   0  0  0  0  0  0  0  0  0  0  0  0
  143.6732  134.5682  153.1640 H   0  0  0  0  0  0  0  0  0  0  0  0
  145.1836  133.7439  153.4678 H   0  0  0  0  0  0  0  0  0  0  0  0
  142.8458  134.2296  150.4446 H   0  0  0  0  0  0  0  0  0  0  0  0
  1  2  1  0  0  0  0
  1 21  1  0  0  0  0
  1 22  1  0  0  0  0
  1 23  1  0  0  0  0
  2 20  1  0  0  0  0
  2  3  2  0  0  0  0
  3  4  1  0  0  0  0
  4  5  2  0  0  0  0
  5  6  1  0  0  0  0
  5 20  1  0  0  0  0
  6  7  1  0  0  0  0
  6 24  1  0  0  0  0
  7  8  2  0  0  0  0
  7  9  1  0  0  0  0
  9 10  1  0  0  0  0
  9 25  1  0  0  0  0
 10 11  1  0  0  0  0
 10 26  1  0  0  0  0
 10 27  1  0  0  0  0
 11 19  1  0  0  0  0
 11 12  1  0  0  0  0
 11 28  1  0  0  0  0
 12 13  1  0  0  0  0
 12 29  1  0  0  0  0
 12 30  1  0  0  0  0
 13 17  1  0  0  0  0
 13 14  1  0  0  0  0
 13 40  1  0  0  0  0
 14 15  1  0  0  0  0
 14 31  1  0  0  0  0
 14 32  1  0  0  0  0
 15 16  1  0  0  0  0
 15 33  1  0  0  0  0
 15 34  1  0  0  0  0
 16 17  1  0  0  0  0
 16 35  1  0  0  0  0
 16 36  1  0  0  0  0
 17 18  1  0  0  0  0
 17 37  1  0  0  0  0
 18 19  1  0  0  0  0
 18 38  1  0  0  0  0
 18 39  1  0  0  0  0
M  CHG  1  13   1
M  END
> <s_m_source_file>
AV-unprocessed.smi

> <i_m_source_file_index>
1809

> <i_lp_mmshare_version>
43012

> <i_f3d_flags>
0

> <s_epik_input>
W0NIM11jMW5uYyhzMSlbTkhdQyg9TylbTkhdW0NIMl1bQ0BIXShbQ0gyXTIpT1tDSDJdW0NAQEhdKE4yMylbQ0gyXVtDSDJdW0NIMl0z

> <s_epik_cmdline>
J2VwaWtfcHl0aG9uJywgJy1waCcsICc3LjAnLCAnLXRuJywgJzgnLCAnLW1hJywgJzIwMCcsICctbWV0YWxfYmluZGluZycsICctaW1hZScsICc8aW5maWxlLm1hZT4nLCAnLW9tYWUnLCAnPG91dGZpbGUubWFlPic=

> <r_lp_tautomer_probability>
1

> <r_epik_Ionization_Penalty>
0.112474

> <r_epik_Ionization_Penalty_Charging>
0.108916

> <r_epik_Ionization_Penalty_Neutral>
0.00355844

> <r_epik_State_Penalty>
0.0565397

> <r_epik_Charging_Adjusted_Penalty>
0.165456

> <i_epik_Tot_Q>
1

> <i_epik_Tot_abs_Q>
1

> <r_epik_Metal_State_Penalty>
0.422831

> <b_epik_Metal_Only>
0

> <s_lp_Force_Field>
OPLS_2005

> <r_lp_Energy>
33.5148

> <b_lp_Chiralities_Consistent>
1

> <s_lp_Variant>
AV-unprocessed.smi:1809-4

> <Gold.Version>
5.8.1

> <Gold.Id.Protein>
6NUR|6NUR_protein|mol2

> <Gold.PLP.Fitness>
40.0979

> <Gold.PLP.PLP>
-29.1289

> <Gold.PLP.part.hbond>
-5.0000

> <Gold.PLP.part.metal>
0.0000

> <Gold.PLP.part.buried>
6.6437

> <Gold.PLP.part.nonpolar>
-32.8087

> <Gold.PLP.part.repulsive>
2.6604

> <Gold.PLP.ligand.clash>
0.0000

> <Gold.PLP.ligand.torsion>
0.8886

> <Gold.PLP.Chemscore.Hbond>
4.2480

> <Gold.PLP.Chemscore.CHOScore>
0.0000

> <Gold.PLP.Chemscore.Metal>
0.0000

> <Gold.Chemscore.Hbonds>
donor molecule, donor type, donor heavy atom, donor atom, acceptor molecule, acceptor atom, score
      L1  H     6    24       P1  7948  0.98
      L1  H     9    25       P1  7948  0.85
      L1  H    13    40       P1 10186  1.78
      P1  H  7989  7998       L1     3  0.63

> <Gold.PLP.Chemscore.Internal.Correction>
0.0023

> <Gold.Rescore>
     Score         DG    S(hbond)    S(metal)    S(lipo)     H(rot)  DE(clash)    DE(int)     intcor
     14.99     -19.22       2.31        0.00      80.83       1.34       3.32       0.90       ----

> <Gold.Chemscore.Fitness>
14.9928

> <Gold.Chemscore.DG>
-19.2177

> <Gold.Chemscore.ZeroCoef>
-5.4800

> <Gold.Chemscore.Hbond>
2.3079

> <Gold.Chemscore.Metal>
0.0000

> <Gold.Chemscore.Lipo>
80.8333

> <Gold.Chemscore.Internal_Hbond>
0.0000

> <Gold.Chemscore.DEClash>
3.3232

> <Gold.Chemscore.DEInternal>
0.9017

> <Gold.Chemscore.Rot>
1.3391

> <Gold.Chemscore.Internal.Correction>
   9.000000E+99

> <Gold.Chemscore.Hbonds>
donor molecule, donor type, donor heavy atom, donor atom, acceptor molecule, acceptor atom, score
      L1  H     6    24       P1  7948  0.93
      L1  H     9    25       P1  7948  0.83
      L1  H    13    40       P1 10186  0.65
      P1  H  7989  7998       L1     3  0.01

> <Gold.Chemscore.Hbond.Weighted>
-7.7083

> <Gold.Chemscore.Metal.Weighted>
-0.0000

> <Gold.Chemscore.Lipo.Weighted>
-9.4575

> <Gold.Chemscore.Internal_Hbond.Weighted>
0.0000

> <Gold.Chemscore.DEClash.Weighted>
3.3232

> <Gold.Chemscore.DEInternal.Weighted>
0.9017

> <Gold.Chemscore.Rot.Weighted>
3.4281

> <Gold.Chemscore.Internal.Correction.Weighted>
   9.000000E+99

> <Gold.Protein.RotatedTorsions>
[ 6907 6896 6895 6894 ] final  150.97 input  -60.11 | X-H torsion
[ 7974 7965 7964 7962 ] final  161.57 input  175.53 | X-H torsion
[ 8008 7997 7996 7995 ] final -145.56 input   59.86 | X-H torsion
[ 10167 10162 10161 10158 ] final   -0.24 input  -65.29 | X-H torsion
[ 10718 10713 10712 10709 ] final  113.25 input   66.30 | X-H torsion
[ 10763 10752 10751 10750 ] final -162.67 input  -60.55 | X-H torsion
[ 11005 11000 10999 10996 ] final  107.77 input  -57.11 | X-H torsion

> <Gold.Protein.ActiveResidues>
 VAL166  LYS551  ARG553  GLY616  TRP617  ASP618  TYR619  PRO620  LYS621  CYS622 
 ASP623  PHE694  ASN695  SER759  ASP760  ASP761  ALA762  ILE779  LEU786  VAL792 
 PHE793  MET794  SER795  GLU796  ALA797  LYS798  CYS799  TRP800  GLU811  SER814 

> <Gold.Protein.RotatedAtoms>
  152.1071  133.4280  159.4613 H   0  0  0  0  0  0  0  0  0  0  0  0  # atno 6907 bound_to 6896
  150.6866  134.2692  159.4590 H   0  0  0  0  0  0  0  0  0  0  0  0  # atno 6908 bound_to 6896
  152.0557  134.9625  160.0625 H   0  0  0  0  0  0  0  0  0  0  0  0  # atno 6909 bound_to 6896
  144.7679  139.7916  143.6308 H   0  0  0  0  0  0  0  0  0  0  0  0  # atno 7974 bound_to 7965
  155.5451  140.0611  157.2862 H   0  0  0  0  0  0  0  0  0  0  0  0  # atno 8008 bound_to 7997
  154.4439  140.1912  156.0674 H   0  0  0  0  0  0  0  0  0  0  0  0  # atno 8009 bound_to 7997
  156.0557  140.3279  155.7406 H   0  0  0  0  0  0  0  0  0  0  0  0  # atno 8010 bound_to 7997
  140.6759  143.6918  150.8021 H   0  0  0  0  0  0  0  0  0  0  0  0  # atno 10167 bound_to 10162
  157.6349  131.0980  150.7013 H   0  0  0  0  0  0  0  0  0  0  0  0  # atno 10718 bound_to 10713
  154.7193  135.3022  154.9073 H   0  0  0  0  0  0  0  0  0  0  0  0  # atno 10763 bound_to 10752
  153.9950  135.6714  153.4760 H   0  0  0  0  0  0  0  0  0  0  0  0  # atno 10764 bound_to 10752
  153.0820  135.5004  154.8438 H   0  0  0  0  0  0  0  0  0  0  0  0  # atno 10765 bound_to 10752
  139.8833  134.9411  156.5871 H   0  0  0  0  0  0  0  0  0  0  0  0  # atno 11005 bound_to 11000
  146.1802  139.4991  142.9871 LP  0  0  0  0  0  0  0  0  0  0  0  0  # atno 17320 bound_to 7965
  145.6413  141.0283  143.1810 LP  0  0  0  0  0  0  0  0  0  0  0  0  # atno 17321 bound_to 7965
  140.0611  143.5154  152.2627 LP  0  0  0  0  0  0  0  0  0  0  0  0  # atno 17342 bound_to 10162
  139.6051  144.7594  151.3081 LP  0  0  0  0  0  0  0  0  0  0  0  0  # atno 17343 bound_to 10162
  156.7346  130.4720  149.5491 LP  0  0  0  0  0  0  0  0  0  0  0  0  # atno 17370 bound_to 10713
  156.1580  130.6354  151.0682 LP  0  0  0  0  0  0  0  0  0  0  0  0  # atno 17371 bound_to 10713
  140.7984  133.8526  155.8705 LP  0  0  0  0  0  0  0  0  0  0  0  0  # atno 17394 bound_to 11000
  140.9615  134.1649  157.4650 LP  0  0  0  0  0  0  0  0  0  0  0  0  # atno 17395 bound_to 11000

$$$$
