AV-unprocessed.smi:3303|AV-procd|sdf|12691|dock5
  -GOLD-   2272019 23D 1   1.00000     0.00000
 Structure written by MMmdl.
 44 45  0  0  0  0  0  0  0  0  2 V2000
  150.9270  138.9797  154.4054 C   0  0  0  0  0  0  0  0  0  0  0  0
  149.6645  139.2453  155.2522 C   0  0  2  0  0  0  0  0  0  0  0  0
  148.3885  138.8232  154.4949 C   0  0  0  0  0  0  0  0  0  0  0  0
  148.0772  139.7581  153.3824 N   0  3  1  0  0  0  0  0  0  0  0  0
  146.9944  139.2633  152.5027 C   0  0  0  0  0  0  0  0  0  0  0  0
  147.9098  141.1738  153.8208 C   0  0  1  0  0  0  0  0  0  0  0  0
  146.6137  141.4250  154.6217 C   0  0  0  0  0  0  0  0  0  0  0  0
  149.1668  141.6466  154.5786 C   0  0  0  0  0  0  0  0  0  0  0  0
  149.5244  140.7093  155.7475 C   0  0  2  0  0  0  0  0  0  0  0  0
  150.7298  141.2124  156.3981 N   0  0  0  0  0  0  0  0  0  0  0  0
  150.4311  142.2186  157.4072 C   0  0  0  0  0  0  0  0  0  0  0  0
  151.6819  143.0665  157.6739 C   0  0  0  0  0  0  0  0  0  0  0  0
  152.1472  142.9558  159.1133 C   0  0  0  0  0  0  0  0  0  0  0  0
  152.8713  141.8260  159.5510 C   0  0  0  0  0  0  0  0  0  0  0  0
  153.2714  141.7669  160.8999 C   0  0  0  0  0  0  0  0  0  0  0  0
  152.9326  142.8330  161.7552 C   0  0  0  0  0  0  0  0  0  0  0  0
  152.2058  143.9158  161.2210 C   0  0  0  0  0  0  0  0  0  0  0  0
  151.8168  143.9824  159.9292 N   0  0  0  0  0  0  0  0  0  0  0  0
  150.9447  139.5800  153.4963 H   0  0  0  0  0  0  0  0  0  0  0  0
  150.9805  137.9327  154.1064 H   0  0  0  0  0  0  0  0  0  0  0  0
  151.8376  139.1973  154.9640 H   0  0  0  0  0  0  0  0  0  0  0  0
  149.7325  138.5950  156.1242 H   0  0  0  0  0  0  0  0  0  0  0  0
  148.5155  137.8149  154.0985 H   0  0  0  0  0  0  0  0  0  0  0  0
  147.5431  138.7729  155.1814 H   0  0  0  0  0  0  0  0  0  0  0  0
  146.0669  139.1119  153.0556 H   0  0  0  0  0  0  0  0  0  0  0  0
  147.2770  138.3097  152.0560 H   0  0  0  0  0  0  0  0  0  0  0  0
  146.8030  139.9648  151.6901 H   0  0  0  0  0  0  0  0  0  0  0  0
  147.8422  141.7786  152.9154 H   0  0  0  0  0  0  0  0  0  0  0  0
  146.5446  142.4712  154.9208 H   0  0  0  0  0  0  0  0  0  0  0  0
  146.5624  140.8263  155.5305 H   0  0  0  0  0  0  0  0  0  0  0  0
  145.7240  141.2090  154.0302 H   0  0  0  0  0  0  0  0  0  0  0  0
  150.0036  141.7042  153.8812 H   0  0  0  0  0  0  0  0  0  0  0  0
  149.0163  142.6633  154.9445 H   0  0  0  0  0  0  0  0  0  0  0  0
  148.7108  140.7582  156.4726 H   0  0  0  0  0  0  0  0  0  0  0  0
  151.3371  141.6229  155.7027 H   0  0  0  0  0  0  0  0  0  0  0  0
  149.6153  142.8556  157.0627 H   0  0  0  0  0  0  0  0  0  0  0  0
  150.1103  141.7433  158.3340 H   0  0  0  0  0  0  0  0  0  0  0  0
  152.4923  142.7568  157.0122 H   0  0  0  0  0  0  0  0  0  0  0  0
  151.4832  144.1151  157.4464 H   0  0  0  0  0  0  0  0  0  0  0  0
  153.1135  141.0219  158.8717 H   0  0  0  0  0  0  0  0  0  0  0  0
  153.8268  140.9185  161.2716 H   0  0  0  0  0  0  0  0  0  0  0  0
  153.2222  142.8214  162.7954 H   0  0  0  0  0  0  0  0  0  0  0  0
  151.9283  144.7501  161.8481 H   0  0  0  0  0  0  0  0  0  0  0  0
  148.9049  139.7621  152.8032 H   0  0  0  0  0  0  0  0  0  0  0  0
  1  2  1  0  0  0  0
  1 19  1  0  0  0  0
  1 20  1  0  0  0  0
  1 21  1  0  0  0  0
  2  9  1  0  0  0  0
  2  3  1  0  0  0  0
  2 22  1  0  0  0  0
  3  4  1  0  0  0  0
  3 23  1  0  0  0  0
  3 24  1  0  0  0  0
  4  5  1  0  0  0  0
  4  6  1  0  0  0  0
  4 44  1  0  0  0  0
  5 25  1  0  0  0  0
  5 26  1  0  0  0  0
  5 27  1  0  0  0  0
  6  7  1  0  0  0  0
  6  8  1  0  0  0  0
  6 28  1  0  0  0  0
  7 29  1  0  0  0  0
  7 30  1  0  0  0  0
  7 31  1  0  0  0  0
  8  9  1  0  0  0  0
  8 32  1  0  0  0  0
  8 33  1  0  0  0  0
  9 10  1  0  0  0  0
  9 34  1  0  0  0  0
 10 11  1  0  0  0  0
 10 35  1  0  0  0  0
 11 12  1  0  0  0  0
 11 36  1  0  0  0  0
 11 37  1  0  0  0  0
 12 13  1  0  0  0  0
 12 38  1  0  0  0  0
 12 39  1  0  0  0  0
 13 18  1  0  0  0  0
 13 14  2  0  0  0  0
 14 15  1  0  0  0  0
 14 40  1  0  0  0  0
 15 16  2  0  0  0  0
 15 41  1  0  0  0  0
 16 17  1  0  0  0  0
 16 42  1  0  0  0  0
 17 18  2  0  0  0  0
 17 43  1  0  0  0  0
M  CHG  1   4   1
M  END
> <s_m_source_file>
AV-unprocessed.smi

> <i_m_source_file_index>
3303

> <i_lp_mmshare_version>
43012

> <i_f3d_flags>
0

> <s_epik_input>
W0NIM11bQ0BASF0xW0NIMl1OKFtDSDNdKVtDQEBIXShbQ0gzXSlbQ0gyXVtDQEhdMVtOSF1bQ0gyXVtDSDJdYzJbY0hdW2NIXVtjSF1bY0hdbjI=

> <s_epik_cmdline>
J2VwaWtfcHl0aG9uJywgJy1waCcsICc3LjAnLCAnLXRuJywgJzgnLCAnLW1hJywgJzIwMCcsICctbWV0YWxfYmluZGluZycsICctaW1hZScsICc8aW5maWxlLm1hZT4nLCAnLW9tYWUnLCAnPG91dGZpbGUubWFlPic=

> <r_epik_Ionization_Penalty>
2.31085

> <r_epik_Ionization_Penalty_Charging>
0.000313057

> <r_epik_Ionization_Penalty_Neutral>
2.31054

> <r_epik_State_Penalty>
2.4087

> <r_epik_Charging_Adjusted_Penalty>
2.40902

> <i_epik_Tot_Q>
1

> <i_epik_Tot_abs_Q>
1

> <r_epik_Metal_State_Penalty>
2.30979

> <b_epik_Metal_Only>
0

> <s_lp_Force_Field>
OPLS_2005

> <r_lp_Energy>
26.3276

> <b_lp_Chiralities_Consistent>
1

> <s_lp_Variant>
AV-unprocessed.smi:3303-35

> <Gold.Version>
5.8.1

> <Gold.Id.Protein>
6NUR|6NUR_protein|mol2

> <Gold.PLP.Fitness>
43.1320

> <Gold.PLP.PLP>
-42.5449

> <Gold.PLP.part.hbond>
-1.0000

> <Gold.PLP.part.metal>
0.0000

> <Gold.PLP.part.buried>
-3.3001

> <Gold.PLP.part.nonpolar>
-37.8512

> <Gold.PLP.part.repulsive>
0.1258

> <Gold.PLP.ligand.clash>
0.0000

> <Gold.PLP.ligand.torsion>
1.0579

> <Gold.PLP.Chemscore.Hbond>
0.8960

> <Gold.PLP.Chemscore.CHOScore>
0.0000

> <Gold.PLP.Chemscore.Metal>
0.0000

> <Gold.Chemscore.Hbonds>
donor molecule, donor type, donor heavy atom, donor atom, acceptor molecule, acceptor atom, score
      L1  H     4    44       P1  7957  0.94

> <Gold.PLP.Chemscore.Internal.Correction>
0.0150

> <Gold.Rescore>
     Score         DG    S(hbond)    S(metal)    S(lipo)     H(rot)  DE(clash)    DE(int)     intcor
     18.82     -19.82       0.95        0.00     124.43       1.33       0.03       0.98       ----

> <Gold.Chemscore.Fitness>
18.8205

> <Gold.Chemscore.DG>
-19.8237

> <Gold.Chemscore.ZeroCoef>
-5.4800

> <Gold.Chemscore.Hbond>
0.9530

> <Gold.Chemscore.Metal>
0.0000

> <Gold.Chemscore.Lipo>
124.4302

> <Gold.Chemscore.Internal_Hbond>
0.0000

> <Gold.Chemscore.DEClash>
0.0268

> <Gold.Chemscore.DEInternal>
0.9764

> <Gold.Chemscore.Rot>
1.3272

> <Gold.Chemscore.Internal.Correction>
   9.000000E+99

> <Gold.Chemscore.Hbonds>
donor molecule, donor type, donor heavy atom, donor atom, acceptor molecule, acceptor atom, score
      L1  H     4    44       P1  7957  0.91

> <Gold.Chemscore.Hbond.Weighted>
-3.1830

> <Gold.Chemscore.Metal.Weighted>
-0.0000

> <Gold.Chemscore.Lipo.Weighted>
-14.5583

> <Gold.Chemscore.Internal_Hbond.Weighted>
0.0000

> <Gold.Chemscore.DEClash.Weighted>
0.0268

> <Gold.Chemscore.DEInternal.Weighted>
0.9764

> <Gold.Chemscore.Rot.Weighted>
3.3976

> <Gold.Chemscore.Internal.Correction.Weighted>
   9.000000E+99

> <Gold.Protein.RotatedTorsions>
[ 6907 6896 6895 6894 ] final   -7.00 input  -60.11 | X-H torsion
[ 7974 7965 7964 7962 ] final -150.96 input  175.53 | X-H torsion
[ 8008 7997 7996 7995 ] final -131.11 input   59.86 | X-H torsion
[ 10167 10162 10161 10158 ] final   61.63 input  -65.29 | X-H torsion
[ 10718 10713 10712 10709 ] final  100.19 input   66.30 | X-H torsion
[ 10763 10752 10751 10750 ] final   29.42 input  -60.55 | X-H torsion
[ 11005 11000 10999 10996 ] final -128.48 input  -57.11 | X-H torsion

> <Gold.Protein.ActiveResidues>
 VAL166  LYS551  ARG553  GLY616  TRP617  ASP618  TYR619  PRO620  LYS621  CYS622 
 ASP623  PHE694  ASN695  SER759  ASP760  ASP761  ALA762  ILE779  LEU786  VAL792 
 PHE793  MET794  SER795  GLU796  ALA797  LYS798  CYS799  TRP800  GLU811  SER814 

> <Gold.Protein.RotatedAtoms>
  151.4566  135.1034  159.9712 H   0  0  0  0  0  0  0  0  0  0  0  0  # atno 6907 bound_to 6896
  152.4868  133.8391  159.7153 H   0  0  0  0  0  0  0  0  0  0  0  0  # atno 6908 bound_to 6896
  150.8985  133.7089  159.2912 H   0  0  0  0  0  0  0  0  0  0  0  0  # atno 6909 bound_to 6896
  144.7877  140.4861  143.5794 H   0  0  0  0  0  0  0  0  0  0  0  0  # atno 7974 bound_to 7965
  155.3069  140.0455  157.3033 H   0  0  0  0  0  0  0  0  0  0  0  0  # atno 8008 bound_to 7997
  154.5455  140.2301  155.8537 H   0  0  0  0  0  0  0  0  0  0  0  0  # atno 8009 bound_to 7997
  156.1920  140.3048  155.9357 H   0  0  0  0  0  0  0  0  0  0  0  0  # atno 8010 bound_to 7997
  140.1527  144.4447  150.6750 H   0  0  0  0  0  0  0  0  0  0  0  0  # atno 10167 bound_to 10162
  157.6859  131.0691  150.5062 H   0  0  0  0  0  0  0  0  0  0  0  0  # atno 10718 bound_to 10713
  153.0431  135.6489  154.0888 H   0  0  0  0  0  0  0  0  0  0  0  0  # atno 10763 bound_to 10752
  154.0591  135.2889  155.3329 H   0  0  0  0  0  0  0  0  0  0  0  0  # atno 10764 bound_to 10752
  154.6669  135.5370  153.8154 H   0  0  0  0  0  0  0  0  0  0  0  0  # atno 10765 bound_to 10752
  140.9513  134.1062  157.4059 H   0  0  0  0  0  0  0  0  0  0  0  0  # atno 11005 bound_to 11000
  145.5877  139.1493  143.3200 LP  0  0  0  0  0  0  0  0  0  0  0  0  # atno 17320 bound_to 7965
  146.2116  140.6004  142.9057 LP  0  0  0  0  0  0  0  0  0  0  0  0  # atno 17321 bound_to 7965
  140.6692  143.2279  151.5667 LP  0  0  0  0  0  0  0  0  0  0  0  0  # atno 17342 bound_to 10162
  139.5418  144.2627  152.1365 LP  0  0  0  0  0  0  0  0  0  0  0  0  # atno 17343 bound_to 10162
  156.5381  130.4201  149.6167 LP  0  0  0  0  0  0  0  0  0  0  0  0  # atno 17370 bound_to 10713
  156.3009  130.7176  151.2048 LP  0  0  0  0  0  0  0  0  0  0  0  0  # atno 17371 bound_to 10713
  139.8848  135.0066  156.6395 LP  0  0  0  0  0  0  0  0  0  0  0  0  # atno 17394 bound_to 11000
  140.7599  133.8826  155.8410 LP  0  0  0  0  0  0  0  0  0  0  0  0  # atno 17395 bound_to 11000

$$$$
