AV-unprocessed.smi:2243|AV-procd|sdf|9068|dock5
  -GOLD-   2272012273D 1   1.00000     0.00000
 Structure written by MMmdl.
 34 35  0  0  0  0  0  0  0  0  1 V2000
  146.7634  141.5658  153.7049 C   0  0  0  0  0  0  0  0  0  0  0  0
  147.6242  140.3088  153.4916 C   0  0  2  0  0  0  0  0  0  0  0  0
  146.7353  139.1459  153.5098 N   0  0  0  0  0  0  0  0  0  0  0  0
  146.5557  138.2598  152.5175 C   0  0  0  0  0  0  0  0  0  0  0  0
  147.1609  138.3530  151.4449 O   0  0  0  0  0  0  0  0  0  0  0  0
  145.6380  137.2951  152.9087 N   0  0  0  0  0  0  0  0  0  0  0  0
  145.2764  136.3638  152.0798 C   0  0  0  0  0  0  0  0  0  0  0  0
  145.6229  136.0771  150.7620 N   0  0  0  0  0  0  0  0  0  0  0  0
  144.9324  134.9641  150.3717 C   0  0  0  0  0  0  0  0  0  0  0  0
  144.1836  134.5643  151.3950 C   0  0  0  0  0  0  0  0  0  0  0  0
  144.3726  135.4013  152.4535 O   0  0  0  0  0  0  0  0  0  0  0  0
  148.7495  140.1475  154.5482 C   0  0  0  0  0  0  0  0  0  0  0  0
  149.4594  141.4790  154.8675 C   0  0  0  0  0  0  0  0  0  0  0  0
  150.6168  141.2732  155.8582 C   0  0  0  0  0  0  0  0  0  0  0  0
  151.5411  140.3253  155.3394 O   0  0  0  0  0  0  0  0  0  0  0  0
  150.9599  139.0412  155.1512 C   0  0  0  0  0  0  0  0  0  0  0  0
  149.8236  139.1244  154.1198 C   0  0  0  0  0  0  0  0  0  0  0  0
  147.3401  142.4797  153.5668 H   0  0  0  0  0  0  0  0  0  0  0  0
  146.3328  141.5876  154.7066 H   0  0  0  0  0  0  0  0  0  0  0  0
  145.9407  141.6015  152.9898 H   0  0  0  0  0  0  0  0  0  0  0  0
  148.0944  140.4015  152.5113 H   0  0  0  0  0  0  0  0  0  0  0  0
  146.2077  139.0010  154.3585 H   0  0  0  0  0  0  0  0  0  0  0  0
  146.2644  136.5759  150.1620 H   0  0  0  0  0  0  0  0  0  0  0  0
  145.0539  134.5659  149.3752 H   0  0  0  0  0  0  0  0  0  0  0  0
  143.4948  133.7424  151.5228 H   0  0  0  0  0  0  0  0  0  0  0  0
  148.2949  139.7824  155.4707 H   0  0  0  0  0  0  0  0  0  0  0  0
  149.8447  141.9225  153.9486 H   0  0  0  0  0  0  0  0  0  0  0  0
  148.7603  142.1983  155.2930 H   0  0  0  0  0  0  0  0  0  0  0  0
  151.1382  142.2160  156.0240 H   0  0  0  0  0  0  0  0  0  0  0  0
  150.2443  140.9415  156.8288 H   0  0  0  0  0  0  0  0  0  0  0  0
  151.7314  138.3544  154.8026 H   0  0  0  0  0  0  0  0  0  0  0  0
  150.5941  138.6514  156.1025 H   0  0  0  0  0  0  0  0  0  0  0  0
  149.3884  138.1327  153.9956 H   0  0  0  0  0  0  0  0  0  0  0  0
  150.2350  139.4067  153.1498 H   0  0  0  0  0  0  0  0  0  0  0  0
  1  2  1  0  0  0  0
  1 18  1  0  0  0  0
  1 19  1  0  0  0  0
  1 20  1  0  0  0  0
  2  3  1  0  0  0  0
  2 12  1  0  0  0  0
  2 21  1  0  0  0  0
  3 22  1  0  0  0  0
  3  4  1  0  0  0  0
  4  6  1  0  0  0  0
  4  5  2  0  0  0  0
  6  7  2  0  0  0  0
  7 11  1  0  0  0  0
  7  8  1  0  0  0  0
  8 23  1  0  0  0  0
  8  9  1  0  0  0  0
  9 24  1  0  0  0  0
  9 10  2  0  0  0  0
 10 25  1  0  0  0  0
 10 11  1  0  0  0  0
 12 17  1  0  0  0  0
 12 13  1  0  0  0  0
 12 26  1  0  0  0  0
 13 14  1  0  0  0  0
 13 27  1  0  0  0  0
 13 28  1  0  0  0  0
 14 15  1  0  0  0  0
 14 29  1  0  0  0  0
 14 30  1  0  0  0  0
 15 16  1  0  0  0  0
 16 17  1  0  0  0  0
 16 31  1  0  0  0  0
 16 32  1  0  0  0  0
 17 33  1  0  0  0  0
 17 34  1  0  0  0  0
M  END
> <s_m_source_file>
AV-unprocessed.smi

> <i_m_source_file_index>
2243

> <i_lp_mmshare_version>
43012

> <i_f3d_flags>
0

> <s_epik_input>
W0NIMl0xW0NIMl1PW0NIMl1bQ0gyXVtDSF0xW0NASF0oW0NIM10pW05IXUMoPU8pW05IXWMybltjSF1bY0hdbzI=

> <s_epik_cmdline>
J2VwaWtfcHl0aG9uJywgJy1waCcsICc3LjAnLCAnLXRuJywgJzgnLCAnLW1hJywgJzIwMCcsICctbWV0YWxfYmluZGluZycsICctaW1hZScsICc8aW5maWxlLm1hZT4nLCAnLW9tYWUnLCAnPG91dGZpbGUubWFlPic=

> <r_lp_tautomer_probability>
0.107061

> <r_epik_Ionization_Penalty>
1.44639

> <r_epik_Ionization_Penalty_Charging>
1.44602

> <r_epik_Ionization_Penalty_Neutral>
0.000368208

> <r_epik_State_Penalty>
2.61815

> <r_epik_Charging_Adjusted_Penalty>
4.06418

> <i_epik_Tot_Q>
0

> <i_epik_Tot_abs_Q>
0

> <r_epik_Metal_State_Penalty>
3.54171

> <b_epik_Metal_Only>
0

> <s_lp_Force_Field>
OPLS_2005

> <r_lp_Energy>
34.9147

> <b_lp_Chiralities_Consistent>
1

> <s_lp_Variant>
AV-unprocessed.smi:2243-7

> <Gold.Version>
5.8.1

> <Gold.Id.Protein>
6NUR|6NUR_protein|mol2

> <Gold.PLP.Fitness>
39.5316

> <Gold.PLP.PLP>
-29.9053

> <Gold.PLP.part.hbond>
-3.0393

> <Gold.PLP.part.metal>
0.0000

> <Gold.PLP.part.buried>
-1.2742

> <Gold.PLP.part.nonpolar>
-27.8662

> <Gold.PLP.part.repulsive>
2.0358

> <Gold.PLP.ligand.clash>
0.0000

> <Gold.PLP.ligand.torsion>
0.2634

> <Gold.PLP.Chemscore.Hbond>
2.0000

> <Gold.PLP.Chemscore.CHOScore>
1.3793

> <Gold.PLP.Chemscore.Metal>
0.0000

> <Gold.Chemscore.Hbonds>
donor molecule, donor type, donor heavy atom, donor atom, acceptor molecule, acceptor atom, score
      P1  H  7954  7966       L1     5  1.00
      P1  H  7989  7998       L1    15  0.87
      L1  C     9    24       P1  7921  1.00

> <Gold.PLP.Chemscore.Internal.Correction>
0.0150

> <Gold.Rescore>
     Score         DG    S(hbond)    S(metal)    S(lipo)     H(rot)  DE(clash)    DE(int)     intcor
     11.75     -13.07       1.10        0.00      62.43       1.32       0.98       0.34       ----

> <Gold.Chemscore.Fitness>
11.7472

> <Gold.Chemscore.DG>
-13.0689

> <Gold.Chemscore.ZeroCoef>
-5.4800

> <Gold.Chemscore.Hbond>
1.0970

> <Gold.Chemscore.Metal>
0.0000

> <Gold.Chemscore.Lipo>
62.4301

> <Gold.Chemscore.Internal_Hbond>
0.0000

> <Gold.Chemscore.DEClash>
0.9792

> <Gold.Chemscore.DEInternal>
0.3426

> <Gold.Chemscore.Rot>
1.3201

> <Gold.Chemscore.Internal.Correction>
   9.000000E+99

> <Gold.Chemscore.Hbonds>
donor molecule, donor type, donor heavy atom, donor atom, acceptor molecule, acceptor atom, score
      P1  H  7954  7966       L1     5  0.99
      P1  H  7989  7998       L1    15  0.06

> <Gold.Chemscore.Hbond.Weighted>
-3.6640

> <Gold.Chemscore.Metal.Weighted>
-0.0000

> <Gold.Chemscore.Lipo.Weighted>
-7.3043

> <Gold.Chemscore.Internal_Hbond.Weighted>
0.0000

> <Gold.Chemscore.DEClash.Weighted>
0.9792

> <Gold.Chemscore.DEInternal.Weighted>
0.3426

> <Gold.Chemscore.Rot.Weighted>
3.3794

> <Gold.Chemscore.Internal.Correction.Weighted>
   9.000000E+99

> <Gold.Protein.RotatedTorsions>
[ 6907 6896 6895 6894 ] final -166.35 input  -60.11 | X-H torsion
[ 7974 7965 7964 7962 ] final  -28.84 input  175.53 | X-H torsion
[ 8008 7997 7996 7995 ] final  155.62 input   59.86 | X-H torsion
[ 10167 10162 10161 10158 ] final  119.86 input  -65.29 | X-H torsion
[ 10718 10713 10712 10709 ] final -126.95 input   66.30 | X-H torsion
[ 10763 10752 10751 10750 ] final   55.26 input  -60.55 | X-H torsion
[ 11005 11000 10999 10996 ] final -159.51 input  -57.11 | X-H torsion

> <Gold.Protein.ActiveResidues>
 VAL166  LYS551  ARG553  GLY616  TRP617  ASP618  TYR619  PRO620  LYS621  CYS622 
 ASP623  PHE694  ASN695  SER759  ASP760  ASP761  ALA762  ILE779  LEU786  VAL792 
 PHE793  MET794  SER795  GLU796  ALA797  LYS798  CYS799  TRP800  GLU811  SER814 

> <Gold.Protein.RotatedAtoms>
  151.4422  133.3640  159.2783 H   0  0  0  0  0  0  0  0  0  0  0  0  # atno 6907 bound_to 6896
  150.9149  134.8568  159.7461 H   0  0  0  0  0  0  0  0  0  0  0  0  # atno 6908 bound_to 6896
  152.4952  134.4355  159.9578 H   0  0  0  0  0  0  0  0  0  0  0  0  # atno 6909 bound_to 6896
  146.1259  140.5335  142.8715 H   0  0  0  0  0  0  0  0  0  0  0  0  # atno 7974 bound_to 7965
  156.2468  140.1934  156.6830 H   0  0  0  0  0  0  0  0  0  0  0  0  # atno 8008 bound_to 7997
  154.6308  140.0596  156.9756 H   0  0  0  0  0  0  0  0  0  0  0  0  # atno 8009 bound_to 7997
  155.1714  140.3268  155.4395 H   0  0  0  0  0  0  0  0  0  0  0  0  # atno 8010 bound_to 7997
  139.6019  144.7059  151.3043 H   0  0  0  0  0  0  0  0  0  0  0  0  # atno 10167 bound_to 10162
  156.1812  130.6733  151.0307 H   0  0  0  0  0  0  0  0  0  0  0  0  # atno 10718 bound_to 10713
  152.9814  135.5717  154.5038 H   0  0  0  0  0  0  0  0  0  0  0  0  # atno 10763 bound_to 10752
  154.4553  135.2780  155.1754 H   0  0  0  0  0  0  0  0  0  0  0  0  # atno 10764 bound_to 10752
  154.3365  135.6238  153.5629 H   0  0  0  0  0  0  0  0  0  0  0  0  # atno 10765 bound_to 10752
  140.6418  134.4543  157.5233 H   0  0  0  0  0  0  0  0  0  0  0  0  # atno 11005 bound_to 11000
  144.7642  140.5492  143.6714 LP  0  0  0  0  0  0  0  0  0  0  0  0  # atno 17320 bound_to 7965
  145.5366  139.1475  143.3470 LP  0  0  0  0  0  0  0  0  0  0  0  0  # atno 17321 bound_to 7965
  140.7256  143.7014  150.7842 LP  0  0  0  0  0  0  0  0  0  0  0  0  # atno 17342 bound_to 10162
  140.0592  143.5172  152.2636 LP  0  0  0  0  0  0  0  0  0  0  0  0  # atno 17343 bound_to 10162
  157.6869  131.0822  150.7216 LP  0  0  0  0  0  0  0  0  0  0  0  0  # atno 17370 bound_to 10713
  156.7273  130.4699  149.5508 LP  0  0  0  0  0  0  0  0  0  0  0  0  # atno 17371 bound_to 10713
  139.9077  134.8412  156.1642 LP  0  0  0  0  0  0  0  0  0  0  0  0  # atno 17394 bound_to 11000
  141.0601  133.6846  156.1937 LP  0  0  0  0  0  0  0  0  0  0  0  0  # atno 17395 bound_to 11000

$$$$
