AV-unprocessed.smi:156|AV-procd|sdf|1287|dock10
  -GOLD-   2262018563D 1   1.00000     0.00000
 Structure written by MMmdl.
 51 53  0  0  0  0  0  0  0  0  1 V2000
  145.0894  136.7698  157.9864 C   0  0  0  0  0  0  0  0  0  0  0  0
  145.0150  135.3422  157.4007 C   0  0  2  0  0  0  0  0  0  0  0  0
  145.5782  134.2111  158.3171 C   0  0  2  0  0  0  0  0  0  0  0  0
  145.3236  132.8226  157.6971 C   0  0  0  0  0  0  0  0  0  0  0  0
  144.8519  134.2838  160.0297 S   0  0  0  0  0  0  0  0  0  0  0  0
  145.7195  132.9285  160.9263 C   0  0  0  0  0  0  0  0  0  0  0  0
  145.2564  135.5512  160.6572 O   0  0  0  0  0  0  0  0  0  0  0  0
  143.4247  133.9371  159.9492 O   0  0  0  0  0  0  0  0  0  0  0  0
  145.5442  135.2900  156.0277 N   0  0  0  0  0  0  0  0  0  0  0  0
  146.9173  134.8336  155.8378 C   0  0  0  0  0  0  0  0  0  0  0  0
  144.7389  135.0956  154.9486 C   0  0  0  0  0  0  0  0  0  0  0  0
  143.3906  135.0290  155.1035 N   0  0  0  0  0  0  0  0  0  0  0  0
  142.5948  134.8287  154.0496 C   0  0  0  0  0  0  0  0  0  0  0  0
  142.9324  134.6679  152.7695 N   0  0  0  0  0  0  0  0  0  0  0  0
  144.2841  134.7293  152.6029 C   0  0  0  0  0  0  0  0  0  0  0  0
  145.2499  134.9387  153.6282 C   0  0  0  0  0  0  0  0  0  0  0  0
  146.5248  134.9584  153.0757 N   0  0  0  0  0  0  0  0  0  0  0  0
  146.3250  134.7662  151.8008 C   0  0  0  0  0  0  0  0  0  0  0  0
  145.0092  134.6045  151.4294 N   0  0  0  0  0  0  0  0  0  0  0  0
  144.5016  134.3820  150.0825 C   0  0  0  0  0  0  0  0  0  0  0  0
  144.2637  132.8979  149.7286 C   0  0  0  0  0  0  0  0  0  0  0  0
  143.0493  132.7513  148.7964 C   0  0  0  0  0  0  0  0  0  0  0  0
  143.0018  133.8009  147.8519 O   0  0  0  0  0  0  0  0  0  0  0  0
  145.5200  132.1294  149.2966 C   0  0  0  0  0  0  0  0  0  0  0  0
  145.5908  131.4057  150.5427 O   0  0  0  0  0  0  0  0  0  0  0  0
  144.2956  131.9212  150.9142 C   0  0  0  0  0  0  0  0  0  0  0  0
  144.4232  136.8853  158.8403 H   0  0  0  0  0  0  0  0  0  0  0  0
  144.7799  137.5170  157.2556 H   0  0  0  0  0  0  0  0  0  0  0  0
  146.0959  137.0280  158.3146 H   0  0  0  0  0  0  0  0  0  0  0  0
  143.9500  135.1292  157.2980 H   0  0  0  0  0  0  0  0  0  0  0  0
  146.6513  134.3352  158.4527 H   0  0  0  0  0  0  0  0  0  0  0  0
  145.7195  132.7542  156.6840 H   0  0  0  0  0  0  0  0  0  0  0  0
  144.2573  132.6006  157.6494 H   0  0  0  0  0  0  0  0  0  0  0  0
  145.8084  132.0306  158.2654 H   0  0  0  0  0  0  0  0  0  0  0  0
  145.4800  132.9925  161.9875 H   0  0  0  0  0  0  0  0  0  0  0  0
  146.7966  133.0314  160.7948 H   0  0  0  0  0  0  0  0  0  0  0  0
  145.3906  131.9600  160.5514 H   0  0  0  0  0  0  0  0  0  0  0  0
  146.9543  133.9375  155.2168 H   0  0  0  0  0  0  0  0  0  0  0  0
  147.3901  134.5955  156.7910 H   0  0  0  0  0  0  0  0  0  0  0  0
  147.5133  135.6106  155.3597 H   0  0  0  0  0  0  0  0  0  0  0  0
  141.5369  134.7905  154.2633 H   0  0  0  0  0  0  0  0  0  0  0  0
  147.1410  134.7431  151.0938 H   0  0  0  0  0  0  0  0  0  0  0  0
  143.5829  134.9569  149.9625 H   0  0  0  0  0  0  0  0  0  0  0  0
  145.2129  134.8274  149.3859 H   0  0  0  0  0  0  0  0  0  0  0  0
  143.0990  131.8125  148.2437 H   0  0  0  0  0  0  0  0  0  0  0  0
  142.1119  132.7239  149.3520 H   0  0  0  0  0  0  0  0  0  0  0  0
  143.8664  134.1743  147.7727 H   0  0  0  0  0  0  0  0  0  0  0  0
  145.3618  131.4612  148.4487 H   0  0  0  0  0  0  0  0  0  0  0  0
  146.3922  132.7632  149.1324 H   0  0  0  0  0  0  0  0  0  0  0  0
  144.3123  132.3962  151.8941 H   0  0  0  0  0  0  0  0  0  0  0  0
  143.5264  131.1485  150.8741 H   0  0  0  0  0  0  0  0  0  0  0  0
  1  2  1  0  0  0  0
  1 27  1  0  0  0  0
  1 28  1  0  0  0  0
  1 29  1  0  0  0  0
  2  3  1  0  0  0  0
  2  9  1  0  0  0  0
  2 30  1  0  0  0  0
  3  4  1  0  0  0  0
  3  5  1  0  0  0  0
  3 31  1  0  0  0  0
  4 32  1  0  0  0  0
  4 33  1  0  0  0  0
  4 34  1  0  0  0  0
  5  6  1  0  0  0  0
  5  7  2  0  0  0  0
  5  8  2  0  0  0  0
  6 35  1  0  0  0  0
  6 36  1  0  0  0  0
  6 37  1  0  0  0  0
  9 10  1  0  0  0  0
  9 11  1  0  0  0  0
 10 38  1  0  0  0  0
 10 39  1  0  0  0  0
 10 40  1  0  0  0  0
 11 16  1  0  0  0  0
 11 12  2  0  0  0  0
 12 13  1  0  0  0  0
 13 14  2  0  0  0  0
 13 41  1  0  0  0  0
 14 15  1  0  0  0  0
 15 19  1  0  0  0  0
 15 16  2  0  0  0  0
 16 17  1  0  0  0  0
 17 18  2  0  0  0  0
 18 19  1  0  0  0  0
 18 42  1  0  0  0  0
 19 20  1  0  0  0  0
 20 21  1  0  0  0  0
 20 43  1  0  0  0  0
 20 44  1  0  0  0  0
 21 26  1  0  0  0  0
 21 22  1  0  0  0  0
 21 24  1  0  0  0  0
 22 23  1  0  0  0  0
 22 45  1  0  0  0  0
 22 46  1  0  0  0  0
 23 47  1  0  0  0  0
 24 25  1  0  0  0  0
 24 48  1  0  0  0  0
 24 49  1  0  0  0  0
 25 26  1  0  0  0  0
 26 50  1  0  0  0  0
 26 51  1  0  0  0  0
M  END
> <s_m_source_file>
AV-unprocessed.smi

> <i_m_source_file_index>
156

> <i_lp_mmshare_version>
43012

> <i_f3d_flags>
0

> <s_epik_input>
W0NIM11TKD1PKSg9TylbQ0BASF0oW0NIM10pW0NAQEhdKFtDSDNdKU4oW0NIM10pYyhuW2NIXW4xKWMoYzEyKW5bY0hdbjJbQ0gyXUMzKFtDSDJdW09IXSlbQ0gyXU9bQ0gyXTM=

> <s_epik_cmdline>
J2VwaWtfcHl0aG9uJywgJy1waCcsICc3LjAnLCAnLXRuJywgJzgnLCAnLW1hJywgJzIwMCcsICctbWV0YWxfYmluZGluZycsICctaW1hZScsICc8aW5maWxlLm1hZT4nLCAnLW9tYWUnLCAnPG91dGZpbGUubWFlPic=

> <r_lp_tautomer_probability>
1

> <r_epik_Ionization_Penalty>
0.00107697

> <r_epik_Ionization_Penalty_Charging>
0

> <r_epik_Ionization_Penalty_Neutral>
0.00107697

> <r_epik_State_Penalty>
0.000614712

> <r_epik_Charging_Adjusted_Penalty>
0.000614712

> <i_epik_Tot_Q>
0

> <i_epik_Tot_abs_Q>
0

> <r_epik_Metal_State_Penalty>
-0

> <b_epik_Metal_Only>
0

> <s_lp_Force_Field>
OPLS_2005

> <r_lp_Energy>
28.4574

> <b_lp_Chiralities_Consistent>
1

> <s_lp_Variant>
AV-unprocessed.smi:156-1

> <Gold.Version>
5.8.1

> <Gold.Id.Protein>
6NUR|6NUR_protein|mol2

> <Gold.PLP.Fitness>
44.7118

> <Gold.PLP.PLP>
-35.1845

> <Gold.PLP.part.hbond>
-5.7516

> <Gold.PLP.part.metal>
0.0000

> <Gold.PLP.part.buried>
-2.8517

> <Gold.PLP.part.nonpolar>
-26.5402

> <Gold.PLP.part.repulsive>
0.5062

> <Gold.PLP.ligand.clash>
0.0000

> <Gold.PLP.ligand.torsion>
1.9770

> <Gold.PLP.Chemscore.Hbond>
2.9913

> <Gold.PLP.Chemscore.CHOScore>
1.0000

> <Gold.PLP.Chemscore.Metal>
0.0000

> <Gold.Chemscore.Hbonds>
donor molecule, donor type, donor heavy atom, donor atom, acceptor molecule, acceptor atom, score
      L1  H    23    47       P1  7921  0.24
      P1  H 10192 10197       L1    23  1.00
      L1  C    13    41       P1 11000  0.43
      L1  C    18    42       P1  7948  0.63

> <Gold.PLP.Chemscore.Internal.Correction>
1.5076

> <Gold.Rescore>
     Score         DG    S(hbond)    S(metal)    S(lipo)     H(rot)  DE(clash)    DE(int)     intcor
      8.62     -14.36       2.96        0.00      61.83       3.21       1.43       4.31       ----

> <Gold.Chemscore.Fitness>
8.6240

> <Gold.Chemscore.DG>
-14.3630

> <Gold.Chemscore.ZeroCoef>
-5.4800

> <Gold.Chemscore.Hbond>
2.9553

> <Gold.Chemscore.Metal>
0.0000

> <Gold.Chemscore.Lipo>
61.8276

> <Gold.Chemscore.Internal_Hbond>
0.0000

> <Gold.Chemscore.DEClash>
1.4332

> <Gold.Chemscore.DEInternal>
4.3058

> <Gold.Chemscore.Rot>
3.2115

> <Gold.Chemscore.Internal.Correction>
   9.000000E+99

> <Gold.Chemscore.Hbonds>
donor molecule, donor type, donor heavy atom, donor atom, acceptor molecule, acceptor atom, score
      L1  H    23    47       P1  7921  0.25
      P1  H 10192 10197       L1    23  0.26

> <Gold.Chemscore.Hbond.Weighted>
-9.8707

> <Gold.Chemscore.Metal.Weighted>
-0.0000

> <Gold.Chemscore.Lipo.Weighted>
-7.2338

> <Gold.Chemscore.Internal_Hbond.Weighted>
0.0000

> <Gold.Chemscore.DEClash.Weighted>
1.4332

> <Gold.Chemscore.DEInternal.Weighted>
4.3058

> <Gold.Chemscore.Rot.Weighted>
8.2215

> <Gold.Chemscore.Internal.Correction.Weighted>
   9.000000E+99

> <Gold.Protein.RotatedTorsions>
[ 6907 6896 6895 6894 ] final  -47.83 input  -60.11 | X-H torsion
[ 7974 7965 7964 7962 ] final    2.99 input  175.53 | X-H torsion
[ 8008 7997 7996 7995 ] final  -13.33 input   59.86 | X-H torsion
[ 10167 10162 10161 10158 ] final   58.91 input  -65.29 | X-H torsion
[ 10718 10713 10712 10709 ] final    4.65 input   66.30 | X-H torsion
[ 10763 10752 10751 10750 ] final  108.25 input  -60.55 | X-H torsion
[ 11005 11000 10999 10996 ] final -140.00 input  -57.11 | X-H torsion

> <Gold.Protein.ActiveResidues>
 VAL166  LYS551  ARG553  GLY616  TRP617  ASP618  TYR619  PRO620  LYS621  CYS622 
 ASP623  PHE694  ASN695  SER759  ASP760  ASP761  ALA762  ILE779  LEU786  VAL792 
 PHE793  MET794  SER795  GLU796  ALA797  LYS798  CYS799  TRP800  GLU811  SER814 

> <Gold.Protein.RotatedAtoms>
  150.8968  134.8376  159.7331 H   0  0  0  0  0  0  0  0  0  0  0  0  # atno 6907 bound_to 6896
  152.4869  134.4564  159.9601 H   0  0  0  0  0  0  0  0  0  0  0  0  # atno 6908 bound_to 6896
  151.4620  133.3551  159.2846 H   0  0  0  0  0  0  0  0  0  0  0  0  # atno 6909 bound_to 6896
  146.2445  140.0753  142.8360 H   0  0  0  0  0  0  0  0  0  0  0  0  # atno 7974 bound_to 7965
  154.5301  140.2252  155.8819 H   0  0  0  0  0  0  0  0  0  0  0  0  # atno 8008 bound_to 7997
  156.1755  140.3112  155.9015 H   0  0  0  0  0  0  0  0  0  0  0  0  # atno 8009 bound_to 7997
  155.3469  140.0453  157.3036 H   0  0  0  0  0  0  0  0  0  0  0  0  # atno 8010 bound_to 7997
  140.1821  144.4172  150.6610 H   0  0  0  0  0  0  0  0  0  0  0  0  # atno 10167 bound_to 10162
  156.8957  130.5703  149.5649 H   0  0  0  0  0  0  0  0  0  0  0  0  # atno 10718 bound_to 10713
  153.4180  135.3818  155.2093 H   0  0  0  0  0  0  0  0  0  0  0  0  # atno 10763 bound_to 10752
  154.8742  135.3810  154.4419 H   0  0  0  0  0  0  0  0  0  0  0  0  # atno 10764 bound_to 10752
  153.4936  135.7088  153.5933 H   0  0  0  0  0  0  0  0  0  0  0  0  # atno 10765 bound_to 10752
  140.8465  134.2338  157.4783 H   0  0  0  0  0  0  0  0  0  0  0  0  # atno 11005 bound_to 11000
  145.0780  140.9201  143.4842 LP  0  0  0  0  0  0  0  0  0  0  0  0  # atno 17320 bound_to 7965
  145.0900  139.2897  143.5739 LP  0  0  0  0  0  0  0  0  0  0  0  0  # atno 17321 bound_to 7965
  140.6513  143.2225  151.6071 LP  0  0  0  0  0  0  0  0  0  0  0  0  # atno 17342 bound_to 10162
  139.5292  144.2967  152.1107 LP  0  0  0  0  0  0  0  0  0  0  0  0  # atno 17343 bound_to 10162
  156.0607  130.5660  150.9186 LP  0  0  0  0  0  0  0  0  0  0  0  0  # atno 17370 bound_to 10713
  157.6057  131.0939  150.8884 LP  0  0  0  0  0  0  0  0  0  0  0  0  # atno 17371 bound_to 10713
  139.8703  134.9662  156.4554 LP  0  0  0  0  0  0  0  0  0  0  0  0  # atno 17394 bound_to 11000
  140.8837  133.7899  155.9495 LP  0  0  0  0  0  0  0  0  0  0  0  0  # atno 17395 bound_to 11000

$$$$
