AV-unprocessed.smi:3224|AV-procd|sdf|12309|dock9
  -GOLD-   2272018153D 1   1.00000     0.00000
 Structure written by MMmdl.
 31 32  0  0  0  0  0  0  0  0  1 V2000
  145.5004  136.0802  151.2516 C   0  0  0  0  0  0  0  0  0  0  0  0
  145.5965  137.2099  152.2999 C   0  0  0  0  0  0  0  0  0  0  0  0
  144.2695  137.8061  152.5184 N   0  0  0  0  0  0  0  0  0  0  0  0
  143.1310  137.1999  152.8956 C   0  0  0  0  0  0  0  0  0  0  0  0
  143.0352  135.9943  153.1250 O   0  0  0  0  0  0  0  0  0  0  0  0
  142.1243  138.0865  152.9882 N   0  0  0  0  0  0  0  0  0  0  0  0
  140.7675  137.8428  153.3271 C   0  0  0  0  0  0  0  0  0  0  0  0
  139.7953  138.7599  153.2573 N   0  0  0  0  0  0  0  0  0  0  0  0
  138.5593  138.2453  153.6564 C   0  0  0  0  0  0  0  0  0  0  0  0
  138.6089  136.9250  154.0292 C   0  0  0  0  0  0  0  0  0  0  0  0
  140.2194  136.2714  153.8921 S   0  0  0  0  0  0  0  0  0  0  0  0
  146.2134  136.6825  153.6183 C   0  0  0  0  0  0  0  0  0  0  0  0
  146.5320  137.8225  154.6020 C   0  0  0  0  0  0  0  0  0  0  0  0
  147.4091  138.7596  153.9884 O   0  0  0  0  0  0  0  0  0  0  0  0
  146.8426  139.3790  152.8400 C   0  0  0  0  0  0  0  0  0  0  0  0
  146.5302  138.3184  151.7671 C   0  0  0  0  0  0  0  0  0  0  0  0
  146.4867  135.6845  151.0075 H   0  0  0  0  0  0  0  0  0  0  0  0
  145.0530  136.4368  150.3233 H   0  0  0  0  0  0  0  0  0  0  0  0
  144.9022  135.2413  151.6067 H   0  0  0  0  0  0  0  0  0  0  0  0
  144.2169  138.8022  152.3630 H   0  0  0  0  0  0  0  0  0  0  0  0
  142.3526  139.0474  152.7806 H   0  0  0  0  0  0  0  0  0  0  0  0
  137.6934  138.8907  153.6452 H   0  0  0  0  0  0  0  0  0  0  0  0
  137.7988  136.3006  154.3752 H   0  0  0  0  0  0  0  0  0  0  0  0
  145.5655  135.9485  154.0968 H   0  0  0  0  0  0  0  0  0  0  0  0
  147.1409  136.1535  153.3947 H   0  0  0  0  0  0  0  0  0  0  0  0
  145.6216  138.3216  154.9371 H   0  0  0  0  0  0  0  0  0  0  0  0
  147.0174  137.4219  155.4920 H   0  0  0  0  0  0  0  0  0  0  0  0
  145.9472  139.9364  153.1189 H   0  0  0  0  0  0  0  0  0  0  0  0
  147.5549  140.1056  152.4490 H   0  0  0  0  0  0  0  0  0  0  0  0
  147.4715  137.8769  151.4363 H   0  0  0  0  0  0  0  0  0  0  0  0
  146.0949  138.7958  150.8878 H   0  0  0  0  0  0  0  0  0  0  0  0
  1  2  1  0  0  0  0
  1 17  1  0  0  0  0
  1 18  1  0  0  0  0
  1 19  1  0  0  0  0
  2 16  1  0  0  0  0
  2  3  1  0  0  0  0
  2 12  1  0  0  0  0
  3  4  1  0  0  0  0
  3 20  1  0  0  0  0
  4  5  2  0  0  0  0
  4  6  1  0  0  0  0
  6  7  1  0  0  0  0
  6 21  1  0  0  0  0
  7 11  1  0  0  0  0
  7  8  2  0  0  0  0
  8  9  1  0  0  0  0
  9 10  2  0  0  0  0
  9 22  1  0  0  0  0
 10 11  1  0  0  0  0
 10 23  1  0  0  0  0
 12 13  1  0  0  0  0
 12 24  1  0  0  0  0
 12 25  1  0  0  0  0
 13 14  1  0  0  0  0
 13 26  1  0  0  0  0
 13 27  1  0  0  0  0
 14 15  1  0  0  0  0
 15 16  1  0  0  0  0
 15 28  1  0  0  0  0
 15 29  1  0  0  0  0
 16 30  1  0  0  0  0
 16 31  1  0  0  0  0
M  END
> <s_m_source_file>
AV-unprocessed.smi

> <i_m_source_file_index>
3224

> <i_lp_mmshare_version>
43012

> <i_f3d_flags>
0

> <s_epik_input>
W0NIMl0xW0NIMl1PW0NIMl1bQ0gyXUMxKFtDSDNdKVtOSF1DKD1PKVtOSF1jMm5bY0hdW2NIXXMy

> <s_epik_cmdline>
J2VwaWtfcHl0aG9uJywgJy1waCcsICc3LjAnLCAnLXRuJywgJzgnLCAnLW1hJywgJzIwMCcsICctbWV0YWxfYmluZGluZycsICctaW1hZScsICc8aW5maWxlLm1hZT4nLCAnLW9tYWUnLCAnPG91dGZpbGUubWFlPic=

> <r_lp_tautomer_probability>
1

> <r_epik_Ionization_Penalty>
0.000150899

> <r_epik_Ionization_Penalty_Charging>
0

> <r_epik_Ionization_Penalty_Neutral>
0.000150899

> <r_epik_State_Penalty>
-0

> <r_epik_Charging_Adjusted_Penalty>
0

> <i_epik_Tot_Q>
0

> <i_epik_Tot_abs_Q>
0

> <r_epik_Metal_State_Penalty>
0.0306338

> <b_epik_Metal_Only>
0

> <s_lp_Force_Field>
OPLS_2005

> <r_lp_Energy>
7.54186

> <b_lp_Chiralities_Consistent>
1

> <s_lp_Variant>
AV-unprocessed.smi:3224-1

> <Gold.Version>
5.8.1

> <Gold.Id.Protein>
6NUR|6NUR_protein|mol2

> <Gold.PLP.Fitness>
35.0178

> <Gold.PLP.PLP>
-29.1159

> <Gold.PLP.part.hbond>
-3.0000

> <Gold.PLP.part.metal>
0.0000

> <Gold.PLP.part.buried>
-3.5241

> <Gold.PLP.part.nonpolar>
-24.4992

> <Gold.PLP.part.repulsive>
1.2232

> <Gold.PLP.ligand.clash>
0.0000

> <Gold.PLP.ligand.torsion>
0.0524

> <Gold.PLP.Chemscore.Hbond>
2.0000

> <Gold.PLP.Chemscore.CHOScore>
0.0000

> <Gold.PLP.Chemscore.Metal>
0.0000

> <Gold.Chemscore.Hbonds>
donor molecule, donor type, donor heavy atom, donor atom, acceptor molecule, acceptor atom, score
      L1  H     3    20       P1 10175  1.00
      L1  H     6    21       P1 10175  1.00

> <Gold.PLP.Chemscore.Internal.Correction>
0.0067

> <Gold.Rescore>
     Score         DG    S(hbond)    S(metal)    S(lipo)     H(rot)  DE(clash)    DE(int)     intcor
     14.55     -15.84       1.95        0.00      54.64       1.00       0.06       1.24       ----

> <Gold.Chemscore.Fitness>
14.5452

> <Gold.Chemscore.DG>
-15.8400

> <Gold.Chemscore.ZeroCoef>
-5.4800

> <Gold.Chemscore.Hbond>
1.9543

> <Gold.Chemscore.Metal>
0.0000

> <Gold.Chemscore.Lipo>
54.6391

> <Gold.Chemscore.Internal_Hbond>
0.0000

> <Gold.Chemscore.DEClash>
0.0585

> <Gold.Chemscore.DEInternal>
1.2363

> <Gold.Chemscore.Rot>
1.0000

> <Gold.Chemscore.Internal.Correction>
   9.000000E+99

> <Gold.Chemscore.Hbonds>
donor molecule, donor type, donor heavy atom, donor atom, acceptor molecule, acceptor atom, score
      L1  H     3    20       P1 10175  1.00
      L1  H     6    21       P1 10175  0.95

> <Gold.Chemscore.Hbond.Weighted>
-6.5272

> <Gold.Chemscore.Metal.Weighted>
-0.0000

> <Gold.Chemscore.Lipo.Weighted>
-6.3928

> <Gold.Chemscore.Internal_Hbond.Weighted>
0.0000

> <Gold.Chemscore.DEClash.Weighted>
0.0585

> <Gold.Chemscore.DEInternal.Weighted>
1.2363

> <Gold.Chemscore.Rot.Weighted>
2.5600

> <Gold.Chemscore.Internal.Correction.Weighted>
   9.000000E+99

> <Gold.Protein.RotatedTorsions>
[ 6907 6896 6895 6894 ] final   50.77 input  -60.11 | X-H torsion
[ 7974 7965 7964 7962 ] final  158.44 input  175.53 | X-H torsion
[ 8008 7997 7996 7995 ] final  104.68 input   59.86 | X-H torsion
[ 10167 10162 10161 10158 ] final   37.40 input  -65.29 | X-H torsion
[ 10718 10713 10712 10709 ] final  -87.97 input   66.30 | X-H torsion
[ 10763 10752 10751 10750 ] final -160.81 input  -60.55 | X-H torsion
[ 11005 11000 10999 10996 ] final   85.02 input  -57.11 | X-H torsion

> <Gold.Protein.ActiveResidues>
 VAL166  LYS551  ARG553  GLY616  TRP617  ASP618  TYR619  PRO620  LYS621  CYS622 
 ASP623  PHE694  ASN695  SER759  ASP760  ASP761  ALA762  ILE779  LEU786  VAL792 
 PHE793  MET794  SER795  GLU796  ALA797  LYS798  CYS799  TRP800  GLU811  SER814 

> <Gold.Protein.RotatedAtoms>
  152.3055  134.7560  160.0348 H   0  0  0  0  0  0  0  0  0  0  0  0  # atno 6907 bound_to 6896
  151.8059  133.3370  159.3549 H   0  0  0  0  0  0  0  0  0  0  0  0  # atno 6908 bound_to 6896
  150.7294  134.5639  159.5901 H   0  0  0  0  0  0  0  0  0  0  0  0  # atno 6909 bound_to 6896
  144.7845  139.7479  143.6246 H   0  0  0  0  0  0  0  0  0  0  0  0  # atno 7974 bound_to 7965
  156.1594  140.3143  155.8781 H   0  0  0  0  0  0  0  0  0  0  0  0  # atno 8008 bound_to 7997
  155.3813  140.0488  157.3060 H   0  0  0  0  0  0  0  0  0  0  0  0  # atno 8009 bound_to 7997
  154.5132  140.2172  155.9127 H   0  0  0  0  0  0  0  0  0  0  0  0  # atno 8010 bound_to 7997
  140.4036  144.1690  150.6135 H   0  0  0  0  0  0  0  0  0  0  0  0  # atno 10167 bound_to 10162
  155.9984  130.4819  150.4948 H   0  0  0  0  0  0  0  0  0  0  0  0  # atno 10718 bound_to 10713
  154.7358  135.3057  154.8813 H   0  0  0  0  0  0  0  0  0  0  0  0  # atno 10763 bound_to 10752
  153.9642  135.6749  153.4750 H   0  0  0  0  0  0  0  0  0  0  0  0  # atno 10764 bound_to 10752
  153.0961  135.4935  154.8704 H   0  0  0  0  0  0  0  0  0  0  0  0  # atno 10765 bound_to 10752
  139.8983  134.8257  156.2525 H   0  0  0  0  0  0  0  0  0  0  0  0  # atno 11005 bound_to 11000
  146.2070  139.5402  142.9706 LP  0  0  0  0  0  0  0  0  0  0  0  0  # atno 17320 bound_to 7965
  145.5958  141.0363  143.2045 LP  0  0  0  0  0  0  0  0  0  0  0  0  # atno 17321 bound_to 7965
  140.4714  143.2412  151.9084 LP  0  0  0  0  0  0  0  0  0  0  0  0  # atno 17342 bound_to 10162
  139.4784  144.5366  151.8590 LP  0  0  0  0  0  0  0  0  0  0  0  0  # atno 17343 bound_to 10162
  157.2939  131.0632  151.2115 LP  0  0  0  0  0  0  0  0  0  0  0  0  # atno 17370 bound_to 10713
  157.3118  130.6893  149.6219 LP  0  0  0  0  0  0  0  0  0  0  0  0  # atno 17371 bound_to 10713
  141.0215  133.7039  156.1275 LP  0  0  0  0  0  0  0  0  0  0  0  0  # atno 17394 bound_to 11000
  140.7227  134.4340  157.5573 LP  0  0  0  0  0  0  0  0  0  0  0  0  # atno 17395 bound_to 11000

$$$$
