AV-unprocessed.smi:1032|AV-procd|sdf|4488|dock5
  -GOLD-   22720 2473D 1   1.00000     0.00000
 Structure written by MMmdl.
 47 48  0  0  0  0  0  0  0  0  3 V2000
  144.7949  141.3762  157.1437 C   0  0  0  0  0  0  0  0  0  0  0  0
  145.6430  142.6447  156.9459 C   0  0  2  0  0  0  0  0  0  0  0  0
  145.5569  143.2012  155.5131 C   0  0  0  0  0  0  0  0  0  0  0  0
  146.3550  142.3521  154.5072 C   0  0  0  0  0  0  0  0  0  0  0  0
  147.7723  142.2055  154.9279 N   0  3  2  0  0  0  0  0  0  0  0  0
  148.5931  141.5046  153.9068 C   0  0  0  0  0  0  0  0  0  0  0  0
  148.3434  139.9826  153.8889 C   0  0  2  0  0  0  0  0  0  0  0  0
  149.5338  139.3558  153.4519 O   0  0  0  0  0  0  0  0  0  0  0  0
  147.2127  139.6037  152.9098 C   0  0  0  0  0  0  0  0  0  0  0  0
  147.2460  138.1878  152.5549 N   0  0  0  0  0  0  0  0  0  0  0  0
  146.2482  137.3185  152.7710 C   0  0  0  0  0  0  0  0  0  0  0  0
  145.1887  137.6281  153.3162 O   0  0  0  0  0  0  0  0  0  0  0  0
  146.5697  136.0859  152.3415 N   0  0  0  0  0  0  0  0  0  0  0  0
  145.7781  134.9056  152.3721 C   0  0  0  0  0  0  0  0  0  0  0  0
  146.3225  133.7362  151.7959 C   0  0  0  0  0  0  0  0  0  0  0  0
  145.5660  132.5465  151.7895 C   0  0  0  0  0  0  0  0  0  0  0  0
  144.3255  132.5353  152.3227 N   0  3  0  0  0  0  0  0  0  0  0  0
  143.7568  133.6308  152.8704 C   0  0  0  0  0  0  0  0  0  0  0  0
  144.4654  134.8491  152.9065 C   0  0  0  0  0  0  0  0  0  0  0  0
  147.8803  141.6020  156.2830 C   0  0  0  0  0  0  0  0  0  0  0  0
  147.1204  142.4397  157.3269 C   0  0  0  0  0  0  0  0  0  0  0  0
  145.1292  140.5532  156.5129 H   0  0  0  0  0  0  0  0  0  0  0  0
  143.7477  141.5670  156.9073 H   0  0  0  0  0  0  0  0  0  0  0  0
  144.8381  141.0362  158.1789 H   0  0  0  0  0  0  0  0  0  0  0  0
  145.2307  143.3985  157.6181 H   0  0  0  0  0  0  0  0  0  0  0  0
  144.5153  143.2734  155.1982 H   0  0  0  0  0  0  0  0  0  0  0  0
  145.9466  144.2200  155.5019 H   0  0  0  0  0  0  0  0  0  0  0  0
  145.9028  141.3662  154.3923 H   0  0  0  0  0  0  0  0  0  0  0  0
  146.3119  142.8329  153.5291 H   0  0  0  0  0  0  0  0  0  0  0  0
  148.3853  141.9400  152.9280 H   0  0  0  0  0  0  0  0  0  0  0  0
  149.6542  141.6795  154.0935 H   0  0  0  0  0  0  0  0  0  0  0  0
  148.1022  139.6290  154.8906 H   0  0  0  0  0  0  0  0  0  0  0  0
  149.5187  139.2991  152.5083 H   0  0  0  0  0  0  0  0  0  0  0  0
  146.2413  139.8186  153.3592 H   0  0  0  0  0  0  0  0  0  0  0  0
  147.2612  140.2068  152.0022 H   0  0  0  0  0  0  0  0  0  0  0  0
  148.0874  137.8510  152.1096 H   0  0  0  0  0  0  0  0  0  0  0  0
  147.5120  135.9676  151.9992 H   0  0  0  0  0  0  0  0  0  0  0  0
  147.3140  133.7445  151.3665 H   0  0  0  0  0  0  0  0  0  0  0  0
  145.9128  131.6112  151.3744 H   0  0  0  0  0  0  0  0  0  0  0  0
  142.7557  133.5032  153.2557 H   0  0  0  0  0  0  0  0  0  0  0  0
  143.9837  135.7167  153.3307 H   0  0  0  0  0  0  0  0  0  0  0  0
  147.4971  140.5810  156.2620 H   0  0  0  0  0  0  0  0  0  0  0  0
  148.9243  141.5323  156.5856 H   0  0  0  0  0  0  0  0  0  0  0  0
  147.6040  143.4134  157.4175 H   0  0  0  0  0  0  0  0  0  0  0  0
  147.1961  141.9730  158.3097 H   0  0  0  0  0  0  0  0  0  0  0  0
  148.1439  143.1429  154.9918 H   0  0  0  0  0  0  0  0  0  0  0  0
  143.7939  131.6644  152.3066 H   0  0  0  0  0  0  0  0  0  0  0  0
  1  2  1  0  0  0  0
  1 22  1  0  0  0  0
  1 23  1  0  0  0  0
  1 24  1  0  0  0  0
  2 21  1  0  0  0  0
  2  3  1  0  0  0  0
  2 25  1  0  0  0  0
  3  4  1  0  0  0  0
  3 26  1  0  0  0  0
  3 27  1  0  0  0  0
  4  5  1  0  0  0  0
  4 28  1  0  0  0  0
  4 29  1  0  0  0  0
  5  6  1  0  0  0  0
  5 20  1  0  0  0  0
  5 46  1  0  0  0  0
  6  7  1  0  0  0  0
  6 30  1  0  0  0  0
  6 31  1  0  0  0  0
  7  8  1  0  0  0  0
  7  9  1  0  0  0  0
  7 32  1  0  0  0  0
  8 33  1  0  0  0  0
  9 10  1  0  0  0  0
  9 34  1  0  0  0  0
  9 35  1  0  0  0  0
 10 11  1  0  0  0  0
 10 36  1  0  0  0  0
 11 12  2  0  0  0  0
 11 13  1  0  0  0  0
 13 14  1  0  0  0  0
 13 37  1  0  0  0  0
 14 19  1  0  0  0  0
 14 15  2  0  0  0  0
 15 16  1  0  0  0  0
 15 38  1  0  0  0  0
 16 17  2  0  0  0  0
 16 39  1  0  0  0  0
 17 18  1  0  0  0  0
 17 47  1  0  0  0  0
 18 19  2  0  0  0  0
 18 40  1  0  0  0  0
 19 41  1  0  0  0  0
 20 21  1  0  0  0  0
 20 42  1  0  0  0  0
 20 43  1  0  0  0  0
 21 44  1  0  0  0  0
 21 45  1  0  0  0  0
M  CHG  1   5   1
M  CHG  1  17   1
M  END
> <s_m_source_file>
AV-unprocessed.smi

> <i_m_source_file_index>
1032

> <i_lp_mmshare_version>
43012

> <i_f3d_flags>
0

> <s_epik_input>
W0NIM11bQ0hdMVtDSDJdW0NIMl1OKFtDSDJdW0NIMl0xKVtDSDJdW0NASF0oW09IXSlbQ0gyXVtOSF1DKD1PKVtOSF1jMltjSF1bY0hdbltjSF1bY0hdMg==

> <s_epik_cmdline>
J2VwaWtfcHl0aG9uJywgJy1waCcsICc3LjAnLCAnLXRuJywgJzgnLCAnLW1hJywgJzIwMCcsICctbWV0YWxfYmluZGluZycsICctaW1hZScsICc8aW5maWxlLm1hZT4nLCAnLW9tYWUnLCAnPG91dGZpbGUubWFlPic=

> <r_epik_Ionization_Penalty>
1.02509

> <r_epik_Ionization_Penalty_Charging>
1.02507

> <r_epik_Ionization_Penalty_Neutral>
1.85474e-05

> <r_epik_State_Penalty>
1.07411

> <r_epik_Charging_Adjusted_Penalty>
2.09917

> <i_epik_Tot_Q>
2

> <i_epik_Tot_abs_Q>
2

> <r_epik_Metal_State_Penalty>
1.1725

> <b_epik_Metal_Only>
0

> <s_lp_Force_Field>
OPLS_2005

> <r_lp_Energy>
33.8521

> <b_lp_Chiralities_Consistent>
1

> <s_lp_Variant>
AV-unprocessed.smi:1032-7

> <Gold.Version>
5.8.1

> <Gold.Id.Protein>
6NUR|6NUR_protein|mol2

> <Gold.PLP.Fitness>
46.8858

> <Gold.PLP.PLP>
-33.2847

> <Gold.PLP.part.hbond>
-4.0816

> <Gold.PLP.part.metal>
0.0000

> <Gold.PLP.part.buried>
-4.9038

> <Gold.PLP.part.nonpolar>
-26.5426

> <Gold.PLP.part.repulsive>
1.9999

> <Gold.PLP.ligand.clash>
0.0000

> <Gold.PLP.ligand.torsion>
0.5987

> <Gold.PLP.Chemscore.Hbond>
4.9200

> <Gold.PLP.Chemscore.CHOScore>
0.0000

> <Gold.PLP.Chemscore.Metal>
0.0000

> <Gold.Chemscore.Hbonds>
donor molecule, donor type, donor heavy atom, donor atom, acceptor molecule, acceptor atom, score
      L1  H     5    46       P1  8028  2.00
      L1  H     8    33       P1  7957  0.98
      L1  H    10    36       P1  7948  0.78
      L1  H    13    37       P1  7948  0.80

> <Gold.PLP.Chemscore.Internal.Correction>
0.0386

> <Gold.Rescore>
     Score         DG    S(hbond)    S(metal)    S(lipo)     H(rot)  DE(clash)    DE(int)     intcor
     15.75     -18.20       3.45        0.00      61.51       2.34       0.24       2.22       ----

> <Gold.Chemscore.Fitness>
15.7476

> <Gold.Chemscore.DG>
-18.2034

> <Gold.Chemscore.ZeroCoef>
-5.4800

> <Gold.Chemscore.Hbond>
3.4477

> <Gold.Chemscore.Metal>
0.0000

> <Gold.Chemscore.Lipo>
61.5095

> <Gold.Chemscore.Internal_Hbond>
0.0000

> <Gold.Chemscore.DEClash>
0.2394

> <Gold.Chemscore.DEInternal>
2.2164

> <Gold.Chemscore.Rot>
2.3393

> <Gold.Chemscore.Internal.Correction>
   9.000000E+99

> <Gold.Chemscore.Hbonds>
donor molecule, donor type, donor heavy atom, donor atom, acceptor molecule, acceptor atom, score
      L1  H     5    46       P1  8028  0.96
      L1  H     8    33       P1  7957  0.86
      L1  H    10    36       P1  7948  0.78
      L1  H    13    37       P1  7948  0.78

> <Gold.Chemscore.Hbond.Weighted>
-11.5154

> <Gold.Chemscore.Metal.Weighted>
-0.0000

> <Gold.Chemscore.Lipo.Weighted>
-7.1966

> <Gold.Chemscore.Internal_Hbond.Weighted>
0.0000

> <Gold.Chemscore.DEClash.Weighted>
0.2394

> <Gold.Chemscore.DEInternal.Weighted>
2.2164

> <Gold.Chemscore.Rot.Weighted>
5.9886

> <Gold.Chemscore.Internal.Correction.Weighted>
   9.000000E+99

> <Gold.Protein.RotatedTorsions>
[ 6907 6896 6895 6894 ] final  144.44 input  -60.11 | X-H torsion
[ 7974 7965 7964 7962 ] final -118.39 input  175.53 | X-H torsion
[ 8008 7997 7996 7995 ] final -103.52 input   59.86 | X-H torsion
[ 10167 10162 10161 10158 ] final  -55.99 input  -65.29 | X-H torsion
[ 10718 10713 10712 10709 ] final  -75.61 input   66.30 | X-H torsion
[ 10763 10752 10751 10750 ] final  -52.55 input  -60.55 | X-H torsion
[ 11005 11000 10999 10996 ] final   27.36 input  -57.11 | X-H torsion

> <Gold.Protein.ActiveResidues>
 VAL166  LYS551  ARG553  GLY616  TRP617  ASP618  TYR619  PRO620  LYS621  CYS622 
 ASP623  PHE694  ASN695  SER759  ASP760  ASP761  ALA762  ILE779  LEU786  VAL792 
 PHE793  MET794  SER795  GLU796  ALA797  LYS798  CYS799  TRP800  GLU811  SER814 

> <Gold.Protein.RotatedAtoms>
  152.1936  133.4791  159.5020 H   0  0  0  0  0  0  0  0  0  0  0  0  # atno 6907 bound_to 6896
  150.6956  134.1680  159.4210 H   0  0  0  0  0  0  0  0  0  0  0  0  # atno 6908 bound_to 6896
  151.9596  135.0130  160.0597 H   0  0  0  0  0  0  0  0  0  0  0  0  # atno 6909 bound_to 6896
  145.0743  140.8381  143.4077 H   0  0  0  0  0  0  0  0  0  0  0  0  # atno 7974 bound_to 7965
  154.8721  140.0422  157.1731 H   0  0  0  0  0  0  0  0  0  0  0  0  # atno 8008 bound_to 7997
  154.8728  140.2961  155.5450 H   0  0  0  0  0  0  0  0  0  0  0  0  # atno 8009 bound_to 7997
  156.2999  140.2426  156.3719 H   0  0  0  0  0  0  0  0  0  0  0  0  # atno 8010 bound_to 7997
  140.6343  143.2474  151.5160 H   0  0  0  0  0  0  0  0  0  0  0  0  # atno 10167 bound_to 10162
  156.0202  130.4445  150.3069 H   0  0  0  0  0  0  0  0  0  0  0  0  # atno 10718 bound_to 10713
  154.1445  135.6500  153.4949 H   0  0  0  0  0  0  0  0  0  0  0  0  # atno 10763 bound_to 10752
  153.0156  135.5323  154.6871 H   0  0  0  0  0  0  0  0  0  0  0  0  # atno 10764 bound_to 10752
  154.6141  135.2957  155.0370 H   0  0  0  0  0  0  0  0  0  0  0  0  # atno 10765 bound_to 10752
  140.3272  134.2478  155.7708 H   0  0  0  0  0  0  0  0  0  0  0  0  # atno 11005 bound_to 11000
  145.1254  139.2666  143.5567 LP  0  0  0  0  0  0  0  0  0  0  0  0  # atno 17320 bound_to 7965
  146.3529  140.0890  142.8613 LP  0  0  0  0  0  0  0  0  0  0  0  0  # atno 17321 bound_to 7965
  139.5554  144.2289  152.1603 LP  0  0  0  0  0  0  0  0  0  0  0  0  # atno 17342 bound_to 10162
  140.1541  144.5087  150.6670 LP  0  0  0  0  0  0  0  0  0  0  0  0  # atno 17343 bound_to 10162
  157.1171  131.0237  151.3024 LP  0  0  0  0  0  0  0  0  0  0  0  0  # atno 17370 bound_to 10713
  157.4658  130.7680  149.7277 LP  0  0  0  0  0  0  0  0  0  0  0  0  # atno 17371 bound_to 10713
  141.2072  133.7811  157.0131 LP  0  0  0  0  0  0  0  0  0  0  0  0  # atno 17394 bound_to 11000
  140.0892  134.9603  157.1748 LP  0  0  0  0  0  0  0  0  0  0  0  0  # atno 17395 bound_to 11000

$$$$
