AV-unprocessed.smi:3112|AV-procd|sdf|11838|dock3
  -GOLD-   2272017213D 1   1.00000     0.00000
 Structure written by MMmdl.
 37 37  0  0  0  0  0  0  0  0  2 V2000
  146.3540  142.0842  155.3644 C   0  0  0  0  0  0  0  0  0  0  0  0
  147.2504  141.6603  154.1927 C   0  0  0  0  0  0  0  0  0  0  0  0
  148.7543  141.7405  154.5120 C   0  0  2  0  0  0  0  0  0  0  0  0
  149.4730  141.0560  153.5045 O   0  0  0  0  0  0  0  0  0  0  0  0
  149.0904  141.0970  155.8678 C   0  0  0  0  0  0  0  0  0  0  0  0
  149.4232  142.1260  156.8754 N   0  3  0  0  0  0  0  0  0  0  0  0
  150.5541  141.8045  157.7780 C   0  0  1  0  0  0  0  0  0  0  0  0
  151.7196  141.1674  156.9962 C   0  0  0  0  0  0  0  0  0  0  0  0
  151.0042  143.0588  158.5731 C   0  0  2  0  0  0  0  0  0  0  0  0
  151.5694  144.1735  157.6722 C   0  0  0  0  0  0  0  0  0  0  0  0
  151.9065  142.7449  159.6773 N   0  0  0  0  0  0  0  0  0  0  0  0
  153.1853  142.2295  159.6103 C   0  0  0  0  0  0  0  0  0  0  0  0
  153.6511  142.1193  160.8890 C   0  0  0  0  0  0  0  0  0  0  0  0
  152.5746  142.6012  161.6835 C   0  0  0  0  0  0  0  0  0  0  0  0
  151.5350  142.9776  160.9571 N   0  0  0  0  0  0  0  0  0  0  0  0
  145.3009  141.9745  155.1045 H   0  0  0  0  0  0  0  0  0  0  0  0
  146.5183  143.1268  155.6371 H   0  0  0  0  0  0  0  0  0  0  0  0
  146.5428  141.4723  156.2468 H   0  0  0  0  0  0  0  0  0  0  0  0
  146.9963  140.6344  153.9235 H   0  0  0  0  0  0  0  0  0  0  0  0
  147.0207  142.2685  153.3166 H   0  0  0  0  0  0  0  0  0  0  0  0
  149.0658  142.7863  154.5173 H   0  0  0  0  0  0  0  0  0  0  0  0
  148.8649  140.5354  153.0013 H   0  0  0  0  0  0  0  0  0  0  0  0
  148.2316  140.5293  156.2281 H   0  0  0  0  0  0  0  0  0  0  0  0
  149.9143  140.3925  155.7525 H   0  0  0  0  0  0  0  0  0  0  0  0
  149.6214  142.9969  156.4034 H   0  0  0  0  0  0  0  0  0  0  0  0
  150.1977  141.0745  158.5065 H   0  0  0  0  0  0  0  0  0  0  0  0
  152.5743  140.9885  157.6492 H   0  0  0  0  0  0  0  0  0  0  0  0
  152.0554  141.8078  156.1799 H   0  0  0  0  0  0  0  0  0  0  0  0
  151.4413  140.2052  156.5672 H   0  0  0  0  0  0  0  0  0  0  0  0
  150.1047  143.4746  159.0304 H   0  0  0  0  0  0  0  0  0  0  0  0
  150.8487  144.4589  156.9055 H   0  0  0  0  0  0  0  0  0  0  0  0
  152.4858  143.8675  157.1671 H   0  0  0  0  0  0  0  0  0  0  0  0
  151.7979  145.0665  158.2548 H   0  0  0  0  0  0  0  0  0  0  0  0
  153.6543  141.9866  158.6680 H   0  0  0  0  0  0  0  0  0  0  0  0
  154.6149  141.7514  161.2084 H   0  0  0  0  0  0  0  0  0  0  0  0
  152.5187  142.6898  162.7584 H   0  0  0  0  0  0  0  0  0  0  0  0
  148.6036  142.2606  157.4497 H   0  0  0  0  0  0  0  0  0  0  0  0
  1  2  1  0  0  0  0
  1 16  1  0  0  0  0
  1 17  1  0  0  0  0
  1 18  1  0  0  0  0
  2  3  1  0  0  0  0
  2 19  1  0  0  0  0
  2 20  1  0  0  0  0
  3  4  1  0  0  0  0
  3  5  1  0  0  0  0
  3 21  1  0  0  0  0
  4 22  1  0  0  0  0
  5  6  1  0  0  0  0
  5 23  1  0  0  0  0
  5 24  1  0  0  0  0
  6  7  1  0  0  0  0
  6 25  1  0  0  0  0
  6 37  1  0  0  0  0
  7  8  1  0  0  0  0
  7  9  1  0  0  0  0
  7 26  1  0  0  0  0
  8 27  1  0  0  0  0
  8 28  1  0  0  0  0
  8 29  1  0  0  0  0
  9 10  1  0  0  0  0
  9 11  1  0  0  0  0
  9 30  1  0  0  0  0
 10 31  1  0  0  0  0
 10 32  1  0  0  0  0
 10 33  1  0  0  0  0
 11 15  1  0  0  0  0
 11 12  1  0  0  0  0
 12 13  2  0  0  0  0
 12 34  1  0  0  0  0
 13 14  1  0  0  0  0
 13 35  1  0  0  0  0
 14 15  2  0  0  0  0
 14 36  1  0  0  0  0
M  CHG  1   6   1
M  END
> <s_m_source_file>
AV-unprocessed.smi

> <i_m_source_file_index>
3112

> <i_lp_mmshare_version>
43012

> <i_f3d_flags>
0

> <s_epik_input>
W0NIM11bQ0gyXVtDQEhdKFtPSF0pW0NIMl1bTkhdW0NASF0oW0NIM10pW0NASF0oW0NIM10pbjFbY0hdW2NIXVtjSF1uMQ==

> <s_epik_cmdline>
J2VwaWtfcHl0aG9uJywgJy1waCcsICc3LjAnLCAnLXRuJywgJzgnLCAnLW1hJywgJzIwMCcsICctbWV0YWxfYmluZGluZycsICctaW1hZScsICc8aW5maWxlLm1hZT4nLCAnLW9tYWUnLCAnPG91dGZpbGUubWFlPic=

> <r_lp_tautomer_probability>
1

> <r_epik_Ionization_Penalty>
0.0154842

> <r_epik_Ionization_Penalty_Charging>
0.0154724

> <r_epik_Ionization_Penalty_Neutral>
1.17979e-05

> <r_epik_State_Penalty>
0.0121607

> <r_epik_Charging_Adjusted_Penalty>
0.0276331

> <i_epik_Tot_Q>
1

> <i_epik_Tot_abs_Q>
1

> <r_epik_Metal_State_Penalty>
0.0121863

> <b_epik_Metal_Only>
0

> <s_lp_Force_Field>
OPLS_2005

> <r_lp_Energy>
12.0711

> <b_lp_Chiralities_Consistent>
1

> <s_lp_Variant>
AV-unprocessed.smi:3112-3

> <Gold.Version>
5.8.1

> <Gold.Id.Protein>
6NUR|6NUR_protein|mol2

> <Gold.PLP.Fitness>
46.9775

> <Gold.PLP.PLP>
-39.0003

> <Gold.PLP.part.hbond>
-5.0000

> <Gold.PLP.part.metal>
0.0000

> <Gold.PLP.part.buried>
-3.7999

> <Gold.PLP.part.nonpolar>
-30.1290

> <Gold.PLP.part.repulsive>
0.1110

> <Gold.PLP.ligand.clash>
0.0000

> <Gold.PLP.ligand.torsion>
1.2559

> <Gold.PLP.Chemscore.Hbond>
3.4201

> <Gold.PLP.Chemscore.CHOScore>
0.0000

> <Gold.PLP.Chemscore.Metal>
0.0000

> <Gold.Chemscore.Hbonds>
donor molecule, donor type, donor heavy atom, donor atom, acceptor molecule, acceptor atom, score
      L1  H     4    22       P1  7957  0.23
      L1  H     6    25       P1  8028  1.89
      P1  H  6933  6945       L1    15  0.07
      P1  H  7989  7998       L1     4  0.18
      P1  H  8011  8017       L1     4  1.00

> <Gold.PLP.Chemscore.Internal.Correction>
0.2289

> <Gold.Rescore>
     Score         DG    S(hbond)    S(metal)    S(lipo)     H(rot)  DE(clash)    DE(int)     intcor
     14.86     -16.33       1.90        0.00      91.17       2.41       0.33       1.13       ----

> <Gold.Chemscore.Fitness>
14.8597

> <Gold.Chemscore.DG>
-16.3272

> <Gold.Chemscore.ZeroCoef>
-5.4800

> <Gold.Chemscore.Hbond>
1.9002

> <Gold.Chemscore.Metal>
0.0000

> <Gold.Chemscore.Lipo>
91.1720

> <Gold.Chemscore.Internal_Hbond>
0.0000

> <Gold.Chemscore.DEClash>
0.3348

> <Gold.Chemscore.DEInternal>
1.1327

> <Gold.Chemscore.Rot>
2.4089

> <Gold.Chemscore.Internal.Correction>
   9.000000E+99

> <Gold.Chemscore.Hbonds>
donor molecule, donor type, donor heavy atom, donor atom, acceptor molecule, acceptor atom, score
      L1  H     4    22       P1  7957  0.22
      L1  H     6    25       P1  8028  0.86
      P1  H  6933  6945       L1    15  0.01
      P1  H  7989  7998       L1     4  0.18
      P1  H  8011  8017       L1     4  0.09

> <Gold.Chemscore.Hbond.Weighted>
-6.3468

> <Gold.Chemscore.Metal.Weighted>
-0.0000

> <Gold.Chemscore.Lipo.Weighted>
-10.6671

> <Gold.Chemscore.Internal_Hbond.Weighted>
0.0000

> <Gold.Chemscore.DEClash.Weighted>
0.3348

> <Gold.Chemscore.DEInternal.Weighted>
1.1327

> <Gold.Chemscore.Rot.Weighted>
6.1667

> <Gold.Chemscore.Internal.Correction.Weighted>
   9.000000E+99

> <Gold.Protein.RotatedTorsions>
[ 6907 6896 6895 6894 ] final  -59.68 input  -60.11 | X-H torsion
[ 7974 7965 7964 7962 ] final   41.74 input  175.53 | X-H torsion
[ 8008 7997 7996 7995 ] final   96.94 input   59.86 | X-H torsion
[ 10167 10162 10161 10158 ] final  155.91 input  -65.29 | X-H torsion
[ 10718 10713 10712 10709 ] final   51.14 input   66.30 | X-H torsion
[ 10763 10752 10751 10750 ] final   94.20 input  -60.55 | X-H torsion
[ 11005 11000 10999 10996 ] final  106.91 input  -57.11 | X-H torsion

> <Gold.Protein.ActiveResidues>
 VAL166  LYS551  ARG553  GLY616  TRP617  ASP618  TYR619  PRO620  LYS621  CYS622 
 ASP623  PHE694  ASN695  SER759  ASP760  ASP761  ALA762  ILE779  LEU786  VAL792 
 PHE793  MET794  SER795  GLU796  ALA797  LYS798  CYS799  TRP800  GLU811  SER814 

> <Gold.Protein.RotatedAtoms>
  150.7912  134.6936  159.6510 H   0  0  0  0  0  0  0  0  0  0  0  0  # atno 6907 bound_to 6896
  152.4017  134.6271  160.0076 H   0  0  0  0  0  0  0  0  0  0  0  0  # atno 6908 bound_to 6896
  151.6541  133.3283  159.3195 H   0  0  0  0  0  0  0  0  0  0  0  0  # atno 6909 bound_to 6896
  146.0799  139.5381  142.9544 H   0  0  0  0  0  0  0  0  0  0  0  0  # atno 7974 bound_to 7965
  156.0849  140.3265  155.7741 H   0  0  0  0  0  0  0  0  0  0  0  0  # atno 8008 bound_to 7997
  155.5092  140.0575  157.2943 H   0  0  0  0  0  0  0  0  0  0  0  0  # atno 8009 bound_to 7997
  154.4603  140.1963  156.0279 H   0  0  0  0  0  0  0  0  0  0  0  0  # atno 8010 bound_to 7997
  139.4821  144.5056  151.8103 H   0  0  0  0  0  0  0  0  0  0  0  0  # atno 10167 bound_to 10162
  157.4952  130.8402  149.8250 H   0  0  0  0  0  0  0  0  0  0  0  0  # atno 10718 bound_to 10713
  153.2390  135.4298  155.0677 H   0  0  0  0  0  0  0  0  0  0  0  0  # atno 10763 bound_to 10752
  154.8332  135.3398  154.6677 H   0  0  0  0  0  0  0  0  0  0  0  0  # atno 10764 bound_to 10752
  153.7102  135.7023  153.5096 H   0  0  0  0  0  0  0  0  0  0  0  0  # atno 10765 bound_to 10752
  139.8820  134.9384  156.5739 H   0  0  0  0  0  0  0  0  0  0  0  0  # atno 11005 bound_to 11000
  145.6238  141.0317  143.1900 LP  0  0  0  0  0  0  0  0  0  0  0  0  # atno 17320 bound_to 7965
  144.7286  139.7796  143.7355 LP  0  0  0  0  0  0  0  0  0  0  0  0  # atno 17321 bound_to 7965
  140.4553  144.1798  150.5901 LP  0  0  0  0  0  0  0  0  0  0  0  0  # atno 17342 bound_to 10162
  140.4542  143.2474  151.9308 LP  0  0  0  0  0  0  0  0  0  0  0  0  # atno 17343 bound_to 10162
  156.0196  130.3800  150.2001 LP  0  0  0  0  0  0  0  0  0  0  0  0  # atno 17370 bound_to 10713
  157.0191  130.9974  151.3345 LP  0  0  0  0  0  0  0  0  0  0  0  0  # atno 17371 bound_to 10713
  140.8077  133.8454  155.8782 LP  0  0  0  0  0  0  0  0  0  0  0  0  # atno 17394 bound_to 11000
  140.9534  134.1749  157.4710 LP  0  0  0  0  0  0  0  0  0  0  0  0  # atno 17395 bound_to 11000

$$$$
