AV-unprocessed.smi:749|AV-procd|sdf|3586|dock1
  -GOLD-   22720 0583D 1   1.00000     0.00000
 Structure written by MMmdl.
 42 43  0  0  0  0  0  0  0  0  2 V2000
  155.1226  133.3057  162.0347 C   0  0  0  0  0  0  0  0  0  0  0  0
  154.6343  134.6370  162.3983 N   0  0  0  0  0  0  0  0  0  0  0  0
  154.4946  135.5727  161.2717 C   0  0  0  0  0  0  0  0  0  0  0  0
  154.3436  137.0448  161.6912 C   0  0  1  0  0  0  0  0  0  0  0  0
  153.9100  137.8403  160.5466 N   0  0  0  0  0  0  0  0  0  0  0  0
  154.4900  138.9670  160.0880 C   0  0  0  0  0  0  0  0  0  0  0  0
  155.4847  139.4027  160.6668 O   0  0  0  0  0  0  0  0  0  0  0  0
  153.9385  139.5676  159.0000 N   0  5  0  0  0  0  0  0  0  0  0  0
  153.0892  140.6057  159.0946 C   0  0  0  0  0  0  0  0  0  0  0  0
  153.4318  141.9303  159.4787 C   0  0  0  0  0  0  0  0  0  0  0  0
  152.2396  142.5986  159.4159 C   0  0  0  0  0  0  0  0  0  0  0  0
  151.8381  144.0240  159.6712 C   0  0  0  0  0  0  0  0  0  0  0  0
  152.5765  144.9809  158.7138 C   0  0  0  0  0  0  0  0  0  0  0  0
  152.1869  144.4186  161.1186 C   0  0  0  0  0  0  0  0  0  0  0  0
  150.3229  144.1909  159.4512 C   0  0  0  0  0  0  0  0  0  0  0  0
  151.2504  141.7430  159.0347 O   0  0  0  0  0  0  0  0  0  0  0  0
  151.7996  140.4712  158.8379 N   0  0  0  0  0  0  0  0  0  0  0  0
  153.3366  137.1504  162.8408 C   0  0  0  0  0  0  0  0  0  0  0  0
  153.8102  136.3266  164.0442 C   0  0  0  0  0  0  0  0  0  0  0  0
  154.2830  134.9111  163.6781 C   0  0  0  0  0  0  0  0  0  0  0  0
  154.3570  134.0738  164.5782 O   0  0  0  0  0  0  0  0  0  0  0  0
  156.0774  133.1040  162.5216 H   0  0  0  0  0  0  0  0  0  0  0  0
  155.2703  133.2006  160.9591 H   0  0  0  0  0  0  0  0  0  0  0  0
  154.4134  132.5352  162.3402 H   0  0  0  0  0  0  0  0  0  0  0  0
  155.3520  135.4799  160.6034 H   0  0  0  0  0  0  0  0  0  0  0  0
  153.6195  135.2612  160.6989 H   0  0  0  0  0  0  0  0  0  0  0  0
  155.3156  137.4047  162.0347 H   0  0  0  0  0  0  0  0  0  0  0  0
  153.0928  137.5115  160.0536 H   0  0  0  0  0  0  0  0  0  0  0  0
  154.3999  142.3247  159.7490 H   0  0  0  0  0  0  0  0  0  0  0  0
  152.2922  146.0189  158.8900 H   0  0  0  0  0  0  0  0  0  0  0  0
  152.3509  144.7535  157.6710 H   0  0  0  0  0  0  0  0  0  0  0  0
  153.6580  144.9129  158.8390 H   0  0  0  0  0  0  0  0  0  0  0  0
  153.2557  144.3167  161.3093 H   0  0  0  0  0  0  0  0  0  0  0  0
  151.6637  143.7911  161.8410 H   0  0  0  0  0  0  0  0  0  0  0  0
  151.9129  145.4534  161.3273 H   0  0  0  0  0  0  0  0  0  0  0  0
  150.0063  145.2209  159.6194 H   0  0  0  0  0  0  0  0  0  0  0  0
  149.7484  143.5590  160.1297 H   0  0  0  0  0  0  0  0  0  0  0  0
  150.0391  143.9211  158.4332 H   0  0  0  0  0  0  0  0  0  0  0  0
  153.2092  138.1911  163.1408 H   0  0  0  0  0  0  0  0  0  0  0  0
  152.3562  136.8002  162.5143 H   0  0  0  0  0  0  0  0  0  0  0  0
  154.6444  136.8374  164.5265 H   0  0  0  0  0  0  0  0  0  0  0  0
  153.0136  136.2631  164.7863 H   0  0  0  0  0  0  0  0  0  0  0  0
  1  2  1  0  0  0  0
  1 22  1  0  0  0  0
  1 23  1  0  0  0  0
  1 24  1  0  0  0  0
  2 20  1  0  0  0  0
  2  3  1  0  0  0  0
  3  4  1  0  0  0  0
  3 25  1  0  0  0  0
  3 26  1  0  0  0  0
  4  5  1  0  0  0  0
  4 18  1  0  0  0  0
  4 27  1  0  0  0  0
  5  6  1  0  0  0  0
  5 28  1  0  0  0  0
  6  7  2  0  0  0  0
  6  8  1  0  0  0  0
  8  9  1  0  0  0  0
  9 17  2  0  0  0  0
  9 10  1  0  0  0  0
 10 11  2  0  0  0  0
 10 29  1  0  0  0  0
 11 12  1  0  0  0  0
 11 16  1  0  0  0  0
 12 13  1  0  0  0  0
 12 14  1  0  0  0  0
 12 15  1  0  0  0  0
 13 30  1  0  0  0  0
 13 31  1  0  0  0  0
 13 32  1  0  0  0  0
 14 33  1  0  0  0  0
 14 34  1  0  0  0  0
 14 35  1  0  0  0  0
 15 36  1  0  0  0  0
 15 37  1  0  0  0  0
 15 38  1  0  0  0  0
 16 17  1  0  0  0  0
 18 19  1  0  0  0  0
 18 39  1  0  0  0  0
 18 40  1  0  0  0  0
 19 20  1  0  0  0  0
 19 41  1  0  0  0  0
 19 42  1  0  0  0  0
 20 21  2  0  0  0  0
M  CHG  1   8  -1
M  END
> <s_m_source_file>
AV-unprocessed.smi

> <i_m_source_file_index>
749

> <i_lp_mmshare_version>
43012

> <i_f3d_flags>
0

> <s_epik_input>
Tz1DMVtDSDJdW0NIMl1bQ0BASF0oW0NIMl1OMVtDSDNdKVtOSF1DKD1PKVtOSF1jMltjSF1jKG9uMilDKFtDSDNdKShbQ0gzXSlbQ0gzXQ==

> <s_epik_cmdline>
J2VwaWtfcHl0aG9uJywgJy1waCcsICc3LjAnLCAnLXRuJywgJzgnLCAnLW1hJywgJzIwMCcsICctbWV0YWxfYmluZGluZycsICctaW1hZScsICc8aW5maWxlLm1hZT4nLCAnLW9tYWUnLCAnPG91dGZpbGUubWFlPic=

> <r_lp_tautomer_probability>
1

> <r_epik_Ionization_Penalty>
6.47858

> <r_epik_Ionization_Penalty_Charging>
6.47844

> <r_epik_Ionization_Penalty_Neutral>
0.000138814

> <r_epik_State_Penalty>
6.47843

> <r_epik_Charging_Adjusted_Penalty>
12.9569

> <i_epik_Tot_Q>
-1

> <i_epik_Tot_abs_Q>
1

> <r_epik_Metal_State_Penalty>
2.40644

> <b_epik_Metal_Only>
1

> <s_lp_Force_Field>
OPLS_2005

> <r_lp_Energy>
10.0232

> <b_lp_Chiralities_Consistent>
1

> <s_lp_Variant>
AV-unprocessed.smi:749-3

> <Gold.Version>
5.8.1

> <Gold.Id.Protein>
6NUR|6NUR_protein|mol2

> <Gold.PLP.Fitness>
44.8482

> <Gold.PLP.PLP>
-41.7214

> <Gold.PLP.part.hbond>
-1.0000

> <Gold.PLP.part.metal>
0.0000

> <Gold.PLP.part.buried>
-6.3423

> <Gold.PLP.part.nonpolar>
-33.3971

> <Gold.PLP.part.repulsive>
0.1128

> <Gold.PLP.ligand.clash>
0.0000

> <Gold.PLP.ligand.torsion>
1.4819

> <Gold.PLP.Chemscore.Hbond>
2.0000

> <Gold.PLP.Chemscore.CHOScore>
0.0000

> <Gold.PLP.Chemscore.Metal>
0.0000

> <Gold.Chemscore.Hbonds>
donor molecule, donor type, donor heavy atom, donor atom, acceptor molecule, acceptor atom, score
      P1  H  7997  8009       L1     8  1.98

> <Gold.PLP.Chemscore.Internal.Correction>
0.0907

> <Gold.Rescore>
     Score         DG    S(hbond)    S(metal)    S(lipo)     H(rot)  DE(clash)    DE(int)     intcor
     14.79     -16.26       0.76        0.00      97.10       1.22       0.01       1.46       ----

> <Gold.Chemscore.Fitness>
14.7905

> <Gold.Chemscore.DG>
-16.2635

> <Gold.Chemscore.ZeroCoef>
-5.4800

> <Gold.Chemscore.Hbond>
0.7621

> <Gold.Chemscore.Metal>
0.0000

> <Gold.Chemscore.Lipo>
97.1018

> <Gold.Chemscore.Internal_Hbond>
0.0000

> <Gold.Chemscore.DEClash>
0.0089

> <Gold.Chemscore.DEInternal>
1.4641

> <Gold.Chemscore.Rot>
1.2198

> <Gold.Chemscore.Internal.Correction>
   9.000000E+99

> <Gold.Chemscore.Hbonds>
donor molecule, donor type, donor heavy atom, donor atom, acceptor molecule, acceptor atom, score
      P1  H  7997  8009       L1     8  0.24

> <Gold.Chemscore.Hbond.Weighted>
-2.5453

> <Gold.Chemscore.Metal.Weighted>
-0.0000

> <Gold.Chemscore.Lipo.Weighted>
-11.3609

> <Gold.Chemscore.Internal_Hbond.Weighted>
0.0000

> <Gold.Chemscore.DEClash.Weighted>
0.0089

> <Gold.Chemscore.DEInternal.Weighted>
1.4641

> <Gold.Chemscore.Rot.Weighted>
3.1228

> <Gold.Chemscore.Internal.Correction.Weighted>
   9.000000E+99

> <Gold.Protein.RotatedTorsions>
[ 6907 6896 6895 6894 ] final   95.64 input  -60.11 | X-H torsion
[ 7974 7965 7964 7962 ] final   34.20 input  175.53 | X-H torsion
[ 8008 7997 7996 7995 ] final  136.47 input   59.86 | X-H torsion
[ 10167 10162 10161 10158 ] final  108.78 input  -65.29 | X-H torsion
[ 10718 10713 10712 10709 ] final -108.32 input   66.30 | X-H torsion
[ 10763 10752 10751 10750 ] final   54.09 input  -60.55 | X-H torsion
[ 11005 11000 10999 10996 ] final   48.21 input  -57.11 | X-H torsion

> <Gold.Protein.ActiveResidues>
 VAL166  LYS551  ARG553  GLY616  TRP617  ASP618  TYR619  PRO620  LYS621  CYS622 
 ASP623  PHE694  ASN695  SER759  ASP760  ASP761  ALA762  ILE779  LEU786  VAL792 
 PHE793  MET794  SER795  GLU796  ALA797  LYS798  CYS799  TRP800  GLU811  SER814 

> <Gold.Protein.RotatedAtoms>
  152.5442  134.1008  159.8316 H   0  0  0  0  0  0  0  0  0  0  0  0  # atno 6907 bound_to 6896
  151.1086  133.5182  159.2614 H   0  0  0  0  0  0  0  0  0  0  0  0  # atno 6908 bound_to 6896
  151.1909  135.0411  159.8887 H   0  0  0  0  0  0  0  0  0  0  0  0  # atno 6909 bound_to 6896
  146.1369  139.6300  142.9189 H   0  0  0  0  0  0  0  0  0  0  0  0  # atno 7974 bound_to 7965
  156.3004  140.2444  156.3751 H   0  0  0  0  0  0  0  0  0  0  0  0  # atno 8008 bound_to 7997
  154.8753  140.0414  157.1769 H   0  0  0  0  0  0  0  0  0  0  0  0  # atno 8009 bound_to 7997
  154.8753  140.2941  155.5461 H   0  0  0  0  0  0  0  0  0  0  0  0  # atno 8010 bound_to 7997
  139.6819  144.7117  151.1500 H   0  0  0  0  0  0  0  0  0  0  0  0  # atno 10167 bound_to 10162
  156.0480  130.5707  150.7944 H   0  0  0  0  0  0  0  0  0  0  0  0  # atno 10718 bound_to 10713
  152.9801  135.5756  154.4848 H   0  0  0  0  0  0  0  0  0  0  0  0  # atno 10763 bound_to 10752
  154.4391  135.2775  155.1862 H   0  0  0  0  0  0  0  0  0  0  0  0  # atno 10764 bound_to 10752
  154.3537  135.6203  153.5709 H   0  0  0  0  0  0  0  0  0  0  0  0  # atno 10765 bound_to 10752
  140.1210  134.4829  155.8597 H   0  0  0  0  0  0  0  0  0  0  0  0  # atno 11005 bound_to 11000
  145.5135  141.0434  143.2475 LP  0  0  0  0  0  0  0  0  0  0  0  0  # atno 17320 bound_to 7965
  144.7750  139.6651  143.7179 LP  0  0  0  0  0  0  0  0  0  0  0  0  # atno 17321 bound_to 7965
  140.7655  143.5687  150.9020 LP  0  0  0  0  0  0  0  0  0  0  0  0  # atno 17342 bound_to 10162
  139.9359  143.6438  152.3065 LP  0  0  0  0  0  0  0  0  0  0  0  0  # atno 17343 bound_to 10162
  157.5376  131.0939  150.9871 LP  0  0  0  0  0  0  0  0  0  0  0  0  # atno 17370 bound_to 10713
  157.0162  130.5656  149.5326 LP  0  0  0  0  0  0  0  0  0  0  0  0  # atno 17371 bound_to 10713
  141.2151  133.6760  156.6889 LP  0  0  0  0  0  0  0  0  0  0  0  0  # atno 17394 bound_to 11000
  140.2965  134.8198  157.4061 LP  0  0  0  0  0  0  0  0  0  0  0  0  # atno 17395 bound_to 11000

$$$$
