AV-unprocessed.smi:1056|AV-procd|sdf|4647|dock5
  -GOLD-   22720 3153D 1   1.00000     0.00000
 Structure written by MMmdl.
 45 47  0  0  0  0  0  0  0  0  4 V2000
  152.1862  144.3933  161.0128 C   0  0  0  0  0  0  0  0  0  0  0  0
  152.0767  143.3793  159.8867 C   0  0  0  0  0  0  0  0  0  0  0  0
  151.2244  143.6705  158.7977 C   0  0  0  0  0  0  0  0  0  0  0  0
  151.1466  142.7245  157.7827 C   0  0  0  0  0  0  0  0  0  0  0  0
  150.4095  142.7125  156.5966 N   0  3  0  0  0  0  0  0  0  0  0  0
  150.6637  141.5616  155.9149 C   0  0  0  0  0  0  0  0  0  0  0  0
  151.5511  140.8374  156.6498 N   0  0  0  0  0  0  0  0  0  0  0  0
  152.1550  139.5266  156.3767 C   0  0  0  0  0  0  0  0  0  0  0  0
  151.7964  138.9777  154.9814 C   0  0  1  0  0  0  0  0  0  0  0  0
  152.8280  138.1100  154.5495 O   0  0  0  0  0  0  0  0  0  0  0  0
  150.4629  138.2036  155.0059 C   0  0  0  0  0  0  0  0  0  0  0  0
  150.3893  137.2251  156.1195 N   0  3  2  0  0  0  0  0  0  0  0  0
  149.7630  135.9323  155.7368 C   0  0  0  0  0  0  0  0  0  0  0  0
  150.0084  134.8789  156.8334 C   0  0  0  0  0  0  0  0  0  0  0  0
  149.6933  135.4370  158.1539 N   0  5  0  0  0  0  0  0  0  0  0  0
  149.6602  136.7644  158.4910 C   0  0  0  0  0  0  0  0  0  0  0  0
  149.5188  137.2078  159.6284 O   0  0  0  0  0  0  0  0  0  0  0  0
  149.7599  137.8021  157.3399 C   0  0  0  0  0  0  0  0  0  0  0  0
  151.8805  141.5231  157.8236 C   0  0  0  0  0  0  0  0  0  0  0  0
  152.7243  141.2195  158.8890 C   0  0  0  0  0  0  0  0  0  0  0  0
  152.8165  142.1689  159.9321 C   0  0  0  0  0  0  0  0  0  0  0  0
  153.7281  141.8662  161.1091 C   0  0  0  0  0  0  0  0  0  0  0  0
  151.5427  145.2559  160.8376 H   0  0  0  0  0  0  0  0  0  0  0  0
  153.2106  144.7551  161.1028 H   0  0  0  0  0  0  0  0  0  0  0  0
  151.8916  143.9459  161.9622 H   0  0  0  0  0  0  0  0  0  0  0  0
  150.6582  144.5897  158.7563 H   0  0  0  0  0  0  0  0  0  0  0  0
  150.2358  141.2736  154.9653 H   0  0  0  0  0  0  0  0  0  0  0  0
  153.2360  139.6389  156.4736 H   0  0  0  0  0  0  0  0  0  0  0  0
  151.8447  138.8352  157.1612 H   0  0  0  0  0  0  0  0  0  0  0  0
  151.7429  139.8114  154.2825 H   0  0  0  0  0  0  0  0  0  0  0  0
  153.4152  138.5880  153.9838 H   0  0  0  0  0  0  0  0  0  0  0  0
  149.6451  138.9218  155.0880 H   0  0  0  0  0  0  0  0  0  0  0  0
  150.3073  137.6758  154.0636 H   0  0  0  0  0  0  0  0  0  0  0  0
  148.6927  136.0797  155.5822 H   0  0  0  0  0  0  0  0  0  0  0  0
  150.1654  135.5626  154.7946 H   0  0  0  0  0  0  0  0  0  0  0  0
  149.4206  133.9878  156.6153 H   0  0  0  0  0  0  0  0  0  0  0  0
  151.0517  134.5664  156.7862 H   0  0  0  0  0  0  0  0  0  0  0  0
  150.3441  138.6570  157.6831 H   0  0  0  0  0  0  0  0  0  0  0  0
  148.7576  138.1642  157.1060 H   0  0  0  0  0  0  0  0  0  0  0  0
  153.2871  140.2985  158.9229 H   0  0  0  0  0  0  0  0  0  0  0  0
  154.2361  140.9093  160.9858 H   0  0  0  0  0  0  0  0  0  0  0  0
  153.1549  141.8218  162.0354 H   0  0  0  0  0  0  0  0  0  0  0  0
  154.4920  142.6376  161.2108 H   0  0  0  0  0  0  0  0  0  0  0  0
  151.3396  137.0103  156.3840 H   0  0  0  0  0  0  0  0  0  0  0  0
  149.7789  143.4353  156.2734 H   0  0  0  0  0  0  0  0  0  0  0  0
  1  2  1  0  0  0  0
  1 23  1  0  0  0  0
  1 24  1  0  0  0  0
  1 25  1  0  0  0  0
  2 21  1  0  0  0  0
  2  3  2  0  0  0  0
  3  4  1  0  0  0  0
  3 26  1  0  0  0  0
  4 19  2  0  0  0  0
  4  5  1  0  0  0  0
  5  6  2  0  0  0  0
  5 45  1  0  0  0  0
  6  7  1  0  0  0  0
  6 27  1  0  0  0  0
  7  8  1  0  0  0  0
  7 19  1  0  0  0  0
  8  9  1  0  0  0  0
  8 28  1  0  0  0  0
  8 29  1  0  0  0  0
  9 10  1  0  0  0  0
  9 11  1  0  0  0  0
  9 30  1  0  0  0  0
 10 31  1  0  0  0  0
 11 12  1  0  0  0  0
 11 32  1  0  0  0  0
 11 33  1  0  0  0  0
 12 18  1  0  0  0  0
 12 13  1  0  0  0  0
 12 44  1  0  0  0  0
 13 14  1  0  0  0  0
 13 34  1  0  0  0  0
 13 35  1  0  0  0  0
 14 15  1  0  0  0  0
 14 36  1  0  0  0  0
 14 37  1  0  0  0  0
 15 16  1  0  0  0  0
 16 17  2  0  0  0  0
 16 18  1  0  0  0  0
 18 38  1  0  0  0  0
 18 39  1  0  0  0  0
 19 20  1  0  0  0  0
 20 21  2  0  0  0  0
 20 40  1  0  0  0  0
 21 22  1  0  0  0  0
 22 41  1  0  0  0  0
 22 42  1  0  0  0  0
 22 43  1  0  0  0  0
M  CHG  1   5   1
M  CHG  1  12   1
M  CHG  1  15  -1
M  END
> <s_m_source_file>
AV-unprocessed.smi

> <i_m_source_file_index>
1056

> <i_lp_mmshare_version>
43012

> <i_f3d_flags>
0

> <s_epik_input>
W0NIM11jKFtjSF0xKWMoW0NIM10pW2NIXWMoYzEyKW4oW2NIXW4yKVtDSDJdW0NASF0oW09IXSlbQ0gyXU4zW0NIMl1bQ0gyXVtOSF1DKD1PKVtDSDJdMw==

> <s_epik_cmdline>
J2VwaWtfcHl0aG9uJywgJy1waCcsICc3LjAnLCAnLXRuJywgJzgnLCAnLW1hJywgJzIwMCcsICctbWV0YWxfYmluZGluZycsICctaW1hZScsICc8aW5maWxlLm1hZT4nLCAnLW9tYWUnLCAnPG91dGZpbGUubWFlPic=

> <r_epik_Ionization_Penalty>
6.22415

> <r_epik_Ionization_Penalty_Charging>
6.22415

> <r_epik_Ionization_Penalty_Neutral>
4.02797e-07

> <r_epik_State_Penalty>
6.37716

> <r_epik_Charging_Adjusted_Penalty>
12.6013

> <i_epik_Tot_Q>
1

> <i_epik_Tot_abs_Q>
3

> <r_epik_Metal_State_Penalty>
2.53509

> <b_epik_Metal_Only>
1

> <s_lp_Force_Field>
OPLS_2005

> <r_lp_Energy>
25.2777

> <b_lp_Chiralities_Consistent>
1

> <s_lp_Variant>
AV-unprocessed.smi:1056-18

> <Gold.Version>
5.8.1

> <Gold.Id.Protein>
6NUR|6NUR_protein|mol2

> <Gold.PLP.Fitness>
55.5755

> <Gold.PLP.PLP>
-45.3503

> <Gold.PLP.part.hbond>
-3.8622

> <Gold.PLP.part.metal>
0.0000

> <Gold.PLP.part.buried>
-7.1840

> <Gold.PLP.part.nonpolar>
-33.4444

> <Gold.PLP.part.repulsive>
0.0928

> <Gold.PLP.ligand.clash>
0.0000

> <Gold.PLP.ligand.torsion>
0.9119

> <Gold.PLP.Chemscore.Hbond>
4.0062

> <Gold.PLP.Chemscore.CHOScore>
0.0000

> <Gold.PLP.Chemscore.Metal>
0.0000

> <Gold.Chemscore.Hbonds>
donor molecule, donor type, donor heavy atom, donor atom, acceptor molecule, acceptor atom, score
      L1  H     5    45       P1  8028  2.00
      P1  H  6896  6907       L1    15  1.95

> <Gold.PLP.Chemscore.Internal.Correction>
0.0304

> <Gold.Rescore>
     Score         DG    S(hbond)    S(metal)    S(lipo)     H(rot)  DE(clash)    DE(int)     intcor
     16.89     -17.96       1.63        0.00     112.01       2.37       0.06       1.01       ----

> <Gold.Chemscore.Fitness>
16.8902

> <Gold.Chemscore.DG>
-17.9577

> <Gold.Chemscore.ZeroCoef>
-5.4800

> <Gold.Chemscore.Hbond>
1.6306

> <Gold.Chemscore.Metal>
0.0000

> <Gold.Chemscore.Lipo>
112.0070

> <Gold.Chemscore.Internal_Hbond>
0.0000

> <Gold.Chemscore.DEClash>
0.0578

> <Gold.Chemscore.DEInternal>
1.0098

> <Gold.Chemscore.Rot>
2.3724

> <Gold.Chemscore.Internal.Correction>
   9.000000E+99

> <Gold.Chemscore.Hbonds>
donor molecule, donor type, donor heavy atom, donor atom, acceptor molecule, acceptor atom, score
      L1  H     5    45       P1  8028  1.00
      P1  H  6896  6907       L1    15  0.41
      P1  H 10752 10763       L1    10  0.02

> <Gold.Chemscore.Hbond.Weighted>
-5.4463

> <Gold.Chemscore.Metal.Weighted>
-0.0000

> <Gold.Chemscore.Lipo.Weighted>
-13.1048

> <Gold.Chemscore.Internal_Hbond.Weighted>
0.0000

> <Gold.Chemscore.DEClash.Weighted>
0.0578

> <Gold.Chemscore.DEInternal.Weighted>
1.0098

> <Gold.Chemscore.Rot.Weighted>
6.0734

> <Gold.Chemscore.Internal.Correction.Weighted>
   9.000000E+99

> <Gold.Protein.RotatedTorsions>
[ 6907 6896 6895 6894 ] final  -87.34 input  -60.11 | X-H torsion
[ 7974 7965 7964 7962 ] final   -3.43 input  175.53 | X-H torsion
[ 8008 7997 7996 7995 ] final -130.43 input   59.86 | X-H torsion
[ 10167 10162 10161 10158 ] final   38.12 input  -65.29 | X-H torsion
[ 10718 10713 10712 10709 ] final -119.56 input   66.30 | X-H torsion
[ 10763 10752 10751 10750 ] final   27.33 input  -60.55 | X-H torsion
[ 11005 11000 10999 10996 ] final   50.47 input  -57.11 | X-H torsion

> <Gold.Protein.ActiveResidues>
 VAL166  LYS551  ARG553  GLY616  TRP617  ASP618  TYR619  PRO620  LYS621  CYS622 
 ASP623  PHE694  ASN695  SER759  ASP760  ASP761  ALA762  ILE779  LEU786  VAL792 
 PHE793  MET794  SER795  GLU796  ALA797  LYS798  CYS799  TRP800  GLU811  SER814 

> <Gold.Protein.RotatedAtoms>
  150.6866  134.2911  159.4666 H   0  0  0  0  0  0  0  0  0  0  0  0  # atno 6907 bound_to 6896
  152.0816  134.9465  160.0582 H   0  0  0  0  0  0  0  0  0  0  0  0  # atno 6908 bound_to 6896
  152.0816  133.4120  159.4540 H   0  0  0  0  0  0  0  0  0  0  0  0  # atno 6909 bound_to 6896
  146.2389  140.1719  142.8332 H   0  0  0  0  0  0  0  0  0  0  0  0  # atno 7974 bound_to 7965
  155.2957  140.0450  157.3026 H   0  0  0  0  0  0  0  0  0  0  0  0  # atno 8008 bound_to 7997
  154.5515  140.2319  155.8444 H   0  0  0  0  0  0  0  0  0  0  0  0  # atno 8009 bound_to 7997
  156.1971  140.3035  155.9456 H   0  0  0  0  0  0  0  0  0  0  0  0  # atno 8010 bound_to 7997
  140.3967  144.1779  150.6132 H   0  0  0  0  0  0  0  0  0  0  0  0  # atno 10167 bound_to 10162
  156.1190  130.6308  150.9431 H   0  0  0  0  0  0  0  0  0  0  0  0  # atno 10718 bound_to 10713
  153.0562  135.6539  154.0571 H   0  0  0  0  0  0  0  0  0  0  0  0  # atno 10763 bound_to 10752
  154.0248  135.2916  155.3378 H   0  0  0  0  0  0  0  0  0  0  0  0  # atno 10764 bound_to 10752
  154.6879  135.5294  153.8419 H   0  0  0  0  0  0  0  0  0  0  0  0  # atno 10765 bound_to 10752
  140.1015  134.5075  155.8758 H   0  0  0  0  0  0  0  0  0  0  0  0  # atno 11005 bound_to 11000
  145.0004  140.8627  143.5285 LP  0  0  0  0  0  0  0  0  0  0  0  0  # atno 17320 bound_to 7965
  145.1738  139.2389  143.5328 LP  0  0  0  0  0  0  0  0  0  0  0  0  # atno 17321 bound_to 7965
  140.4783  143.2388  151.8992 LP  0  0  0  0  0  0  0  0  0  0  0  0  # atno 17342 bound_to 10162
  139.4786  144.5297  151.8684 LP  0  0  0  0  0  0  0  0  0  0  0  0  # atno 17343 bound_to 10162
  157.6374  131.0914  150.8321 LP  0  0  0  0  0  0  0  0  0  0  0  0  # atno 17370 bound_to 10713
  156.8420  130.5051  149.5320 LP  0  0  0  0  0  0  0  0  0  0  0  0  # atno 17371 bound_to 10713
  141.2107  133.6697  156.6527 LP  0  0  0  0  0  0  0  0  0  0  0  0  # atno 17394 bound_to 11000
  140.3214  134.8005  157.4255 LP  0  0  0  0  0  0  0  0  0  0  0  0  # atno 17395 bound_to 11000

$$$$
