AV-unprocessed.smi:2604|AV-procd|sdf|10189|dock10
  -GOLD-   2272014203D 1   1.00000     0.00000
 Structure written by MMmdl.
 26 27  0  0  0  0  0  0  0  0  2 V2000
  152.5512  143.8499  162.2573 C   0  0  0  0  0  0  0  0  0  0  0  0
  153.4400  142.9003  162.7986 C   0  0  0  0  0  0  0  0  0  0  0  0
  153.9367  141.8632  162.0906 N   0  0  0  0  0  0  0  0  0  0  0  0
  153.5537  141.7352  160.8023 C   0  0  0  0  0  0  0  0  0  0  0  0
  152.6639  142.6252  160.1621 C   0  0  0  0  0  0  0  0  0  0  0  0
  152.2891  142.4217  158.7031 C   0  0  2  0  0  0  0  0  0  0  0  0
  151.2953  143.5054  158.2262 C   0  0  0  0  0  0  0  0  0  0  0  0
  150.9735  143.3199  156.7966 N   0  3  0  0  0  0  0  0  0  0  0  0
  150.4636  141.9590  156.5386 C   0  0  0  0  0  0  0  0  0  0  0  0
  151.4781  140.9141  157.0373 C   0  0  0  0  0  0  0  0  0  0  0  0
  151.7137  141.0975  158.4661 N   0  0  0  0  0  0  0  0  0  0  0  0
  152.1577  143.7094  160.9127 C   0  0  0  0  0  0  0  0  0  0  0  0
  152.1813  144.6662  162.8599 H   0  0  0  0  0  0  0  0  0  0  0  0
  153.7618  142.9768  163.8266 H   0  0  0  0  0  0  0  0  0  0  0  0
  153.9725  140.8961  160.2665 H   0  0  0  0  0  0  0  0  0  0  0  0
  153.2065  142.4966  158.1168 H   0  0  0  0  0  0  0  0  0  0  0  0
  150.3739  143.4731  158.8098 H   0  0  0  0  0  0  0  0  0  0  0  0
  151.7235  144.4992  158.3602 H   0  0  0  0  0  0  0  0  0  0  0  0
  150.2805  143.9991  156.5162 H   0  0  0  0  0  0  0  0  0  0  0  0
  149.5012  141.8285  157.0360 H   0  0  0  0  0  0  0  0  0  0  0  0
  150.2902  141.8402  155.4688 H   0  0  0  0  0  0  0  0  0  0  0  0
  151.0924  139.9083  156.8697 H   0  0  0  0  0  0  0  0  0  0  0  0
  152.4191  140.9915  156.4906 H   0  0  0  0  0  0  0  0  0  0  0  0
  152.3504  140.3869  158.7999 H   0  0  0  0  0  0  0  0  0  0  0  0
  151.4803  144.4241  160.4685 H   0  0  0  0  0  0  0  0  0  0  0  0
  151.8139  143.4592  156.2544 H   0  0  0  0  0  0  0  0  0  0  0  0
  1 12  1  0  0  0  0
  1  2  2  0  0  0  0
  1 13  1  0  0  0  0
  2  3  1  0  0  0  0
  2 14  1  0  0  0  0
  3  4  2  0  0  0  0
  4  5  1  0  0  0  0
  4 15  1  0  0  0  0
  5  6  1  0  0  0  0
  5 12  2  0  0  0  0
  6 11  1  0  0  0  0
  6  7  1  0  0  0  0
  6 16  1  0  0  0  0
  7  8  1  0  0  0  0
  7 17  1  0  0  0  0
  7 18  1  0  0  0  0
  8  9  1  0  0  0  0
  8 19  1  0  0  0  0
  8 26  1  0  0  0  0
  9 10  1  0  0  0  0
  9 20  1  0  0  0  0
  9 21  1  0  0  0  0
 10 11  1  0  0  0  0
 10 22  1  0  0  0  0
 10 23  1  0  0  0  0
 11 24  1  0  0  0  0
 12 25  1  0  0  0  0
M  CHG  1   8   1
M  END
> <s_m_source_file>
AV-unprocessed.smi

> <i_m_source_file_index>
2604

> <i_lp_mmshare_version>
43012

> <i_f3d_flags>
0

> <s_epik_input>
W2NIXTFbY0hdW2NIXW5bY0hdYzFbQ0BASF0yW0NIMl1bTkhdW0NIMl1bQ0gyXVtOSF0y

> <s_epik_cmdline>
J2VwaWtfcHl0aG9uJywgJy1waCcsICc3LjAnLCAnLXRuJywgJzgnLCAnLW1hJywgJzIwMCcsICctbWV0YWxfYmluZGluZycsICctaW1hZScsICc8aW5maWxlLm1hZT4nLCAnLW9tYWUnLCAnPG91dGZpbGUubWFlPic=

> <r_epik_Ionization_Penalty>
0.0181456

> <r_epik_Ionization_Penalty_Charging>
0.010317

> <r_epik_Ionization_Penalty_Neutral>
0.00782861

> <r_epik_State_Penalty>
0.306622

> <r_epik_Charging_Adjusted_Penalty>
0.316939

> <i_epik_Tot_Q>
1

> <i_epik_Tot_abs_Q>
1

> <r_epik_Metal_State_Penalty>
0.302658

> <b_epik_Metal_Only>
0

> <s_lp_Force_Field>
OPLS_2005

> <r_lp_Energy>
10.6943

> <b_lp_Chiralities_Consistent>
1

> <s_lp_Variant>
AV-unprocessed.smi:2604-1

> <Gold.Version>
5.8.1

> <Gold.Id.Protein>
6NUR|6NUR_protein|mol2

> <Gold.PLP.Fitness>
38.3025

> <Gold.PLP.PLP>
-32.3247

> <Gold.PLP.part.hbond>
-1.8003

> <Gold.PLP.part.metal>
0.0000

> <Gold.PLP.part.buried>
-3.9567

> <Gold.PLP.part.nonpolar>
-26.1265

> <Gold.PLP.part.repulsive>
0.0490

> <Gold.PLP.ligand.clash>
0.0000

> <Gold.PLP.ligand.torsion>
0.0151

> <Gold.PLP.Chemscore.Hbond>
2.0000

> <Gold.PLP.Chemscore.CHOScore>
0.0000

> <Gold.PLP.Chemscore.Metal>
0.0000

> <Gold.Chemscore.Hbonds>
donor molecule, donor type, donor heavy atom, donor atom, acceptor molecule, acceptor atom, score
      L1  H     8    19       P1  8028  2.00

> <Gold.PLP.Chemscore.Internal.Correction>
0.0081

> <Gold.Rescore>
     Score         DG    S(hbond)    S(metal)    S(lipo)     H(rot)  DE(clash)    DE(int)     intcor
     17.01     -17.02       1.00        0.00      91.95       1.00       0.00       0.01       ----

> <Gold.Chemscore.Fitness>
17.0078

> <Gold.Chemscore.DG>
-17.0180

> <Gold.Chemscore.ZeroCoef>
-5.4800

> <Gold.Chemscore.Hbond>
0.9999

> <Gold.Chemscore.Metal>
0.0000

> <Gold.Chemscore.Lipo>
91.9527

> <Gold.Chemscore.Internal_Hbond>
0.0000

> <Gold.Chemscore.DEClash>
0.0000

> <Gold.Chemscore.DEInternal>
0.0102

> <Gold.Chemscore.Rot>
1.0000

> <Gold.Chemscore.Internal.Correction>
   9.000000E+99

> <Gold.Chemscore.Hbonds>
donor molecule, donor type, donor heavy atom, donor atom, acceptor molecule, acceptor atom, score
      L1  H     8    19       P1  8028  1.00

> <Gold.Chemscore.Hbond.Weighted>
-3.3395

> <Gold.Chemscore.Metal.Weighted>
-0.0000

> <Gold.Chemscore.Lipo.Weighted>
-10.7585

> <Gold.Chemscore.Internal_Hbond.Weighted>
0.0000

> <Gold.Chemscore.DEClash.Weighted>
0.0000

> <Gold.Chemscore.DEInternal.Weighted>
0.0102

> <Gold.Chemscore.Rot.Weighted>
2.5600

> <Gold.Chemscore.Internal.Correction.Weighted>
   9.000000E+99

> <Gold.Protein.RotatedTorsions>
[ 6907 6896 6895 6894 ] final   34.63 input  -60.11 | X-H torsion
[ 7974 7965 7964 7962 ] final  -89.69 input  175.53 | X-H torsion
[ 8008 7997 7996 7995 ] final -152.83 input   59.86 | X-H torsion
[ 10167 10162 10161 10158 ] final  -59.46 input  -65.29 | X-H torsion
[ 10718 10713 10712 10709 ] final -174.43 input   66.30 | X-H torsion
[ 10763 10752 10751 10750 ] final -136.72 input  -60.55 | X-H torsion
[ 11005 11000 10999 10996 ] final   83.76 input  -57.11 | X-H torsion

> <Gold.Protein.ActiveResidues>
 VAL166  LYS551  ARG553  GLY616  TRP617  ASP618  TYR619  PRO620  LYS621  CYS622 
 ASP623  PHE694  ASN695  SER759  ASP760  ASP761  ALA762  ILE779  LEU786  VAL792 
 PHE793  MET794  SER795  GLU796  ALA797  LYS798  CYS799  TRP800  GLU811  SER814 

> <Gold.Protein.RotatedAtoms>
  152.1051  134.9314  160.0568 H   0  0  0  0  0  0  0  0  0  0  0  0  # atno 6907 bound_to 6896
  152.0513  133.4015  159.4386 H   0  0  0  0  0  0  0  0  0  0  0  0  # atno 6908 bound_to 6896
  150.6841  134.3225  159.4836 H   0  0  0  0  0  0  0  0  0  0  0  0  # atno 6909 bound_to 6896
  145.4364  140.9557  143.2099 H   0  0  0  0  0  0  0  0  0  0  0  0  # atno 7974 bound_to 7965
  155.6612  140.0723  157.2553 H   0  0  0  0  0  0  0  0  0  0  0  0  # atno 8008 bound_to 7997
  154.4142  140.1716  156.1829 H   0  0  0  0  0  0  0  0  0  0  0  0  # atno 8009 bound_to 7997
  155.9695  140.3363  155.6566 H   0  0  0  0  0  0  0  0  0  0  0  0  # atno 8010 bound_to 7997
  140.6133  143.2394  151.5656 H   0  0  0  0  0  0  0  0  0  0  0  0  # atno 10167 bound_to 10162
  156.7850  130.9497  151.3120 H   0  0  0  0  0  0  0  0  0  0  0  0  # atno 10718 bound_to 10713
  154.8678  135.3664  154.5107 H   0  0  0  0  0  0  0  0  0  0  0  0  # atno 10763 bound_to 10752
  153.5742  135.7020  153.5496 H   0  0  0  0  0  0  0  0  0  0  0  0  # atno 10764 bound_to 10752
  153.3514  135.4071  155.1612 H   0  0  0  0  0  0  0  0  0  0  0  0  # atno 10765 bound_to 10752
  139.9021  134.8168  156.2354 H   0  0  0  0  0  0  0  0  0  0  0  0  # atno 11005 bound_to 11000
  144.8149  139.5894  143.7013 LP  0  0  0  0  0  0  0  0  0  0  0  0  # atno 17320 bound_to 7965
  146.2580  139.6345  142.9382 LP  0  0  0  0  0  0  0  0  0  0  0  0  # atno 17321 bound_to 7965
  139.5379  144.2730  152.1289 LP  0  0  0  0  0  0  0  0  0  0  0  0  # atno 17342 bound_to 10162
  140.1934  144.4729  150.6467 LP  0  0  0  0  0  0  0  0  0  0  0  0  # atno 17343 bound_to 10162
  157.6628  130.8981  149.9866 LP  0  0  0  0  0  0  0  0  0  0  0  0  # atno 17370 bound_to 10713
  156.1194  130.3646  149.9913 LP  0  0  0  0  0  0  0  0  0  0  0  0  # atno 17371 bound_to 10713
  141.0319  133.6984  156.1445 LP  0  0  0  0  0  0  0  0  0  0  0  0  # atno 17394 bound_to 11000
  140.7084  134.4488  157.5583 LP  0  0  0  0  0  0  0  0  0  0  0  0  # atno 17395 bound_to 11000

$$$$
