AV-unprocessed.smi:2489|AV-procd|sdf|9795|dock1
  -GOLD-   2272013433D 1   1.00000     0.00000
 Structure written by MMmdl.
 33 34  0  0  0  0  0  0  0  0  1 V2000
  153.1431  136.9201  157.6332 C   0  0  0  0  0  0  0  0  0  0  0  0
  152.5759  136.7259  156.3461 O   0  0  0  0  0  0  0  0  0  0  0  0
  151.8826  137.7747  155.7816 C   0  0  0  0  0  0  0  0  0  0  0  0
  151.3228  137.5758  154.5057 C   0  0  0  0  0  0  0  0  0  0  0  0
  150.6086  138.6290  153.9071 C   0  0  0  0  0  0  0  0  0  0  0  0
  150.4304  139.8282  154.4965 N   0  0  0  0  0  0  0  0  0  0  0  0
  150.9611  140.0433  155.7250 C   0  0  0  0  0  0  0  0  0  0  0  0
  150.8313  141.2664  156.4353 N   0  0  0  0  0  0  0  0  0  0  0  0
  150.9025  141.4742  157.7635 C   0  0  0  0  0  0  0  0  0  0  0  0
  151.0780  140.5865  158.5994 O   0  0  0  0  0  0  0  0  0  0  0  0
  150.7245  142.9357  158.2089 C   0  0  2  0  0  0  0  0  0  0  0  0
  151.8102  143.8995  157.6868 C   0  0  0  0  0  0  0  0  0  0  0  0
  152.4944  144.4145  158.9430 C   0  0  0  0  0  0  0  0  0  0  0  0
  152.1485  143.3587  159.9879 C   0  0  1  0  0  0  0  0  0  0  0  0
  152.1994  143.8639  161.4335 C   0  0  0  0  0  0  0  0  0  0  0  0
  150.8223  142.9968  159.6304 O   0  0  0  0  0  0  0  0  0  0  0  0
  151.6935  139.0379  156.3964 C   0  0  0  0  0  0  0  0  0  0  0  0
  153.6511  136.0073  157.9442 H   0  0  0  0  0  0  0  0  0  0  0  0
  152.3767  137.1405  158.3776 H   0  0  0  0  0  0  0  0  0  0  0  0
  153.8816  137.7227  157.6262 H   0  0  0  0  0  0  0  0  0  0  0  0
  151.4383  136.6317  153.9940 H   0  0  0  0  0  0  0  0  0  0  0  0
  150.1675  138.5049  152.9291 H   0  0  0  0  0  0  0  0  0  0  0  0
  150.6657  142.0838  155.8667 H   0  0  0  0  0  0  0  0  0  0  0  0
  149.7345  143.2893  157.9159 H   0  0  0  0  0  0  0  0  0  0  0  0
  152.5329  143.4058  157.0357 H   0  0  0  0  0  0  0  0  0  0  0  0
  151.3767  144.7200  157.1143 H   0  0  0  0  0  0  0  0  0  0  0  0
  153.5690  144.5496  158.8179 H   0  0  0  0  0  0  0  0  0  0  0  0
  152.0636  145.3768  159.2233 H   0  0  0  0  0  0  0  0  0  0  0  0
  152.8005  142.4910  159.8730 H   0  0  0  0  0  0  0  0  0  0  0  0
  153.2082  144.1774  161.7024 H   0  0  0  0  0  0  0  0  0  0  0  0
  151.8972  143.0808  162.1291 H   0  0  0  0  0  0  0  0  0  0  0  0
  151.5329  144.7143  161.5798 H   0  0  0  0  0  0  0  0  0  0  0  0
  152.0991  139.2517  157.3741 H   0  0  0  0  0  0  0  0  0  0  0  0
  1  2  1  0  0  0  0
  1 18  1  0  0  0  0
  1 19  1  0  0  0  0
  1 20  1  0  0  0  0
  2  3  1  0  0  0  0
  3 17  1  0  0  0  0
  3  4  2  0  0  0  0
  4  5  1  0  0  0  0
  4 21  1  0  0  0  0
  5  6  2  0  0  0  0
  5 22  1  0  0  0  0
  6  7  1  0  0  0  0
  7  8  1  0  0  0  0
  7 17  2  0  0  0  0
  8  9  1  0  0  0  0
  8 23  1  0  0  0  0
  9 10  2  0  0  0  0
  9 11  1  0  0  0  0
 11 16  1  0  0  0  0
 11 12  1  0  0  0  0
 11 24  1  0  0  0  0
 12 13  1  0  0  0  0
 12 25  1  0  0  0  0
 12 26  1  0  0  0  0
 13 14  1  0  0  0  0
 13 27  1  0  0  0  0
 13 28  1  0  0  0  0
 14 15  1  0  0  0  0
 14 16  1  0  0  0  0
 14 29  1  0  0  0  0
 15 30  1  0  0  0  0
 15 31  1  0  0  0  0
 15 32  1  0  0  0  0
 17 33  1  0  0  0  0
M  END
> <s_m_source_file>
AV-unprocessed.smi

> <i_m_source_file_index>
2489

> <i_lp_mmshare_version>
43012

> <i_f3d_flags>
0

> <s_epik_input>
W0NIM11PYzFbY0hdW2NIXW5jKFtjSF0xKVtOSF1DKD1PKVtDQEBIXTJbQ0gyXVtDSDJdW0NASF0oTzIpW0NIM10=

> <s_epik_cmdline>
J2VwaWtfcHl0aG9uJywgJy1waCcsICc3LjAnLCAnLXRuJywgJzgnLCAnLW1hJywgJzIwMCcsICctbWV0YWxfYmluZGluZycsICctaW1hZScsICc8aW5maWxlLm1hZT4nLCAnLW9tYWUnLCAnPG91dGZpbGUubWFlPic=

> <r_epik_Ionization_Penalty>
0.0871917

> <r_epik_Ionization_Penalty_Charging>
0

> <r_epik_Ionization_Penalty_Neutral>
0.0871917

> <r_epik_State_Penalty>
0.146479

> <r_epik_Charging_Adjusted_Penalty>
0.146479

> <i_epik_Tot_Q>
0

> <i_epik_Tot_abs_Q>
0

> <r_epik_Metal_State_Penalty>
0.067489

> <b_epik_Metal_Only>
0

> <s_lp_Force_Field>
OPLS_2005

> <r_lp_Energy>
22.5644

> <b_lp_Chiralities_Consistent>
1

> <s_lp_Variant>
AV-unprocessed.smi:2489-1

> <Gold.Version>
5.8.1

> <Gold.Id.Protein>
6NUR|6NUR_protein|mol2

> <Gold.PLP.Fitness>
45.8322

> <Gold.PLP.PLP>
-35.7601

> <Gold.PLP.part.hbond>
-2.8987

> <Gold.PLP.part.metal>
0.0000

> <Gold.PLP.part.buried>
-5.7530

> <Gold.PLP.part.nonpolar>
-28.3767

> <Gold.PLP.part.repulsive>
0.2212

> <Gold.PLP.ligand.clash>
0.0000

> <Gold.PLP.ligand.torsion>
0.1304

> <Gold.PLP.Chemscore.Hbond>
1.9500

> <Gold.PLP.Chemscore.CHOScore>
1.4863

> <Gold.PLP.Chemscore.Metal>
0.0000

> <Gold.Chemscore.Hbonds>
donor molecule, donor type, donor heavy atom, donor atom, acceptor molecule, acceptor atom, score
      P1  H  7989  7998       L1     6  0.95
      P1  H 10752 10763       L1     2  1.00
      L1  C     5    22       P1  7948  0.48
      L1  C     5    22       P1  7957  1.00

> <Gold.PLP.Chemscore.Internal.Correction>
0.0240

> <Gold.Rescore>
     Score         DG    S(hbond)    S(metal)    S(lipo)     H(rot)  DE(clash)    DE(int)     intcor
     14.57     -16.14       0.92        0.00      91.78       1.23       0.00       1.56       ----

> <Gold.Chemscore.Fitness>
14.5734

> <Gold.Chemscore.DG>
-16.1375

> <Gold.Chemscore.ZeroCoef>
-5.4800

> <Gold.Chemscore.Hbond>
0.9158

> <Gold.Chemscore.Metal>
0.0000

> <Gold.Chemscore.Lipo>
91.7794

> <Gold.Chemscore.Internal_Hbond>
0.0000

> <Gold.Chemscore.DEClash>
0.0000

> <Gold.Chemscore.DEInternal>
1.5642

> <Gold.Chemscore.Rot>
1.2264

> <Gold.Chemscore.Internal.Correction>
   9.000000E+99

> <Gold.Chemscore.Hbonds>
donor molecule, donor type, donor heavy atom, donor atom, acceptor molecule, acceptor atom, score
      P1  H  7989  7998       L1     6  0.06
      P1  H 10752 10763       L1     2  0.87

> <Gold.Chemscore.Hbond.Weighted>
-3.0589

> <Gold.Chemscore.Metal.Weighted>
-0.0000

> <Gold.Chemscore.Lipo.Weighted>
-10.7382

> <Gold.Chemscore.Internal_Hbond.Weighted>
0.0000

> <Gold.Chemscore.DEClash.Weighted>
0.0000

> <Gold.Chemscore.DEInternal.Weighted>
1.5642

> <Gold.Chemscore.Rot.Weighted>
3.1396

> <Gold.Chemscore.Internal.Correction.Weighted>
   9.000000E+99

> <Gold.Protein.RotatedTorsions>
[ 6907 6896 6895 6894 ] final  127.52 input  -60.11 | X-H torsion
[ 7974 7965 7964 7962 ] final  103.73 input  175.53 | X-H torsion
[ 8008 7997 7996 7995 ] final  136.83 input   59.86 | X-H torsion
[ 10167 10162 10161 10158 ] final   43.47 input  -65.29 | X-H torsion
[ 10718 10713 10712 10709 ] final  -37.46 input   66.30 | X-H torsion
[ 10763 10752 10751 10750 ] final   98.02 input  -60.55 | X-H torsion
[ 11005 11000 10999 10996 ] final   83.97 input  -57.11 | X-H torsion

> <Gold.Protein.ActiveResidues>
 VAL166  LYS551  ARG553  GLY616  TRP617  ASP618  TYR619  PRO620  LYS621  CYS622 
 ASP623  PHE694  ASN695  SER759  ASP760  ASP761  ALA762  ILE779  LEU786  VAL792 
 PHE793  MET794  SER795  GLU796  ALA797  LYS798  CYS799  TRP800  GLU811  SER814 

> <Gold.Protein.RotatedAtoms>
  152.3804  133.6539  159.6156 H   0  0  0  0  0  0  0  0  0  0  0  0  # atno 6907 bound_to 6896
  150.7737  133.9123  159.3382 H   0  0  0  0  0  0  0  0  0  0  0  0  # atno 6908 bound_to 6896
  151.6929  135.0944  160.0288 H   0  0  0  0  0  0  0  0  0  0  0  0  # atno 6909 bound_to 6896
  145.3421  139.2460  143.3604 H   0  0  0  0  0  0  0  0  0  0  0  0  # atno 7974 bound_to 7965
  156.3003  140.2435  156.3810 H   0  0  0  0  0  0  0  0  0  0  0  0  # atno 8008 bound_to 7997
  154.8701  140.0416  157.1738 H   0  0  0  0  0  0  0  0  0  0  0  0  # atno 8009 bound_to 7997
  154.8805  140.2948  155.5432 H   0  0  0  0  0  0  0  0  0  0  0  0  # atno 8010 bound_to 7997
  140.3440  144.2434  150.6152 H   0  0  0  0  0  0  0  0  0  0  0  0  # atno 10167 bound_to 10162
  156.3149  130.4257  149.8014 H   0  0  0  0  0  0  0  0  0  0  0  0  # atno 10718 bound_to 10713
  153.2839  135.4163  155.1105 H   0  0  0  0  0  0  0  0  0  0  0  0  # atno 10763 bound_to 10752
  154.8498  135.3502  154.6073 H   0  0  0  0  0  0  0  0  0  0  0  0  # atno 10764 bound_to 10752
  153.6495  135.7053  153.5271 H   0  0  0  0  0  0  0  0  0  0  0  0  # atno 10765 bound_to 10752
  139.9014  134.8183  156.2382 H   0  0  0  0  0  0  0  0  0  0  0  0  # atno 11005 bound_to 11000
  146.3003  140.4020  142.8706 LP  0  0  0  0  0  0  0  0  0  0  0  0  # atno 17320 bound_to 7965
  144.8782  140.7365  143.6003 LP  0  0  0  0  0  0  0  0  0  0  0  0  # atno 17321 bound_to 7965
  140.5282  143.2249  151.8281 LP  0  0  0  0  0  0  0  0  0  0  0  0  # atno 17342 bound_to 10162
  139.4836  144.4753  151.9374 LP  0  0  0  0  0  0  0  0  0  0  0  0  # atno 17343 bound_to 10162
  156.5344  130.8272  151.3248 LP  0  0  0  0  0  0  0  0  0  0  0  0  # atno 17370 bound_to 10713
  157.7399  130.9841  150.2345 LP  0  0  0  0  0  0  0  0  0  0  0  0  # atno 17371 bound_to 10713
  141.0302  133.6993  156.1417 LP  0  0  0  0  0  0  0  0  0  0  0  0  # atno 17394 bound_to 11000
  140.7108  134.4464  157.5581 LP  0  0  0  0  0  0  0  0  0  0  0  0  # atno 17395 bound_to 11000

$$$$
