AV-unprocessed.smi:2144|AV-procd|sdf|8731|dock5
  -GOLD-   2272011503D 1   1.00000     0.00000
 Structure written by MMmdl.
 40 42  0  0  0  0  0  0  0  0  1 V2000
  150.3909  140.1870  154.2495 O   0  0  0  0  0  0  0  0  0  0  0  0
  150.9843  139.5518  155.3641 C   0  0  0  0  0  0  0  0  0  0  0  0
  151.3781  140.4936  156.4673 C   0  0  0  0  0  0  0  0  0  0  0  0
  151.0505  141.7881  156.4727 N   0  0  0  0  0  0  0  0  0  0  0  0
  151.6001  142.2389  157.6564 C   0  0  0  0  0  0  0  0  0  0  0  0
  151.5963  143.5268  158.2389 C   0  0  0  0  0  0  0  0  0  0  0  0
  152.2323  143.7521  159.4774 C   0  0  0  0  0  0  0  0  0  0  0  0
  152.8798  142.6952  160.1495 C   0  0  0  0  0  0  0  0  0  0  0  0
  152.8949  141.4044  159.5868 C   0  0  0  0  0  0  0  0  0  0  0  0
  152.2583  141.1848  158.3502 C   0  0  0  0  0  0  0  0  0  0  0  0
  152.0910  140.0656  157.5395 N   0  0  0  0  0  0  0  0  0  0  0  0
  152.5836  138.7211  157.8102 C   0  0  0  0  0  0  0  0  0  0  0  0
  152.3951  138.2977  159.2820 C   0  0  1  0  0  0  0  0  0  0  0  0
  152.0787  136.9216  159.3554 O   0  0  0  0  0  0  0  0  0  0  0  0
  153.6489  138.5521  160.1313 C   0  0  0  0  0  0  0  0  0  0  0  0
  153.5352  137.8282  161.3491 O   0  0  0  0  0  0  0  0  0  0  0  0
  154.1685  138.3258  162.4683 C   0  0  0  0  0  0  0  0  0  0  0  0
  154.8434  139.5725  162.5118 C   0  0  0  0  0  0  0  0  0  0  0  0
  155.4690  140.0042  163.6975 C   0  0  0  0  0  0  0  0  0  0  0  0
  155.4289  139.1999  164.8512 C   0  0  0  0  0  0  0  0  0  0  0  0
  154.7604  137.9624  164.8181 C   0  0  0  0  0  0  0  0  0  0  0  0
  154.1343  137.5296  163.6330 C   0  0  0  0  0  0  0  0  0  0  0  0
  153.4928  136.3366  163.6143 F   0  0  0  0  0  0  0  0  0  0  0  0
  149.4563  140.0556  154.2910 H   0  0  0  0  0  0  0  0  0  0  0  0
  150.2816  138.8172  155.7578 H   0  0  0  0  0  0  0  0  0  0  0  0
  151.8645  139.0102  155.0190 H   0  0  0  0  0  0  0  0  0  0  0  0
  151.1032  144.3428  157.7319 H   0  0  0  0  0  0  0  0  0  0  0  0
  152.2234  144.7402  159.9136 H   0  0  0  0  0  0  0  0  0  0  0  0
  153.3652  142.8763  161.0972 H   0  0  0  0  0  0  0  0  0  0  0  0
  153.3910  140.5938  160.0990 H   0  0  0  0  0  0  0  0  0  0  0  0
  152.0684  138.0240  157.1485 H   0  0  0  0  0  0  0  0  0  0  0  0
  153.6365  138.6716  157.5318 H   0  0  0  0  0  0  0  0  0  0  0  0
  151.5596  138.8446  159.7190 H   0  0  0  0  0  0  0  0  0  0  0  0
  152.6035  136.4580  158.7210 H   0  0  0  0  0  0  0  0  0  0  0  0
  154.5323  138.2114  159.5882 H   0  0  0  0  0  0  0  0  0  0  0  0
  153.7608  139.6202  160.3257 H   0  0  0  0  0  0  0  0  0  0  0  0
  154.8975  140.2173  161.6479 H   0  0  0  0  0  0  0  0  0  0  0  0
  155.9817  140.9546  163.7209 H   0  0  0  0  0  0  0  0  0  0  0  0
  155.9101  139.5315  165.7594 H   0  0  0  0  0  0  0  0  0  0  0  0
  154.7279  137.3437  165.7026 H   0  0  0  0  0  0  0  0  0  0  0  0
  1  2  1  0  0  0  0
  1 24  1  0  0  0  0
  2  3  1  0  0  0  0
  2 25  1  0  0  0  0
  2 26  1  0  0  0  0
  3 11  1  0  0  0  0
  3  4  2  0  0  0  0
  4  5  1  0  0  0  0
  5 10  2  0  0  0  0
  5  6  1  0  0  0  0
  6  7  2  0  0  0  0
  6 27  1  0  0  0  0
  7  8  1  0  0  0  0
  7 28  1  0  0  0  0
  8  9  2  0  0  0  0
  8 29  1  0  0  0  0
  9 10  1  0  0  0  0
  9 30  1  0  0  0  0
 10 11  1  0  0  0  0
 11 12  1  0  0  0  0
 12 13  1  0  0  0  0
 12 31  1  0  0  0  0
 12 32  1  0  0  0  0
 13 14  1  0  0  0  0
 13 15  1  0  0  0  0
 13 33  1  0  0  0  0
 14 34  1  0  0  0  0
 15 16  1  0  0  0  0
 15 35  1  0  0  0  0
 15 36  1  0  0  0  0
 16 17  1  0  0  0  0
 17 22  1  0  0  0  0
 17 18  2  0  0  0  0
 18 19  1  0  0  0  0
 18 37  1  0  0  0  0
 19 20  2  0  0  0  0
 19 38  1  0  0  0  0
 20 21  1  0  0  0  0
 20 39  1  0  0  0  0
 21 22  2  0  0  0  0
 21 40  1  0  0  0  0
 22 23  1  0  0  0  0
M  END
> <s_m_source_file>
AV-unprocessed.smi

> <i_m_source_file_index>
2144

> <i_lp_mmshare_version>
43012

> <i_f3d_flags>
0

> <s_epik_input>
W2NIXTFbY0hdW2NIXVtjSF1jKGMxMiluKGMobjIpW0NIMl1bT0hdKVtDSDJdW0NASF0oW09IXSlbQ0gyXU9jM1tjSF1bY0hdW2NIXVtjSF1jM0Y=

> <s_epik_cmdline>
J2VwaWtfcHl0aG9uJywgJy1waCcsICc3LjAnLCAnLXRuJywgJzgnLCAnLW1hJywgJzIwMCcsICctbWV0YWxfYmluZGluZycsICctaW1hZScsICc8aW5maWxlLm1hZT4nLCAnLW9tYWUnLCAnPG91dGZpbGUubWFlPic=

> <r_lp_tautomer_probability>
1

> <r_epik_Ionization_Penalty>
0.0547315

> <r_epik_Ionization_Penalty_Charging>
0

> <r_epik_Ionization_Penalty_Neutral>
0.0547315

> <r_epik_State_Penalty>
0.047032

> <r_epik_Charging_Adjusted_Penalty>
0.047032

> <i_epik_Tot_Q>
0

> <i_epik_Tot_abs_Q>
0

> <r_epik_Metal_State_Penalty>
4.89471e-05

> <b_epik_Metal_Only>
0

> <s_lp_Force_Field>
OPLS_2005

> <r_lp_Energy>
15.6378

> <b_lp_Chiralities_Consistent>
1

> <s_lp_Variant>
AV-unprocessed.smi:2144-2

> <Gold.Version>
5.8.1

> <Gold.Id.Protein>
6NUR|6NUR_protein|mol2

> <Gold.PLP.Fitness>
50.1202

> <Gold.PLP.PLP>
-46.9713

> <Gold.PLP.part.hbond>
-2.4487

> <Gold.PLP.part.metal>
0.0000

> <Gold.PLP.part.buried>
-6.5198

> <Gold.PLP.part.nonpolar>
-38.0054

> <Gold.PLP.part.repulsive>
0.0679

> <Gold.PLP.ligand.clash>
0.0000

> <Gold.PLP.ligand.torsion>
1.1141

> <Gold.PLP.Chemscore.Hbond>
1.7738

> <Gold.PLP.Chemscore.CHOScore>
0.0000

> <Gold.PLP.Chemscore.Metal>
0.0000

> <Gold.Chemscore.Hbonds>
donor molecule, donor type, donor heavy atom, donor atom, acceptor molecule, acceptor atom, score
      P1  H  6896  6908       L1    14  0.20
      P1  H  7989  7998       L1     1  1.00

> <Gold.PLP.Chemscore.Internal.Correction>
0.0557

> <Gold.Rescore>
     Score         DG    S(hbond)    S(metal)    S(lipo)     H(rot)  DE(clash)    DE(int)     intcor
     13.82     -15.14       0.98        0.00     124.90       3.22       0.07       1.25       ----

> <Gold.Chemscore.Fitness>
13.8160

> <Gold.Chemscore.DG>
-15.1386

> <Gold.Chemscore.ZeroCoef>
-5.4800

> <Gold.Chemscore.Hbond>
0.9843

> <Gold.Chemscore.Metal>
0.0000

> <Gold.Chemscore.Lipo>
124.8986

> <Gold.Chemscore.Internal_Hbond>
0.0000

> <Gold.Chemscore.DEClash>
0.0709

> <Gold.Chemscore.DEInternal>
1.2518

> <Gold.Chemscore.Rot>
3.2196

> <Gold.Chemscore.Internal.Correction>
   9.000000E+99

> <Gold.Chemscore.Hbonds>
donor molecule, donor type, donor heavy atom, donor atom, acceptor molecule, acceptor atom, score
      P1  H  7989  7998       L1     1  0.48

> <Gold.Chemscore.Hbond.Weighted>
-3.2877

> <Gold.Chemscore.Metal.Weighted>
-0.0000

> <Gold.Chemscore.Lipo.Weighted>
-14.6131

> <Gold.Chemscore.Internal_Hbond.Weighted>
0.0000

> <Gold.Chemscore.DEClash.Weighted>
0.0709

> <Gold.Chemscore.DEInternal.Weighted>
1.2518

> <Gold.Chemscore.Rot.Weighted>
8.2422

> <Gold.Chemscore.Internal.Correction.Weighted>
   9.000000E+99

> <Gold.Protein.RotatedTorsions>
[ 6907 6896 6895 6894 ] final -116.88 input  -60.11 | X-H torsion
[ 7974 7965 7964 7962 ] final   11.83 input  175.53 | X-H torsion
[ 8008 7997 7996 7995 ] final -162.57 input   59.86 | X-H torsion
[ 10167 10162 10161 10158 ] final -173.61 input  -65.29 | X-H torsion
[ 10718 10713 10712 10709 ] final  -22.39 input   66.30 | X-H torsion
[ 10763 10752 10751 10750 ] final  126.77 input  -60.55 | X-H torsion
[ 11005 11000 10999 10996 ] final  -57.92 input  -57.11 | X-H torsion

> <Gold.Protein.ActiveResidues>
 VAL166  LYS551  ARG553  GLY616  TRP617  ASP618  TYR619  PRO620  LYS621  CYS622 
 ASP623  PHE694  ASN695  SER759  ASP760  ASP761  ALA762  ILE779  LEU786  VAL792 
 PHE793  MET794  SER795  GLU796  ALA797  LYS798  CYS799  TRP800  GLU811  SER814 

> <Gold.Protein.RotatedAtoms>
  150.8092  133.8454  159.3190 H   0  0  0  0  0  0  0  0  0  0  0  0  # atno 6907 bound_to 6896
  151.6245  135.1027  160.0118 H   0  0  0  0  0  0  0  0  0  0  0  0  # atno 6908 bound_to 6896
  152.4183  133.7034  159.6494 H   0  0  0  0  0  0  0  0  0  0  0  0  # atno 6909 bound_to 6896
  146.2363  139.9426  142.8481 H   0  0  0  0  0  0  0  0  0  0  0  0  # atno 7974 bound_to 7965
  155.8087  140.0902  157.1916 H   0  0  0  0  0  0  0  0  0  0  0  0  # atno 8008 bound_to 7997
  154.3980  140.1458  156.3420 H   0  0  0  0  0  0  0  0  0  0  0  0  # atno 8009 bound_to 7997
  155.8387  140.3439  155.5621 H   0  0  0  0  0  0  0  0  0  0  0  0  # atno 8010 bound_to 7997
  139.5679  144.1712  152.1340 H   0  0  0  0  0  0  0  0  0  0  0  0  # atno 10167 bound_to 10162
  156.5052  130.4597  149.6679 H   0  0  0  0  0  0  0  0  0  0  0  0  # atno 10718 bound_to 10713
  153.6987  135.3287  155.3219 H   0  0  0  0  0  0  0  0  0  0  0  0  # atno 10763 bound_to 10752
  154.8419  135.4449  154.1433 H   0  0  0  0  0  0  0  0  0  0  0  0  # atno 10764 bound_to 10752
  153.2495  135.6980  153.7773 H   0  0  0  0  0  0  0  0  0  0  0  0  # atno 10765 bound_to 10752
  141.1185  133.6611  156.4843 H   0  0  0  0  0  0  0  0  0  0  0  0  # atno 11005 bound_to 11000
  145.1938  140.9823  143.4195 LP  0  0  0  0  0  0  0  0  0  0  0  0  # atno 17320 bound_to 7965
  144.9834  139.3761  143.6251 LP  0  0  0  0  0  0  0  0  0  0  0  0  # atno 17321 bound_to 7965
  140.1239  144.5349  150.6845 LP  0  0  0  0  0  0  0  0  0  0  0  0  # atno 17342 bound_to 10162
  140.6963  143.2406  151.4992 LP  0  0  0  0  0  0  0  0  0  0  0  0  # atno 17343 bound_to 10162
  156.3294  130.7323  151.2250 LP  0  0  0  0  0  0  0  0  0  0  0  0  # atno 17370 bound_to 10713
  157.7458  131.0434  150.4741 LP  0  0  0  0  0  0  0  0  0  0  0  0  # atno 17371 bound_to 10713
  140.4575  134.6872  157.5069 LP  0  0  0  0  0  0  0  0  0  0  0  0  # atno 17394 bound_to 11000
  140.0125  134.6669  155.9359 LP  0  0  0  0  0  0  0  0  0  0  0  0  # atno 17395 bound_to 11000

$$$$
