AV-unprocessed.smi:814|AV-procd|sdf|3821|dock2
  -GOLD-   22720 1263D 1   1.00000     0.00000
 Structure written by MMmdl.
 37 38  0  0  0  0  0  0  0  0  2 V2000
  148.3076  141.8892  154.8016 C   0  0  0  0  0  0  0  0  0  0  0  0
  148.0040  140.7317  153.9575 N   0  0  0  0  0  0  0  0  0  0  0  0
  146.8971  140.5665  153.1646 C   0  0  0  0  0  0  0  0  0  0  0  0
  147.0259  139.3436  152.5595 C   0  0  0  0  0  0  0  0  0  0  0  0
  148.2043  138.8126  153.0088 N   0  3  0  0  0  0  0  0  0  0  0  0
  148.8040  139.6574  153.8558 C   0  0  0  0  0  0  0  0  0  0  0  0
  150.1035  139.4056  154.5536 C   0  0  0  0  0  0  0  0  0  0  0  0
  149.9248  139.1102  156.0513 C   0  0  0  0  0  0  0  0  0  0  0  0
  150.2053  140.2862  156.8653 N   0  0  0  0  0  0  0  0  0  0  0  0
  151.4162  140.6230  157.3362 C   0  0  0  0  0  0  0  0  0  0  0  0
  152.4322  139.9645  157.1106 O   0  0  0  0  0  0  0  0  0  0  0  0
  151.4898  141.8924  158.1951 C   0  0  2  0  0  0  0  0  0  0  0  0
  151.3567  143.1679  157.3310 C   0  0  0  0  0  0  0  0  0  0  0  0
  151.6799  144.4273  158.1163 C   0  0  0  0  0  0  0  0  0  0  0  0
  152.3243  144.4180  159.2958 C   0  0  0  0  0  0  0  0  0  0  0  0
  152.8077  143.1482  159.9738 C   0  0  0  0  0  0  0  0  0  0  0  0
  152.7905  141.9371  159.0216 C   0  0  0  0  0  0  0  0  0  0  0  0
  147.4930  142.6114  154.7379 H   0  0  0  0  0  0  0  0  0  0  0  0
  149.2303  142.3564  154.4568 H   0  0  0  0  0  0  0  0  0  0  0  0
  148.4199  141.5654  155.8364 H   0  0  0  0  0  0  0  0  0  0  0  0
  146.1181  141.3120  153.0914 H   0  0  0  0  0  0  0  0  0  0  0  0
  146.3843  138.8243  151.8625 H   0  0  0  0  0  0  0  0  0  0  0  0
  150.5755  138.5651  154.0430 H   0  0  0  0  0  0  0  0  0  0  0  0
  150.7397  140.2767  154.3949 H   0  0  0  0  0  0  0  0  0  0  0  0
  148.9012  138.7951  156.2537 H   0  0  0  0  0  0  0  0  0  0  0  0
  150.5684  138.2838  156.3578 H   0  0  0  0  0  0  0  0  0  0  0  0
  149.4226  140.8806  157.0988 H   0  0  0  0  0  0  0  0  0  0  0  0
  150.6545  141.8747  158.8983 H   0  0  0  0  0  0  0  0  0  0  0  0
  152.0204  143.1347  156.4659 H   0  0  0  0  0  0  0  0  0  0  0  0
  150.3391  143.2493  156.9471 H   0  0  0  0  0  0  0  0  0  0  0  0
  151.3771  145.3668  157.6775 H   0  0  0  0  0  0  0  0  0  0  0  0
  152.5127  145.3478  159.8123 H   0  0  0  0  0  0  0  0  0  0  0  0
  153.8162  143.3052  160.3572 H   0  0  0  0  0  0  0  0  0  0  0  0
  152.1659  142.9601  160.8349 H   0  0  0  0  0  0  0  0  0  0  0  0
  152.9181  141.0182  159.5955 H   0  0  0  0  0  0  0  0  0  0  0  0
  153.6476  142.0009  158.3489 H   0  0  0  0  0  0  0  0  0  0  0  0
  148.5732  137.9087  152.7410 H   0  0  0  0  0  0  0  0  0  0  0  0
  1  2  1  0  0  0  0
  1 18  1  0  0  0  0
  1 19  1  0  0  0  0
  1 20  1  0  0  0  0
  2  6  1  0  0  0  0
  2  3  1  0  0  0  0
  3  4  2  0  0  0  0
  3 21  1  0  0  0  0
  4  5  1  0  0  0  0
  4 22  1  0  0  0  0
  5  6  2  0  0  0  0
  5 37  1  0  0  0  0
  6  7  1  0  0  0  0
  7  8  1  0  0  0  0
  7 23  1  0  0  0  0
  7 24  1  0  0  0  0
  8  9  1  0  0  0  0
  8 25  1  0  0  0  0
  8 26  1  0  0  0  0
  9 10  1  0  0  0  0
  9 27  1  0  0  0  0
 10 11  2  0  0  0  0
 10 12  1  0  0  0  0
 12 17  1  0  0  0  0
 12 13  1  0  0  0  0
 12 28  1  0  0  0  0
 13 14  1  0  0  0  0
 13 29  1  0  0  0  0
 13 30  1  0  0  0  0
 14 15  2  0  0  0  0
 14 31  1  0  0  0  0
 15 16  1  0  0  0  0
 15 32  1  0  0  0  0
 16 17  1  0  0  0  0
 16 33  1  0  0  0  0
 16 34  1  0  0  0  0
 17 35  1  0  0  0  0
 17 36  1  0  0  0  0
M  CHG  1   5   1
M  END
> <s_m_source_file>
AV-unprocessed.smi

> <i_m_source_file_index>
814

> <i_lp_mmshare_version>
43012

> <i_f3d_flags>
0

> <s_epik_input>
W0NIM11uMVtjSF1bY0hdbmMxW0NIMl1bQ0gyXVtOSF1DKD1PKVtDQEBIXTJbQ0gyXVtDSF09W0NIXVtDSDJdW0NIMl0y

> <s_epik_cmdline>
J2VwaWtfcHl0aG9uJywgJy1waCcsICc3LjAnLCAnLXRuJywgJzgnLCAnLW1hJywgJzIwMCcsICctbWV0YWxfYmluZGluZycsICctaW1hZScsICc8aW5maWxlLm1hZT4nLCAnLW9tYWUnLCAnPG91dGZpbGUubWFlPic=

> <r_lp_tautomer_probability>
1

> <r_epik_Ionization_Penalty>
0.0819619

> <r_epik_Ionization_Penalty_Charging>
0

> <r_epik_Ionization_Penalty_Neutral>
0.0819619

> <r_epik_State_Penalty>
0.0726933

> <r_epik_Charging_Adjusted_Penalty>
0.0726933

> <i_epik_Tot_Q>
1

> <i_epik_Tot_abs_Q>
1

> <r_epik_Metal_State_Penalty>
0.411758

> <b_epik_Metal_Only>
0

> <s_lp_Force_Field>
OPLS_2005

> <r_lp_Energy>
9.54254

> <b_lp_Chiralities_Consistent>
1

> <s_lp_Variant>
AV-unprocessed.smi:814-1

> <Gold.Version>
5.8.1

> <Gold.Id.Protein>
6NUR|6NUR_protein|mol2

> <Gold.PLP.Fitness>
48.5862

> <Gold.PLP.PLP>
-38.6695

> <Gold.PLP.part.hbond>
-3.0000

> <Gold.PLP.part.metal>
0.0000

> <Gold.PLP.part.buried>
-0.1010

> <Gold.PLP.part.nonpolar>
-35.5900

> <Gold.PLP.part.repulsive>
0.0790

> <Gold.PLP.ligand.clash>
0.0000

> <Gold.PLP.ligand.torsion>
1.0098

> <Gold.PLP.Chemscore.Hbond>
3.0000

> <Gold.PLP.Chemscore.CHOScore>
0.9700

> <Gold.PLP.Chemscore.Metal>
0.0000

> <Gold.Chemscore.Hbonds>
donor molecule, donor type, donor heavy atom, donor atom, acceptor molecule, acceptor atom, score
      L1  H     5    37       P1  7948  2.00
      P1  H  7997  8010       L1    11  0.96
      L1  C     3    21       P1 10175  0.50

> <Gold.PLP.Chemscore.Internal.Correction>
0.0264

> <Gold.Rescore>
     Score         DG    S(hbond)    S(metal)    S(lipo)     H(rot)  DE(clash)    DE(int)     intcor
     18.36     -19.54       1.99        0.00      99.45       1.65       0.34       0.84       ----

> <Gold.Chemscore.Fitness>
18.3638

> <Gold.Chemscore.DG>
-19.5382

> <Gold.Chemscore.ZeroCoef>
-5.4800

> <Gold.Chemscore.Hbond>
1.9914

> <Gold.Chemscore.Metal>
0.0000

> <Gold.Chemscore.Lipo>
99.4494

> <Gold.Chemscore.Internal_Hbond>
0.0000

> <Gold.Chemscore.DEClash>
0.3368

> <Gold.Chemscore.DEInternal>
0.8376

> <Gold.Chemscore.Rot>
1.6518

> <Gold.Chemscore.Internal.Correction>
   9.000000E+99

> <Gold.Chemscore.Hbonds>
donor molecule, donor type, donor heavy atom, donor atom, acceptor molecule, acceptor atom, score
      L1  H     5    37       P1  7948  1.00
      P1  H  7997  8010       L1    11  0.86

> <Gold.Chemscore.Hbond.Weighted>
-6.6513

> <Gold.Chemscore.Metal.Weighted>
-0.0000

> <Gold.Chemscore.Lipo.Weighted>
-11.6356

> <Gold.Chemscore.Internal_Hbond.Weighted>
0.0000

> <Gold.Chemscore.DEClash.Weighted>
0.3368

> <Gold.Chemscore.DEInternal.Weighted>
0.8376

> <Gold.Chemscore.Rot.Weighted>
4.2287

> <Gold.Chemscore.Internal.Correction.Weighted>
   9.000000E+99

> <Gold.Protein.RotatedTorsions>
[ 6907 6896 6895 6894 ] final -143.24 input  -60.11 | X-H torsion
[ 7974 7965 7964 7962 ] final  -31.84 input  175.53 | X-H torsion
[ 8008 7997 7996 7995 ] final   76.77 input   59.86 | X-H torsion
[ 10167 10162 10161 10158 ] final  108.70 input  -65.29 | X-H torsion
[ 10718 10713 10712 10709 ] final  -93.59 input   66.30 | X-H torsion
[ 10763 10752 10751 10750 ] final   25.59 input  -60.55 | X-H torsion
[ 11005 11000 10999 10996 ] final -107.95 input  -57.11 | X-H torsion

> <Gold.Protein.ActiveResidues>
 VAL166  LYS551  ARG553  GLY616  TRP617  ASP618  TYR619  PRO620  LYS621  CYS622 
 ASP623  PHE694  ASN695  SER759  ASP760  ASP761  ALA762  ILE779  LEU786  VAL792 
 PHE793  MET794  SER795  GLU796  ALA797  LYS798  CYS799  TRP800  GLU811  SER814 

> <Gold.Protein.RotatedAtoms>
  151.0979  133.5266  159.2611 H   0  0  0  0  0  0  0  0  0  0  0  0  # atno 6907 bound_to 6896
  151.2108  135.0480  159.8920 H   0  0  0  0  0  0  0  0  0  0  0  0  # atno 6908 bound_to 6896
  152.5440  134.0794  159.8282 H   0  0  0  0  0  0  0  0  0  0  0  0  # atno 6909 bound_to 6896
  146.1036  140.5717  142.8809 H   0  0  0  0  0  0  0  0  0  0  0  0  # atno 7974 bound_to 7965
  155.8320  140.3466  155.5578 H   0  0  0  0  0  0  0  0  0  0  0  0  # atno 8008 bound_to 7997
  155.8231  140.0916  157.1857 H   0  0  0  0  0  0  0  0  0  0  0  0  # atno 8009 bound_to 7997
  154.4004  140.1426  156.3512 H   0  0  0  0  0  0  0  0  0  0  0  0  # atno 8010 bound_to 7997
  139.6825  144.7117  151.1490 H   0  0  0  0  0  0  0  0  0  0  0  0  # atno 10167 bound_to 10162
  156.0015  130.5033  150.5799 H   0  0  0  0  0  0  0  0  0  0  0  0  # atno 10718 bound_to 10713
  153.0681  135.6579  154.0308 H   0  0  0  0  0  0  0  0  0  0  0  0  # atno 10763 bound_to 10752
  153.9960  135.2941  155.3409 H   0  0  0  0  0  0  0  0  0  0  0  0  # atno 10764 bound_to 10752
  154.7046  135.5230  153.8646 H   0  0  0  0  0  0  0  0  0  0  0  0  # atno 10765 bound_to 10752
  141.0927  133.9026  157.2036 H   0  0  0  0  0  0  0  0  0  0  0  0  # atno 11005 bound_to 11000
  144.7453  140.5051  143.6840 LP  0  0  0  0  0  0  0  0  0  0  0  0  # atno 17320 bound_to 7965
  145.5804  139.1488  143.3238 LP  0  0  0  0  0  0  0  0  0  0  0  0  # atno 17321 bound_to 7965
  140.7657  143.5678  150.9029 LP  0  0  0  0  0  0  0  0  0  0  0  0  # atno 17342 bound_to 10162
  139.9350  143.6448  152.3067 LP  0  0  0  0  0  0  0  0  0  0  0  0  # atno 17343 bound_to 10162
  157.3681  131.0761  151.1581 LP  0  0  0  0  0  0  0  0  0  0  0  0  # atno 17370 bound_to 10713
  157.2343  130.6540  149.5863 LP  0  0  0  0  0  0  0  0  0  0  0  0  # atno 17371 bound_to 10713
  139.9757  135.0114  156.9624 LP  0  0  0  0  0  0  0  0  0  0  0  0  # atno 17394 bound_to 11000
  140.5213  134.0905  155.7293 LP  0  0  0  0  0  0  0  0  0  0  0  0  # atno 17395 bound_to 11000

$$$$
