AV-unprocessed.smi:1932|AV-procd|sdf|7814|dock1
  -GOLD-   22720 9553D 1   1.00000     0.00000
 Structure written by MMmdl.
 44 45  0  0  0  0  0  0  0  0  1 V2000
  148.7940  135.8185  155.7865 C   0  0  0  0  0  0  0  0  0  0  0  0
  150.0418  136.7009  155.6839 C   0  0  0  0  0  0  0  0  0  0  0  0
  151.1158  136.2308  156.0600 O   0  0  0  0  0  0  0  0  0  0  0  0
  149.9276  137.9577  155.1878 N   0  0  0  0  0  0  0  0  0  0  0  0
  148.6200  138.4752  154.7751 C   0  0  0  0  0  0  0  0  0  0  0  0
  151.0529  138.9007  155.0590 C   0  0  0  0  0  0  0  0  0  0  0  0
  151.6557  139.3824  156.3896 C   0  0  0  0  0  0  0  0  0  0  0  0
  152.7662  138.9719  156.7240 O   0  0  0  0  0  0  0  0  0  0  0  0
  150.9338  140.2239  157.1475 N   0  0  0  0  0  0  0  0  0  0  0  0
  151.3166  140.7102  158.4670 C   0  0  0  0  0  0  0  0  0  0  0  0
  151.5751  142.2111  158.4700 C   0  0  0  0  0  0  0  0  0  0  0  0
  151.0184  143.0136  157.4519 C   0  0  0  0  0  0  0  0  0  0  0  0
  151.2927  144.3931  157.4386 C   0  0  0  0  0  0  0  0  0  0  0  0
  152.1210  144.9180  158.4475 C   0  0  0  0  0  0  0  0  0  0  0  0
  152.6583  144.1646  159.4295 N   0  0  0  0  0  0  0  0  0  0  0  0
  152.3941  142.8355  159.4480 C   0  0  0  0  0  0  0  0  0  0  0  0
  152.9408  142.0802  160.5000 N   0  0  0  0  0  0  0  0  0  0  0  0
  153.2817  142.8851  161.6654 C   0  0  0  0  0  0  0  0  0  0  0  0
  153.6425  141.9674  162.8461 C   0  0  0  0  0  0  0  0  0  0  0  0
  154.6958  141.0873  162.4629 O   0  0  0  0  0  0  0  0  0  0  0  0
  154.3257  140.2550  161.3671 C   0  0  0  0  0  0  0  0  0  0  0  0
  153.9886  141.1298  160.1468 C   0  0  0  0  0  0  0  0  0  0  0  0
  148.4161  135.5690  154.7951 H   0  0  0  0  0  0  0  0  0  0  0  0
  148.0039  136.3129  156.3514 H   0  0  0  0  0  0  0  0  0  0  0  0
  149.0284  134.8835  156.2962 H   0  0  0  0  0  0  0  0  0  0  0  0
  147.9987  137.7117  154.3067 H   0  0  0  0  0  0  0  0  0  0  0  0
  148.7237  139.2832  154.0497 H   0  0  0  0  0  0  0  0  0  0  0  0
  148.0825  138.8661  155.6393 H   0  0  0  0  0  0  0  0  0  0  0  0
  151.8505  138.4242  154.4869 H   0  0  0  0  0  0  0  0  0  0  0  0
  150.7735  139.7716  154.4660 H   0  0  0  0  0  0  0  0  0  0  0  0
  150.0293  140.5126  156.8035 H   0  0  0  0  0  0  0  0  0  0  0  0
  150.5562  140.4537  159.2067 H   0  0  0  0  0  0  0  0  0  0  0  0
  152.2197  140.1862  158.7779 H   0  0  0  0  0  0  0  0  0  0  0  0
  150.3955  142.5782  156.6844 H   0  0  0  0  0  0  0  0  0  0  0  0
  150.8828  145.0322  156.6705 H   0  0  0  0  0  0  0  0  0  0  0  0
  152.3576  145.9715  158.4675 H   0  0  0  0  0  0  0  0  0  0  0  0
  154.1266  143.5308  161.4220 H   0  0  0  0  0  0  0  0  0  0  0  0
  152.4506  143.5362  161.9372 H   0  0  0  0  0  0  0  0  0  0  0  0
  153.9674  142.5622  163.6998 H   0  0  0  0  0  0  0  0  0  0  0  0
  152.7736  141.3916  163.1699 H   0  0  0  0  0  0  0  0  0  0  0  0
  155.1517  139.5835  161.1330 H   0  0  0  0  0  0  0  0  0  0  0  0
  153.4756  139.6314  161.6477 H   0  0  0  0  0  0  0  0  0  0  0  0
  153.6587  140.5073  159.3143 H   0  0  0  0  0  0  0  0  0  0  0  0
  154.8812  141.6650  159.8202 H   0  0  0  0  0  0  0  0  0  0  0  0
  1  2  1  0  0  0  0
  1 23  1  0  0  0  0
  1 24  1  0  0  0  0
  1 25  1  0  0  0  0
  2  3  2  0  0  0  0
  2  4  1  0  0  0  0
  4  5  1  0  0  0  0
  4  6  1  0  0  0  0
  5 26  1  0  0  0  0
  5 27  1  0  0  0  0
  5 28  1  0  0  0  0
  6  7  1  0  0  0  0
  6 29  1  0  0  0  0
  6 30  1  0  0  0  0
  7  8  2  0  0  0  0
  7  9  1  0  0  0  0
  9 10  1  0  0  0  0
  9 31  1  0  0  0  0
 10 11  1  0  0  0  0
 10 32  1  0  0  0  0
 10 33  1  0  0  0  0
 11 16  1  0  0  0  0
 11 12  2  0  0  0  0
 12 13  1  0  0  0  0
 12 34  1  0  0  0  0
 13 14  2  0  0  0  0
 13 35  1  0  0  0  0
 14 15  1  0  0  0  0
 14 36  1  0  0  0  0
 15 16  2  0  0  0  0
 16 17  1  0  0  0  0
 17 22  1  0  0  0  0
 17 18  1  0  0  0  0
 18 19  1  0  0  0  0
 18 37  1  0  0  0  0
 18 38  1  0  0  0  0
 19 20  1  0  0  0  0
 19 39  1  0  0  0  0
 19 40  1  0  0  0  0
 20 21  1  0  0  0  0
 21 22  1  0  0  0  0
 21 41  1  0  0  0  0
 21 42  1  0  0  0  0
 22 43  1  0  0  0  0
 22 44  1  0  0  0  0
M  END
> <s_m_source_file>
AV-unprocessed.smi

> <i_m_source_file_index>
1932

> <i_lp_mmshare_version>
43012

> <i_f3d_flags>
0

> <s_epik_input>
W0NIM11DKD1PKU4oW0NIM10pW0NIMl1DKD1PKVtOSF1bQ0gyXWMxW2NIXVtjSF1bY0hdbmMxTjJbQ0gyXVtDSDJdT1tDSDJdW0NIMl0y

> <s_epik_cmdline>
J2VwaWtfcHl0aG9uJywgJy1waCcsICc3LjAnLCAnLXRuJywgJzgnLCAnLW1hJywgJzIwMCcsICctbWV0YWxfYmluZGluZycsICctaW1hZScsICc8aW5maWxlLm1hZT4nLCAnLW9tYWUnLCAnPG91dGZpbGUubWFlPic=

> <r_lp_tautomer_probability>
1

> <r_epik_Ionization_Penalty>
0.00462916

> <r_epik_Ionization_Penalty_Charging>
0

> <r_epik_Ionization_Penalty_Neutral>
0.00462916

> <r_epik_State_Penalty>
0.00334737

> <r_epik_Charging_Adjusted_Penalty>
0.00334737

> <i_epik_Tot_Q>
0

> <i_epik_Tot_abs_Q>
0

> <r_epik_Metal_State_Penalty>
-0

> <b_epik_Metal_Only>
0

> <s_lp_Force_Field>
OPLS_2005

> <r_lp_Energy>
20.2877

> <b_lp_Chiralities_Consistent>
1

> <s_lp_Variant>
AV-unprocessed.smi:1932-1

> <Gold.Version>
5.8.1

> <Gold.Id.Protein>
6NUR|6NUR_protein|mol2

> <Gold.PLP.Fitness>
50.3240

> <Gold.PLP.PLP>
-45.8593

> <Gold.PLP.part.hbond>
-2.7561

> <Gold.PLP.part.metal>
0.0000

> <Gold.PLP.part.buried>
-6.0670

> <Gold.PLP.part.nonpolar>
-38.3232

> <Gold.PLP.part.repulsive>
0.1272

> <Gold.PLP.ligand.clash>
0.0000

> <Gold.PLP.ligand.torsion>
0.9048

> <Gold.PLP.Chemscore.Hbond>
1.9920

> <Gold.PLP.Chemscore.CHOScore>
0.0000

> <Gold.PLP.Chemscore.Metal>
0.0000

> <Gold.Chemscore.Hbonds>
donor molecule, donor type, donor heavy atom, donor atom, acceptor molecule, acceptor atom, score
      P1  H  7997  8008       L1     8  1.00
      P1  H 10752 10764       L1     3  0.15

> <Gold.PLP.Chemscore.Internal.Correction>
0.2983

> <Gold.Rescore>
     Score         DG    S(hbond)    S(metal)    S(lipo)     H(rot)  DE(clash)    DE(int)     intcor
     18.34     -19.53       1.95        0.00     107.99       2.00       0.48       0.71       ----

> <Gold.Chemscore.Fitness>
18.3374

> <Gold.Chemscore.DG>
-19.5346

> <Gold.Chemscore.ZeroCoef>
-5.4800

> <Gold.Chemscore.Hbond>
1.9546

> <Gold.Chemscore.Metal>
0.0000

> <Gold.Chemscore.Lipo>
107.9907

> <Gold.Chemscore.Internal_Hbond>
0.0000

> <Gold.Chemscore.DEClash>
0.4843

> <Gold.Chemscore.DEInternal>
0.7129

> <Gold.Chemscore.Rot>
1.9956

> <Gold.Chemscore.Internal.Correction>
   9.000000E+99

> <Gold.Chemscore.Hbonds>
donor molecule, donor type, donor heavy atom, donor atom, acceptor molecule, acceptor atom, score
      P1  H  7997  8008       L1     8  0.86
      P1  H 10752 10764       L1     3  0.16

> <Gold.Chemscore.Hbond.Weighted>
-6.5284

> <Gold.Chemscore.Metal.Weighted>
-0.0000

> <Gold.Chemscore.Lipo.Weighted>
-12.6349

> <Gold.Chemscore.Internal_Hbond.Weighted>
0.0000

> <Gold.Chemscore.DEClash.Weighted>
0.4843

> <Gold.Chemscore.DEInternal.Weighted>
0.7129

> <Gold.Chemscore.Rot.Weighted>
5.1087

> <Gold.Chemscore.Internal.Correction.Weighted>
   9.000000E+99

> <Gold.Protein.RotatedTorsions>
[ 6907 6896 6895 6894 ] final  -35.22 input  -60.11 | X-H torsion
[ 7974 7965 7964 7962 ] final   87.63 input  175.53 | X-H torsion
[ 8008 7997 7996 7995 ] final  -36.42 input   59.86 | X-H torsion
[ 10167 10162 10161 10158 ] final  106.18 input  -65.29 | X-H torsion
[ 10718 10713 10712 10709 ] final  108.37 input   66.30 | X-H torsion
[ 10763 10752 10751 10750 ] final  -52.03 input  -60.55 | X-H torsion
[ 11005 11000 10999 10996 ] final   19.50 input  -57.11 | X-H torsion

> <Gold.Protein.ActiveResidues>
 VAL166  LYS551  ARG553  GLY616  TRP617  ASP618  TYR619  PRO620  LYS621  CYS622 
 ASP623  PHE694  ASN695  SER759  ASP760  ASP761  ALA762  ILE779  LEU786  VAL792 
 PHE793  MET794  SER795  GLU796  ALA797  LYS798  CYS799  TRP800  GLU811  SER814 

> <Gold.Protein.RotatedAtoms>
  151.0426  134.9617  159.8169 H   0  0  0  0  0  0  0  0  0  0  0  0  # atno 6907 bound_to 6896
  152.5367  134.2639  159.8956 H   0  0  0  0  0  0  0  0  0  0  0  0  # atno 6908 bound_to 6896
  151.2652  133.4240  159.2652 H   0  0  0  0  0  0  0  0  0  0  0  0  # atno 6909 bound_to 6896
  145.5565  139.2300  143.2483 H   0  0  0  0  0  0  0  0  0  0  0  0  # atno 7974 bound_to 7965
  154.4073  140.1631  156.2371 H   0  0  0  0  0  0  0  0  0  0  0  0  # atno 8008 bound_to 7997
  155.9233  140.3420  155.6167 H   0  0  0  0  0  0  0  0  0  0  0  0  # atno 8009 bound_to 7997
  155.7196  140.0767  157.2327 H   0  0  0  0  0  0  0  0  0  0  0  0  # atno 8010 bound_to 7997
  139.7030  144.7091  151.1153 H   0  0  0  0  0  0  0  0  0  0  0  0  # atno 10167 bound_to 10162
  157.6589  131.0892  150.6295 H   0  0  0  0  0  0  0  0  0  0  0  0  # atno 10718 bound_to 10713
  154.1362  135.6512  153.4932 H   0  0  0  0  0  0  0  0  0  0  0  0  # atno 10763 bound_to 10752
  153.0180  135.5304  154.6951 H   0  0  0  0  0  0  0  0  0  0  0  0  # atno 10764 bound_to 10752
  154.6200  135.2963  155.0307 H   0  0  0  0  0  0  0  0  0  0  0  0  # atno 10765 bound_to 10752
  140.4130  134.1598  155.7668 H   0  0  0  0  0  0  0  0  0  0  0  0  # atno 11005 bound_to 11000
  146.1881  140.6389  142.9158 LP  0  0  0  0  0  0  0  0  0  0  0  0  # atno 17320 bound_to 7965
  144.7504  140.5176  143.6806 LP  0  0  0  0  0  0  0  0  0  0  0  0  # atno 17321 bound_to 7965
  140.7714  143.5397  150.9327 LP  0  0  0  0  0  0  0  0  0  0  0  0  # atno 17342 bound_to 10162
  139.9079  143.6755  152.3120 LP  0  0  0  0  0  0  0  0  0  0  0  0  # atno 17343 bound_to 10162
  156.6599  130.4509  149.5691 LP  0  0  0  0  0  0  0  0  0  0  0  0  # atno 17370 bound_to 10713
  156.2075  130.6658  151.1234 LP  0  0  0  0  0  0  0  0  0  0  0  0  # atno 17371 bound_to 10713
  141.1813  133.8407  157.1246 LP  0  0  0  0  0  0  0  0  0  0  0  0  # atno 17394 bound_to 11000
  140.0254  134.9926  157.0674 LP  0  0  0  0  0  0  0  0  0  0  0  0  # atno 17395 bound_to 11000

$$$$
