AV-unprocessed.smi:3214|AV-procd|sdf|12284|dock2
  -GOLD-   2272018123D 1   1.00000     0.00000
 Structure written by MMmdl.
 37 37  0  0  0  0  0  0  0  0  2 V2000
  146.6887  142.9251  154.1233 C   0  0  0  0  0  0  0  0  0  0  0  0
  147.3943  141.6352  154.5538 C   0  0  0  0  0  0  0  0  0  0  0  0
  148.7506  141.9177  155.0030 N   0  0  0  0  0  0  0  0  0  0  0  0
  149.6348  140.9814  155.3757 C   0  0  0  0  0  0  0  0  0  0  0  0
  149.3797  139.7770  155.3772 O   0  0  0  0  0  0  0  0  0  0  0  0
  151.0120  141.4843  155.8196 C   0  0  0  0  0  0  0  0  0  0  0  0
  150.9539  142.3173  157.1110 C   0  0  0  0  0  0  0  0  0  0  0  0
  151.0090  143.7637  156.8099 N   0  3  0  0  0  0  0  0  0  0  0  0
  151.2208  144.6518  157.9770 C   0  0  1  0  0  0  0  0  0  0  0  0
  150.2210  144.2766  159.0793 C   0  0  0  0  0  0  0  0  0  0  0  0
  152.6686  144.5589  158.5118 C   0  0  0  0  0  0  0  0  0  0  0  0
  152.8171  143.6584  159.6408 N   0  0  0  0  0  0  0  0  0  0  0  0
  153.4105  142.4135  159.6733 C   0  0  0  0  0  0  0  0  0  0  0  0
  153.3022  141.9454  160.9514 C   0  0  0  0  0  0  0  0  0  0  0  0
  152.6068  142.9822  161.6341 C   0  0  0  0  0  0  0  0  0  0  0  0
  152.3134  144.0037  160.8456 N   0  0  0  0  0  0  0  0  0  0  0  0
  145.6724  142.7166  153.7886 H   0  0  0  0  0  0  0  0  0  0  0  0
  147.2162  143.4083  153.3001 H   0  0  0  0  0  0  0  0  0  0  0  0
  146.6273  143.6363  154.9475 H   0  0  0  0  0  0  0  0  0  0  0  0
  146.8354  141.1572  155.3599 H   0  0  0  0  0  0  0  0  0  0  0  0
  147.4237  140.9326  153.7197 H   0  0  0  0  0  0  0  0  0  0  0  0
  149.0322  142.8870  155.0321 H   0  0  0  0  0  0  0  0  0  0  0  0
  151.6803  140.6332  155.9609 H   0  0  0  0  0  0  0  0  0  0  0  0
  151.4313  142.0826  155.0095 H   0  0  0  0  0  0  0  0  0  0  0  0
  150.0399  142.0903  157.6574 H   0  0  0  0  0  0  0  0  0  0  0  0
  151.7904  142.0566  157.7616 H   0  0  0  0  0  0  0  0  0  0  0  0
  151.7874  143.9014  156.1812 H   0  0  0  0  0  0  0  0  0  0  0  0
  151.0011  145.6808  157.6876 H   0  0  0  0  0  0  0  0  0  0  0  0
  150.3192  144.9390  159.9400 H   0  0  0  0  0  0  0  0  0  0  0  0
  150.3755  143.2547  159.4277 H   0  0  0  0  0  0  0  0  0  0  0  0
  149.1932  144.3556  158.7231 H   0  0  0  0  0  0  0  0  0  0  0  0
  153.3346  144.2047  157.7236 H   0  0  0  0  0  0  0  0  0  0  0  0
  153.0327  145.5461  158.8002 H   0  0  0  0  0  0  0  0  0  0  0  0
  153.8591  141.9700  158.7965 H   0  0  0  0  0  0  0  0  0  0  0  0
  153.6606  141.0034  161.3395 H   0  0  0  0  0  0  0  0  0  0  0  0
  152.3071  143.0221  162.6710 H   0  0  0  0  0  0  0  0  0  0  0  0
  150.1628  144.0437  156.3350 H   0  0  0  0  0  0  0  0  0  0  0  0
  1  2  1  0  0  0  0
  1 17  1  0  0  0  0
  1 18  1  0  0  0  0
  1 19  1  0  0  0  0
  2  3  1  0  0  0  0
  2 20  1  0  0  0  0
  2 21  1  0  0  0  0
  3  4  1  0  0  0  0
  3 22  1  0  0  0  0
  4  5  2  0  0  0  0
  4  6  1  0  0  0  0
  6  7  1  0  0  0  0
  6 23  1  0  0  0  0
  6 24  1  0  0  0  0
  7  8  1  0  0  0  0
  7 25  1  0  0  0  0
  7 26  1  0  0  0  0
  8  9  1  0  0  0  0
  8 27  1  0  0  0  0
  8 37  1  0  0  0  0
  9 10  1  0  0  0  0
  9 11  1  0  0  0  0
  9 28  1  0  0  0  0
 10 29  1  0  0  0  0
 10 30  1  0  0  0  0
 10 31  1  0  0  0  0
 11 12  1  0  0  0  0
 11 32  1  0  0  0  0
 11 33  1  0  0  0  0
 12 16  1  0  0  0  0
 12 13  1  0  0  0  0
 13 14  2  0  0  0  0
 13 34  1  0  0  0  0
 14 15  1  0  0  0  0
 14 35  1  0  0  0  0
 15 16  2  0  0  0  0
 15 36  1  0  0  0  0
M  CHG  1   8   1
M  END
> <s_m_source_file>
AV-unprocessed.smi

> <i_m_source_file_index>
3214

> <i_lp_mmshare_version>
43012

> <i_f3d_flags>
0

> <s_epik_input>
W0NIM11bQ0gyXVtOSF1DKD1PKVtDSDJdW0NIMl1bTkhdW0NASF0oW0NIM10pW0NIMl1uMVtjSF1bY0hdW2NIXW4x

> <s_epik_cmdline>
J2VwaWtfcHl0aG9uJywgJy1waCcsICc3LjAnLCAnLXRuJywgJzgnLCAnLW1hJywgJzIwMCcsICctbWV0YWxfYmluZGluZycsICctaW1hZScsICc8aW5maWxlLm1hZT4nLCAnLW9tYWUnLCAnPG91dGZpbGUubWFlPic=

> <r_lp_tautomer_probability>
1

> <r_epik_Ionization_Penalty>
0.00598156

> <r_epik_Ionization_Penalty_Charging>
0.00597743

> <r_epik_Ionization_Penalty_Neutral>
4.12922e-06

> <r_epik_State_Penalty>
0.00439883

> <r_epik_Charging_Adjusted_Penalty>
0.0103763

> <i_epik_Tot_Q>
1

> <i_epik_Tot_abs_Q>
1

> <r_epik_Metal_State_Penalty>
-0

> <b_epik_Metal_Only>
0

> <s_lp_Force_Field>
OPLS_2005

> <r_lp_Energy>
6.42892

> <b_lp_Chiralities_Consistent>
1

> <s_lp_Variant>
AV-unprocessed.smi:3214-2

> <Gold.Version>
5.8.1

> <Gold.Id.Protein>
6NUR|6NUR_protein|mol2

> <Gold.PLP.Fitness>
50.7217

> <Gold.PLP.PLP>
-43.6282

> <Gold.PLP.part.hbond>
-2.0000

> <Gold.PLP.part.metal>
0.0000

> <Gold.PLP.part.buried>
-5.3207

> <Gold.PLP.part.nonpolar>
-35.7928

> <Gold.PLP.part.repulsive>
0.3361

> <Gold.PLP.ligand.clash>
0.0000

> <Gold.PLP.ligand.torsion>
1.0481

> <Gold.PLP.Chemscore.Hbond>
3.0000

> <Gold.PLP.Chemscore.CHOScore>
0.0000

> <Gold.PLP.Chemscore.Metal>
0.0000

> <Gold.Chemscore.Hbonds>
donor molecule, donor type, donor heavy atom, donor atom, acceptor molecule, acceptor atom, score
      L1  H     3    22       P1  8028  1.00
      L1  H     8    37       P1  8028  2.00

> <Gold.PLP.Chemscore.Internal.Correction>
0.1898

> <Gold.Rescore>
     Score         DG    S(hbond)    S(metal)    S(lipo)     H(rot)  DE(clash)    DE(int)     intcor
     15.00     -17.28       1.98        0.00      96.76       2.39       0.06       2.21       ----

> <Gold.Chemscore.Fitness>
15.0013

> <Gold.Chemscore.DG>
-17.2755

> <Gold.Chemscore.ZeroCoef>
-5.4800

> <Gold.Chemscore.Hbond>
1.9775

> <Gold.Chemscore.Metal>
0.0000

> <Gold.Chemscore.Lipo>
96.7642

> <Gold.Chemscore.Internal_Hbond>
0.0000

> <Gold.Chemscore.DEClash>
0.0634

> <Gold.Chemscore.DEInternal>
2.2108

> <Gold.Chemscore.Rot>
2.3948

> <Gold.Chemscore.Internal.Correction>
   9.000000E+99

> <Gold.Chemscore.Hbonds>
donor molecule, donor type, donor heavy atom, donor atom, acceptor molecule, acceptor atom, score
      L1  H     3    22       P1  8028  0.97
      L1  H     8    37       P1  8028  0.97

> <Gold.Chemscore.Hbond.Weighted>
-6.6047

> <Gold.Chemscore.Metal.Weighted>
-0.0000

> <Gold.Chemscore.Lipo.Weighted>
-11.3214

> <Gold.Chemscore.Internal_Hbond.Weighted>
0.0000

> <Gold.Chemscore.DEClash.Weighted>
0.0634

> <Gold.Chemscore.DEInternal.Weighted>
2.2108

> <Gold.Chemscore.Rot.Weighted>
6.1306

> <Gold.Chemscore.Internal.Correction.Weighted>
   9.000000E+99

> <Gold.Protein.RotatedTorsions>
[ 6907 6896 6895 6894 ] final   53.89 input  -60.11 | X-H torsion
[ 7974 7965 7964 7962 ] final -132.17 input  175.53 | X-H torsion
[ 8008 7997 7996 7995 ] final -108.09 input   59.86 | X-H torsion
[ 10167 10162 10161 10158 ] final   15.44 input  -65.29 | X-H torsion
[ 10718 10713 10712 10709 ] final   93.44 input   66.30 | X-H torsion
[ 10763 10752 10751 10750 ] final   39.65 input  -60.55 | X-H torsion
[ 11005 11000 10999 10996 ] final   75.91 input  -57.11 | X-H torsion

> <Gold.Protein.ActiveResidues>
 VAL166  LYS551  ARG553  GLY616  TRP617  ASP618  TYR619  PRO620  LYS621  CYS622 
 ASP623  PHE694  ASN695  SER759  ASP760  ASP761  ALA762  ILE779  LEU786  VAL792 
 PHE793  MET794  SER795  GLU796  ALA797  LYS798  CYS799  TRP800  GLU811  SER814 

> <Gold.Protein.RotatedAtoms>
  152.3383  134.7169  160.0270 H   0  0  0  0  0  0  0  0  0  0  0  0  # atno 6907 bound_to 6896
  151.7562  133.3325  159.3413 H   0  0  0  0  0  0  0  0  0  0  0  0  # atno 6908 bound_to 6896
  150.7464  134.6079  159.6115 H   0  0  0  0  0  0  0  0  0  0  0  0  # atno 6909 bound_to 6896
  144.9311  140.7129  143.4905 H   0  0  0  0  0  0  0  0  0  0  0  0  # atno 7974 bound_to 7965
  154.9391  140.0403  157.2087 H   0  0  0  0  0  0  0  0  0  0  0  0  # atno 8008 bound_to 7997
  154.8086  140.2864  155.5847 H   0  0  0  0  0  0  0  0  0  0  0  0  # atno 8009 bound_to 7997
  156.2969  140.2541  156.2970 H   0  0  0  0  0  0  0  0  0  0  0  0  # atno 8010 bound_to 7997
  140.5867  143.8875  150.6837 H   0  0  0  0  0  0  0  0  0  0  0  0  # atno 10167 bound_to 10162
  157.6954  131.0478  150.4034 H   0  0  0  0  0  0  0  0  0  0  0  0  # atno 10718 bound_to 10713
  152.9960  135.6214  154.2500 H   0  0  0  0  0  0  0  0  0  0  0  0  # atno 10763 bound_to 10752
  154.2239  135.2795  155.2916 H   0  0  0  0  0  0  0  0  0  0  0  0  # atno 10764 bound_to 10752
  154.5506  135.5734  153.6977 H   0  0  0  0  0  0  0  0  0  0  0  0  # atno 10765 bound_to 10752
  139.9322  134.7557  156.1330 H   0  0  0  0  0  0  0  0  0  0  0  0  # atno 11005 bound_to 11000
  145.3141  139.1809  143.4623 LP  0  0  0  0  0  0  0  0  0  0  0  0  # atno 17320 bound_to 7965
  146.3247  140.3149  142.8629 LP  0  0  0  0  0  0  0  0  0  0  0  0  # atno 17321 bound_to 7965
  140.2388  143.3679  152.1504 LP  0  0  0  0  0  0  0  0  0  0  0  0  # atno 17342 bound_to 10162
  139.5202  144.7030  151.5438 LP  0  0  0  0  0  0  0  0  0  0  0  0  # atno 17343 bound_to 10162
  156.4425  130.3994  149.6688 LP  0  0  0  0  0  0  0  0  0  0  0  0  # atno 17370 bound_to 10713
  156.3866  130.7606  151.2604 LP  0  0  0  0  0  0  0  0  0  0  0  0  # atno 17371 bound_to 10713
  141.0917  133.6712  156.2554 LP  0  0  0  0  0  0  0  0  0  0  0  0  # atno 17394 bound_to 11000
  140.6172  134.5399  157.5542 LP  0  0  0  0  0  0  0  0  0  0  0  0  # atno 17395 bound_to 11000

$$$$
