AV-unprocessed.smi:688|AV-procd|sdf|3356|dock1
  -GOLD-   22720 0333D 1   1.00000     0.00000
 Structure written by MMmdl.
 35 36  0  0  0  0  0  0  0  0  2 V2000
  149.7873  135.1833  158.1761 O   0  0  0  0  0  0  0  0  0  0  0  0
  149.8351  136.0585  157.3126 C   0  0  0  0  0  0  0  0  0  0  0  0
  150.8256  136.1142  156.3746 N   0  5  0  0  0  0  0  0  0  0  0  0
  150.8917  137.0757  155.4025 C   0  0  0  0  0  0  0  0  0  0  0  0
  151.7998  137.1103  154.5715 O   0  0  0  0  0  0  0  0  0  0  0  0
  149.9158  138.0306  155.3541 N   0  0  0  0  0  0  0  0  0  0  0  0
  149.9032  139.0971  154.3427 C   0  0  0  0  0  0  0  0  0  0  0  0
  149.6826  140.4896  154.9743 C   0  0  2  0  0  0  0  0  0  0  0  0
  149.3699  141.3914  153.9304 O   0  0  0  0  0  0  0  0  0  0  0  0
  150.9535  141.0150  155.6632 C   0  0  0  0  0  0  0  0  0  0  0  0
  150.5907  141.6513  156.8779 O   0  0  0  0  0  0  0  0  0  0  0  0
  151.3370  142.8302  157.1318 C   0  0  0  0  0  0  0  0  0  0  0  0
  151.7489  142.9293  158.5881 C   0  0  0  0  0  0  0  0  0  0  0  0
  151.4206  144.0783  159.3385 C   0  0  0  0  0  0  0  0  0  0  0  0
  151.8135  144.1803  160.6873 C   0  0  0  0  0  0  0  0  0  0  0  0
  152.5407  143.1355  161.2902 C   0  0  0  0  0  0  0  0  0  0  0  0
  153.0209  143.2593  162.9428 Cl  0  0  0  0  0  0  0  0  0  0  0  0
  152.8776  141.9904  160.5419 C   0  0  0  0  0  0  0  0  0  0  0  0
  152.4854  141.8887  159.1927 C   0  0  0  0  0  0  0  0  0  0  0  0
  148.8805  138.0253  156.3036 C   0  0  0  0  0  0  0  0  0  0  0  0
  148.8010  137.0902  157.2702 C   0  0  0  0  0  0  0  0  0  0  0  0
  147.5172  137.1102  158.4264 Cl  0  0  0  0  0  0  0  0  0  0  0  0
  150.8545  139.0765  153.8083 H   0  0  0  0  0  0  0  0  0  0  0  0
  149.1567  138.8993  153.5715 H   0  0  0  0  0  0  0  0  0  0  0  0
  148.8664  140.4567  155.6973 H   0  0  0  0  0  0  0  0  0  0  0  0
  148.4307  141.4827  153.8853 H   0  0  0  0  0  0  0  0  0  0  0  0
  151.6142  140.1804  155.9027 H   0  0  0  0  0  0  0  0  0  0  0  0
  151.5097  141.6907  155.0107 H   0  0  0  0  0  0  0  0  0  0  0  0
  152.2240  142.8464  156.4961 H   0  0  0  0  0  0  0  0  0  0  0  0
  150.7426  143.7107  156.8833 H   0  0  0  0  0  0  0  0  0  0  0  0
  150.8648  144.8839  158.8816 H   0  0  0  0  0  0  0  0  0  0  0  0
  151.5565  145.0610  161.2573 H   0  0  0  0  0  0  0  0  0  0  0  0
  153.4375  141.1889  161.0010 H   0  0  0  0  0  0  0  0  0  0  0  0
  152.7498  141.0081  158.6258 H   0  0  0  0  0  0  0  0  0  0  0  0
  148.1630  138.8264  156.2008 H   0  0  0  0  0  0  0  0  0  0  0  0
  1  2  2  0  0  0  0
  2 21  1  0  0  0  0
  2  3  1  0  0  0  0
  3  4  1  0  0  0  0
  4  5  2  0  0  0  0
  4  6  1  0  0  0  0
  6  7  1  0  0  0  0
  6 20  1  0  0  0  0
  7  8  1  0  0  0  0
  7 23  1  0  0  0  0
  7 24  1  0  0  0  0
  8  9  1  0  0  0  0
  8 10  1  0  0  0  0
  8 25  1  0  0  0  0
  9 26  1  0  0  0  0
 10 11  1  0  0  0  0
 10 27  1  0  0  0  0
 10 28  1  0  0  0  0
 11 12  1  0  0  0  0
 12 13  1  0  0  0  0
 12 29  1  0  0  0  0
 12 30  1  0  0  0  0
 13 19  1  0  0  0  0
 13 14  2  0  0  0  0
 14 15  1  0  0  0  0
 14 31  1  0  0  0  0
 15 16  2  0  0  0  0
 15 32  1  0  0  0  0
 16 17  1  0  0  0  0
 16 18  1  0  0  0  0
 18 19  2  0  0  0  0
 18 33  1  0  0  0  0
 19 34  1  0  0  0  0
 20 21  2  0  0  0  0
 20 35  1  0  0  0  0
 21 22  1  0  0  0  0
M  CHG  1   3  -1
M  END
> <s_m_source_file>
AV-unprocessed.smi

> <i_m_source_file_index>
688

> <i_lp_mmshare_version>
43012

> <i_f3d_flags>
0

> <s_epik_input>
Tz1jMVtuSF1jKD1PKW4oW2NIXWMxQ2wpW0NIMl1bQ0BIXShbT0hdKVtDSDJdT1tDSDJdYzJbY0hdW2NIXWMoQ2wpW2NIXVtjSF0y

> <s_epik_cmdline>
J2VwaWtfcHl0aG9uJywgJy1waCcsICc3LjAnLCAnLXRuJywgJzgnLCAnLW1hJywgJzIwMCcsICctbWV0YWxfYmluZGluZycsICctaW1hZScsICc8aW5maWxlLm1hZT4nLCAnLW9tYWUnLCAnPG91dGZpbGUubWFlPic=

> <r_epik_Ionization_Penalty>
1.82111

> <r_epik_Ionization_Penalty_Charging>
5.03334e-08

> <r_epik_Ionization_Penalty_Neutral>
1.82111

> <r_epik_State_Penalty>
1.93633

> <r_epik_Charging_Adjusted_Penalty>
1.93633

> <i_epik_Tot_Q>
-1

> <i_epik_Tot_abs_Q>
1

> <r_epik_Metal_State_Penalty>
0.0147818

> <b_epik_Metal_Only>
0

> <s_lp_Force_Field>
OPLS_2005

> <r_lp_Energy>
25.7398

> <b_lp_Chiralities_Consistent>
1

> <s_lp_Variant>
AV-unprocessed.smi:688-3

> <Gold.Version>
5.8.1

> <Gold.Id.Protein>
6NUR|6NUR_protein|mol2

> <Gold.PLP.Fitness>
48.4366

> <Gold.PLP.PLP>
-42.6483

> <Gold.PLP.part.hbond>
-4.7037

> <Gold.PLP.part.metal>
0.0000

> <Gold.PLP.part.buried>
-5.9386

> <Gold.PLP.part.nonpolar>
-32.4245

> <Gold.PLP.part.repulsive>
0.2194

> <Gold.PLP.ligand.clash>
0.0000

> <Gold.PLP.ligand.torsion>
1.4095

> <Gold.PLP.Chemscore.Hbond>
2.7440

> <Gold.PLP.Chemscore.CHOScore>
0.0000

> <Gold.PLP.Chemscore.Metal>
0.0000

> <Gold.Chemscore.Hbonds>
donor molecule, donor type, donor heavy atom, donor atom, acceptor molecule, acceptor atom, score
      P1  H  6896  6909       L1     1  0.98
      P1  H  8011  8017       L1     9  0.68
      P1  H 10752 10763       L1     5  1.00

> <Gold.PLP.Chemscore.Internal.Correction>
0.3753

> <Gold.Rescore>
     Score         DG    S(hbond)    S(metal)    S(lipo)     H(rot)  DE(clash)    DE(int)     intcor
     17.31     -18.97       2.24        0.00     113.69       2.85       0.22       1.44       ----

> <Gold.Chemscore.Fitness>
17.3117

> <Gold.Chemscore.DG>
-18.9709

> <Gold.Chemscore.ZeroCoef>
-5.4800

> <Gold.Chemscore.Hbond>
2.2443

> <Gold.Chemscore.Metal>
0.0000

> <Gold.Chemscore.Lipo>
113.6890

> <Gold.Chemscore.Internal_Hbond>
0.0000

> <Gold.Chemscore.DEClash>
0.2205

> <Gold.Chemscore.DEInternal>
1.4387

> <Gold.Chemscore.Rot>
2.8542

> <Gold.Chemscore.Internal.Correction>
   9.000000E+99

> <Gold.Chemscore.Hbonds>
donor molecule, donor type, donor heavy atom, donor atom, acceptor molecule, acceptor atom, score
      P1  H  6896  6909       L1     1  0.93
      P1  H  8011  8017       L1     9  0.13
      P1  H 10752 10763       L1     5  0.92

> <Gold.Chemscore.Hbond.Weighted>
-7.4960

> <Gold.Chemscore.Metal.Weighted>
-0.0000

> <Gold.Chemscore.Lipo.Weighted>
-13.3016

> <Gold.Chemscore.Internal_Hbond.Weighted>
0.0000

> <Gold.Chemscore.DEClash.Weighted>
0.2205

> <Gold.Chemscore.DEInternal.Weighted>
1.4387

> <Gold.Chemscore.Rot.Weighted>
7.3067

> <Gold.Chemscore.Internal.Correction.Weighted>
   9.000000E+99

> <Gold.Protein.RotatedTorsions>
[ 6907 6896 6895 6894 ] final   30.32 input  -60.11 | X-H torsion
[ 7974 7965 7964 7962 ] final   38.36 input  175.53 | X-H torsion
[ 8008 7997 7996 7995 ] final  108.68 input   59.86 | X-H torsion
[ 10167 10162 10161 10158 ] final  123.02 input  -65.29 | X-H torsion
[ 10718 10713 10712 10709 ] final   -9.31 input   66.30 | X-H torsion
[ 10763 10752 10751 10750 ] final   52.17 input  -60.55 | X-H torsion
[ 11005 11000 10999 10996 ] final   82.48 input  -57.11 | X-H torsion

> <Gold.Protein.ActiveResidues>
 VAL166  LYS551  ARG553  GLY616  TRP617  ASP618  TYR619  PRO620  LYS621  CYS622 
 ASP623  PHE694  ASN695  SER759  ASP760  ASP761  ALA762  ILE779  LEU786  VAL792 
 PHE793  MET794  SER795  GLU796  ALA797  LYS798  CYS799  TRP800  GLU811  SER814 

> <Gold.Protein.RotatedAtoms>
  152.0442  134.9693  160.0573 H   0  0  0  0  0  0  0  0  0  0  0  0  # atno 6907 bound_to 6896
  152.1119  133.4301  159.4643 H   0  0  0  0  0  0  0  0  0  0  0  0  # atno 6908 bound_to 6896
  150.6844  134.2557  159.4572 H   0  0  0  0  0  0  0  0  0  0  0  0  # atno 6909 bound_to 6896
  146.1068  139.5782  142.9378 H   0  0  0  0  0  0  0  0  0  0  0  0  # atno 7974 bound_to 7965
  156.1921  140.3072  155.9354 H   0  0  0  0  0  0  0  0  0  0  0  0  # atno 8008 bound_to 7997
  155.3149  140.0453  157.3053 H   0  0  0  0  0  0  0  0  0  0  0  0  # atno 8009 bound_to 7997
  154.5465  140.2278  155.8564 H   0  0  0  0  0  0  0  0  0  0  0  0  # atno 8010 bound_to 7997
  139.5824  144.6992  151.3495 H   0  0  0  0  0  0  0  0  0  0  0  0  # atno 10167 bound_to 10162
  156.6899  130.5062  149.5946 H   0  0  0  0  0  0  0  0  0  0  0  0  # atno 10718 bound_to 10713
  152.9788  135.5821  154.4534 H   0  0  0  0  0  0  0  0  0  0  0  0  # atno 10763 bound_to 10752
  154.4120  135.2770  155.2033 H   0  0  0  0  0  0  0  0  0  0  0  0  # atno 10764 bound_to 10752
  154.3818  135.6145  153.5849 H   0  0  0  0  0  0  0  0  0  0  0  0  # atno 10765 bound_to 10752
  139.9062  134.8074  156.2180 H   0  0  0  0  0  0  0  0  0  0  0  0  # atno 11005 bound_to 11000
  145.5745  141.0390  143.2156 LP  0  0  0  0  0  0  0  0  0  0  0  0  # atno 17320 bound_to 7965
  144.7477  139.7275  143.7285 LP  0  0  0  0  0  0  0  0  0  0  0  0  # atno 17321 bound_to 7965
  140.7100  143.7414  150.7550 LP  0  0  0  0  0  0  0  0  0  0  0  0  # atno 17342 bound_to 10162
  140.0950  143.4841  152.2457 LP  0  0  0  0  0  0  0  0  0  0  0  0  # atno 17343 bound_to 10162
  156.1805  130.6496  151.0946 LP  0  0  0  0  0  0  0  0  0  0  0  0  # atno 17370 bound_to 10713
  157.7013  131.0775  150.6812 LP  0  0  0  0  0  0  0  0  0  0  0  0  # atno 17371 bound_to 10713
  141.0424  133.6931  156.1621 LP  0  0  0  0  0  0  0  0  0  0  0  0  # atno 17394 bound_to 11000
  140.6936  134.4640  157.5588 LP  0  0  0  0  0  0  0  0  0  0  0  0  # atno 17395 bound_to 11000

$$$$
