AV-unprocessed.smi:1474|AV-procd|sdf|5974|dock7
  -GOLD-   22720 6 63D 1   1.00000     0.00000
 Structure written by MMmdl.
 43 44  0  0  0  0  0  0  0  0  1 V2000
  153.2172  141.1451  159.5505 C   0  0  0  0  0  0  0  0  0  0  0  0
  152.7963  140.5949  158.3147 O   0  0  0  0  0  0  0  0  0  0  0  0
  151.5965  141.1821  157.8396 C   0  0  0  0  0  0  0  0  0  0  0  0
  151.3471  140.7165  156.4028 C   0  0  0  0  0  0  0  0  0  0  0  0
  150.2521  141.4532  155.8670 O   0  0  0  0  0  0  0  0  0  0  0  0
  149.3883  140.8130  155.0021 C   0  0  0  0  0  0  0  0  0  0  0  0
  148.3557  141.5636  154.4035 C   0  0  0  0  0  0  0  0  0  0  0  0
  147.4622  140.9133  153.5313 C   0  0  0  0  0  0  0  0  0  0  0  0
  147.6346  139.5367  153.2827 C   0  0  0  0  0  0  0  0  0  0  0  0
  146.6802  138.7841  152.3735 C   0  0  0  0  0  0  0  0  0  0  0  0
  146.4410  137.4202  152.8298 N   0  0  0  0  0  0  0  0  0  0  0  0
  145.2336  136.9109  153.1208 C   0  0  0  0  0  0  0  0  0  0  0  0
  144.1999  137.5792  153.0858 O   0  0  0  0  0  0  0  0  0  0  0  0
  145.1958  135.4210  153.5098 C   0  0  2  0  0  0  0  0  0  0  0  0
  144.4393  134.5732  152.4702 C   0  0  0  0  0  0  0  0  0  0  0  0
  142.9211  134.8343  152.4679 C   0  0  0  0  0  0  0  0  0  0  0  0
  142.3095  134.9271  153.8738 C   0  0  0  0  0  0  0  0  0  0  0  0
  141.0923  134.8301  154.0100 O   0  0  0  0  0  0  0  0  0  0  0  0
  143.1175  135.1556  154.9241 N   0  0  0  0  0  0  0  0  0  0  0  0
  144.5819  135.1776  154.9075 C   0  0  0  0  0  0  0  0  0  0  0  0
  148.7011  138.8725  153.9237 C   0  0  0  0  0  0  0  0  0  0  0  0
  149.5598  139.4886  154.7635 N   0  0  0  0  0  0  0  0  0  0  0  0
  154.1367  140.6576  159.8744 H   0  0  0  0  0  0  0  0  0  0  0  0
  152.4655  140.9946  160.3263 H   0  0  0  0  0  0  0  0  0  0  0  0
  153.4169  142.2134  159.4588 H   0  0  0  0  0  0  0  0  0  0  0  0
  150.7601  140.8888  158.4762 H   0  0  0  0  0  0  0  0  0  0  0  0
  151.6713  142.2702  157.8719 H   0  0  0  0  0  0  0  0  0  0  0  0
  152.2443  140.8761  155.8027 H   0  0  0  0  0  0  0  0  0  0  0  0
  151.1219  139.6487  156.3988 H   0  0  0  0  0  0  0  0  0  0  0  0
  148.2470  142.6171  154.6154 H   0  0  0  0  0  0  0  0  0  0  0  0
  146.6561  141.4615  153.0662 H   0  0  0  0  0  0  0  0  0  0  0  0
  145.7264  139.3119  152.3499 H   0  0  0  0  0  0  0  0  0  0  0  0
  147.0556  138.7816  151.3487 H   0  0  0  0  0  0  0  0  0  0  0  0
  147.2435  136.8106  152.8929 H   0  0  0  0  0  0  0  0  0  0  0  0
  146.2304  135.0749  153.5424 H   0  0  0  0  0  0  0  0  0  0  0  0
  144.8419  134.7535  151.4724 H   0  0  0  0  0  0  0  0  0  0  0  0
  144.6184  133.5170  152.6754 H   0  0  0  0  0  0  0  0  0  0  0  0
  142.7088  135.7722  151.9537 H   0  0  0  0  0  0  0  0  0  0  0  0
  142.4118  134.0533  151.9023 H   0  0  0  0  0  0  0  0  0  0  0  0
  142.6792  135.2564  155.8283 H   0  0  0  0  0  0  0  0  0  0  0  0
  144.9277  134.2171  155.2910 H   0  0  0  0  0  0  0  0  0  0  0  0
  144.9286  135.9287  155.6186 H   0  0  0  0  0  0  0  0  0  0  0  0
  148.8638  137.8161  153.7688 H   0  0  0  0  0  0  0  0  0  0  0  0
  1  2  1  0  0  0  0
  1 23  1  0  0  0  0
  1 24  1  0  0  0  0
  1 25  1  0  0  0  0
  2  3  1  0  0  0  0
  3  4  1  0  0  0  0
  3 26  1  0  0  0  0
  3 27  1  0  0  0  0
  4  5  1  0  0  0  0
  4 28  1  0  0  0  0
  4 29  1  0  0  0  0
  5  6  1  0  0  0  0
  6 22  1  0  0  0  0
  6  7  2  0  0  0  0
  7  8  1  0  0  0  0
  7 30  1  0  0  0  0
  8  9  2  0  0  0  0
  8 31  1  0  0  0  0
  9 10  1  0  0  0  0
  9 21  1  0  0  0  0
 10 11  1  0  0  0  0
 10 32  1  0  0  0  0
 10 33  1  0  0  0  0
 11 12  1  0  0  0  0
 11 34  1  0  0  0  0
 12 13  2  0  0  0  0
 12 14  1  0  0  0  0
 14 20  1  0  0  0  0
 14 15  1  0  0  0  0
 14 35  1  0  0  0  0
 15 16  1  0  0  0  0
 15 36  1  0  0  0  0
 15 37  1  0  0  0  0
 16 17  1  0  0  0  0
 16 38  1  0  0  0  0
 16 39  1  0  0  0  0
 17 18  2  0  0  0  0
 17 19  1  0  0  0  0
 19 20  1  0  0  0  0
 19 40  1  0  0  0  0
 20 41  1  0  0  0  0
 20 42  1  0  0  0  0
 21 22  2  0  0  0  0
 21 43  1  0  0  0  0
M  END
> <s_m_source_file>
AV-unprocessed.smi

> <i_m_source_file_index>
1474

> <i_lp_mmshare_version>
43012

> <i_f3d_flags>
0

> <s_epik_input>
W0NIM11PW0NIMl1bQ0gyXU9jMVtjSF1bY0hdYyhbY0hdbjEpW0NIMl1bTkhdQyg9TylbQ0BASF0yW0NIMl1bQ0gyXUMoPU8pW05IXVtDSDJdMg==

> <s_epik_cmdline>
J2VwaWtfcHl0aG9uJywgJy1waCcsICc3LjAnLCAnLXRuJywgJzgnLCAnLW1hJywgJzIwMCcsICctbWV0YWxfYmluZGluZycsICctaW1hZScsICc8aW5maWxlLm1hZT4nLCAnLW9tYWUnLCAnPG91dGZpbGUubWFlPic=

> <r_lp_tautomer_probability>
1

> <r_epik_Ionization_Penalty>
6.19599e-05

> <r_epik_Ionization_Penalty_Charging>
0

> <r_epik_Ionization_Penalty_Neutral>
6.19599e-05

> <r_epik_State_Penalty>
-0

> <r_epik_Charging_Adjusted_Penalty>
0

> <i_epik_Tot_Q>
0

> <i_epik_Tot_abs_Q>
0

> <r_epik_Metal_State_Penalty>
-0

> <b_epik_Metal_Only>
0

> <s_lp_Force_Field>
OPLS_2005

> <r_lp_Energy>
10.5341

> <b_lp_Chiralities_Consistent>
1

> <s_lp_Variant>
AV-unprocessed.smi:1474-1

> <Gold.Version>
5.8.1

> <Gold.Id.Protein>
6NUR|6NUR_protein|mol2

> <Gold.PLP.Fitness>
42.8792

> <Gold.PLP.PLP>
-32.5713

> <Gold.PLP.part.hbond>
-3.7625

> <Gold.PLP.part.metal>
0.0000

> <Gold.PLP.part.buried>
-1.2274

> <Gold.PLP.part.nonpolar>
-28.2518

> <Gold.PLP.part.repulsive>
1.3236

> <Gold.PLP.ligand.clash>
0.0000

> <Gold.PLP.ligand.torsion>
0.6906

> <Gold.PLP.Chemscore.Hbond>
2.8560

> <Gold.PLP.Chemscore.CHOScore>
1.0000

> <Gold.PLP.Chemscore.Metal>
0.0000

> <Gold.Chemscore.Hbonds>
donor molecule, donor type, donor heavy atom, donor atom, acceptor molecule, acceptor atom, score
      L1  H    11    34       P1  7948  0.74
      P1  H  7997  8008       L1     2  0.32
      P1  H 11000 11005       L1    18  1.00
      L1  C    21    43       P1  7948  1.00

> <Gold.PLP.Chemscore.Internal.Correction>
0.1210

> <Gold.Rescore>
     Score         DG    S(hbond)    S(metal)    S(lipo)     H(rot)  DE(clash)    DE(int)     intcor
     13.12     -16.02       2.57        0.00      71.80       2.52       1.39       1.51       ----

> <Gold.Chemscore.Fitness>
13.1191

> <Gold.Chemscore.DG>
-16.0198

> <Gold.Chemscore.ZeroCoef>
-5.4800

> <Gold.Chemscore.Hbond>
2.5722

> <Gold.Chemscore.Metal>
0.0000

> <Gold.Chemscore.Lipo>
71.7955

> <Gold.Chemscore.Internal_Hbond>
0.0000

> <Gold.Chemscore.DEClash>
1.3887

> <Gold.Chemscore.DEInternal>
1.5120

> <Gold.Chemscore.Rot>
2.5201

> <Gold.Chemscore.Internal.Correction>
   9.000000E+99

> <Gold.Chemscore.Hbonds>
donor molecule, donor type, donor heavy atom, donor atom, acceptor molecule, acceptor atom, score
      L1  H    11    34       P1  7948  0.71
      P1  H  7997  8008       L1     2  0.28
      P1  H 11000 11005       L1    18  0.93

> <Gold.Chemscore.Hbond.Weighted>
-8.5912

> <Gold.Chemscore.Metal.Weighted>
-0.0000

> <Gold.Chemscore.Lipo.Weighted>
-8.4001

> <Gold.Chemscore.Internal_Hbond.Weighted>
0.0000

> <Gold.Chemscore.DEClash.Weighted>
1.3887

> <Gold.Chemscore.DEInternal.Weighted>
1.5120

> <Gold.Chemscore.Rot.Weighted>
6.4514

> <Gold.Chemscore.Internal.Correction.Weighted>
   9.000000E+99

> <Gold.Protein.RotatedTorsions>
[ 6907 6896 6895 6894 ] final  169.28 input  -60.11 | X-H torsion
[ 7974 7965 7964 7962 ] final  -73.04 input  175.53 | X-H torsion
[ 8008 7997 7996 7995 ] final  -75.20 input   59.86 | X-H torsion
[ 10167 10162 10161 10158 ] final   51.54 input  -65.29 | X-H torsion
[ 10718 10713 10712 10709 ] final  144.87 input   66.30 | X-H torsion
[ 10763 10752 10751 10750 ] final  -37.41 input  -60.55 | X-H torsion
[ 11005 11000 10999 10996 ] final   18.94 input  -57.11 | X-H torsion

> <Gold.Protein.ActiveResidues>
 VAL166  LYS551  ARG553  GLY616  TRP617  ASP618  TYR619  PRO620  LYS621  CYS622 
 ASP623  PHE694  ASN695  SER759  ASP760  ASP761  ALA762  ILE779  LEU786  VAL792 
 PHE793  MET794  SER795  GLU796  ALA797  LYS798  CYS799  TRP800  GLU811  SER814 

> <Gold.Protein.RotatedAtoms>
  151.8343  133.3413  159.3623 H   0  0  0  0  0  0  0  0  0  0  0  0  # atno 6907 bound_to 6896
  150.7254  134.5452  159.5776 H   0  0  0  0  0  0  0  0  0  0  0  0  # atno 6908 bound_to 6896
  152.2912  134.7720  160.0428 H   0  0  0  0  0  0  0  0  0  0  0  0  # atno 6909 bound_to 6896
  145.6574  140.9263  143.0952 H   0  0  0  0  0  0  0  0  0  0  0  0  # atno 7974 bound_to 7965
  154.5396  140.0748  156.8487 H   0  0  0  0  0  0  0  0  0  0  0  0  # atno 8008 bound_to 7997
  155.3207  140.3396  155.4223 H   0  0  0  0  0  0  0  0  0  0  0  0  # atno 8009 bound_to 7997
  156.1862  140.1669  156.8167 H   0  0  0  0  0  0  0  0  0  0  0  0  # atno 8010 bound_to 7997
  140.2608  144.3375  150.6319 H   0  0  0  0  0  0  0  0  0  0  0  0  # atno 10167 bound_to 10162
  157.3520  131.0952  151.0992 H   0  0  0  0  0  0  0  0  0  0  0  0  # atno 10718 bound_to 10713
  153.8958  135.6807  153.4758 H   0  0  0  0  0  0  0  0  0  0  0  0  # atno 10763 bound_to 10752
  153.1156  135.4763  154.9107 H   0  0  0  0  0  0  0  0  0  0  0  0  # atno 10764 bound_to 10752
  154.7599  135.3208  154.8351 H   0  0  0  0  0  0  0  0  0  0  0  0  # atno 10765 bound_to 10752
  140.4193  134.1536  155.7672 H   0  0  0  0  0  0  0  0  0  0  0  0  # atno 11005 bound_to 11000
  144.7101  139.8404  143.7417 LP  0  0  0  0  0  0  0  0  0  0  0  0  # atno 17320 bound_to 7965
  146.1154  139.4164  143.0262 LP  0  0  0  0  0  0  0  0  0  0  0  0  # atno 17321 bound_to 7965
  140.5967  143.2167  151.7150 LP  0  0  0  0  0  0  0  0  0  0  0  0  # atno 17342 bound_to 10162
  139.5017  144.3856  152.0332 LP  0  0  0  0  0  0  0  0  0  0  0  0  # atno 17343 bound_to 10162
  157.2164  130.6461  149.5794 LP  0  0  0  0  0  0  0  0  0  0  0  0  # atno 17370 bound_to 10713
  155.9723  130.4643  150.6214 LP  0  0  0  0  0  0  0  0  0  0  0  0  # atno 17371 bound_to 10713
  141.1790  133.8453  157.1322 LP  0  0  0  0  0  0  0  0  0  0  0  0  # atno 17394 bound_to 11000
  140.0212  134.9945  157.0595 LP  0  0  0  0  0  0  0  0  0  0  0  0  # atno 17395 bound_to 11000

$$$$
