AV-unprocessed.smi:194|AV-procd|sdf|1521|dock2
  -GOLD-   2262019363D 1   1.00000     0.00000
 Structure written by MMmdl.
 53 55  0  0  0  0  0  0  0  0  1 V2000
  152.9323  142.7027  161.7307 C   0  0  0  0  0  0  0  0  0  0  0  0
  152.8149  141.6065  160.6423 C   0  0  1  0  0  0  0  0  0  0  0  0
  152.6407  142.2557  159.2479 C   0  0  0  0  0  0  0  0  0  0  0  0
  153.1537  144.0389  159.3257 S   0  0  1  0  0  0  0  0  0  0  0  0
  152.8505  144.4272  157.5387 C   0  0  0  0  0  0  0  0  0  0  0  0
  152.0787  144.7738  160.1283 O   0  0  0  0  0  0  0  0  0  0  0  0
  153.9668  140.6883  160.6592 N   0  0  0  0  0  0  0  0  0  0  0  0
  155.2027  141.1395  160.0249 C   0  0  0  0  0  0  0  0  0  0  0  0
  153.7025  139.4119  160.2994 C   0  0  0  0  0  0  0  0  0  0  0  0
  153.7674  138.4657  161.2681 N   0  0  0  0  0  0  0  0  0  0  0  0
  153.5082  137.1890  160.9699 C   0  0  0  0  0  0  0  0  0  0  0  0
  153.1786  136.6567  159.7908 N   0  0  0  0  0  0  0  0  0  0  0  0
  153.1274  137.6058  158.8119 C   0  0  0  0  0  0  0  0  0  0  0  0
  153.3692  138.9981  158.9790 C   0  0  0  0  0  0  0  0  0  0  0  0
  153.2130  139.6576  157.7666 N   0  0  0  0  0  0  0  0  0  0  0  0
  152.8895  138.7092  156.9310 C   0  0  0  0  0  0  0  0  0  0  0  0
  152.8340  137.4420  157.4684 N   0  0  0  0  0  0  0  0  0  0  0  0
  152.4923  136.2140  156.7648 C   0  0  0  0  0  0  0  0  0  0  0  0
  151.3436  136.3255  155.7162 C   0  0  0  0  0  0  0  0  0  0  0  0
  151.7438  137.2782  154.5494 C   0  0  0  0  0  0  0  0  0  0  0  0
  152.8941  136.8615  153.8419 O   0  0  0  0  0  0  0  0  0  0  0  0
  150.9209  134.9263  155.1985 C   0  0  0  0  0  0  0  0  0  0  0  0
  149.5935  134.9581  154.4219 C   0  0  0  0  0  0  0  0  0  0  0  0
  148.5646  135.4817  155.2515 O   0  0  0  0  0  0  0  0  0  0  0  0
  148.8067  136.8251  155.6477 C   0  0  0  0  0  0  0  0  0  0  0  0
  150.1155  136.9148  156.4573 C   0  0  0  0  0  0  0  0  0  0  0  0
  152.0897  143.3927  161.7088 H   0  0  0  0  0  0  0  0  0  0  0  0
  153.8414  143.2907  161.6000 H   0  0  0  0  0  0  0  0  0  0  0  0
  152.9504  142.2837  162.7369 H   0  0  0  0  0  0  0  0  0  0  0  0
  151.9223  141.0138  160.8461 H   0  0  0  0  0  0  0  0  0  0  0  0
  153.2241  141.7289  158.4922 H   0  0  0  0  0  0  0  0  0  0  0  0
  151.6007  142.2451  158.9237 H   0  0  0  0  0  0  0  0  0  0  0  0
  153.4490  143.7776  156.9000 H   0  0  0  0  0  0  0  0  0  0  0  0
  153.1190  145.4625  157.3291 H   0  0  0  0  0  0  0  0  0  0  0  0
  151.7982  144.2861  157.2923 H   0  0  0  0  0  0  0  0  0  0  0  0
  155.8699  140.3102  159.7822 H   0  0  0  0  0  0  0  0  0  0  0  0
  155.7482  141.8039  160.6950 H   0  0  0  0  0  0  0  0  0  0  0  0
  154.9884  141.6813  159.1031 H   0  0  0  0  0  0  0  0  0  0  0  0
  153.5737  136.4943  161.7943 H   0  0  0  0  0  0  0  0  0  0  0  0
  152.6926  138.9068  155.8874 H   0  0  0  0  0  0  0  0  0  0  0  0
  153.4032  135.8540  156.2844 H   0  0  0  0  0  0  0  0  0  0  0  0
  152.2386  135.4612  157.5125 H   0  0  0  0  0  0  0  0  0  0  0  0
  150.9476  137.3639  153.8127 H   0  0  0  0  0  0  0  0  0  0  0  0
  151.9147  138.2870  154.9267 H   0  0  0  0  0  0  0  0  0  0  0  0
  152.6994  136.8705  152.9171 H   0  0  0  0  0  0  0  0  0  0  0  0
  151.6987  134.4820  154.5774 H   0  0  0  0  0  0  0  0  0  0  0  0
  150.7963  134.2521  156.0468 H   0  0  0  0  0  0  0  0  0  0  0  0
  149.6796  135.5436  153.5058 H   0  0  0  0  0  0  0  0  0  0  0  0
  149.3161  133.9473  154.1225 H   0  0  0  0  0  0  0  0  0  0  0  0
  148.8222  137.4770  154.7744 H   0  0  0  0  0  0  0  0  0  0  0  0
  147.9709  137.1593  156.2625 H   0  0  0  0  0  0  0  0  0  0  0  0
  149.9604  136.3739  157.3921 H   0  0  0  0  0  0  0  0  0  0  0  0
  150.3035  137.9514  156.7401 H   0  0  0  0  0  0  0  0  0  0  0  0
  1  2  1  0  0  0  0
  1 27  1  0  0  0  0
  1 28  1  0  0  0  0
  1 29  1  0  0  0  0
  2  3  1  0  0  0  0
  2  7  1  0  0  0  0
  2 30  1  0  0  0  0
  3  4  1  0  0  0  0
  3 31  1  0  0  0  0
  3 32  1  0  0  0  0
  4  5  1  0  0  0  0
  4  6  2  0  0  0  0
  5 33  1  0  0  0  0
  5 34  1  0  0  0  0
  5 35  1  0  0  0  0
  7  8  1  0  0  0  0
  7  9  1  0  0  0  0
  8 36  1  0  0  0  0
  8 37  1  0  0  0  0
  8 38  1  0  0  0  0
  9 14  1  0  0  0  0
  9 10  2  0  0  0  0
 10 11  1  0  0  0  0
 11 12  2  0  0  0  0
 11 39  1  0  0  0  0
 12 13  1  0  0  0  0
 13 17  1  0  0  0  0
 13 14  2  0  0  0  0
 14 15  1  0  0  0  0
 15 16  2  0  0  0  0
 16 17  1  0  0  0  0
 16 40  1  0  0  0  0
 17 18  1  0  0  0  0
 18 19  1  0  0  0  0
 18 41  1  0  0  0  0
 18 42  1  0  0  0  0
 19 26  1  0  0  0  0
 19 20  1  0  0  0  0
 19 22  1  0  0  0  0
 20 21  1  0  0  0  0
 20 43  1  0  0  0  0
 20 44  1  0  0  0  0
 21 45  1  0  0  0  0
 22 23  1  0  0  0  0
 22 46  1  0  0  0  0
 22 47  1  0  0  0  0
 23 24  1  0  0  0  0
 23 48  1  0  0  0  0
 23 49  1  0  0  0  0
 24 25  1  0  0  0  0
 25 26  1  0  0  0  0
 25 50  1  0  0  0  0
 25 51  1  0  0  0  0
 26 52  1  0  0  0  0
 26 53  1  0  0  0  0
M  END
> <s_m_source_file>
AV-unprocessed.smi

> <i_m_source_file_index>
194

> <i_lp_mmshare_version>
43012

> <i_f3d_flags>
0

> <s_epik_input>
W0NIM11bU0BAXSg9TylbQ0gyXVtDQEBIXShbQ0gzXSlOKFtDSDNdKWMobltjSF1uMSljKGMxMiluW2NIXW4yW0NIMl1DMyhbQ0gyXVtPSF0pW0NIMl1bQ0gyXU9bQ0gyXVtDSDJdMw==

> <s_epik_cmdline>
J2VwaWtfcHl0aG9uJywgJy1waCcsICc3LjAnLCAnLXRuJywgJzgnLCAnLW1hJywgJzIwMCcsICctbWV0YWxfYmluZGluZycsICctaW1hZScsICc8aW5maWxlLm1hZT4nLCAnLW9tYWUnLCAnPG91dGZpbGUubWFlPic=

> <r_lp_tautomer_probability>
1

> <r_epik_Ionization_Penalty>
0.00101625

> <r_epik_Ionization_Penalty_Charging>
0

> <r_epik_Ionization_Penalty_Neutral>
0.00101625

> <r_epik_State_Penalty>
0.000568005

> <r_epik_Charging_Adjusted_Penalty>
0.000568005

> <i_epik_Tot_Q>
0

> <i_epik_Tot_abs_Q>
0

> <r_epik_Metal_State_Penalty>
-0

> <b_epik_Metal_Only>
0

> <s_lp_Force_Field>
OPLS_2005

> <r_lp_Energy>
31.1686

> <b_lp_Chiralities_Consistent>
1

> <s_lp_Variant>
AV-unprocessed.smi:194-2

> <Gold.Version>
5.8.1

> <Gold.Id.Protein>
6NUR|6NUR_protein|mol2

> <Gold.PLP.Fitness>
51.3678

> <Gold.PLP.PLP>
-42.0905

> <Gold.PLP.part.hbond>
-3.9502

> <Gold.PLP.part.metal>
0.0000

> <Gold.PLP.part.buried>
-7.4487

> <Gold.PLP.part.nonpolar>
-31.0702

> <Gold.PLP.part.repulsive>
0.1572

> <Gold.PLP.ligand.clash>
0.0000

> <Gold.PLP.ligand.torsion>
1.6688

> <Gold.PLP.Chemscore.Hbond>
3.9920

> <Gold.PLP.Chemscore.CHOScore>
0.0000

> <Gold.PLP.Chemscore.Metal>
0.0000

> <Gold.Chemscore.Hbonds>
donor molecule, donor type, donor heavy atom, donor atom, acceptor molecule, acceptor atom, score
      L1  H    21    45       P1  7949  0.34
      P1  H  6896  6909       L1    12  1.00
      P1  H  7997  8009       L1    15  0.80
      P1  H 10752 10765       L1    21  0.09

> <Gold.PLP.Chemscore.Internal.Correction>
0.6388

> <Gold.Rescore>
     Score         DG    S(hbond)    S(metal)    S(lipo)     H(rot)  DE(clash)    DE(int)     intcor
     11.60     -15.90       2.61        0.00      86.95       3.31       0.21       4.09       ----

> <Gold.Chemscore.Fitness>
11.6036

> <Gold.Chemscore.DG>
-15.8980

> <Gold.Chemscore.ZeroCoef>
-5.4800

> <Gold.Chemscore.Hbond>
2.6102

> <Gold.Chemscore.Metal>
0.0000

> <Gold.Chemscore.Lipo>
86.9472

> <Gold.Chemscore.Internal_Hbond>
0.0000

> <Gold.Chemscore.DEClash>
0.2091

> <Gold.Chemscore.DEInternal>
4.0853

> <Gold.Chemscore.Rot>
3.3098

> <Gold.Chemscore.Internal.Correction>
   9.000000E+99

> <Gold.Chemscore.Hbonds>
donor molecule, donor type, donor heavy atom, donor atom, acceptor molecule, acceptor atom, score
      L1  H    21    45       P1  7949  0.34
      P1  H  6896  6909       L1    12  0.72
      P1  H  7997  8009       L1    15  0.10
      P1  H 10752 10765       L1    21  0.02

> <Gold.Chemscore.Hbond.Weighted>
-8.7181

> <Gold.Chemscore.Metal.Weighted>
-0.0000

> <Gold.Chemscore.Lipo.Weighted>
-10.1728

> <Gold.Chemscore.Internal_Hbond.Weighted>
0.0000

> <Gold.Chemscore.DEClash.Weighted>
0.2091

> <Gold.Chemscore.DEInternal.Weighted>
4.0853

> <Gold.Chemscore.Rot.Weighted>
8.4730

> <Gold.Chemscore.Internal.Correction.Weighted>
   9.000000E+99

> <Gold.Protein.RotatedTorsions>
[ 6907 6896 6895 6894 ] final  156.40 input  -60.11 | X-H torsion
[ 7974 7965 7964 7962 ] final   14.97 input  175.53 | X-H torsion
[ 8008 7997 7996 7995 ] final  152.76 input   59.86 | X-H torsion
[ 10167 10162 10161 10158 ] final  -17.11 input  -65.29 | X-H torsion
[ 10718 10713 10712 10709 ] final  -67.34 input   66.30 | X-H torsion
[ 10763 10752 10751 10750 ] final  155.21 input  -60.55 | X-H torsion
[ 11005 11000 10999 10996 ] final -110.31 input  -57.11 | X-H torsion

> <Gold.Protein.ActiveResidues>
 VAL166  LYS551  ARG553  GLY616  TRP617  ASP618  TYR619  PRO620  LYS621  CYS622 
 ASP623  PHE694  ASN695  SER759  ASP760  ASP761  ALA762  ILE779  LEU786  VAL792 
 PHE793  MET794  SER795  GLU796  ALA797  LYS798  CYS799  TRP800  GLU811  SER814 

> <Gold.Protein.RotatedAtoms>
  152.0302  133.3934  159.4293 H   0  0  0  0  0  0  0  0  0  0  0  0  # atno 6907 bound_to 6896
  150.6883  134.3529  159.4926 H   0  0  0  0  0  0  0  0  0  0  0  0  # atno 6908 bound_to 6896
  152.1314  134.9131  160.0609 H   0  0  0  0  0  0  0  0  0  0  0  0  # atno 6909 bound_to 6896
  146.2291  139.8963  142.8546 H   0  0  0  0  0  0  0  0  0  0  0  0  # atno 7974 bound_to 7965
  156.2614  140.2012  156.6384 H   0  0  0  0  0  0  0  0  0  0  0  0  # atno 8008 bound_to 7997
  154.6628  140.0559  157.0105 H   0  0  0  0  0  0  0  0  0  0  0  0  # atno 8009 bound_to 7997
  155.1251  140.3228  155.4490 H   0  0  0  0  0  0  0  0  0  0  0  0  # atno 8010 bound_to 7997
  140.7243  143.5049  150.9823 H   0  0  0  0  0  0  0  0  0  0  0  0  # atno 10167 bound_to 10162
  156.0563  130.4276  150.1840 H   0  0  0  0  0  0  0  0  0  0  0  0  # atno 10718 bound_to 10713
  154.1647  135.2808  155.3098 H   0  0  0  0  0  0  0  0  0  0  0  0  # atno 10763 bound_to 10752
  154.6120  135.5495  153.7487 H   0  0  0  0  0  0  0  0  0  0  0  0  # atno 10764 bound_to 10752
  153.0182  135.6418  154.1788 H   0  0  0  0  0  0  0  0  0  0  0  0  # atno 10765 bound_to 10752
  141.0799  133.9237  157.2311 H   0  0  0  0  0  0  0  0  0  0  0  0  # atno 11005 bound_to 11000
  145.2367  140.9994  143.3959 LP  0  0  0  0  0  0  0  0  0  0  0  0  # atno 17320 bound_to 7965
  144.9485  139.4109  143.6414 LP  0  0  0  0  0  0  0  0  0  0  0  0  # atno 17321 bound_to 7965
  139.8760  143.7132  152.3162 LP  0  0  0  0  0  0  0  0  0  0  0  0  # atno 17342 bound_to 10162
  139.7398  144.7562  151.0671 LP  0  0  0  0  0  0  0  0  0  0  0  0  # atno 17343 bound_to 10162
  156.9916  130.9895  151.3413 LP  0  0  0  0  0  0  0  0  0  0  0  0  # atno 17370 bound_to 10713
  157.5535  130.8198  149.8175 LP  0  0  0  0  0  0  0  0  0  0  0  0  # atno 17371 bound_to 10713
  139.9612  135.0153  156.9267 LP  0  0  0  0  0  0  0  0  0  0  0  0  # atno 17394 bound_to 11000
  140.5491  134.0644  155.7364 LP  0  0  0  0  0  0  0  0  0  0  0  0  # atno 17395 bound_to 11000

$$$$
