AV-unprocessed.smi:83|AV-procd|sdf|801|dock10
  -GOLD-   2262017183D 1   1.00000     0.00000
 Structure written by MMmdl.
 56 59  0  0  0  0  0  0  0  0  1 V2000
  152.5225  144.4310  162.1591 C   0  0  0  0  0  0  0  0  0  0  0  0
  152.1005  143.2126  161.3362 C   0  0  0  0  0  0  0  0  0  0  0  0
  151.9789  142.1245  161.8990 O   0  0  0  0  0  0  0  0  0  0  0  0
  151.8782  143.3762  160.0166 N   0  0  0  0  0  0  0  0  0  0  0  0
  151.9948  144.6345  159.2815 C   0  0  0  0  0  0  0  0  0  0  0  0
  151.4581  144.3406  157.8792 C   0  0  0  0  0  0  0  0  0  0  0  0
  151.6820  142.8427  157.7017 C   0  0  2  0  0  0  0  0  0  0  0  0
  150.7852  142.2003  156.6253 C   0  0  0  0  0  0  0  0  0  0  0  0
  151.2221  140.8522  156.2568 N   0  0  0  0  0  0  0  0  0  0  0  0
  152.2272  140.2019  157.0876 C   0  0  0  0  0  0  0  0  0  0  0  0
  150.4286  140.0986  155.4468 C   0  0  0  0  0  0  0  0  0  0  0  0
  150.8075  138.8169  155.1981 N   0  0  0  0  0  0  0  0  0  0  0  0
  150.0747  138.0284  154.4079 C   0  0  0  0  0  0  0  0  0  0  0  0
  148.9409  138.3130  153.7677 N   0  0  0  0  0  0  0  0  0  0  0  0
  148.5515  139.5975  154.0040 C   0  0  0  0  0  0  0  0  0  0  0  0
  149.2244  140.5502  154.8243 C   0  0  0  0  0  0  0  0  0  0  0  0
  148.5221  141.7519  154.8055 N   0  0  0  0  0  0  0  0  0  0  0  0
  147.4983  141.5211  154.0312 C   0  0  0  0  0  0  0  0  0  0  0  0
  147.4374  140.2512  153.5082 N   0  0  0  0  0  0  0  0  0  0  0  0
  146.4127  139.7302  152.6206 C   0  0  0  0  0  0  0  0  0  0  0  0
  146.6248  138.2402  152.2918 C   0  0  2  0  0  0  0  0  0  0  0  0
  146.4553  138.0058  150.9064 O   0  0  0  0  0  0  0  0  0  0  0  0
  145.7151  137.3107  153.1209 C   0  0  2  0  0  0  0  0  0  0  0  0
  146.0997  135.8296  153.1565 C   0  0  0  0  0  0  0  0  0  0  0  0
  144.7797  135.1953  153.5342 C   0  0  0  0  0  0  0  0  0  0  0  0
  143.7852  136.0530  152.7546 C   0  0  0  0  0  0  0  0  0  0  0  0
  144.3579  137.3568  152.6872 O   0  0  0  0  0  0  0  0  0  0  0  0
  151.4859  142.2931  159.1194 C   0  0  0  0  0  0  0  0  0  0  0  0
  153.4294  144.8784  161.7518 H   0  0  0  0  0  0  0  0  0  0  0  0
  152.7238  144.1466  163.1924 H   0  0  0  0  0  0  0  0  0  0  0  0
  151.7331  145.1828  162.1659 H   0  0  0  0  0  0  0  0  0  0  0  0
  151.4350  145.4428  159.7540 H   0  0  0  0  0  0  0  0  0  0  0  0
  153.0451  144.9257  159.2349 H   0  0  0  0  0  0  0  0  0  0  0  0
  150.3909  144.5645  157.8444 H   0  0  0  0  0  0  0  0  0  0  0  0
  151.9489  144.9351  157.1082 H   0  0  0  0  0  0  0  0  0  0  0  0
  152.7285  142.7018  157.4261 H   0  0  0  0  0  0  0  0  0  0  0  0
  149.7435  142.2137  156.9457 H   0  0  0  0  0  0  0  0  0  0  0  0
  150.8157  142.8162  155.7260 H   0  0  0  0  0  0  0  0  0  0  0  0
  152.7748  139.4479  156.5211 H   0  0  0  0  0  0  0  0  0  0  0  0
  151.7650  139.7267  157.9532 H   0  0  0  0  0  0  0  0  0  0  0  0
  152.9518  140.9307  157.4516 H   0  0  0  0  0  0  0  0  0  0  0  0
  150.4522  137.0262  154.2679 H   0  0  0  0  0  0  0  0  0  0  0  0
  146.7549  142.2757  153.8179 H   0  0  0  0  0  0  0  0  0  0  0  0
  145.4441  139.8744  153.1009 H   0  0  0  0  0  0  0  0  0  0  0  0
  146.3992  140.3288  151.7087 H   0  0  0  0  0  0  0  0  0  0  0  0
  147.6589  137.9809  152.5227 H   0  0  0  0  0  0  0  0  0  0  0  0
  145.6877  138.4734  150.6148 H   0  0  0  0  0  0  0  0  0  0  0  0
  145.7078  137.6741  154.1501 H   0  0  0  0  0  0  0  0  0  0  0  0
  146.4093  135.4691  152.1747 H   0  0  0  0  0  0  0  0  0  0  0  0
  146.8982  135.6145  153.8671 H   0  0  0  0  0  0  0  0  0  0  0  0
  144.7223  134.1368  153.2789 H   0  0  0  0  0  0  0  0  0  0  0  0
  144.6068  135.2994  154.6064 H   0  0  0  0  0  0  0  0  0  0  0  0
  143.6720  135.6732  151.7384 H   0  0  0  0  0  0  0  0  0  0  0  0
  142.7992  136.0740  153.2195 H   0  0  0  0  0  0  0  0  0  0  0  0
  152.0795  141.3914  159.2796 H   0  0  0  0  0  0  0  0  0  0  0  0
  150.4394  142.0477  159.3055 H   0  0  0  0  0  0  0  0  0  0  0  0
  1  2  1  0  0  0  0
  1 29  1  0  0  0  0
  1 30  1  0  0  0  0
  1 31  1  0  0  0  0
  2  3  2  0  0  0  0
  2  4  1  0  0  0  0
  4 28  1  0  0  0  0
  4  5  1  0  0  0  0
  5  6  1  0  0  0  0
  5 32  1  0  0  0  0
  5 33  1  0  0  0  0
  6  7  1  0  0  0  0
  6 34  1  0  0  0  0
  6 35  1  0  0  0  0
  7  8  1  0  0  0  0
  7 28  1  0  0  0  0
  7 36  1  0  0  0  0
  8  9  1  0  0  0  0
  8 37  1  0  0  0  0
  8 38  1  0  0  0  0
  9 10  1  0  0  0  0
  9 11  1  0  0  0  0
 10 39  1  0  0  0  0
 10 40  1  0  0  0  0
 10 41  1  0  0  0  0
 11 16  1  0  0  0  0
 11 12  2  0  0  0  0
 12 13  1  0  0  0  0
 13 14  2  0  0  0  0
 13 42  1  0  0  0  0
 14 15  1  0  0  0  0
 15 19  1  0  0  0  0
 15 16  2  0  0  0  0
 16 17  1  0  0  0  0
 17 18  2  0  0  0  0
 18 19  1  0  0  0  0
 18 43  1  0  0  0  0
 19 20  1  0  0  0  0
 20 21  1  0  0  0  0
 20 44  1  0  0  0  0
 20 45  1  0  0  0  0
 21 22  1  0  0  0  0
 21 23  1  0  0  0  0
 21 46  1  0  0  0  0
 22 47  1  0  0  0  0
 23 27  1  0  0  0  0
 23 24  1  0  0  0  0
 23 48  1  0  0  0  0
 24 25  1  0  0  0  0
 24 49  1  0  0  0  0
 24 50  1  0  0  0  0
 25 26  1  0  0  0  0
 25 51  1  0  0  0  0
 25 52  1  0  0  0  0
 26 27  1  0  0  0  0
 26 53  1  0  0  0  0
 26 54  1  0  0  0  0
 28 55  1  0  0  0  0
 28 56  1  0  0  0  0
M  END
> <s_m_source_file>
AV-unprocessed.smi

> <i_m_source_file_index>
83

> <i_lp_mmshare_version>
43012

> <i_f3d_flags>
0

> <s_epik_input>
W0NIM11DKD1PKU4xW0NIMl1bQ0gyXVtDQEhdKFtDSDJdMSlbQ0gyXU4oW0NIM10pYyhuW2NIXW4yKWMoYzIzKW5bY0hdbjNbQ0gyXVtDQEhdKFtPSF0pW0NAQEhdNFtDSDJdW0NIMl1bQ0gyXU80

> <s_epik_cmdline>
J2VwaWtfcHl0aG9uJywgJy1waCcsICc3LjAnLCAnLXRuJywgJzgnLCAnLW1hJywgJzIwMCcsICctbWV0YWxfYmluZGluZycsICctaW1hZScsICc8aW5maWxlLm1hZT4nLCAnLW9tYWUnLCAnPG91dGZpbGUubWFlPic=

> <r_lp_tautomer_probability>
1

> <r_epik_Ionization_Penalty>
0.00109752

> <r_epik_Ionization_Penalty_Charging>
0

> <r_epik_Ionization_Penalty_Neutral>
0.00109752

> <r_epik_State_Penalty>
0.000634803

> <r_epik_Charging_Adjusted_Penalty>
0.000634803

> <i_epik_Tot_Q>
0

> <i_epik_Tot_abs_Q>
0

> <r_epik_Metal_State_Penalty>
-0

> <b_epik_Metal_Only>
0

> <s_lp_Force_Field>
OPLS_2005

> <r_lp_Energy>
56.4298

> <b_lp_Chiralities_Consistent>
1

> <s_lp_Variant>
AV-unprocessed.smi:83-2

> <Gold.Version>
5.8.1

> <Gold.Id.Protein>
6NUR|6NUR_protein|mol2

> <Gold.PLP.Fitness>
54.2571

> <Gold.PLP.PLP>
-47.4509

> <Gold.PLP.part.hbond>
-3.6054

> <Gold.PLP.part.metal>
0.0000

> <Gold.PLP.part.buried>
0.1804

> <Gold.PLP.part.nonpolar>
-48.0762

> <Gold.PLP.part.repulsive>
5.0278

> <Gold.PLP.ligand.clash>
0.0963

> <Gold.PLP.ligand.torsion>
1.0222

> <Gold.PLP.Chemscore.Hbond>
2.8320

> <Gold.PLP.Chemscore.CHOScore>
0.0169

> <Gold.PLP.Chemscore.Metal>
0.0000

> <Gold.Chemscore.Hbonds>
donor molecule, donor type, donor heavy atom, donor atom, acceptor molecule, acceptor atom, score
      L1  H    22    47       P1 10171  1.00
      P1  H  6933  6945       L1     3  0.86
      P1  H  7954  7966       L1    22  1.00
      L1  C    13    42       P1  7948  0.03

> <Gold.PLP.Chemscore.Internal.Correction>
0.4003

> <Gold.Rescore>
     Score         DG    S(hbond)    S(metal)    S(lipo)     H(rot)  DE(clash)    DE(int)     intcor
     10.96     -19.81       2.57        0.00     106.31       2.62       5.06       3.79       ----

> <Gold.Chemscore.Fitness>
10.9587

> <Gold.Chemscore.DG>
-19.8092

> <Gold.Chemscore.ZeroCoef>
-5.4800

> <Gold.Chemscore.Hbond>
2.5707

> <Gold.Chemscore.Metal>
0.0000

> <Gold.Chemscore.Lipo>
106.3079

> <Gold.Chemscore.Internal_Hbond>
0.0000

> <Gold.Chemscore.DEClash>
5.0617

> <Gold.Chemscore.DEInternal>
3.7887

> <Gold.Chemscore.Rot>
2.6152

> <Gold.Chemscore.Internal.Correction>
   9.000000E+99

> <Gold.Chemscore.Hbonds>
donor molecule, donor type, donor heavy atom, donor atom, acceptor molecule, acceptor atom, score
      L1  H    22    47       P1 10171  0.95
      P1  H  6933  6945       L1     3  0.61
      P1  H  7954  7966       L1    22  0.84

> <Gold.Chemscore.Hbond.Weighted>
-8.5860

> <Gold.Chemscore.Metal.Weighted>
-0.0000

> <Gold.Chemscore.Lipo.Weighted>
-12.4380

> <Gold.Chemscore.Internal_Hbond.Weighted>
0.0000

> <Gold.Chemscore.DEClash.Weighted>
5.0617

> <Gold.Chemscore.DEInternal.Weighted>
3.7887

> <Gold.Chemscore.Rot.Weighted>
6.6949

> <Gold.Chemscore.Internal.Correction.Weighted>
   9.000000E+99

> <Gold.Protein.RotatedTorsions>
[ 6907 6896 6895 6894 ] final   68.22 input  -60.11 | X-H torsion
[ 7974 7965 7964 7962 ] final  114.63 input  175.53 | X-H torsion
[ 8008 7997 7996 7995 ] final  -89.58 input   59.86 | X-H torsion
[ 10167 10162 10161 10158 ] final  128.61 input  -65.29 | X-H torsion
[ 10718 10713 10712 10709 ] final  -62.04 input   66.30 | X-H torsion
[ 10763 10752 10751 10750 ] final  -93.44 input  -60.55 | X-H torsion
[ 11005 11000 10999 10996 ] final    7.50 input  -57.11 | X-H torsion

> <Gold.Protein.ActiveResidues>
 VAL166  LYS551  ARG553  GLY616  TRP617  ASP618  TYR619  PRO620  LYS621  CYS622 
 ASP623  PHE694  ASN695  SER759  ASP760  ASP761  ALA762  ILE779  LEU786  VAL792 
 PHE793  MET794  SER795  GLU796  ALA797  LYS798  CYS799  TRP800  GLU811  SER814 

> <Gold.Protein.RotatedAtoms>
  152.4606  134.5193  159.9777 H   0  0  0  0  0  0  0  0  0  0  0  0  # atno 6907 bound_to 6896
  151.5243  133.3455  159.2915 H   0  0  0  0  0  0  0  0  0  0  0  0  # atno 6908 bound_to 6896
  150.8567  134.7938  159.7113 H   0  0  0  0  0  0  0  0  0  0  0  0  # atno 6909 bound_to 6896
  145.2020  139.2948  143.4313 H   0  0  0  0  0  0  0  0  0  0  0  0  # atno 7974 bound_to 7965
  154.6883  140.0540  157.0337 H   0  0  0  0  0  0  0  0  0  0  0  0  # atno 8008 bound_to 7997
  155.0854  140.3214  155.4570 H   0  0  0  0  0  0  0  0  0  0  0  0  # atno 8009 bound_to 7997
  156.2719  140.2057  156.5981 H   0  0  0  0  0  0  0  0  0  0  0  0  # atno 8010 bound_to 7997
  139.5518  144.6819  151.4300 H   0  0  0  0  0  0  0  0  0  0  0  0  # atno 10167 bound_to 10162
  156.0881  130.4205  150.1079 H   0  0  0  0  0  0  0  0  0  0  0  0  # atno 10718 bound_to 10713
  154.6959  135.5194  153.8458 H   0  0  0  0  0  0  0  0  0  0  0  0  # atno 10763 bound_to 10752
  153.0667  135.6587  154.0348 H   0  0  0  0  0  0  0  0  0  0  0  0  # atno 10764 bound_to 10752
  154.0215  135.2993  155.3360 H   0  0  0  0  0  0  0  0  0  0  0  0  # atno 10765 bound_to 10752
  140.5475  134.0315  155.7925 H   0  0  0  0  0  0  0  0  0  0  0  0  # atno 11005 bound_to 11000
  146.3415  140.2268  142.8592 LP  0  0  0  0  0  0  0  0  0  0  0  0  # atno 17320 bound_to 7965
  144.9939  140.8571  143.5323 LP  0  0  0  0  0  0  0  0  0  0  0  0  # atno 17321 bound_to 7965
  140.6783  143.8140  150.7087 LP  0  0  0  0  0  0  0  0  0  0  0  0  # atno 17342 bound_to 10162
  140.1586  143.4295  152.2083 LP  0  0  0  0  0  0  0  0  0  0  0  0  # atno 17343 bound_to 10162
  156.9095  130.9647  151.3565 LP  0  0  0  0  0  0  0  0  0  0  0  0  # atno 17370 bound_to 10713
  157.6022  130.8521  149.8820 LP  0  0  0  0  0  0  0  0  0  0  0  0  # atno 17371 bound_to 10713
  141.1191  133.9491  157.2765 LP  0  0  0  0  0  0  0  0  0  0  0  0  # atno 17394 bound_to 11000
  139.9472  135.0182  156.8887 LP  0  0  0  0  0  0  0  0  0  0  0  0  # atno 17395 bound_to 11000

$$$$
