AV-unprocessed.smi:672|AV-procd|sdf|3293|dock10
  -GOLD-   22720 0253D 1   1.00000     0.00000
 Structure written by MMmdl.
 35 36  0  0  0  0  0  0  0  0  2 V2000
  145.2949  134.3365  162.6670 C   0  0  0  0  0  0  0  0  0  0  0  0
  146.8223  134.4503  162.6208 C   0  0  0  0  0  0  0  0  0  0  0  0
  147.2898  135.4886  161.6564 C   0  0  0  0  0  0  0  0  0  0  0  0
  147.8398  136.6425  162.0437 N   0  0  0  0  0  0  0  0  0  0  0  0
  148.1644  137.4543  160.9665 N   0  0  0  0  0  0  0  0  0  0  0  0
  147.8331  136.9163  159.7842 C   0  0  0  0  0  0  0  0  0  0  0  0
  148.0605  137.5426  158.6180 N   0  5  0  0  0  0  0  0  0  0  0  0
  149.3278  137.8271  158.2407 C   0  0  0  0  0  0  0  0  0  0  0  0
  150.3218  137.1210  158.4266 O   0  0  0  0  0  0  0  0  0  0  0  0
  149.4530  139.0052  157.6132 N   0  0  0  0  0  0  0  0  0  0  0  0
  150.6978  139.5708  157.0971 C   0  0  2  0  0  0  0  0  0  0  0  0
  151.8118  139.5806  158.1655 C   0  0  0  0  0  0  0  0  0  0  0  0
  152.3584  141.0090  158.1993 C   0  0  0  0  0  0  0  0  0  0  0  0
  151.1769  141.8761  157.7673 C   0  0  1  0  0  0  0  0  0  0  0  0
  151.6729  143.5182  157.1700 S   0  0  0  0  0  0  0  0  0  0  0  0
  152.7163  144.0606  158.5491 C   0  0  0  0  0  0  0  0  0  0  0  0
  150.4919  141.0390  156.6850 C   0  0  0  0  0  0  0  0  0  0  0  0
  147.0987  135.3189  159.9196 S   0  0  0  0  0  0  0  0  0  0  0  0
  144.9835  133.5688  163.3753 H   0  0  0  0  0  0  0  0  0  0  0  0
  144.8909  134.0725  161.6893 H   0  0  0  0  0  0  0  0  0  0  0  0
  144.8402  135.2788  162.9741 H   0  0  0  0  0  0  0  0  0  0  0  0
  147.2086  134.6893  163.6123 H   0  0  0  0  0  0  0  0  0  0  0  0
  147.2577  133.4913  162.3390 H   0  0  0  0  0  0  0  0  0  0  0  0
  148.6139  139.5509  157.4817 H   0  0  0  0  0  0  0  0  0  0  0  0
  151.0146  139.0001  156.2222 H   0  0  0  0  0  0  0  0  0  0  0  0
  151.4062  139.3316  159.1475 H   0  0  0  0  0  0  0  0  0  0  0  0
  152.5932  138.8518  157.9482 H   0  0  0  0  0  0  0  0  0  0  0  0
  152.7452  141.2807  159.1816 H   0  0  0  0  0  0  0  0  0  0  0  0
  153.1740  141.1044  157.4812 H   0  0  0  0  0  0  0  0  0  0  0  0
  150.4900  141.9958  158.6064 H   0  0  0  0  0  0  0  0  0  0  0  0
  153.0801  145.0720  158.3682 H   0  0  0  0  0  0  0  0  0  0  0  0
  153.5767  143.4016  158.6629 H   0  0  0  0  0  0  0  0  0  0  0  0
  152.1490  144.0586  159.4800 H   0  0  0  0  0  0  0  0  0  0  0  0
  150.9830  141.2079  155.7256 H   0  0  0  0  0  0  0  0  0  0  0  0
  149.4428  141.3092  156.5572 H   0  0  0  0  0  0  0  0  0  0  0  0
  1  2  1  0  0  0  0
  1 19  1  0  0  0  0
  1 20  1  0  0  0  0
  1 21  1  0  0  0  0
  2  3  1  0  0  0  0
  2 22  1  0  0  0  0
  2 23  1  0  0  0  0
  3 18  1  0  0  0  0
  3  4  2  0  0  0  0
  4  5  1  0  0  0  0
  5  6  2  0  0  0  0
  6  7  1  0  0  0  0
  6 18  1  0  0  0  0
  7  8  1  0  0  0  0
  8  9  2  0  0  0  0
  8 10  1  0  0  0  0
 10 11  1  0  0  0  0
 10 24  1  0  0  0  0
 11 17  1  0  0  0  0
 11 12  1  0  0  0  0
 11 25  1  0  0  0  0
 12 13  1  0  0  0  0
 12 26  1  0  0  0  0
 12 27  1  0  0  0  0
 13 14  1  0  0  0  0
 13 28  1  0  0  0  0
 13 29  1  0  0  0  0
 14 15  1  0  0  0  0
 14 17  1  0  0  0  0
 14 30  1  0  0  0  0
 15 16  1  0  0  0  0
 16 31  1  0  0  0  0
 16 32  1  0  0  0  0
 16 33  1  0  0  0  0
 17 34  1  0  0  0  0
 17 35  1  0  0  0  0
M  CHG  1   7  -1
M  END
> <s_m_source_file>
AV-unprocessed.smi

> <i_m_source_file_index>
672

> <i_lp_mmshare_version>
43012

> <i_f3d_flags>
0

> <s_epik_input>
W0NIM11bQ0gyXWMxbm5jKHMxKVtOSF1DKD1PKVtOSF1bQ0BASF0yW0NIMl1bQ0gyXVtDQEhdKFtDSDJdMilTW0NIM10=

> <s_epik_cmdline>
J2VwaWtfcHl0aG9uJywgJy1waCcsICc3LjAnLCAnLXRuJywgJzgnLCAnLW1hJywgJzIwMCcsICctbWV0YWxfYmluZGluZycsICctaW1hZScsICc8aW5maWxlLm1hZT4nLCAnLW9tYWUnLCAnPG91dGZpbGUubWFlPic=

> <r_lp_tautomer_probability>
1

> <r_epik_Ionization_Penalty>
4.49964

> <r_epik_Ionization_Penalty_Charging>
4.32991

> <r_epik_Ionization_Penalty_Neutral>
0.169727

> <r_epik_State_Penalty>
4.32952

> <r_epik_Charging_Adjusted_Penalty>
8.65943

> <i_epik_Tot_Q>
-1

> <i_epik_Tot_abs_Q>
1

> <r_epik_Metal_State_Penalty>
0.740482

> <b_epik_Metal_Only>
1

> <s_lp_Force_Field>
OPLS_2005

> <r_lp_Energy>
9.96547

> <b_lp_Chiralities_Consistent>
1

> <s_lp_Variant>
AV-unprocessed.smi:672-5

> <Gold.Version>
5.8.1

> <Gold.Id.Protein>
6NUR|6NUR_protein|mol2

> <Gold.PLP.Fitness>
41.2413

> <Gold.PLP.PLP>
-35.8388

> <Gold.PLP.part.hbond>
-3.1079

> <Gold.PLP.part.metal>
0.0000

> <Gold.PLP.part.buried>
-5.0700

> <Gold.PLP.part.nonpolar>
-28.6206

> <Gold.PLP.part.repulsive>
0.1066

> <Gold.PLP.ligand.clash>
0.0000

> <Gold.PLP.ligand.torsion>
1.0843

> <Gold.PLP.Chemscore.Hbond>
2.5065

> <Gold.PLP.Chemscore.CHOScore>
0.0000

> <Gold.PLP.Chemscore.Metal>
0.0000

> <Gold.Chemscore.Hbonds>
donor molecule, donor type, donor heavy atom, donor atom, acceptor molecule, acceptor atom, score
      P1  H  6931  6943       L1     5  0.34
      P1  H  6934  6947       L1     5  0.59

> <Gold.PLP.Chemscore.Internal.Correction>
0.0515

> <Gold.Rescore>
     Score         DG    S(hbond)    S(metal)    S(lipo)     H(rot)  DE(clash)    DE(int)     intcor
     15.57     -17.80       1.77        0.00      84.22       1.34       0.00       2.23       ----

> <Gold.Chemscore.Fitness>
15.5727

> <Gold.Chemscore.DG>
-17.8020

> <Gold.Chemscore.ZeroCoef>
-5.4800

> <Gold.Chemscore.Hbond>
1.7669

> <Gold.Chemscore.Metal>
0.0000

> <Gold.Chemscore.Lipo>
84.2161

> <Gold.Chemscore.Internal_Hbond>
0.0000

> <Gold.Chemscore.DEClash>
0.0000

> <Gold.Chemscore.DEInternal>
2.2292

> <Gold.Chemscore.Rot>
1.3410

> <Gold.Chemscore.Internal.Correction>
   9.000000E+99

> <Gold.Chemscore.Hbonds>
donor molecule, donor type, donor heavy atom, donor atom, acceptor molecule, acceptor atom, score
      P1  H  6931  6943       L1     5  0.01
      P1  H  6934  6947       L1     5  0.17

> <Gold.Chemscore.Hbond.Weighted>
-5.9016

> <Gold.Chemscore.Metal.Weighted>
-0.0000

> <Gold.Chemscore.Lipo.Weighted>
-9.8533

> <Gold.Chemscore.Internal_Hbond.Weighted>
0.0000

> <Gold.Chemscore.DEClash.Weighted>
0.0000

> <Gold.Chemscore.DEInternal.Weighted>
2.2292

> <Gold.Chemscore.Rot.Weighted>
3.4329

> <Gold.Chemscore.Internal.Correction.Weighted>
   9.000000E+99

> <Gold.Protein.RotatedTorsions>
[ 6907 6896 6895 6894 ] final  -14.02 input  -60.11 | X-H torsion
[ 7974 7965 7964 7962 ] final  142.21 input  175.53 | X-H torsion
[ 8008 7997 7996 7995 ] final  -44.28 input   59.86 | X-H torsion
[ 10167 10162 10161 10158 ] final  -51.77 input  -65.29 | X-H torsion
[ 10718 10713 10712 10709 ] final  -37.65 input   66.30 | X-H torsion
[ 10763 10752 10751 10750 ] final  119.64 input  -60.55 | X-H torsion
[ 11005 11000 10999 10996 ] final  -79.41 input  -57.11 | X-H torsion

> <Gold.Protein.ActiveResidues>
 VAL166  LYS551  ARG553  GLY616  TRP617  ASP618  TYR619  PRO620  LYS621  CYS622 
 ASP623  PHE694  ASN695  SER759  ASP760  ASP761  ALA762  ILE779  LEU786  VAL792 
 PHE793  MET794  SER795  GLU796  ALA797  LYS798  CYS799  TRP800  GLU811  SER814 

> <Gold.Protein.RotatedAtoms>
  151.3458  135.0873  159.9386 H   0  0  0  0  0  0  0  0  0  0  0  0  # atno 6907 bound_to 6896
  152.5200  133.9402  159.7633 H   0  0  0  0  0  0  0  0  0  0  0  0  # atno 6908 bound_to 6896
  150.9767  133.6234  159.2758 H   0  0  0  0  0  0  0  0  0  0  0  0  # atno 6909 bound_to 6896
  144.9028  139.5399  143.5745 H   0  0  0  0  0  0  0  0  0  0  0  0  # atno 7974 bound_to 7965
  154.3997  140.1426  156.3657 H   0  0  0  0  0  0  0  0  0  0  0  0  # atno 8008 bound_to 7997
  155.8140  140.3472  155.5453 H   0  0  0  0  0  0  0  0  0  0  0  0  # atno 8009 bound_to 7997
  155.8357  140.0919  157.1756 H   0  0  0  0  0  0  0  0  0  0  0  0  # atno 8010 bound_to 7997
  140.6571  143.2607  151.4552 H   0  0  0  0  0  0  0  0  0  0  0  0  # atno 10167 bound_to 10162
  156.3128  130.4255  149.8034 H   0  0  0  0  0  0  0  0  0  0  0  0  # atno 10718 bound_to 10713
  153.5862  135.3474  155.2893 H   0  0  0  0  0  0  0  0  0  0  0  0  # atno 10763 bound_to 10752
  154.8660  135.4194  154.2566 H   0  0  0  0  0  0  0  0  0  0  0  0  # atno 10764 bound_to 10752
  153.3363  135.7047  153.6975 H   0  0  0  0  0  0  0  0  0  0  0  0  # atno 10765 bound_to 10752
  141.1667  133.7105  156.8119 H   0  0  0  0  0  0  0  0  0  0  0  0  # atno 11005 bound_to 11000
  146.3117  139.7772  142.9014 LP  0  0  0  0  0  0  0  0  0  0  0  0  # atno 17320 bound_to 7965
  145.3587  141.0321  143.3297 LP  0  0  0  0  0  0  0  0  0  0  0  0  # atno 17321 bound_to 7965
  139.5796  144.1739  152.1951 LP  0  0  0  0  0  0  0  0  0  0  0  0  # atno 17342 bound_to 10162
  140.1060  144.5498  150.6956 LP  0  0  0  0  0  0  0  0  0  0  0  0  # atno 17343 bound_to 10162
  156.5371  130.8283  151.3256 LP  0  0  0  0  0  0  0  0  0  0  0  0  # atno 17370 bound_to 10713
  157.7395  130.9832  150.2316 LP  0  0  0  0  0  0  0  0  0  0  0  0  # atno 17371 bound_to 10713
  140.2181  134.8777  157.3348 LP  0  0  0  0  0  0  0  0  0  0  0  0  # atno 17394 bound_to 11000
  140.2016  134.4248  155.7660 LP  0  0  0  0  0  0  0  0  0  0  0  0  # atno 17395 bound_to 11000

$$$$
