AV-unprocessed.smi:575|AV-procd|sdf|2977|dock1
  -GOLD-   2262023483D 1   1.00000     0.00000
 Structure written by MMmdl.
 33 34  0  0  0  0  0  0  0  0  1 V2000
  155.0783  134.8628  161.6111 C   0  0  0  0  0  0  0  0  0  0  0  0
  154.2735  135.8694  160.8631 C   0  0  0  0  0  0  0  0  0  0  0  0
  153.8241  137.1212  161.1777 C   0  0  0  0  0  0  0  0  0  0  0  0
  153.1200  137.5117  160.0076 C   0  0  0  0  0  0  0  0  0  0  0  0
  152.4853  138.7778  159.9277 N   0  0  0  0  0  0  0  0  0  0  0  0
  153.0203  139.9362  159.5053 C   0  0  0  0  0  0  0  0  0  0  0  0
  154.1832  140.0841  159.1280 O   0  0  0  0  0  0  0  0  0  0  0  0
  152.1227  140.9320  159.5473 N   0  0  0  0  0  0  0  0  0  0  0  0
  152.3805  142.3141  159.1530 C   0  0  0  0  0  0  0  0  0  0  0  0
  152.1460  143.2737  160.3381 C   0  0  0  0  0  0  0  0  0  0  0  0
  152.3483  144.7394  159.9212 C   0  0  0  0  0  0  0  0  0  0  0  0
  151.4537  145.1099  158.7276 C   0  0  0  0  0  0  0  0  0  0  0  0
  151.6843  144.1565  157.5444 C   0  0  0  0  0  0  0  0  0  0  0  0
  151.4806  142.6906  157.9607 C   0  0  0  0  0  0  0  0  0  0  0  0
  153.1373  136.5819  159.0646 N   0  0  0  0  0  0  0  0  0  0  0  0
  153.8764  135.5246  159.6082 O   0  0  0  0  0  0  0  0  0  0  0  0
  155.5297  135.3063  162.4987 H   0  0  0  0  0  0  0  0  0  0  0  0
  155.8794  134.4655  160.9878 H   0  0  0  0  0  0  0  0  0  0  0  0
  154.4520  134.0297  161.9300 H   0  0  0  0  0  0  0  0  0  0  0  0
  153.9764  137.6662  162.0976 H   0  0  0  0  0  0  0  0  0  0  0  0
  151.5194  138.8027  160.2190 H   0  0  0  0  0  0  0  0  0  0  0  0
  151.1905  140.7192  159.8705 H   0  0  0  0  0  0  0  0  0  0  0  0
  153.4200  142.4018  158.8304 H   0  0  0  0  0  0  0  0  0  0  0  0
  151.1342  143.1442  160.7248 H   0  0  0  0  0  0  0  0  0  0  0  0
  152.8229  143.0330  161.1589 H   0  0  0  0  0  0  0  0  0  0  0  0
  152.1359  145.3981  160.7636 H   0  0  0  0  0  0  0  0  0  0  0  0
  153.3943  144.9012  159.6580 H   0  0  0  0  0  0  0  0  0  0  0  0
  150.4064  145.0712  159.0297 H   0  0  0  0  0  0  0  0  0  0  0  0
  151.6493  146.1378  158.4207 H   0  0  0  0  0  0  0  0  0  0  0  0
  151.0081  144.4080  156.7268 H   0  0  0  0  0  0  0  0  0  0  0  0
  152.6964  144.2892  157.1598 H   0  0  0  0  0  0  0  0  0  0  0  0
  151.6905  142.0370  157.1130 H   0  0  0  0  0  0  0  0  0  0  0  0
  150.4332  142.5321  158.2217 H   0  0  0  0  0  0  0  0  0  0  0  0
  1  2  1  0  0  0  0
  1 17  1  0  0  0  0
  1 18  1  0  0  0  0
  1 19  1  0  0  0  0
  2 16  1  0  0  0  0
  2  3  2  0  0  0  0
  3  4  1  0  0  0  0
  3 20  1  0  0  0  0
  4  5  1  0  0  0  0
  4 15  2  0  0  0  0
  5  6  1  0  0  0  0
  5 21  1  0  0  0  0
  6  7  2  0  0  0  0
  6  8  1  0  0  0  0
  8  9  1  0  0  0  0
  8 22  1  0  0  0  0
  9 14  1  0  0  0  0
  9 10  1  0  0  0  0
  9 23  1  0  0  0  0
 10 11  1  0  0  0  0
 10 24  1  0  0  0  0
 10 25  1  0  0  0  0
 11 12  1  0  0  0  0
 11 26  1  0  0  0  0
 11 27  1  0  0  0  0
 12 13  1  0  0  0  0
 12 28  1  0  0  0  0
 12 29  1  0  0  0  0
 13 14  1  0  0  0  0
 13 30  1  0  0  0  0
 13 31  1  0  0  0  0
 14 32  1  0  0  0  0
 14 33  1  0  0  0  0
 15 16  1  0  0  0  0
M  END
> <s_m_source_file>
AV-unprocessed.smi

> <i_m_source_file_index>
575

> <i_lp_mmshare_version>
43012

> <i_f3d_flags>
0

> <s_epik_input>
W0NIM11jMVtjSF1jKG5vMSlbTkhdQyg9TylbTkhdW0NIXTJbQ0gyXVtDSDJdW0NIMl1bQ0gyXVtDSDJdMg==

> <s_epik_cmdline>
J2VwaWtfcHl0aG9uJywgJy1waCcsICc3LjAnLCAnLXRuJywgJzgnLCAnLW1hJywgJzIwMCcsICctbWV0YWxfYmluZGluZycsICctaW1hZScsICc8aW5maWxlLm1hZT4nLCAnLW9tYWUnLCAnPG91dGZpbGUubWFlPic=

> <r_lp_tautomer_probability>
1

> <r_epik_Ionization_Penalty>
2.357e-05

> <r_epik_Ionization_Penalty_Charging>
0

> <r_epik_Ionization_Penalty_Neutral>
2.357e-05

> <r_epik_State_Penalty>
-0

> <r_epik_Charging_Adjusted_Penalty>
0

> <i_epik_Tot_Q>
0

> <i_epik_Tot_abs_Q>
0

> <r_epik_Metal_State_Penalty>
-0

> <b_epik_Metal_Only>
0

> <s_lp_Force_Field>
OPLS_2005

> <r_lp_Energy>
6.74104

> <b_lp_Chiralities_Consistent>
1

> <s_lp_Variant>
AV-unprocessed.smi:575-1

> <Gold.Version>
5.8.1

> <Gold.Id.Protein>
6NUR|6NUR_protein|mol2

> <Gold.PLP.Fitness>
35.3285

> <Gold.PLP.PLP>
-31.2251

> <Gold.PLP.part.hbond>
-2.6017

> <Gold.PLP.part.metal>
0.0000

> <Gold.PLP.part.buried>
-3.3641

> <Gold.PLP.part.nonpolar>
-24.9429

> <Gold.PLP.part.repulsive>
0.2464

> <Gold.PLP.ligand.clash>
0.0000

> <Gold.PLP.ligand.torsion>
0.7533

> <Gold.PLP.Chemscore.Hbond>
1.8688

> <Gold.PLP.Chemscore.CHOScore>
0.0000

> <Gold.PLP.Chemscore.Metal>
0.0000

> <Gold.Chemscore.Hbonds>
donor molecule, donor type, donor heavy atom, donor atom, acceptor molecule, acceptor atom, score
      P1  H  6896  6909       L1    16  0.93
      P1  H  7997  8009       L1     7  0.99

> <Gold.PLP.Chemscore.Internal.Correction>
0.0036

> <Gold.Rescore>
     Score         DG    S(hbond)    S(metal)    S(lipo)     H(rot)  DE(clash)    DE(int)     intcor
     15.97     -17.25       1.21        0.00      87.92       1.00       0.52       0.76       ----

> <Gold.Chemscore.Fitness>
15.9686

> <Gold.Chemscore.DG>
-17.2530

> <Gold.Chemscore.ZeroCoef>
-5.4800

> <Gold.Chemscore.Hbond>
1.2116

> <Gold.Chemscore.Metal>
0.0000

> <Gold.Chemscore.Lipo>
87.9165

> <Gold.Chemscore.Internal_Hbond>
0.0000

> <Gold.Chemscore.DEClash>
0.5233

> <Gold.Chemscore.DEInternal>
0.7611

> <Gold.Chemscore.Rot>
1.0000

> <Gold.Chemscore.Internal.Correction>
   9.000000E+99

> <Gold.Chemscore.Hbonds>
donor molecule, donor type, donor heavy atom, donor atom, acceptor molecule, acceptor atom, score
      P1  H  6896  6909       L1    16  0.12
      P1  H  7997  8009       L1     7  0.91

> <Gold.Chemscore.Hbond.Weighted>
-4.0468

> <Gold.Chemscore.Metal.Weighted>
-0.0000

> <Gold.Chemscore.Lipo.Weighted>
-10.2862

> <Gold.Chemscore.Internal_Hbond.Weighted>
0.0000

> <Gold.Chemscore.DEClash.Weighted>
0.5233

> <Gold.Chemscore.DEInternal.Weighted>
0.7611

> <Gold.Chemscore.Rot.Weighted>
2.5600

> <Gold.Chemscore.Internal.Correction.Weighted>
   9.000000E+99

> <Gold.Protein.RotatedTorsions>
[ 6907 6896 6895 6894 ] final -155.26 input  -60.11 | X-H torsion
[ 7974 7965 7964 7962 ] final -132.93 input  175.53 | X-H torsion
[ 8008 7997 7996 7995 ] final  126.00 input   59.86 | X-H torsion
[ 10167 10162 10161 10158 ] final  -54.10 input  -65.29 | X-H torsion
[ 10718 10713 10712 10709 ] final   62.89 input   66.30 | X-H torsion
[ 10763 10752 10751 10750 ] final -135.25 input  -60.55 | X-H torsion
[ 11005 11000 10999 10996 ] final  163.09 input  -57.11 | X-H torsion

> <Gold.Protein.ActiveResidues>
 VAL166  LYS551  ARG553  GLY616  TRP617  ASP618  TYR619  PRO620  LYS621  CYS622 
 ASP623  PHE694  ASN695  SER759  ASP760  ASP761  ALA762  ILE779  LEU786  VAL792 
 PHE793  MET794  SER795  GLU796  ALA797  LYS798  CYS799  TRP800  GLU811  SER814 

> <Gold.Protein.RotatedAtoms>
  151.2698  133.4261  159.2620 H   0  0  0  0  0  0  0  0  0  0  0  0  # atno 6907 bound_to 6896
  151.0455  134.9637  159.8194 H   0  0  0  0  0  0  0  0  0  0  0  0  # atno 6908 bound_to 6896
  152.5373  134.2655  159.9004 H   0  0  0  0  0  0  0  0  0  0  0  0  # atno 6909 bound_to 6896
  144.9240  140.7048  143.4947 H   0  0  0  0  0  0  0  0  0  0  0  0  # atno 7974 bound_to 7965
  156.2851  140.2703  156.2040 H   0  0  0  0  0  0  0  0  0  0  0  0  # atno 8008 bound_to 7997
  155.0331  140.0386  157.2499 H   0  0  0  0  0  0  0  0  0  0  0  0  # atno 8009 bound_to 7997
  154.7337  140.2711  155.6439 H   0  0  0  0  0  0  0  0  0  0  0  0  # atno 8010 bound_to 7997
  140.6449  143.2529  151.4887 H   0  0  0  0  0  0  0  0  0  0  0  0  # atno 10167 bound_to 10162
  157.5933  130.9075  149.9646 H   0  0  0  0  0  0  0  0  0  0  0  0  # atno 10718 bound_to 10713
  154.8706  135.3709  154.4867 H   0  0  0  0  0  0  0  0  0  0  0  0  # atno 10763 bound_to 10752
  153.5517  135.7024  153.5593 H   0  0  0  0  0  0  0  0  0  0  0  0  # atno 10764 bound_to 10752
  153.3709  135.4021  155.1752 H   0  0  0  0  0  0  0  0  0  0  0  0  # atno 10765 bound_to 10752
  140.2323  134.8114  157.3329 H   0  0  0  0  0  0  0  0  0  0  0  0  # atno 11005 bound_to 11000
  145.3250  139.1777  143.4567 LP  0  0  0  0  0  0  0  0  0  0  0  0  # atno 17320 bound_to 7965
  146.3217  140.3272  142.8637 LP  0  0  0  0  0  0  0  0  0  0  0  0  # atno 17321 bound_to 7965
  139.5659  144.2043  152.1764 LP  0  0  0  0  0  0  0  0  0  0  0  0  # atno 17342 bound_to 10162
  140.1325  144.5276  150.6794 LP  0  0  0  0  0  0  0  0  0  0  0  0  # atno 17343 bound_to 10162
  156.0991  130.3657  150.0251 LP  0  0  0  0  0  0  0  0  0  0  0  0  # atno 17370 bound_to 10713
  156.8370  130.9412  151.3634 LP  0  0  0  0  0  0  0  0  0  0  0  0  # atno 17371 bound_to 10713
  140.1737  134.4576  155.7815 LP  0  0  0  0  0  0  0  0  0  0  0  0  # atno 17394 bound_to 11000
  141.2217  133.6953  156.7752 LP  0  0  0  0  0  0  0  0  0  0  0  0  # atno 17395 bound_to 11000

$$$$
