AV-unprocessed.smi:2024|AV-procd|sdf|8192|dock8
  -GOLD-   2272010443D 1   1.00000     0.00000
 Structure written by MMmdl.
 44 45  0  0  0  0  0  0  0  0  2 V2000
  142.6030  144.6961  155.2941 C   0  0  0  0  0  0  0  0  0  0  0  0
  144.0028  145.1029  155.2359 N   0  0  0  0  0  0  0  0  0  0  0  0
  144.2149  146.5079  155.5810 C   0  0  0  0  0  0  0  0  0  0  0  0
  143.9966  146.7751  157.0841 C   0  0  0  0  0  0  0  0  0  0  0  0
  144.9075  145.9329  157.9139 N   0  3  0  0  0  0  0  0  0  0  0  0
  144.9360  146.2671  159.3868 C   0  0  0  0  0  0  0  0  0  0  0  0
  145.4247  147.7187  159.6170 C   0  0  0  0  0  0  0  0  0  0  0  0
  143.5222  146.1392  160.0146 C   0  0  0  0  0  0  0  0  0  0  0  0
  145.8675  145.2443  160.1101 C   0  0  0  0  0  0  0  0  0  0  0  0
  147.2366  145.2050  159.5947 N   0  0  0  0  0  0  0  0  0  0  0  0
  148.2840  144.6274  160.2013 C   0  0  0  0  0  0  0  0  0  0  0  0
  148.2037  144.0428  161.2820 O   0  0  0  0  0  0  0  0  0  0  0  0
  149.4062  144.7696  159.4746 N   0  0  0  0  0  0  0  0  0  0  0  0
  150.7067  144.2806  159.7649 C   0  0  0  0  0  0  0  0  0  0  0  0
  151.0542  143.7000  160.9194 N   0  0  0  0  0  0  0  0  0  0  0  0
  152.3971  143.3144  160.9285 C   0  0  0  0  0  0  0  0  0  0  0  0
  153.0612  143.6099  159.7642 C   0  0  0  0  0  0  0  0  0  0  0  0
  152.0206  144.3889  158.6026 S   0  0  0  0  0  0  0  0  0  0  0  0
  144.6894  144.4989  157.5637 C   0  0  0  0  0  0  0  0  0  0  0  0
  144.8794  144.2629  156.0496 C   0  0  0  0  0  0  0  0  0  0  0  0
  142.0020  145.3174  154.6294 H   0  0  0  0  0  0  0  0  0  0  0  0
  142.1838  144.7711  156.2968 H   0  0  0  0  0  0  0  0  0  0  0  0
  142.4976  143.6623  154.9631 H   0  0  0  0  0  0  0  0  0  0  0  0
  145.2329  146.7865  155.3046 H   0  0  0  0  0  0  0  0  0  0  0  0
  143.5506  147.1334  154.9837 H   0  0  0  0  0  0  0  0  0  0  0  0
  144.1713  147.8345  157.2548 H   0  0  0  0  0  0  0  0  0  0  0  0
  142.9553  146.5920  157.3489 H   0  0  0  0  0  0  0  0  0  0  0  0
  145.3210  148.0138  160.6615 H   0  0  0  0  0  0  0  0  0  0  0  0
  144.8510  148.4374  159.0319 H   0  0  0  0  0  0  0  0  0  0  0  0
  146.4769  147.8433  159.3599 H   0  0  0  0  0  0  0  0  0  0  0  0
  143.5398  146.2701  161.0964 H   0  0  0  0  0  0  0  0  0  0  0  0
  143.0829  145.1611  159.8151 H   0  0  0  0  0  0  0  0  0  0  0  0
  142.8362  146.9022  159.6464 H   0  0  0  0  0  0  0  0  0  0  0  0
  145.9318  145.4985  161.1686 H   0  0  0  0  0  0  0  0  0  0  0  0
  145.4638  144.2336  160.0796 H   0  0  0  0  0  0  0  0  0  0  0  0
  147.3989  145.6613  158.7086 H   0  0  0  0  0  0  0  0  0  0  0  0
  149.3206  145.2823  158.6096 H   0  0  0  0  0  0  0  0  0  0  0  0
  152.7989  142.8335  161.8081 H   0  0  0  0  0  0  0  0  0  0  0  0
  154.0953  143.4168  159.5206 H   0  0  0  0  0  0  0  0  0  0  0  0
  145.4155  143.8572  158.0586 H   0  0  0  0  0  0  0  0  0  0  0  0
  143.7030  144.1705  157.8916 H   0  0  0  0  0  0  0  0  0  0  0  0
  144.7089  143.2141  155.8044 H   0  0  0  0  0  0  0  0  0  0  0  0
  145.9133  144.4777  155.7763 H   0  0  0  0  0  0  0  0  0  0  0  0
  145.8405  146.1374  157.5857 H   0  0  0  0  0  0  0  0  0  0  0  0
  1  2  1  0  0  0  0
  1 21  1  0  0  0  0
  1 22  1  0  0  0  0
  1 23  1  0  0  0  0
  2 20  1  0  0  0  0
  2  3  1  0  0  0  0
  3  4  1  0  0  0  0
  3 24  1  0  0  0  0
  3 25  1  0  0  0  0
  4  5  1  0  0  0  0
  4 26  1  0  0  0  0
  4 27  1  0  0  0  0
  5  6  1  0  0  0  0
  5 19  1  0  0  0  0
  5 44  1  0  0  0  0
  6  7  1  0  0  0  0
  6  8  1  0  0  0  0
  6  9  1  0  0  0  0
  7 28  1  0  0  0  0
  7 29  1  0  0  0  0
  7 30  1  0  0  0  0
  8 31  1  0  0  0  0
  8 32  1  0  0  0  0
  8 33  1  0  0  0  0
  9 10  1  0  0  0  0
  9 34  1  0  0  0  0
  9 35  1  0  0  0  0
 10 11  1  0  0  0  0
 10 36  1  0  0  0  0
 11 12  2  0  0  0  0
 11 13  1  0  0  0  0
 13 14  1  0  0  0  0
 13 37  1  0  0  0  0
 14 18  1  0  0  0  0
 14 15  2  0  0  0  0
 15 16  1  0  0  0  0
 16 17  2  0  0  0  0
 16 38  1  0  0  0  0
 17 18  1  0  0  0  0
 17 39  1  0  0  0  0
 19 20  1  0  0  0  0
 19 40  1  0  0  0  0
 19 41  1  0  0  0  0
 20 42  1  0  0  0  0
 20 43  1  0  0  0  0
M  CHG  1   5   1
M  END
> <s_m_source_file>
AV-unprocessed.smi

> <i_m_source_file_index>
2024

> <i_lp_mmshare_version>
43012

> <i_f3d_flags>
0

> <s_epik_input>
W0NIM11OMVtDSDJdW0NIMl1OKFtDSDJdW0NIMl0xKUMoW0NIM10pKFtDSDNdKVtDSDJdW05IXUMoPU8pW05IXWMybltjSF1bY0hdczI=

> <s_epik_cmdline>
J2VwaWtfcHl0aG9uJywgJy1waCcsICc3LjAnLCAnLXRuJywgJzgnLCAnLW1hJywgJzIwMCcsICctbWV0YWxfYmluZGluZycsICctaW1hZScsICc8aW5maWxlLm1hZT4nLCAnLW9tYWUnLCAnPG91dGZpbGUubWFlPic=

> <r_epik_Ionization_Penalty>
0.100627

> <r_epik_Ionization_Penalty_Charging>
0.0985296

> <r_epik_Ionization_Penalty_Neutral>
0.00209722

> <r_epik_State_Penalty>
1.056

> <r_epik_Charging_Adjusted_Penalty>
1.15453

> <i_epik_Tot_Q>
1

> <i_epik_Tot_abs_Q>
1

> <r_epik_Metal_State_Penalty>
1.08856

> <b_epik_Metal_Only>
0

> <s_lp_Force_Field>
OPLS_2005

> <r_lp_Energy>
25.1468

> <b_lp_Chiralities_Consistent>
1

> <s_lp_Variant>
AV-unprocessed.smi:2024-2

> <Gold.Version>
5.8.1

> <Gold.Id.Protein>
6NUR|6NUR_protein|mol2

> <Gold.PLP.Fitness>
47.9229

> <Gold.PLP.PLP>
-33.8342

> <Gold.PLP.part.hbond>
-4.8905

> <Gold.PLP.part.metal>
0.0000

> <Gold.PLP.part.buried>
-6.1246

> <Gold.PLP.part.nonpolar>
-24.3620

> <Gold.PLP.part.repulsive>
0.6822

> <Gold.PLP.ligand.clash>
0.0000

> <Gold.PLP.ligand.torsion>
0.2070

> <Gold.PLP.Chemscore.Hbond>
4.8065

> <Gold.PLP.Chemscore.CHOScore>
0.0000

> <Gold.PLP.Chemscore.Metal>
0.0000

> <Gold.Chemscore.Hbonds>
donor molecule, donor type, donor heavy atom, donor atom, acceptor molecule, acceptor atom, score
      L1  H     5    44       P1  8029  2.00
      L1  H    10    36       P1  8029  0.99
      L1  H    13    37       P1  8029  0.78
      P1  H  6933  6944       L1    12  1.00

> <Gold.PLP.Chemscore.Internal.Correction>
0.0833

> <Gold.Rescore>
     Score         DG    S(hbond)    S(metal)    S(lipo)     H(rot)  DE(clash)    DE(int)     intcor
     19.66     -21.11       3.06        0.00      81.35       1.60       0.04       1.41       ----

> <Gold.Chemscore.Fitness>
19.6560

> <Gold.Chemscore.DG>
-21.1100

> <Gold.Chemscore.ZeroCoef>
-5.4800

> <Gold.Chemscore.Hbond>
3.0556

> <Gold.Chemscore.Metal>
0.0000

> <Gold.Chemscore.Lipo>
81.3489

> <Gold.Chemscore.Internal_Hbond>
0.0000

> <Gold.Chemscore.DEClash>
0.0412

> <Gold.Chemscore.DEInternal>
1.4127

> <Gold.Chemscore.Rot>
1.5991

> <Gold.Chemscore.Internal.Correction>
   9.000000E+99

> <Gold.Chemscore.Hbonds>
donor molecule, donor type, donor heavy atom, donor atom, acceptor molecule, acceptor atom, score
      L1  H     5    44       P1  8029  0.67
      L1  H    10    36       P1  8029  0.92
      L1  H    13    37       P1  8029  0.69
      P1  H  6933  6944       L1    12  0.95

> <Gold.Chemscore.Hbond.Weighted>
-10.2058

> <Gold.Chemscore.Metal.Weighted>
-0.0000

> <Gold.Chemscore.Lipo.Weighted>
-9.5178

> <Gold.Chemscore.Internal_Hbond.Weighted>
0.0000

> <Gold.Chemscore.DEClash.Weighted>
0.0412

> <Gold.Chemscore.DEInternal.Weighted>
1.4127

> <Gold.Chemscore.Rot.Weighted>
4.0936

> <Gold.Chemscore.Internal.Correction.Weighted>
   9.000000E+99

> <Gold.Protein.RotatedTorsions>
[ 6907 6896 6895 6894 ] final  167.61 input  -60.11 | X-H torsion
[ 7974 7965 7964 7962 ] final  -43.91 input  175.53 | X-H torsion
[ 8008 7997 7996 7995 ] final  -39.00 input   59.86 | X-H torsion
[ 10167 10162 10161 10158 ] final  -72.82 input  -65.29 | X-H torsion
[ 10718 10713 10712 10709 ] final  114.65 input   66.30 | X-H torsion
[ 10763 10752 10751 10750 ] final    2.44 input  -60.55 | X-H torsion
[ 11005 11000 10999 10996 ] final   60.68 input  -57.11 | X-H torsion

> <Gold.Protein.ActiveResidues>
 VAL166  LYS551  ARG553  GLY616  TRP617  ASP618  TYR619  PRO620  LYS621  CYS622 
 ASP623  PHE694  ASN695  SER759  ASP760  ASP761  ALA762  ILE779  LEU786  VAL792 
 PHE793  MET794  SER795  GLU796  ALA797  LYS798  CYS799  TRP800  GLU811  SER814 

> <Gold.Protein.RotatedAtoms>
  151.8607  133.3456  159.3702 H   0  0  0  0  0  0  0  0  0  0  0  0  # atno 6907 bound_to 6896
  150.7180  134.5209  159.5662 H   0  0  0  0  0  0  0  0  0  0  0  0  # atno 6908 bound_to 6896
  152.2722  134.7921  160.0463 H   0  0  0  0  0  0  0  0  0  0  0  0  # atno 6909 bound_to 6896
  145.9973  140.7114  142.9288 H   0  0  0  0  0  0  0  0  0  0  0  0  # atno 7974 bound_to 7965
  154.4029  140.1563  156.2792 H   0  0  0  0  0  0  0  0  0  0  0  0  # atno 8008 bound_to 7997
  155.8885  140.3440  155.5917 H   0  0  0  0  0  0  0  0  0  0  0  0  # atno 8009 bound_to 7997
  155.7586  140.0814  157.2157 H   0  0  0  0  0  0  0  0  0  0  0  0  # atno 8010 bound_to 7997
  140.5161  143.2338  151.7511 H   0  0  0  0  0  0  0  0  0  0  0  0  # atno 10167 bound_to 10162
  157.6269  131.1001  150.7217 H   0  0  0  0  0  0  0  0  0  0  0  0  # atno 10718 bound_to 10713
  153.2956  135.6952  153.7251 H   0  0  0  0  0  0  0  0  0  0  0  0  # atno 10763 bound_to 10752
  153.6186  135.3431  155.3004 H   0  0  0  0  0  0  0  0  0  0  0  0  # atno 10764 bound_to 10752
  154.8536  135.4380  154.2052 H   0  0  0  0  0  0  0  0  0  0  0  0  # atno 10765 bound_to 10752
  140.0214  134.6147  155.9634 H   0  0  0  0  0  0  0  0  0  0  0  0  # atno 11005 bound_to 11000
  144.6908  140.3172  143.7238 LP  0  0  0  0  0  0  0  0  0  0  0  0  # atno 17320 bound_to 7965
  145.7541  139.1803  143.2304 LP  0  0  0  0  0  0  0  0  0  0  0  0  # atno 17321 bound_to 7965
  139.4909  144.4322  151.9859 LP  0  0  0  0  0  0  0  0  0  0  0  0  # atno 17342 bound_to 10162
  140.3416  144.3196  150.5966 LP  0  0  0  0  0  0  0  0  0  0  0  0  # atno 17343 bound_to 10162
  156.7563  130.4784  149.5446 LP  0  0  0  0  0  0  0  0  0  0  0  0  # atno 17370 bound_to 10713
  156.1446  130.6268  151.0514 LP  0  0  0  0  0  0  0  0  0  0  0  0  # atno 17371 bound_to 10713
  141.1776  133.6542  156.4891 LP  0  0  0  0  0  0  0  0  0  0  0  0  # atno 17394 bound_to 11000
  140.4380  134.7041  157.4977 LP  0  0  0  0  0  0  0  0  0  0  0  0  # atno 17395 bound_to 11000

$$$$
