AV-unprocessed.smi:2002|AV-procd|sdf|8115|dock1
  -GOLD-   2272010343D 1   1.00000     0.00000
 Structure written by MMmdl.
 39 40  0  0  0  0  0  0  0  0  2 V2000
  145.5785  132.1735  149.8671 C   0  0  0  0  0  0  0  0  0  0  0  0
  144.2044  132.7017  149.4336 C   0  0  0  0  0  0  0  0  0  0  0  0
  143.7123  133.7805  150.3228 N   0  3  1  0  0  0  0  0  0  0  0  0
  143.4287  133.3635  151.7139 C   0  0  0  0  0  0  0  0  0  0  0  0
  143.6548  134.6105  152.5623 C   0  0  0  0  0  0  0  0  0  0  0  0
  144.8417  135.2764  151.8673 C   0  0  2  0  0  0  0  0  0  0  0  0
  145.0259  136.7770  152.1646 C   0  0  0  0  0  0  0  0  0  0  0  0
  146.4012  137.1040  152.5290 N   0  0  0  0  0  0  0  0  0  0  0  0
  146.7660  137.9578  153.4969 C   0  0  0  0  0  0  0  0  0  0  0  0
  145.9632  138.5469  154.2213 O   0  0  0  0  0  0  0  0  0  0  0  0
  148.1029  138.0774  153.5650 N   0  0  0  0  0  0  0  0  0  0  0  0
  148.8535  138.8935  154.4493 C   0  0  0  0  0  0  0  0  0  0  0  0
  150.2722  138.9208  154.3881 C   0  0  0  0  0  0  0  0  0  0  0  0
  150.6059  139.8044  155.3757 C   0  0  0  0  0  0  0  0  0  0  0  0
  151.9110  140.3199  155.8775 C   0  0  0  0  0  0  0  0  0  0  0  0
  149.4860  140.2755  155.9883 O   0  0  0  0  0  0  0  0  0  0  0  0
  148.3652  139.6872  155.3901 N   0  0  0  0  0  0  0  0  0  0  0  0
  144.5939  134.9719  150.3819 C   0  0  0  0  0  0  0  0  0  0  0  0
  145.8956  131.3528  149.2234 H   0  0  0  0  0  0  0  0  0  0  0  0
  145.5519  131.7993  150.8910 H   0  0  0  0  0  0  0  0  0  0  0  0
  146.3446  132.9471  149.8108 H   0  0  0  0  0  0  0  0  0  0  0  0
  144.2387  133.0548  148.4020 H   0  0  0  0  0  0  0  0  0  0  0  0
  143.4918  131.8760  149.4594 H   0  0  0  0  0  0  0  0  0  0  0  0
  142.4187  132.9663  151.8177 H   0  0  0  0  0  0  0  0  0  0  0  0
  144.1300  132.5855  152.0206 H   0  0  0  0  0  0  0  0  0  0  0  0
  142.7759  135.2553  152.5166 H   0  0  0  0  0  0  0  0  0  0  0  0
  143.8496  134.3767  153.6094 H   0  0  0  0  0  0  0  0  0  0  0  0
  145.7456  134.7444  152.1700 H   0  0  0  0  0  0  0  0  0  0  0  0
  144.7763  137.3561  151.2751 H   0  0  0  0  0  0  0  0  0  0  0  0
  144.3323  137.1024  152.9420 H   0  0  0  0  0  0  0  0  0  0  0  0
  147.1303  136.6642  151.9862 H   0  0  0  0  0  0  0  0  0  0  0  0
  148.6427  137.5352  152.9069 H   0  0  0  0  0  0  0  0  0  0  0  0
  150.9383  138.3838  153.7296 H   0  0  0  0  0  0  0  0  0  0  0  0
  152.7432  139.8338  155.3683 H   0  0  0  0  0  0  0  0  0  0  0  0
  152.0148  140.1347  156.9469 H   0  0  0  0  0  0  0  0  0  0  0  0
  151.9924  141.3939  155.7096 H   0  0  0  0  0  0  0  0  0  0  0  0
  145.5366  134.8235  149.8529 H   0  0  0  0  0  0  0  0  0  0  0  0
  144.0733  135.7965  149.8935 H   0  0  0  0  0  0  0  0  0  0  0  0
  142.8382  134.1072  149.9361 H   0  0  0  0  0  0  0  0  0  0  0  0
  1  2  1  0  0  0  0
  1 19  1  0  0  0  0
  1 20  1  0  0  0  0
  1 21  1  0  0  0  0
  2  3  1  0  0  0  0
  2 22  1  0  0  0  0
  2 23  1  0  0  0  0
  3 18  1  0  0  0  0
  3  4  1  0  0  0  0
  3 39  1  0  0  0  0
  4  5  1  0  0  0  0
  4 24  1  0  0  0  0
  4 25  1  0  0  0  0
  5  6  1  0  0  0  0
  5 26  1  0  0  0  0
  5 27  1  0  0  0  0
  6  7  1  0  0  0  0
  6 18  1  0  0  0  0
  6 28  1  0  0  0  0
  7  8  1  0  0  0  0
  7 29  1  0  0  0  0
  7 30  1  0  0  0  0
  8  9  1  0  0  0  0
  8 31  1  0  0  0  0
  9 10  2  0  0  0  0
  9 11  1  0  0  0  0
 11 12  1  0  0  0  0
 11 32  1  0  0  0  0
 12 17  2  0  0  0  0
 12 13  1  0  0  0  0
 13 14  2  0  0  0  0
 13 33  1  0  0  0  0
 14 15  1  0  0  0  0
 14 16  1  0  0  0  0
 15 34  1  0  0  0  0
 15 35  1  0  0  0  0
 15 36  1  0  0  0  0
 16 17  1  0  0  0  0
 18 37  1  0  0  0  0
 18 38  1  0  0  0  0
M  CHG  1   3   1
M  END
> <s_m_source_file>
AV-unprocessed.smi

> <i_m_source_file_index>
2002

> <i_lp_mmshare_version>
43012

> <i_f3d_flags>
0

> <s_epik_input>
W0NIM11bQ0gyXU4xW0NIMl1bQ0gyXVtDQEhdKFtDSDJdMSlbQ0gyXVtOSF1DKD1PKVtOSF1jMltjSF1jKFtDSDNdKW9uMg==

> <s_epik_cmdline>
J2VwaWtfcHl0aG9uJywgJy1waCcsICc3LjAnLCAnLXRuJywgJzgnLCAnLW1hJywgJzIwMCcsICctbWV0YWxfYmluZGluZycsICctaW1hZScsICc8aW5maWxlLm1hZT4nLCAnLW9tYWUnLCAnPG91dGZpbGUubWFlPic=

> <r_epik_Ionization_Penalty>
0.000632871

> <r_epik_Ionization_Penalty_Charging>
0.000610951

> <r_epik_Ionization_Penalty_Neutral>
2.19198e-05

> <r_epik_State_Penalty>
0.000385263

> <r_epik_Charging_Adjusted_Penalty>
0.000996214

> <i_epik_Tot_Q>
1

> <i_epik_Tot_abs_Q>
1

> <r_epik_Metal_State_Penalty>
-0

> <b_epik_Metal_Only>
0

> <s_lp_Force_Field>
OPLS_2005

> <r_lp_Energy>
25.0308

> <b_lp_Chiralities_Consistent>
1

> <s_lp_Variant>
AV-unprocessed.smi:2002-3

> <Gold.Version>
5.8.1

> <Gold.Id.Protein>
6NUR|6NUR_protein|mol2

> <Gold.PLP.Fitness>
41.9395

> <Gold.PLP.PLP>
-31.6654

> <Gold.PLP.part.hbond>
-3.0000

> <Gold.PLP.part.metal>
0.0000

> <Gold.PLP.part.buried>
-3.4797

> <Gold.PLP.part.nonpolar>
-25.1480

> <Gold.PLP.part.repulsive>
0.2409

> <Gold.PLP.ligand.clash>
0.0000

> <Gold.PLP.ligand.torsion>
0.8325

> <Gold.PLP.Chemscore.Hbond>
3.9760

> <Gold.PLP.Chemscore.CHOScore>
0.0000

> <Gold.PLP.Chemscore.Metal>
0.0000

> <Gold.Chemscore.Hbonds>
donor molecule, donor type, donor heavy atom, donor atom, acceptor molecule, acceptor atom, score
      L1  H     3    39       P1 10186  2.00
      L1  H     8    31       P1  7948  0.96
      L1  H    11    32       P1  7948  1.00

> <Gold.PLP.Chemscore.Internal.Correction>
0.0113

> <Gold.Rescore>
     Score         DG    S(hbond)    S(metal)    S(lipo)     H(rot)  DE(clash)    DE(int)     intcor
     17.49     -19.64       2.92        0.00      71.09       1.52       0.07       2.09       ----

> <Gold.Chemscore.Fitness>
17.4878

> <Gold.Chemscore.DG>
-19.6447

> <Gold.Chemscore.ZeroCoef>
-5.4800

> <Gold.Chemscore.Hbond>
2.9174

> <Gold.Chemscore.Metal>
0.0000

> <Gold.Chemscore.Lipo>
71.0929

> <Gold.Chemscore.Internal_Hbond>
0.0000

> <Gold.Chemscore.DEClash>
0.0706

> <Gold.Chemscore.DEInternal>
2.0863

> <Gold.Chemscore.Rot>
1.5223

> <Gold.Chemscore.Internal.Correction>
   9.000000E+99

> <Gold.Chemscore.Hbonds>
donor molecule, donor type, donor heavy atom, donor atom, acceptor molecule, acceptor atom, score
      L1  H     3    39       P1 10186  0.99
      L1  H     8    31       P1  7948  0.92
      L1  H    11    32       P1  7948  0.99

> <Gold.Chemscore.Hbond.Weighted>
-9.7440

> <Gold.Chemscore.Metal.Weighted>
-0.0000

> <Gold.Chemscore.Lipo.Weighted>
-8.3179

> <Gold.Chemscore.Internal_Hbond.Weighted>
0.0000

> <Gold.Chemscore.DEClash.Weighted>
0.0706

> <Gold.Chemscore.DEInternal.Weighted>
2.0863

> <Gold.Chemscore.Rot.Weighted>
3.8971

> <Gold.Chemscore.Internal.Correction.Weighted>
   9.000000E+99

> <Gold.Protein.RotatedTorsions>
[ 6907 6896 6895 6894 ] final   52.85 input  -60.11 | X-H torsion
[ 7974 7965 7964 7962 ] final  152.06 input  175.53 | X-H torsion
[ 8008 7997 7996 7995 ] final  177.09 input   59.86 | X-H torsion
[ 10167 10162 10161 10158 ] final  -87.64 input  -65.29 | X-H torsion
[ 10718 10713 10712 10709 ] final  -20.14 input   66.30 | X-H torsion
[ 10763 10752 10751 10750 ] final  -55.55 input  -60.55 | X-H torsion
[ 11005 11000 10999 10996 ] final  -96.17 input  -57.11 | X-H torsion

> <Gold.Protein.ActiveResidues>
 VAL166  LYS551  ARG553  GLY616  TRP617  ASP618  TYR619  PRO620  LYS621  CYS622 
 ASP623  PHE694  ASN695  SER759  ASP760  ASP761  ALA762  ILE779  LEU786  VAL792 
 PHE793  MET794  SER795  GLU796  ALA797  LYS798  CYS799  TRP800  GLU811  SER814 

> <Gold.Protein.RotatedAtoms>
  152.3276  134.7300  160.0297 H   0  0  0  0  0  0  0  0  0  0  0  0  # atno 6907 bound_to 6896
  151.7728  133.3337  159.3457 H   0  0  0  0  0  0  0  0  0  0  0  0  # atno 6908 bound_to 6896
  150.7405  134.5934  159.6044 H   0  0  0  0  0  0  0  0  0  0  0  0  # atno 6909 bound_to 6896
  144.8248  139.6619  143.6084 H   0  0  0  0  0  0  0  0  0  0  0  0  # atno 7974 bound_to 7965
  156.0695  140.1367  156.9846 H   0  0  0  0  0  0  0  0  0  0  0  0  # atno 8008 bound_to 7997
  154.4524  140.0975  156.6709 H   0  0  0  0  0  0  0  0  0  0  0  0  # atno 8009 bound_to 7997
  155.5251  140.3457  155.4417 H   0  0  0  0  0  0  0  0  0  0  0  0  # atno 8010 bound_to 7997
  140.3825  143.2742  151.9366 H   0  0  0  0  0  0  0  0  0  0  0  0  # atno 10167 bound_to 10162
  156.5359  130.4666  149.6523 H   0  0  0  0  0  0  0  0  0  0  0  0  # atno 10718 bound_to 10713
  154.1926  135.6425  153.5064 H   0  0  0  0  0  0  0  0  0  0  0  0  # atno 10763 bound_to 10752
  153.0031  135.5432  154.6399 H   0  0  0  0  0  0  0  0  0  0  0  0  # atno 10764 bound_to 10752
  154.5792  135.2923  155.0723 H   0  0  0  0  0  0  0  0  0  0  0  0  # atno 10765 bound_to 10752
  141.1419  133.8079  157.0535 H   0  0  0  0  0  0  0  0  0  0  0  0  # atno 11005 bound_to 11000
  146.2554  139.6290  142.9399 LP  0  0  0  0  0  0  0  0  0  0  0  0  # atno 17320 bound_to 7965
  145.5024  141.0437  143.2533 LP  0  0  0  0  0  0  0  0  0  0  0  0  # atno 17321 bound_to 7965
  139.4794  144.5805  151.7940 LP  0  0  0  0  0  0  0  0  0  0  0  0  # atno 17342 bound_to 10162
  140.4923  144.1292  150.5953 LP  0  0  0  0  0  0  0  0  0  0  0  0  # atno 17343 bound_to 10162
  156.3016  130.7180  151.2053 LP  0  0  0  0  0  0  0  0  0  0  0  0  # atno 17370 bound_to 10713
  157.7414  131.0505  150.5101 LP  0  0  0  0  0  0  0  0  0  0  0  0  # atno 17371 bound_to 10713
  140.0616  134.9751  157.1315 LP  0  0  0  0  0  0  0  0  0  0  0  0  # atno 17394 bound_to 11000
  140.3839  134.2257  155.7169 LP  0  0  0  0  0  0  0  0  0  0  0  0  # atno 17395 bound_to 11000

$$$$
