AV-unprocessed.smi:686|AV-procd|sdf|3337|dock3
  -GOLD-   22720 0313D 1   1.00000     0.00000
 Structure written by MMmdl.
 41 42  0  0  0  0  0  0  0  0  2 V2000
  150.1072  133.7572  154.8177 C   0  0  0  0  0  0  0  0  0  0  0  0
  148.5917  133.6293  155.0364 C   0  0  2  0  0  0  0  0  0  0  0  0
  147.8579  133.1820  153.7668 C   0  0  0  0  0  0  0  0  0  0  0  0
  147.3194  134.4103  153.1491 N   0  3  1  0  0  0  0  0  0  0  0  0
  146.2388  134.1976  152.1447 C   0  0  0  0  0  0  0  0  0  0  0  0
  146.6544  133.1638  151.0813 C   0  0  0  0  0  0  0  0  0  0  0  0
  145.8431  135.5167  151.4546 C   0  0  0  0  0  0  0  0  0  0  0  0
  146.9729  135.3084  154.2716 C   0  0  0  0  0  0  0  0  0  0  0  0
  147.9412  134.9750  155.4168 C   0  0  1  0  0  0  0  0  0  0  0  0
  147.2236  134.8726  156.6923 N   0  0  0  0  0  0  0  0  0  0  0  0
  148.1162  134.4479  158.1090 S   0  0  0  0  0  0  0  0  0  0  0  0
  148.6981  133.1158  157.8847 O   0  0  0  0  0  0  0  0  0  0  0  0
  148.9893  135.5829  158.4464 O   0  0  0  0  0  0  0  0  0  0  0  0
  146.7993  134.3214  159.3909 C   0  0  0  0  0  0  0  0  0  0  0  0
  147.0438  135.3460  160.4614 C   0  0  0  0  0  0  0  0  0  0  0  0
  147.2460  135.1382  161.8539 C   0  0  0  0  0  0  0  0  0  0  0  0
  147.4218  136.4008  162.3420 C   0  0  0  0  0  0  0  0  0  0  0  0
  147.3323  137.3135  161.3417 O   0  0  0  0  0  0  0  0  0  0  0  0
  147.0888  136.6305  160.1447 N   0  0  0  0  0  0  0  0  0  0  0  0
  150.3378  134.4770  154.0314 H   0  0  0  0  0  0  0  0  0  0  0  0
  150.5451  132.8002  154.5328 H   0  0  0  0  0  0  0  0  0  0  0  0
  150.6049  134.0876  155.7302 H   0  0  0  0  0  0  0  0  0  0  0  0
  148.4343  132.8765  155.8103 H   0  0  0  0  0  0  0  0  0  0  0  0
  148.5045  132.6299  153.0839 H   0  0  0  0  0  0  0  0  0  0  0  0
  147.0287  132.5272  154.0407 H   0  0  0  0  0  0  0  0  0  0  0  0
  145.3605  133.8124  152.6652 H   0  0  0  0  0  0  0  0  0  0  0  0
  145.8803  133.0520  150.3214 H   0  0  0  0  0  0  0  0  0  0  0  0
  146.8155  132.1756  151.5123 H   0  0  0  0  0  0  0  0  0  0  0  0
  147.5724  133.4636  150.5745 H   0  0  0  0  0  0  0  0  0  0  0  0
  145.0841  135.3449  150.6909 H   0  0  0  0  0  0  0  0  0  0  0  0
  146.7006  135.9825  150.9676 H   0  0  0  0  0  0  0  0  0  0  0  0
  145.4238  136.2365  152.1575 H   0  0  0  0  0  0  0  0  0  0  0  0
  147.0439  136.3559  153.9768 H   0  0  0  0  0  0  0  0  0  0  0  0
  145.9411  135.1187  154.5742 H   0  0  0  0  0  0  0  0  0  0  0  0
  148.6924  135.7629  155.4889 H   0  0  0  0  0  0  0  0  0  0  0  0
  146.3906  134.2914  156.6007 H   0  0  0  0  0  0  0  0  0  0  0  0
  145.8325  134.4704  158.9088 H   0  0  0  0  0  0  0  0  0  0  0  0
  146.8140  133.3135  159.8051 H   0  0  0  0  0  0  0  0  0  0  0  0
  147.2647  134.2101  162.4056 H   0  0  0  0  0  0  0  0  0  0  0  0
  147.6105  136.7955  163.3294 H   0  0  0  0  0  0  0  0  0  0  0  0
  148.0949  134.8463  152.6706 H   0  0  0  0  0  0  0  0  0  0  0  0
  1  2  1  0  0  0  0
  1 20  1  0  0  0  0
  1 21  1  0  0  0  0
  1 22  1  0  0  0  0
  2  9  1  0  0  0  0
  2  3  1  0  0  0  0
  2 23  1  0  0  0  0
  3  4  1  0  0  0  0
  3 24  1  0  0  0  0
  3 25  1  0  0  0  0
  4  5  1  0  0  0  0
  4  8  1  0  0  0  0
  4 41  1  0  0  0  0
  5  6  1  0  0  0  0
  5  7  1  0  0  0  0
  5 26  1  0  0  0  0
  6 27  1  0  0  0  0
  6 28  1  0  0  0  0
  6 29  1  0  0  0  0
  7 30  1  0  0  0  0
  7 31  1  0  0  0  0
  7 32  1  0  0  0  0
  8  9  1  0  0  0  0
  8 33  1  0  0  0  0
  8 34  1  0  0  0  0
  9 10  1  0  0  0  0
  9 35  1  0  0  0  0
 10 11  1  0  0  0  0
 10 36  1  0  0  0  0
 11 12  2  0  0  0  0
 11 13  2  0  0  0  0
 11 14  1  0  0  0  0
 14 15  1  0  0  0  0
 14 37  1  0  0  0  0
 14 38  1  0  0  0  0
 15 19  2  0  0  0  0
 15 16  1  0  0  0  0
 16 17  2  0  0  0  0
 16 39  1  0  0  0  0
 17 18  1  0  0  0  0
 17 40  1  0  0  0  0
 18 19  1  0  0  0  0
M  CHG  1   4   1
M  END
> <s_m_source_file>
AV-unprocessed.smi

> <i_m_source_file_index>
686

> <i_lp_mmshare_version>
43012

> <i_f3d_flags>
0

> <s_epik_input>
W0NIM11bQ0BASF0xW0NIMl1OKFtDSF0oW0NIM10pW0NIM10pW0NIMl1bQ0BIXTFbTkhdUyg9TykoPU8pW0NIMl1jMltjSF1bY0hdb24y

> <s_epik_cmdline>
J2VwaWtfcHl0aG9uJywgJy1waCcsICc3LjAnLCAnLXRuJywgJzgnLCAnLW1hJywgJzIwMCcsICctbWV0YWxfYmluZGluZycsICctaW1hZScsICc8aW5maWxlLm1hZT4nLCAnLW9tYWUnLCAnPG91dGZpbGUubWFlPic=

> <r_epik_Ionization_Penalty>
0.00200818

> <r_epik_Ionization_Penalty_Charging>
0.000701289

> <r_epik_Ionization_Penalty_Neutral>
0.00130689

> <r_epik_State_Penalty>
0.00131314

> <r_epik_Charging_Adjusted_Penalty>
0.00201443

> <i_epik_Tot_Q>
1

> <i_epik_Tot_abs_Q>
1

> <r_epik_Metal_State_Penalty>
0.310831

> <b_epik_Metal_Only>
0

> <s_lp_Force_Field>
OPLS_2005

> <r_lp_Energy>
22.7484

> <b_lp_Chiralities_Consistent>
1

> <s_lp_Variant>
AV-unprocessed.smi:686-1

> <Gold.Version>
5.8.1

> <Gold.Id.Protein>
6NUR|6NUR_protein|mol2

> <Gold.PLP.Fitness>
41.6832

> <Gold.PLP.PLP>
-27.2741

> <Gold.PLP.part.hbond>
-3.9889

> <Gold.PLP.part.metal>
0.0000

> <Gold.PLP.part.buried>
-3.6754

> <Gold.PLP.part.nonpolar>
-19.6353

> <Gold.PLP.part.repulsive>
0.0000

> <Gold.PLP.ligand.clash>
0.0000

> <Gold.PLP.ligand.torsion>
0.1325

> <Gold.PLP.Chemscore.Hbond>
4.8320

> <Gold.PLP.Chemscore.CHOScore>
0.0000

> <Gold.PLP.Chemscore.Metal>
0.0000

> <Gold.Chemscore.Hbonds>
donor molecule, donor type, donor heavy atom, donor atom, acceptor molecule, acceptor atom, score
      L1  H     4    41       P1  7948  2.00
      P1  H  6896  6907       L1    13  0.46
      P1  H  6931  6943       L1    18  0.53
      P1  H  6934  6947       L1    18  0.98

> <Gold.PLP.Chemscore.Internal.Correction>
0.1781

> <Gold.Rescore>
     Score         DG    S(hbond)    S(metal)    S(lipo)     H(rot)  DE(clash)    DE(int)     intcor
     15.66     -17.49       2.97        0.00      59.73       1.91       0.00       1.82       ----

> <Gold.Chemscore.Fitness>
15.6626

> <Gold.Chemscore.DG>
-17.4860

> <Gold.Chemscore.ZeroCoef>
-5.4800

> <Gold.Chemscore.Hbond>
2.9672

> <Gold.Chemscore.Metal>
0.0000

> <Gold.Chemscore.Lipo>
59.7350

> <Gold.Chemscore.Internal_Hbond>
0.0000

> <Gold.Chemscore.DEClash>
0.0029

> <Gold.Chemscore.DEInternal>
1.8205

> <Gold.Chemscore.Rot>
1.9115

> <Gold.Chemscore.Internal.Correction>
   9.000000E+99

> <Gold.Chemscore.Hbonds>
donor molecule, donor type, donor heavy atom, donor atom, acceptor molecule, acceptor atom, score
      L1  H     4    41       P1  7948  0.73
      P1  H  6896  6907       L1    13  0.12
      P1  H  6931  6943       L1    18  0.04
      P1  H  6934  6947       L1    18  0.52

> <Gold.Chemscore.Hbond.Weighted>
-9.9105

> <Gold.Chemscore.Metal.Weighted>
-0.0000

> <Gold.Chemscore.Lipo.Weighted>
-6.9890

> <Gold.Chemscore.Internal_Hbond.Weighted>
0.0000

> <Gold.Chemscore.DEClash.Weighted>
0.0029

> <Gold.Chemscore.DEInternal.Weighted>
1.8205

> <Gold.Chemscore.Rot.Weighted>
4.8935

> <Gold.Chemscore.Internal.Correction.Weighted>
   9.000000E+99

> <Gold.Protein.RotatedTorsions>
[ 6907 6896 6895 6894 ] final  -74.94 input  -60.11 | X-H torsion
[ 7974 7965 7964 7962 ] final   58.57 input  175.53 | X-H torsion
[ 8008 7997 7996 7995 ] final -110.74 input   59.86 | X-H torsion
[ 10167 10162 10161 10158 ] final -142.04 input  -65.29 | X-H torsion
[ 10718 10713 10712 10709 ] final  -63.90 input   66.30 | X-H torsion
[ 10763 10752 10751 10750 ] final   97.63 input  -60.55 | X-H torsion
[ 11005 11000 10999 10996 ] final  -93.90 input  -57.11 | X-H torsion

> <Gold.Protein.ActiveResidues>
 VAL166  LYS551  ARG553  GLY616  TRP617  ASP618  TYR619  PRO620  LYS621  CYS622 
 ASP623  PHE694  ASN695  SER759  ASP760  ASP761  ALA762  ILE779  LEU786  VAL792 
 PHE793  MET794  SER795  GLU796  ALA797  LYS798  CYS799  TRP800  GLU811  SER814 

> <Gold.Protein.RotatedAtoms>
  150.7076  134.4795  159.5463 H   0  0  0  0  0  0  0  0  0  0  0  0  # atno 6907 bound_to 6896
  152.2435  134.8202  160.0466 H   0  0  0  0  0  0  0  0  0  0  0  0  # atno 6908 bound_to 6896
  151.8975  133.3495  159.3856 H   0  0  0  0  0  0  0  0  0  0  0  0  # atno 6909 bound_to 6896
  145.9167  139.3697  143.0503 H   0  0  0  0  0  0  0  0  0  0  0  0  # atno 7974 bound_to 7965
  154.9792  140.0396  157.2270 H   0  0  0  0  0  0  0  0  0  0  0  0  # atno 8008 bound_to 7997
  154.7730  140.2805  155.6100 H   0  0  0  0  0  0  0  0  0  0  0  0  # atno 8009 bound_to 7997
  156.2924  140.2606  156.2537 H   0  0  0  0  0  0  0  0  0  0  0  0  # atno 8010 bound_to 7997
  139.8126  143.7682  152.2664 H   0  0  0  0  0  0  0  0  0  0  0  0  # atno 10167 bound_to 10162
  156.0762  130.4226  150.1344 H   0  0  0  0  0  0  0  0  0  0  0  0  # atno 10718 bound_to 10713
  153.2792  135.4176  155.1062 H   0  0  0  0  0  0  0  0  0  0  0  0  # atno 10763 bound_to 10752
  154.8483  135.3491  154.6136 H   0  0  0  0  0  0  0  0  0  0  0  0  # atno 10764 bound_to 10752
  153.6556  135.7050  153.5252 H   0  0  0  0  0  0  0  0  0  0  0  0  # atno 10765 bound_to 10752
  141.1485  133.7919  157.0223 H   0  0  0  0  0  0  0  0  0  0  0  0  # atno 11005 bound_to 11000
  145.8602  140.9479  143.0704 LP  0  0  0  0  0  0  0  0  0  0  0  0  # atno 17320 bound_to 7965
  144.6748  140.0520  143.7478 LP  0  0  0  0  0  0  0  0  0  0  0  0  # atno 17321 bound_to 7965
  139.7835  144.7436  151.0054 LP  0  0  0  0  0  0  0  0  0  0  0  0  # atno 17342 bound_to 10162
  140.7817  143.4516  151.0404 LP  0  0  0  0  0  0  0  0  0  0  0  0  # atno 17343 bound_to 10162
  156.9385  130.9736  151.3520 LP  0  0  0  0  0  0  0  0  0  0  0  0  # atno 17370 bound_to 10713
  157.5858  130.8408  149.8587 LP  0  0  0  0  0  0  0  0  0  0  0  0  # atno 17371 bound_to 10713
  140.0807  134.9649  157.1620 LP  0  0  0  0  0  0  0  0  0  0  0  0  # atno 17394 bound_to 11000
  140.3580  134.2525  155.7190 LP  0  0  0  0  0  0  0  0  0  0  0  0  # atno 17395 bound_to 11000

$$$$
