AV-unprocessed.smi:3185|AV-procd|sdf|12171|dock8
  -GOLD-   2272018 13D 1   1.00000     0.00000
 Structure written by MMmdl.
 37 38  0  0  0  0  0  0  0  0  1 V2000
  153.5226  136.3832  160.3282 N   0  0  0  0  0  0  0  0  0  0  0  0
  153.9644  137.4522  160.3443 C   0  0  0  0  0  0  0  0  0  0  0  0
  154.5261  138.8110  160.3647 C   0  0  0  0  0  0  0  0  0  0  0  0
  154.2551  139.5423  161.6837 C   0  0  0  0  0  0  0  0  0  0  0  0
  154.1579  141.0597  161.4908 C   0  0  0  0  0  0  0  0  0  0  0  0
  153.3862  141.3464  160.2912 N   0  0  0  0  0  0  0  0  0  0  0  0
  153.1966  142.7780  160.0759 C   0  0  2  0  0  0  0  0  0  0  0  0
  152.1744  143.2918  161.1095 C   0  0  0  0  0  0  0  0  0  0  0  0
  151.9357  144.8007  160.9510 C   0  0  0  0  0  0  0  0  0  0  0  0
  151.4673  145.1505  159.5310 C   0  0  0  0  0  0  0  0  0  0  0  0
  152.4506  144.6256  158.4677 C   0  0  0  0  0  0  0  0  0  0  0  0
  152.7908  143.1225  158.6118 C   0  0  2  0  0  0  0  0  0  0  0  0
  151.7543  142.2483  158.0563 N   0  0  0  0  0  0  0  0  0  0  0  0
  150.5906  142.6325  157.4197 C   0  0  0  0  0  0  0  0  0  0  0  0
  149.9266  141.4997  157.0465 C   0  0  0  0  0  0  0  0  0  0  0  0
  150.7716  140.4510  157.5009 C   0  0  0  0  0  0  0  0  0  0  0  0
  151.8614  140.9009  158.0991 N   0  0  0  0  0  0  0  0  0  0  0  0
  155.5989  138.7314  160.1863 H   0  0  0  0  0  0  0  0  0  0  0  0
  154.0971  139.3623  159.5277 H   0  0  0  0  0  0  0  0  0  0  0  0
  153.3289  139.1662  162.1205 H   0  0  0  0  0  0  0  0  0  0  0  0
  155.0505  139.3114  162.3941 H   0  0  0  0  0  0  0  0  0  0  0  0
  153.6767  141.5173  162.3560 H   0  0  0  0  0  0  0  0  0  0  0  0
  155.1592  141.4816  161.4094 H   0  0  0  0  0  0  0  0  0  0  0  0
  153.8279  140.9355  159.4805 H   0  0  0  0  0  0  0  0  0  0  0  0
  154.1420  143.2774  160.2934 H   0  0  0  0  0  0  0  0  0  0  0  0
  151.2284  142.7575  161.0205 H   0  0  0  0  0  0  0  0  0  0  0  0
  152.5383  143.0916  162.1179 H   0  0  0  0  0  0  0  0  0  0  0  0
  151.1974  145.1383  161.6788 H   0  0  0  0  0  0  0  0  0  0  0  0
  152.8574  145.3398  161.1734 H   0  0  0  0  0  0  0  0  0  0  0  0
  150.4696  144.7473  159.3626 H   0  0  0  0  0  0  0  0  0  0  0  0
  151.3692  146.2320  159.4346 H   0  0  0  0  0  0  0  0  0  0  0  0
  152.0640  144.8304  157.4687 H   0  0  0  0  0  0  0  0  0  0  0  0
  153.3758  145.1972  158.5512 H   0  0  0  0  0  0  0  0  0  0  0  0
  153.6707  142.9633  157.9875 H   0  0  0  0  0  0  0  0  0  0  0  0
  150.3347  143.6727  157.2829 H   0  0  0  0  0  0  0  0  0  0  0  0
  148.9826  141.4314  156.5267 H   0  0  0  0  0  0  0  0  0  0  0  0
  150.6281  139.3842  157.4129 H   0  0  0  0  0  0  0  0  0  0  0  0
  1  2  3  0  0  0  0
  2  3  1  0  0  0  0
  3  4  1  0  0  0  0
  3 18  1  0  0  0  0
  3 19  1  0  0  0  0
  4  5  1  0  0  0  0
  4 20  1  0  0  0  0
  4 21  1  0  0  0  0
  5  6  1  0  0  0  0
  5 22  1  0  0  0  0
  5 23  1  0  0  0  0
  6  7  1  0  0  0  0
  6 24  1  0  0  0  0
  7 12  1  0  0  0  0
  7  8  1  0  0  0  0
  7 25  1  0  0  0  0
  8  9  1  0  0  0  0
  8 26  1  0  0  0  0
  8 27  1  0  0  0  0
  9 10  1  0  0  0  0
  9 28  1  0  0  0  0
  9 29  1  0  0  0  0
 10 11  1  0  0  0  0
 10 30  1  0  0  0  0
 10 31  1  0  0  0  0
 11 12  1  0  0  0  0
 11 32  1  0  0  0  0
 11 33  1  0  0  0  0
 12 13  1  0  0  0  0
 12 34  1  0  0  0  0
 13 17  1  0  0  0  0
 13 14  1  0  0  0  0
 14 15  2  0  0  0  0
 14 35  1  0  0  0  0
 15 16  1  0  0  0  0
 15 36  1  0  0  0  0
 16 17  2  0  0  0  0
 16 37  1  0  0  0  0
M  END
> <s_m_source_file>
AV-unprocessed.smi

> <i_m_source_file_index>
3185

> <i_lp_mmshare_version>
43012

> <i_f3d_flags>
0

> <s_epik_input>
TiNDW0NIMl1bQ0gyXVtDSDJdW05IXVtDQEBIXTFbQ0gyXVtDSDJdW0NIMl1bQ0gyXVtDQEhdMW4yW2NIXVtjSF1bY0hdbjI=

> <s_epik_cmdline>
J2VwaWtfcHl0aG9uJywgJy1waCcsICc3LjAnLCAnLXRuJywgJzgnLCAnLW1hJywgJzIwMCcsICctbWV0YWxfYmluZGluZycsICctaW1hZScsICc8aW5maWxlLm1hZT4nLCAnLW9tYWUnLCAnPG91dGZpbGUubWFlPic=

> <r_lp_tautomer_probability>
1

> <r_epik_Ionization_Penalty>
2.21326

> <r_epik_Ionization_Penalty_Charging>
0

> <r_epik_Ionization_Penalty_Neutral>
2.21326

> <r_epik_State_Penalty>
2.35651

> <r_epik_Charging_Adjusted_Penalty>
2.35651

> <i_epik_Tot_Q>
0

> <i_epik_Tot_abs_Q>
0

> <r_epik_Metal_State_Penalty>
2.3555

> <b_epik_Metal_Only>
0

> <s_lp_Force_Field>
OPLS_2005

> <r_lp_Energy>
17.6064

> <b_lp_Chiralities_Consistent>
1

> <s_lp_Variant>
AV-unprocessed.smi:3185-7

> <Gold.Version>
5.8.1

> <Gold.Id.Protein>
6NUR|6NUR_protein|mol2

> <Gold.PLP.Fitness>
44.6269

> <Gold.PLP.PLP>
-39.4761

> <Gold.PLP.part.hbond>
-1.0000

> <Gold.PLP.part.metal>
0.0000

> <Gold.PLP.part.buried>
-4.7373

> <Gold.PLP.part.nonpolar>
-33.6538

> <Gold.PLP.part.repulsive>
0.0000

> <Gold.PLP.ligand.clash>
0.0000

> <Gold.PLP.ligand.torsion>
0.4649

> <Gold.PLP.Chemscore.Hbond>
1.0000

> <Gold.PLP.Chemscore.CHOScore>
1.0000

> <Gold.PLP.Chemscore.Metal>
0.0000

> <Gold.Chemscore.Hbonds>
donor molecule, donor type, donor heavy atom, donor atom, acceptor molecule, acceptor atom, score
      P1  H  6896  6907       L1     1  1.00
      L1  C    14    35       P1  8028  1.00

> <Gold.PLP.Chemscore.Internal.Correction>
0.0806

> <Gold.Rescore>
     Score         DG    S(hbond)    S(metal)    S(lipo)     H(rot)  DE(clash)    DE(int)     intcor
     16.00     -17.95       1.00        0.00     117.63       1.81       0.01       1.93       ----

> <Gold.Chemscore.Fitness>
16.0022

> <Gold.Chemscore.DG>
-17.9465

> <Gold.Chemscore.ZeroCoef>
-5.4800

> <Gold.Chemscore.Hbond>
0.9999

> <Gold.Chemscore.Metal>
0.0000

> <Gold.Chemscore.Lipo>
117.6316

> <Gold.Chemscore.Internal_Hbond>
0.0000

> <Gold.Chemscore.DEClash>
0.0141

> <Gold.Chemscore.DEInternal>
1.9302

> <Gold.Chemscore.Rot>
1.8110

> <Gold.Chemscore.Internal.Correction>
   9.000000E+99

> <Gold.Chemscore.Hbonds>
donor molecule, donor type, donor heavy atom, donor atom, acceptor molecule, acceptor atom, score
      P1  H  6896  6907       L1     1  0.98

> <Gold.Chemscore.Hbond.Weighted>
-3.3398

> <Gold.Chemscore.Metal.Weighted>
-0.0000

> <Gold.Chemscore.Lipo.Weighted>
-13.7629

> <Gold.Chemscore.Internal_Hbond.Weighted>
0.0000

> <Gold.Chemscore.DEClash.Weighted>
0.0141

> <Gold.Chemscore.DEInternal.Weighted>
1.9302

> <Gold.Chemscore.Rot.Weighted>
4.6362

> <Gold.Chemscore.Internal.Correction.Weighted>
   9.000000E+99

> <Gold.Protein.RotatedTorsions>
[ 6907 6896 6895 6894 ] final   43.72 input  -60.11 | X-H torsion
[ 7974 7965 7964 7962 ] final  116.20 input  175.53 | X-H torsion
[ 8008 7997 7996 7995 ] final    8.82 input   59.86 | X-H torsion
[ 10167 10162 10161 10158 ] final  -51.47 input  -65.29 | X-H torsion
[ 10718 10713 10712 10709 ] final   46.12 input   66.30 | X-H torsion
[ 10763 10752 10751 10750 ] final   50.34 input  -60.55 | X-H torsion
[ 11005 11000 10999 10996 ] final  146.35 input  -57.11 | X-H torsion

> <Gold.Protein.ActiveResidues>
 VAL166  LYS551  ARG553  GLY616  TRP617  ASP618  TYR619  PRO620  LYS621  CYS622 
 ASP623  PHE694  ASN695  SER759  ASP760  ASP761  ALA762  ILE779  LEU786  VAL792 
 PHE793  MET794  SER795  GLU796  ALA797  LYS798  CYS799  TRP800  GLU811  SER814 

> <Gold.Protein.RotatedAtoms>
  152.2237  134.8388  160.0482 H   0  0  0  0  0  0  0  0  0  0  0  0  # atno 6907 bound_to 6896
  151.9162  133.3568  159.3889 H   0  0  0  0  0  0  0  0  0  0  0  0  # atno 6908 bound_to 6896
  150.7007  134.4607  159.5423 H   0  0  0  0  0  0  0  0  0  0  0  0  # atno 6909 bound_to 6896
  145.1825  139.3042  143.4410 H   0  0  0  0  0  0  0  0  0  0  0  0  # atno 7974 bound_to 7965
  154.7718  140.2803  155.6132 H   0  0  0  0  0  0  0  0  0  0  0  0  # atno 8008 bound_to 7997
  156.2935  140.2640  156.2450 H   0  0  0  0  0  0  0  0  0  0  0  0  # atno 8009 bound_to 7997
  154.9890  140.0374  157.2301 H   0  0  0  0  0  0  0  0  0  0  0  0  # atno 8010 bound_to 7997
  140.6587  143.2619  151.4508 H   0  0  0  0  0  0  0  0  0  0  0  0  # atno 10167 bound_to 10162
  157.4448  130.8102  149.7729 H   0  0  0  0  0  0  0  0  0  0  0  0  # atno 10718 bound_to 10713
  152.9785  135.5882  154.4237 H   0  0  0  0  0  0  0  0  0  0  0  0  # atno 10763 bound_to 10752
  154.3858  135.2767  155.2186 H   0  0  0  0  0  0  0  0  0  0  0  0  # atno 10764 bound_to 10752
  154.4080  135.6088  153.5990 H   0  0  0  0  0  0  0  0  0  0  0  0  # atno 10765 bound_to 10752
  140.0786  134.9110  157.1463 H   0  0  0  0  0  0  0  0  0  0  0  0  # atno 11005 bound_to 11000
  146.3450  140.2010  142.8589 LP  0  0  0  0  0  0  0  0  0  0  0  0  # atno 17320 bound_to 7965
  145.0122  140.8723  143.5217 LP  0  0  0  0  0  0  0  0  0  0  0  0  # atno 17321 bound_to 7965
  139.5815  144.1699  152.1974 LP  0  0  0  0  0  0  0  0  0  0  0  0  # atno 17342 bound_to 10162
  140.1025  144.5527  150.6979 LP  0  0  0  0  0  0  0  0  0  0  0  0  # atno 17343 bound_to 10162
  155.9963  130.3907  150.2785 LP  0  0  0  0  0  0  0  0  0  0  0  0  # atno 17370 bound_to 10713
  157.0953  131.0181  151.3106 LP  0  0  0  0  0  0  0  0  0  0  0  0  # atno 17371 bound_to 10713
  140.3521  134.2587  155.7197 LP  0  0  0  0  0  0  0  0  0  0  0  0  # atno 17394 bound_to 11000
  141.2038  133.7902  157.0318 LP  0  0  0  0  0  0  0  0  0  0  0  0  # atno 17395 bound_to 11000

$$$$
