AV-unprocessed.smi:1213|AV-procd|sdf|5091|dock6
  -GOLD-   22720 4143D 1   1.00000     0.00000
 Structure written by MMmdl.
 36 37  0  0  0  0  0  0  0  0  3 V2000
  148.9014  133.9061  153.5607 N   0  0  0  0  0  0  0  0  0  0  0  0
  148.9141  134.1487  154.8736 C   0  0  0  0  0  0  0  0  0  0  0  0
  149.3701  133.3444  155.6844 O   0  0  0  0  0  0  0  0  0  0  0  0
  148.3517  135.4981  155.3326 C   0  0  0  0  0  0  0  0  0  0  0  0
  149.0080  136.6576  154.6750 N   0  3  2  0  0  0  0  0  0  0  0  0
  150.4464  136.7907  155.0310 C   0  0  0  0  0  0  0  0  0  0  0  0
  151.1138  137.9255  154.2344 C   0  0  0  0  0  0  0  0  0  0  0  0
  150.3830  139.2684  154.4316 C   0  0  2  0  0  0  0  0  0  0  0  0
  150.5391  139.7742  155.7949 N   0  0  0  0  0  0  0  0  0  0  0  0
  151.6943  139.9605  156.4482 C   0  0  0  0  0  0  0  0  0  0  0  0
  152.7654  139.7128  155.8904 O   0  0  0  0  0  0  0  0  0  0  0  0
  151.5306  140.4148  157.7109 N   0  5  0  0  0  0  0  0  0  0  0  0
  151.6764  141.7224  157.9793 C   0  0  0  0  0  0  0  0  0  0  0  0
  151.0510  142.6826  157.2892 N   0  0  0  0  0  0  0  0  0  0  0  0
  151.3384  143.9704  157.7453 C   0  0  0  0  0  0  0  0  0  0  0  0
  152.1971  143.9907  158.8121 C   0  0  0  0  0  0  0  0  0  0  0  0
  152.6719  142.3829  159.2800 S   0  0  0  0  0  0  0  0  0  0  0  0
  148.8913  139.0885  154.1035 C   0  0  0  0  0  0  0  0  0  0  0  0
  148.2659  137.9255  154.8965 C   0  0  0  0  0  0  0  0  0  0  0  0
  149.2632  133.0308  153.2092 H   0  0  0  0  0  0  0  0  0  0  0  0
  148.5333  134.5951  152.9205 H   0  0  0  0  0  0  0  0  0  0  0  0
  147.2890  135.4903  155.0870 H   0  0  0  0  0  0  0  0  0  0  0  0
  148.4213  135.5953  156.4174 H   0  0  0  0  0  0  0  0  0  0  0  0
  150.5436  136.9740  156.1024 H   0  0  0  0  0  0  0  0  0  0  0  0
  150.9714  135.8576  154.8257 H   0  0  0  0  0  0  0  0  0  0  0  0
  152.1634  138.0128  154.5169 H   0  0  0  0  0  0  0  0  0  0  0  0
  151.1096  137.6679  153.1746 H   0  0  0  0  0  0  0  0  0  0  0  0
  150.7993  140.0073  153.7447 H   0  0  0  0  0  0  0  0  0  0  0  0
  149.6933  140.0060  156.2944 H   0  0  0  0  0  0  0  0  0  0  0  0
  150.8852  144.8167  157.2509 H   0  0  0  0  0  0  0  0  0  0  0  0
  152.5754  144.8466  159.3501 H   0  0  0  0  0  0  0  0  0  0  0  0
  148.3472  140.0129  154.3019 H   0  0  0  0  0  0  0  0  0  0  0  0
  148.7794  138.8946  153.0358 H   0  0  0  0  0  0  0  0  0  0  0  0
  147.2280  137.8026  154.5851 H   0  0  0  0  0  0  0  0  0  0  0  0
  148.2492  138.1561  155.9631 H   0  0  0  0  0  0  0  0  0  0  0  0
  148.9678  136.4766  153.6819 H   0  0  0  0  0  0  0  0  0  0  0  0
  1  2  1  0  0  0  0
  1 20  1  0  0  0  0
  1 21  1  0  0  0  0
  2  3  2  0  0  0  0
  2  4  1  0  0  0  0
  4  5  1  0  0  0  0
  4 22  1  0  0  0  0
  4 23  1  0  0  0  0
  5 19  1  0  0  0  0
  5  6  1  0  0  0  0
  5 36  1  0  0  0  0
  6  7  1  0  0  0  0
  6 24  1  0  0  0  0
  6 25  1  0  0  0  0
  7  8  1  0  0  0  0
  7 26  1  0  0  0  0
  7 27  1  0  0  0  0
  8  9  1  0  0  0  0
  8 18  1  0  0  0  0
  8 28  1  0  0  0  0
  9 10  1  0  0  0  0
  9 29  1  0  0  0  0
 10 11  2  0  0  0  0
 10 12  1  0  0  0  0
 12 13  1  0  0  0  0
 13 17  1  0  0  0  0
 13 14  2  0  0  0  0
 14 15  1  0  0  0  0
 15 16  2  0  0  0  0
 15 30  1  0  0  0  0
 16 17  1  0  0  0  0
 16 31  1  0  0  0  0
 18 19  1  0  0  0  0
 18 32  1  0  0  0  0
 18 33  1  0  0  0  0
 19 34  1  0  0  0  0
 19 35  1  0  0  0  0
M  CHG  1   5   1
M  CHG  1  12  -1
M  END
> <s_m_source_file>
AV-unprocessed.smi

> <i_m_source_file_index>
1213

> <i_lp_mmshare_version>
43012

> <i_f3d_flags>
0

> <s_epik_input>
W05IMl1DKD1PKVtDSDJdTjFbQ0gyXVtDSDJdW0NIXShbQ0gyXVtDSDJdMSlbTkhdQyg9TylbTkhdYzJuW2NIXVtjSF1zMg==

> <s_epik_cmdline>
J2VwaWtfcHl0aG9uJywgJy1waCcsICc3LjAnLCAnLXRuJywgJzgnLCAnLW1hJywgJzIwMCcsICctbWV0YWxfYmluZGluZycsICctaW1hZScsICc8aW5maWxlLm1hZT4nLCAnLW9tYWUnLCAnPG91dGZpbGUubWFlPic=

> <r_lp_tautomer_probability>
0.999

> <r_epik_Ionization_Penalty>
7.1168

> <r_epik_Ionization_Penalty_Charging>
6.25003

> <r_epik_Ionization_Penalty_Neutral>
0.866763

> <r_epik_State_Penalty>
6.33484

> <r_epik_Charging_Adjusted_Penalty>
12.5849

> <i_epik_Tot_Q>
0

> <i_epik_Tot_abs_Q>
2

> <r_epik_Metal_State_Penalty>
2.3501

> <b_epik_Metal_Only>
1

> <s_lp_Force_Field>
OPLS_2005

> <r_lp_Energy>
4.12503

> <b_lp_Chiralities_Consistent>
1

> <s_lp_Variant>
AV-unprocessed.smi:1213-8

> <Gold.Version>
5.8.1

> <Gold.Id.Protein>
6NUR|6NUR_protein|mol2

> <Gold.PLP.Fitness>
44.5819

> <Gold.PLP.PLP>
-32.6101

> <Gold.PLP.part.hbond>
-3.0000

> <Gold.PLP.part.metal>
0.0000

> <Gold.PLP.part.buried>
-2.7195

> <Gold.PLP.part.nonpolar>
-27.0136

> <Gold.PLP.part.repulsive>
0.1899

> <Gold.PLP.ligand.clash>
0.0000

> <Gold.PLP.ligand.torsion>
1.2709

> <Gold.PLP.Chemscore.Hbond>
3.8800

> <Gold.PLP.Chemscore.CHOScore>
0.9465

> <Gold.PLP.Chemscore.Metal>
0.0000

> <Gold.Chemscore.Hbonds>
donor molecule, donor type, donor heavy atom, donor atom, acceptor molecule, acceptor atom, score
      L1  H     1    21       P1  7948  0.88
      L1  H     5    36       P1  7948  2.00
      P1  H  7997  8010       L1    11  1.00
      L1  C    15    30       P1  8028  0.94

> <Gold.PLP.Chemscore.Internal.Correction>
0.0340

> <Gold.Rescore>
     Score         DG    S(hbond)    S(metal)    S(lipo)     H(rot)  DE(clash)    DE(int)     intcor
     14.75     -16.99       2.60        0.00      68.74       2.04       0.05       2.19       ----

> <Gold.Chemscore.Fitness>
14.7511

> <Gold.Chemscore.DG>
-16.9908

> <Gold.Chemscore.ZeroCoef>
-5.4800

> <Gold.Chemscore.Hbond>
2.5997

> <Gold.Chemscore.Metal>
0.0000

> <Gold.Chemscore.Lipo>
68.7439

> <Gold.Chemscore.Internal_Hbond>
0.0000

> <Gold.Chemscore.DEClash>
0.0482

> <Gold.Chemscore.DEInternal>
2.1915

> <Gold.Chemscore.Rot>
2.0373

> <Gold.Chemscore.Internal.Correction>
   9.000000E+99

> <Gold.Chemscore.Hbonds>
donor molecule, donor type, donor heavy atom, donor atom, acceptor molecule, acceptor atom, score
      L1  H     1    21       P1  7948  0.22
      L1  H     5    36       P1  7948  1.00
      P1  H  7997  8010       L1    11  1.00

> <Gold.Chemscore.Hbond.Weighted>
-8.6831

> <Gold.Chemscore.Metal.Weighted>
-0.0000

> <Gold.Chemscore.Lipo.Weighted>
-8.0430

> <Gold.Chemscore.Internal_Hbond.Weighted>
0.0000

> <Gold.Chemscore.DEClash.Weighted>
0.0482

> <Gold.Chemscore.DEInternal.Weighted>
2.1915

> <Gold.Chemscore.Rot.Weighted>
5.2154

> <Gold.Chemscore.Internal.Correction.Weighted>
   9.000000E+99

> <Gold.Protein.RotatedTorsions>
[ 6907 6896 6895 6894 ] final   11.55 input  -60.11 | X-H torsion
[ 7974 7965 7964 7962 ] final  -19.51 input  175.53 | X-H torsion
[ 8008 7997 7996 7995 ] final   97.76 input   59.86 | X-H torsion
[ 10167 10162 10161 10158 ] final  128.15 input  -65.29 | X-H torsion
[ 10718 10713 10712 10709 ] final   23.76 input   66.30 | X-H torsion
[ 10763 10752 10751 10750 ] final -109.18 input  -60.55 | X-H torsion
[ 11005 11000 10999 10996 ] final   55.08 input  -57.11 | X-H torsion

> <Gold.Protein.ActiveResidues>
 VAL166  LYS551  ARG553  GLY616  TRP617  ASP618  TYR619  PRO620  LYS621  CYS622 
 ASP623  PHE694  ASN695  SER759  ASP760  ASP761  ALA762  ILE779  LEU786  VAL792 
 PHE793  MET794  SER795  GLU796  ALA797  LYS798  CYS799  TRP800  GLU811  SER814 

> <Gold.Protein.RotatedAtoms>
  151.7560  135.0821  160.0338 H   0  0  0  0  0  0  0  0  0  0  0  0  # atno 6907 bound_to 6896
  152.3385  133.6035  159.5868 H   0  0  0  0  0  0  0  0  0  0  0  0  # atno 6908 bound_to 6896
  150.7464  133.9675  159.3577 H   0  0  0  0  0  0  0  0  0  0  0  0  # atno 6909 bound_to 6896
  146.1838  140.4071  142.8484 H   0  0  0  0  0  0  0  0  0  0  0  0  # atno 7974 bound_to 7965
  156.0935  140.3253  155.7847 H   0  0  0  0  0  0  0  0  0  0  0  0  # atno 8008 bound_to 7997
  155.4957  140.0565  157.2964 H   0  0  0  0  0  0  0  0  0  0  0  0  # atno 8009 bound_to 7997
  154.4652  140.1986  156.0153 H   0  0  0  0  0  0  0  0  0  0  0  0  # atno 8010 bound_to 7997
  139.5542  144.6836  151.4233 H   0  0  0  0  0  0  0  0  0  0  0  0  # atno 10167 bound_to 10162
  157.1705  130.6757  149.6076 H   0  0  0  0  0  0  0  0  0  0  0  0  # atno 10718 bound_to 10713
  154.8178  135.4610  154.0693 H   0  0  0  0  0  0  0  0  0  0  0  0  # atno 10763 bound_to 10752
  153.2071  135.6877  153.8165 H   0  0  0  0  0  0  0  0  0  0  0  0  # atno 10764 bound_to 10752
  153.7630  135.3281  155.3317 H   0  0  0  0  0  0  0  0  0  0  0  0  # atno 10765 bound_to 10752
  140.0635  134.5569  155.9125 H   0  0  0  0  0  0  0  0  0  0  0  0  # atno 11005 bound_to 11000
  144.8360  140.6783  143.6260 LP  0  0  0  0  0  0  0  0  0  0  0  0  # atno 17320 bound_to 7965
  145.4000  139.1599  143.4182 LP  0  0  0  0  0  0  0  0  0  0  0  0  # atno 17321 bound_to 7965
  140.6811  143.8079  150.7123 LP  0  0  0  0  0  0  0  0  0  0  0  0  # atno 17342 bound_to 10162
  140.1533  143.4339  152.2117 LP  0  0  0  0  0  0  0  0  0  0  0  0  # atno 17343 bound_to 10162
  155.9739  130.4680  150.6346 LP  0  0  0  0  0  0  0  0  0  0  0  0  # atno 17370 bound_to 10713
  157.4047  131.0815  151.1276 LP  0  0  0  0  0  0  0  0  0  0  0  0  # atno 17371 bound_to 10713
  141.1983  133.6601  156.5785 LP  0  0  0  0  0  0  0  0  0  0  0  0  # atno 17394 bound_to 11000
  140.3734  134.7586  157.4614 LP  0  0  0  0  0  0  0  0  0  0  0  0  # atno 17395 bound_to 11000

$$$$
