AV-unprocessed.smi:1872|AV-procd|sdf|7605|dock9
  -GOLD-   22720 9323D 1   1.00000     0.00000
 Structure written by MMmdl.
 40 42  0  0  0  0  0  0  0  0  2 V2000
  149.3921  141.1873  154.6133 C   0  0  0  0  0  0  0  0  0  0  0  0
  150.1946  141.5558  155.8157 C   0  0  0  0  0  0  0  0  0  0  0  0
  150.2600  142.7898  156.3898 N   0  3  0  0  0  0  0  0  0  0  0  0
  151.1131  142.7524  157.4935 C   0  0  0  0  0  0  0  0  0  0  0  0
  151.4925  143.7514  158.3849 C   0  0  0  0  0  0  0  0  0  0  0  0
  152.3849  143.3783  159.4111 C   0  0  0  0  0  0  0  0  0  0  0  0
  152.8631  142.0566  159.5233 C   0  0  0  0  0  0  0  0  0  0  0  0
  152.4713  141.0525  158.6137 C   0  0  0  0  0  0  0  0  0  0  0  0
  151.5907  141.4296  157.5995 C   0  0  0  0  0  0  0  0  0  0  0  0
  150.9978  140.7279  156.5423 N   0  0  0  0  0  0  0  0  0  0  0  0
  151.2898  139.2975  156.3570 C   0  0  0  0  0  0  0  0  0  0  0  0
  150.4267  138.3869  157.2529 C   0  0  2  0  0  0  0  0  0  0  0  0
  150.9293  138.3855  158.5752 O   0  0  0  0  0  0  0  0  0  0  0  0
  150.3258  136.9845  156.6745 C   0  0  0  0  0  0  0  0  0  0  0  0
  150.9402  136.6847  155.4409 C   0  0  0  0  0  0  0  0  0  0  0  0
  150.8604  135.3849  154.9055 C   0  0  0  0  0  0  0  0  0  0  0  0
  150.1628  134.3686  155.5886 C   0  0  0  0  0  0  0  0  0  0  0  0
  150.1332  133.1150  155.0208 O   0  0  0  0  0  0  0  0  0  0  0  0
  148.9406  132.5846  154.6401 C   0  0  0  0  0  0  0  0  0  0  0  0
  148.5992  133.0574  153.4172 F   0  0  0  0  0  0  0  0  0  0  0  0
  149.0306  131.2352  154.5467 F   0  0  0  0  0  0  0  0  0  0  0  0
  149.5585  134.6674  156.8333 C   0  0  0  0  0  0  0  0  0  0  0  0
  149.6385  135.9667  157.3700 C   0  0  0  0  0  0  0  0  0  0  0  0
  148.8454  142.0522  154.2372 H   0  0  0  0  0  0  0  0  0  0  0  0
  148.6750  140.4054  154.8635 H   0  0  0  0  0  0  0  0  0  0  0  0
  150.0467  140.8201  153.8227 H   0  0  0  0  0  0  0  0  0  0  0  0
  151.1260  144.7642  158.3018 H   0  0  0  0  0  0  0  0  0  0  0  0
  152.7077  144.1201  160.1273 H   0  0  0  0  0  0  0  0  0  0  0  0
  153.5438  141.8067  160.3242 H   0  0  0  0  0  0  0  0  0  0  0  0
  152.8400  140.0427  158.7143 H   0  0  0  0  0  0  0  0  0  0  0  0
  151.1025  139.0660  155.3078 H   0  0  0  0  0  0  0  0  0  0  0  0
  152.3535  139.1214  156.5177 H   0  0  0  0  0  0  0  0  0  0  0  0
  149.4202  138.8038  157.3070 H   0  0  0  0  0  0  0  0  0  0  0  0
  151.0745  137.4893  158.8383 H   0  0  0  0  0  0  0  0  0  0  0  0
  151.4788  137.4494  154.9005 H   0  0  0  0  0  0  0  0  0  0  0  0
  151.3370  135.1663  153.9610 H   0  0  0  0  0  0  0  0  0  0  0  0
  148.1419  132.8481  155.3338 H   0  0  0  0  0  0  0  0  0  0  0  0
  149.0355  133.9057  157.3921 H   0  0  0  0  0  0  0  0  0  0  0  0
  149.1742  136.1772  158.3224 H   0  0  0  0  0  0  0  0  0  0  0  0
  149.7562  143.5988  156.0492 H   0  0  0  0  0  0  0  0  0  0  0  0
  1  2  1  0  0  0  0
  1 24  1  0  0  0  0
  1 25  1  0  0  0  0
  1 26  1  0  0  0  0
  2 10  1  0  0  0  0
  2  3  2  0  0  0  0
  3  4  1  0  0  0  0
  3 40  1  0  0  0  0
  4  9  2  0  0  0  0
  4  5  1  0  0  0  0
  5  6  2  0  0  0  0
  5 27  1  0  0  0  0
  6  7  1  0  0  0  0
  6 28  1  0  0  0  0
  7  8  2  0  0  0  0
  7 29  1  0  0  0  0
  8  9  1  0  0  0  0
  8 30  1  0  0  0  0
  9 10  1  0  0  0  0
 10 11  1  0  0  0  0
 11 12  1  0  0  0  0
 11 31  1  0  0  0  0
 11 32  1  0  0  0  0
 12 13  1  0  0  0  0
 12 14  1  0  0  0  0
 12 33  1  0  0  0  0
 13 34  1  0  0  0  0
 14 23  1  0  0  0  0
 14 15  2  0  0  0  0
 15 16  1  0  0  0  0
 15 35  1  0  0  0  0
 16 17  2  0  0  0  0
 16 36  1  0  0  0  0
 17 18  1  0  0  0  0
 17 22  1  0  0  0  0
 18 19  1  0  0  0  0
 19 20  1  0  0  0  0
 19 21  1  0  0  0  0
 19 37  1  0  0  0  0
 22 23  2  0  0  0  0
 22 38  1  0  0  0  0
 23 39  1  0  0  0  0
M  CHG  1   3   1
M  END
> <s_m_source_file>
AV-unprocessed.smi

> <i_m_source_file_index>
1872

> <i_lp_mmshare_version>
43012

> <i_f3d_flags>
0

> <s_epik_input>
W2NIXTFbY0hdW2NIXVtjSF1jKGMxMiluKGMobjIpW0NIM10pW0NIMl1bQ0BIXShbT0hdKWMzW2NIXVtjSF1jKE9bQ0hdKEYpRilbY0hdW2NIXTM=

> <s_epik_cmdline>
J2VwaWtfcHl0aG9uJywgJy1waCcsICc3LjAnLCAnLXRuJywgJzgnLCAnLW1hJywgJzIwMCcsICctbWV0YWxfYmluZGluZycsICctaW1hZScsICc8aW5maWxlLm1hZT4nLCAnLW9tYWUnLCAnPG91dGZpbGUubWFlPic=

> <r_lp_tautomer_probability>
1

> <r_epik_Ionization_Penalty>
0.963868

> <r_epik_Ionization_Penalty_Charging>
0.963868

> <r_epik_Ionization_Penalty_Neutral>
2.50501e-07

> <r_epik_State_Penalty>
1.00924

> <r_epik_Charging_Adjusted_Penalty>
1.9731

> <i_epik_Tot_Q>
1

> <i_epik_Tot_abs_Q>
1

> <r_epik_Metal_State_Penalty>
4.98304

> <b_epik_Metal_Only>
0

> <s_lp_Force_Field>
OPLS_2005

> <r_lp_Energy>
14.3509

> <b_lp_Chiralities_Consistent>
1

> <s_lp_Variant>
AV-unprocessed.smi:1872-3

> <Gold.Version>
5.8.1

> <Gold.Id.Protein>
6NUR|6NUR_protein|mol2

> <Gold.PLP.Fitness>
46.4290

> <Gold.PLP.PLP>
-42.0095

> <Gold.PLP.part.hbond>
-1.0000

> <Gold.PLP.part.metal>
0.0000

> <Gold.PLP.part.buried>
-3.9178

> <Gold.PLP.part.nonpolar>
-36.8584

> <Gold.PLP.part.repulsive>
0.1343

> <Gold.PLP.ligand.clash>
0.0000

> <Gold.PLP.ligand.torsion>
0.8073

> <Gold.PLP.Chemscore.Hbond>
2.0000

> <Gold.PLP.Chemscore.CHOScore>
0.0000

> <Gold.PLP.Chemscore.Metal>
0.0000

> <Gold.Chemscore.Hbonds>
donor molecule, donor type, donor heavy atom, donor atom, acceptor molecule, acceptor atom, score
      L1  H     3    40       P1  8028  1.69

> <Gold.PLP.Chemscore.Internal.Correction>
0.0341

> <Gold.Rescore>
     Score         DG    S(hbond)    S(metal)    S(lipo)     H(rot)  DE(clash)    DE(int)     intcor
     14.55     -15.37       1.00        0.00     106.91       2.32       0.01       0.81       ----

> <Gold.Chemscore.Fitness>
14.5531

> <Gold.Chemscore.DG>
-15.3736

> <Gold.Chemscore.ZeroCoef>
-5.4800

> <Gold.Chemscore.Hbond>
0.9950

> <Gold.Chemscore.Metal>
0.0000

> <Gold.Chemscore.Lipo>
106.9073

> <Gold.Chemscore.Internal_Hbond>
0.0000

> <Gold.Chemscore.DEClash>
0.0063

> <Gold.Chemscore.DEInternal>
0.8142

> <Gold.Chemscore.Rot>
2.3195

> <Gold.Chemscore.Internal.Correction>
   9.000000E+99

> <Gold.Chemscore.Hbonds>
donor molecule, donor type, donor heavy atom, donor atom, acceptor molecule, acceptor atom, score
      L1  H     3    40       P1  8028  0.82

> <Gold.Chemscore.Hbond.Weighted>
-3.3234

> <Gold.Chemscore.Metal.Weighted>
-0.0000

> <Gold.Chemscore.Lipo.Weighted>
-12.5082

> <Gold.Chemscore.Internal_Hbond.Weighted>
0.0000

> <Gold.Chemscore.DEClash.Weighted>
0.0063

> <Gold.Chemscore.DEInternal.Weighted>
0.8142

> <Gold.Chemscore.Rot.Weighted>
5.9379

> <Gold.Chemscore.Internal.Correction.Weighted>
   9.000000E+99

> <Gold.Protein.RotatedTorsions>
[ 6907 6896 6895 6894 ] final -153.84 input  -60.11 | X-H torsion
[ 7974 7965 7964 7962 ] final -135.77 input  175.53 | X-H torsion
[ 8008 7997 7996 7995 ] final  -27.51 input   59.86 | X-H torsion
[ 10167 10162 10161 10158 ] final -167.83 input  -65.29 | X-H torsion
[ 10718 10713 10712 10709 ] final  -85.94 input   66.30 | X-H torsion
[ 10763 10752 10751 10750 ] final -179.54 input  -60.55 | X-H torsion
[ 11005 11000 10999 10996 ] final -107.02 input  -57.11 | X-H torsion

> <Gold.Protein.ActiveResidues>
 VAL166  LYS551  ARG553  GLY616  TRP617  ASP618  TYR619  PRO620  LYS621  CYS622 
 ASP623  PHE694  ASN695  SER759  ASP760  ASP761  ALA762  ILE779  LEU786  VAL792 
 PHE793  MET794  SER795  GLU796  ALA797  LYS798  CYS799  TRP800  GLU811  SER814 

> <Gold.Protein.RotatedAtoms>
  151.2486  133.4362  159.2610 H   0  0  0  0  0  0  0  0  0  0  0  0  # atno 6907 bound_to 6896
  151.0638  134.9754  159.8284 H   0  0  0  0  0  0  0  0  0  0  0  0  # atno 6908 bound_to 6896
  152.5402  134.2435  159.8924 H   0  0  0  0  0  0  0  0  0  0  0  0  # atno 6909 bound_to 6896
  144.8985  140.6739  143.5100 H   0  0  0  0  0  0  0  0  0  0  0  0  # atno 7974 bound_to 7965
  154.4374  140.1870  156.0943 H   0  0  0  0  0  0  0  0  0  0  0  0  # atno 8008 bound_to 7997
  156.0341  140.3327  155.7146 H   0  0  0  0  0  0  0  0  0  0  0  0  # atno 8009 bound_to 7997
  155.5796  140.0620  157.2777 H   0  0  0  0  0  0  0  0  0  0  0  0  # atno 8010 bound_to 7997
  139.6024  144.0984  152.1757 H   0  0  0  0  0  0  0  0  0  0  0  0  # atno 10167 bound_to 10162
  155.9993  130.4748  150.4640 H   0  0  0  0  0  0  0  0  0  0  0  0  # atno 10718 bound_to 10713
  154.5338  135.2801  155.1156 H   0  0  0  0  0  0  0  0  0  0  0  0  # atno 10763 bound_to 10752
  154.2666  135.6311  153.5298 H   0  0  0  0  0  0  0  0  0  0  0  0  # atno 10764 bound_to 10752
  152.9963  135.5618  154.5859 H   0  0  0  0  0  0  0  0  0  0  0  0  # atno 10765 bound_to 10752
  141.0975  133.8944  157.1926 H   0  0  0  0  0  0  0  0  0  0  0  0  # atno 11005 bound_to 11000
  145.3658  139.1670  143.4359 LP  0  0  0  0  0  0  0  0  0  0  0  0  # atno 17320 bound_to 7965
  146.3095  140.3725  142.8675 LP  0  0  0  0  0  0  0  0  0  0  0  0  # atno 17321 bound_to 7965
  140.0583  144.5877  150.7283 LP  0  0  0  0  0  0  0  0  0  0  0  0  # atno 17342 bound_to 10162
  140.7259  143.2636  151.4121 LP  0  0  0  0  0  0  0  0  0  0  0  0  # atno 17343 bound_to 10162
  157.2661  131.0577  151.2289 LP  0  0  0  0  0  0  0  0  0  0  0  0  # atno 17370 bound_to 10713
  157.3387  130.7022  149.6368 LP  0  0  0  0  0  0  0  0  0  0  0  0  # atno 17371 bound_to 10713
  139.9816  135.0096  156.9764 LP  0  0  0  0  0  0  0  0  0  0  0  0  # atno 17394 bound_to 11000
  140.5103  134.1008  155.7269 LP  0  0  0  0  0  0  0  0  0  0  0  0  # atno 17395 bound_to 11000

$$$$
