AV-unprocessed.smi:1426|AV-procd|sdf|5807|dock2
  -GOLD-   22720 5463D 1   1.00000     0.00000
 Structure written by MMmdl.
 44 46  0  0  0  0  0  0  0  0  2 V2000
  154.1982  141.8100  160.9911 O   0  0  0  0  0  0  0  0  0  0  0  0
  153.5665  141.0599  160.2472 C   0  0  0  0  0  0  0  0  0  0  0  0
  153.8171  139.7488  160.1289 N   0  0  0  0  0  0  0  0  0  0  0  0
  154.8639  139.0276  160.8460 C   0  0  0  0  0  0  0  0  0  0  0  0
  154.3013  137.8629  161.6899 C   0  0  2  0  0  0  0  0  0  0  0  0
  155.2632  136.6916  161.8354 C   0  0  0  0  0  0  0  0  0  0  0  0
  154.9329  135.7887  160.6428 C   0  0  0  0  0  0  0  0  0  0  0  0
  153.7189  136.2844  160.0873 O   0  0  0  0  0  0  0  0  0  0  0  0
  153.1173  137.1803  161.0093 C   0  0  0  0  0  0  0  0  0  0  0  0
  152.5630  141.4385  159.4381 N   0  0  0  0  0  0  0  0  0  0  0  0
  152.0289  142.7454  159.2517 C   0  0  0  0  0  0  0  0  0  0  0  0
  152.4371  143.8321  160.0676 C   0  0  0  0  0  0  0  0  0  0  0  0
  151.9063  145.1166  159.8454 C   0  0  0  0  0  0  0  0  0  0  0  0
  150.9706  145.2964  158.8127 C   0  0  0  0  0  0  0  0  0  0  0  0
  150.5871  144.2398  158.0672 N   0  3  0  0  0  0  0  0  0  0  0  0
  151.0499  142.9765  158.2415 C   0  0  0  0  0  0  0  0  0  0  0  0
  150.5445  141.9664  157.3916 N   0  0  0  0  0  0  0  0  0  0  0  0
  151.0305  141.8433  156.0222 C   0  0  0  0  0  0  0  0  0  0  0  0
  150.0395  140.9090  155.3341 C   0  0  0  0  0  0  0  0  0  0  0  0
  148.7180  141.2893  155.9955 C   0  0  0  0  0  0  0  0  0  0  0  0
  149.1181  141.6587  157.4283 C   0  0  0  0  0  0  0  0  0  0  0  0
  153.2494  139.2078  159.4930 H   0  0  0  0  0  0  0  0  0  0  0  0
  155.6039  138.6558  160.1353 H   0  0  0  0  0  0  0  0  0  0  0  0
  155.3871  139.7393  161.4855 H   0  0  0  0  0  0  0  0  0  0  0  0
  154.0031  138.2420  162.6683 H   0  0  0  0  0  0  0  0  0  0  0  0
  156.3132  136.9836  161.8638 H   0  0  0  0  0  0  0  0  0  0  0  0
  155.0484  136.1590  162.7628 H   0  0  0  0  0  0  0  0  0  0  0  0
  155.7148  135.8267  159.8839 H   0  0  0  0  0  0  0  0  0  0  0  0
  154.8141  134.7507  160.9548 H   0  0  0  0  0  0  0  0  0  0  0  0
  152.5367  136.6076  161.7342 H   0  0  0  0  0  0  0  0  0  0  0  0
  152.4431  137.8787  160.5124 H   0  0  0  0  0  0  0  0  0  0  0  0
  152.2089  140.7301  158.8123 H   0  0  0  0  0  0  0  0  0  0  0  0
  153.1480  143.6998  160.8690 H   0  0  0  0  0  0  0  0  0  0  0  0
  152.2149  145.9509  160.4584 H   0  0  0  0  0  0  0  0  0  0  0  0
  150.5132  146.2440  158.5669 H   0  0  0  0  0  0  0  0  0  0  0  0
  151.0223  142.8144  155.5255 H   0  0  0  0  0  0  0  0  0  0  0  0
  152.0466  141.4488  155.9933 H   0  0  0  0  0  0  0  0  0  0  0  0
  150.0254  141.0267  154.2503 H   0  0  0  0  0  0  0  0  0  0  0  0
  150.2853  139.8704  155.5608 H   0  0  0  0  0  0  0  0  0  0  0  0
  148.2980  142.1628  155.4947 H   0  0  0  0  0  0  0  0  0  0  0  0
  147.9764  140.4910  155.9552 H   0  0  0  0  0  0  0  0  0  0  0  0
  148.9584  140.8067  158.0901 H   0  0  0  0  0  0  0  0  0  0  0  0
  148.5268  142.4968  157.8011 H   0  0  0  0  0  0  0  0  0  0  0  0
  149.8987  144.4005  157.3318 H   0  0  0  0  0  0  0  0  0  0  0  0
  1  2  2  0  0  0  0
  2  3  1  0  0  0  0
  2 10  1  0  0  0  0
  3  4  1  0  0  0  0
  3 22  1  0  0  0  0
  4  5  1  0  0  0  0
  4 23  1  0  0  0  0
  4 24  1  0  0  0  0
  5  9  1  0  0  0  0
  5  6  1  0  0  0  0
  5 25  1  0  0  0  0
  6  7  1  0  0  0  0
  6 26  1  0  0  0  0
  6 27  1  0  0  0  0
  7  8  1  0  0  0  0
  7 28  1  0  0  0  0
  7 29  1  0  0  0  0
  8  9  1  0  0  0  0
  9 30  1  0  0  0  0
  9 31  1  0  0  0  0
 10 11  1  0  0  0  0
 10 32  1  0  0  0  0
 11 16  1  0  0  0  0
 11 12  2  0  0  0  0
 12 13  1  0  0  0  0
 12 33  1  0  0  0  0
 13 14  2  0  0  0  0
 13 34  1  0  0  0  0
 14 15  1  0  0  0  0
 14 35  1  0  0  0  0
 15 16  2  0  0  0  0
 15 44  1  0  0  0  0
 16 17  1  0  0  0  0
 17 21  1  0  0  0  0
 17 18  1  0  0  0  0
 18 19  1  0  0  0  0
 18 36  1  0  0  0  0
 18 37  1  0  0  0  0
 19 20  1  0  0  0  0
 19 38  1  0  0  0  0
 19 39  1  0  0  0  0
 20 21  1  0  0  0  0
 20 40  1  0  0  0  0
 20 41  1  0  0  0  0
 21 42  1  0  0  0  0
 21 43  1  0  0  0  0
M  CHG  1  15   1
M  END
> <s_m_source_file>
AV-unprocessed.smi

> <i_m_source_file_index>
1426

> <i_lp_mmshare_version>
43012

> <i_f3d_flags>
0

> <s_epik_input>
W0NIMl0xT1tDSDJdW0NIMl1bQ0BIXTFbQ0gyXVtOSF1DKD1PKVtOSF1jMltjSF1bY0hdW2NIXW5jMk4zW0NIMl1bQ0gyXVtDSDJdW0NIMl0z

> <s_epik_cmdline>
J2VwaWtfcHl0aG9uJywgJy1waCcsICc3LjAnLCAnLXRuJywgJzgnLCAnLW1hJywgJzIwMCcsICctbWV0YWxfYmluZGluZycsICctaW1hZScsICc8aW5maWxlLm1hZT4nLCAnLW9tYWUnLCAnPG91dGZpbGUubWFlPic=

> <r_lp_tautomer_probability>
0.999994

> <r_epik_Ionization_Penalty>
1.10677

> <r_epik_Ionization_Penalty_Charging>
1.10675

> <r_epik_Ionization_Penalty_Neutral>
2.02663e-05

> <r_epik_State_Penalty>
1.16438

> <r_epik_Charging_Adjusted_Penalty>
2.27113

> <i_epik_Tot_Q>
1

> <i_epik_Tot_abs_Q>
1

> <r_epik_Metal_State_Penalty>
1.25078

> <b_epik_Metal_Only>
0

> <s_lp_Force_Field>
OPLS_2005

> <r_lp_Energy>
54.6113

> <b_lp_Chiralities_Consistent>
1

> <s_lp_Variant>
AV-unprocessed.smi:1426-3

> <Gold.Version>
5.8.1

> <Gold.Id.Protein>
6NUR|6NUR_protein|mol2

> <Gold.PLP.Fitness>
46.2946

> <Gold.PLP.PLP>
-38.0734

> <Gold.PLP.part.hbond>
-3.0723

> <Gold.PLP.part.metal>
0.0000

> <Gold.PLP.part.buried>
-5.4403

> <Gold.PLP.part.nonpolar>
-28.9080

> <Gold.PLP.part.repulsive>
0.3227

> <Gold.PLP.ligand.clash>
0.0000

> <Gold.PLP.ligand.torsion>
0.5933

> <Gold.PLP.Chemscore.Hbond>
3.0000

> <Gold.PLP.Chemscore.CHOScore>
0.0000

> <Gold.PLP.Chemscore.Metal>
0.0000

> <Gold.Chemscore.Hbonds>
donor molecule, donor type, donor heavy atom, donor atom, acceptor molecule, acceptor atom, score
      L1  H    15    44       P1  8028  2.00
      P1  H  6896  6909       L1     8  1.00

> <Gold.PLP.Chemscore.Internal.Correction>
0.4079

> <Gold.Rescore>
     Score         DG    S(hbond)    S(metal)    S(lipo)     H(rot)  DE(clash)    DE(int)     intcor
     17.57     -19.85       1.81        0.00     101.70       1.40       0.31       1.97       ----

> <Gold.Chemscore.Fitness>
17.5714

> <Gold.Chemscore.DG>
-19.8506

> <Gold.Chemscore.ZeroCoef>
-5.4800

> <Gold.Chemscore.Hbond>
1.8149

> <Gold.Chemscore.Metal>
0.0000

> <Gold.Chemscore.Lipo>
101.6978

> <Gold.Chemscore.Internal_Hbond>
0.0000

> <Gold.Chemscore.DEClash>
0.3074

> <Gold.Chemscore.DEInternal>
1.9718

> <Gold.Chemscore.Rot>
1.4023

> <Gold.Chemscore.Internal.Correction>
   9.000000E+99

> <Gold.Chemscore.Hbonds>
donor molecule, donor type, donor heavy atom, donor atom, acceptor molecule, acceptor atom, score
      L1  H    15    44       P1  8028  0.34
      P1  H  6896  6909       L1     8  0.19

> <Gold.Chemscore.Hbond.Weighted>
-6.0618

> <Gold.Chemscore.Metal.Weighted>
-0.0000

> <Gold.Chemscore.Lipo.Weighted>
-11.8986

> <Gold.Chemscore.Internal_Hbond.Weighted>
0.0000

> <Gold.Chemscore.DEClash.Weighted>
0.3074

> <Gold.Chemscore.DEInternal.Weighted>
1.9718

> <Gold.Chemscore.Rot.Weighted>
3.5898

> <Gold.Chemscore.Internal.Correction.Weighted>
   9.000000E+99

> <Gold.Protein.RotatedTorsions>
[ 6907 6896 6895 6894 ] final  167.30 input  -60.11 | X-H torsion
[ 7974 7965 7964 7962 ] final   74.84 input  175.53 | X-H torsion
[ 8008 7997 7996 7995 ] final   25.68 input   59.86 | X-H torsion
[ 10167 10162 10161 10158 ] final   46.74 input  -65.29 | X-H torsion
[ 10718 10713 10712 10709 ] final  -98.76 input   66.30 | X-H torsion
[ 10763 10752 10751 10750 ] final  130.14 input  -60.55 | X-H torsion
[ 11005 11000 10999 10996 ] final   66.04 input  -57.11 | X-H torsion

> <Gold.Protein.ActiveResidues>
 VAL166  LYS551  ARG553  GLY616  TRP617  ASP618  TYR619  PRO620  LYS621  CYS622 
 ASP623  PHE694  ASN695  SER759  ASP760  ASP761  ALA762  ILE779  LEU786  VAL792 
 PHE793  MET794  SER795  GLU796  ALA797  LYS798  CYS799  TRP800  GLU811  SER814 

> <Gold.Protein.RotatedAtoms>
  151.8654  133.3465  159.3717 H   0  0  0  0  0  0  0  0  0  0  0  0  # atno 6907 bound_to 6896
  150.7167  134.5165  159.5642 H   0  0  0  0  0  0  0  0  0  0  0  0  # atno 6908 bound_to 6896
  152.2687  134.7957  160.0469 H   0  0  0  0  0  0  0  0  0  0  0  0  # atno 6909 bound_to 6896
  145.7232  139.2656  143.1584 H   0  0  0  0  0  0  0  0  0  0  0  0  # atno 7974 bound_to 7965
  155.0155  140.3141  155.4813 H   0  0  0  0  0  0  0  0  0  0  0  0  # atno 8008 bound_to 7997
  156.2901  140.2207  156.5213 H   0  0  0  0  0  0  0  0  0  0  0  0  # atno 8009 bound_to 7997
  154.7497  140.0467  157.0870 H   0  0  0  0  0  0  0  0  0  0  0  0  # atno 8010 bound_to 7997
  140.3108  144.2823  150.6200 H   0  0  0  0  0  0  0  0  0  0  0  0  # atno 10167 bound_to 10162
  156.0116  130.5252  150.6570 H   0  0  0  0  0  0  0  0  0  0  0  0  # atno 10718 bound_to 10713
  153.7531  135.3207  155.3324 H   0  0  0  0  0  0  0  0  0  0  0  0  # atno 10763 bound_to 10752
  154.8256  135.4572  154.0912 H   0  0  0  0  0  0  0  0  0  0  0  0  # atno 10764 bound_to 10752
  153.2120  135.6937  153.8185 H   0  0  0  0  0  0  0  0  0  0  0  0  # atno 10765 bound_to 10752
  139.9857  134.6672  156.0181 H   0  0  0  0  0  0  0  0  0  0  0  0  # atno 11005 bound_to 11000
  146.0606  140.7974  142.9736 LP  0  0  0  0  0  0  0  0  0  0  0  0  # atno 17320 bound_to 7965
  144.6911  140.3191  143.7235 LP  0  0  0  0  0  0  0  0  0  0  0  0  # atno 17321 bound_to 7965
  140.5570  143.2197  151.7830 LP  0  0  0  0  0  0  0  0  0  0  0  0  # atno 17342 bound_to 10162
  139.4894  144.4400  151.9775 LP  0  0  0  0  0  0  0  0  0  0  0  0  # atno 17343 bound_to 10162
  157.4320  131.0850  151.1029 LP  0  0  0  0  0  0  0  0  0  0  0  0  # atno 17370 bound_to 10713
  157.1599  130.6221  149.5608 LP  0  0  0  0  0  0  0  0  0  0  0  0  # atno 17371 bound_to 10713
  141.1522  133.6547  156.4049 LP  0  0  0  0  0  0  0  0  0  0  0  0  # atno 17394 bound_to 11000
  140.5008  134.6487  157.5247 LP  0  0  0  0  0  0  0  0  0  0  0  0  # atno 17395 bound_to 11000

$$$$
