AV-unprocessed.smi:2847|AV-procd|sdf|10953|dock6
  -GOLD-   2272015403D 1   1.00000     0.00000
 Structure written by MMmdl.
 45 46  0  0  0  0  0  0  0  0  1 V2000
  145.9455  132.7244  149.7336 C   0  0  0  0  0  0  0  0  0  0  0  0
  145.0910  132.5468  151.0107 C   0  0  0  0  0  0  0  0  0  0  0  0
  143.8489  131.7294  150.5834 C   0  0  0  0  0  0  0  0  0  0  0  0
  145.8924  131.7562  152.0610 C   0  0  0  0  0  0  0  0  0  0  0  0
  144.6824  133.9097  151.5966 C   0  0  0  0  0  0  0  0  0  0  0  0
  143.7446  133.9054  152.5530 N   0  0  0  0  0  0  0  0  0  0  0  0
  143.2839  135.0982  152.9841 C   0  0  0  0  0  0  0  0  0  0  0  0
  143.7289  136.3147  152.4303 C   0  0  0  0  0  0  0  0  0  0  0  0
  143.2122  137.5339  152.9437 N   0  0  0  0  0  0  0  0  0  0  0  0
  142.3178  137.7125  153.9301 C   0  0  0  0  0  0  0  0  0  0  0  0
  141.8087  136.8105  154.5941 O   0  0  0  0  0  0  0  0  0  0  0  0
  142.0611  139.0187  154.1106 N   0  0  0  0  0  0  0  0  0  0  0  0
  141.1553  139.6500  155.0803 C   0  0  1  0  0  0  0  0  0  0  0  0
  141.7291  139.3152  156.4794 C   0  0  0  0  0  0  0  0  0  0  0  0
  141.1629  141.1914  154.8897 C   0  0  0  0  0  0  0  0  0  0  0  0
  142.4609  141.7467  154.9817 O   0  0  0  0  0  0  0  0  0  0  0  0
  139.7061  139.1584  154.9188 C   0  0  0  0  0  0  0  0  0  0  0  0
  138.5782  140.0129  154.3862 C   0  0  0  0  0  0  0  0  0  0  0  0
  138.5667  139.5495  155.8308 C   0  0  0  0  0  0  0  0  0  0  0  0
  144.6973  136.2051  151.4039 C   0  0  0  0  0  0  0  0  0  0  0  0
  145.1507  135.0049  150.9838 N   0  0  0  0  0  0  0  0  0  0  0  0
  146.1991  131.7620  149.2881 H   0  0  0  0  0  0  0  0  0  0  0  0
  146.8884  133.2323  149.9400 H   0  0  0  0  0  0  0  0  0  0  0  0
  145.4152  133.3055  148.9781 H   0  0  0  0  0  0  0  0  0  0  0  0
  143.2434  132.2763  149.8596 H   0  0  0  0  0  0  0  0  0  0  0  0
  143.2089  131.4838  151.4315 H   0  0  0  0  0  0  0  0  0  0  0  0
  144.1352  130.7835  150.1222 H   0  0  0  0  0  0  0  0  0  0  0  0
  146.1976  130.7819  151.6783 H   0  0  0  0  0  0  0  0  0  0  0  0
  145.3034  131.5861  152.9629 H   0  0  0  0  0  0  0  0  0  0  0  0
  146.7956  132.2919  152.3551 H   0  0  0  0  0  0  0  0  0  0  0  0
  142.5453  135.0781  153.7722 H   0  0  0  0  0  0  0  0  0  0  0  0
  143.5994  138.3733  152.5378 H   0  0  0  0  0  0  0  0  0  0  0  0
  142.5430  139.6590  153.4969 H   0  0  0  0  0  0  0  0  0  0  0  0
  141.1817  139.8139  157.2786 H   0  0  0  0  0  0  0  0  0  0  0  0
  142.7680  139.6343  156.5697 H   0  0  0  0  0  0  0  0  0  0  0  0
  141.7222  138.2452  156.6836 H   0  0  0  0  0  0  0  0  0  0  0  0
  140.7338  141.4764  153.9291 H   0  0  0  0  0  0  0  0  0  0  0  0
  140.5410  141.6641  155.6505 H   0  0  0  0  0  0  0  0  0  0  0  0
  142.6348  142.2345  154.1912 H   0  0  0  0  0  0  0  0  0  0  0  0
  139.6610  138.1282  154.5714 H   0  0  0  0  0  0  0  0  0  0  0  0
  138.7493  141.0709  154.2058 H   0  0  0  0  0  0  0  0  0  0  0  0
  137.8751  139.5398  153.7038 H   0  0  0  0  0  0  0  0  0  0  0  0
  137.8568  138.7702  156.1006 H   0  0  0  0  0  0  0  0  0  0  0  0
  138.7350  140.3003  156.5984 H   0  0  0  0  0  0  0  0  0  0  0  0
  145.1321  137.0626  150.9149 H   0  0  0  0  0  0  0  0  0  0  0  0
  1  2  1  0  0  0  0
  1 22  1  0  0  0  0
  1 23  1  0  0  0  0
  1 24  1  0  0  0  0
  2  3  1  0  0  0  0
  2  4  1  0  0  0  0
  2  5  1  0  0  0  0
  3 25  1  0  0  0  0
  3 26  1  0  0  0  0
  3 27  1  0  0  0  0
  4 28  1  0  0  0  0
  4 29  1  0  0  0  0
  4 30  1  0  0  0  0
  5 21  1  0  0  0  0
  5  6  2  0  0  0  0
  6  7  1  0  0  0  0
  7  8  2  0  0  0  0
  7 31  1  0  0  0  0
  8  9  1  0  0  0  0
  8 20  1  0  0  0  0
  9 10  1  0  0  0  0
  9 32  1  0  0  0  0
 10 11  2  0  0  0  0
 10 12  1  0  0  0  0
 12 13  1  0  0  0  0
 12 33  1  0  0  0  0
 13 14  1  0  0  0  0
 13 15  1  0  0  0  0
 13 17  1  0  0  0  0
 14 34  1  0  0  0  0
 14 35  1  0  0  0  0
 14 36  1  0  0  0  0
 15 16  1  0  0  0  0
 15 37  1  0  0  0  0
 15 38  1  0  0  0  0
 16 39  1  0  0  0  0
 17 19  1  0  0  0  0
 17 18  1  0  0  0  0
 17 40  1  0  0  0  0
 18 19  1  0  0  0  0
 18 41  1  0  0  0  0
 18 42  1  0  0  0  0
 19 43  1  0  0  0  0
 19 44  1  0  0  0  0
 20 21  2  0  0  0  0
 20 45  1  0  0  0  0
M  END
> <s_m_source_file>
AV-unprocessed.smi

> <i_m_source_file_index>
2847

> <i_lp_mmshare_version>
43012

> <i_f3d_flags>
0

> <s_epik_input>
W0NIM11DKFtDSDNdKShbQ0gzXSljMW5bY0hdYyhbY0hdbjEpW05IXUMoPU8pW05IXVtDQEBdKFtDSDNdKShbQ0gyXVtPSF0pW0NIXTJbQ0gyXVtDSDJdMg==

> <s_epik_cmdline>
J2VwaWtfcHl0aG9uJywgJy1waCcsICc3LjAnLCAnLXRuJywgJzgnLCAnLW1hJywgJzIwMCcsICctbWV0YWxfYmluZGluZycsICctaW1hZScsICc8aW5maWxlLm1hZT4nLCAnLW9tYWUnLCAnPG91dGZpbGUubWFlPic=

> <r_lp_tautomer_probability>
1

> <r_epik_Ionization_Penalty>
2.57177e-05

> <r_epik_Ionization_Penalty_Charging>
0

> <r_epik_Ionization_Penalty_Neutral>
2.57177e-05

> <r_epik_State_Penalty>
-0

> <r_epik_Charging_Adjusted_Penalty>
0

> <i_epik_Tot_Q>
0

> <i_epik_Tot_abs_Q>
0

> <r_epik_Metal_State_Penalty>
-0

> <b_epik_Metal_Only>
0

> <s_lp_Force_Field>
OPLS_2005

> <r_lp_Energy>
20.4005

> <b_lp_Chiralities_Consistent>
1

> <s_lp_Variant>
AV-unprocessed.smi:2847-1

> <Gold.Version>
5.8.1

> <Gold.Id.Protein>
6NUR|6NUR_protein|mol2

> <Gold.PLP.Fitness>
42.9276

> <Gold.PLP.PLP>
-33.1599

> <Gold.PLP.part.hbond>
-4.4290

> <Gold.PLP.part.metal>
0.0000

> <Gold.PLP.part.buried>
-2.5634

> <Gold.PLP.part.nonpolar>
-25.9828

> <Gold.PLP.part.repulsive>
0.4654

> <Gold.PLP.ligand.clash>
0.0000

> <Gold.PLP.ligand.torsion>
1.2263

> <Gold.PLP.Chemscore.Hbond>
2.9360

> <Gold.PLP.Chemscore.CHOScore>
0.6114

> <Gold.PLP.Chemscore.Metal>
0.0000

> <Gold.Chemscore.Hbonds>
donor molecule, donor type, donor heavy atom, donor atom, acceptor molecule, acceptor atom, score
      L1  H     9    32       P1 10175  0.90
      L1  H    12    33       P1 10175  1.00
      L1  H    16    39       P1 10174  0.93
      L1  C    20    45       P1 10171  0.84

> <Gold.PLP.Chemscore.Internal.Correction>
1.5780

> <Gold.Rescore>
     Score         DG    S(hbond)    S(metal)    S(lipo)     H(rot)  DE(clash)    DE(int)     intcor
     14.13     -17.87       2.71        0.00      76.04       2.17       0.14       3.60       ----

> <Gold.Chemscore.Fitness>
14.1263

> <Gold.Chemscore.DG>
-17.8682

> <Gold.Chemscore.ZeroCoef>
-5.4800

> <Gold.Chemscore.Hbond>
2.7072

> <Gold.Chemscore.Metal>
0.0000

> <Gold.Chemscore.Lipo>
76.0356

> <Gold.Chemscore.Internal_Hbond>
0.0000

> <Gold.Chemscore.DEClash>
0.1378

> <Gold.Chemscore.DEInternal>
3.6041

> <Gold.Chemscore.Rot>
2.1679

> <Gold.Chemscore.Internal.Correction>
   9.000000E+99

> <Gold.Chemscore.Hbonds>
donor molecule, donor type, donor heavy atom, donor atom, acceptor molecule, acceptor atom, score
      L1  H     9    32       P1 10175  0.83
      L1  H    12    33       P1 10175  1.00
      L1  H    16    39       P1 10174  0.26

> <Gold.Chemscore.Hbond.Weighted>
-9.0419

> <Gold.Chemscore.Metal.Weighted>
-0.0000

> <Gold.Chemscore.Lipo.Weighted>
-8.8962

> <Gold.Chemscore.Internal_Hbond.Weighted>
0.0000

> <Gold.Chemscore.DEClash.Weighted>
0.1378

> <Gold.Chemscore.DEInternal.Weighted>
3.6041

> <Gold.Chemscore.Rot.Weighted>
5.5499

> <Gold.Chemscore.Internal.Correction.Weighted>
   9.000000E+99

> <Gold.Protein.RotatedTorsions>
[ 6907 6896 6895 6894 ] final -173.03 input  -60.11 | X-H torsion
[ 7974 7965 7964 7962 ] final  -41.36 input  175.53 | X-H torsion
[ 8008 7997 7996 7995 ] final -136.40 input   59.86 | X-H torsion
[ 10167 10162 10161 10158 ] final   12.25 input  -65.29 | X-H torsion
[ 10718 10713 10712 10709 ] final   76.85 input   66.30 | X-H torsion
[ 10763 10752 10751 10750 ] final -160.91 input  -60.55 | X-H torsion
[ 11005 11000 10999 10996 ] final   89.22 input  -57.11 | X-H torsion

> <Gold.Protein.ActiveResidues>
 VAL166  LYS551  ARG553  GLY616  TRP617  ASP618  TYR619  PRO620  LYS621  CYS622 
 ASP623  PHE694  ASN695  SER759  ASP760  ASP761  ALA762  ILE779  LEU786  VAL792 
 PHE793  MET794  SER795  GLU796  ALA797  LYS798  CYS799  TRP800  GLU811  SER814 

> <Gold.Protein.RotatedAtoms>
  151.5495  133.3419  159.2950 H   0  0  0  0  0  0  0  0  0  0  0  0  # atno 6907 bound_to 6896
  150.8487  134.7807  159.7002 H   0  0  0  0  0  0  0  0  0  0  0  0  # atno 6908 bound_to 6896
  152.4538  134.5343  159.9872 H   0  0  0  0  0  0  0  0  0  0  0  0  # atno 6909 bound_to 6896
  146.0218  140.6840  142.9174 H   0  0  0  0  0  0  0  0  0  0  0  0  # atno 7974 bound_to 7965
  155.3947  140.0502  157.3039 H   0  0  0  0  0  0  0  0  0  0  0  0  # atno 8008 bound_to 7997
  154.5019  140.2160  155.9289 H   0  0  0  0  0  0  0  0  0  0  0  0  # atno 8009 bound_to 7997
  156.1478  140.3142  155.8604 H   0  0  0  0  0  0  0  0  0  0  0  0  # atno 8010 bound_to 7997
  140.6080  143.8468  150.7034 H   0  0  0  0  0  0  0  0  0  0  0  0  # atno 10167 bound_to 10162
  157.6689  130.9794  150.1557 H   0  0  0  0  0  0  0  0  0  0  0  0  # atno 10718 bound_to 10713
  154.7350  135.3055  154.8827 H   0  0  0  0  0  0  0  0  0  0  0  0  # atno 10763 bound_to 10752
  153.9659  135.6747  153.4750 H   0  0  0  0  0  0  0  0  0  0  0  0  # atno 10764 bound_to 10752
  153.0954  135.4938  154.8690 H   0  0  0  0  0  0  0  0  0  0  0  0  # atno 10765 bound_to 10752
  139.8880  134.8538  156.3111 H   0  0  0  0  0  0  0  0  0  0  0  0  # atno 11005 bound_to 11000
  144.6993  140.3580  143.7169 LP  0  0  0  0  0  0  0  0  0  0  0  0  # atno 17320 bound_to 7965
  145.7180  139.1702  143.2500 LP  0  0  0  0  0  0  0  0  0  0  0  0  # atno 17321 bound_to 7965
  140.2029  143.3945  152.1777 LP  0  0  0  0  0  0  0  0  0  0  0  0  # atno 17342 bound_to 10162
  139.5339  144.7189  151.4959 LP  0  0  0  0  0  0  0  0  0  0  0  0  # atno 17343 bound_to 10162
  156.2345  130.3685  149.8407 LP  0  0  0  0  0  0  0  0  0  0  0  0  # atno 17370 bound_to 10713
  156.6224  130.8632  151.3478 LP  0  0  0  0  0  0  0  0  0  0  0  0  # atno 17371 bound_to 10713
  140.9849  133.7244  156.0727 LP  0  0  0  0  0  0  0  0  0  0  0  0  # atno 17394 bound_to 11000
  140.7701  134.3843  157.5509 LP  0  0  0  0  0  0  0  0  0  0  0  0  # atno 17395 bound_to 11000

$$$$
