AV-unprocessed.smi:1022|AV-procd|sdf|4458|dock5
  -GOLD-   22720 2433D 1   1.00000     0.00000
 Structure written by MMmdl.
 33 34  0  0  0  0  0  0  0  0  1 V2000
  137.5624  137.4735  154.2102 C   0  0  0  0  0  0  0  0  0  0  0  0
  138.9508  137.7129  154.0637 O   0  0  0  0  0  0  0  0  0  0  0  0
  139.2285  138.9846  153.4993 C   0  0  0  0  0  0  0  0  0  0  0  0
  140.5033  139.5560  154.1387 C   0  0  2  0  0  0  0  0  0  0  0  0
  140.5072  141.0927  154.1184 C   0  0  0  0  0  0  0  0  0  0  0  0
  141.6752  139.0450  153.4321 N   0  0  0  0  0  0  0  0  0  0  0  0
  141.9688  137.7492  153.2521 C   0  0  0  0  0  0  0  0  0  0  0  0
  141.2713  136.8285  153.6791 O   0  0  0  0  0  0  0  0  0  0  0  0
  143.1116  137.6026  152.5593 N   0  0  0  0  0  0  0  0  0  0  0  0
  143.7532  136.3990  152.1646 C   0  0  0  0  0  0  0  0  0  0  0  0
  144.9984  136.3450  151.6723 N   0  0  0  0  0  0  0  0  0  0  0  0
  145.3800  135.0454  151.3698 N   0  0  0  0  0  0  0  0  0  0  0  0
  144.4170  134.1566  151.6417 C   0  0  0  0  0  0  0  0  0  0  0  0
  144.5929  132.6943  151.3998 C   0  0  0  0  0  0  0  0  0  0  0  0
  145.8589  132.1358  150.7874 C   0  0  0  0  0  0  0  0  0  0  0  0
  144.5764  132.1369  149.9952 C   0  0  0  0  0  0  0  0  0  0  0  0
  142.9393  134.8501  152.3023 S   0  0  0  0  0  0  0  0  0  0  0  0
  137.4054  136.4881  154.6492 H   0  0  0  0  0  0  0  0  0  0  0  0
  137.0546  137.4969  153.2452 H   0  0  0  0  0  0  0  0  0  0  0  0
  137.1012  138.2119  154.8673 H   0  0  0  0  0  0  0  0  0  0  0  0
  139.3467  138.9037  152.4172 H   0  0  0  0  0  0  0  0  0  0  0  0
  138.3876  139.6543  153.6866 H   0  0  0  0  0  0  0  0  0  0  0  0
  140.5318  139.2268  155.1789 H   0  0  0  0  0  0  0  0  0  0  0  0
  139.6433  141.4936  154.6487 H   0  0  0  0  0  0  0  0  0  0  0  0
  140.4790  141.4766  153.0981 H   0  0  0  0  0  0  0  0  0  0  0  0
  141.4004  141.4920  154.6002 H   0  0  0  0  0  0  0  0  0  0  0  0
  142.3032  139.7331  153.0431 H   0  0  0  0  0  0  0  0  0  0  0  0
  143.5806  138.4530  152.2849 H   0  0  0  0  0  0  0  0  0  0  0  0
  144.1088  132.1146  152.1835 H   0  0  0  0  0  0  0  0  0  0  0  0
  146.6344  132.8335  150.4776 H   0  0  0  0  0  0  0  0  0  0  0  0
  146.2168  131.1790  151.1620 H   0  0  0  0  0  0  0  0  0  0  0  0
  144.0790  131.1816  149.8402 H   0  0  0  0  0  0  0  0  0  0  0  0
  144.4963  132.8439  149.1717 H   0  0  0  0  0  0  0  0  0  0  0  0
  1  2  1  0  0  0  0
  1 18  1  0  0  0  0
  1 19  1  0  0  0  0
  1 20  1  0  0  0  0
  2  3  1  0  0  0  0
  3  4  1  0  0  0  0
  3 21  1  0  0  0  0
  3 22  1  0  0  0  0
  4  5  1  0  0  0  0
  4  6  1  0  0  0  0
  4 23  1  0  0  0  0
  5 24  1  0  0  0  0
  5 25  1  0  0  0  0
  5 26  1  0  0  0  0
  6  7  1  0  0  0  0
  6 27  1  0  0  0  0
  7  8  2  0  0  0  0
  7  9  1  0  0  0  0
  9 10  1  0  0  0  0
  9 28  1  0  0  0  0
 10 17  1  0  0  0  0
 10 11  2  0  0  0  0
 11 12  1  0  0  0  0
 12 13  2  0  0  0  0
 13 14  1  0  0  0  0
 13 17  1  0  0  0  0
 14 16  1  0  0  0  0
 14 15  1  0  0  0  0
 14 29  1  0  0  0  0
 15 16  1  0  0  0  0
 15 30  1  0  0  0  0
 15 31  1  0  0  0  0
 16 32  1  0  0  0  0
 16 33  1  0  0  0  0
M  END
> <s_m_source_file>
AV-unprocessed.smi

> <i_m_source_file_index>
1022

> <i_lp_mmshare_version>
43012

> <i_f3d_flags>
0

> <s_epik_input>
W0NIM11PW0NIMl1bQ0BIXShbQ0gzXSlbTkhdQyg9TylbTkhdYzFubmMoczEpW0NIXTJbQ0gyXVtDSDJdMg==

> <s_epik_cmdline>
J2VwaWtfcHl0aG9uJywgJy1waCcsICc3LjAnLCAnLXRuJywgJzgnLCAnLW1hJywgJzIwMCcsICctbWV0YWxfYmluZGluZycsICctaW1hZScsICc8aW5maWxlLm1hZT4nLCAnLW9tYWUnLCAnPG91dGZpbGUubWFlPic=

> <r_lp_tautomer_probability>
1

> <r_epik_Ionization_Penalty>
0.00129266

> <r_epik_Ionization_Penalty_Charging>
0

> <r_epik_Ionization_Penalty_Neutral>
0.00129266

> <r_epik_State_Penalty>
-0

> <r_epik_Charging_Adjusted_Penalty>
0

> <i_epik_Tot_Q>
0

> <i_epik_Tot_abs_Q>
0

> <r_epik_Metal_State_Penalty>
0.30857

> <b_epik_Metal_Only>
0

> <s_lp_Force_Field>
OPLS_2005

> <r_lp_Energy>
1.45425

> <b_lp_Chiralities_Consistent>
1

> <s_lp_Variant>
AV-unprocessed.smi:1022-1

> <Gold.Version>
5.8.1

> <Gold.Id.Protein>
6NUR|6NUR_protein|mol2

> <Gold.PLP.Fitness>
34.2185

> <Gold.PLP.PLP>
-29.7558

> <Gold.PLP.part.hbond>
-3.4780

> <Gold.PLP.part.metal>
0.0000

> <Gold.PLP.part.buried>
-5.0428

> <Gold.PLP.part.nonpolar>
-21.6334

> <Gold.PLP.part.repulsive>
0.6247

> <Gold.PLP.ligand.clash>
0.0000

> <Gold.PLP.ligand.torsion>
0.7432

> <Gold.PLP.Chemscore.Hbond>
1.9280

> <Gold.PLP.Chemscore.CHOScore>
0.0000

> <Gold.PLP.Chemscore.Metal>
0.0000

> <Gold.Chemscore.Hbonds>
donor molecule, donor type, donor heavy atom, donor atom, acceptor molecule, acceptor atom, score
      L1  H     6    27       P1 10175  1.00
      L1  H     9    28       P1 10175  0.93

> <Gold.PLP.Chemscore.Internal.Correction>
0.1651

> <Gold.Rescore>
     Score         DG    S(hbond)    S(metal)    S(lipo)     H(rot)  DE(clash)    DE(int)     intcor
     10.97     -14.55       1.89        0.00      61.33       1.73       0.24       3.33       ----

> <Gold.Chemscore.Fitness>
10.9747

> <Gold.Chemscore.DG>
-14.5487

> <Gold.Chemscore.ZeroCoef>
-5.4800

> <Gold.Chemscore.Hbond>
1.8941

> <Gold.Chemscore.Metal>
0.0000

> <Gold.Chemscore.Lipo>
61.3332

> <Gold.Chemscore.Internal_Hbond>
0.0000

> <Gold.Chemscore.DEClash>
0.2416

> <Gold.Chemscore.DEInternal>
3.3324

> <Gold.Chemscore.Rot>
1.7318

> <Gold.Chemscore.Internal.Correction>
   9.000000E+99

> <Gold.Chemscore.Hbonds>
donor molecule, donor type, donor heavy atom, donor atom, acceptor molecule, acceptor atom, score
      L1  H     6    27       P1 10175  0.83
      L1  H     9    28       P1 10175  0.87

> <Gold.Chemscore.Hbond.Weighted>
-6.3262

> <Gold.Chemscore.Metal.Weighted>
-0.0000

> <Gold.Chemscore.Lipo.Weighted>
-7.1760

> <Gold.Chemscore.Internal_Hbond.Weighted>
0.0000

> <Gold.Chemscore.DEClash.Weighted>
0.2416

> <Gold.Chemscore.DEInternal.Weighted>
3.3324

> <Gold.Chemscore.Rot.Weighted>
4.4335

> <Gold.Chemscore.Internal.Correction.Weighted>
   9.000000E+99

> <Gold.Protein.RotatedTorsions>
[ 6907 6896 6895 6894 ] final -101.27 input  -60.11 | X-H torsion
[ 7974 7965 7964 7962 ] final -115.26 input  175.53 | X-H torsion
[ 8008 7997 7996 7995 ] final  110.56 input   59.86 | X-H torsion
[ 10167 10162 10161 10158 ] final   -3.38 input  -65.29 | X-H torsion
[ 10718 10713 10712 10709 ] final   21.38 input   66.30 | X-H torsion
[ 10763 10752 10751 10750 ] final   -4.90 input  -60.55 | X-H torsion
[ 11005 11000 10999 10996 ] final   27.18 input  -57.11 | X-H torsion

> <Gold.Protein.ActiveResidues>
 VAL166  LYS551  ARG553  GLY616  TRP617  ASP618  TYR619  PRO620  LYS621  CYS622 
 ASP623  PHE694  ASN695  SER759  ASP760  ASP761  ALA762  ILE779  LEU786  VAL792 
 PHE793  MET794  SER795  GLU796  ALA797  LYS798  CYS799  TRP800  GLU811  SER814 

> <Gold.Protein.RotatedAtoms>
  150.7148  134.0759  159.3880 H   0  0  0  0  0  0  0  0  0  0  0  0  # atno 6907 bound_to 6896
  151.8742  135.0475  160.0491 H   0  0  0  0  0  0  0  0  0  0  0  0  # atno 6908 bound_to 6896
  152.2619  133.5269  159.5423 H   0  0  0  0  0  0  0  0  0  0  0  0  # atno 6909 bound_to 6896
  145.1105  140.8608  143.3873 H   0  0  0  0  0  0  0  0  0  0  0  0  # atno 7974 bound_to 7965
  156.2061  140.3036  155.9631 H   0  0  0  0  0  0  0  0  0  0  0  0  # atno 8008 bound_to 7997
  155.2837  140.0439  157.3034 H   0  0  0  0  0  0  0  0  0  0  0  0  # atno 8009 bound_to 7997
  154.5636  140.2327  155.8307 H   0  0  0  0  0  0  0  0  0  0  0  0  # atno 8010 bound_to 7997
  140.6888  143.6547  150.8319 H   0  0  0  0  0  0  0  0  0  0  0  0  # atno 10167 bound_to 10162
  157.1377  130.6619  149.5971 H   0  0  0  0  0  0  0  0  0  0  0  0  # atno 10718 bound_to 10713
  153.3912  135.7002  153.6494 H   0  0  0  0  0  0  0  0  0  0  0  0  # atno 10763 bound_to 10752
  153.5066  135.3641  155.2566 H   0  0  0  0  0  0  0  0  0  0  0  0  # atno 10764 bound_to 10752
  154.8702  135.4124  154.3229 H   0  0  0  0  0  0  0  0  0  0  0  0  # atno 10765 bound_to 10752
  140.3291  134.2458  155.7705 H   0  0  0  0  0  0  0  0  0  0  0  0  # atno 11005 bound_to 11000
  145.0853  139.2930  143.5763 LP  0  0  0  0  0  0  0  0  0  0  0  0  # atno 17320 bound_to 7965
  146.3526  140.0372  142.8646 LP  0  0  0  0  0  0  0  0  0  0  0  0  # atno 17321 bound_to 7965
  140.0257  143.5496  152.2781 LP  0  0  0  0  0  0  0  0  0  0  0  0  # atno 17342 bound_to 10162
  139.6270  144.7638  151.2617 LP  0  0  0  0  0  0  0  0  0  0  0  0  # atno 17343 bound_to 10162
  155.9795  130.4788  150.6717 LP  0  0  0  0  0  0  0  0  0  0  0  0  # atno 17370 bound_to 10713
  157.4335  131.0852  151.1015 LP  0  0  0  0  0  0  0  0  0  0  0  0  # atno 17371 bound_to 10713
  141.2068  133.7823  157.0157 LP  0  0  0  0  0  0  0  0  0  0  0  0  # atno 17394 bound_to 11000
  140.0876  134.9611  157.1725 LP  0  0  0  0  0  0  0  0  0  0  0  0  # atno 17395 bound_to 11000

$$$$
