AV-unprocessed.smi:3028|AV-procd|sdf|11523|dock1
  -GOLD-   2272016463D 1   1.00000     0.00000
 Structure written by MMmdl.
 47 48  0  0  0  0  0  0  0  0  1 V2000
  153.6616  141.6318  161.2399 C   0  0  0  0  0  0  0  0  0  0  0  0
  152.8042  141.7542  160.0133 C   0  0  0  0  0  0  0  0  0  0  0  0
  152.1345  142.9125  159.5277 C   0  0  0  0  0  0  0  0  0  0  0  0
  151.4565  142.6842  158.4159 N   0  0  0  0  0  0  0  0  0  0  0  0
  151.6712  141.3768  158.1438 N   0  0  0  0  0  0  0  0  0  0  0  0
  151.0528  140.7458  156.9799 C   0  0  2  0  0  0  0  0  0  0  0  0
  152.0998  140.1075  156.0474 C   0  0  0  0  0  0  0  0  0  0  0  0
  150.0271  141.6628  156.2522 C   0  0  1  0  0  0  0  0  0  0  0  0
  149.3248  140.9425  155.0885 C   0  0  0  0  0  0  0  0  0  0  0  0
  148.9751  142.1323  157.1498 N   0  0  0  0  0  0  0  0  0  0  0  0
  148.0480  141.0730  157.5696 C   0  0  0  0  0  0  0  0  0  0  0  0
  146.6621  141.6151  157.9535 C   0  0  0  0  0  0  0  0  0  0  0  0
  146.2214  141.4470  159.0901 O   0  0  0  0  0  0  0  0  0  0  0  0
  145.9416  142.2796  157.0346 N   0  0  0  0  0  0  0  0  0  0  0  0
  144.6144  142.8705  157.1922 C   0  0  0  0  0  0  0  0  0  0  0  0
  144.2135  143.5874  155.8944 C   0  0  0  0  0  0  0  0  0  0  0  0
  142.8930  144.3522  156.0809 C   0  0  0  0  0  0  0  0  0  0  0  0
  143.0116  145.2711  157.1617 O   0  0  0  0  0  0  0  0  0  0  0  0
  143.2657  144.6318  158.4082 C   0  0  0  0  0  0  0  0  0  0  0  0
  144.6053  143.8798  158.3525 C   0  0  0  0  0  0  0  0  0  0  0  0
  152.4767  140.7925  159.1000 C   0  0  0  0  0  0  0  0  0  0  0  0
  153.4182  142.3936  161.9810 H   0  0  0  0  0  0  0  0  0  0  0  0
  154.7198  141.7411  161.0019 H   0  0  0  0  0  0  0  0  0  0  0  0
  153.5384  140.6630  161.7240 H   0  0  0  0  0  0  0  0  0  0  0  0
  152.1197  143.9068  159.9493 H   0  0  0  0  0  0  0  0  0  0  0  0
  150.4757  139.9067  157.3712 H   0  0  0  0  0  0  0  0  0  0  0  0
  151.6213  139.6038  155.2072 H   0  0  0  0  0  0  0  0  0  0  0  0
  152.6910  139.3633  156.5815 H   0  0  0  0  0  0  0  0  0  0  0  0
  152.7946  140.8436  155.6437 H   0  0  0  0  0  0  0  0  0  0  0  0
  150.5581  142.5137  155.8219 H   0  0  0  0  0  0  0  0  0  0  0  0
  150.0500  140.5522  154.3742 H   0  0  0  0  0  0  0  0  0  0  0  0
  148.6681  141.6235  154.5458 H   0  0  0  0  0  0  0  0  0  0  0  0
  148.7158  140.1060  155.4333 H   0  0  0  0  0  0  0  0  0  0  0  0
  148.4906  142.9055  156.7143 H   0  0  0  0  0  0  0  0  0  0  0  0
  147.9282  140.3496  156.7651 H   0  0  0  0  0  0  0  0  0  0  0  0
  148.4722  140.5458  158.4247 H   0  0  0  0  0  0  0  0  0  0  0  0
  146.3657  142.3901  156.1248 H   0  0  0  0  0  0  0  0  0  0  0  0
  143.8696  142.0982  157.3860 H   0  0  0  0  0  0  0  0  0  0  0  0
  144.9949  144.2901  155.6008 H   0  0  0  0  0  0  0  0  0  0  0  0
  144.1173  142.8690  155.0796 H   0  0  0  0  0  0  0  0  0  0  0  0
  142.6503  144.9055  155.1737 H   0  0  0  0  0  0  0  0  0  0  0  0
  142.0667  143.6634  156.2640 H   0  0  0  0  0  0  0  0  0  0  0  0
  143.2945  145.3891  159.1920 H   0  0  0  0  0  0  0  0  0  0  0  0
  142.4484  143.9517  158.6534 H   0  0  0  0  0  0  0  0  0  0  0  0
  144.7882  143.3755  159.3016 H   0  0  0  0  0  0  0  0  0  0  0  0
  145.4138  144.6010  158.2225 H   0  0  0  0  0  0  0  0  0  0  0  0
  152.7474  139.7479  159.0526 H   0  0  0  0  0  0  0  0  0  0  0  0
  1  2  1  0  0  0  0
  1 22  1  0  0  0  0
  1 23  1  0  0  0  0
  1 24  1  0  0  0  0
  2 21  2  0  0  0  0
  2  3  1  0  0  0  0
  3  4  2  0  0  0  0
  3 25  1  0  0  0  0
  4  5  1  0  0  0  0
  5  6  1  0  0  0  0
  5 21  1  0  0  0  0
  6  7  1  0  0  0  0
  6  8  1  0  0  0  0
  6 26  1  0  0  0  0
  7 27  1  0  0  0  0
  7 28  1  0  0  0  0
  7 29  1  0  0  0  0
  8  9  1  0  0  0  0
  8 10  1  0  0  0  0
  8 30  1  0  0  0  0
  9 31  1  0  0  0  0
  9 32  1  0  0  0  0
  9 33  1  0  0  0  0
 10 11  1  0  0  0  0
 10 34  1  0  0  0  0
 11 12  1  0  0  0  0
 11 35  1  0  0  0  0
 11 36  1  0  0  0  0
 12 13  2  0  0  0  0
 12 14  1  0  0  0  0
 14 15  1  0  0  0  0
 14 37  1  0  0  0  0
 15 20  1  0  0  0  0
 15 16  1  0  0  0  0
 15 38  1  0  0  0  0
 16 17  1  0  0  0  0
 16 39  1  0  0  0  0
 16 40  1  0  0  0  0
 17 18  1  0  0  0  0
 17 41  1  0  0  0  0
 17 42  1  0  0  0  0
 18 19  1  0  0  0  0
 19 20  1  0  0  0  0
 19 43  1  0  0  0  0
 19 44  1  0  0  0  0
 20 45  1  0  0  0  0
 20 46  1  0  0  0  0
 21 47  1  0  0  0  0
M  END
> <s_m_source_file>
AV-unprocessed.smi

> <i_m_source_file_index>
3028

> <i_lp_mmshare_version>
43012

> <i_f3d_flags>
0

> <s_epik_input>
W0NIM11jMVtjSF1ubihbY0hdMSlbQ0BIXShbQ0gzXSlbQ0BIXShbQ0gzXSlbTkhdW0NIMl1DKD1PKVtOSF1bQ0hdMltDSDJdW0NIMl1PW0NIMl1bQ0gyXTI=

> <s_epik_cmdline>
J2VwaWtfcHl0aG9uJywgJy1waCcsICc3LjAnLCAnLXRuJywgJzgnLCAnLW1hJywgJzIwMCcsICctbWV0YWxfYmluZGluZycsICctaW1hZScsICc8aW5maWxlLm1hZT4nLCAnLW9tYWUnLCAnPG91dGZpbGUubWFlPic=

> <r_lp_tautomer_probability>
1

> <r_epik_Ionization_Penalty>
0.88617

> <r_epik_Ionization_Penalty_Charging>
0

> <r_epik_Ionization_Penalty_Neutral>
0.88617

> <r_epik_State_Penalty>
0.921066

> <r_epik_Charging_Adjusted_Penalty>
0.921066

> <i_epik_Tot_Q>
0

> <i_epik_Tot_abs_Q>
0

> <r_epik_Metal_State_Penalty>
0.917309

> <b_epik_Metal_Only>
0

> <s_lp_Force_Field>
OPLS_2005

> <r_lp_Energy>
19.7658

> <b_lp_Chiralities_Consistent>
1

> <s_lp_Variant>
AV-unprocessed.smi:3028-7

> <Gold.Version>
5.8.1

> <Gold.Id.Protein>
6NUR|6NUR_protein|mol2

> <Gold.PLP.Fitness>
40.6777

> <Gold.PLP.PLP>
-35.0986

> <Gold.PLP.part.hbond>
-2.0000

> <Gold.PLP.part.metal>
0.0000

> <Gold.PLP.part.buried>
-5.2085

> <Gold.PLP.part.nonpolar>
-29.0109

> <Gold.PLP.part.repulsive>
0.0934

> <Gold.PLP.ligand.clash>
0.0000

> <Gold.PLP.ligand.torsion>
0.2899

> <Gold.PLP.Chemscore.Hbond>
1.9280

> <Gold.PLP.Chemscore.CHOScore>
0.0000

> <Gold.PLP.Chemscore.Metal>
0.0000

> <Gold.Chemscore.Hbonds>
donor molecule, donor type, donor heavy atom, donor atom, acceptor molecule, acceptor atom, score
      L1  H    10    34       P1  8028  0.64
      P1  H  6934  6946       L1    13  0.77

> <Gold.PLP.Chemscore.Internal.Correction>
0.3750

> <Gold.Rescore>
     Score         DG    S(hbond)    S(metal)    S(lipo)     H(rot)  DE(clash)    DE(int)     intcor
     16.07     -16.38       1.78        0.00      84.46       1.92       0.04       0.26       ----

> <Gold.Chemscore.Fitness>
16.0702

> <Gold.Chemscore.DG>
-16.3767

> <Gold.Chemscore.ZeroCoef>
-5.4800

> <Gold.Chemscore.Hbond>
1.7780

> <Gold.Chemscore.Metal>
0.0000

> <Gold.Chemscore.Lipo>
84.4600

> <Gold.Chemscore.Internal_Hbond>
0.0000

> <Gold.Chemscore.DEClash>
0.0437

> <Gold.Chemscore.DEInternal>
0.2628

> <Gold.Chemscore.Rot>
1.9233

> <Gold.Chemscore.Internal.Correction>
   9.000000E+99

> <Gold.Chemscore.Hbonds>
donor molecule, donor type, donor heavy atom, donor atom, acceptor molecule, acceptor atom, score
      L1  H    10    34       P1  8028  0.46
      P1  H  6934  6946       L1    13  0.76

> <Gold.Chemscore.Hbond.Weighted>
-5.9385

> <Gold.Chemscore.Metal.Weighted>
-0.0000

> <Gold.Chemscore.Lipo.Weighted>
-9.8818

> <Gold.Chemscore.Internal_Hbond.Weighted>
0.0000

> <Gold.Chemscore.DEClash.Weighted>
0.0437

> <Gold.Chemscore.DEInternal.Weighted>
0.2628

> <Gold.Chemscore.Rot.Weighted>
4.9235

> <Gold.Chemscore.Internal.Correction.Weighted>
   9.000000E+99

> <Gold.Protein.RotatedTorsions>
[ 6907 6896 6895 6894 ] final  -65.85 input  -60.11 | X-H torsion
[ 7974 7965 7964 7962 ] final   93.22 input  175.53 | X-H torsion
[ 8008 7997 7996 7995 ] final   26.40 input   59.86 | X-H torsion
[ 10167 10162 10161 10158 ] final -139.17 input  -65.29 | X-H torsion
[ 10718 10713 10712 10709 ] final   50.95 input   66.30 | X-H torsion
[ 10763 10752 10751 10750 ] final -163.90 input  -60.55 | X-H torsion
[ 11005 11000 10999 10996 ] final -141.01 input  -57.11 | X-H torsion

> <Gold.Protein.ActiveResidues>
 VAL166  LYS551  ARG553  GLY616  TRP617  ASP618  TYR619  PRO620  LYS621  CYS622 
 ASP623  PHE694  ASN695  SER759  ASP760  ASP761  ALA762  ILE779  LEU786  VAL792 
 PHE793  MET794  SER795  GLU796  ALA797  LYS798  CYS799  TRP800  GLU811  SER814 

> <Gold.Protein.RotatedAtoms>
  150.7499  134.6103  159.6082 H   0  0  0  0  0  0  0  0  0  0  0  0  # atno 6907 bound_to 6896
  152.3439  134.7095  160.0265 H   0  0  0  0  0  0  0  0  0  0  0  0  # atno 6908 bound_to 6896
  151.7538  133.3293  159.3435 H   0  0  0  0  0  0  0  0  0  0  0  0  # atno 6909 bound_to 6896
  145.4818  139.2278  143.2878 H   0  0  0  0  0  0  0  0  0  0  0  0  # atno 7974 bound_to 7965
  155.0266  140.3154  155.4773 H   0  0  0  0  0  0  0  0  0  0  0  0  # atno 8008 bound_to 7997
  156.2882  140.2188  156.5328 H   0  0  0  0  0  0  0  0  0  0  0  0  # atno 8009 bound_to 7997
  154.7406  140.0474  157.0795 H   0  0  0  0  0  0  0  0  0  0  0  0  # atno 8010 bound_to 7997
  139.8406  143.7327  152.2663 H   0  0  0  0  0  0  0  0  0  0  0  0  # atno 10167 bound_to 10162
  157.4934  130.8390  149.8229 H   0  0  0  0  0  0  0  0  0  0  0  0  # atno 10718 bound_to 10713
  154.7079  135.3000  154.9243 H   0  0  0  0  0  0  0  0  0  0  0  0  # atno 10763 bound_to 10752
  154.0154  135.6689  153.4772 H   0  0  0  0  0  0  0  0  0  0  0  0  # atno 10764 bound_to 10752
  153.0731  135.5049  154.8260 H   0  0  0  0  0  0  0  0  0  0  0  0  # atno 10765 bound_to 10752
  140.8367  134.2452  157.4831 H   0  0  0  0  0  0  0  0  0  0  0  0  # atno 11005 bound_to 11000
  146.2336  140.5605  142.8964 LP  0  0  0  0  0  0  0  0  0  0  0  0  # atno 17320 bound_to 7965
  144.7884  140.5983  143.6558 LP  0  0  0  0  0  0  0  0  0  0  0  0  # atno 17321 bound_to 7965
  139.7563  144.7520  151.0431 LP  0  0  0  0  0  0  0  0  0  0  0  0  # atno 17342 bound_to 10162
  140.7798  143.4802  151.0028 LP  0  0  0  0  0  0  0  0  0  0  0  0  # atno 17343 bound_to 10162
  156.0186  130.3804  150.2032 LP  0  0  0  0  0  0  0  0  0  0  0  0  # atno 17370 bound_to 10713
  157.0221  130.9982  151.3337 LP  0  0  0  0  0  0  0  0  0  0  0  0  # atno 17371 bound_to 10713
  139.8704  134.9614  156.4395 LP  0  0  0  0  0  0  0  0  0  0  0  0  # atno 17394 bound_to 11000
  140.8940  133.7827  155.9604 LP  0  0  0  0  0  0  0  0  0  0  0  0  # atno 17395 bound_to 11000

$$$$
