AV-unprocessed.smi:1521|AV-procd|sdf|6133|dock5
  -GOLD-   22720 6273D 1   1.00000     0.00000
 Structure written by MMmdl.
 35 36  0  0  0  0  0  0  0  0  2 V2000
  150.6120  137.0284  159.5840 O   0  0  0  0  0  0  0  0  0  0  0  0
  149.9900  137.6062  158.6934 C   0  0  0  0  0  0  0  0  0  0  0  0
  148.9147  137.0795  158.0903 N   0  0  0  0  0  0  0  0  0  0  0  0
  148.3140  135.7891  158.4116 C   0  0  0  0  0  0  0  0  0  0  0  0
  147.4261  135.8757  159.6650 C   0  0  1  0  0  0  0  0  0  0  0  0
  147.0727  134.4808  160.2187 C   0  0  0  0  0  0  0  0  0  0  0  0
  146.2827  134.6272  161.3916 O   0  0  0  0  0  0  0  0  0  0  0  0
  146.9810  135.3475  162.3979 C   0  0  0  0  0  0  0  0  0  0  0  0
  147.3449  136.7393  161.8561 C   0  0  0  0  0  0  0  0  0  0  0  0
  148.1281  136.5846  160.6809 O   0  0  0  0  0  0  0  0  0  0  0  0
  150.2627  138.8257  158.1944 N   0  0  0  0  0  0  0  0  0  0  0  0
  151.2762  139.7395  158.5349 C   0  0  0  0  0  0  0  0  0  0  0  0
  151.0901  141.0663  158.7820 C   0  0  0  0  0  0  0  0  0  0  0  0
  152.1900  141.9580  159.1283 C   0  0  0  0  0  0  0  0  0  0  0  0
  152.0071  143.4215  159.4898 C   0  0  0  0  0  0  0  0  0  0  0  0
  152.7658  144.2038  158.7217 F   0  0  0  0  0  0  0  0  0  0  0  0
  150.7348  143.7765  159.3145 F   0  0  0  0  0  0  0  0  0  0  0  0
  152.3293  143.6437  160.7642 F   0  0  0  0  0  0  0  0  0  0  0  0
  153.4008  141.2967  159.1940 C   0  0  0  0  0  0  0  0  0  0  0  0
  153.6737  139.9962  158.9520 N   0  5  0  0  0  0  0  0  0  0  0  0
  152.6386  139.1726  158.6236 C   0  0  0  0  0  0  0  0  0  0  0  0
  152.8169  137.9744  158.4006 O   0  0  0  0  0  0  0  0  0  0  0  0
  148.4642  137.6230  157.3690 H   0  0  0  0  0  0  0  0  0  0  0  0
  147.7093  135.4907  157.5548 H   0  0  0  0  0  0  0  0  0  0  0  0
  149.0779  135.0190  158.5308 H   0  0  0  0  0  0  0  0  0  0  0  0
  146.5067  136.4090  159.4157 H   0  0  0  0  0  0  0  0  0  0  0  0
  146.5042  133.9125  159.4824 H   0  0  0  0  0  0  0  0  0  0  0  0
  147.9736  133.9069  160.4418 H   0  0  0  0  0  0  0  0  0  0  0  0
  146.3466  135.4367  163.2796 H   0  0  0  0  0  0  0  0  0  0  0  0
  147.8765  134.8017  162.6991 H   0  0  0  0  0  0  0  0  0  0  0  0
  146.4481  137.3217  161.6391 H   0  0  0  0  0  0  0  0  0  0  0  0
  147.9199  137.2966  162.5955 H   0  0  0  0  0  0  0  0  0  0  0  0
  149.6397  139.1582  157.4730 H   0  0  0  0  0  0  0  0  0  0  0  0
  150.1118  141.5125  158.7311 H   0  0  0  0  0  0  0  0  0  0  0  0
  154.2829  141.9038  159.4898 H   0  0  0  0  0  0  0  0  0  0  0  0
  1  2  2  0  0  0  0
  2  3  1  0  0  0  0
  2 11  1  0  0  0  0
  3  4  1  0  0  0  0
  3 23  1  0  0  0  0
  4  5  1  0  0  0  0
  4 24  1  0  0  0  0
  4 25  1  0  0  0  0
  5 10  1  0  0  0  0
  5  6  1  0  0  0  0
  5 26  1  0  0  0  0
  6  7  1  0  0  0  0
  6 27  1  0  0  0  0
  6 28  1  0  0  0  0
  7  8  1  0  0  0  0
  8  9  1  0  0  0  0
  8 29  1  0  0  0  0
  8 30  1  0  0  0  0
  9 10  1  0  0  0  0
  9 31  1  0  0  0  0
  9 32  1  0  0  0  0
 11 12  1  0  0  0  0
 11 33  1  0  0  0  0
 12 21  1  0  0  0  0
 12 13  2  0  0  0  0
 13 14  1  0  0  0  0
 13 34  1  0  0  0  0
 14 15  1  0  0  0  0
 14 19  2  0  0  0  0
 15 16  1  0  0  0  0
 15 17  1  0  0  0  0
 15 18  1  0  0  0  0
 19 20  1  0  0  0  0
 19 35  1  0  0  0  0
 20 21  1  0  0  0  0
 21 22  2  0  0  0  0
M  CHG  1  20  -1
M  END
> <s_m_source_file>
AV-unprocessed.smi

> <i_m_source_file_index>
1521

> <i_lp_mmshare_version>
43012

> <i_f3d_flags>
0

> <s_epik_input>
Tz1jMVtuSF1bY0hdYyhDKEYpKEYpRilbY0hdYzFbTkhdQyg9TylbTkhdW0NIMl1bQ0BASF0yW0NIMl1PW0NIMl1bQ0gyXU8y

> <s_epik_cmdline>
J2VwaWtfcHl0aG9uJywgJy1waCcsICc3LjAnLCAnLXRuJywgJzgnLCAnLW1hJywgJzIwMCcsICctbWV0YWxfYmluZGluZycsICctaW1hZScsICc8aW5maWxlLm1hZT4nLCAnLW9tYWUnLCAnPG91dGZpbGUubWFlPic=

> <r_lp_tautomer_probability>
1

> <r_epik_Ionization_Penalty>
3.1412

> <r_epik_Ionization_Penalty_Charging>
0.17015

> <r_epik_Ionization_Penalty_Neutral>
2.97105

> <r_epik_State_Penalty>
2.96707

> <r_epik_Charging_Adjusted_Penalty>
3.13722

> <i_epik_Tot_Q>
-1

> <i_epik_Tot_abs_Q>
1

> <r_epik_Metal_State_Penalty>
0.451298

> <b_epik_Metal_Only>
1

> <s_lp_Force_Field>
OPLS_2005

> <r_lp_Energy>
21.3

> <b_lp_Chiralities_Consistent>
1

> <s_lp_Variant>
AV-unprocessed.smi:1521-4

> <Gold.Version>
5.8.1

> <Gold.Id.Protein>
6NUR|6NUR_protein|mol2

> <Gold.PLP.Fitness>
47.3465

> <Gold.PLP.PLP>
-40.2253

> <Gold.PLP.part.hbond>
-3.0074

> <Gold.PLP.part.metal>
0.0000

> <Gold.PLP.part.buried>
-4.1519

> <Gold.PLP.part.nonpolar>
-32.2841

> <Gold.PLP.part.repulsive>
0.2660

> <Gold.PLP.ligand.clash>
0.0000

> <Gold.PLP.ligand.torsion>
0.7011

> <Gold.PLP.Chemscore.Hbond>
2.8240

> <Gold.PLP.Chemscore.CHOScore>
0.0000

> <Gold.PLP.Chemscore.Metal>
0.0000

> <Gold.Chemscore.Hbonds>
donor molecule, donor type, donor heavy atom, donor atom, acceptor molecule, acceptor atom, score
      P1  H  6896  6908       L1     1  0.99
      P1  H  7997  8008       L1    20  1.42

> <Gold.PLP.Chemscore.Internal.Correction>
0.0513

> <Gold.Rescore>
     Score         DG    S(hbond)    S(metal)    S(lipo)     H(rot)  DE(clash)    DE(int)     intcor
      9.29     -12.74       0.97        0.00      64.30       1.36       0.01       3.44       ----

> <Gold.Chemscore.Fitness>
9.2919

> <Gold.Chemscore.DG>
-12.7424

> <Gold.Chemscore.ZeroCoef>
-5.4800

> <Gold.Chemscore.Hbond>
0.9675

> <Gold.Chemscore.Metal>
0.0000

> <Gold.Chemscore.Lipo>
64.2952

> <Gold.Chemscore.Internal_Hbond>
0.0000

> <Gold.Chemscore.DEClash>
0.0111

> <Gold.Chemscore.DEInternal>
3.4393

> <Gold.Chemscore.Rot>
1.3640

> <Gold.Chemscore.Internal.Correction>
   9.000000E+99

> <Gold.Chemscore.Hbonds>
donor molecule, donor type, donor heavy atom, donor atom, acceptor molecule, acceptor atom, score
      P1  H  6896  6908       L1     1  0.92
      P1  H  7997  8008       L1    20  0.20

> <Gold.Chemscore.Hbond.Weighted>
-3.2316

> <Gold.Chemscore.Metal.Weighted>
-0.0000

> <Gold.Chemscore.Lipo.Weighted>
-7.5225

> <Gold.Chemscore.Internal_Hbond.Weighted>
0.0000

> <Gold.Chemscore.DEClash.Weighted>
0.0111

> <Gold.Chemscore.DEInternal.Weighted>
3.4393

> <Gold.Chemscore.Rot.Weighted>
3.4918

> <Gold.Chemscore.Internal.Correction.Weighted>
   9.000000E+99

> <Gold.Protein.RotatedTorsions>
[ 6907 6896 6895 6894 ] final -149.78 input  -60.11 | X-H torsion
[ 7974 7965 7964 7962 ] final  176.37 input  175.53 | X-H torsion
[ 8008 7997 7996 7995 ] final -116.06 input   59.86 | X-H torsion
[ 10167 10162 10161 10158 ] final   26.16 input  -65.29 | X-H torsion
[ 10718 10713 10712 10709 ] final  121.38 input   66.30 | X-H torsion
[ 10763 10752 10751 10750 ] final  -71.12 input  -60.55 | X-H torsion
[ 11005 11000 10999 10996 ] final  -22.18 input  -57.11 | X-H torsion

> <Gold.Protein.ActiveResidues>
 VAL166  LYS551  ARG553  GLY616  TRP617  ASP618  TYR619  PRO620  LYS621  CYS622 
 ASP623  PHE694  ASN695  SER759  ASP760  ASP761  ALA762  ILE779  LEU786  VAL792 
 PHE793  MET794  SER795  GLU796  ALA797  LYS798  CYS799  TRP800  GLU811  SER814 

> <Gold.Protein.RotatedAtoms>
  151.1891  133.4678  159.2594 H   0  0  0  0  0  0  0  0  0  0  0  0  # atno 6907 bound_to 6896
  151.1182  135.0064  159.8536 H   0  0  0  0  0  0  0  0  0  0  0  0  # atno 6908 bound_to 6896
  152.5454  134.1805  159.8686 H   0  0  0  0  0  0  0  0  0  0  0  0  # atno 6909 bound_to 6896
  144.7185  140.0087  143.6440 H   0  0  0  0  0  0  0  0  0  0  0  0  # atno 7974 bound_to 7965
  155.0619  140.0393  157.2579 H   0  0  0  0  0  0  0  0  0  0  0  0  # atno 8008 bound_to 7997
  154.7052  140.2681  155.6657 H   0  0  0  0  0  0  0  0  0  0  0  0  # atno 8009 bound_to 7997
  156.2773  140.2732  156.1676 H   0  0  0  0  0  0  0  0  0  0  0  0  # atno 8010 bound_to 7997
  140.5046  144.0259  150.6347 H   0  0  0  0  0  0  0  0  0  0  0  0  # atno 10167 bound_to 10162
  157.5822  131.1073  150.8166 H   0  0  0  0  0  0  0  0  0  0  0  0  # atno 10718 bound_to 10713
  154.4273  135.5972  153.6046 H   0  0  0  0  0  0  0  0  0  0  0  0  # atno 10763 bound_to 10752
  152.9797  135.5966  154.3882 H   0  0  0  0  0  0  0  0  0  0  0  0  # atno 10764 bound_to 10752
  154.3716  135.2841  155.2242 H   0  0  0  0  0  0  0  0  0  0  0  0  # atno 10765 bound_to 10752
  140.8632  133.7773  156.0099 H   0  0  0  0  0  0  0  0  0  0  0  0  # atno 11005 bound_to 11000
  146.0276  139.3306  143.0775 LP  0  0  0  0  0  0  0  0  0  0  0  0  # atno 17320 bound_to 7965
  145.8492  140.9538  143.0758 LP  0  0  0  0  0  0  0  0  0  0  0  0  # atno 17321 bound_to 7965
  140.3565  143.2933  152.0430 LP  0  0  0  0  0  0  0  0  0  0  0  0  # atno 17342 bound_to 10162
  139.4880  144.6335  151.7022 LP  0  0  0  0  0  0  0  0  0  0  0  0  # atno 17343 bound_to 10162
  156.8609  130.5113  149.5304 LP  0  0  0  0  0  0  0  0  0  0  0  0  # atno 17370 bound_to 10713
  156.0868  130.5864  150.9662 LP  0  0  0  0  0  0  0  0  0  0  0  0  # atno 17371 bound_to 10713
  140.8658  134.2785  157.5213 LP  0  0  0  0  0  0  0  0  0  0  0  0  # atno 17394 bound_to 11000
  139.8708  134.9542  156.4168 LP  0  0  0  0  0  0  0  0  0  0  0  0  # atno 17395 bound_to 11000

$$$$
