AV-unprocessed.smi:703|AV-procd|sdf|3440|dock7
  -GOLD-   22720 0423D 1   1.00000     0.00000
 Structure written by MMmdl.
 37 38  0  0  0  0  0  0  0  0  3 V2000
  147.6710  133.1307  152.7397 C   0  0  0  0  0  0  0  0  0  0  0  0
  148.9329  133.3277  153.5903 C   0  0  0  0  0  0  0  0  0  0  0  0
  148.9971  134.6817  154.1888 N   0  3  1  0  0  0  0  0  0  0  0  0
  147.8262  135.0422  155.0244 C   0  0  0  0  0  0  0  0  0  0  0  0
  148.3867  135.6587  156.3173 C   0  0  2  0  0  0  0  0  0  0  0  0
  147.4727  136.7082  156.9841 C   0  0  0  0  0  0  0  0  0  0  0  0
  149.8216  136.0854  155.9532 C   0  0  2  0  0  0  0  0  0  0  0  0
  149.8312  137.3780  155.2723 N   0  5  0  0  0  0  0  0  0  0  0  0
  151.2245  138.1928  155.1084 S   0  0  0  0  0  0  0  0  0  0  0  0
  152.2462  137.4249  154.3782 O   0  0  0  0  0  0  0  0  0  0  0  0
  151.0151  139.5886  154.6912 O   0  0  0  0  0  0  0  0  0  0  0  0
  151.7916  138.2607  156.8613 C   0  0  0  0  0  0  0  0  0  0  0  0
  151.6650  139.6631  157.3867 C   0  0  0  0  0  0  0  0  0  0  0  0
  150.5566  140.5493  157.2874 C   0  0  0  0  0  0  0  0  0  0  0  0
  150.9864  141.6720  157.9336 C   0  0  0  0  0  0  0  0  0  0  0  0
  152.2543  141.5036  158.3864 O   0  0  0  0  0  0  0  0  0  0  0  0
  152.6805  140.2193  158.0293 N   0  0  0  0  0  0  0  0  0  0  0  0
  150.2156  134.9660  154.9811 C   0  0  0  0  0  0  0  0  0  0  0  0
  147.6157  132.1091  152.3634 H   0  0  0  0  0  0  0  0  0  0  0  0
  147.6589  133.7976  151.8772 H   0  0  0  0  0  0  0  0  0  0  0  0
  146.7690  133.3184  153.3231 H   0  0  0  0  0  0  0  0  0  0  0  0
  148.9298  132.5912  154.3949 H   0  0  0  0  0  0  0  0  0  0  0  0
  149.8280  133.1405  152.9951 H   0  0  0  0  0  0  0  0  0  0  0  0
  147.2129  135.7551  154.4699 H   0  0  0  0  0  0  0  0  0  0  0  0
  147.1981  134.1793  155.2515 H   0  0  0  0  0  0  0  0  0  0  0  0
  148.4894  134.8407  157.0327 H   0  0  0  0  0  0  0  0  0  0  0  0
  147.2571  137.5503  156.3246 H   0  0  0  0  0  0  0  0  0  0  0  0
  147.9116  137.1044  157.9014 H   0  0  0  0  0  0  0  0  0  0  0  0
  146.5155  136.2609  157.2536 H   0  0  0  0  0  0  0  0  0  0  0  0
  150.4588  136.0813  156.8377 H   0  0  0  0  0  0  0  0  0  0  0  0
  151.1892  137.5632  157.4436 H   0  0  0  0  0  0  0  0  0  0  0  0
  152.8259  137.9203  156.9009 H   0  0  0  0  0  0  0  0  0  0  0  0
  149.5961  140.3821  156.8229 H   0  0  0  0  0  0  0  0  0  0  0  0
  150.5302  142.6280  158.1432 H   0  0  0  0  0  0  0  0  0  0  0  0
  150.4905  134.0784  155.5535 H   0  0  0  0  0  0  0  0  0  0  0  0
  151.0641  135.2121  154.3434 H   0  0  0  0  0  0  0  0  0  0  0  0
  149.0008  135.3478  153.4294 H   0  0  0  0  0  0  0  0  0  0  0  0
  1  2  1  0  0  0  0
  1 19  1  0  0  0  0
  1 20  1  0  0  0  0
  1 21  1  0  0  0  0
  2  3  1  0  0  0  0
  2 22  1  0  0  0  0
  2 23  1  0  0  0  0
  3 18  1  0  0  0  0
  3  4  1  0  0  0  0
  3 37  1  0  0  0  0
  4  5  1  0  0  0  0
  4 24  1  0  0  0  0
  4 25  1  0  0  0  0
  5  6  1  0  0  0  0
  5  7  1  0  0  0  0
  5 26  1  0  0  0  0
  6 27  1  0  0  0  0
  6 28  1  0  0  0  0
  6 29  1  0  0  0  0
  7  8  1  0  0  0  0
  7 18  1  0  0  0  0
  7 30  1  0  0  0  0
  8  9  1  0  0  0  0
  9 10  2  0  0  0  0
  9 11  2  0  0  0  0
  9 12  1  0  0  0  0
 12 13  1  0  0  0  0
 12 31  1  0  0  0  0
 12 32  1  0  0  0  0
 13 17  2  0  0  0  0
 13 14  1  0  0  0  0
 14 15  2  0  0  0  0
 14 33  1  0  0  0  0
 15 16  1  0  0  0  0
 15 34  1  0  0  0  0
 16 17  1  0  0  0  0
 18 35  1  0  0  0  0
 18 36  1  0  0  0  0
M  CHG  1   3   1
M  CHG  1   8  -1
M  END
> <s_m_source_file>
AV-unprocessed.smi

> <i_m_source_file_index>
703

> <i_lp_mmshare_version>
43012

> <i_f3d_flags>
0

> <s_epik_input>
W0NIM11bQ0gyXU4xW0NIMl1bQ0BASF0oW0NIM10pW0NASF0oW0NIMl0xKVtOSF1TKD1PKSg9TylbQ0gyXWMyW2NIXVtjSF1vbjI=

> <s_epik_cmdline>
J2VwaWtfcHl0aG9uJywgJy1waCcsICc3LjAnLCAnLXRuJywgJzgnLCAnLW1hJywgJzIwMCcsICctbWV0YWxfYmluZGluZycsICctaW1hZScsICc8aW5maWxlLm1hZT4nLCAnLW9tYWUnLCAnPG91dGZpbGUubWFlPic=

> <r_epik_Ionization_Penalty>
3.62494

> <r_epik_Ionization_Penalty_Charging>
3.62494

> <r_epik_Ionization_Penalty_Neutral>
2.0321e-10

> <r_epik_State_Penalty>
3.62558

> <r_epik_Charging_Adjusted_Penalty>
7.25052

> <i_epik_Tot_Q>
0

> <i_epik_Tot_abs_Q>
2

> <r_epik_Metal_State_Penalty>
0.530836

> <b_epik_Metal_Only>
1

> <s_lp_Force_Field>
OPLS_2005

> <r_lp_Energy>
16.9152

> <b_lp_Chiralities_Consistent>
1

> <s_lp_Variant>
AV-unprocessed.smi:703-15

> <Gold.Version>
5.8.1

> <Gold.Id.Protein>
6NUR|6NUR_protein|mol2

> <Gold.PLP.Fitness>
37.1269

> <Gold.PLP.PLP>
-23.9374

> <Gold.PLP.part.hbond>
-4.0000

> <Gold.PLP.part.metal>
0.0000

> <Gold.PLP.part.buried>
-3.9785

> <Gold.PLP.part.nonpolar>
-15.4651

> <Gold.PLP.part.repulsive>
0.3605

> <Gold.PLP.ligand.clash>
0.0000

> <Gold.PLP.ligand.torsion>
1.1025

> <Gold.PLP.Chemscore.Hbond>
4.7760

> <Gold.PLP.Chemscore.CHOScore>
0.0000

> <Gold.PLP.Chemscore.Metal>
0.0000

> <Gold.Chemscore.Hbonds>
donor molecule, donor type, donor heavy atom, donor atom, acceptor molecule, acceptor atom, score
      L1  H     3    37       P1  7948  2.00
      P1  H  7989  7998       L1    11  1.00
      P1  H  7997  8010       L1    17  0.70
      P1  H 10752 10765       L1    10  0.78

> <Gold.PLP.Chemscore.Internal.Correction>
1.0666

> <Gold.Rescore>
     Score         DG    S(hbond)    S(metal)    S(lipo)     H(rot)  DE(clash)    DE(int)     intcor
     16.28     -18.90       3.59        0.00      47.97       1.63       0.12       2.49       ----

> <Gold.Chemscore.Fitness>
16.2848

> <Gold.Chemscore.DG>
-18.8969

> <Gold.Chemscore.ZeroCoef>
-5.4800

> <Gold.Chemscore.Hbond>
3.5889

> <Gold.Chemscore.Metal>
0.0000

> <Gold.Chemscore.Lipo>
47.9705

> <Gold.Chemscore.Internal_Hbond>
0.0000

> <Gold.Chemscore.DEClash>
0.1236

> <Gold.Chemscore.DEInternal>
2.4885

> <Gold.Chemscore.Rot>
1.6338

> <Gold.Chemscore.Internal.Correction>
   9.000000E+99

> <Gold.Chemscore.Hbonds>
donor molecule, donor type, donor heavy atom, donor atom, acceptor molecule, acceptor atom, score
      L1  H     3    37       P1  7948  0.55
      P1  H  7989  7998       L1    11  1.00
      P1  H  7997  8010       L1    17  0.46
      P1  H 10752 10765       L1    10  0.78

> <Gold.Chemscore.Hbond.Weighted>
-11.9869

> <Gold.Chemscore.Metal.Weighted>
-0.0000

> <Gold.Chemscore.Lipo.Weighted>
-5.6125

> <Gold.Chemscore.Internal_Hbond.Weighted>
0.0000

> <Gold.Chemscore.DEClash.Weighted>
0.1236

> <Gold.Chemscore.DEInternal.Weighted>
2.4885

> <Gold.Chemscore.Rot.Weighted>
4.1825

> <Gold.Chemscore.Internal.Correction.Weighted>
   9.000000E+99

> <Gold.Protein.RotatedTorsions>
[ 6907 6896 6895 6894 ] final   -2.74 input  -60.11 | X-H torsion
[ 7974 7965 7964 7962 ] final   31.07 input  175.53 | X-H torsion
[ 8008 7997 7996 7995 ] final   48.67 input   59.86 | X-H torsion
[ 10167 10162 10161 10158 ] final -150.26 input  -65.29 | X-H torsion
[ 10718 10713 10712 10709 ] final  139.25 input   66.30 | X-H torsion
[ 10763 10752 10751 10750 ] final  156.69 input  -60.55 | X-H torsion
[ 11005 11000 10999 10996 ] final  -53.45 input  -57.11 | X-H torsion

> <Gold.Protein.ActiveResidues>
 VAL166  LYS551  ARG553  GLY616  TRP617  ASP618  TYR619  PRO620  LYS621  CYS622 
 ASP623  PHE694  ASN695  SER759  ASP760  ASP761  ALA762  ILE779  LEU786  VAL792 
 PHE793  MET794  SER795  GLU796  ALA797  LYS798  CYS799  TRP800  GLU811  SER814 

> <Gold.Protein.RotatedAtoms>
  151.5251  135.1067  159.9888 H   0  0  0  0  0  0  0  0  0  0  0  0  # atno 6907 bound_to 6896
  152.4603  133.7805  159.6858 H   0  0  0  0  0  0  0  0  0  0  0  0  # atno 6908 bound_to 6896
  150.8563  133.7646  159.3033 H   0  0  0  0  0  0  0  0  0  0  0  0  # atno 6909 bound_to 6896
  146.1573  139.6705  142.9058 H   0  0  0  0  0  0  0  0  0  0  0  0  # atno 7974 bound_to 7965
  155.3895  140.3432  155.4250 H   0  0  0  0  0  0  0  0  0  0  0  0  # atno 8008 bound_to 7997
  156.1565  140.1587  156.8716 H   0  0  0  0  0  0  0  0  0  0  0  0  # atno 8009 bound_to 7997
  154.5100  140.0792  156.7952 H   0  0  0  0  0  0  0  0  0  0  0  0  # atno 8010 bound_to 7997
  139.7370  143.8721  152.2551 H   0  0  0  0  0  0  0  0  0  0  0  0  # atno 10167 bound_to 10162
  157.4165  131.1034  151.0399 H   0  0  0  0  0  0  0  0  0  0  0  0  # atno 10718 bound_to 10713
  154.1884  135.2796  155.3030 H   0  0  0  0  0  0  0  0  0  0  0  0  # atno 10763 bound_to 10752
  154.5948  135.5548  153.7318 H   0  0  0  0  0  0  0  0  0  0  0  0  # atno 10764 bound_to 10752
  153.0119  135.6377  154.2022 H   0  0  0  0  0  0  0  0  0  0  0  0  # atno 10765 bound_to 10752
  141.0976  133.6622  156.4174 H   0  0  0  0  0  0  0  0  0  0  0  0  # atno 11005 bound_to 11000
  145.4676  141.0435  143.2716 LP  0  0  0  0  0  0  0  0  0  0  0  0  # atno 17320 bound_to 7965
  144.7980  139.6196  143.7084 LP  0  0  0  0  0  0  0  0  0  0  0  0  # atno 17321 bound_to 7965
  139.8660  144.7093  150.9043 LP  0  0  0  0  0  0  0  0  0  0  0  0  # atno 17342 bound_to 10162
  140.7780  143.3777  151.1533 LP  0  0  0  0  0  0  0  0  0  0  0  0  # atno 17343 bound_to 10162
  157.1345  130.6116  149.5538 LP  0  0  0  0  0  0  0  0  0  0  0  0  # atno 17370 bound_to 10713
  155.9867  130.4902  150.7089 LP  0  0  0  0  0  0  0  0  0  0  0  0  # atno 17371 bound_to 10713
  140.5101  134.6403  157.5281 LP  0  0  0  0  0  0  0  0  0  0  0  0  # atno 17394 bound_to 11000
  139.9818  134.7125  155.9846 LP  0  0  0  0  0  0  0  0  0  0  0  0  # atno 17395 bound_to 11000

$$$$
