AV-unprocessed.smi:3189|AV-procd|sdf|12193|dock3
  -GOLD-   2272018 33D 1   1.00000     0.00000
 Structure written by MMmdl.
 31 32  0  0  0  0  0  0  0  0  2 V2000
  147.2504  139.4472  152.7083 C   0  0  0  0  0  0  0  0  0  0  0  0
  148.4344  139.6972  153.6225 C   0  0  0  0  0  0  0  0  0  0  0  0
  149.4049  138.7578  153.6644 N   0  3  0  0  0  0  0  0  0  0  0  0
  150.5078  138.8736  154.4329 C   0  0  0  0  0  0  0  0  0  0  0  0
  150.6825  140.0115  155.2443 C   0  0  0  0  0  0  0  0  0  0  0  0
  149.6865  141.0203  155.2525 C   0  0  0  0  0  0  0  0  0  0  0  0
  149.7921  142.2082  156.0272 N   0  0  0  0  0  0  0  0  0  0  0  0
  150.2601  142.3589  157.2816 C   0  0  0  0  0  0  0  0  0  0  0  0
  150.6682  141.4403  157.9891 O   0  0  0  0  0  0  0  0  0  0  0  0
  150.1817  143.6172  157.7483 N   0  0  0  0  0  0  0  0  0  0  0  0
  150.5935  144.0960  159.0345 C   0  0  2  0  0  0  0  0  0  0  0  0
  151.6930  145.1353  159.0636 C   0  0  0  0  0  0  0  0  0  0  0  0
  151.9726  143.7387  159.5553 C   0  0  2  0  0  0  0  0  0  0  0  0
  152.9077  142.8217  158.7921 C   0  0  0  0  0  0  0  0  0  0  0  0
  148.5529  140.8620  154.4171 C   0  0  0  0  0  0  0  0  0  0  0  0
  147.3177  142.0753  154.3719 Cl  0  0  0  0  0  0  0  0  0  0  0  0
  146.3297  139.3881  153.2893 H   0  0  0  0  0  0  0  0  0  0  0  0
  147.3628  138.5135  152.1561 H   0  0  0  0  0  0  0  0  0  0  0  0
  147.1506  140.2569  151.9850 H   0  0  0  0  0  0  0  0  0  0  0  0
  151.2165  138.0607  154.3715 H   0  0  0  0  0  0  0  0  0  0  0  0
  151.5818  140.0946  155.8354 H   0  0  0  0  0  0  0  0  0  0  0  0
  149.3888  143.0339  155.6086 H   0  0  0  0  0  0  0  0  0  0  0  0
  149.6989  144.2863  157.1656 H   0  0  0  0  0  0  0  0  0  0  0  0
  149.8127  144.2413  159.7798 H   0  0  0  0  0  0  0  0  0  0  0  0
  152.1352  145.4354  158.1152 H   0  0  0  0  0  0  0  0  0  0  0  0
  151.6214  145.9229  159.8109 H   0  0  0  0  0  0  0  0  0  0  0  0
  152.0428  143.6183  160.6348 H   0  0  0  0  0  0  0  0  0  0  0  0
  152.8750  143.0274  157.7218 H   0  0  0  0  0  0  0  0  0  0  0  0
  152.6266  141.7813  158.9559 H   0  0  0  0  0  0  0  0  0  0  0  0
  153.9317  142.9634  159.1373 H   0  0  0  0  0  0  0  0  0  0  0  0
  149.3013  137.9249  153.0840 H   0  0  0  0  0  0  0  0  0  0  0  0
  1  2  1  0  0  0  0
  1 17  1  0  0  0  0
  1 18  1  0  0  0  0
  1 19  1  0  0  0  0
  2 15  1  0  0  0  0
  2  3  2  0  0  0  0
  3  4  1  0  0  0  0
  3 31  1  0  0  0  0
  4  5  2  0  0  0  0
  4 20  1  0  0  0  0
  5  6  1  0  0  0  0
  5 21  1  0  0  0  0
  6  7  1  0  0  0  0
  6 15  2  0  0  0  0
  7  8  1  0  0  0  0
  7 22  1  0  0  0  0
  8  9  2  0  0  0  0
  8 10  1  0  0  0  0
 10 11  1  0  0  0  0
 10 23  1  0  0  0  0
 11 13  1  0  0  0  0
 11 12  1  0  0  0  0
 11 24  1  0  0  0  0
 12 13  1  0  0  0  0
 12 25  1  0  0  0  0
 12 26  1  0  0  0  0
 13 14  1  0  0  0  0
 13 27  1  0  0  0  0
 14 28  1  0  0  0  0
 14 29  1  0  0  0  0
 14 30  1  0  0  0  0
 15 16  1  0  0  0  0
M  CHG  1   3   1
M  END
> <s_m_source_file>
AV-unprocessed.smi

> <i_m_source_file_index>
3189

> <i_lp_mmshare_version>
43012

> <i_f3d_flags>
0

> <s_epik_input>
W0NIM11jMW5bY0hdW2NIXWMoYzFDbClbTkhdQyg9TylbTkhdW0NAQEhdMltDSDJdW0NASF0yW0NIM10=

> <s_epik_cmdline>
J2VwaWtfcHl0aG9uJywgJy1waCcsICc3LjAnLCAnLXRuJywgJzgnLCAnLW1hJywgJzIwMCcsICctbWV0YWxfYmluZGluZycsICctaW1hZScsICc8aW5maWxlLm1hZT4nLCAnLW9tYWUnLCAnPG91dGZpbGUubWFlPic=

> <r_epik_Ionization_Penalty>
2.42914

> <r_epik_Ionization_Penalty_Charging>
2.42912

> <r_epik_Ionization_Penalty_Neutral>
2.15137e-05

> <r_epik_State_Penalty>
2.58904

> <r_epik_Charging_Adjusted_Penalty>
5.01816

> <i_epik_Tot_Q>
1

> <i_epik_Tot_abs_Q>
1

> <r_epik_Metal_State_Penalty>
2.59882

> <b_epik_Metal_Only>
0

> <s_lp_Force_Field>
OPLS_2005

> <r_lp_Energy>
38.4707

> <b_lp_Chiralities_Consistent>
1

> <s_lp_Variant>
AV-unprocessed.smi:3189-7

> <Gold.Version>
5.8.1

> <Gold.Id.Protein>
6NUR|6NUR_protein|mol2

> <Gold.PLP.Fitness>
47.2179

> <Gold.PLP.PLP>
-35.8831

> <Gold.PLP.part.hbond>
-3.9396

> <Gold.PLP.part.metal>
0.0000

> <Gold.PLP.part.buried>
0.0320

> <Gold.PLP.part.nonpolar>
-32.9678

> <Gold.PLP.part.repulsive>
0.2208

> <Gold.PLP.ligand.clash>
0.0000

> <Gold.PLP.ligand.torsion>
0.3520

> <Gold.PLP.Chemscore.Hbond>
4.0000

> <Gold.PLP.Chemscore.CHOScore>
0.0000

> <Gold.PLP.Chemscore.Metal>
0.0000

> <Gold.Chemscore.Hbonds>
donor molecule, donor type, donor heavy atom, donor atom, acceptor molecule, acceptor atom, score
      L1  H     3    31       P1  7948  1.72
      L1  H     7    22       P1  8028  1.00
      L1  H    10    23       P1  8028  1.00

> <Gold.PLP.Chemscore.Internal.Correction>
0.0387

> <Gold.Rescore>
     Score         DG    S(hbond)    S(metal)    S(lipo)     H(rot)  DE(clash)    DE(int)     intcor
     19.64     -21.65       2.37        0.00      92.53       1.00       1.09       0.92       ----

> <Gold.Chemscore.Fitness>
19.6396

> <Gold.Chemscore.DG>
-21.6491

> <Gold.Chemscore.ZeroCoef>
-5.4800

> <Gold.Chemscore.Hbond>
2.3663

> <Gold.Chemscore.Metal>
0.0000

> <Gold.Chemscore.Lipo>
92.5270

> <Gold.Chemscore.Internal_Hbond>
0.0000

> <Gold.Chemscore.DEClash>
1.0878

> <Gold.Chemscore.DEInternal>
0.9218

> <Gold.Chemscore.Rot>
1.0000

> <Gold.Chemscore.Internal.Correction>
   9.000000E+99

> <Gold.Chemscore.Hbonds>
donor molecule, donor type, donor heavy atom, donor atom, acceptor molecule, acceptor atom, score
      L1  H     3    31       P1  7948  0.81
      L1  H     7    22       P1  8028  0.97
      L1  H    10    23       P1  8028  0.38

> <Gold.Chemscore.Hbond.Weighted>
-7.9035

> <Gold.Chemscore.Metal.Weighted>
-0.0000

> <Gold.Chemscore.Lipo.Weighted>
-10.8257

> <Gold.Chemscore.Internal_Hbond.Weighted>
0.0000

> <Gold.Chemscore.DEClash.Weighted>
1.0878

> <Gold.Chemscore.DEInternal.Weighted>
0.9218

> <Gold.Chemscore.Rot.Weighted>
2.5600

> <Gold.Chemscore.Internal.Correction.Weighted>
   9.000000E+99

> <Gold.Protein.RotatedTorsions>
[ 6907 6896 6895 6894 ] final  -13.92 input  -60.11 | X-H torsion
[ 7974 7965 7964 7962 ] final  -49.68 input  175.53 | X-H torsion
[ 8008 7997 7996 7995 ] final   55.23 input   59.86 | X-H torsion
[ 10167 10162 10161 10158 ] final  -58.35 input  -65.29 | X-H torsion
[ 10718 10713 10712 10709 ] final   74.79 input   66.30 | X-H torsion
[ 10763 10752 10751 10750 ] final -135.12 input  -60.55 | X-H torsion
[ 11005 11000 10999 10996 ] final  123.77 input  -57.11 | X-H torsion

> <Gold.Protein.ActiveResidues>
 VAL166  LYS551  ARG553  GLY616  TRP617  ASP618  TYR619  PRO620  LYS621  CYS622 
 ASP623  PHE694  ASN695  SER759  ASP760  ASP761  ALA762  ILE779  LEU786  VAL792 
 PHE793  MET794  SER795  GLU796  ALA797  LYS798  CYS799  TRP800  GLU811  SER814 

> <Gold.Protein.RotatedAtoms>
  151.3474  135.0877  159.9391 H   0  0  0  0  0  0  0  0  0  0  0  0  # atno 6907 bound_to 6896
  152.5196  133.9387  159.7626 H   0  0  0  0  0  0  0  0  0  0  0  0  # atno 6908 bound_to 6896
  150.9755  133.6245  159.2760 H   0  0  0  0  0  0  0  0  0  0  0  0  # atno 6909 bound_to 6896
  145.9379  140.7689  142.9566 H   0  0  0  0  0  0  0  0  0  0  0  0  # atno 7974 bound_to 7965
  155.4977  140.3473  155.4365 H   0  0  0  0  0  0  0  0  0  0  0  0  # atno 8008 bound_to 7997
  156.0935  140.1417  156.9589 H   0  0  0  0  0  0  0  0  0  0  0  0  # atno 8009 bound_to 7997
  154.4649  140.0921  156.6971 H   0  0  0  0  0  0  0  0  0  0  0  0  # atno 8010 bound_to 7997
  140.6203  143.2417  151.5497 H   0  0  0  0  0  0  0  0  0  0  0  0  # atno 10167 bound_to 10162
  157.6607  130.9695  150.1261 H   0  0  0  0  0  0  0  0  0  0  0  0  # atno 10718 bound_to 10713
  154.8708  135.3713  154.4847 H   0  0  0  0  0  0  0  0  0  0  0  0  # atno 10763 bound_to 10752
  153.5498  135.7025  153.5602 H   0  0  0  0  0  0  0  0  0  0  0  0  # atno 10764 bound_to 10752
  153.3726  135.4017  155.1763 H   0  0  0  0  0  0  0  0  0  0  0  0  # atno 10765 bound_to 10752
  139.9328  134.9641  156.8309 H   0  0  0  0  0  0  0  0  0  0  0  0  # atno 11005 bound_to 11000
  144.6774  140.2233  143.7364 LP  0  0  0  0  0  0  0  0  0  0  0  0  # atno 17320 bound_to 7965
  145.8339  139.2098  143.1867 LP  0  0  0  0  0  0  0  0  0  0  0  0  # atno 17321 bound_to 7965
  139.5433  144.2589  152.1393 LP  0  0  0  0  0  0  0  0  0  0  0  0  # atno 17342 bound_to 10162
  140.1808  144.4846  150.6529 LP  0  0  0  0  0  0  0  0  0  0  0  0  # atno 17343 bound_to 10162
  156.2120  130.3667  149.8659 LP  0  0  0  0  0  0  0  0  0  0  0  0  # atno 17370 bound_to 10713
  156.6535  130.8753  151.3535 LP  0  0  0  0  0  0  0  0  0  0  0  0  # atno 17371 bound_to 10713
  140.6157  134.0041  155.7596 LP  0  0  0  0  0  0  0  0  0  0  0  0  # atno 17394 bound_to 11000
  141.0925  133.9894  157.3213 LP  0  0  0  0  0  0  0  0  0  0  0  0  # atno 17395 bound_to 11000

$$$$
