AV-unprocessed.smi:3350|AV-procd|sdf|12944|dock10
  -GOLD-   2272019383D 1   1.00000     0.00000
 Structure written by MMmdl.
 41 42  0  0  0  0  0  0  0  0  1 V2000
  145.0147  135.6699  150.3222 C   0  0  0  0  0  0  0  0  0  0  0  0
  144.9628  135.9677  151.8268 C   0  0  1  0  0  0  0  0  0  0  0  0
  144.7737  134.6741  152.6487 C   0  0  0  0  0  0  0  0  0  0  0  0
  144.8449  133.4742  151.8338 N   0  0  0  0  0  0  0  0  0  0  0  0
  143.8715  132.9295  151.0226 C   0  0  0  0  0  0  0  0  0  0  0  0
  144.4041  131.8153  150.4408 C   0  0  0  0  0  0  0  0  0  0  0  0
  145.7238  131.7567  150.9697 C   0  0  0  0  0  0  0  0  0  0  0  0
  145.9833  132.7484  151.8065 N   0  0  0  0  0  0  0  0  0  0  0  0
  146.1927  136.6571  152.2158 N   0  0  0  0  0  0  0  0  0  0  0  0
  146.2875  137.6251  153.1391 C   0  0  0  0  0  0  0  0  0  0  0  0
  145.3290  138.0767  153.7655 O   0  0  0  0  0  0  0  0  0  0  0  0
  147.5588  138.0199  153.3090 N   0  0  0  0  0  0  0  0  0  0  0  0
  148.0598  139.0176  154.2575 C   0  0  2  0  0  0  0  0  0  0  0  0
  147.3515  140.3723  154.0641 C   0  0  0  0  0  0  0  0  0  0  0  0
  149.6003  139.1289  154.2145 C   0  0  1  0  0  0  0  0  0  0  0  0
  150.1974  140.0899  155.2430 C   0  0  0  0  0  0  0  0  0  0  0  0
  151.6133  139.5704  155.4368 C   0  0  0  0  0  0  0  0  0  0  0  0
  151.5765  138.1577  154.8471 C   0  0  0  0  0  0  0  0  0  0  0  0
  150.2043  137.8988  154.5845 O   0  0  0  0  0  0  0  0  0  0  0  0
  144.0952  135.1901  149.9862 H   0  0  0  0  0  0  0  0  0  0  0  0
  145.8450  135.0071  150.0757 H   0  0  0  0  0  0  0  0  0  0  0  0
  145.1360  136.5866  149.7440 H   0  0  0  0  0  0  0  0  0  0  0  0
  144.1039  136.6203  151.9951 H   0  0  0  0  0  0  0  0  0  0  0  0
  145.5425  134.6030  153.4195 H   0  0  0  0  0  0  0  0  0  0  0  0
  143.8147  134.6867  153.1688 H   0  0  0  0  0  0  0  0  0  0  0  0
  142.8958  133.3809  150.9205 H   0  0  0  0  0  0  0  0  0  0  0  0
  143.9256  131.1458  149.7419 H   0  0  0  0  0  0  0  0  0  0  0  0
  146.4958  131.0280  150.7718 H   0  0  0  0  0  0  0  0  0  0  0  0
  147.0415  136.3576  151.7588 H   0  0  0  0  0  0  0  0  0  0  0  0
  148.2575  137.5774  152.7305 H   0  0  0  0  0  0  0  0  0  0  0  0
  147.7800  138.6434  155.2427 H   0  0  0  0  0  0  0  0  0  0  0  0
  147.6036  141.0659  154.8662 H   0  0  0  0  0  0  0  0  0  0  0  0
  146.2676  140.2527  154.0675 H   0  0  0  0  0  0  0  0  0  0  0  0
  147.6314  140.8465  153.1232 H   0  0  0  0  0  0  0  0  0  0  0  0
  149.9471  139.4067  153.2178 H   0  0  0  0  0  0  0  0  0  0  0  0
  150.1700  141.1293  154.9147 H   0  0  0  0  0  0  0  0  0  0  0  0
  149.6527  140.0206  156.1856 H   0  0  0  0  0  0  0  0  0  0  0  0
  152.3394  140.1877  154.9068 H   0  0  0  0  0  0  0  0  0  0  0  0
  151.8858  139.5623  156.4927 H   0  0  0  0  0  0  0  0  0  0  0  0
  152.1349  138.1186  153.9109 H   0  0  0  0  0  0  0  0  0  0  0  0
  151.9926  137.4103  155.5227 H   0  0  0  0  0  0  0  0  0  0  0  0
  1  2  1  0  0  0  0
  1 20  1  0  0  0  0
  1 21  1  0  0  0  0
  1 22  1  0  0  0  0
  2  3  1  0  0  0  0
  2  9  1  0  0  0  0
  2 23  1  0  0  0  0
  3  4  1  0  0  0  0
  3 24  1  0  0  0  0
  3 25  1  0  0  0  0
  4  8  1  0  0  0  0
  4  5  1  0  0  0  0
  5  6  2  0  0  0  0
  5 26  1  0  0  0  0
  6  7  1  0  0  0  0
  6 27  1  0  0  0  0
  7  8  2  0  0  0  0
  7 28  1  0  0  0  0
  9 10  1  0  0  0  0
  9 29  1  0  0  0  0
 10 11  2  0  0  0  0
 10 12  1  0  0  0  0
 12 13  1  0  0  0  0
 12 30  1  0  0  0  0
 13 14  1  0  0  0  0
 13 15  1  0  0  0  0
 13 31  1  0  0  0  0
 14 32  1  0  0  0  0
 14 33  1  0  0  0  0
 14 34  1  0  0  0  0
 15 19  1  0  0  0  0
 15 16  1  0  0  0  0
 15 35  1  0  0  0  0
 16 17  1  0  0  0  0
 16 36  1  0  0  0  0
 16 37  1  0  0  0  0
 17 18  1  0  0  0  0
 17 38  1  0  0  0  0
 17 39  1  0  0  0  0
 18 19  1  0  0  0  0
 18 40  1  0  0  0  0
 18 41  1  0  0  0  0
M  END
> <s_m_source_file>
AV-unprocessed.smi

> <i_m_source_file_index>
3350

> <i_lp_mmshare_version>
43012

> <i_f3d_flags>
0

> <s_epik_input>
bjFbY0hdW2NIXVtjSF1uMVtDSDJdW0NAQEhdKFtDSDNdKVtOSF1DKD1PKVtOSF1bQ0BIXShbQ0gzXSlbQ0BASF0yW0NIMl1bQ0gyXVtDSDJdTzI=

> <s_epik_cmdline>
J2VwaWtfcHl0aG9uJywgJy1waCcsICc3LjAnLCAnLXRuJywgJzgnLCAnLW1hJywgJzIwMCcsICctbWV0YWxfYmluZGluZycsICctaW1hZScsICc8aW5maWxlLm1hZT4nLCAnLW9tYWUnLCAnPG91dGZpbGUubWFlPic=

> <r_lp_tautomer_probability>
1

> <r_epik_Ionization_Penalty>
6.42349e-05

> <r_epik_Ionization_Penalty_Charging>
0

> <r_epik_Ionization_Penalty_Neutral>
6.42349e-05

> <r_epik_State_Penalty>
-0

> <r_epik_Charging_Adjusted_Penalty>
0

> <i_epik_Tot_Q>
0

> <i_epik_Tot_abs_Q>
0

> <r_epik_Metal_State_Penalty>
-0

> <b_epik_Metal_Only>
0

> <s_lp_Force_Field>
OPLS_2005

> <r_lp_Energy>
15.9813

> <b_lp_Chiralities_Consistent>
1

> <s_lp_Variant>
AV-unprocessed.smi:3350-6

> <Gold.Version>
5.8.1

> <Gold.Id.Protein>
6NUR|6NUR_protein|mol2

> <Gold.PLP.Fitness>
41.5525

> <Gold.PLP.PLP>
-32.5166

> <Gold.PLP.part.hbond>
-2.0000

> <Gold.PLP.part.metal>
0.0000

> <Gold.PLP.part.buried>
-1.0170

> <Gold.PLP.part.nonpolar>
-29.6387

> <Gold.PLP.part.repulsive>
0.5794

> <Gold.PLP.ligand.clash>
0.0000

> <Gold.PLP.ligand.torsion>
1.3961

> <Gold.PLP.Chemscore.Hbond>
1.9120

> <Gold.PLP.Chemscore.CHOScore>
2.0000

> <Gold.PLP.Chemscore.Metal>
0.0000

> <Gold.Chemscore.Hbonds>
donor molecule, donor type, donor heavy atom, donor atom, acceptor molecule, acceptor atom, score
      L1  H     9    29       P1  7948  0.96
      L1  H    12    30       P1  7948  1.00
      L1  C     5    26       P1 10186  0.95
      L1  C     7    28       P1 10747  1.00

> <Gold.PLP.Chemscore.Internal.Correction>
0.0922

> <Gold.Rescore>
     Score         DG    S(hbond)    S(metal)    S(lipo)     H(rot)  DE(clash)    DE(int)     intcor
     14.98     -16.89       1.92        0.00      82.66       1.82       0.45       1.47       ----

> <Gold.Chemscore.Fitness>
14.9793

> <Gold.Chemscore.DG>
-16.8917

> <Gold.Chemscore.ZeroCoef>
-5.4800

> <Gold.Chemscore.Hbond>
1.9158

> <Gold.Chemscore.Metal>
0.0000

> <Gold.Chemscore.Lipo>
82.6608

> <Gold.Chemscore.Internal_Hbond>
0.0000

> <Gold.Chemscore.DEClash>
0.4462

> <Gold.Chemscore.DEInternal>
1.4661

> <Gold.Chemscore.Rot>
1.8197

> <Gold.Chemscore.Internal.Correction>
   9.000000E+99

> <Gold.Chemscore.Hbonds>
donor molecule, donor type, donor heavy atom, donor atom, acceptor molecule, acceptor atom, score
      L1  H     9    29       P1  7948  0.92
      L1  H    12    30       P1  7948  0.98

> <Gold.Chemscore.Hbond.Weighted>
-6.3987

> <Gold.Chemscore.Metal.Weighted>
-0.0000

> <Gold.Chemscore.Lipo.Weighted>
-9.6713

> <Gold.Chemscore.Internal_Hbond.Weighted>
0.0000

> <Gold.Chemscore.DEClash.Weighted>
0.4462

> <Gold.Chemscore.DEInternal.Weighted>
1.4661

> <Gold.Chemscore.Rot.Weighted>
4.6583

> <Gold.Chemscore.Internal.Correction.Weighted>
   9.000000E+99

> <Gold.Protein.RotatedTorsions>
[ 6907 6896 6895 6894 ] final  133.07 input  -60.11 | X-H torsion
[ 7974 7965 7964 7962 ] final   -1.73 input  175.53 | X-H torsion
[ 8008 7997 7996 7995 ] final   89.29 input   59.86 | X-H torsion
[ 10167 10162 10161 10158 ] final -110.18 input  -65.29 | X-H torsion
[ 10718 10713 10712 10709 ] final   71.87 input   66.30 | X-H torsion
[ 10763 10752 10751 10750 ] final  -38.41 input  -60.55 | X-H torsion
[ 11005 11000 10999 10996 ] final -148.54 input  -57.11 | X-H torsion

> <Gold.Protein.ActiveResidues>
 VAL166  LYS551  ARG553  GLY616  TRP617  ASP618  TYR619  PRO620  LYS621  CYS622 
 ASP623  PHE694  ASN695  SER759  ASP760  ASP761  ALA762  ILE779  LEU786  VAL792 
 PHE793  MET794  SER795  GLU796  ALA797  LYS798  CYS799  TRP800  GLU811  SER814 

> <Gold.Protein.RotatedAtoms>
  152.3258  133.5904  159.5775 H   0  0  0  0  0  0  0  0  0  0  0  0  # atno 6907 bound_to 6896
  150.7396  133.9942  159.3626 H   0  0  0  0  0  0  0  0  0  0  0  0  # atno 6908 bound_to 6896
  151.7822  135.0759  160.0426 H   0  0  0  0  0  0  0  0  0  0  0  0  # atno 6909 bound_to 6896
  146.2413  140.1464  142.8334 H   0  0  0  0  0  0  0  0  0  0  0  0  # atno 7974 bound_to 7965
  155.9981  140.3362  155.6818 H   0  0  0  0  0  0  0  0  0  0  0  0  # atno 8008 bound_to 7997
  155.6328  140.0687  157.2661 H   0  0  0  0  0  0  0  0  0  0  0  0  # atno 8009 bound_to 7997
  154.4240  140.1756  156.1478 H   0  0  0  0  0  0  0  0  0  0  0  0  # atno 8010 bound_to 7997
  140.1473  143.4229  152.1520 H   0  0  0  0  0  0  0  0  0  0  0  0  # atno 10167 bound_to 10162
  157.6473  130.9550  150.0849 H   0  0  0  0  0  0  0  0  0  0  0  0  # atno 10718 bound_to 10713
  153.9124  135.6791  153.4750 H   0  0  0  0  0  0  0  0  0  0  0  0  # atno 10763 bound_to 10752
  153.1071  135.4800  154.8968 H   0  0  0  0  0  0  0  0  0  0  0  0  # atno 10764 bound_to 10752
  154.7520  135.3187  154.8495 H   0  0  0  0  0  0  0  0  0  0  0  0  # atno 10765 bound_to 10752
  140.7602  134.3307  157.5103 H   0  0  0  0  0  0  0  0  0  0  0  0  # atno 11005 bound_to 11000
  145.0204  140.8789  143.5170 LP  0  0  0  0  0  0  0  0  0  0  0  0  # atno 17320 bound_to 7965
  145.1511  139.2514  143.5440 LP  0  0  0  0  0  0  0  0  0  0  0  0  # atno 17321 bound_to 7965
  139.5443  144.7284  151.4634 LP  0  0  0  0  0  0  0  0  0  0  0  0  # atno 17342 bound_to 10162
  140.6724  143.8264  150.7016 LP  0  0  0  0  0  0  0  0  0  0  0  0  # atno 17343 bound_to 10162
  156.1815  130.3650  149.9029 LP  0  0  0  0  0  0  0  0  0  0  0  0  # atno 17370 bound_to 10713
  156.6980  130.8922  151.3596 LP  0  0  0  0  0  0  0  0  0  0  0  0  # atno 17371 bound_to 10713
  139.8772  134.9197  156.3233 LP  0  0  0  0  0  0  0  0  0  0  0  0  # atno 17394 bound_to 11000
  140.9670  133.7351  156.0481 LP  0  0  0  0  0  0  0  0  0  0  0  0  # atno 17395 bound_to 11000

$$$$
