AV-unprocessed.smi:1268|AV-procd|sdf|5324|dock2
  -GOLD-   22720 4453D 1   1.00000     0.00000
 Structure written by MMmdl.
 40 41  0  0  0  0  0  0  0  0  2 V2000
  144.3446  136.5933  151.8997 O   0  0  0  0  0  0  0  0  0  0  0  0
  145.5594  136.4431  151.7676 C   0  0  0  0  0  0  0  0  0  0  0  0
  146.4577  137.3782  152.1102 N   0  0  0  0  0  0  0  0  0  0  0  0
  146.1293  138.6892  152.6615 C   0  0  0  0  0  0  0  0  0  0  0  0
  147.2857  139.2704  153.5011 C   0  0  1  0  0  0  0  0  0  0  0  0
  148.4928  138.6890  153.0481 O   0  0  0  0  0  0  0  0  0  0  0  0
  147.4045  140.7966  153.3165 C   0  0  0  0  0  0  0  0  0  0  0  0
  146.2190  141.5274  153.8336 N   0  3  0  0  0  0  0  0  0  0  0  0
  145.8437  141.0960  155.2052 C   0  0  0  0  0  0  0  0  0  0  0  0
  144.5264  141.7517  155.6518 C   0  0  0  0  0  0  0  0  0  0  0  0
  144.6166  143.2810  155.5688 C   0  0  0  0  0  0  0  0  0  0  0  0
  145.0453  143.7055  154.1581 C   0  0  0  0  0  0  0  0  0  0  0  0
  146.3516  143.0068  153.7439 C   0  0  0  0  0  0  0  0  0  0  0  0
  146.1588  135.3457  151.2791 N   0  0  0  0  0  0  0  0  0  0  0  0
  145.5441  134.1591  150.8079 C   0  0  0  0  0  0  0  0  0  0  0  0
  144.2240  134.1500  150.6146 N   0  0  0  0  0  0  0  0  0  0  0  0
  143.7692  132.9104  150.1556 C   0  0  0  0  0  0  0  0  0  0  0  0
  144.7657  131.9786  150.0027 C   0  0  0  0  0  0  0  0  0  0  0  0
  146.3280  132.6226  150.4307 S   0  0  0  0  0  0  0  0  0  0  0  0
  147.4366  137.1761  151.9669 H   0  0  0  0  0  0  0  0  0  0  0  0
  145.8539  139.3661  151.8516 H   0  0  0  0  0  0  0  0  0  0  0  0
  145.2353  138.5828  153.2786 H   0  0  0  0  0  0  0  0  0  0  0  0
  147.1439  139.0273  154.5535 H   0  0  0  0  0  0  0  0  0  0  0  0
  148.3042  137.8216  152.7219 H   0  0  0  0  0  0  0  0  0  0  0  0
  148.3053  141.1371  153.8301 H   0  0  0  0  0  0  0  0  0  0  0  0
  147.5453  141.0471  152.2638 H   0  0  0  0  0  0  0  0  0  0  0  0
  145.7273  140.0119  155.2329 H   0  0  0  0  0  0  0  0  0  0  0  0
  146.6466  141.3482  155.9000 H   0  0  0  0  0  0  0  0  0  0  0  0
  143.7095  141.3977  155.0214 H   0  0  0  0  0  0  0  0  0  0  0  0
  144.2851  141.4475  156.6707 H   0  0  0  0  0  0  0  0  0  0  0  0
  143.6557  143.7294  155.8233 H   0  0  0  0  0  0  0  0  0  0  0  0
  145.3373  143.6487  156.3004 H   0  0  0  0  0  0  0  0  0  0  0  0
  144.2568  143.4598  153.4454 H   0  0  0  0  0  0  0  0  0  0  0  0
  145.1723  144.7879  154.1182 H   0  0  0  0  0  0  0  0  0  0  0  0
  147.1715  143.3387  154.3827 H   0  0  0  0  0  0  0  0  0  0  0  0
  146.6046  143.3073  152.7279 H   0  0  0  0  0  0  0  0  0  0  0  0
  147.1670  135.3601  151.2344 H   0  0  0  0  0  0  0  0  0  0  0  0
  142.7149  132.7771  149.9628 H   0  0  0  0  0  0  0  0  0  0  0  0
  144.6754  130.9566  149.6660 H   0  0  0  0  0  0  0  0  0  0  0  0
  145.4481  141.2618  153.2371 H   0  0  0  0  0  0  0  0  0  0  0  0
  1  2  2  0  0  0  0
  2  3  1  0  0  0  0
  2 14  1  0  0  0  0
  3  4  1  0  0  0  0
  3 20  1  0  0  0  0
  4  5  1  0  0  0  0
  4 21  1  0  0  0  0
  4 22  1  0  0  0  0
  5  6  1  0  0  0  0
  5  7  1  0  0  0  0
  5 23  1  0  0  0  0
  6 24  1  0  0  0  0
  7  8  1  0  0  0  0
  7 25  1  0  0  0  0
  7 26  1  0  0  0  0
  8 13  1  0  0  0  0
  8  9  1  0  0  0  0
  8 40  1  0  0  0  0
  9 10  1  0  0  0  0
  9 27  1  0  0  0  0
  9 28  1  0  0  0  0
 10 11  1  0  0  0  0
 10 29  1  0  0  0  0
 10 30  1  0  0  0  0
 11 12  1  0  0  0  0
 11 31  1  0  0  0  0
 11 32  1  0  0  0  0
 12 13  1  0  0  0  0
 12 33  1  0  0  0  0
 12 34  1  0  0  0  0
 13 35  1  0  0  0  0
 13 36  1  0  0  0  0
 14 15  1  0  0  0  0
 14 37  1  0  0  0  0
 15 19  1  0  0  0  0
 15 16  2  0  0  0  0
 16 17  1  0  0  0  0
 17 18  2  0  0  0  0
 17 38  1  0  0  0  0
 18 19  1  0  0  0  0
 18 39  1  0  0  0  0
M  CHG  1   8   1
M  END
> <s_m_source_file>
AV-unprocessed.smi

> <i_m_source_file_index>
1268

> <i_lp_mmshare_version>
43012

> <i_f3d_flags>
0

> <s_epik_input>
czFbY0hdW2NIXW5jMVtOSF1DKD1PKVtOSF1bQ0gyXVtDQEhdKFtPSF0pW0NIMl1OMltDSDJdW0NIMl1bQ0gyXVtDSDJdW0NIMl0y

> <s_epik_cmdline>
J2VwaWtfcHl0aG9uJywgJy1waCcsICc3LjAnLCAnLXRuJywgJzgnLCAnLW1hJywgJzIwMCcsICctbWV0YWxfYmluZGluZycsICctaW1hZScsICc8aW5maWxlLm1hZT4nLCAnLW9tYWUnLCAnPG91dGZpbGUubWFlPic=

> <r_lp_tautomer_probability>
0.999

> <r_epik_Ionization_Penalty>
0.00539631

> <r_epik_Ionization_Penalty_Charging>
0.00525788

> <r_epik_Ionization_Penalty_Neutral>
0.000138432

> <r_epik_State_Penalty>
0.0038355

> <r_epik_Charging_Adjusted_Penalty>
0.00909338

> <i_epik_Tot_Q>
1

> <i_epik_Tot_abs_Q>
1

> <r_epik_Metal_State_Penalty>
0.0500806

> <b_epik_Metal_Only>
0

> <s_lp_Force_Field>
OPLS_2005

> <r_lp_Energy>
15.7881

> <b_lp_Chiralities_Consistent>
1

> <s_lp_Variant>
AV-unprocessed.smi:1268-2

> <Gold.Version>
5.8.1

> <Gold.Id.Protein>
6NUR|6NUR_protein|mol2

> <Gold.PLP.Fitness>
50.7753

> <Gold.PLP.PLP>
-34.5310

> <Gold.PLP.part.hbond>
-4.7548

> <Gold.PLP.part.metal>
0.0000

> <Gold.PLP.part.buried>
-4.5448

> <Gold.PLP.part.nonpolar>
-27.2179

> <Gold.PLP.part.repulsive>
1.1194

> <Gold.PLP.ligand.clash>
0.0000

> <Gold.PLP.ligand.torsion>
0.7387

> <Gold.PLP.Chemscore.Hbond>
4.9345

> <Gold.PLP.Chemscore.CHOScore>
0.9499

> <Gold.PLP.Chemscore.Metal>
0.0000

> <Gold.Chemscore.Hbonds>
donor molecule, donor type, donor heavy atom, donor atom, acceptor molecule, acceptor atom, score
      L1  H     3    20       P1  7948  1.00
      L1  H     6    24       P1  7948  0.93
      L1  H     8    40       P1 10175  1.67
      L1  H    14    37       P1  7948  0.99
      L1  C    17    38       P1 10186  1.00

> <Gold.PLP.Chemscore.Internal.Correction>
0.0682

> <Gold.Rescore>
     Score         DG    S(hbond)    S(metal)    S(lipo)     H(rot)  DE(clash)    DE(int)     intcor
     16.11     -18.45       3.40        0.00      69.39       2.54       0.20       2.14       ----

> <Gold.Chemscore.Fitness>
16.1056

> <Gold.Chemscore.DG>
-18.4459

> <Gold.Chemscore.ZeroCoef>
-5.4800

> <Gold.Chemscore.Hbond>
3.3967

> <Gold.Chemscore.Metal>
0.0000

> <Gold.Chemscore.Lipo>
69.3946

> <Gold.Chemscore.Internal_Hbond>
0.0000

> <Gold.Chemscore.DEClash>
0.2033

> <Gold.Chemscore.DEInternal>
2.1370

> <Gold.Chemscore.Rot>
2.5383

> <Gold.Chemscore.Internal.Correction>
   9.000000E+99

> <Gold.Chemscore.Hbonds>
donor molecule, donor type, donor heavy atom, donor atom, acceptor molecule, acceptor atom, score
      L1  H     3    20       P1  7948  1.00
      L1  H     6    24       P1  7948  0.91
      L1  H     8    40       P1 10175  0.16
      L1  H    14    37       P1  7948  0.75

> <Gold.Chemscore.Hbond.Weighted>
-11.3448

> <Gold.Chemscore.Metal.Weighted>
-0.0000

> <Gold.Chemscore.Lipo.Weighted>
-8.1192

> <Gold.Chemscore.Internal_Hbond.Weighted>
0.0000

> <Gold.Chemscore.DEClash.Weighted>
0.2033

> <Gold.Chemscore.DEInternal.Weighted>
2.1370

> <Gold.Chemscore.Rot.Weighted>
6.4981

> <Gold.Chemscore.Internal.Correction.Weighted>
   9.000000E+99

> <Gold.Protein.RotatedTorsions>
[ 6907 6896 6895 6894 ] final  133.59 input  -60.11 | X-H torsion
[ 7974 7965 7964 7962 ] final   72.43 input  175.53 | X-H torsion
[ 8008 7997 7996 7995 ] final  130.98 input   59.86 | X-H torsion
[ 10167 10162 10161 10158 ] final -103.33 input  -65.29 | X-H torsion
[ 10718 10713 10712 10709 ] final -157.22 input   66.30 | X-H torsion
[ 10763 10752 10751 10750 ] final  -75.49 input  -60.55 | X-H torsion
[ 11005 11000 10999 10996 ] final  -70.75 input  -57.11 | X-H torsion

> <Gold.Protein.ActiveResidues>
 VAL166  LYS551  ARG553  GLY616  TRP617  ASP618  TYR619  PRO620  LYS621  CYS622 
 ASP623  PHE694  ASN695  SER759  ASP760  ASP761  ALA762  ILE779  LEU786  VAL792 
 PHE793  MET794  SER795  GLU796  ALA797  LYS798  CYS799  TRP800  GLU811  SER814 

> <Gold.Protein.RotatedAtoms>
  152.3203  133.5847  159.5739 H   0  0  0  0  0  0  0  0  0  0  0  0  # atno 6907 bound_to 6896
  150.7368  134.0020  159.3650 H   0  0  0  0  0  0  0  0  0  0  0  0  # atno 6908 bound_to 6896
  151.7905  135.0737  160.0437 H   0  0  0  0  0  0  0  0  0  0  0  0  # atno 6909 bound_to 6896
  145.7535  139.2770  143.1417 H   0  0  0  0  0  0  0  0  0  0  0  0  # atno 7974 bound_to 7965
  156.2963  140.2582  156.2851 H   0  0  0  0  0  0  0  0  0  0  0  0  # atno 8008 bound_to 7997
  154.9564  140.0393  157.2188 H   0  0  0  0  0  0  0  0  0  0  0  0  # atno 8009 bound_to 7997
  154.7987  140.2824  155.5942 H   0  0  0  0  0  0  0  0  0  0  0  0  # atno 8010 bound_to 7997
  140.2212  143.3675  152.0968 H   0  0  0  0  0  0  0  0  0  0  0  0  # atno 10167 bound_to 10162
  156.5373  130.8547  151.2737 H   0  0  0  0  0  0  0  0  0  0  0  0  # atno 10718 bound_to 10713
  154.4872  135.5829  153.6432 H   0  0  0  0  0  0  0  0  0  0  0  0  # atno 10763 bound_to 10752
  152.9856  135.6104  154.3171 H   0  0  0  0  0  0  0  0  0  0  0  0  # atno 10764 bound_to 10752
  154.3068  135.2845  155.2564 H   0  0  0  0  0  0  0  0  0  0  0  0  # atno 10765 bound_to 10752
  141.1580  133.6798  156.6801 H   0  0  0  0  0  0  0  0  0  0  0  0  # atno 11005 bound_to 11000
  146.0333  140.8236  142.9865 LP  0  0  0  0  0  0  0  0  0  0  0  0  # atno 17320 bound_to 7965
  144.6845  140.2802  143.7293 LP  0  0  0  0  0  0  0  0  0  0  0  0  # atno 17321 bound_to 7965
  139.5144  144.6947  151.5664 LP  0  0  0  0  0  0  0  0  0  0  0  0  # atno 17342 bound_to 10162
  140.6254  143.9179  150.6560 LP  0  0  0  0  0  0  0  0  0  0  0  0  # atno 17343 bound_to 10162
  157.7411  130.9864  150.2425 LP  0  0  0  0  0  0  0  0  0  0  0  0  # atno 17370 bound_to 10713
  156.3004  130.3757  149.7756 LP  0  0  0  0  0  0  0  0  0  0  0  0  # atno 17371 bound_to 10713
  140.3109  134.8087  157.4175 LP  0  0  0  0  0  0  0  0  0  0  0  0  # atno 17394 bound_to 11000
  140.1180  134.5258  155.8208 LP  0  0  0  0  0  0  0  0  0  0  0  0  # atno 17395 bound_to 11000

$$$$
