AV-unprocessed.smi:3170|AV-procd|sdf|12110|dock5
  -GOLD-   2272017553D 1   1.00000     0.00000
 Structure written by MMmdl.
 35 36  0  0  0  0  0  0  0  0  1 V2000
  145.3569  138.1263  153.6510 O   0  0  0  0  0  0  0  0  0  0  0  0
  146.3373  137.5811  153.1440 C   0  0  0  0  0  0  0  0  0  0  0  0
  146.2967  136.4018  152.5089 N   0  0  0  0  0  0  0  0  0  0  0  0
  145.0956  135.5956  152.3120 C   0  0  0  0  0  0  0  0  0  0  0  0
  144.8572  135.2397  150.8321 C   0  0  0  0  0  0  0  0  0  0  0  0
  145.0400  133.8247  150.5692 N   0  0  0  0  0  0  0  0  0  0  0  0
  146.2118  133.0921  150.7008 C   0  0  0  0  0  0  0  0  0  0  0  0
  145.9093  131.7989  150.3387 C   0  0  0  0  0  0  0  0  0  0  0  0
  144.5655  131.7138  149.9820 N   0  0  0  0  0  0  0  0  0  0  0  0
  144.1160  132.9511  150.1461 C   0  0  0  0  0  0  0  0  0  0  0  0
  147.5719  138.0985  153.1548 N   0  0  0  0  0  0  0  0  0  0  0  0
  147.9217  139.3759  153.7622 C   0  0  0  0  0  0  0  0  0  0  0  0
  149.1563  139.2367  154.6675 C   0  0  1  0  0  0  0  0  0  0  0  0
  150.3234  138.5285  154.0115 C   0  0  0  0  0  0  0  0  0  0  0  0
  151.4884  138.9486  154.9025 C   0  0  0  0  0  0  0  0  0  0  0  0
  151.1611  140.2493  155.3838 O   0  0  0  0  0  0  0  0  0  0  0  0
  149.8069  140.5614  155.0703 C   0  0  0  0  0  0  0  0  0  0  0  0
  147.1563  136.0379  152.1245 H   0  0  0  0  0  0  0  0  0  0  0  0
  145.1936  134.6845  152.9032 H   0  0  0  0  0  0  0  0  0  0  0  0
  144.2313  136.1285  152.7110 H   0  0  0  0  0  0  0  0  0  0  0  0
  143.8398  135.5098  150.5470 H   0  0  0  0  0  0  0  0  0  0  0  0
  145.5218  135.8090  150.1808 H   0  0  0  0  0  0  0  0  0  0  0  0
  147.1379  133.5393  151.0308 H   0  0  0  0  0  0  0  0  0  0  0  0
  146.5501  130.9301  150.3070 H   0  0  0  0  0  0  0  0  0  0  0  0
  143.0915  133.2305  149.9477 H   0  0  0  0  0  0  0  0  0  0  0  0
  148.3159  137.5802  152.7110 H   0  0  0  0  0  0  0  0  0  0  0  0
  148.1207  140.0999  152.9708 H   0  0  0  0  0  0  0  0  0  0  0  0
  147.0754  139.7555  154.3372 H   0  0  0  0  0  0  0  0  0  0  0  0
  148.8850  138.6892  155.5720 H   0  0  0  0  0  0  0  0  0  0  0  0
  150.1962  137.4468  153.9610 H   0  0  0  0  0  0  0  0  0  0  0  0
  150.4764  138.9027  152.9982 H   0  0  0  0  0  0  0  0  0  0  0  0
  151.5763  138.2757  155.7563 H   0  0  0  0  0  0  0  0  0  0  0  0
  152.4402  138.9472  154.3710 H   0  0  0  0  0  0  0  0  0  0  0  0
  149.8011  141.2648  154.2365 H   0  0  0  0  0  0  0  0  0  0  0  0
  149.3034  141.0347  155.9136 H   0  0  0  0  0  0  0  0  0  0  0  0
  1  2  2  0  0  0  0
  2  3  1  0  0  0  0
  2 11  1  0  0  0  0
  3  4  1  0  0  0  0
  3 18  1  0  0  0  0
  4  5  1  0  0  0  0
  4 19  1  0  0  0  0
  4 20  1  0  0  0  0
  5  6  1  0  0  0  0
  5 21  1  0  0  0  0
  5 22  1  0  0  0  0
  6 10  1  0  0  0  0
  6  7  1  0  0  0  0
  7  8  2  0  0  0  0
  7 23  1  0  0  0  0
  8  9  1  0  0  0  0
  8 24  1  0  0  0  0
  9 10  2  0  0  0  0
 10 25  1  0  0  0  0
 11 12  1  0  0  0  0
 11 26  1  0  0  0  0
 12 13  1  0  0  0  0
 12 27  1  0  0  0  0
 12 28  1  0  0  0  0
 13 17  1  0  0  0  0
 13 14  1  0  0  0  0
 13 29  1  0  0  0  0
 14 15  1  0  0  0  0
 14 30  1  0  0  0  0
 14 31  1  0  0  0  0
 15 16  1  0  0  0  0
 15 32  1  0  0  0  0
 15 33  1  0  0  0  0
 16 17  1  0  0  0  0
 17 34  1  0  0  0  0
 17 35  1  0  0  0  0
M  END
> <s_m_source_file>
AV-unprocessed.smi

> <i_m_source_file_index>
3170

> <i_lp_mmshare_version>
43012

> <i_f3d_flags>
0

> <s_epik_input>
W0NIMl0xT1tDSDJdW0NIMl1bQ0BIXTFbQ0gyXVtOSF1DKD1PKVtOSF1bQ0gyXVtDSDJdbjJbY0hdW2NIXW5bY0hdMg==

> <s_epik_cmdline>
J2VwaWtfcHl0aG9uJywgJy1waCcsICc3LjAnLCAnLXRuJywgJzgnLCAnLW1hJywgJzIwMCcsICctbWV0YWxfYmluZGluZycsICctaW1hZScsICc8aW5maWxlLm1hZT4nLCAnLW9tYWUnLCAnPG91dGZpbGUubWFlPic=

> <r_lp_tautomer_probability>
1

> <r_epik_Ionization_Penalty>
0.621287

> <r_epik_Ionization_Penalty_Charging>
0.621234

> <r_epik_Ionization_Penalty_Neutral>
5.30999e-05

> <r_epik_State_Penalty>
0.637278

> <r_epik_Charging_Adjusted_Penalty>
1.25851

> <i_epik_Tot_Q>
0

> <i_epik_Tot_abs_Q>
0

> <r_epik_Metal_State_Penalty>
0.306756

> <b_epik_Metal_Only>
0

> <s_lp_Force_Field>
OPLS_2005

> <r_lp_Energy>
18.1747

> <b_lp_Chiralities_Consistent>
1

> <s_lp_Variant>
AV-unprocessed.smi:3170-4

> <Gold.Version>
5.8.1

> <Gold.Id.Protein>
6NUR|6NUR_protein|mol2

> <Gold.PLP.Fitness>
44.2475

> <Gold.PLP.PLP>
-32.7595

> <Gold.PLP.part.hbond>
-3.7656

> <Gold.PLP.part.metal>
0.0000

> <Gold.PLP.part.buried>
-2.9448

> <Gold.PLP.part.nonpolar>
-26.0715

> <Gold.PLP.part.repulsive>
0.4162

> <Gold.PLP.ligand.clash>
0.0000

> <Gold.PLP.ligand.torsion>
0.5208

> <Gold.PLP.Chemscore.Hbond>
2.1635

> <Gold.PLP.Chemscore.CHOScore>
2.0000

> <Gold.PLP.Chemscore.Metal>
0.0000

> <Gold.Chemscore.Hbonds>
donor molecule, donor type, donor heavy atom, donor atom, acceptor molecule, acceptor atom, score
      L1  H     3    18       P1  7948  0.99
      L1  H    11    26       P1  7948  1.00
      P1  H  7989  7998       L1    16  0.10
      P1  H 10785 10796       L1     9  0.02
      L1  C     8    24       P1 10747  0.97
      L1  C    10    25       P1 10186  1.00

> <Gold.PLP.Chemscore.Internal.Correction>
0.0392

> <Gold.Rescore>
     Score         DG    S(hbond)    S(metal)    S(lipo)     H(rot)  DE(clash)    DE(int)     intcor
     14.07     -14.58       2.23        0.00      63.35       2.25       0.04       0.47       ----

> <Gold.Chemscore.Fitness>
14.0680

> <Gold.Chemscore.DG>
-14.5778

> <Gold.Chemscore.ZeroCoef>
-5.4800

> <Gold.Chemscore.Hbond>
2.2271

> <Gold.Chemscore.Metal>
0.0000

> <Gold.Chemscore.Lipo>
63.3534

> <Gold.Chemscore.Internal_Hbond>
0.0000

> <Gold.Chemscore.DEClash>
0.0387

> <Gold.Chemscore.DEInternal>
0.4710

> <Gold.Chemscore.Rot>
2.2474

> <Gold.Chemscore.Internal.Correction>
   9.000000E+99

> <Gold.Chemscore.Hbonds>
donor molecule, donor type, donor heavy atom, donor atom, acceptor molecule, acceptor atom, score
      L1  H     3    18       P1  7948  0.94
      L1  H    11    26       P1  7948  0.98
      P1  H 10785 10796       L1     9  0.05

> <Gold.Chemscore.Hbond.Weighted>
-7.4387

> <Gold.Chemscore.Metal.Weighted>
-0.0000

> <Gold.Chemscore.Lipo.Weighted>
-7.4124

> <Gold.Chemscore.Internal_Hbond.Weighted>
0.0000

> <Gold.Chemscore.DEClash.Weighted>
0.0387

> <Gold.Chemscore.DEInternal.Weighted>
0.4710

> <Gold.Chemscore.Rot.Weighted>
5.7532

> <Gold.Chemscore.Internal.Correction.Weighted>
   9.000000E+99

> <Gold.Protein.RotatedTorsions>
[ 6907 6896 6895 6894 ] final  -37.67 input  -60.11 | X-H torsion
[ 7974 7965 7964 7962 ] final  -56.78 input  175.53 | X-H torsion
[ 8008 7997 7996 7995 ] final  -34.76 input   59.86 | X-H torsion
[ 10167 10162 10161 10158 ] final  177.35 input  -65.29 | X-H torsion
[ 10718 10713 10712 10709 ] final   90.32 input   66.30 | X-H torsion
[ 10763 10752 10751 10750 ] final  170.98 input  -60.55 | X-H torsion
[ 11005 11000 10999 10996 ] final   90.71 input  -57.11 | X-H torsion

> <Gold.Protein.ActiveResidues>
 VAL166  LYS551  ARG553  GLY616  TRP617  ASP618  TYR619  PRO620  LYS621  CYS622 
 ASP623  PHE694  ASN695  SER759  ASP760  ASP761  ALA762  ILE779  LEU786  VAL792 
 PHE793  MET794  SER795  GLU796  ALA797  LYS798  CYS799  TRP800  GLU811  SER814 

> <Gold.Protein.RotatedAtoms>
  151.0118  134.9402  159.8011 H   0  0  0  0  0  0  0  0  0  0  0  0  # atno 6907 bound_to 6896
  152.5304  134.3018  159.9091 H   0  0  0  0  0  0  0  0  0  0  0  0  # atno 6908 bound_to 6896
  151.3024  133.4074  159.2675 H   0  0  0  0  0  0  0  0  0  0  0  0  # atno 6909 bound_to 6896
  145.8587  140.8301  142.9948 H   0  0  0  0  0  0  0  0  0  0  0  0  # atno 7974 bound_to 7965
  154.4112  140.1675  156.2102 H   0  0  0  0  0  0  0  0  0  0  0  0  # atno 8008 bound_to 7997
  155.9450  140.3405  155.6336 H   0  0  0  0  0  0  0  0  0  0  0  0  # atno 8009 bound_to 7997
  155.6941  140.0737  157.2427 H   0  0  0  0  0  0  0  0  0  0  0  0  # atno 8010 bound_to 7997
  139.5250  144.2808  152.0548 H   0  0  0  0  0  0  0  0  0  0  0  0  # atno 10167 bound_to 10162
  157.6958  131.0366  150.3560 H   0  0  0  0  0  0  0  0  0  0  0  0  # atno 10718 bound_to 10713
  154.4054  135.2755  155.2070 H   0  0  0  0  0  0  0  0  0  0  0  0  # atno 10763 bound_to 10752
  154.4078  135.6029  153.5938 H   0  0  0  0  0  0  0  0  0  0  0  0  # atno 10764 bound_to 10752
  152.9831  135.5942  154.4328 H   0  0  0  0  0  0  0  0  0  0  0  0  # atno 10765 bound_to 10752
  139.8851  134.8630  156.3324 H   0  0  0  0  0  0  0  0  0  0  0  0  # atno 11005 bound_to 11000
  144.6727  140.1063  143.7458 LP  0  0  0  0  0  0  0  0  0  0  0  0  # atno 17320 bound_to 7965
  145.9273  139.2584  143.1346 LP  0  0  0  0  0  0  0  0  0  0  0  0  # atno 17321 bound_to 7965
  140.2263  144.4414  150.6319 LP  0  0  0  0  0  0  0  0  0  0  0  0  # atno 17342 bound_to 10162
  140.6385  143.2199  151.6343 LP  0  0  0  0  0  0  0  0  0  0  0  0  # atno 17343 bound_to 10162
  156.4002  130.3914  149.6965 LP  0  0  0  0  0  0  0  0  0  0  0  0  # atno 17370 bound_to 10713
  156.4285  130.7803  151.2822 LP  0  0  0  0  0  0  0  0  0  0  0  0  # atno 17371 bound_to 10713
  140.9714  133.7325  156.0540 LP  0  0  0  0  0  0  0  0  0  0  0  0  # atno 17394 bound_to 11000
  140.7866  134.3665  157.5475 LP  0  0  0  0  0  0  0  0  0  0  0  0  # atno 17395 bound_to 11000

$$$$
