AV-unprocessed.smi:1277|AV-procd|sdf|5345|dock4
  -GOLD-   22720 4473D 1   1.00000     0.00000
 Structure written by MMmdl.
 43 44  0  0  0  0  0  0  0  0  1 V2000
  152.4396  144.4519  158.3143 C   0  0  0  0  0  0  0  0  0  0  0  0
  151.4874  143.5356  157.8035 O   0  0  0  0  0  0  0  0  0  0  0  0
  151.7892  142.1921  158.1429 C   0  0  0  0  0  0  0  0  0  0  0  0
  150.7407  141.2675  157.5172 C   0  0  0  0  0  0  0  0  0  0  0  0
  151.1360  140.9683  156.1820 O   0  0  0  0  0  0  0  0  0  0  0  0
  151.0110  139.6704  155.7314 C   0  0  0  0  0  0  0  0  0  0  0  0
  150.8421  138.6432  156.6804 C   0  0  0  0  0  0  0  0  0  0  0  0
  150.7112  137.3171  156.2278 C   0  0  0  0  0  0  0  0  0  0  0  0
  150.7454  137.0553  154.8434 C   0  0  0  0  0  0  0  0  0  0  0  0
  150.6257  135.7035  154.4212 N   0  0  0  0  0  0  0  0  0  0  0  0
  150.1465  134.6463  155.1021 C   0  0  0  0  0  0  0  0  0  0  0  0
  149.7110  134.6961  156.2530 O   0  0  0  0  0  0  0  0  0  0  0  0
  150.1708  133.3072  154.3388 C   0  0  2  0  0  0  0  0  0  0  0  0
  149.2224  133.3483  153.1314 C   0  0  0  0  0  0  0  0  0  0  0  0
  147.8997  132.8199  153.6665 C   0  0  0  0  0  0  0  0  0  0  0  0
  148.3090  131.8137  154.7439 C   0  0  0  0  0  0  0  0  0  0  0  0
  149.6641  132.1931  155.1529 N   0  0  0  0  0  0  0  0  0  0  0  0
  150.3795  131.5741  156.1178 C   0  0  0  0  0  0  0  0  0  0  0  0
  151.8012  132.0638  156.3999 C   0  0  0  0  0  0  0  0  0  0  0  0
  149.9324  130.6347  156.7759 O   0  0  0  0  0  0  0  0  0  0  0  0
  150.9342  138.1545  153.9700 C   0  0  0  0  0  0  0  0  0  0  0  0
  151.0608  139.4289  154.3980 N   0  0  0  0  0  0  0  0  0  0  0  0
  151.1883  133.0995  154.0009 H   0  0  0  0  0  0  0  0  0  0  0  0
  152.1608  145.4665  158.0297 H   0  0  0  0  0  0  0  0  0  0  0  0
  153.4345  144.2512  157.9149 H   0  0  0  0  0  0  0  0  0  0  0  0
  152.4838  144.4085  159.4032 H   0  0  0  0  0  0  0  0  0  0  0  0
  152.7767  141.9376  157.7551 H   0  0  0  0  0  0  0  0  0  0  0  0
  151.8172  142.0582  159.2255 H   0  0  0  0  0  0  0  0  0  0  0  0
  150.6346  140.3595  158.1134 H   0  0  0  0  0  0  0  0  0  0  0  0
  149.7760  141.7771  157.5057 H   0  0  0  0  0  0  0  0  0  0  0  0
  150.8121  138.8691  157.7360 H   0  0  0  0  0  0  0  0  0  0  0  0
  150.5818  136.5131  156.9375 H   0  0  0  0  0  0  0  0  0  0  0  0
  151.0131  135.4998  153.5115 H   0  0  0  0  0  0  0  0  0  0  0  0
  149.1259  134.3368  152.6797 H   0  0  0  0  0  0  0  0  0  0  0  0
  149.5941  132.6748  152.3579 H   0  0  0  0  0  0  0  0  0  0  0  0
  147.3391  133.6370  154.1223 H   0  0  0  0  0  0  0  0  0  0  0  0
  147.2728  132.3787  152.8912 H   0  0  0  0  0  0  0  0  0  0  0  0
  147.6099  131.8292  155.5811 H   0  0  0  0  0  0  0  0  0  0  0  0
  148.3262  130.8044  154.3297 H   0  0  0  0  0  0  0  0  0  0  0  0
  151.7959  133.1087  156.7108 H   0  0  0  0  0  0  0  0  0  0  0  0
  152.4263  131.9641  155.5122 H   0  0  0  0  0  0  0  0  0  0  0  0
  152.2583  131.4784  157.1984 H   0  0  0  0  0  0  0  0  0  0  0  0
  151.0096  138.0311  152.9011 H   0  0  0  0  0  0  0  0  0  0  0  0
  1  2  1  0  0  0  0
  1 24  1  0  0  0  0
  1 25  1  0  0  0  0
  1 26  1  0  0  0  0
  2  3  1  0  0  0  0
  3  4  1  0  0  0  0
  3 27  1  0  0  0  0
  3 28  1  0  0  0  0
  4  5  1  0  0  0  0
  4 29  1  0  0  0  0
  4 30  1  0  0  0  0
  5  6  1  0  0  0  0
  6 22  1  0  0  0  0
  6  7  2  0  0  0  0
  7  8  1  0  0  0  0
  7 31  1  0  0  0  0
  8  9  2  0  0  0  0
  8 32  1  0  0  0  0
  9 10  1  0  0  0  0
  9 21  1  0  0  0  0
 10 11  1  0  0  0  0
 10 33  1  0  0  0  0
 11 12  2  0  0  0  0
 11 13  1  0  0  0  0
 13 23  1  0  0  0  0
 13 17  1  0  0  0  0
 13 14  1  0  0  0  0
 14 15  1  0  0  0  0
 14 34  1  0  0  0  0
 14 35  1  0  0  0  0
 15 16  1  0  0  0  0
 15 36  1  0  0  0  0
 15 37  1  0  0  0  0
 16 17  1  0  0  0  0
 16 38  1  0  0  0  0
 16 39  1  0  0  0  0
 17 18  1  0  0  0  0
 18 19  1  0  0  0  0
 18 20  2  0  0  0  0
 19 40  1  0  0  0  0
 19 41  1  0  0  0  0
 19 42  1  0  0  0  0
 21 22  2  0  0  0  0
 21 43  1  0  0  0  0
M  END
> <s_m_source_file>
AV-unprocessed.smi

> <i_m_source_file_index>
1277

> <i_lp_mmshare_version>
43012

> <i_f3d_flags>
0

> <s_epik_input>
W0NIM11PW0NIMl1bQ0gyXU9jMVtjSF1bY0hdYyhbY0hdbjEpW05IXUMoPU8pW0NAQEhdMltDSDJdW0NIMl1bQ0gyXU4yQyg9TylbQ0gzXQ==

> <s_epik_cmdline>
J2VwaWtfcHl0aG9uJywgJy1waCcsICc3LjAnLCAnLXRuJywgJzgnLCAnLW1hJywgJzIwMCcsICctbWV0YWxfYmluZGluZycsICctaW1hZScsICc8aW5maWxlLm1hZT4nLCAnLW9tYWUnLCAnPG91dGZpbGUubWFlPic=

> <r_lp_tautomer_probability>
1

> <r_epik_Ionization_Penalty>
1.62854e-05

> <r_epik_Ionization_Penalty_Charging>
0

> <r_epik_Ionization_Penalty_Neutral>
1.62854e-05

> <r_epik_State_Penalty>
-0

> <r_epik_Charging_Adjusted_Penalty>
0

> <i_epik_Tot_Q>
0

> <i_epik_Tot_abs_Q>
0

> <r_epik_Metal_State_Penalty>
-0

> <b_epik_Metal_Only>
0

> <s_lp_Force_Field>
OPLS_2005

> <r_lp_Energy>
18.7182

> <b_lp_Chiralities_Consistent>
1

> <s_lp_Variant>
AV-unprocessed.smi:1277-1

> <Gold.Version>
5.8.1

> <Gold.Id.Protein>
6NUR|6NUR_protein|mol2

> <Gold.PLP.Fitness>
40.0808

> <Gold.PLP.PLP>
-33.5489

> <Gold.PLP.part.hbond>
-2.9055

> <Gold.PLP.part.metal>
0.0000

> <Gold.PLP.part.buried>
-4.5012

> <Gold.PLP.part.nonpolar>
-25.3183

> <Gold.PLP.part.repulsive>
0.3724

> <Gold.PLP.ligand.clash>
0.0000

> <Gold.PLP.ligand.torsion>
0.7650

> <Gold.PLP.Chemscore.Hbond>
1.6094

> <Gold.PLP.Chemscore.CHOScore>
1.0353

> <Gold.PLP.Chemscore.Metal>
0.0000

> <Gold.Chemscore.Hbonds>
donor molecule, donor type, donor heavy atom, donor atom, acceptor molecule, acceptor atom, score
      L1  H    10    33       P1  7949  0.72
      P1  H  7989  7998       L1    22  1.00
      L1  C    21    43       P1  7948  0.02
      L1  C    21    43       P1  7949  1.00

> <Gold.PLP.Chemscore.Internal.Correction>
0.1279

> <Gold.Rescore>
     Score         DG    S(hbond)    S(metal)    S(lipo)     H(rot)  DE(clash)    DE(int)     intcor
     11.16     -13.22       1.03        0.00      78.10       1.89       0.03       2.03       ----

> <Gold.Chemscore.Fitness>
11.1645

> <Gold.Chemscore.DG>
-13.2228

> <Gold.Chemscore.ZeroCoef>
-5.4800

> <Gold.Chemscore.Hbond>
1.0296

> <Gold.Chemscore.Metal>
0.0000

> <Gold.Chemscore.Lipo>
78.1041

> <Gold.Chemscore.Internal_Hbond>
0.0000

> <Gold.Chemscore.DEClash>
0.0313

> <Gold.Chemscore.DEInternal>
2.0271

> <Gold.Chemscore.Rot>
1.8884

> <Gold.Chemscore.Internal.Correction>
   9.000000E+99

> <Gold.Chemscore.Hbonds>
donor molecule, donor type, donor heavy atom, donor atom, acceptor molecule, acceptor atom, score
      L1  H    10    33       P1  7949  0.10
      P1  H  7989  7998       L1    22  0.82

> <Gold.Chemscore.Hbond.Weighted>
-3.4389

> <Gold.Chemscore.Metal.Weighted>
-0.0000

> <Gold.Chemscore.Lipo.Weighted>
-9.1382

> <Gold.Chemscore.Internal_Hbond.Weighted>
0.0000

> <Gold.Chemscore.DEClash.Weighted>
0.0313

> <Gold.Chemscore.DEInternal.Weighted>
2.0271

> <Gold.Chemscore.Rot.Weighted>
4.8342

> <Gold.Chemscore.Internal.Correction.Weighted>
   9.000000E+99

> <Gold.Protein.RotatedTorsions>
[ 6907 6896 6895 6894 ] final  -32.94 input  -60.11 | X-H torsion
[ 7974 7965 7964 7962 ] final  -46.30 input  175.53 | X-H torsion
[ 8008 7997 7996 7995 ] final  166.05 input   59.86 | X-H torsion
[ 10167 10162 10161 10158 ] final  -99.38 input  -65.29 | X-H torsion
[ 10718 10713 10712 10709 ] final   20.17 input   66.30 | X-H torsion
[ 10763 10752 10751 10750 ] final  151.90 input  -60.55 | X-H torsion
[ 11005 11000 10999 10996 ] final  -64.88 input  -57.11 | X-H torsion

> <Gold.Protein.ActiveResidues>
 VAL166  LYS551  ARG553  GLY616  TRP617  ASP618  TYR619  PRO620  LYS621  CYS622 
 ASP623  PHE694  ASN695  SER759  ASP760  ASP761  ALA762  ILE779  LEU786  VAL792 
 PHE793  MET794  SER795  GLU796  ALA797  LYS798  CYS799  TRP800  GLU811  SER814 

> <Gold.Protein.RotatedAtoms>
  151.0722  134.9805  159.8313 H   0  0  0  0  0  0  0  0  0  0  0  0  # atno 6907 bound_to 6896
  152.5410  134.2285  159.8826 H   0  0  0  0  0  0  0  0  0  0  0  0  # atno 6908 bound_to 6896
  151.2311  133.4406  159.2637 H   0  0  0  0  0  0  0  0  0  0  0  0  # atno 6909 bound_to 6896
  145.9733  140.7360  142.9399 H   0  0  0  0  0  0  0  0  0  0  0  0  # atno 7974 bound_to 7965
  156.1750  140.1654  156.8378 H   0  0  0  0  0  0  0  0  0  0  0  0  # atno 8008 bound_to 7997
  154.5297  140.0759  156.8357 H   0  0  0  0  0  0  0  0  0  0  0  0  # atno 8009 bound_to 7997
  155.3432  140.3386  155.4241 H   0  0  0  0  0  0  0  0  0  0  0  0  # atno 8010 bound_to 7997
  140.2631  143.3394  152.0607 H   0  0  0  0  0  0  0  0  0  0  0  0  # atno 10167 bound_to 10162
  157.1207  130.6548  149.5923 H   0  0  0  0  0  0  0  0  0  0  0  0  # atno 10718 bound_to 10713
  154.1113  135.2839  155.3230 H   0  0  0  0  0  0  0  0  0  0  0  0  # atno 10763 bound_to 10752
  154.6488  135.5376  153.7880 H   0  0  0  0  0  0  0  0  0  0  0  0  # atno 10764 bound_to 10752
  153.0344  135.6505  154.1271 H   0  0  0  0  0  0  0  0  0  0  0  0  # atno 10765 bound_to 10752
  141.1438  133.6672  156.5900 H   0  0  0  0  0  0  0  0  0  0  0  0  # atno 11005 bound_to 11000
  144.6842  140.2785  143.7295 LP  0  0  0  0  0  0  0  0  0  0  0  0  # atno 17320 bound_to 7965
  145.7875  139.1914  143.2122 LP  0  0  0  0  0  0  0  0  0  0  0  0  # atno 17321 bound_to 7965
  139.5011  144.6706  151.6252 LP  0  0  0  0  0  0  0  0  0  0  0  0  # atno 17342 bound_to 10162
  140.5950  143.9712  150.6349 LP  0  0  0  0  0  0  0  0  0  0  0  0  # atno 17343 bound_to 10162
  155.9829  130.4845  150.6905 LP  0  0  0  0  0  0  0  0  0  0  0  0  # atno 17370 bound_to 10713
  157.4478  131.0869  151.0877 LP  0  0  0  0  0  0  0  0  0  0  0  0  # atno 17371 bound_to 10713
  140.3770  134.7556  157.4636 LP  0  0  0  0  0  0  0  0  0  0  0  0  # atno 17394 bound_to 11000
  140.0666  134.5920  155.8688 LP  0  0  0  0  0  0  0  0  0  0  0  0  # atno 17395 bound_to 11000

$$$$
