AV-unprocessed.smi:268|AV-procd|sdf|2041|dock6
  -GOLD-   2262021263D 1   1.00000     0.00000
 Structure written by MMmdl.
 50 53  0  0  0  0  0  0  0  0  1 V2000
  152.9487  142.5732  162.1839 C   0  0  0  0  0  0  0  0  0  0  0  0
  152.9054  142.5798  160.6501 C   0  0  0  0  0  0  0  0  0  0  0  0
  151.5916  142.7738  160.1431 O   0  0  0  0  0  0  0  0  0  0  0  0
  151.5315  143.0968  158.7611 C   0  0  2  0  0  0  0  0  0  0  0  0
  150.1281  143.0127  158.1430 C   0  0  0  0  0  0  0  0  0  0  0  0
  150.7799  142.3261  156.9300 C   0  0  2  0  0  0  0  0  0  0  0  0
  150.0087  141.2049  156.3875 N   0  0  0  0  0  0  0  0  0  0  0  0
  150.7592  140.0682  155.8632 C   0  0  0  0  0  0  0  0  0  0  0  0
  148.8880  141.4809  155.6697 C   0  0  0  0  0  0  0  0  0  0  0  0
  148.8631  141.2511  154.3289 N   0  0  0  0  0  0  0  0  0  0  0  0
  147.7616  141.5093  153.6185 C   0  0  0  0  0  0  0  0  0  0  0  0
  146.5914  141.9918  154.0400 N   0  0  0  0  0  0  0  0  0  0  0  0
  146.6078  142.2235  155.3837 C   0  0  0  0  0  0  0  0  0  0  0  0
  147.7016  141.9953  156.2657 C   0  0  0  0  0  0  0  0  0  0  0  0
  147.3451  142.3535  157.5606 N   0  0  0  0  0  0  0  0  0  0  0  0
  146.1123  142.7672  157.4504 C   0  0  0  0  0  0  0  0  0  0  0  0
  145.5932  142.7327  156.1758 N   0  0  0  0  0  0  0  0  0  0  0  0
  144.2574  143.1370  155.7647 C   0  0  0  0  0  0  0  0  0  0  0  0
  144.0170  144.6566  155.8366 C   0  0  0  0  0  0  0  0  0  0  0  0
  144.1381  145.2445  154.4156 C   0  0  0  0  0  0  0  0  0  0  0  0
  143.0152  144.9485  153.6094 O   0  0  0  0  0  0  0  0  0  0  0  0
  142.7789  145.0754  156.6425 C   0  0  0  0  0  0  0  0  0  0  0  0
  143.5502  145.9635  157.4813 O   0  0  0  0  0  0  0  0  0  0  0  0
  144.7707  145.4086  156.9432 C   0  0  0  0  0  0  0  0  0  0  0  0
  151.9007  141.8916  157.8862 C   0  0  0  0  0  0  0  0  0  0  0  0
  153.9440  142.3055  162.5388 H   0  0  0  0  0  0  0  0  0  0  0  0
  152.2437  141.8491  162.5924 H   0  0  0  0  0  0  0  0  0  0  0  0
  152.7093  143.5513  162.5994 H   0  0  0  0  0  0  0  0  0  0  0  0
  153.5921  143.3232  160.2425 H   0  0  0  0  0  0  0  0  0  0  0  0
  153.2514  141.6117  160.2877 H   0  0  0  0  0  0  0  0  0  0  0  0
  152.0861  143.9924  158.4728 H   0  0  0  0  0  0  0  0  0  0  0  0
  149.4550  142.3619  158.7050 H   0  0  0  0  0  0  0  0  0  0  0  0
  149.6683  143.9764  157.9230 H   0  0  0  0  0  0  0  0  0  0  0  0
  151.1297  143.0410  156.1830 H   0  0  0  0  0  0  0  0  0  0  0  0
  150.4545  139.1526  156.3703 H   0  0  0  0  0  0  0  0  0  0  0  0
  151.8304  140.1956  156.0207 H   0  0  0  0  0  0  0  0  0  0  0  0
  150.5998  139.9367  154.7916 H   0  0  0  0  0  0  0  0  0  0  0  0
  147.8276  141.2990  152.5612 H   0  0  0  0  0  0  0  0  0  0  0  0
  145.5468  143.1138  158.3028 H   0  0  0  0  0  0  0  0  0  0  0  0
  144.0815  142.7710  154.7525 H   0  0  0  0  0  0  0  0  0  0  0  0
  143.5438  142.6063  156.3963 H   0  0  0  0  0  0  0  0  0  0  0  0
  144.2331  146.3300  154.4447 H   0  0  0  0  0  0  0  0  0  0  0  0
  145.0263  144.8618  153.9119 H   0  0  0  0  0  0  0  0  0  0  0  0
  143.1890  144.1514  153.1325 H   0  0  0  0  0  0  0  0  0  0  0  0
  142.0182  145.5995  156.0630 H   0  0  0  0  0  0  0  0  0  0  0  0
  142.3307  144.2651  157.2194 H   0  0  0  0  0  0  0  0  0  0  0  0
  145.2663  144.7598  157.6660 H   0  0  0  0  0  0  0  0  0  0  0  0
  145.4550  146.1749  156.5778 H   0  0  0  0  0  0  0  0  0  0  0  0
  152.9034  141.9299  157.4598 H   0  0  0  0  0  0  0  0  0  0  0  0
  151.7080  140.9355  158.3772 H   0  0  0  0  0  0  0  0  0  0  0  0
  1  2  1  0  0  0  0
  1 26  1  0  0  0  0
  1 27  1  0  0  0  0
  1 28  1  0  0  0  0
  2  3  1  0  0  0  0
  2 29  1  0  0  0  0
  2 30  1  0  0  0  0
  3  4  1  0  0  0  0
  4 25  1  0  0  0  0
  4  5  1  0  0  0  0
  4 31  1  0  0  0  0
  5  6  1  0  0  0  0
  5 32  1  0  0  0  0
  5 33  1  0  0  0  0
  6  7  1  0  0  0  0
  6 25  1  0  0  0  0
  6 34  1  0  0  0  0
  7  8  1  0  0  0  0
  7  9  1  0  0  0  0
  8 35  1  0  0  0  0
  8 36  1  0  0  0  0
  8 37  1  0  0  0  0
  9 14  1  0  0  0  0
  9 10  2  0  0  0  0
 10 11  1  0  0  0  0
 11 12  2  0  0  0  0
 11 38  1  0  0  0  0
 12 13  1  0  0  0  0
 13 17  1  0  0  0  0
 13 14  2  0  0  0  0
 14 15  1  0  0  0  0
 15 16  2  0  0  0  0
 16 17  1  0  0  0  0
 16 39  1  0  0  0  0
 17 18  1  0  0  0  0
 18 19  1  0  0  0  0
 18 40  1  0  0  0  0
 18 41  1  0  0  0  0
 19 24  1  0  0  0  0
 19 20  1  0  0  0  0
 19 22  1  0  0  0  0
 20 21  1  0  0  0  0
 20 42  1  0  0  0  0
 20 43  1  0  0  0  0
 21 44  1  0  0  0  0
 22 23  1  0  0  0  0
 22 45  1  0  0  0  0
 22 46  1  0  0  0  0
 23 24  1  0  0  0  0
 24 47  1  0  0  0  0
 24 48  1  0  0  0  0
 25 49  1  0  0  0  0
 25 50  1  0  0  0  0
M  END
> <s_m_source_file>
AV-unprocessed.smi

> <i_m_source_file_index>
268

> <i_lp_mmshare_version>
43012

> <i_f3d_flags>
0

> <s_epik_input>
W0NIM11bQ0gyXU9bQ0BASF0xW0NIMl1bQ0BIXShbQ0gyXTEpTihbQ0gzXSljKG5bY0hdbjIpYyhjMjMpbltjSF1uM1tDSDJdQzQoW0NIMl1bT0hdKVtDSDJdT1tDSDJdNA==

> <s_epik_cmdline>
J2VwaWtfcHl0aG9uJywgJy1waCcsICc3LjAnLCAnLXRuJywgJzgnLCAnLW1hJywgJzIwMCcsICctbWV0YWxfYmluZGluZycsICctaW1hZScsICc8aW5maWxlLm1hZT4nLCAnLW9tYWUnLCAnPG91dGZpbGUubWFlPic=

> <r_lp_tautomer_probability>
1

> <r_epik_Ionization_Penalty>
0.00205824

> <r_epik_Ionization_Penalty_Charging>
0

> <r_epik_Ionization_Penalty_Neutral>
0.00205824

> <r_epik_State_Penalty>
0.00125218

> <r_epik_Charging_Adjusted_Penalty>
0.00125218

> <i_epik_Tot_Q>
0

> <i_epik_Tot_abs_Q>
0

> <r_epik_Metal_State_Penalty>
-0

> <b_epik_Metal_Only>
0

> <s_lp_Force_Field>
OPLS_2005

> <r_lp_Energy>
41.5967

> <b_lp_Chiralities_Consistent>
1

> <s_lp_Variant>
AV-unprocessed.smi:268-2

> <Gold.Version>
5.8.1

> <Gold.Id.Protein>
6NUR|6NUR_protein|mol2

> <Gold.PLP.Fitness>
42.9792

> <Gold.PLP.PLP>
-39.7071

> <Gold.PLP.part.hbond>
-2.9037

> <Gold.PLP.part.metal>
0.0000

> <Gold.PLP.part.buried>
-6.8889

> <Gold.PLP.part.nonpolar>
-29.8757

> <Gold.PLP.part.repulsive>
0.5971

> <Gold.PLP.ligand.clash>
0.0000

> <Gold.PLP.ligand.torsion>
2.0450

> <Gold.PLP.Chemscore.Hbond>
0.9920

> <Gold.PLP.Chemscore.CHOScore>
1.0000

> <Gold.PLP.Chemscore.Metal>
0.0000

> <Gold.Chemscore.Hbonds>
donor molecule, donor type, donor heavy atom, donor atom, acceptor molecule, acceptor atom, score
      L1  H    21    44       P1 10174  1.00
      L1  C    11    38       P1  7957  0.90

> <Gold.PLP.Chemscore.Internal.Correction>
1.3860

> <Gold.Rescore>
     Score         DG    S(hbond)    S(metal)    S(lipo)     H(rot)  DE(clash)    DE(int)     intcor
      7.25     -10.48       0.98        0.00      83.81       3.15       0.13       3.11       ----

> <Gold.Chemscore.Fitness>
7.2465

> <Gold.Chemscore.DG>
-10.4827

> <Gold.Chemscore.ZeroCoef>
-5.4800

> <Gold.Chemscore.Hbond>
0.9795

> <Gold.Chemscore.Metal>
0.0000

> <Gold.Chemscore.Lipo>
83.8107

> <Gold.Chemscore.Internal_Hbond>
0.0000

> <Gold.Chemscore.DEClash>
0.1272

> <Gold.Chemscore.DEInternal>
3.1090

> <Gold.Chemscore.Rot>
3.1542

> <Gold.Chemscore.Internal.Correction>
   9.000000E+99

> <Gold.Chemscore.Hbonds>
donor molecule, donor type, donor heavy atom, donor atom, acceptor molecule, acceptor atom, score
      L1  H    21    44       P1 10174  0.94

> <Gold.Chemscore.Hbond.Weighted>
-3.2717

> <Gold.Chemscore.Metal.Weighted>
-0.0000

> <Gold.Chemscore.Lipo.Weighted>
-9.8058

> <Gold.Chemscore.Internal_Hbond.Weighted>
0.0000

> <Gold.Chemscore.DEClash.Weighted>
0.1272

> <Gold.Chemscore.DEInternal.Weighted>
3.1090

> <Gold.Chemscore.Rot.Weighted>
8.0748

> <Gold.Chemscore.Internal.Correction.Weighted>
   9.000000E+99

> <Gold.Protein.RotatedTorsions>
[ 6907 6896 6895 6894 ] final  157.01 input  -60.11 | X-H torsion
[ 7974 7965 7964 7962 ] final   52.44 input  175.53 | X-H torsion
[ 8008 7997 7996 7995 ] final  -44.75 input   59.86 | X-H torsion
[ 10167 10162 10161 10158 ] final  100.26 input  -65.29 | X-H torsion
[ 10718 10713 10712 10709 ] final  -66.13 input   66.30 | X-H torsion
[ 10763 10752 10751 10750 ] final  137.90 input  -60.55 | X-H torsion
[ 11005 11000 10999 10996 ] final -109.66 input  -57.11 | X-H torsion

> <Gold.Protein.ActiveResidues>
 VAL166  LYS551  ARG553  GLY616  TRP617  ASP618  TYR619  PRO620  LYS621  CYS622 
 ASP623  PHE694  ASN695  SER759  ASP760  ASP761  ALA762  ILE779  LEU786  VAL792 
 PHE793  MET794  SER795  GLU796  ALA797  LYS798  CYS799  TRP800  GLU811  SER814 

> <Gold.Protein.RotatedAtoms>
  152.0213  133.3900  159.4259 H   0  0  0  0  0  0  0  0  0  0  0  0  # atno 6907 bound_to 6896
  150.6890  134.3623  159.4965 H   0  0  0  0  0  0  0  0  0  0  0  0  # atno 6908 bound_to 6896
  152.1397  134.9072  160.0605 H   0  0  0  0  0  0  0  0  0  0  0  0  # atno 6909 bound_to 6896
  145.9813  139.4245  143.0130 H   0  0  0  0  0  0  0  0  0  0  0  0  # atno 7974 bound_to 7965
  154.3998  140.1414  156.3735 H   0  0  0  0  0  0  0  0  0  0  0  0  # atno 8008 bound_to 7997
  155.8070  140.3474  155.5415 H   0  0  0  0  0  0  0  0  0  0  0  0  # atno 8009 bound_to 7997
  155.8425  140.0929  157.1716 H   0  0  0  0  0  0  0  0  0  0  0  0  # atno 8010 bound_to 7997
  139.7543  144.6974  151.0385 H   0  0  0  0  0  0  0  0  0  0  0  0  # atno 10167 bound_to 10162
  156.0630  130.4257  150.1664 H   0  0  0  0  0  0  0  0  0  0  0  0  # atno 10718 bound_to 10713
  153.8806  135.3045  155.3445 H   0  0  0  0  0  0  0  0  0  0  0  0  # atno 10763 bound_to 10752
  154.7763  135.4859  153.9754 H   0  0  0  0  0  0  0  0  0  0  0  0  # atno 10764 bound_to 10752
  153.1353  135.6813  153.9209 H   0  0  0  0  0  0  0  0  0  0  0  0  # atno 10765 bound_to 10752
  141.0835  133.9179  157.2236 H   0  0  0  0  0  0  0  0  0  0  0  0  # atno 11005 bound_to 11000
  145.7765  140.9874  143.1122 LP  0  0  0  0  0  0  0  0  0  0  0  0  # atno 17320 bound_to 7965
  144.6862  139.9512  143.7478 LP  0  0  0  0  0  0  0  0  0  0  0  0  # atno 17321 bound_to 7965
  140.7801  143.4771  151.0067 LP  0  0  0  0  0  0  0  0  0  0  0  0  # atno 17342 bound_to 10162
  139.8459  143.7503  152.3179 LP  0  0  0  0  0  0  0  0  0  0  0  0  # atno 17343 bound_to 10162
  156.9729  130.9840  151.3455 LP  0  0  0  0  0  0  0  0  0  0  0  0  # atno 17370 bound_to 10713
  157.5652  130.8272  149.8318 LP  0  0  0  0  0  0  0  0  0  0  0  0  # atno 17371 bound_to 10713
  139.9651  135.0144  156.9365 LP  0  0  0  0  0  0  0  0  0  0  0  0  # atno 17394 bound_to 11000
  140.5415  134.0715  155.7343 LP  0  0  0  0  0  0  0  0  0  0  0  0  # atno 17395 bound_to 11000

$$$$
