AV-unprocessed.smi:1120|AV-procd|sdf|4820|dock8
  -GOLD-   22720 3373D 1   1.00000     0.00000
 Structure written by MMmdl.
 49 50  0  0  0  0  0  0  0  0  2 V2000
  151.8899  145.3153  160.0472 C   0  0  0  0  0  0  0  0  0  0  0  0
  151.5234  143.8867  159.6206 C   0  0  2  0  0  0  0  0  0  0  0  0
  152.7752  142.9965  159.4956 C   0  0  0  0  0  0  0  0  0  0  0  0
  152.4125  141.5650  159.0681 C   0  0  0  0  0  0  0  0  0  0  0  0
  151.6080  141.5626  157.7574 C   0  0  1  0  0  0  0  0  0  0  0  0
  151.2181  140.1930  157.4173 N   0  0  0  0  0  0  0  0  0  0  0  0
  151.6526  139.4752  155.9078 S   0  0  0  0  0  0  0  0  0  0  0  0
  150.9764  140.2440  154.8519 O   0  0  0  0  0  0  0  0  0  0  0  0
  153.1173  139.3346  155.9030 O   0  0  0  0  0  0  0  0  0  0  0  0
  150.8785  137.7957  156.0013 C   0  0  0  0  0  0  0  0  0  0  0  0
  150.1072  137.6232  157.3091 C   0  0  0  0  0  0  0  0  0  0  0  0
  150.6328  137.9280  158.3792 O   0  0  0  0  0  0  0  0  0  0  0  0
  148.8630  137.1299  157.2129 N   0  0  0  0  0  0  0  0  0  0  0  0
  147.9624  136.9087  158.3371 C   0  0  0  0  0  0  0  0  0  0  0  0
  148.0262  135.4557  158.8377 C   0  0  0  0  0  0  0  0  0  0  0  0
  147.8428  135.3603  160.3395 C   0  0  0  0  0  0  0  0  0  0  0  0
  147.7256  134.1199  161.0033 C   0  0  0  0  0  0  0  0  0  0  0  0
  147.5457  134.1013  162.4022 C   0  0  0  0  0  0  0  0  0  0  0  0
  147.4855  135.3214  163.1069 C   0  0  0  0  0  0  0  0  0  0  0  0
  147.6065  136.5313  162.3934 C   0  0  0  0  0  0  0  0  0  0  0  0
  147.7779  136.5077  161.0532 N   0  3  0  0  0  0  0  0  0  0  0  0
  150.3575  142.4526  157.8686 C   0  0  0  0  0  0  0  0  0  0  0  0
  150.7250  143.8804  158.3025 C   0  0  0  0  0  0  0  0  0  0  0  0
  152.5251  145.8008  159.3057 H   0  0  0  0  0  0  0  0  0  0  0  0
  152.4263  145.3165  160.9963 H   0  0  0  0  0  0  0  0  0  0  0  0
  150.9971  145.9286  160.1733 H   0  0  0  0  0  0  0  0  0  0  0  0
  150.8878  143.4646  160.4005 H   0  0  0  0  0  0  0  0  0  0  0  0
  153.4639  143.4283  158.7681 H   0  0  0  0  0  0  0  0  0  0  0  0
  153.3094  142.9677  160.4458 H   0  0  0  0  0  0  0  0  0  0  0  0
  153.3221  140.9749  158.9494 H   0  0  0  0  0  0  0  0  0  0  0  0
  151.8344  141.0866  159.8601 H   0  0  0  0  0  0  0  0  0  0  0  0
  152.2452  141.9537  156.9632 H   0  0  0  0  0  0  0  0  0  0  0  0
  150.3459  139.8575  157.8249 H   0  0  0  0  0  0  0  0  0  0  0  0
  150.2396  137.6349  155.1336 H   0  0  0  0  0  0  0  0  0  0  0  0
  151.6808  137.0585  155.9595 H   0  0  0  0  0  0  0  0  0  0  0  0
  148.5134  136.8988  156.2942 H   0  0  0  0  0  0  0  0  0  0  0  0
  148.2487  137.5922  159.1370 H   0  0  0  0  0  0  0  0  0  0  0  0
  146.9421  137.1713  158.0524 H   0  0  0  0  0  0  0  0  0  0  0  0
  147.2582  134.8525  158.3516 H   0  0  0  0  0  0  0  0  0  0  0  0
  148.9837  135.0083  158.5670 H   0  0  0  0  0  0  0  0  0  0  0  0
  147.7699  133.1938  160.4486 H   0  0  0  0  0  0  0  0  0  0  0  0
  147.4539  133.1619  162.9276 H   0  0  0  0  0  0  0  0  0  0  0  0
  147.3475  135.3288  164.1782 H   0  0  0  0  0  0  0  0  0  0  0  0
  147.5714  137.5097  162.8499 H   0  0  0  0  0  0  0  0  0  0  0  0
  149.8336  142.4870  156.9134 H   0  0  0  0  0  0  0  0  0  0  0  0
  149.6600  142.0240  158.5896 H   0  0  0  0  0  0  0  0  0  0  0  0
  149.8158  144.4722  158.4141 H   0  0  0  0  0  0  0  0  0  0  0  0
  151.3092  144.3591  157.5151 H   0  0  0  0  0  0  0  0  0  0  0  0
  147.8625  137.3954  160.5577 H   0  0  0  0  0  0  0  0  0  0  0  0
  1  2  1  0  0  0  0
  1 24  1  0  0  0  0
  1 25  1  0  0  0  0
  1 26  1  0  0  0  0
  2 23  1  0  0  0  0
  2  3  1  0  0  0  0
  2 27  1  0  0  0  0
  3  4  1  0  0  0  0
  3 28  1  0  0  0  0
  3 29  1  0  0  0  0
  4  5  1  0  0  0  0
  4 30  1  0  0  0  0
  4 31  1  0  0  0  0
  5  6  1  0  0  0  0
  5 22  1  0  0  0  0
  5 32  1  0  0  0  0
  6  7  1  0  0  0  0
  6 33  1  0  0  0  0
  7  8  2  0  0  0  0
  7  9  2  0  0  0  0
  7 10  1  0  0  0  0
 10 11  1  0  0  0  0
 10 34  1  0  0  0  0
 10 35  1  0  0  0  0
 11 12  2  0  0  0  0
 11 13  1  0  0  0  0
 13 14  1  0  0  0  0
 13 36  1  0  0  0  0
 14 15  1  0  0  0  0
 14 37  1  0  0  0  0
 14 38  1  0  0  0  0
 15 16  1  0  0  0  0
 15 39  1  0  0  0  0
 15 40  1  0  0  0  0
 16 21  1  0  0  0  0
 16 17  2  0  0  0  0
 17 18  1  0  0  0  0
 17 41  1  0  0  0  0
 18 19  2  0  0  0  0
 18 42  1  0  0  0  0
 19 20  1  0  0  0  0
 19 43  1  0  0  0  0
 20 21  2  0  0  0  0
 20 44  1  0  0  0  0
 21 49  1  0  0  0  0
 22 23  1  0  0  0  0
 22 45  1  0  0  0  0
 22 46  1  0  0  0  0
 23 47  1  0  0  0  0
 23 48  1  0  0  0  0
M  CHG  1  21   1
M  END
> <s_m_source_file>
AV-unprocessed.smi

> <i_m_source_file_index>
1120

> <i_lp_mmshare_version>
43012

> <i_f3d_flags>
0

> <s_epik_input>
W0NIM11bQ0BASF0xW0NIMl1bQ0gyXVtDQEhdKFtDSDJdW0NIMl0xKVtOSF1TKD1PKSg9TylbQ0gyXUMoPU8pW05IXVtDSDJdW0NIMl1jMltjSF1bY0hdW2NIXVtjSF1uMg==

> <s_epik_cmdline>
J2VwaWtfcHl0aG9uJywgJy1waCcsICc3LjAnLCAnLXRuJywgJzgnLCAnLW1hJywgJzIwMCcsICctbWV0YWxfYmluZGluZycsICctaW1hZScsICc8aW5maWxlLm1hZT4nLCAnLW9tYWUnLCAnPG91dGZpbGUubWFlPic=

> <r_epik_Ionization_Penalty>
1.97387

> <r_epik_Ionization_Penalty_Charging>
1.97382

> <r_epik_Ionization_Penalty_Neutral>
4.57635e-05

> <r_epik_State_Penalty>
2.10057

> <r_epik_Charging_Adjusted_Penalty>
4.07439

> <i_epik_Tot_Q>
1

> <i_epik_Tot_abs_Q>
1

> <r_epik_Metal_State_Penalty>
2.15877

> <b_epik_Metal_Only>
0

> <s_lp_Force_Field>
OPLS_2005

> <r_lp_Energy>
9.01473

> <b_lp_Chiralities_Consistent>
1

> <s_lp_Variant>
AV-unprocessed.smi:1120-3

> <Gold.Version>
5.8.1

> <Gold.Id.Protein>
6NUR|6NUR_protein|mol2

> <Gold.PLP.Fitness>
49.4417

> <Gold.PLP.PLP>
-44.8070

> <Gold.PLP.part.hbond>
-1.9680

> <Gold.PLP.part.metal>
0.0000

> <Gold.PLP.part.buried>
-7.2083

> <Gold.PLP.part.nonpolar>
-36.0733

> <Gold.PLP.part.repulsive>
0.3072

> <Gold.PLP.ligand.clash>
0.0000

> <Gold.PLP.ligand.torsion>
1.2523

> <Gold.PLP.Chemscore.Hbond>
2.0000

> <Gold.PLP.Chemscore.CHOScore>
0.0000

> <Gold.PLP.Chemscore.Metal>
0.0000

> <Gold.Chemscore.Hbonds>
donor molecule, donor type, donor heavy atom, donor atom, acceptor molecule, acceptor atom, score
      P1  H  7989  7998       L1     8  1.00
      P1  H  7997  8009       L1     9  0.93

> <Gold.PLP.Chemscore.Internal.Correction>
1.1392

> <Gold.Rescore>
     Score         DG    S(hbond)    S(metal)    S(lipo)     H(rot)  DE(clash)    DE(int)     intcor
     18.18     -21.14       1.98        0.00     122.00       2.05       0.08       2.89       ----

> <Gold.Chemscore.Fitness>
18.1768

> <Gold.Chemscore.DG>
-21.1437

> <Gold.Chemscore.ZeroCoef>
-5.4800

> <Gold.Chemscore.Hbond>
1.9844

> <Gold.Chemscore.Metal>
0.0000

> <Gold.Chemscore.Lipo>
122.0029

> <Gold.Chemscore.Internal_Hbond>
0.0000

> <Gold.Chemscore.DEClash>
0.0777

> <Gold.Chemscore.DEInternal>
2.8893

> <Gold.Chemscore.Rot>
2.0463

> <Gold.Chemscore.Internal.Correction>
   9.000000E+99

> <Gold.Chemscore.Hbonds>
donor molecule, donor type, donor heavy atom, donor atom, acceptor molecule, acceptor atom, score
      P1  H  7989  7998       L1     8  0.99
      P1  H  7997  8009       L1     9  0.89

> <Gold.Chemscore.Hbond.Weighted>
-6.6280

> <Gold.Chemscore.Metal.Weighted>
-0.0000

> <Gold.Chemscore.Lipo.Weighted>
-14.2743

> <Gold.Chemscore.Internal_Hbond.Weighted>
0.0000

> <Gold.Chemscore.DEClash.Weighted>
0.0777

> <Gold.Chemscore.DEInternal.Weighted>
2.8893

> <Gold.Chemscore.Rot.Weighted>
5.2386

> <Gold.Chemscore.Internal.Correction.Weighted>
   9.000000E+99

> <Gold.Protein.RotatedTorsions>
[ 6907 6896 6895 6894 ] final   95.03 input  -60.11 | X-H torsion
[ 7974 7965 7964 7962 ] final -124.55 input  175.53 | X-H torsion
[ 8008 7997 7996 7995 ] final -149.92 input   59.86 | X-H torsion
[ 10167 10162 10161 10158 ] final  -59.32 input  -65.29 | X-H torsion
[ 10718 10713 10712 10709 ] final   91.69 input   66.30 | X-H torsion
[ 10763 10752 10751 10750 ] final -103.62 input  -60.55 | X-H torsion
[ 11005 11000 10999 10996 ] final -150.09 input  -57.11 | X-H torsion

> <Gold.Protein.ActiveResidues>
 VAL166  LYS551  ARG553  GLY616  TRP617  ASP618  TYR619  PRO620  LYS621  CYS622 
 ASP623  PHE694  ASN695  SER759  ASP760  ASP761  ALA762  ILE779  LEU786  VAL792 
 PHE793  MET794  SER795  GLU796  ALA797  LYS798  CYS799  TRP800  GLU811  SER814 

> <Gold.Protein.RotatedAtoms>
  152.5446  134.1102  159.8354 H   0  0  0  0  0  0  0  0  0  0  0  0  # atno 6907 bound_to 6896
  151.1170  133.5124  159.2611 H   0  0  0  0  0  0  0  0  0  0  0  0  # atno 6908 bound_to 6896
  151.1821  135.0375  159.8851 H   0  0  0  0  0  0  0  0  0  0  0  0  # atno 6909 bound_to 6896
  145.0069  140.7871  143.4462 H   0  0  0  0  0  0  0  0  0  0  0  0  # atno 7974 bound_to 7965
  155.6154  140.0676  157.2694 H   0  0  0  0  0  0  0  0  0  0  0  0  # atno 8008 bound_to 7997
  154.4243  140.1794  156.1364 H   0  0  0  0  0  0  0  0  0  0  0  0  # atno 8009 bound_to 7997
  156.0052  140.3332  155.6888 H   0  0  0  0  0  0  0  0  0  0  0  0  # atno 8010 bound_to 7997
  140.6143  143.2397  151.5636 H   0  0  0  0  0  0  0  0  0  0  0  0  # atno 10167 bound_to 10162
  157.6960  131.0416  150.3768 H   0  0  0  0  0  0  0  0  0  0  0  0  # atno 10718 bound_to 10713
  154.7820  135.4816  153.9865 H   0  0  0  0  0  0  0  0  0  0  0  0  # atno 10763 bound_to 10752
  153.1507  135.6790  153.8894 H   0  0  0  0  0  0  0  0  0  0  0  0  # atno 10764 bound_to 10752
  153.8539  135.3164  155.3412 H   0  0  0  0  0  0  0  0  0  0  0  0  # atno 10765 bound_to 10752
  140.7439  134.3483  157.5141 H   0  0  0  0  0  0  0  0  0  0  0  0  # atno 11005 bound_to 11000
  145.2077  139.2220  143.5160 LP  0  0  0  0  0  0  0  0  0  0  0  0  # atno 17320 bound_to 7965
  146.3463  140.1908  142.8589 LP  0  0  0  0  0  0  0  0  0  0  0  0  # atno 17321 bound_to 7965
  139.5386  144.2712  152.1303 LP  0  0  0  0  0  0  0  0  0  0  0  0  # atno 17342 bound_to 10162
  140.1918  144.4744  150.6475 LP  0  0  0  0  0  0  0  0  0  0  0  0  # atno 17343 bound_to 10162
  156.4187  130.3948  149.6840 LP  0  0  0  0  0  0  0  0  0  0  0  0  # atno 17370 bound_to 10713
  156.4099  130.7717  151.2729 LP  0  0  0  0  0  0  0  0  0  0  0  0  # atno 17371 bound_to 10713
  139.8800  134.9098  156.3000 LP  0  0  0  0  0  0  0  0  0  0  0  0  # atno 17394 bound_to 11000
  140.9812  133.7266  156.0674 LP  0  0  0  0  0  0  0  0  0  0  0  0  # atno 17395 bound_to 11000

$$$$
