AV-unprocessed.smi:1351|AV-procd|sdf|5527|dock2
  -GOLD-   22720 5113D 1   1.00000     0.00000
 Structure written by MMmdl.
 35 36  0  0  0  0  0  0  0  0  2 V2000
  152.8088  143.1852  162.0210 C   0  0  0  0  0  0  0  0  0  0  0  0
  153.1028  142.2594  160.9329 N   0  0  0  0  0  0  0  0  0  0  0  0
  154.2756  141.3975  160.9984 C   0  0  0  0  0  0  0  0  0  0  0  0
  152.3013  142.2652  159.7708 C   0  0  0  0  0  0  0  0  0  0  0  0
  151.7393  143.4439  159.2219 C   0  0  0  0  0  0  0  0  0  0  0  0
  150.9476  143.3677  158.0577 C   0  0  0  0  0  0  0  0  0  0  0  0
  150.7263  142.1200  157.4386 C   0  0  0  0  0  0  0  0  0  0  0  0
  149.9068  142.0927  156.2780 N   0  0  0  0  0  0  0  0  0  0  0  0
  149.9206  141.2205  155.2524 C   0  0  0  0  0  0  0  0  0  0  0  0
  150.7285  140.2997  155.1328 O   0  0  0  0  0  0  0  0  0  0  0  0
  148.8727  141.4564  154.1567 C   0  0  1  0  0  0  0  0  0  0  0  0
  148.0365  140.2250  153.8046 C   0  0  0  0  0  0  0  0  0  0  0  0
  146.8074  140.8616  153.1942 C   0  0  0  0  0  0  0  0  0  0  0  0
  146.6348  142.1270  154.0329 C   0  0  0  0  0  0  0  0  0  0  0  0
  147.9143  142.4196  154.5906 O   0  0  0  0  0  0  0  0  0  0  0  0
  151.3017  140.9701  158.0292 C   0  0  0  0  0  0  0  0  0  0  0  0
  152.0514  141.0883  159.1465 N   0  3  0  0  0  0  0  0  0  0  0  0
  151.8011  143.0213  162.4043 H   0  0  0  0  0  0  0  0  0  0  0  0
  152.8862  144.2172  161.6772 H   0  0  0  0  0  0  0  0  0  0  0  0
  153.5045  143.0562  162.8503 H   0  0  0  0  0  0  0  0  0  0  0  0
  154.9782  141.6445  160.2017 H   0  0  0  0  0  0  0  0  0  0  0  0
  153.9871  140.3508  160.8978 H   0  0  0  0  0  0  0  0  0  0  0  0
  154.7973  141.5082  161.9491 H   0  0  0  0  0  0  0  0  0  0  0  0
  151.8999  144.4099  159.6765 H   0  0  0  0  0  0  0  0  0  0  0  0
  150.5164  144.2673  157.6431 H   0  0  0  0  0  0  0  0  0  0  0  0
  149.2400  142.8471  156.1972 H   0  0  0  0  0  0  0  0  0  0  0  0
  149.3655  141.8396  153.2618 H   0  0  0  0  0  0  0  0  0  0  0  0
  148.5436  139.5507  153.1137 H   0  0  0  0  0  0  0  0  0  0  0  0
  147.7641  139.6620  154.6991 H   0  0  0  0  0  0  0  0  0  0  0  0
  147.0066  141.1277  152.1552 H   0  0  0  0  0  0  0  0  0  0  0  0
  145.9314  140.2127  153.2168 H   0  0  0  0  0  0  0  0  0  0  0  0
  146.2629  142.9621  153.4388 H   0  0  0  0  0  0  0  0  0  0  0  0
  145.9333  141.9549  154.8500 H   0  0  0  0  0  0  0  0  0  0  0  0
  151.1870  139.9594  157.6681 H   0  0  0  0  0  0  0  0  0  0  0  0
  152.4510  140.2384  159.5446 H   0  0  0  0  0  0  0  0  0  0  0  0
  1  2  1  0  0  0  0
  1 18  1  0  0  0  0
  1 19  1  0  0  0  0
  1 20  1  0  0  0  0
  2  3  1  0  0  0  0
  2  4  1  0  0  0  0
  3 21  1  0  0  0  0
  3 22  1  0  0  0  0
  3 23  1  0  0  0  0
  4 17  1  0  0  0  0
  4  5  2  0  0  0  0
  5  6  1  0  0  0  0
  5 24  1  0  0  0  0
  6  7  2  0  0  0  0
  6 25  1  0  0  0  0
  7  8  1  0  0  0  0
  7 16  1  0  0  0  0
  8  9  1  0  0  0  0
  8 26  1  0  0  0  0
  9 10  2  0  0  0  0
  9 11  1  0  0  0  0
 11 15  1  0  0  0  0
 11 12  1  0  0  0  0
 11 27  1  0  0  0  0
 12 13  1  0  0  0  0
 12 28  1  0  0  0  0
 12 29  1  0  0  0  0
 13 14  1  0  0  0  0
 13 30  1  0  0  0  0
 13 31  1  0  0  0  0
 14 15  1  0  0  0  0
 14 32  1  0  0  0  0
 14 33  1  0  0  0  0
 16 17  2  0  0  0  0
 16 34  1  0  0  0  0
 17 35  1  0  0  0  0
M  CHG  1  17   1
M  END
> <s_m_source_file>
AV-unprocessed.smi

> <i_m_source_file_index>
1351

> <i_lp_mmshare_version>
43012

> <i_f3d_flags>
0

> <s_epik_input>
W0NIM11OKFtDSDNdKWMxW2NIXVtjSF1jKFtjSF1uMSlbTkhdQyg9TylbQ0BASF0yW0NIMl1bQ0gyXVtDSDJdTzI=

> <s_epik_cmdline>
J2VwaWtfcHl0aG9uJywgJy1waCcsICc3LjAnLCAnLXRuJywgJzgnLCAnLW1hJywgJzIwMCcsICctbWV0YWxfYmluZGluZycsICctaW1hZScsICc8aW5maWxlLm1hZT4nLCAnLW9tYWUnLCAnPG91dGZpbGUubWFlPic=

> <r_lp_tautomer_probability>
0.999994

> <r_epik_Ionization_Penalty>
0.682441

> <r_epik_Ionization_Penalty_Charging>
0.68244

> <r_epik_Ionization_Penalty_Neutral>
1.70545e-06

> <r_epik_State_Penalty>
0.703594

> <r_epik_Charging_Adjusted_Penalty>
1.38603

> <i_epik_Tot_Q>
1

> <i_epik_Tot_abs_Q>
1

> <r_epik_Metal_State_Penalty>
0.869714

> <b_epik_Metal_Only>
0

> <s_lp_Force_Field>
OPLS_2005

> <r_lp_Energy>
30.013

> <b_lp_Chiralities_Consistent>
1

> <s_lp_Variant>
AV-unprocessed.smi:1351-4

> <Gold.Version>
5.8.1

> <Gold.Id.Protein>
6NUR|6NUR_protein|mol2

> <Gold.PLP.Fitness>
42.1638

> <Gold.PLP.PLP>
-38.0368

> <Gold.PLP.part.hbond>
-2.0000

> <Gold.PLP.part.metal>
0.0000

> <Gold.PLP.part.buried>
-2.0761

> <Gold.PLP.part.nonpolar>
-36.0709

> <Gold.PLP.part.repulsive>
3.1274

> <Gold.PLP.ligand.clash>
0.0000

> <Gold.PLP.ligand.torsion>
0.8860

> <Gold.PLP.Chemscore.Hbond>
1.9600

> <Gold.PLP.Chemscore.CHOScore>
0.0000

> <Gold.PLP.Chemscore.Metal>
0.0000

> <Gold.Chemscore.Hbonds>
donor molecule, donor type, donor heavy atom, donor atom, acceptor molecule, acceptor atom, score
      L1  H     8    26       P1  8028  0.96
      P1  H  7989  7998       L1    10  0.95

> <Gold.PLP.Chemscore.Internal.Correction>
0.0190

> <Gold.Rescore>
     Score         DG    S(hbond)    S(metal)    S(lipo)     H(rot)  DE(clash)    DE(int)     intcor
     14.21     -18.05       1.54        0.00      85.28       1.00       2.39       1.45       ----

> <Gold.Chemscore.Fitness>
14.2128

> <Gold.Chemscore.DG>
-18.0521

> <Gold.Chemscore.ZeroCoef>
-5.4800

> <Gold.Chemscore.Hbond>
1.5431

> <Gold.Chemscore.Metal>
0.0000

> <Gold.Chemscore.Lipo>
85.2849

> <Gold.Chemscore.Internal_Hbond>
0.0000

> <Gold.Chemscore.DEClash>
2.3879

> <Gold.Chemscore.DEInternal>
1.4514

> <Gold.Chemscore.Rot>
1.0000

> <Gold.Chemscore.Internal.Correction>
   9.000000E+99

> <Gold.Chemscore.Hbonds>
donor molecule, donor type, donor heavy atom, donor atom, acceptor molecule, acceptor atom, score
      L1  H     8    26       P1  8028  0.90
      P1  H  7989  7998       L1    10  0.21

> <Gold.Chemscore.Hbond.Weighted>
-5.1538

> <Gold.Chemscore.Metal.Weighted>
-0.0000

> <Gold.Chemscore.Lipo.Weighted>
-9.9783

> <Gold.Chemscore.Internal_Hbond.Weighted>
0.0000

> <Gold.Chemscore.DEClash.Weighted>
2.3879

> <Gold.Chemscore.DEInternal.Weighted>
1.4514

> <Gold.Chemscore.Rot.Weighted>
2.5600

> <Gold.Chemscore.Internal.Correction.Weighted>
   9.000000E+99

> <Gold.Protein.RotatedTorsions>
[ 6907 6896 6895 6894 ] final   64.16 input  -60.11 | X-H torsion
[ 7974 7965 7964 7962 ] final -158.41 input  175.53 | X-H torsion
[ 8008 7997 7996 7995 ] final   64.97 input   59.86 | X-H torsion
[ 10167 10162 10161 10158 ] final   18.26 input  -65.29 | X-H torsion
[ 10718 10713 10712 10709 ] final   -6.46 input   66.30 | X-H torsion
[ 10763 10752 10751 10750 ] final -109.32 input  -60.55 | X-H torsion
[ 11005 11000 10999 10996 ] final -174.43 input  -57.11 | X-H torsion

> <Gold.Protein.ActiveResidues>
 VAL166  LYS551  ARG553  GLY616  TRP617  ASP618  TYR619  PRO620  LYS621  CYS622 
 ASP623  PHE694  ASN695  SER759  ASP760  ASP761  ALA762  ILE779  LEU786  VAL792 
 PHE793  MET794  SER795  GLU796  ALA797  LYS798  CYS799  TRP800  GLU811  SER814 

> <Gold.Protein.RotatedAtoms>
  152.4309  134.5778  159.9939 H   0  0  0  0  0  0  0  0  0  0  0  0  # atno 6907 bound_to 6896
  151.5902  133.3362  159.3034 H   0  0  0  0  0  0  0  0  0  0  0  0  # atno 6908 bound_to 6896
  150.8202  134.7442  159.6830 H   0  0  0  0  0  0  0  0  0  0  0  0  # atno 6909 bound_to 6896
  144.7507  140.3831  143.6050 H   0  0  0  0  0  0  0  0  0  0  0  0  # atno 7974 bound_to 7965
  155.6544  140.3497  155.4760 H   0  0  0  0  0  0  0  0  0  0  0  0  # atno 8008 bound_to 7997
  155.9821  140.1176  157.0740 H   0  0  0  0  0  0  0  0  0  0  0  0  # atno 8009 bound_to 7997
  154.4194  140.1136  156.5435 H   0  0  0  0  0  0  0  0  0  0  0  0  # atno 8010 bound_to 7997
  140.5666  143.9239  150.6681 H   0  0  0  0  0  0  0  0  0  0  0  0  # atno 10167 bound_to 10162
  156.7315  130.5182  149.5844 H   0  0  0  0  0  0  0  0  0  0  0  0  # atno 10718 bound_to 10713
  154.8186  135.4605  154.0715 H   0  0  0  0  0  0  0  0  0  0  0  0  # atno 10763 bound_to 10752
  153.2087  135.6879  153.8147 H   0  0  0  0  0  0  0  0  0  0  0  0  # atno 10764 bound_to 10752
  153.7607  135.3284  155.3313 H   0  0  0  0  0  0  0  0  0  0  0  0  # atno 10765 bound_to 10752
  140.4746  134.6133  157.4896 H   0  0  0  0  0  0  0  0  0  0  0  0  # atno 11005 bound_to 11000
  145.6956  139.1649  143.2622 LP  0  0  0  0  0  0  0  0  0  0  0  0  # atno 17320 bound_to 7965
  146.1452  140.7002  142.9348 LP  0  0  0  0  0  0  0  0  0  0  0  0  # atno 17321 bound_to 7965
  140.2704  143.3460  152.1243 LP  0  0  0  0  0  0  0  0  0  0  0  0  # atno 17342 bound_to 10162
  139.5096  144.6870  151.5862 LP  0  0  0  0  0  0  0  0  0  0  0  0  # atno 17343 bound_to 10162
  156.1525  130.6320  151.0614 LP  0  0  0  0  0  0  0  0  0  0  0  0  # atno 17370 bound_to 10713
  157.6856  131.0825  150.7250 LP  0  0  0  0  0  0  0  0  0  0  0  0  # atno 17371 bound_to 10713
  139.9864  134.7055  155.9767 LP  0  0  0  0  0  0  0  0  0  0  0  0  # atno 17394 bound_to 11000
  141.1560  133.6543  156.4164 LP  0  0  0  0  0  0  0  0  0  0  0  0  # atno 17395 bound_to 11000

$$$$
