AV-unprocessed.smi:1039|AV-procd|sdf|4523|dock9
  -GOLD-   22720 2543D 1   1.00000     0.00000
 Structure written by MMmdl.
 41 42  0  0  0  0  0  0  0  0  2 V2000
  146.2348  130.6895  151.9838 C   0  0  0  0  0  0  0  0  0  0  0  0
  145.9685  132.0415  151.3080 C   0  0  0  0  0  0  0  0  0  0  0  0
  147.1484  133.0183  151.5018 C   0  0  0  0  0  0  0  0  0  0  0  0
  146.8257  134.4030  150.9121 C   0  0  0  0  0  0  0  0  0  0  0  0
  145.5953  134.9106  151.5428 N   0  0  0  0  0  0  0  0  0  0  0  0
  145.5142  135.9016  152.4665 C   0  0  0  0  0  0  0  0  0  0  0  0
  144.5309  136.0768  153.1868 O   0  0  0  0  0  0  0  0  0  0  0  0
  146.5848  136.7118  152.5164 N   0  0  0  0  0  0  0  0  0  0  0  0
  146.7350  137.8664  153.3972 C   0  0  0  0  0  0  0  0  0  0  0  0
  147.1024  139.1654  152.6492 C   0  0  0  0  0  0  0  0  0  0  0  0
  146.9824  140.4182  153.4674 C   0  0  0  0  0  0  0  0  0  0  0  0
  145.9007  141.2059  153.5054 N   0  3  0  0  0  0  0  0  0  0  0  0
  146.1147  142.2745  154.3311 C   0  0  0  0  0  0  0  0  0  0  0  0
  147.3851  142.1330  154.8233 C   0  0  0  0  0  0  0  0  0  0  0  0
  147.8965  140.9836  154.2762 N   0  0  0  0  0  0  0  0  0  0  0  0
  149.2306  140.4301  154.5309 C   0  0  0  0  0  0  0  0  0  0  0  0
  149.8390  141.1096  155.5027 F   0  0  0  0  0  0  0  0  0  0  0  0
  149.1509  139.1380  154.8447 F   0  0  0  0  0  0  0  0  0  0  0  0
  144.4396  134.0747  151.1951 C   0  0  0  0  0  0  0  0  0  0  0  0
  144.6439  132.6703  151.7925 C   0  0  0  0  0  0  0  0  0  0  0  0
  146.3370  130.7996  153.0638 H   0  0  0  0  0  0  0  0  0  0  0  0
  147.1522  130.2364  151.6073 H   0  0  0  0  0  0  0  0  0  0  0  0
  145.4203  129.9896  151.7957 H   0  0  0  0  0  0  0  0  0  0  0  0
  145.8698  131.8583  150.2370 H   0  0  0  0  0  0  0  0  0  0  0  0
  147.3745  133.1210  152.5642 H   0  0  0  0  0  0  0  0  0  0  0  0
  148.0466  132.6164  151.0320 H   0  0  0  0  0  0  0  0  0  0  0  0
  147.6873  135.0611  151.0232 H   0  0  0  0  0  0  0  0  0  0  0  0
  146.6673  134.3198  149.8358 H   0  0  0  0  0  0  0  0  0  0  0  0
  147.3567  136.5072  151.8984 H   0  0  0  0  0  0  0  0  0  0  0  0
  145.8285  138.0116  153.9866 H   0  0  0  0  0  0  0  0  0  0  0  0
  147.5208  137.6189  154.1096 H   0  0  0  0  0  0  0  0  0  0  0  0
  148.1372  139.1218  152.3071 H   0  0  0  0  0  0  0  0  0  0  0  0
  146.4870  139.2848  151.7583 H   0  0  0  0  0  0  0  0  0  0  0  0
  145.3661  143.0342  154.5028 H   0  0  0  0  0  0  0  0  0  0  0  0
  147.9493  142.7506  155.5073 H   0  0  0  0  0  0  0  0  0  0  0  0
  149.8387  140.5179  153.6299 H   0  0  0  0  0  0  0  0  0  0  0  0
  143.4945  134.4927  151.5444 H   0  0  0  0  0  0  0  0  0  0  0  0
  144.3501  134.0119  150.1096 H   0  0  0  0  0  0  0  0  0  0  0  0
  143.8049  132.0282  151.5229 H   0  0  0  0  0  0  0  0  0  0  0  0
  144.6426  132.7384  152.8815 H   0  0  0  0  0  0  0  0  0  0  0  0
  145.0459  141.0317  152.9913 H   0  0  0  0  0  0  0  0  0  0  0  0
  1  2  1  0  0  0  0
  1 21  1  0  0  0  0
  1 22  1  0  0  0  0
  1 23  1  0  0  0  0
  2 20  1  0  0  0  0
  2  3  1  0  0  0  0
  2 24  1  0  0  0  0
  3  4  1  0  0  0  0
  3 25  1  0  0  0  0
  3 26  1  0  0  0  0
  4  5  1  0  0  0  0
  4 27  1  0  0  0  0
  4 28  1  0  0  0  0
  5  6  1  0  0  0  0
  5 19  1  0  0  0  0
  6  7  2  0  0  0  0
  6  8  1  0  0  0  0
  8  9  1  0  0  0  0
  8 29  1  0  0  0  0
  9 10  1  0  0  0  0
  9 30  1  0  0  0  0
  9 31  1  0  0  0  0
 10 11  1  0  0  0  0
 10 32  1  0  0  0  0
 10 33  1  0  0  0  0
 11 15  1  0  0  0  0
 11 12  2  0  0  0  0
 12 13  1  0  0  0  0
 12 41  1  0  0  0  0
 13 14  2  0  0  0  0
 13 34  1  0  0  0  0
 14 15  1  0  0  0  0
 14 35  1  0  0  0  0
 15 16  1  0  0  0  0
 16 17  1  0  0  0  0
 16 18  1  0  0  0  0
 16 36  1  0  0  0  0
 19 20  1  0  0  0  0
 19 37  1  0  0  0  0
 19 38  1  0  0  0  0
 20 39  1  0  0  0  0
 20 40  1  0  0  0  0
M  CHG  1  12   1
M  END
> <s_m_source_file>
AV-unprocessed.smi

> <i_m_source_file_index>
1039

> <i_lp_mmshare_version>
43012

> <i_f3d_flags>
0

> <s_epik_input>
W0NIM11bQ0hdMVtDSDJdW0NIMl1OKFtDSDJdW0NIMl0xKUMoPU8pW05IXVtDSDJdW0NIMl1jMm5bY0hdW2NIXW4yW0NIXShGKUY=

> <s_epik_cmdline>
J2VwaWtfcHl0aG9uJywgJy1waCcsICc3LjAnLCAnLXRuJywgJzgnLCAnLW1hJywgJzIwMCcsICctbWV0YWxfYmluZGluZycsICctaW1hZScsICc8aW5maWxlLm1hZT4nLCAnLW9tYWUnLCAnPG91dGZpbGUubWFlPic=

> <r_lp_tautomer_probability>
1

> <r_epik_Ionization_Penalty>
1.09425

> <r_epik_Ionization_Penalty_Charging>
0

> <r_epik_Ionization_Penalty_Neutral>
1.09425

> <r_epik_State_Penalty>
1.15074

> <r_epik_Charging_Adjusted_Penalty>
1.15074

> <i_epik_Tot_Q>
1

> <i_epik_Tot_abs_Q>
1

> <r_epik_Metal_State_Penalty>
1.2388

> <b_epik_Metal_Only>
0

> <s_lp_Force_Field>
OPLS_2005

> <r_lp_Energy>
37.2769

> <b_lp_Chiralities_Consistent>
1

> <s_lp_Variant>
AV-unprocessed.smi:1039-2

> <Gold.Version>
5.8.1

> <Gold.Id.Protein>
6NUR|6NUR_protein|mol2

> <Gold.PLP.Fitness>
46.8761

> <Gold.PLP.PLP>
-37.4626

> <Gold.PLP.part.hbond>
-2.0000

> <Gold.PLP.part.metal>
0.0000

> <Gold.PLP.part.buried>
-0.5691

> <Gold.PLP.part.nonpolar>
-34.2734

> <Gold.PLP.part.repulsive>
0.1318

> <Gold.PLP.ligand.clash>
0.2127

> <Gold.PLP.ligand.torsion>
0.6837

> <Gold.PLP.Chemscore.Hbond>
2.6880

> <Gold.PLP.Chemscore.CHOScore>
0.9613

> <Gold.PLP.Chemscore.Metal>
0.0000

> <Gold.Chemscore.Hbonds>
donor molecule, donor type, donor heavy atom, donor atom, acceptor molecule, acceptor atom, score
      L1  H     8    29       P1  7948  0.90
      L1  H    12    41       P1 10175  1.90
      L1  C    14    35       P1  8028  1.00

> <Gold.PLP.Chemscore.Internal.Correction>
0.0457

> <Gold.Rescore>
     Score         DG    S(hbond)    S(metal)    S(lipo)     H(rot)  DE(clash)    DE(int)     intcor
     14.99     -15.55       1.83        0.00      69.08       1.61       0.08       0.49       ----

> <Gold.Chemscore.Fitness>
14.9867

> <Gold.Chemscore.DG>
-15.5510

> <Gold.Chemscore.ZeroCoef>
-5.4800

> <Gold.Chemscore.Hbond>
1.8257

> <Gold.Chemscore.Metal>
0.0000

> <Gold.Chemscore.Lipo>
69.0803

> <Gold.Chemscore.Internal_Hbond>
0.0000

> <Gold.Chemscore.DEClash>
0.0756

> <Gold.Chemscore.DEInternal>
0.4887

> <Gold.Chemscore.Rot>
1.6051

> <Gold.Chemscore.Internal.Correction>
   9.000000E+99

> <Gold.Chemscore.Hbonds>
donor molecule, donor type, donor heavy atom, donor atom, acceptor molecule, acceptor atom, score
      L1  H     8    29       P1  7948  0.87
      L1  H    12    41       P1 10175  0.20

> <Gold.Chemscore.Hbond.Weighted>
-6.0978

> <Gold.Chemscore.Metal.Weighted>
-0.0000

> <Gold.Chemscore.Lipo.Weighted>
-8.0824

> <Gold.Chemscore.Internal_Hbond.Weighted>
0.0000

> <Gold.Chemscore.DEClash.Weighted>
0.0756

> <Gold.Chemscore.DEInternal.Weighted>
0.4887

> <Gold.Chemscore.Rot.Weighted>
4.1092

> <Gold.Chemscore.Internal.Correction.Weighted>
   9.000000E+99

> <Gold.Protein.RotatedTorsions>
[ 6907 6896 6895 6894 ] final  -50.28 input  -60.11 | X-H torsion
[ 7974 7965 7964 7962 ] final   59.98 input  175.53 | X-H torsion
[ 8008 7997 7996 7995 ] final  120.57 input   59.86 | X-H torsion
[ 10167 10162 10161 10158 ] final -166.03 input  -65.29 | X-H torsion
[ 10718 10713 10712 10709 ] final   73.21 input   66.30 | X-H torsion
[ 10763 10752 10751 10750 ] final  120.65 input  -60.55 | X-H torsion
[ 11005 11000 10999 10996 ] final   -0.36 input  -57.11 | X-H torsion

> <Gold.Protein.ActiveResidues>
 VAL166  LYS551  ARG553  GLY616  TRP617  ASP618  TYR619  PRO620  LYS621  CYS622 
 ASP623  PHE694  ASN695  SER759  ASP760  ASP761  ALA762  ILE779  LEU786  VAL792 
 PHE793  MET794  SER795  GLU796  ALA797  LYS798  CYS799  TRP800  GLU811  SER814 

> <Gold.Protein.RotatedAtoms>
  150.8723  134.8099  159.7163 H   0  0  0  0  0  0  0  0  0  0  0  0  # atno 6907 bound_to 6896
  152.4723  134.4927  159.9710 H   0  0  0  0  0  0  0  0  0  0  0  0  # atno 6908 bound_to 6896
  151.5014  133.3465  159.2905 H   0  0  0  0  0  0  0  0  0  0  0  0  # atno 6909 bound_to 6896
  145.9011  139.3582  143.0591 H   0  0  0  0  0  0  0  0  0  0  0  0  # atno 7974 bound_to 7965
  156.2648  140.2828  156.1171 H   0  0  0  0  0  0  0  0  0  0  0  0  # atno 8008 bound_to 7997
  155.1195  140.0392  157.2763 H   0  0  0  0  0  0  0  0  0  0  0  0  # atno 8009 bound_to 7997
  154.6681  140.2581  155.7042 H   0  0  0  0  0  0  0  0  0  0  0  0  # atno 8010 bound_to 7997
  139.6142  144.0753  152.1872 H   0  0  0  0  0  0  0  0  0  0  0  0  # atno 10167 bound_to 10162
  157.6537  130.9617  150.1037 H   0  0  0  0  0  0  0  0  0  0  0  0  # atno 10718 bound_to 10713
  153.6018  135.3446  155.2948 H   0  0  0  0  0  0  0  0  0  0  0  0  # atno 10763 bound_to 10752
  154.8635  135.4229  154.2405 H   0  0  0  0  0  0  0  0  0  0  0  0  # atno 10764 bound_to 10752
  153.3235  135.7039  153.7081 H   0  0  0  0  0  0  0  0  0  0  0  0  # atno 10765 bound_to 10752
  140.6354  133.9537  155.8297 H   0  0  0  0  0  0  0  0  0  0  0  0  # atno 11005 bound_to 11000
  145.8789  140.9375  143.0611 LP  0  0  0  0  0  0  0  0  0  0  0  0  # atno 17320 bound_to 7965
  144.6736  140.0753  143.7471 LP  0  0  0  0  0  0  0  0  0  0  0  0  # atno 17321 bound_to 7965
  140.0379  144.6030  150.7434 LP  0  0  0  0  0  0  0  0  0  0  0  0  # atno 17342 bound_to 10162
  140.7340  143.2723  151.3849 LP  0  0  0  0  0  0  0  0  0  0  0  0  # atno 17343 bound_to 10162
  156.1952  130.3657  149.8858 LP  0  0  0  0  0  0  0  0  0  0  0  0  # atno 17370 bound_to 10713
  156.6776  130.8845  151.3571 LP  0  0  0  0  0  0  0  0  0  0  0  0  # atno 17371 bound_to 10713
  141.0645  134.0297  157.3613 LP  0  0  0  0  0  0  0  0  0  0  0  0  # atno 17394 bound_to 11000
  139.9100  135.0188  156.7651 LP  0  0  0  0  0  0  0  0  0  0  0  0  # atno 17395 bound_to 11000

$$$$
