AV-unprocessed.smi:2146|AV-procd|sdf|8739|dock6
  -GOLD-   2272011513D 1   1.00000     0.00000
 Structure written by MMmdl.
 44 45  0  0  0  0  0  0  0  0  1 V2000
  151.7202  140.2812  159.3449 C   0  0  0  0  0  0  0  0  0  0  0  0
  152.1110  139.3980  158.1316 C   0  0  1  0  0  0  0  0  0  0  0  0
  151.6692  137.9300  158.3985 C   0  0  0  0  0  0  0  0  0  0  0  0
  150.3024  137.8239  158.9039 N   0  0  0  0  0  0  0  0  0  0  0  0
  149.5713  136.6993  158.9495 C   0  0  0  0  0  0  0  0  0  0  0  0
  149.9964  135.6019  158.5862 O   0  0  0  0  0  0  0  0  0  0  0  0
  148.1414  136.8514  159.4865 C   0  0  0  0  0  0  0  0  0  0  0  0
  147.7986  135.8335  160.4930 N   0  0  0  0  0  0  0  0  0  0  0  0
  147.8425  134.4904  160.0710 C   0  0  0  0  0  0  0  0  0  0  0  0
  147.5635  133.4555  160.8858 C   0  0  0  0  0  0  0  0  0  0  0  0
  147.6892  132.0151  160.4149 C   0  0  0  0  0  0  0  0  0  0  0  0
  146.7807  131.7327  159.4809 F   0  0  0  0  0  0  0  0  0  0  0  0
  148.8984  131.8127  159.8936 F   0  0  0  0  0  0  0  0  0  0  0  0
  147.5270  131.1634  161.4282 F   0  0  0  0  0  0  0  0  0  0  0  0
  147.2339  133.7866  162.2583 C   0  0  0  0  0  0  0  0  0  0  0  0
  147.2012  135.0654  162.6820 C   0  0  0  0  0  0  0  0  0  0  0  0
  147.4946  136.1810  161.7793 C   0  0  0  0  0  0  0  0  0  0  0  0
  147.4716  137.3523  162.1576 O   0  0  0  0  0  0  0  0  0  0  0  0
  151.6002  139.9331  156.8469 N   0  0  0  0  0  0  0  0  0  0  0  0
  151.4178  138.8891  155.8312 C   0  0  0  0  0  0  0  0  0  0  0  0
  150.8629  139.4347  154.5041 C   0  0  0  0  0  0  0  0  0  0  0  0
  149.6331  140.1059  154.7391 O   0  0  0  0  0  0  0  0  0  0  0  0
  149.7818  141.1801  155.6566 C   0  0  0  0  0  0  0  0  0  0  0  0
  150.3273  140.6488  156.9936 C   0  0  0  0  0  0  0  0  0  0  0  0
  152.0954  139.8832  160.2867 H   0  0  0  0  0  0  0  0  0  0  0  0
  150.6372  140.3712  159.4343 H   0  0  0  0  0  0  0  0  0  0  0  0
  152.1389  141.2844  159.2844 H   0  0  0  0  0  0  0  0  0  0  0  0
  153.2013  139.3956  158.0831 H   0  0  0  0  0  0  0  0  0  0  0  0
  151.8114  137.3269  157.5004 H   0  0  0  0  0  0  0  0  0  0  0  0
  152.2817  137.4721  159.1732 H   0  0  0  0  0  0  0  0  0  0  0  0
  149.8730  138.6783  159.2284 H   0  0  0  0  0  0  0  0  0  0  0  0
  148.0244  137.8614  159.8823 H   0  0  0  0  0  0  0  0  0  0  0  0
  147.4371  136.7892  158.6547 H   0  0  0  0  0  0  0  0  0  0  0  0
  148.1344  134.3556  159.0393 H   0  0  0  0  0  0  0  0  0  0  0  0
  147.0072  132.9968  162.9590 H   0  0  0  0  0  0  0  0  0  0  0  0
  146.9522  135.2752  163.7120 H   0  0  0  0  0  0  0  0  0  0  0  0
  152.3654  138.4061  155.6008 H   0  0  0  0  0  0  0  0  0  0  0  0
  150.7502  138.1146  156.2117 H   0  0  0  0  0  0  0  0  0  0  0  0
  151.5762  140.1164  154.0382 H   0  0  0  0  0  0  0  0  0  0  0  0
  150.6937  138.6194  153.8005 H   0  0  0  0  0  0  0  0  0  0  0  0
  150.4492  141.9360  155.2395 H   0  0  0  0  0  0  0  0  0  0  0  0
  148.8129  141.6566  155.8059 H   0  0  0  0  0  0  0  0  0  0  0  0
  149.5852  139.9943  157.4531 H   0  0  0  0  0  0  0  0  0  0  0  0
  150.4426  141.5093  157.6496 H   0  0  0  0  0  0  0  0  0  0  0  0
  1  2  1  0  0  0  0
  1 25  1  0  0  0  0
  1 26  1  0  0  0  0
  1 27  1  0  0  0  0
  2  3  1  0  0  0  0
  2 19  1  0  0  0  0
  2 28  1  0  0  0  0
  3  4  1  0  0  0  0
  3 29  1  0  0  0  0
  3 30  1  0  0  0  0
  4  5  1  0  0  0  0
  4 31  1  0  0  0  0
  5  6  2  0  0  0  0
  5  7  1  0  0  0  0
  7  8  1  0  0  0  0
  7 32  1  0  0  0  0
  7 33  1  0  0  0  0
  8 17  1  0  0  0  0
  8  9  1  0  0  0  0
  9 10  2  0  0  0  0
  9 34  1  0  0  0  0
 10 11  1  0  0  0  0
 10 15  1  0  0  0  0
 11 12  1  0  0  0  0
 11 13  1  0  0  0  0
 11 14  1  0  0  0  0
 15 16  2  0  0  0  0
 15 35  1  0  0  0  0
 16 17  1  0  0  0  0
 16 36  1  0  0  0  0
 17 18  2  0  0  0  0
 19 24  1  0  0  0  0
 19 20  1  0  0  0  0
 20 21  1  0  0  0  0
 20 37  1  0  0  0  0
 20 38  1  0  0  0  0
 21 22  1  0  0  0  0
 21 39  1  0  0  0  0
 21 40  1  0  0  0  0
 22 23  1  0  0  0  0
 23 24  1  0  0  0  0
 23 41  1  0  0  0  0
 23 42  1  0  0  0  0
 24 43  1  0  0  0  0
 24 44  1  0  0  0  0
M  END
> <s_m_source_file>
AV-unprocessed.smi

> <i_m_source_file_index>
2146

> <i_lp_mmshare_version>
43012

> <i_f3d_flags>
0

> <s_epik_input>
W0NIMl0xW0NIMl1PW0NIMl1bQ0gyXU4xW0NASF0oW0NIM10pW0NIMl1bTkhdQyg9TylbQ0gyXW4yW2NIXWMoQyhGKShGKUYpW2NIXVtjSF1jMj1P

> <s_epik_cmdline>
J2VwaWtfcHl0aG9uJywgJy1waCcsICc3LjAnLCAnLXRuJywgJzgnLCAnLW1hJywgJzIwMCcsICctbWV0YWxfYmluZGluZycsICctaW1hZScsICc8aW5maWxlLm1hZT4nLCAnLW9tYWUnLCAnPG91dGZpbGUubWFlPic=

> <r_lp_tautomer_probability>
1

> <r_epik_Ionization_Penalty>
0.237382

> <r_epik_Ionization_Penalty_Charging>
1.80451e-08

> <r_epik_Ionization_Penalty_Neutral>
0.237382

> <r_epik_State_Penalty>
0.228245

> <r_epik_Charging_Adjusted_Penalty>
0.228245

> <i_epik_Tot_Q>
0

> <i_epik_Tot_abs_Q>
0

> <r_epik_Metal_State_Penalty>
0.22822

> <b_epik_Metal_Only>
0

> <s_lp_Force_Field>
OPLS_2005

> <r_lp_Energy>
40.9895

> <b_lp_Chiralities_Consistent>
1

> <s_lp_Variant>
AV-unprocessed.smi:2146-2

> <Gold.Version>
5.8.1

> <Gold.Id.Protein>
6NUR|6NUR_protein|mol2

> <Gold.PLP.Fitness>
44.0708

> <Gold.PLP.PLP>
-39.7347

> <Gold.PLP.part.hbond>
-2.6770

> <Gold.PLP.part.metal>
0.0000

> <Gold.PLP.part.buried>
-2.9099

> <Gold.PLP.part.nonpolar>
-33.9618

> <Gold.PLP.part.repulsive>
0.2700

> <Gold.PLP.ligand.clash>
0.0000

> <Gold.PLP.ligand.torsion>
1.1927

> <Gold.PLP.Chemscore.Hbond>
2.2072

> <Gold.PLP.Chemscore.CHOScore>
0.0000

> <Gold.PLP.Chemscore.Metal>
0.0000

> <Gold.Chemscore.Hbonds>
donor molecule, donor type, donor heavy atom, donor atom, acceptor molecule, acceptor atom, score
      P1  H  6896  6909       L1     6  1.00
      P1  H  6931  6943       L1    18  0.82
      P1  H  6934  6947       L1    18  0.52

> <Gold.PLP.Chemscore.Internal.Correction>
0.1000

> <Gold.Rescore>
     Score         DG    S(hbond)    S(metal)    S(lipo)     H(rot)  DE(clash)    DE(int)     intcor
     13.63     -16.30       2.28        0.00      73.55       2.10       0.14       2.53       ----

> <Gold.Chemscore.Fitness>
13.6254

> <Gold.Chemscore.DG>
-16.2992

> <Gold.Chemscore.ZeroCoef>
-5.4800

> <Gold.Chemscore.Hbond>
2.2755

> <Gold.Chemscore.Metal>
0.0000

> <Gold.Chemscore.Lipo>
73.5463

> <Gold.Chemscore.Internal_Hbond>
0.0000

> <Gold.Chemscore.DEClash>
0.1423

> <Gold.Chemscore.DEInternal>
2.5315

> <Gold.Chemscore.Rot>
2.1039

> <Gold.Chemscore.Internal.Correction>
   9.000000E+99

> <Gold.Chemscore.Hbonds>
donor molecule, donor type, donor heavy atom, donor atom, acceptor molecule, acceptor atom, score
      P1  H  6896  6909       L1     6  0.91
      P1  H  6931  6943       L1    18  0.74
      P1  H  6934  6947       L1    18  0.51

> <Gold.Chemscore.Hbond.Weighted>
-7.6002

> <Gold.Chemscore.Metal.Weighted>
-0.0000

> <Gold.Chemscore.Lipo.Weighted>
-8.6049

> <Gold.Chemscore.Internal_Hbond.Weighted>
0.0000

> <Gold.Chemscore.DEClash.Weighted>
0.1423

> <Gold.Chemscore.DEInternal.Weighted>
2.5315

> <Gold.Chemscore.Rot.Weighted>
5.3860

> <Gold.Chemscore.Internal.Correction.Weighted>
   9.000000E+99

> <Gold.Protein.RotatedTorsions>
[ 6907 6896 6895 6894 ] final   46.65 input  -60.11 | X-H torsion
[ 7974 7965 7964 7962 ] final -131.94 input  175.53 | X-H torsion
[ 8008 7997 7996 7995 ] final  149.77 input   59.86 | X-H torsion
[ 10167 10162 10161 10158 ] final  162.77 input  -65.29 | X-H torsion
[ 10718 10713 10712 10709 ] final -121.01 input   66.30 | X-H torsion
[ 10763 10752 10751 10750 ] final  142.56 input  -60.55 | X-H torsion
[ 11005 11000 10999 10996 ] final  -41.29 input  -57.11 | X-H torsion

> <Gold.Protein.ActiveResidues>
 VAL166  LYS551  ARG553  GLY616  TRP617  ASP618  TYR619  PRO620  LYS621  CYS622 
 ASP623  PHE694  ASN695  SER759  ASP760  ASP761  ALA762  ILE779  LEU786  VAL792 
 PHE793  MET794  SER795  GLU796  ALA797  LYS798  CYS799  TRP800  GLU811  SER814 

> <Gold.Protein.RotatedAtoms>
  152.2589  134.8055  160.0433 H   0  0  0  0  0  0  0  0  0  0  0  0  # atno 6907 bound_to 6896
  151.8709  133.3470  159.3742 H   0  0  0  0  0  0  0  0  0  0  0  0  # atno 6908 bound_to 6896
  150.7109  134.5041  159.5620 H   0  0  0  0  0  0  0  0  0  0  0  0  # atno 6909 bound_to 6896
  144.9332  140.7152  143.4893 H   0  0  0  0  0  0  0  0  0  0  0  0  # atno 7974 bound_to 7965
  156.2742  140.2093  156.5911 H   0  0  0  0  0  0  0  0  0  0  0  0  # atno 8008 bound_to 7997
  154.6982  140.0523  157.0455 H   0  0  0  0  0  0  0  0  0  0  0  0  # atno 8009 bound_to 7997
  155.0772  140.3183  155.4615 H   0  0  0  0  0  0  0  0  0  0  0  0  # atno 8010 bound_to 7997
  139.4865  144.4404  151.8959 H   0  0  0  0  0  0  0  0  0  0  0  0  # atno 10167 bound_to 10162
  156.1303  130.6390  150.9611 H   0  0  0  0  0  0  0  0  0  0  0  0  # atno 10718 bound_to 10713
  153.9578  135.2963  155.3435 H   0  0  0  0  0  0  0  0  0  0  0  0  # atno 10763 bound_to 10752
  154.7391  135.5033  153.9095 H   0  0  0  0  0  0  0  0  0  0  0  0  # atno 10764 bound_to 10752
  153.0961  135.6721  153.9870 H   0  0  0  0  0  0  0  0  0  0  0  0  # atno 10765 bound_to 10752
  141.0235  133.6852  156.2437 H   0  0  0  0  0  0  0  0  0  0  0  0  # atno 11005 bound_to 11000
  145.3109  139.1819  143.4639 LP  0  0  0  0  0  0  0  0  0  0  0  0  # atno 17320 bound_to 7965
  146.3255  140.3113  142.8627 LP  0  0  0  0  0  0  0  0  0  0  0  0  # atno 17321 bound_to 7965
  140.3856  144.2681  150.5904 LP  0  0  0  0  0  0  0  0  0  0  0  0  # atno 17342 bound_to 10162
  140.5194  143.2270  151.8413 LP  0  0  0  0  0  0  0  0  0  0  0  0  # atno 17343 bound_to 10162
  157.6482  131.0901  150.8108 LP  0  0  0  0  0  0  0  0  0  0  0  0  # atno 17370 bound_to 10713
  156.8194  130.4979  149.5345 LP  0  0  0  0  0  0  0  0  0  0  0  0  # atno 17371 bound_to 10713
  140.6531  134.5046  157.5579 LP  0  0  0  0  0  0  0  0  0  0  0  0  # atno 17394 bound_to 11000
  139.9161  134.8243  156.1361 LP  0  0  0  0  0  0  0  0  0  0  0  0  # atno 17395 bound_to 11000

$$$$
