AV-unprocessed.smi:46|AV-procd|sdf|421|dock4
  -GOLD-   2262016303D 1   1.00000     0.00000
 Structure written by MMmdl.
 35 36  0  0  0  0  0  0  0  0  2 V2000
  151.6581  144.3136  157.8298 C   0  0  0  0  0  0  0  0  0  0  0  0
  151.8395  142.9336  158.4809 C   0  0  0  0  0  0  0  0  0  0  0  0
  153.2858  142.6984  158.9400 C   0  0  0  0  0  0  0  0  0  0  0  0
  151.4059  141.8717  157.5854 N   0  0  0  0  0  0  0  0  0  0  0  0
  150.6476  141.9650  156.4368 C   0  0  0  0  0  0  0  0  0  0  0  0
  150.5065  140.7037  155.9254 C   0  0  0  0  0  0  0  0  0  0  0  0
  149.7606  140.2283  154.6957 C   0  0  2  0  0  0  0  0  0  0  0  0
  148.2979  139.8673  154.9800 C   0  0  0  0  0  0  0  0  0  0  0  0
  148.2957  138.4557  155.4054 N   0  3  0  0  0  0  0  0  0  0  0  0
  149.5495  137.8317  154.9372 C   0  0  0  0  0  0  0  0  0  0  0  0
  150.3037  138.9014  154.1311 C   0  0  2  0  0  0  0  0  0  0  0  0
  151.8333  138.7068  154.1414 C   0  0  0  0  0  0  0  0  0  0  0  0
  152.1660  137.4568  153.5762 O   0  0  0  0  0  0  0  0  0  0  0  0
  151.2426  139.8998  156.8419 C   0  0  0  0  0  0  0  0  0  0  0  0
  151.7792  140.5981  157.8276 N   0  0  0  0  0  0  0  0  0  0  0  0
  149.8021  140.9999  153.9255 H   0  0  0  0  0  0  0  0  0  0  0  0
  149.9557  138.8208  153.0993 H   0  0  0  0  0  0  0  0  0  0  0  0
  151.9198  145.1102  158.5265 H   0  0  0  0  0  0  0  0  0  0  0  0
  150.6228  144.4701  157.5255 H   0  0  0  0  0  0  0  0  0  0  0  0
  152.2876  144.4281  156.9468 H   0  0  0  0  0  0  0  0  0  0  0  0
  151.2020  142.9043  159.3666 H   0  0  0  0  0  0  0  0  0  0  0  0
  153.5973  143.4601  159.6553 H   0  0  0  0  0  0  0  0  0  0  0  0
  153.9812  142.7265  158.1006 H   0  0  0  0  0  0  0  0  0  0  0  0
  153.3890  141.7282  159.4271 H   0  0  0  0  0  0  0  0  0  0  0  0
  150.2707  142.9140  156.0857 H   0  0  0  0  0  0  0  0  0  0  0  0
  147.8196  140.5233  155.7083 H   0  0  0  0  0  0  0  0  0  0  0  0
  147.7232  139.9285  154.0548 H   0  0  0  0  0  0  0  0  0  0  0  0
  148.2701  138.4111  156.4141 H   0  0  0  0  0  0  0  0  0  0  0  0
  150.1234  137.5244  155.8123 H   0  0  0  0  0  0  0  0  0  0  0  0
  149.3468  136.9414  154.3412 H   0  0  0  0  0  0  0  0  0  0  0  0
  152.3492  139.5011  153.6010 H   0  0  0  0  0  0  0  0  0  0  0  0
  152.2058  138.7293  155.1660 H   0  0  0  0  0  0  0  0  0  0  0  0
  151.6525  137.3327  152.7922 H   0  0  0  0  0  0  0  0  0  0  0  0
  151.3971  138.8311  156.8213 H   0  0  0  0  0  0  0  0  0  0  0  0
  147.4918  137.9780  155.0236 H   0  0  0  0  0  0  0  0  0  0  0  0
  1  2  1  0  0  0  0
  1 18  1  0  0  0  0
  1 19  1  0  0  0  0
  1 20  1  0  0  0  0
  2  3  1  0  0  0  0
  2  4  1  0  0  0  0
  2 21  1  0  0  0  0
  3 22  1  0  0  0  0
  3 23  1  0  0  0  0
  3 24  1  0  0  0  0
  4 15  1  0  0  0  0
  4  5  1  0  0  0  0
  5  6  2  0  0  0  0
  5 25  1  0  0  0  0
  6  7  1  0  0  0  0
  6 14  1  0  0  0  0
  7 16  1  0  0  0  0
  7 11  1  0  0  0  0
  7  8  1  0  0  0  0
  8  9  1  0  0  0  0
  8 26  1  0  0  0  0
  8 27  1  0  0  0  0
  9 10  1  0  0  0  0
  9 28  1  0  0  0  0
  9 35  1  0  0  0  0
 10 11  1  0  0  0  0
 10 29  1  0  0  0  0
 10 30  1  0  0  0  0
 11 17  1  0  0  0  0
 11 12  1  0  0  0  0
 12 13  1  0  0  0  0
 12 31  1  0  0  0  0
 12 32  1  0  0  0  0
 13 33  1  0  0  0  0
 14 15  2  0  0  0  0
 14 34  1  0  0  0  0
M  CHG  1   9   1
M  END
> <s_m_source_file>
AV-unprocessed.smi

> <i_m_source_file_index>
46

> <i_lp_mmshare_version>
43012

> <i_f3d_flags>
0

> <s_epik_input>
W0NIM11bQ0hdKFtDSDNdKW4xW2NIXWMoW2NIXW4xKVtDQEBIXTJbQ0gyXVtOSF1bQ0gyXVtDQEhdMltDSDJdW09IXQ==

> <s_epik_cmdline>
J2VwaWtfcHl0aG9uJywgJy1waCcsICc3LjAnLCAnLXRuJywgJzgnLCAnLW1hJywgJzIwMCcsICctbWV0YWxfYmluZGluZycsICctaW1hZScsICc8aW5maWxlLm1hZT4nLCAnLW9tYWUnLCAnPG91dGZpbGUubWFlPic=

> <r_lp_tautomer_probability>
1

> <r_epik_Ionization_Penalty>
0.000236226

> <r_epik_Ionization_Penalty_Charging>
0.00021985

> <r_epik_Ionization_Penalty_Neutral>
1.63752e-05

> <r_epik_State_Penalty>
-0

> <r_epik_Charging_Adjusted_Penalty>
0.00021985

> <i_epik_Tot_Q>
1

> <i_epik_Tot_abs_Q>
1

> <r_epik_Metal_State_Penalty>
-0

> <b_epik_Metal_Only>
0

> <s_lp_Force_Field>
OPLS_2005

> <r_lp_Energy>
33.6612

> <b_lp_Chiralities_Consistent>
1

> <s_lp_Variant>
AV-unprocessed.smi:46-3

> <Gold.Version>
5.8.1

> <Gold.Id.Protein>
6NUR|6NUR_protein|mol2

> <Gold.PLP.Fitness>
39.7233

> <Gold.PLP.PLP>
-33.0879

> <Gold.PLP.part.hbond>
-2.0000

> <Gold.PLP.part.metal>
0.0000

> <Gold.PLP.part.buried>
-3.7955

> <Gold.PLP.part.nonpolar>
-27.5443

> <Gold.PLP.part.repulsive>
0.0000

> <Gold.PLP.ligand.clash>
0.0000

> <Gold.PLP.ligand.torsion>
1.1988

> <Gold.PLP.Chemscore.Hbond>
1.9920

> <Gold.PLP.Chemscore.CHOScore>
1.0000

> <Gold.PLP.Chemscore.Metal>
0.0000

> <Gold.Chemscore.Hbonds>
donor molecule, donor type, donor heavy atom, donor atom, acceptor molecule, acceptor atom, score
      L1  H    13    33       P1  7949  0.83
      P1  H 10752 10763       L1    13  0.96
      L1  C     5    25       P1  8028  1.00

> <Gold.PLP.Chemscore.Internal.Correction>
0.0571

> <Gold.Rescore>
     Score         DG    S(hbond)    S(metal)    S(lipo)     H(rot)  DE(clash)    DE(int)     intcor
     13.35     -15.93       1.56        0.00      86.21       1.90       0.07       2.51       ----

> <Gold.Chemscore.Fitness>
13.3523

> <Gold.Chemscore.DG>
-15.9300

> <Gold.Chemscore.ZeroCoef>
-5.4800

> <Gold.Chemscore.Hbond>
1.5634

> <Gold.Chemscore.Metal>
0.0000

> <Gold.Chemscore.Lipo>
86.2068

> <Gold.Chemscore.Internal_Hbond>
0.0000

> <Gold.Chemscore.DEClash>
0.0694

> <Gold.Chemscore.DEInternal>
2.5082

> <Gold.Chemscore.Rot>
1.8976

> <Gold.Chemscore.Internal.Correction>
   9.000000E+99

> <Gold.Chemscore.Hbonds>
donor molecule, donor type, donor heavy atom, donor atom, acceptor molecule, acceptor atom, score
      L1  H    13    33       P1  7949  0.80
      P1  H 10752 10763       L1    13  0.58

> <Gold.Chemscore.Hbond.Weighted>
-5.2217

> <Gold.Chemscore.Metal.Weighted>
-0.0000

> <Gold.Chemscore.Lipo.Weighted>
-10.0862

> <Gold.Chemscore.Internal_Hbond.Weighted>
0.0000

> <Gold.Chemscore.DEClash.Weighted>
0.0694

> <Gold.Chemscore.DEInternal.Weighted>
2.5082

> <Gold.Chemscore.Rot.Weighted>
4.8579

> <Gold.Chemscore.Internal.Correction.Weighted>
   9.000000E+99

> <Gold.Protein.RotatedTorsions>
[ 6907 6896 6895 6894 ] final  133.77 input  -60.11 | X-H torsion
[ 7974 7965 7964 7962 ] final   91.01 input  175.53 | X-H torsion
[ 8008 7997 7996 7995 ] final  164.77 input   59.86 | X-H torsion
[ 10167 10162 10161 10158 ] final -135.99 input  -65.29 | X-H torsion
[ 10718 10713 10712 10709 ] final -112.14 input   66.30 | X-H torsion
[ 10763 10752 10751 10750 ] final   27.13 input  -60.55 | X-H torsion
[ 11005 11000 10999 10996 ] final -135.19 input  -57.11 | X-H torsion

> <Gold.Protein.ActiveResidues>
 VAL166  LYS551  ARG553  GLY616  TRP617  ASP618  TYR619  PRO620  LYS621  CYS622 
 ASP623  PHE694  ASN695  SER759  ASP760  ASP761  ALA762  ILE779  LEU786  VAL792 
 PHE793  MET794  SER795  GLU796  ALA797  LYS798  CYS799  TRP800  GLU811  SER814 

> <Gold.Protein.RotatedAtoms>
  152.3184  133.5827  159.5727 H   0  0  0  0  0  0  0  0  0  0  0  0  # atno 6907 bound_to 6896
  150.7358  134.0048  159.3659 H   0  0  0  0  0  0  0  0  0  0  0  0  # atno 6908 bound_to 6896
  151.7934  135.0730  160.0441 H   0  0  0  0  0  0  0  0  0  0  0  0  # atno 6909 bound_to 6896
  145.5114  139.2277  143.2722 H   0  0  0  0  0  0  0  0  0  0  0  0  # atno 7974 bound_to 7965
  156.1853  140.1688  156.8196 H   0  0  0  0  0  0  0  0  0  0  0  0  # atno 8008 bound_to 7997
  154.5407  140.0737  156.8538 H   0  0  0  0  0  0  0  0  0  0  0  0  # atno 8009 bound_to 7997
  155.3220  140.3374  155.4243 H   0  0  0  0  0  0  0  0  0  0  0  0  # atno 8010 bound_to 7997
  139.8723  143.6942  152.2638 H   0  0  0  0  0  0  0  0  0  0  0  0  # atno 10167 bound_to 10162
  156.0688  130.5904  150.8469 H   0  0  0  0  0  0  0  0  0  0  0  0  # atno 10718 bound_to 10713
  153.0576  135.6544  154.0540 H   0  0  0  0  0  0  0  0  0  0  0  0  # atno 10763 bound_to 10752
  154.0214  135.2919  155.3382 H   0  0  0  0  0  0  0  0  0  0  0  0  # atno 10764 bound_to 10752
  154.6899  135.5287  153.8445 H   0  0  0  0  0  0  0  0  0  0  0  0  # atno 10765 bound_to 10752
  140.8921  134.1799  157.4520 H   0  0  0  0  0  0  0  0  0  0  0  0  # atno 11005 bound_to 11000
  146.2164  140.5921  142.9036 LP  0  0  0  0  0  0  0  0  0  0  0  0  # atno 17320 bound_to 7965
  144.7725  140.5669  143.6660 LP  0  0  0  0  0  0  0  0  0  0  0  0  # atno 17321 bound_to 7965
  139.7273  144.7590  151.0859 LP  0  0  0  0  0  0  0  0  0  0  0  0  # atno 17342 bound_to 10162
  140.7759  143.5132  150.9626 LP  0  0  0  0  0  0  0  0  0  0  0  0  # atno 17343 bound_to 10162
  157.5747  131.0946  150.9365 LP  0  0  0  0  0  0  0  0  0  0  0  0  # atno 17370 bound_to 10713
  156.9573  130.5442  149.5284 LP  0  0  0  0  0  0  0  0  0  0  0  0  # atno 17371 bound_to 10713
  139.8731  134.9863  156.5317 LP  0  0  0  0  0  0  0  0  0  0  0  0  # atno 17394 bound_to 11000
  140.8334  133.8261  155.9006 LP  0  0  0  0  0  0  0  0  0  0  0  0  # atno 17395 bound_to 11000

$$$$
