AV-unprocessed.smi:652|AV-procd|sdf|3199|dock9
  -GOLD-   22720 0133D 1   1.00000     0.00000
 Structure written by MMmdl.
 49 50  0  0  0  0  0  0  0  0  3 V2000
  146.6372  134.3392  161.4730 C   0  0  0  0  0  0  0  0  0  0  0  0
  147.5173  135.5964  161.4732 C   0  0  0  0  0  0  0  0  0  0  0  0
  147.2482  136.4748  162.7056 C   0  0  0  0  0  0  0  0  0  0  0  0
  147.2838  136.3521  160.2456 N   0  0  0  0  0  0  0  0  0  0  0  0
  148.1830  136.5457  159.2679 C   0  0  0  0  0  0  0  0  0  0  0  0
  149.3264  136.0904  159.3031 O   0  0  0  0  0  0  0  0  0  0  0  0
  147.7114  137.3821  158.0732 C   0  0  0  0  0  0  0  0  0  0  0  0
  148.8507  138.1847  157.4106 C   0  0  0  0  0  0  0  0  0  0  0  0
  148.3568  139.4012  156.7112 N   0  3  2  0  0  0  0  0  0  0  0  0
  148.1897  139.2158  155.2486 C   0  0  0  0  0  0  0  0  0  0  0  0
  149.5468  139.2604  154.5234 C   0  0  0  0  0  0  0  0  0  0  0  0
  150.1931  140.4971  154.8008 O   0  0  0  0  0  0  0  0  0  0  0  0
  150.4533  140.6807  156.1890 C   0  0  1  0  0  0  0  0  0  0  0  0
  151.2474  141.9859  156.3734 C   0  0  0  0  0  0  0  0  0  0  0  0
  150.4444  143.0520  156.9569 N   0  0  0  0  0  0  0  0  0  0  0  0
  150.8676  143.7030  158.1233 C   0  0  0  0  0  0  0  0  0  0  0  0
  152.0650  143.3993  158.8121 C   0  0  0  0  0  0  0  0  0  0  0  0
  152.3716  144.1334  159.9705 C   0  0  0  0  0  0  0  0  0  0  0  0
  151.4618  145.1278  160.3717 C   0  0  0  0  0  0  0  0  0  0  0  0
  150.3217  145.4026  159.6995 N   0  0  0  0  0  0  0  0  0  0  0  0
  150.0565  144.6831  158.5950 N   0  3  0  0  0  0  0  0  0  0  0  0
  149.1284  140.6408  156.9887 C   0  0  0  0  0  0  0  0  0  0  0  0
  146.8127  133.7392  162.3664 H   0  0  0  0  0  0  0  0  0  0  0  0
  146.8496  133.7097  160.6080 H   0  0  0  0  0  0  0  0  0  0  0  0
  145.5772  134.5952  161.4480 H   0  0  0  0  0  0  0  0  0  0  0  0
  148.5594  135.2719  161.4979 H   0  0  0  0  0  0  0  0  0  0  0  0
  147.4232  135.9190  163.6272 H   0  0  0  0  0  0  0  0  0  0  0  0
  146.2171  136.8294  162.7227 H   0  0  0  0  0  0  0  0  0  0  0  0
  147.9018  137.3475  162.7223 H   0  0  0  0  0  0  0  0  0  0  0  0
  146.3663  136.7588  160.1337 H   0  0  0  0  0  0  0  0  0  0  0  0
  147.2604  136.7072  157.3445 H   0  0  0  0  0  0  0  0  0  0  0  0
  146.9205  138.0506  158.4133 H   0  0  0  0  0  0  0  0  0  0  0  0
  149.6167  138.4423  158.1422 H   0  0  0  0  0  0  0  0  0  0  0  0
  149.3373  137.5423  156.6749 H   0  0  0  0  0  0  0  0  0  0  0  0
  147.6657  138.2835  155.0341 H   0  0  0  0  0  0  0  0  0  0  0  0
  147.5526  140.0162  154.8702 H   0  0  0  0  0  0  0  0  0  0  0  0
  150.1832  138.4251  154.8192 H   0  0  0  0  0  0  0  0  0  0  0  0
  149.3977  139.1775  153.4468 H   0  0  0  0  0  0  0  0  0  0  0  0
  151.0991  139.8681  156.5242 H   0  0  0  0  0  0  0  0  0  0  0  0
  152.1109  141.7998  157.0132 H   0  0  0  0  0  0  0  0  0  0  0  0
  151.6298  142.3166  155.4068 H   0  0  0  0  0  0  0  0  0  0  0  0
  149.7048  143.4587  156.4021 H   0  0  0  0  0  0  0  0  0  0  0  0
  152.7392  142.6264  158.4741 H   0  0  0  0  0  0  0  0  0  0  0  0
  153.2729  143.9415  160.5340 H   0  0  0  0  0  0  0  0  0  0  0  0
  151.6516  145.7191  161.2556 H   0  0  0  0  0  0  0  0  0  0  0  0
  148.4999  141.4850  156.7033 H   0  0  0  0  0  0  0  0  0  0  0  0
  149.3194  140.7560  158.0548 H   0  0  0  0  0  0  0  0  0  0  0  0
  147.4263  139.5510  157.0753 H   0  0  0  0  0  0  0  0  0  0  0  0
  149.1981  144.8868  158.0824 H   0  0  0  0  0  0  0  0  0  0  0  0
  1  2  1  0  0  0  0
  1 23  1  0  0  0  0
  1 24  1  0  0  0  0
  1 25  1  0  0  0  0
  2  3  1  0  0  0  0
  2  4  1  0  0  0  0
  2 26  1  0  0  0  0
  3 27  1  0  0  0  0
  3 28  1  0  0  0  0
  3 29  1  0  0  0  0
  4  5  1  0  0  0  0
  4 30  1  0  0  0  0
  5  6  2  0  0  0  0
  5  7  1  0  0  0  0
  7  8  1  0  0  0  0
  7 31  1  0  0  0  0
  7 32  1  0  0  0  0
  8  9  1  0  0  0  0
  8 33  1  0  0  0  0
  8 34  1  0  0  0  0
  9 22  1  0  0  0  0
  9 10  1  0  0  0  0
  9 48  1  0  0  0  0
 10 11  1  0  0  0  0
 10 35  1  0  0  0  0
 10 36  1  0  0  0  0
 11 12  1  0  0  0  0
 11 37  1  0  0  0  0
 11 38  1  0  0  0  0
 12 13  1  0  0  0  0
 13 14  1  0  0  0  0
 13 22  1  0  0  0  0
 13 39  1  0  0  0  0
 14 15  1  0  0  0  0
 14 40  1  0  0  0  0
 14 41  1  0  0  0  0
 15 16  1  0  0  0  0
 15 42  1  0  0  0  0
 16 21  1  0  0  0  0
 16 17  2  0  0  0  0
 17 18  1  0  0  0  0
 17 43  1  0  0  0  0
 18 19  2  0  0  0  0
 18 44  1  0  0  0  0
 19 20  1  0  0  0  0
 19 45  1  0  0  0  0
 20 21  2  0  0  0  0
 21 49  1  0  0  0  0
 22 46  1  0  0  0  0
 22 47  1  0  0  0  0
M  CHG  1   9   1
M  CHG  1  21   1
M  END
> <s_m_source_file>
AV-unprocessed.smi

> <i_m_source_file_index>
652

> <i_lp_mmshare_version>
43012

> <i_f3d_flags>
0

> <s_epik_input>
W0NIM11bQ0hdKFtDSDNdKVtOSF1DKD1PKVtDSDJdW0NIMl1OMVtDSDJdW0NIMl1PW0NASF0oW0NIMl0xKVtDSDJdW05IXWMyW2NIXVtjSF1bY0hdbm4y

> <s_epik_cmdline>
J2VwaWtfcHl0aG9uJywgJy1waCcsICc3LjAnLCAnLXRuJywgJzgnLCAnLW1hJywgJzIwMCcsICctbWV0YWxfYmluZGluZycsICctaW1hZScsICc8aW5maWxlLm1hZT4nLCAnLW9tYWUnLCAnPG91dGZpbGUubWFlPic=

> <r_lp_tautomer_probability>
0.966961

> <r_epik_Ionization_Penalty>
2.79885

> <r_epik_Ionization_Penalty_Charging>
2.79884

> <r_epik_Ionization_Penalty_Neutral>
3.2567e-06

> <r_epik_State_Penalty>
2.43203

> <r_epik_Charging_Adjusted_Penalty>
5.23087

> <i_epik_Tot_Q>
2

> <i_epik_Tot_abs_Q>
2

> <r_epik_Metal_State_Penalty>
2.43963

> <b_epik_Metal_Only>
0

> <s_lp_Force_Field>
OPLS_2005

> <r_lp_Energy>
35.8493

> <b_lp_Chiralities_Consistent>
1

> <s_lp_Variant>
AV-unprocessed.smi:652-8

> <Gold.Version>
5.8.1

> <Gold.Id.Protein>
6NUR|6NUR_protein|mol2

> <Gold.PLP.Fitness>
54.2836

> <Gold.PLP.PLP>
-40.0249

> <Gold.PLP.part.hbond>
-5.9773

> <Gold.PLP.part.metal>
0.0000

> <Gold.PLP.part.buried>
-6.4177

> <Gold.PLP.part.nonpolar>
-28.5549

> <Gold.PLP.part.repulsive>
0.7163

> <Gold.PLP.ligand.clash>
0.1031

> <Gold.PLP.ligand.torsion>
1.8040

> <Gold.PLP.Chemscore.Hbond>
5.9600

> <Gold.PLP.Chemscore.CHOScore>
0.0000

> <Gold.PLP.Chemscore.Metal>
0.0000

> <Gold.Chemscore.Hbonds>
donor molecule, donor type, donor heavy atom, donor atom, acceptor molecule, acceptor atom, score
      L1  H    15    42       P1  8028  2.00
      L1  H    21    49       P1  8029  2.00
      P1  H  6896  6907       L1     6  1.00
      P1  H  7989  7998       L1    12  0.96

> <Gold.PLP.Chemscore.Internal.Correction>
0.0898

> <Gold.Rescore>
     Score         DG    S(hbond)    S(metal)    S(lipo)     H(rot)  DE(clash)    DE(int)     intcor
     18.73     -20.87       3.15        0.00      92.69       2.33       0.33       1.80       ----

> <Gold.Chemscore.Fitness>
18.7311

> <Gold.Chemscore.DG>
-20.8708

> <Gold.Chemscore.ZeroCoef>
-5.4800

> <Gold.Chemscore.Hbond>
3.1490

> <Gold.Chemscore.Metal>
0.0000

> <Gold.Chemscore.Lipo>
92.6880

> <Gold.Chemscore.Internal_Hbond>
0.0000

> <Gold.Chemscore.DEClash>
0.3350

> <Gold.Chemscore.DEInternal>
1.8047

> <Gold.Chemscore.Rot>
2.3326

> <Gold.Chemscore.Internal.Correction>
   9.000000E+99

> <Gold.Chemscore.Hbonds>
donor molecule, donor type, donor heavy atom, donor atom, acceptor molecule, acceptor atom, score
      L1  H    15    42       P1  8028  0.97
      L1  H    21    49       P1  8029  0.25
      P1  H  6896  6907       L1     6  0.98
      P1  H  7989  7998       L1    12  0.72

> <Gold.Chemscore.Hbond.Weighted>
-10.5177

> <Gold.Chemscore.Metal.Weighted>
-0.0000

> <Gold.Chemscore.Lipo.Weighted>
-10.8445

> <Gold.Chemscore.Internal_Hbond.Weighted>
0.0000

> <Gold.Chemscore.DEClash.Weighted>
0.3350

> <Gold.Chemscore.DEInternal.Weighted>
1.8047

> <Gold.Chemscore.Rot.Weighted>
5.9714

> <Gold.Chemscore.Internal.Correction.Weighted>
   9.000000E+99

> <Gold.Protein.RotatedTorsions>
[ 6907 6896 6895 6894 ] final  -52.04 input  -60.11 | X-H torsion
[ 7974 7965 7964 7962 ] final  -14.49 input  175.53 | X-H torsion
[ 8008 7997 7996 7995 ] final -126.90 input   59.86 | X-H torsion
[ 10167 10162 10161 10158 ] final  161.35 input  -65.29 | X-H torsion
[ 10718 10713 10712 10709 ] final  -80.17 input   66.30 | X-H torsion
[ 10763 10752 10751 10750 ] final   72.44 input  -60.55 | X-H torsion
[ 11005 11000 10999 10996 ] final  108.68 input  -57.11 | X-H torsion

> <Gold.Protein.ActiveResidues>
 VAL166  LYS551  ARG553  GLY616  TRP617  ASP618  TYR619  PRO620  LYS621  CYS622 
 ASP623  PHE694  ASN695  SER759  ASP760  ASP761  ALA762  ILE779  LEU786  VAL792 
 PHE793  MET794  SER795  GLU796  ALA797  LYS798  CYS799  TRP800  GLU811  SER814 

> <Gold.Protein.RotatedAtoms>
  150.8555  134.7893  159.7041 H   0  0  0  0  0  0  0  0  0  0  0  0  # atno 6907 bound_to 6896
  152.4608  134.5185  159.9785 H   0  0  0  0  0  0  0  0  0  0  0  0  # atno 6908 bound_to 6896
  151.5299  133.3413  159.2952 H   0  0  0  0  0  0  0  0  0  0  0  0  # atno 6909 bound_to 6896
  146.2072  140.3355  142.8403 H   0  0  0  0  0  0  0  0  0  0  0  0  # atno 7974 bound_to 7965
  155.2374  140.0427  157.2970 H   0  0  0  0  0  0  0  0  0  0  0  0  # atno 8008 bound_to 7997
  154.5850  140.2411  155.7970 H   0  0  0  0  0  0  0  0  0  0  0  0  # atno 8009 bound_to 7997
  156.2220  140.2967  155.9983 H   0  0  0  0  0  0  0  0  0  0  0  0  # atno 8010 bound_to 7997
  139.4848  144.4545  151.8787 H   0  0  0  0  0  0  0  0  0  0  0  0  # atno 10167 bound_to 10162
  156.0076  130.4566  150.3759 H   0  0  0  0  0  0  0  0  0  0  0  0  # atno 10718 bound_to 10713
  153.0459  135.5100  154.7745 H   0  0  0  0  0  0  0  0  0  0  0  0  # atno 10763 bound_to 10752
  154.6645  135.2943  154.9826 H   0  0  0  0  0  0  0  0  0  0  0  0  # atno 10764 bound_to 10752
  154.0665  135.6683  153.4871 H   0  0  0  0  0  0  0  0  0  0  0  0  # atno 10765 bound_to 10752
  139.8848  134.9437  156.6010 H   0  0  0  0  0  0  0  0  0  0  0  0  # atno 11005 bound_to 11000
  144.8822  140.7415  143.5979 LP  0  0  0  0  0  0  0  0  0  0  0  0  # atno 17320 bound_to 7965
  145.3276  139.1769  143.4554 LP  0  0  0  0  0  0  0  0  0  0  0  0  # atno 17321 bound_to 7965
  140.4003  144.2501  150.5893 LP  0  0  0  0  0  0  0  0  0  0  0  0  # atno 17342 bound_to 10162
  140.5063  143.2303  151.8603 LP  0  0  0  0  0  0  0  0  0  0  0  0  # atno 17343 bound_to 10162
  157.1841  131.0399  151.2733 LP  0  0  0  0  0  0  0  0  0  0  0  0  # atno 17370 bound_to 10713
  157.4119  130.7390  149.6846 LP  0  0  0  0  0  0  0  0  0  0  0  0  # atno 17371 bound_to 10713
  140.7884  133.8602  155.8625 LP  0  0  0  0  0  0  0  0  0  0  0  0  # atno 17394 bound_to 11000
  140.9699  134.1545  157.4585 LP  0  0  0  0  0  0  0  0  0  0  0  0  # atno 17395 bound_to 11000

$$$$
