AV-unprocessed.smi:1783|AV-procd|sdf|7192|dock6
  -GOLD-   22720 8433D 1   1.00000     0.00000
 Structure written by MMmdl.
 30 31  0  0  0  0  0  0  0  0  1 V2000
  151.7009  140.8652  158.8682 O   0  0  0  0  0  0  0  0  0  0  0  0
  151.8063  141.9466  158.2897 C   0  0  0  0  0  0  0  0  0  0  0  0
  151.3255  142.2220  157.0610 N   0  0  0  0  0  0  0  0  0  0  0  0
  150.6040  141.4035  156.1749 C   0  0  0  0  0  0  0  0  0  0  0  0
  149.3415  141.6496  155.7363 C   0  0  0  0  0  0  0  0  0  0  0  0
  148.6561  140.7577  154.8161 C   0  0  0  0  0  0  0  0  0  0  0  0
  147.2634  141.0736  154.2927 C   0  0  0  0  0  0  0  0  0  0  0  0
  147.2246  141.0355  152.9600 F   0  0  0  0  0  0  0  0  0  0  0  0
  146.3911  140.1812  154.7591 F   0  0  0  0  0  0  0  0  0  0  0  0
  146.8688  142.2841  154.6881 F   0  0  0  0  0  0  0  0  0  0  0  0
  149.3482  139.6839  154.3934 C   0  0  0  0  0  0  0  0  0  0  0  0
  150.6459  139.4232  154.8386 N   0  0  0  0  0  0  0  0  0  0  0  0
  151.3266  140.2115  155.7004 C   0  0  0  0  0  0  0  0  0  0  0  0
  152.4718  139.9155  156.0399 O   0  0  0  0  0  0  0  0  0  0  0  0
  152.5418  143.1027  158.9780 C   0  0  2  0  0  0  0  0  0  0  0  0
  153.0712  142.7646  160.3849 C   0  0  0  0  0  0  0  0  0  0  0  0
  152.2228  143.6197  161.3064 C   0  0  0  0  0  0  0  0  0  0  0  0
  151.8705  144.7958  160.4077 C   0  0  0  0  0  0  0  0  0  0  0  0
  151.6172  144.1732  159.1587 O   0  0  0  0  0  0  0  0  0  0  0  0
  151.0949  138.5920  154.4820 H   0  0  0  0  0  0  0  0  0  0  0  0
  151.5381  143.1410  156.6999 H   0  0  0  0  0  0  0  0  0  0  0  0
  148.8032  142.5283  156.0504 H   0  0  0  0  0  0  0  0  0  0  0  0
  148.9723  138.9548  153.6907 H   0  0  0  0  0  0  0  0  0  0  0  0
  153.3663  143.4519  158.3539 H   0  0  0  0  0  0  0  0  0  0  0  0
  153.0133  141.7064  160.6438 H   0  0  0  0  0  0  0  0  0  0  0  0
  154.1184  143.0594  160.4622 H   0  0  0  0  0  0  0  0  0  0  0  0
  151.3167  143.0822  161.5884 H   0  0  0  0  0  0  0  0  0  0  0  0
  152.7439  143.9171  162.2168 H   0  0  0  0  0  0  0  0  0  0  0  0
  151.0044  145.3553  160.7615 H   0  0  0  0  0  0  0  0  0  0  0  0
  152.7134  145.4821  160.3124 H   0  0  0  0  0  0  0  0  0  0  0  0
  1  2  2  0  0  0  0
  2  3  1  0  0  0  0
  2 15  1  0  0  0  0
  3  4  1  0  0  0  0
  3 21  1  0  0  0  0
  4 13  1  0  0  0  0
  4  5  2  0  0  0  0
  5  6  1  0  0  0  0
  5 22  1  0  0  0  0
  6  7  1  0  0  0  0
  6 11  2  0  0  0  0
  7  8  1  0  0  0  0
  7  9  1  0  0  0  0
  7 10  1  0  0  0  0
 11 12  1  0  0  0  0
 11 23  1  0  0  0  0
 12 20  1  0  0  0  0
 12 13  1  0  0  0  0
 13 14  2  0  0  0  0
 15 19  1  0  0  0  0
 15 16  1  0  0  0  0
 15 24  1  0  0  0  0
 16 17  1  0  0  0  0
 16 25  1  0  0  0  0
 16 26  1  0  0  0  0
 17 18  1  0  0  0  0
 17 27  1  0  0  0  0
 17 28  1  0  0  0  0
 18 19  1  0  0  0  0
 18 29  1  0  0  0  0
 18 30  1  0  0  0  0
M  END
> <s_m_source_file>
AV-unprocessed.smi

> <i_m_source_file_index>
1783

> <i_lp_mmshare_version>
43012

> <i_f3d_flags>
0

> <s_epik_input>
TzFbQ0gyXVtDSDJdW0NIMl1bQ0BIXTFDKD1PKVtOSF1jMltjSF1jKEMoRikoRilGKVtjSF1bbkhdYzI9Tw==

> <s_epik_cmdline>
J2VwaWtfcHl0aG9uJywgJy1waCcsICc3LjAnLCAnLXRuJywgJzgnLCAnLW1hJywgJzIwMCcsICctbWV0YWxfYmluZGluZycsICctaW1hZScsICc8aW5maWxlLm1hZT4nLCAnLW9tYWUnLCAnPG91dGZpbGUubWFlPic=

> <r_lp_tautomer_probability>
0.999

> <r_epik_Ionization_Penalty>
0.00885957

> <r_epik_Ionization_Penalty_Charging>
0.00885947

> <r_epik_Ionization_Penalty_Neutral>
9.33956e-08

> <r_epik_State_Penalty>
0.00669851

> <r_epik_Charging_Adjusted_Penalty>
0.015558

> <i_epik_Tot_Q>
0

> <i_epik_Tot_abs_Q>
0

> <r_epik_Metal_State_Penalty>
0.320804

> <b_epik_Metal_Only>
0

> <s_lp_Force_Field>
OPLS_2005

> <r_lp_Energy>
32.169

> <b_lp_Chiralities_Consistent>
1

> <s_lp_Variant>
AV-unprocessed.smi:1783-1

> <Gold.Version>
5.8.1

> <Gold.Id.Protein>
6NUR|6NUR_protein|mol2

> <Gold.PLP.Fitness>
41.0978

> <Gold.PLP.PLP>
-39.2192

> <Gold.PLP.part.hbond>
-1.0000

> <Gold.PLP.part.metal>
0.0000

> <Gold.PLP.part.buried>
-1.9099

> <Gold.PLP.part.nonpolar>
-34.8234

> <Gold.PLP.part.repulsive>
0.2233

> <Gold.PLP.ligand.clash>
0.0000

> <Gold.PLP.ligand.torsion>
0.8012

> <Gold.PLP.Chemscore.Hbond>
1.0000

> <Gold.PLP.Chemscore.CHOScore>
0.1477

> <Gold.PLP.Chemscore.Metal>
0.0000

> <Gold.Chemscore.Hbonds>
donor molecule, donor type, donor heavy atom, donor atom, acceptor molecule, acceptor atom, score
      P1  H  7997  8008       L1    14  1.00
      L1  C    11    23       P1  7957  0.13

> <Gold.PLP.Chemscore.Internal.Correction>
0.0380

> <Gold.Rescore>
     Score         DG    S(hbond)    S(metal)    S(lipo)     H(rot)  DE(clash)    DE(int)     intcor
     14.67     -15.38       1.00        0.00      78.02       1.00       0.03       0.68       ----

> <Gold.Chemscore.Fitness>
14.6698

> <Gold.Chemscore.DG>
-15.3779

> <Gold.Chemscore.ZeroCoef>
-5.4800

> <Gold.Chemscore.Hbond>
0.9968

> <Gold.Chemscore.Metal>
0.0000

> <Gold.Chemscore.Lipo>
78.0232

> <Gold.Chemscore.Internal_Hbond>
0.0000

> <Gold.Chemscore.DEClash>
0.0270

> <Gold.Chemscore.DEInternal>
0.6810

> <Gold.Chemscore.Rot>
1.0000

> <Gold.Chemscore.Internal.Correction>
   9.000000E+99

> <Gold.Chemscore.Hbonds>
donor molecule, donor type, donor heavy atom, donor atom, acceptor molecule, acceptor atom, score
      P1  H  7997  8008       L1    14  0.98

> <Gold.Chemscore.Hbond.Weighted>
-3.3292

> <Gold.Chemscore.Metal.Weighted>
-0.0000

> <Gold.Chemscore.Lipo.Weighted>
-9.1287

> <Gold.Chemscore.Internal_Hbond.Weighted>
0.0000

> <Gold.Chemscore.DEClash.Weighted>
0.0270

> <Gold.Chemscore.DEInternal.Weighted>
0.6810

> <Gold.Chemscore.Rot.Weighted>
2.5600

> <Gold.Chemscore.Internal.Correction.Weighted>
   9.000000E+99

> <Gold.Protein.RotatedTorsions>
[ 6907 6896 6895 6894 ] final    1.72 input  -60.11 | X-H torsion
[ 7974 7965 7964 7962 ] final  140.06 input  175.53 | X-H torsion
[ 8008 7997 7996 7995 ] final  -51.24 input   59.86 | X-H torsion
[ 10167 10162 10161 10158 ] final -109.42 input  -65.29 | X-H torsion
[ 10718 10713 10712 10709 ] final -160.72 input   66.30 | X-H torsion
[ 10763 10752 10751 10750 ] final -144.94 input  -60.55 | X-H torsion
[ 11005 11000 10999 10996 ] final   24.23 input  -57.11 | X-H torsion

> <Gold.Protein.ActiveResidues>
 VAL166  LYS551  ARG553  GLY616  TRP617  ASP618  TYR619  PRO620  LYS621  CYS622 
 ASP623  PHE694  ASN695  SER759  ASP760  ASP761  ALA762  ILE779  LEU786  VAL792 
 PHE793  MET794  SER795  GLU796  ALA797  LYS798  CYS799  TRP800  GLU811  SER814 

> <Gold.Protein.RotatedAtoms>
  151.5972  135.1049  160.0051 H   0  0  0  0  0  0  0  0  0  0  0  0  # atno 6907 bound_to 6896
  152.4276  133.7218  159.6548 H   0  0  0  0  0  0  0  0  0  0  0  0  # atno 6908 bound_to 6896
  150.8166  133.8254  159.3180 H   0  0  0  0  0  0  0  0  0  0  0  0  # atno 6909 bound_to 6896
  144.9221  139.5154  143.5658 H   0  0  0  0  0  0  0  0  0  0  0  0  # atno 7974 bound_to 7965
  154.4079  140.1252  156.4797 H   0  0  0  0  0  0  0  0  0  0  0  0  # atno 8008 bound_to 7997
  155.7097  140.3494  155.4949 H   0  0  0  0  0  0  0  0  0  0  0  0  # atno 8009 bound_to 7997
  155.9311  140.1070  157.1121 H   0  0  0  0  0  0  0  0  0  0  0  0  # atno 8010 bound_to 7997
  140.1554  143.4164  152.1464 H   0  0  0  0  0  0  0  0  0  0  0  0  # atno 10167 bound_to 10162
  156.5862  130.8750  151.2878 H   0  0  0  0  0  0  0  0  0  0  0  0  # atno 10718 bound_to 10713
  154.8406  135.3427  154.6425 H   0  0  0  0  0  0  0  0  0  0  0  0  # atno 10763 bound_to 10752
  153.7036  135.6968  153.5061 H   0  0  0  0  0  0  0  0  0  0  0  0  # atno 10764 bound_to 10752
  153.2504  135.4355  155.0746 H   0  0  0  0  0  0  0  0  0  0  0  0  # atno 10765 bound_to 10752
  140.3609  134.2126  155.7672 H   0  0  0  0  0  0  0  0  0  0  0  0  # atno 11005 bound_to 11000
  146.3209  139.8109  142.8946 LP  0  0  0  0  0  0  0  0  0  0  0  0  # atno 17320 bound_to 7965
  145.3279  141.0259  143.3463 LP  0  0  0  0  0  0  0  0  0  0  0  0  # atno 17321 bound_to 7965
  139.5406  144.7252  151.4747 LP  0  0  0  0  0  0  0  0  0  0  0  0  # atno 17342 bound_to 10162
  140.6676  143.8364  150.6960 LP  0  0  0  0  0  0  0  0  0  0  0  0  # atno 17343 bound_to 10162
  157.7315  130.9701  150.1882 LP  0  0  0  0  0  0  0  0  0  0  0  0  # atno 17370 bound_to 10713
  156.2589  130.3708  149.8152 LP  0  0  0  0  0  0  0  0  0  0  0  0  # atno 17371 bound_to 10713
  141.1984  133.8036  157.0583 LP  0  0  0  0  0  0  0  0  0  0  0  0  # atno 17394 bound_to 11000
  140.0627  134.9746  157.1333 LP  0  0  0  0  0  0  0  0  0  0  0  0  # atno 17395 bound_to 11000

$$$$
