AV-unprocessed.smi:759|AV-procd|sdf|3623|dock2
  -GOLD-   22720 1 13D 1   1.00000     0.00000
 Structure written by MMmdl.
 24 25  0  0  0  0  0  0  0  0  2 V2000
  150.8626  137.8992  154.3209 C   0  0  0  0  0  0  0  0  0  0  0  0
  151.8957  137.3273  154.9411 N   0  0  0  0  0  0  0  0  0  0  0  0
  152.3384  138.2801  155.8443 N   0  0  0  0  0  0  0  0  0  0  0  0
  151.5279  139.3345  155.6842 C   0  0  0  0  0  0  0  0  0  0  0  0
  151.6243  140.6147  156.4564 C   0  0  2  0  0  0  0  0  0  0  0  0
  151.5139  140.3837  157.9760 C   0  0  0  0  0  0  0  0  0  0  0  0
  151.5963  141.7189  158.7321 C   0  0  0  0  0  0  0  0  0  0  0  0
  150.5478  142.7138  158.2073 C   0  0  0  0  0  0  0  0  0  0  0  0
  150.6984  142.9106  156.7491 N   0  3  0  0  0  0  0  0  0  0  0  0
  150.5851  141.6512  155.9806 C   0  0  0  0  0  0  0  0  0  0  0  0
  150.5924  139.1404  154.7415 N   0  0  0  0  0  0  0  0  0  0  0  0
  149.8681  139.7693  154.4261 H   0  0  0  0  0  0  0  0  0  0  0  0
  150.2943  137.4033  153.5478 H   0  0  0  0  0  0  0  0  0  0  0  0
  152.6137  141.0330  156.2621 H   0  0  0  0  0  0  0  0  0  0  0  0
  150.5685  139.8926  158.2113 H   0  0  0  0  0  0  0  0  0  0  0  0
  152.3052  139.7141  158.3155 H   0  0  0  0  0  0  0  0  0  0  0  0
  151.4508  141.5523  159.7998 H   0  0  0  0  0  0  0  0  0  0  0  0
  152.5945  142.1440  158.6186 H   0  0  0  0  0  0  0  0  0  0  0  0
  149.5406  142.3524  158.4197 H   0  0  0  0  0  0  0  0  0  0  0  0
  150.6543  143.6760  158.7091 H   0  0  0  0  0  0  0  0  0  0  0  0
  149.9873  143.5533  156.4302 H   0  0  0  0  0  0  0  0  0  0  0  0
  150.7256  141.8720  154.9219 H   0  0  0  0  0  0  0  0  0  0  0  0
  149.5728  141.2599  156.0927 H   0  0  0  0  0  0  0  0  0  0  0  0
  151.6065  143.3155  156.5721 H   0  0  0  0  0  0  0  0  0  0  0  0
  1 11  1  0  0  0  0
  1  2  2  0  0  0  0
  1 13  1  0  0  0  0
  2  3  1  0  0  0  0
  3  4  2  0  0  0  0
  4  5  1  0  0  0  0
  4 11  1  0  0  0  0
  5 10  1  0  0  0  0
  5  6  1  0  0  0  0
  5 14  1  0  0  0  0
  6  7  1  0  0  0  0
  6 15  1  0  0  0  0
  6 16  1  0  0  0  0
  7  8  1  0  0  0  0
  7 17  1  0  0  0  0
  7 18  1  0  0  0  0
  8  9  1  0  0  0  0
  8 19  1  0  0  0  0
  8 20  1  0  0  0  0
  9 10  1  0  0  0  0
  9 21  1  0  0  0  0
  9 24  1  0  0  0  0
 10 22  1  0  0  0  0
 10 23  1  0  0  0  0
 11 12  1  0  0  0  0
M  CHG  1   9   1
M  END
> <s_m_source_file>
AV-unprocessed.smi

> <i_m_source_file_index>
759

> <i_lp_mmshare_version>
43012

> <i_f3d_flags>
0

> <s_epik_input>
W25IXTFbY0hdbm5jMVtDQEBIXTJbQ0gyXVtDSDJdW0NIMl1bTkhdW0NIMl0y

> <s_epik_cmdline>
J2VwaWtfcHl0aG9uJywgJy1waCcsICc3LjAnLCAnLXRuJywgJzgnLCAnLW1hJywgJzIwMCcsICctbWV0YWxfYmluZGluZycsICctaW1hZScsICc8aW5maWxlLm1hZT4nLCAnLW9tYWUnLCAnPG91dGZpbGUubWFlPic=

> <r_lp_tautomer_probability>
0.0517155

> <r_epik_Ionization_Penalty>
0.0333069

> <r_epik_Ionization_Penalty_Charging>
0.000426856

> <r_epik_Ionization_Penalty_Neutral>
0.03288

> <r_epik_State_Penalty>
2.11054

> <r_epik_Charging_Adjusted_Penalty>
2.11097

> <i_epik_Tot_Q>
1

> <i_epik_Tot_abs_Q>
1

> <r_epik_Metal_State_Penalty>
2.37626

> <b_epik_Metal_Only>
0

> <s_lp_Force_Field>
OPLS_2005

> <r_lp_Energy>
13.742

> <b_lp_Chiralities_Consistent>
1

> <s_lp_Variant>
AV-unprocessed.smi:759-5

> <Gold.Version>
5.8.1

> <Gold.Id.Protein>
6NUR|6NUR_protein|mol2

> <Gold.PLP.Fitness>
32.7179

> <Gold.PLP.PLP>
-20.8351

> <Gold.PLP.part.hbond>
-2.0000

> <Gold.PLP.part.metal>
0.0000

> <Gold.PLP.part.buried>
-4.9784

> <Gold.PLP.part.nonpolar>
-13.8894

> <Gold.PLP.part.repulsive>
0.2582

> <Gold.PLP.ligand.clash>
0.0000

> <Gold.PLP.ligand.torsion>
0.0140

> <Gold.PLP.Chemscore.Hbond>
2.8564

> <Gold.PLP.Chemscore.CHOScore>
1.1045

> <Gold.PLP.Chemscore.Metal>
0.0000

> <Gold.Chemscore.Hbonds>
donor molecule, donor type, donor heavy atom, donor atom, acceptor molecule, acceptor atom, score
      L1  H     9    21       P1  8028  2.00
      P1  H 10752 10764       L1     2  0.80
      L1  C     1    13       P1  7948  0.88
      L1  C     1    13       P1  7949  0.23

> <Gold.PLP.Chemscore.Internal.Correction>
0.0278

> <Gold.Rescore>
     Score         DG    S(hbond)    S(metal)    S(lipo)     H(rot)  DE(clash)    DE(int)     intcor
     13.42     -13.47       1.90        0.00      36.03       1.00       0.01       0.03       ----

> <Gold.Chemscore.Fitness>
13.4245

> <Gold.Chemscore.DG>
-13.4672

> <Gold.Chemscore.ZeroCoef>
-5.4800

> <Gold.Chemscore.Hbond>
1.8956

> <Gold.Chemscore.Metal>
0.0000

> <Gold.Chemscore.Lipo>
36.0336

> <Gold.Chemscore.Internal_Hbond>
0.0000

> <Gold.Chemscore.DEClash>
0.0106

> <Gold.Chemscore.DEInternal>
0.0321

> <Gold.Chemscore.Rot>
1.0000

> <Gold.Chemscore.Internal.Correction>
   9.000000E+99

> <Gold.Chemscore.Hbonds>
donor molecule, donor type, donor heavy atom, donor atom, acceptor molecule, acceptor atom, score
      L1  H     9    21       P1  8028  1.00
      P1  H 10752 10764       L1     2  0.75

> <Gold.Chemscore.Hbond.Weighted>
-6.3313

> <Gold.Chemscore.Metal.Weighted>
-0.0000

> <Gold.Chemscore.Lipo.Weighted>
-4.2159

> <Gold.Chemscore.Internal_Hbond.Weighted>
0.0000

> <Gold.Chemscore.DEClash.Weighted>
0.0106

> <Gold.Chemscore.DEInternal.Weighted>
0.0321

> <Gold.Chemscore.Rot.Weighted>
2.5600

> <Gold.Chemscore.Internal.Correction.Weighted>
   9.000000E+99

> <Gold.Protein.RotatedTorsions>
[ 6907 6896 6895 6894 ] final -174.55 input  -60.11 | X-H torsion
[ 7974 7965 7964 7962 ] final  169.55 input  175.53 | X-H torsion
[ 8008 7997 7996 7995 ] final  166.82 input   59.86 | X-H torsion
[ 10167 10162 10161 10158 ] final   13.18 input  -65.29 | X-H torsion
[ 10718 10713 10712 10709 ] final -100.56 input   66.30 | X-H torsion
[ 10763 10752 10751 10750 ] final  -76.74 input  -60.55 | X-H torsion
[ 11005 11000 10999 10996 ] final  -92.96 input  -57.11 | X-H torsion

> <Gold.Protein.ActiveResidues>
 VAL166  LYS551  ARG553  GLY616  TRP617  ASP618  TYR619  PRO620  LYS621  CYS622 
 ASP623  PHE694  ASN695  SER759  ASP760  ASP761  ALA762  ILE779  LEU786  VAL792 
 PHE793  MET794  SER795  GLU796  ALA797  LYS798  CYS799  TRP800  GLU811  SER814 

> <Gold.Protein.RotatedAtoms>
  151.5742  133.3386  159.2995 H   0  0  0  0  0  0  0  0  0  0  0  0  # atno 6907 bound_to 6896
  150.8350  134.7623  159.6897 H   0  0  0  0  0  0  0  0  0  0  0  0  # atno 6908 bound_to 6896
  152.4428  134.5563  159.9933 H   0  0  0  0  0  0  0  0  0  0  0  0  # atno 6909 bound_to 6896
  144.7351  139.9071  143.6413 H   0  0  0  0  0  0  0  0  0  0  0  0  # atno 7974 bound_to 7965
  156.1686  140.1633  156.8487 H   0  0  0  0  0  0  0  0  0  0  0  0  # atno 8008 bound_to 7997
  154.5233  140.0773  156.8247 H   0  0  0  0  0  0  0  0  0  0  0  0  # atno 8009 bound_to 7997
  155.3559  140.3392  155.4242 H   0  0  0  0  0  0  0  0  0  0  0  0  # atno 8010 bound_to 7997
  140.6019  143.8586  150.6974 H   0  0  0  0  0  0  0  0  0  0  0  0  # atno 10167 bound_to 10162
  156.0167  130.5333  150.6835 H   0  0  0  0  0  0  0  0  0  0  0  0  # atno 10718 bound_to 10713
  154.5038  135.5787  153.6552 H   0  0  0  0  0  0  0  0  0  0  0  0  # atno 10763 bound_to 10752
  152.9884  135.6142  154.2967 H   0  0  0  0  0  0  0  0  0  0  0  0  # atno 10764 bound_to 10752
  154.2877  135.2849  155.2648 H   0  0  0  0  0  0  0  0  0  0  0  0  # atno 10765 bound_to 10752
  141.1509  133.7856  157.0093 H   0  0  0  0  0  0  0  0  0  0  0  0  # atno 11005 bound_to 11000
  146.1029  139.4026  143.0336 LP  0  0  0  0  0  0  0  0  0  0  0  0  # atno 17320 bound_to 7965
  145.7553  140.9956  143.1228 LP  0  0  0  0  0  0  0  0  0  0  0  0  # atno 17321 bound_to 7965
  140.2134  143.3865  152.1700 LP  0  0  0  0  0  0  0  0  0  0  0  0  # atno 17342 bound_to 10162
  139.5297  144.7145  151.5099 LP  0  0  0  0  0  0  0  0  0  0  0  0  # atno 17343 bound_to 10162
  157.4533  131.0875  151.0823 LP  0  0  0  0  0  0  0  0  0  0  0  0  # atno 17370 bound_to 10713
  157.1333  130.6111  149.5535 LP  0  0  0  0  0  0  0  0  0  0  0  0  # atno 17371 bound_to 10713
  140.0888  134.9605  157.1743 LP  0  0  0  0  0  0  0  0  0  0  0  0  # atno 17394 bound_to 11000
  140.3474  134.2636  155.7203 LP  0  0  0  0  0  0  0  0  0  0  0  0  # atno 17395 bound_to 11000

$$$$
