AV-unprocessed.smi:1080|AV-procd|sdf|4708|dock2
  -GOLD-   22720 3233D 1   1.00000     0.00000
 Structure written by MMmdl.
 49 51  0  0  0  0  0  0  0  0  2 V2000
  147.3587  138.8425  155.3198 O   0  0  0  0  0  0  0  0  0  0  0  0
  147.8451  138.1633  154.4160 C   0  0  0  0  0  0  0  0  0  0  0  0
  147.1447  137.4783  153.4951 N   0  0  0  0  0  0  0  0  0  0  0  0
  145.7347  137.3476  153.3659 C   0  0  0  0  0  0  0  0  0  0  0  0
  144.9318  137.9317  154.3710 C   0  0  0  0  0  0  0  0  0  0  0  0
  143.5278  137.8428  154.2803 C   0  0  0  0  0  0  0  0  0  0  0  0
  142.9607  137.2091  153.2317 N   0  3  0  0  0  0  0  0  0  0  0  0
  143.6847  136.6474  152.2401 C   0  0  0  0  0  0  0  0  0  0  0  0
  145.0930  136.7050  152.2761 C   0  0  0  0  0  0  0  0  0  0  0  0
  149.1650  138.0323  154.2180 N   0  0  0  0  0  0  0  0  0  0  0  0
  150.2055  138.6447  155.0391 C   0  0  2  0  0  0  0  0  0  0  0  0
  150.1404  138.1195  156.4877 C   0  0  0  0  0  0  0  0  0  0  0  0
  151.1777  138.8137  157.3852 C   0  0  0  0  0  0  0  0  0  0  0  0
  151.0094  140.3472  157.3614 C   0  0  1  0  0  0  0  0  0  0  0  0
  152.0562  141.0233  158.2741 C   0  0  0  0  0  0  0  0  0  0  0  0
  152.8381  140.3025  158.8967 O   0  0  0  0  0  0  0  0  0  0  0  0
  152.1188  142.3771  158.3498 N   0  0  0  0  0  0  0  0  0  0  0  0
  151.0845  143.2425  157.7689 C   0  0  0  0  0  0  0  0  0  0  0  0
  150.1473  143.7200  158.8920 C   0  0  0  0  0  0  0  0  0  0  0  0
  151.0496  144.7085  160.1275 S   0  0  0  0  0  0  0  0  0  0  0  0
  152.4637  143.6040  160.4375 C   0  0  0  0  0  0  0  0  0  0  0  0
  153.1029  143.1529  159.1143 C   0  0  0  0  0  0  0  0  0  0  0  0
  151.0968  140.8602  155.9060 C   0  0  0  0  0  0  0  0  0  0  0  0
  150.0524  140.1764  155.0092 C   0  0  0  0  0  0  0  0  0  0  0  0
  147.6882  137.0352  152.7688 H   0  0  0  0  0  0  0  0  0  0  0  0
  145.3850  138.4409  155.2095 H   0  0  0  0  0  0  0  0  0  0  0  0
  142.8466  138.2577  155.0088 H   0  0  0  0  0  0  0  0  0  0  0  0
  143.1200  136.1766  151.4486 H   0  0  0  0  0  0  0  0  0  0  0  0
  145.6487  136.2659  151.4620 H   0  0  0  0  0  0  0  0  0  0  0  0
  149.4771  137.4604  153.4469 H   0  0  0  0  0  0  0  0  0  0  0  0
  151.1816  138.3955  154.6178 H   0  0  0  0  0  0  0  0  0  0  0  0
  149.1423  138.2828  156.8966 H   0  0  0  0  0  0  0  0  0  0  0  0
  150.3085  137.0421  156.5062 H   0  0  0  0  0  0  0  0  0  0  0  0
  151.0826  138.4369  158.4042 H   0  0  0  0  0  0  0  0  0  0  0  0
  152.1810  138.5435  157.0518 H   0  0  0  0  0  0  0  0  0  0  0  0
  150.0073  140.6037  157.7021 H   0  0  0  0  0  0  0  0  0  0  0  0
  151.5423  144.0977  157.2696 H   0  0  0  0  0  0  0  0  0  0  0  0
  150.5047  142.7354  156.9966 H   0  0  0  0  0  0  0  0  0  0  0  0
  149.3391  144.3255  158.4817 H   0  0  0  0  0  0  0  0  0  0  0  0
  149.6857  142.8660  159.3889 H   0  0  0  0  0  0  0  0  0  0  0  0
  153.1920  144.1329  161.0524 H   0  0  0  0  0  0  0  0  0  0  0  0
  152.1243  142.7417  161.0126 H   0  0  0  0  0  0  0  0  0  0  0  0
  154.0265  142.6055  159.2953 H   0  0  0  0  0  0  0  0  0  0  0  0
  153.4139  144.0267  158.5396 H   0  0  0  0  0  0  0  0  0  0  0  0
  150.9479  141.9406  155.8796 H   0  0  0  0  0  0  0  0  0  0  0  0
  152.0899  140.6745  155.4933 H   0  0  0  0  0  0  0  0  0  0  0  0
  150.1530  140.5421  153.9867 H   0  0  0  0  0  0  0  0  0  0  0  0
  149.0516  140.4571  155.3410 H   0  0  0  0  0  0  0  0  0  0  0  0
  141.9426  137.1566  153.1840 H   0  0  0  0  0  0  0  0  0  0  0  0
  1  2  2  0  0  0  0
  2  3  1  0  0  0  0
  2 10  1  0  0  0  0
  3  4  1  0  0  0  0
  3 25  1  0  0  0  0
  4  9  1  0  0  0  0
  4  5  2  0  0  0  0
  5  6  1  0  0  0  0
  5 26  1  0  0  0  0
  6  7  2  0  0  0  0
  6 27  1  0  0  0  0
  7  8  1  0  0  0  0
  7 49  1  0  0  0  0
  8  9  2  0  0  0  0
  8 28  1  0  0  0  0
  9 29  1  0  0  0  0
 10 11  1  0  0  0  0
 10 30  1  0  0  0  0
 11 24  1  0  0  0  0
 11 12  1  0  0  0  0
 11 31  1  0  0  0  0
 12 13  1  0  0  0  0
 12 32  1  0  0  0  0
 12 33  1  0  0  0  0
 13 14  1  0  0  0  0
 13 34  1  0  0  0  0
 13 35  1  0  0  0  0
 14 15  1  0  0  0  0
 14 23  1  0  0  0  0
 14 36  1  0  0  0  0
 15 16  2  0  0  0  0
 15 17  1  0  0  0  0
 17 22  1  0  0  0  0
 17 18  1  0  0  0  0
 18 19  1  0  0  0  0
 18 37  1  0  0  0  0
 18 38  1  0  0  0  0
 19 20  1  0  0  0  0
 19 39  1  0  0  0  0
 19 40  1  0  0  0  0
 20 21  1  0  0  0  0
 21 22  1  0  0  0  0
 21 41  1  0  0  0  0
 21 42  1  0  0  0  0
 22 43  1  0  0  0  0
 22 44  1  0  0  0  0
 23 24  1  0  0  0  0
 23 45  1  0  0  0  0
 23 46  1  0  0  0  0
 24 47  1  0  0  0  0
 24 48  1  0  0  0  0
M  CHG  1   7   1
M  END
> <s_m_source_file>
AV-unprocessed.smi

> <i_m_source_file_index>
1080

> <i_lp_mmshare_version>
43012

> <i_f3d_flags>
0

> <s_epik_input>
W2NIXTFbY0hdbltjSF1bY0hdYzFbTkhdQyg9TylbTkhdW0NAQEhdMltDSDJdW0NIMl1bQ0BIXShbQ0gyXVtDSDJdMilDKD1PKU4zW0NIMl1bQ0gyXVNbQ0gyXVtDSDJdMw==

> <s_epik_cmdline>
J2VwaWtfcHl0aG9uJywgJy1waCcsICc3LjAnLCAnLXRuJywgJzgnLCAnLW1hJywgJzIwMCcsICctbWV0YWxfYmluZGluZycsICctaW1hZScsICc8aW5maWxlLm1hZT4nLCAnLW9tYWUnLCAnPG91dGZpbGUubWFlPic=

> <r_epik_Ionization_Penalty>
1.01281

> <r_epik_Ionization_Penalty_Charging>
1.01278

> <r_epik_Ionization_Penalty_Neutral>
2.07681e-05

> <r_epik_State_Penalty>
1.06237

> <r_epik_Charging_Adjusted_Penalty>
2.07515

> <i_epik_Tot_Q>
1

> <i_epik_Tot_abs_Q>
1

> <r_epik_Metal_State_Penalty>
1.16243

> <b_epik_Metal_Only>
0

> <s_lp_Force_Field>
OPLS_2005

> <r_lp_Energy>
38.1228

> <b_lp_Chiralities_Consistent>
1

> <s_lp_Variant>
AV-unprocessed.smi:1080-3

> <Gold.Version>
5.8.1

> <Gold.Id.Protein>
6NUR|6NUR_protein|mol2

> <Gold.PLP.Fitness>
42.9955

> <Gold.PLP.PLP>
-37.1560

> <Gold.PLP.part.hbond>
-2.0000

> <Gold.PLP.part.metal>
0.0000

> <Gold.PLP.part.buried>
-4.6898

> <Gold.PLP.part.nonpolar>
-29.9948

> <Gold.PLP.part.repulsive>
0.0463

> <Gold.PLP.ligand.clash>
0.0000

> <Gold.PLP.ligand.torsion>
0.0632

> <Gold.PLP.Chemscore.Hbond>
1.9675

> <Gold.PLP.Chemscore.CHOScore>
0.0000

> <Gold.PLP.Chemscore.Metal>
0.0000

> <Gold.Chemscore.Hbonds>
donor molecule, donor type, donor heavy atom, donor atom, acceptor molecule, acceptor atom, score
      L1  H     3    25       P1  7948  1.00
      L1  H    10    30       P1  7948  0.95

> <Gold.PLP.Chemscore.Internal.Correction>
0.0635

> <Gold.Rescore>
     Score         DG    S(hbond)    S(metal)    S(lipo)     H(rot)  DE(clash)    DE(int)     intcor
     17.90     -20.64       1.98        0.00     100.37       1.25       0.28       2.46       ----

> <Gold.Chemscore.Fitness>
17.9043

> <Gold.Chemscore.DG>
-20.6368

> <Gold.Chemscore.ZeroCoef>
-5.4800

> <Gold.Chemscore.Hbond>
1.9790

> <Gold.Chemscore.Metal>
0.0000

> <Gold.Chemscore.Lipo>
100.3709

> <Gold.Chemscore.Internal_Hbond>
0.0000

> <Gold.Chemscore.DEClash>
0.2760

> <Gold.Chemscore.DEInternal>
2.4565

> <Gold.Chemscore.Rot>
1.2486

> <Gold.Chemscore.Internal.Correction>
   9.000000E+99

> <Gold.Chemscore.Hbonds>
donor molecule, donor type, donor heavy atom, donor atom, acceptor molecule, acceptor atom, score
      L1  H     3    25       P1  7948  1.00
      L1  H    10    30       P1  7948  0.79

> <Gold.Chemscore.Hbond.Weighted>
-6.6097

> <Gold.Chemscore.Metal.Weighted>
-0.0000

> <Gold.Chemscore.Lipo.Weighted>
-11.7434

> <Gold.Chemscore.Internal_Hbond.Weighted>
0.0000

> <Gold.Chemscore.DEClash.Weighted>
0.2760

> <Gold.Chemscore.DEInternal.Weighted>
2.4565

> <Gold.Chemscore.Rot.Weighted>
3.1963

> <Gold.Chemscore.Internal.Correction.Weighted>
   9.000000E+99

> <Gold.Protein.RotatedTorsions>
[ 6907 6896 6895 6894 ] final   76.84 input  -60.11 | X-H torsion
[ 7974 7965 7964 7962 ] final  -22.08 input  175.53 | X-H torsion
[ 8008 7997 7996 7995 ] final -164.73 input   59.86 | X-H torsion
[ 10167 10162 10161 10158 ] final -108.89 input  -65.29 | X-H torsion
[ 10718 10713 10712 10709 ] final  116.24 input   66.30 | X-H torsion
[ 10763 10752 10751 10750 ] final -155.43 input  -60.55 | X-H torsion
[ 11005 11000 10999 10996 ] final  -53.32 input  -57.11 | X-H torsion

> <Gold.Protein.ActiveResidues>
 VAL166  LYS551  ARG553  GLY616  TRP617  ASP618  TYR619  PRO620  LYS621  CYS622 
 ASP623  PHE694  ASN695  SER759  ASP760  ASP761  ALA762  ILE779  LEU786  VAL792 
 PHE793  MET794  SER795  GLU796  ALA797  LYS798  CYS799  TRP800  GLU811  SER814 

> <Gold.Protein.RotatedAtoms>
  152.5091  134.3908  159.9382 H   0  0  0  0  0  0  0  0  0  0  0  0  # atno 6907 bound_to 6896
  151.3868  133.3796  159.2724 H   0  0  0  0  0  0  0  0  0  0  0  0  # atno 6908 bound_to 6896
  150.9463  134.8888  159.7702 H   0  0  0  0  0  0  0  0  0  0  0  0  # atno 6909 bound_to 6896
  146.1696  140.4429  142.8537 H   0  0  0  0  0  0  0  0  0  0  0  0  # atno 7974 bound_to 7965
  155.8397  140.0946  157.1742 H   0  0  0  0  0  0  0  0  0  0  0  0  # atno 8008 bound_to 7997
  154.3981  140.1403  156.3775 H   0  0  0  0  0  0  0  0  0  0  0  0  # atno 8009 bound_to 7997
  155.8077  140.3451  155.5442 H   0  0  0  0  0  0  0  0  0  0  0  0  # atno 8010 bound_to 7997
  140.1612  143.4118  152.1424 H   0  0  0  0  0  0  0  0  0  0  0  0  # atno 10167 bound_to 10162
  157.6172  131.1023  150.7445 H   0  0  0  0  0  0  0  0  0  0  0  0  # atno 10718 bound_to 10713
  154.7788  135.3168  154.8035 H   0  0  0  0  0  0  0  0  0  0  0  0  # atno 10763 bound_to 10752
  153.8752  135.6840  153.4775 H   0  0  0  0  0  0  0  0  0  0  0  0  # atno 10764 bound_to 10752
  153.1418  135.4736  154.9444 H   0  0  0  0  0  0  0  0  0  0  0  0  # atno 10765 bound_to 10752
  141.0970  133.6623  156.4155 H   0  0  0  0  0  0  0  0  0  0  0  0  # atno 11005 bound_to 11000
  144.8144  140.6442  143.6394 LP  0  0  0  0  0  0  0  0  0  0  0  0  # atno 17320 bound_to 7965
  145.4374  139.1540  143.3989 LP  0  0  0  0  0  0  0  0  0  0  0  0  # atno 17321 bound_to 7965
  139.5380  144.7229  151.4828 LP  0  0  0  0  0  0  0  0  0  0  0  0  # atno 17342 bound_to 10162
  140.6641  143.8435  150.6922 LP  0  0  0  0  0  0  0  0  0  0  0  0  # atno 17343 bound_to 10162
  156.7809  130.4859  149.5401 LP  0  0  0  0  0  0  0  0  0  0  0  0  # atno 17370 bound_to 10713
  156.1300  130.6171  151.0320 LP  0  0  0  0  0  0  0  0  0  0  0  0  # atno 17371 bound_to 10713
  140.5116  134.6390  157.5286 LP  0  0  0  0  0  0  0  0  0  0  0  0  # atno 17394 bound_to 11000
  139.9809  134.7138  155.9861 LP  0  0  0  0  0  0  0  0  0  0  0  0  # atno 17395 bound_to 11000

$$$$
