AV-unprocessed.smi:155|AV-procd|sdf|1275|dock6
  -GOLD-   2262018543D 1   1.00000     0.00000
 Structure written by MMmdl.
 63 66  0  0  0  0  0  0  0  0  2 V2000
  145.7238  131.3973  152.1256 C   0  0  0  0  0  0  0  0  0  0  0  0
  146.7589  132.2896  151.5557 N   0  3  0  0  0  0  0  0  0  0  0  0
  146.2028  133.1521  150.4897 C   0  0  0  0  0  0  0  0  0  0  0  0
  147.4952  133.0752  152.5785 C   0  0  0  0  0  0  0  0  0  0  0  0
  148.3233  132.1919  153.5408 C   0  0  0  0  0  0  0  0  0  0  0  0
  148.8337  132.9341  154.6964 N   0  0  0  0  0  0  0  0  0  0  0  0
  149.2384  132.0226  155.7750 C   0  0  0  0  0  0  0  0  0  0  0  0
  150.0475  132.6468  156.9334 C   0  0  0  0  0  0  0  0  0  0  0  0
  149.6535  134.0751  157.3355 C   0  0  0  0  0  0  0  0  0  0  0  0
  150.2716  135.0611  156.4540 N   0  0  0  0  0  0  0  0  0  0  0  0
  150.4347  136.2665  157.0388 C   0  0  0  0  0  0  0  0  0  0  0  0
  150.1520  136.4226  158.3588 N   0  0  0  0  0  0  0  0  0  0  0  0
  150.3212  137.6159  158.9374 C   0  0  0  0  0  0  0  0  0  0  0  0
  150.7539  138.7556  158.3919 N   0  0  0  0  0  0  0  0  0  0  0  0
  151.0394  138.5947  157.0672 C   0  0  0  0  0  0  0  0  0  0  0  0
  150.9070  137.3933  156.3181 C   0  0  0  0  0  0  0  0  0  0  0  0
  151.2899  137.6051  155.0000 N   0  0  0  0  0  0  0  0  0  0  0  0
  151.6385  138.8629  154.9725 C   0  0  0  0  0  0  0  0  0  0  0  0
  151.5300  139.5298  156.1726 N   0  0  0  0  0  0  0  0  0  0  0  0
  151.8605  140.9215  156.4291 C   0  0  0  0  0  0  0  0  0  0  0  0
  150.7456  141.7112  157.1508 C   0  0  2  0  0  0  0  0  0  0  0  0
  149.6217  141.8785  156.3088 O   0  0  0  0  0  0  0  0  0  0  0  0
  151.1805  143.0723  157.7399 C   0  0  2  0  0  0  0  0  0  0  0  0
  152.3982  143.0483  158.6629 C   0  0  0  0  0  0  0  0  0  0  0  0
  152.2579  144.3465  159.4428 C   0  0  0  0  0  0  0  0  0  0  0  0
  150.7900  144.7484  159.2526 C   0  0  0  0  0  0  0  0  0  0  0  0
  150.1840  143.6695  158.5539 O   0  0  0  0  0  0  0  0  0  0  0  0
  149.7730  135.1534  155.0867 C   0  0  0  0  0  0  0  0  0  0  0  0
  149.9145  133.8378  154.3023 C   0  0  0  0  0  0  0  0  0  0  0  0
  144.9797  131.9657  152.6854 H   0  0  0  0  0  0  0  0  0  0  0  0
  146.1634  130.6555  152.7902 H   0  0  0  0  0  0  0  0  0  0  0  0
  145.2088  130.8515  151.3343 H   0  0  0  0  0  0  0  0  0  0  0  0
  145.4644  133.8460  150.8937 H   0  0  0  0  0  0  0  0  0  0  0  0
  145.7206  132.5515  149.7176 H   0  0  0  0  0  0  0  0  0  0  0  0
  146.9911  133.7321  150.0086 H   0  0  0  0  0  0  0  0  0  0  0  0
  148.1892  133.7492  152.0739 H   0  0  0  0  0  0  0  0  0  0  0  0
  146.7979  133.7270  153.1064 H   0  0  0  0  0  0  0  0  0  0  0  0
  147.7624  131.3200  153.8797 H   0  0  0  0  0  0  0  0  0  0  0  0
  149.1618  131.7966  152.9657 H   0  0  0  0  0  0  0  0  0  0  0  0
  148.3415  131.5655  156.1915 H   0  0  0  0  0  0  0  0  0  0  0  0
  149.8349  131.2104  155.3592 H   0  0  0  0  0  0  0  0  0  0  0  0
  149.9352  131.9967  157.8015 H   0  0  0  0  0  0  0  0  0  0  0  0
  151.1124  132.6225  156.6975 H   0  0  0  0  0  0  0  0  0  0  0  0
  148.5688  134.1918  157.3390 H   0  0  0  0  0  0  0  0  0  0  0  0
  149.9909  134.2542  158.3580 H   0  0  0  0  0  0  0  0  0  0  0  0
  150.0759  137.6644  159.9879 H   0  0  0  0  0  0  0  0  0  0  0  0
  151.9941  139.3412  154.0713 H   0  0  0  0  0  0  0  0  0  0  0  0
  152.7792  140.9502  157.0165 H   0  0  0  0  0  0  0  0  0  0  0  0
  152.0946  141.4007  155.4778 H   0  0  0  0  0  0  0  0  0  0  0  0
  150.4063  141.0917  157.9818 H   0  0  0  0  0  0  0  0  0  0  0  0
  149.5115  142.8026  156.1439 H   0  0  0  0  0  0  0  0  0  0  0  0
  151.3840  143.7571  156.9140 H   0  0  0  0  0  0  0  0  0  0  0  0
  152.3478  142.2060  159.3536 H   0  0  0  0  0  0  0  0  0  0  0  0
  153.3395  142.9800  158.1170 H   0  0  0  0  0  0  0  0  0  0  0  0
  152.5093  144.2042  160.4944 H   0  0  0  0  0  0  0  0  0  0  0  0
  152.9165  145.1179  159.0422 H   0  0  0  0  0  0  0  0  0  0  0  0
  150.2799  144.9296  160.1988 H   0  0  0  0  0  0  0  0  0  0  0  0
  150.7150  145.6535  158.6480 H   0  0  0  0  0  0  0  0  0  0  0  0
  148.7345  135.4889  155.0873 H   0  0  0  0  0  0  0  0  0  0  0  0
  150.3451  135.9245  154.5681 H   0  0  0  0  0  0  0  0  0  0  0  0
  150.9006  133.3836  154.4115 H   0  0  0  0  0  0  0  0  0  0  0  0
  149.8174  134.0941  153.2470 H   0  0  0  0  0  0  0  0  0  0  0  0
  147.4403  131.6953  151.1053 H   0  0  0  0  0  0  0  0  0  0  0  0
  1  2  1  0  0  0  0
  1 30  1  0  0  0  0
  1 31  1  0  0  0  0
  1 32  1  0  0  0  0
  2  3  1  0  0  0  0
  2  4  1  0  0  0  0
  2 63  1  0  0  0  0
  3 33  1  0  0  0  0
  3 34  1  0  0  0  0
  3 35  1  0  0  0  0
  4  5  1  0  0  0  0
  4 36  1  0  0  0  0
  4 37  1  0  0  0  0
  5  6  1  0  0  0  0
  5 38  1  0  0  0  0
  5 39  1  0  0  0  0
  6 29  1  0  0  0  0
  6  7  1  0  0  0  0
  7  8  1  0  0  0  0
  7 40  1  0  0  0  0
  7 41  1  0  0  0  0
  8  9  1  0  0  0  0
  8 42  1  0  0  0  0
  8 43  1  0  0  0  0
  9 10  1  0  0  0  0
  9 44  1  0  0  0  0
  9 45  1  0  0  0  0
 10 11  1  0  0  0  0
 10 28  1  0  0  0  0
 11 16  1  0  0  0  0
 11 12  2  0  0  0  0
 12 13  1  0  0  0  0
 13 14  2  0  0  0  0
 13 46  1  0  0  0  0
 14 15  1  0  0  0  0
 15 19  1  0  0  0  0
 15 16  2  0  0  0  0
 16 17  1  0  0  0  0
 17 18  2  0  0  0  0
 18 19  1  0  0  0  0
 18 47  1  0  0  0  0
 19 20  1  0  0  0  0
 20 21  1  0  0  0  0
 20 48  1  0  0  0  0
 20 49  1  0  0  0  0
 21 22  1  0  0  0  0
 21 23  1  0  0  0  0
 21 50  1  0  0  0  0
 22 51  1  0  0  0  0
 23 27  1  0  0  0  0
 23 24  1  0  0  0  0
 23 52  1  0  0  0  0
 24 25  1  0  0  0  0
 24 53  1  0  0  0  0
 24 54  1  0  0  0  0
 25 26  1  0  0  0  0
 25 55  1  0  0  0  0
 25 56  1  0  0  0  0
 26 27  1  0  0  0  0
 26 57  1  0  0  0  0
 26 58  1  0  0  0  0
 28 29  1  0  0  0  0
 28 59  1  0  0  0  0
 28 60  1  0  0  0  0
 29 61  1  0  0  0  0
 29 62  1  0  0  0  0
M  CHG  1   2   1
M  END
> <s_m_source_file>
AV-unprocessed.smi

> <i_m_source_file_index>
155

> <i_lp_mmshare_version>
43012

> <i_f3d_flags>
0

> <s_epik_input>
W0NIM11OKFtDSDNdKVtDSDJdW0NIMl1OMVtDSDJdW0NIMl1bQ0gyXU4oW0NIMl1bQ0gyXTEpYyhuW2NIXW4yKWMoYzIzKW5bY0hdbjNbQ0gyXVtDQEhdKFtPSF0pW0NAQEhdNFtDSDJdW0NIMl1bQ0gyXU80

> <s_epik_cmdline>
J2VwaWtfcHl0aG9uJywgJy1waCcsICc3LjAnLCAnLXRuJywgJzgnLCAnLW1hJywgJzIwMCcsICctbWV0YWxfYmluZGluZycsICctaW1hZScsICc8aW5maWxlLm1hZT4nLCAnLW9tYWUnLCAnPG91dGZpbGUubWFlPic=

> <r_lp_tautomer_probability>
1

> <r_epik_Ionization_Penalty>
0.0599493

> <r_epik_Ionization_Penalty_Charging>
0.00816363

> <r_epik_Ionization_Penalty_Neutral>
0.0517857

> <r_epik_State_Penalty>
0.460607

> <r_epik_Charging_Adjusted_Penalty>
0.468771

> <i_epik_Tot_Q>
1

> <i_epik_Tot_abs_Q>
1

> <r_epik_Metal_State_Penalty>
0.45965

> <b_epik_Metal_Only>
0

> <s_lp_Force_Field>
OPLS_2005

> <r_lp_Energy>
61.9788

> <b_lp_Chiralities_Consistent>
1

> <s_lp_Variant>
AV-unprocessed.smi:155-9

> <Gold.Version>
5.8.1

> <Gold.Id.Protein>
6NUR|6NUR_protein|mol2

> <Gold.PLP.Fitness>
52.3229

> <Gold.PLP.PLP>
-45.5081

> <Gold.PLP.part.hbond>
-2.9304

> <Gold.PLP.part.metal>
0.0000

> <Gold.PLP.part.buried>
-7.4599

> <Gold.PLP.part.nonpolar>
-36.6138

> <Gold.PLP.part.repulsive>
0.3750

> <Gold.PLP.ligand.clash>
0.0000

> <Gold.PLP.ligand.torsion>
0.7293

> <Gold.PLP.Chemscore.Hbond>
2.6334

> <Gold.PLP.Chemscore.CHOScore>
0.0000

> <Gold.PLP.Chemscore.Metal>
0.0000

> <Gold.Chemscore.Hbonds>
donor molecule, donor type, donor heavy atom, donor atom, acceptor molecule, acceptor atom, score
      L1  H     2    63       P1 10747  1.00
      L1  H    22    51       P1  8028  0.89
      P1  H  6896  6908       L1    12  0.68

> <Gold.PLP.Chemscore.Internal.Correction>
0.3733

> <Gold.Rescore>
     Score         DG    S(hbond)    S(metal)    S(lipo)     H(rot)  DE(clash)    DE(int)     intcor
     15.37     -18.78       2.29        0.00     113.62       2.99       1.29       2.11       ----

> <Gold.Chemscore.Fitness>
15.3741

> <Gold.Chemscore.DG>
-18.7783

> <Gold.Chemscore.ZeroCoef>
-5.4800

> <Gold.Chemscore.Hbond>
2.2902

> <Gold.Chemscore.Metal>
0.0000

> <Gold.Chemscore.Lipo>
113.6231

> <Gold.Chemscore.Internal_Hbond>
0.0000

> <Gold.Chemscore.DEClash>
1.2910

> <Gold.Chemscore.DEInternal>
2.1132

> <Gold.Chemscore.Rot>
2.9862

> <Gold.Chemscore.Internal.Correction>
   9.000000E+99

> <Gold.Chemscore.Hbonds>
donor molecule, donor type, donor heavy atom, donor atom, acceptor molecule, acceptor atom, score
      L1  H     2    63       P1 10747  0.99
      L1  H    22    51       P1  8028  0.86
      P1  H  6896  6908       L1    12  0.36

> <Gold.Chemscore.Hbond.Weighted>
-7.6492

> <Gold.Chemscore.Metal.Weighted>
-0.0000

> <Gold.Chemscore.Lipo.Weighted>
-13.2939

> <Gold.Chemscore.Internal_Hbond.Weighted>
0.0000

> <Gold.Chemscore.DEClash.Weighted>
1.2910

> <Gold.Chemscore.DEInternal.Weighted>
2.1132

> <Gold.Chemscore.Rot.Weighted>
7.6448

> <Gold.Chemscore.Internal.Correction.Weighted>
   9.000000E+99

> <Gold.Protein.RotatedTorsions>
[ 6907 6896 6895 6894 ] final -163.09 input  -60.11 | X-H torsion
[ 7974 7965 7964 7962 ] final   37.77 input  175.53 | X-H torsion
[ 8008 7997 7996 7995 ] final -168.98 input   59.86 | X-H torsion
[ 10167 10162 10161 10158 ] final  -68.27 input  -65.29 | X-H torsion
[ 10718 10713 10712 10709 ] final -149.03 input   66.30 | X-H torsion
[ 10763 10752 10751 10750 ] final -176.40 input  -60.55 | X-H torsion
[ 11005 11000 10999 10996 ] final  143.20 input  -57.11 | X-H torsion

> <Gold.Protein.ActiveResidues>
 VAL166  LYS551  ARG553  GLY616  TRP617  ASP618  TYR619  PRO620  LYS621  CYS622 
 ASP623  PHE694  ASN695  SER759  ASP760  ASP761  ALA762  ILE779  LEU786  VAL792 
 PHE793  MET794  SER795  GLU796  ALA797  LYS798  CYS799  TRP800  GLU811  SER814 

> <Gold.Protein.RotatedAtoms>
  151.3905  133.3790  159.2720 H   0  0  0  0  0  0  0  0  0  0  0  0  # atno 6907 bound_to 6896
  150.9509  134.8910  159.7681 H   0  0  0  0  0  0  0  0  0  0  0  0  # atno 6908 bound_to 6896
  152.5111  134.3860  159.9420 H   0  0  0  0  0  0  0  0  0  0  0  0  # atno 6909 bound_to 6896
  146.1113  139.5854  142.9350 H   0  0  0  0  0  0  0  0  0  0  0  0  # atno 7974 bound_to 7965
  155.8988  140.1037  157.1365 H   0  0  0  0  0  0  0  0  0  0  0  0  # atno 8008 bound_to 7997
  154.4023  140.1296  156.4473 H   0  0  0  0  0  0  0  0  0  0  0  0  # atno 8009 bound_to 7997
  155.7447  140.3466  155.5124 H   0  0  0  0  0  0  0  0  0  0  0  0  # atno 8010 bound_to 7997
  140.5520  143.2312  151.6893 H   0  0  0  0  0  0  0  0  0  0  0  0  # atno 10167 bound_to 10162
  156.4278  130.8061  151.2286 H   0  0  0  0  0  0  0  0  0  0  0  0  # atno 10718 bound_to 10713
  154.5728  135.2829  155.0810 H   0  0  0  0  0  0  0  0  0  0  0  0  # atno 10763 bound_to 10752
  154.2176  135.6397  153.5138 H   0  0  0  0  0  0  0  0  0  0  0  0  # atno 10764 bound_to 10752
  153.0063  135.5507  154.6357 H   0  0  0  0  0  0  0  0  0  0  0  0  # atno 10765 bound_to 10752
  140.0536  134.9243  157.1060 H   0  0  0  0  0  0  0  0  0  0  0  0  # atno 11005 bound_to 11000
  145.5658  141.0399  143.2201 LP  0  0  0  0  0  0  0  0  0  0  0  0  # atno 17320 bound_to 7965
  144.7514  139.7185  143.7272 LP  0  0  0  0  0  0  0  0  0  0  0  0  # atno 17321 bound_to 7965
  139.5031  144.3802  152.0384 LP  0  0  0  0  0  0  0  0  0  0  0  0  # atno 17342 bound_to 10162
  140.2920  144.3743  150.6086 LP  0  0  0  0  0  0  0  0  0  0  0  0  # atno 17343 bound_to 10162
  157.7508  131.0208  150.3722 LP  0  0  0  0  0  0  0  0  0  0  0  0  # atno 17370 bound_to 10713
  156.4053  130.3923  149.6930 LP  0  0  0  0  0  0  0  0  0  0  0  0  # atno 17371 bound_to 10713
  140.3879  134.2216  155.7167 LP  0  0  0  0  0  0  0  0  0  0  0  0  # atno 17394 bound_to 11000
  141.1941  133.8135  157.0769 LP  0  0  0  0  0  0  0  0  0  0  0  0  # atno 17395 bound_to 11000

$$$$
