AV-unprocessed.smi:632|AV-procd|sdf|3129|dock3
  -GOLD-   22720 0 53D 1   1.00000     0.00000
 Structure written by MMmdl.
 41 42  0  0  0  0  0  0  0  0  2 V2000
  148.6151  122.7715  151.4797 C   0  0  0  0  0  0  0  0  0  0  0  0
  148.8086  123.9712  150.5320 C   0  0  0  0  0  0  0  0  0  0  0  0
  150.2888  123.9822  150.0903 C   0  0  0  0  0  0  0  0  0  0  0  0
  147.9499  123.8046  149.2628 C   0  0  0  0  0  0  0  0  0  0  0  0
  148.4338  125.2512  151.2425 C   0  0  0  0  0  0  0  0  0  0  0  0
  147.9636  125.2574  152.4958 N   0  0  0  0  0  0  0  0  0  0  0  0
  147.6857  126.5352  152.9573 N   0  0  0  0  0  0  0  0  0  0  0  0
  147.9602  127.4898  152.0588 C   0  0  0  0  0  0  0  0  0  0  0  0
  147.7629  128.7955  152.3055 N   0  5  0  0  0  0  0  0  0  0  0  0
  146.5418  129.3433  152.1085 C   0  0  0  0  0  0  0  0  0  0  0  0
  145.4590  128.8454  152.4259 O   0  0  0  0  0  0  0  0  0  0  0  0
  146.5791  130.5430  151.5101 N   0  0  0  0  0  0  0  0  0  0  0  0
  145.4276  131.3785  151.1778 C   0  0  2  0  0  0  0  0  0  0  0  0
  145.4626  131.7787  149.6896 C   0  0  0  0  0  0  0  0  0  0  0  0
  144.2955  132.7147  149.3282 C   0  0  0  0  0  0  0  0  0  0  0  0
  144.2329  133.9542  150.2413 C   0  0  2  0  0  0  0  0  0  0  0  0
  145.3124  134.8228  149.9585 O   0  0  0  0  0  0  0  0  0  0  0  0
  144.2470  133.5630  151.7314 C   0  0  0  0  0  0  0  0  0  0  0  0
  145.4189  132.6276  152.0772 C   0  0  0  0  0  0  0  0  0  0  0  0
  148.5747  126.8599  150.5333 S   0  0  0  0  0  0  0  0  0  0  0  0
  148.8925  121.8340  150.9970 H   0  0  0  0  0  0  0  0  0  0  0  0
  147.5764  122.6773  151.7983 H   0  0  0  0  0  0  0  0  0  0  0  0
  149.2260  122.8742  152.3776 H   0  0  0  0  0  0  0  0  0  0  0  0
  150.9633  124.0765  150.9425 H   0  0  0  0  0  0  0  0  0  0  0  0
  150.4982  124.8052  149.4057 H   0  0  0  0  0  0  0  0  0  0  0  0
  150.5543  123.0596  149.5730 H   0  0  0  0  0  0  0  0  0  0  0  0
  148.2128  122.8961  148.7201 H   0  0  0  0  0  0  0  0  0  0  0  0
  148.0823  124.6462  148.5817 H   0  0  0  0  0  0  0  0  0  0  0  0
  146.8880  123.7414  149.5035 H   0  0  0  0  0  0  0  0  0  0  0  0
  147.4885  130.9076  151.2671 H   0  0  0  0  0  0  0  0  0  0  0  0
  144.5094  130.8207  151.3716 H   0  0  0  0  0  0  0  0  0  0  0  0
  146.4092  132.2710  149.4619 H   0  0  0  0  0  0  0  0  0  0  0  0
  145.4220  130.8882  149.0613 H   0  0  0  0  0  0  0  0  0  0  0  0
  144.3672  133.0169  148.2829 H   0  0  0  0  0  0  0  0  0  0  0  0
  143.3607  132.1602  149.4195 H   0  0  0  0  0  0  0  0  0  0  0  0
  143.3177  134.5074  150.0277 H   0  0  0  0  0  0  0  0  0  0  0  0
  145.5115  134.7640  149.0366 H   0  0  0  0  0  0  0  0  0  0  0  0
  144.2819  134.4555  152.3572 H   0  0  0  0  0  0  0  0  0  0  0  0
  143.3108  133.0588  151.9743 H   0  0  0  0  0  0  0  0  0  0  0  0
  145.3521  132.3316  153.1247 H   0  0  0  0  0  0  0  0  0  0  0  0
  146.3607  133.1679  151.9709 H   0  0  0  0  0  0  0  0  0  0  0  0
  1  2  1  0  0  0  0
  1 21  1  0  0  0  0
  1 22  1  0  0  0  0
  1 23  1  0  0  0  0
  2  3  1  0  0  0  0
  2  4  1  0  0  0  0
  2  5  1  0  0  0  0
  3 24  1  0  0  0  0
  3 25  1  0  0  0  0
  3 26  1  0  0  0  0
  4 27  1  0  0  0  0
  4 28  1  0  0  0  0
  4 29  1  0  0  0  0
  5 20  1  0  0  0  0
  5  6  2  0  0  0  0
  6  7  1  0  0  0  0
  7  8  2  0  0  0  0
  8  9  1  0  0  0  0
  8 20  1  0  0  0  0
  9 10  1  0  0  0  0
 10 11  2  0  0  0  0
 10 12  1  0  0  0  0
 12 13  1  0  0  0  0
 12 30  1  0  0  0  0
 13 19  1  0  0  0  0
 13 14  1  0  0  0  0
 13 31  1  0  0  0  0
 14 15  1  0  0  0  0
 14 32  1  0  0  0  0
 14 33  1  0  0  0  0
 15 16  1  0  0  0  0
 15 34  1  0  0  0  0
 15 35  1  0  0  0  0
 16 17  1  0  0  0  0
 16 18  1  0  0  0  0
 16 36  1  0  0  0  0
 17 37  1  0  0  0  0
 18 19  1  0  0  0  0
 18 38  1  0  0  0  0
 18 39  1  0  0  0  0
 19 40  1  0  0  0  0
 19 41  1  0  0  0  0
M  CHG  1   9  -1
M  END
> <s_m_source_file>
AV-unprocessed.smi

> <i_m_source_file_index>
632

> <i_lp_mmshare_version>
43012

> <i_f3d_flags>
0

> <s_epik_input>
W0NIM11DKFtDSDNdKShbQ0gzXSljMW5uYyhzMSlbTkhdQyg9TylbTkhdW0NAQEhdMltDSDJdW0NIMl1bQ0BASF0oW09IXSlbQ0gyXVtDSDJdMg==

> <s_epik_cmdline>
J2VwaWtfcHl0aG9uJywgJy1waCcsICc3LjAnLCAnLXRuJywgJzgnLCAnLW1hJywgJzIwMCcsICctbWV0YWxfYmluZGluZycsICctaW1hZScsICc8aW5maWxlLm1hZT4nLCAnLW9tYWUnLCAnPG91dGZpbGUubWFlPic=

> <r_lp_tautomer_probability>
1

> <r_epik_Ionization_Penalty>
4.62389

> <r_epik_Ionization_Penalty_Charging>
4.45204

> <r_epik_Ionization_Penalty_Neutral>
0.171842

> <r_epik_State_Penalty>
4.45172

> <r_epik_Charging_Adjusted_Penalty>
8.90376

> <i_epik_Tot_Q>
-1

> <i_epik_Tot_abs_Q>
1

> <r_epik_Metal_State_Penalty>
0.795834

> <b_epik_Metal_Only>
1

> <s_lp_Force_Field>
OPLS_2005

> <r_lp_Energy>
3.40986

> <b_lp_Chiralities_Consistent>
1

> <s_lp_Variant>
AV-unprocessed.smi:632-4

> <Gold.Version>
5.8.1

> <Gold.Id.Protein>
6NUR|6NUR_protein|mol2

> <Gold.PLP.Fitness>
43.7905

> <Gold.PLP.PLP>
-40.1185

> <Gold.PLP.part.hbond>
-3.3921

> <Gold.PLP.part.metal>
0.0000

> <Gold.PLP.part.buried>
-8.4743

> <Gold.PLP.part.nonpolar>
-29.5341

> <Gold.PLP.part.repulsive>
0.9094

> <Gold.PLP.ligand.clash>
0.0000

> <Gold.PLP.ligand.torsion>
1.1672

> <Gold.PLP.Chemscore.Hbond>
1.9920

> <Gold.PLP.Chemscore.CHOScore>
0.0000

> <Gold.PLP.Chemscore.Metal>
0.0000

> <Gold.Chemscore.Hbonds>
donor molecule, donor type, donor heavy atom, donor atom, acceptor molecule, acceptor atom, score
      L1  H    12    30       P1 10747  1.00
      L1  H    17    37       P1  7921  1.00

> <Gold.PLP.Chemscore.Internal.Correction>
0.0304

> <Gold.Rescore>
     Score         DG    S(hbond)    S(metal)    S(lipo)     H(rot)  DE(clash)    DE(int)     intcor
     14.84     -16.65       1.93        0.00      77.05       1.67       0.89       0.92       ----

> <Gold.Chemscore.Fitness>
14.8363

> <Gold.Chemscore.DG>
-16.6458

> <Gold.Chemscore.ZeroCoef>
-5.4800

> <Gold.Chemscore.Hbond>
1.9270

> <Gold.Chemscore.Metal>
0.0000

> <Gold.Chemscore.Lipo>
77.0454

> <Gold.Chemscore.Internal_Hbond>
0.0000

> <Gold.Chemscore.DEClash>
0.8911

> <Gold.Chemscore.DEInternal>
0.9184

> <Gold.Chemscore.Rot>
1.6737

> <Gold.Chemscore.Internal.Correction>
   9.000000E+99

> <Gold.Chemscore.Hbonds>
donor molecule, donor type, donor heavy atom, donor atom, acceptor molecule, acceptor atom, score
      L1  H    12    30       P1 10747  0.94
      L1  H    17    37       P1  7921  0.93

> <Gold.Chemscore.Hbond.Weighted>
-6.4363

> <Gold.Chemscore.Metal.Weighted>
-0.0000

> <Gold.Chemscore.Lipo.Weighted>
-9.0143

> <Gold.Chemscore.Internal_Hbond.Weighted>
0.0000

> <Gold.Chemscore.DEClash.Weighted>
0.8911

> <Gold.Chemscore.DEInternal.Weighted>
0.9184

> <Gold.Chemscore.Rot.Weighted>
4.2848

> <Gold.Chemscore.Internal.Correction.Weighted>
   9.000000E+99

> <Gold.Protein.RotatedTorsions>
[ 6907 6896 6895 6894 ] final -147.57 input  -60.11 | X-H torsion
[ 7974 7965 7964 7962 ] final  -58.48 input  175.53 | X-H torsion
[ 8008 7997 7996 7995 ] final -144.17 input   59.86 | X-H torsion
[ 10167 10162 10161 10158 ] final -151.84 input  -65.29 | X-H torsion
[ 10718 10713 10712 10709 ] final  -76.84 input   66.30 | X-H torsion
[ 10763 10752 10751 10750 ] final  -62.36 input  -60.55 | X-H torsion
[ 11005 11000 10999 10996 ] final  -53.11 input  -57.11 | X-H torsion

> <Gold.Protein.ActiveResidues>
 VAL166  LYS551  ARG553  GLY616  TRP617  ASP618  TYR619  PRO620  LYS621  CYS622 
 ASP623  PHE694  ASN695  SER759  ASP760  ASP761  ALA762  ILE779  LEU786  VAL792 
 PHE793  MET794  SER795  GLU796  ALA797  LYS798  CYS799  TRP800  GLU811  SER814 

> <Gold.Protein.RotatedAtoms>
  151.1576  133.4866  159.2594 H   0  0  0  0  0  0  0  0  0  0  0  0  # atno 6907 bound_to 6896
  151.1488  135.0216  159.8669 H   0  0  0  0  0  0  0  0  0  0  0  0  # atno 6908 bound_to 6896
  152.5463  134.1462  159.8552 H   0  0  0  0  0  0  0  0  0  0  0  0  # atno 6909 bound_to 6896
  145.8388  140.8431  143.0045 H   0  0  0  0  0  0  0  0  0  0  0  0  # atno 7974 bound_to 7965
  155.5226  140.0593  157.2904 H   0  0  0  0  0  0  0  0  0  0  0  0  # atno 8008 bound_to 7997
  154.4512  140.1950  156.0459 H   0  0  0  0  0  0  0  0  0  0  0  0  # atno 8009 bound_to 7997
  156.0708  140.3260  155.7578 H   0  0  0  0  0  0  0  0  0  0  0  0  # atno 8010 bound_to 7997
  139.7232  143.8923  152.2510 H   0  0  0  0  0  0  0  0  0  0  0  0  # atno 10167 bound_to 10162
  156.0163  130.4476  150.3254 H   0  0  0  0  0  0  0  0  0  0  0  0  # atno 10718 bound_to 10713
  154.2988  135.6239  153.5416 H   0  0  0  0  0  0  0  0  0  0  0  0  # atno 10763 bound_to 10752
  152.9843  135.5673  154.5308 H   0  0  0  0  0  0  0  0  0  0  0  0  # atno 10764 bound_to 10752
  154.4934  135.2868  155.1455 H   0  0  0  0  0  0  0  0  0  0  0  0  # atno 10765 bound_to 10752
  141.0959  133.6625  156.4123 H   0  0  0  0  0  0  0  0  0  0  0  0  # atno 11005 bound_to 11000
  144.6735  140.0781  143.7470 LP  0  0  0  0  0  0  0  0  0  0  0  0  # atno 17320 bound_to 7965
  145.9488  139.2719  143.1224 LP  0  0  0  0  0  0  0  0  0  0  0  0  # atno 17321 bound_to 7965
  139.8825  144.7009  150.8861 LP  0  0  0  0  0  0  0  0  0  0  0  0  # atno 17342 bound_to 10162
  140.7758  143.3649  151.1757 LP  0  0  0  0  0  0  0  0  0  0  0  0  # atno 17343 bound_to 10162
  157.1353  131.0282  151.2951 LP  0  0  0  0  0  0  0  0  0  0  0  0  # atno 17370 bound_to 10713
  157.4517  130.7602  149.7157 LP  0  0  0  0  0  0  0  0  0  0  0  0  # atno 17371 bound_to 10713
  140.5141  134.6367  157.5295 LP  0  0  0  0  0  0  0  0  0  0  0  0  # atno 17394 bound_to 11000
  139.9796  134.7159  155.9885 LP  0  0  0  0  0  0  0  0  0  0  0  0  # atno 17395 bound_to 11000

$$$$
