AV-unprocessed.smi:21|AV-procd|sdf|135|dock9
  -GOLD-   2262015333D 1   1.00000     0.00000
 Structure written by MMmdl.
 62 65  0  0  0  0  0  0  0  0  2 V2000
  148.5459  132.3318  154.2526 C   0  0  0  0  0  0  0  0  0  0  0  0
  147.3212  131.6197  154.1711 O   0  0  0  0  0  0  0  0  0  0  0  0
  146.2597  132.3757  153.6042 C   0  0  1  0  0  0  0  0  0  0  0  0
  145.9519  133.5565  154.5261 C   0  0  0  0  0  0  0  0  0  0  0  0
  146.7483  134.7140  153.9247 C   0  0  2  0  0  0  0  0  0  0  0  0
  146.3068  136.1221  154.3895 C   0  0  0  0  0  0  0  0  0  0  0  0
  147.0857  136.6152  155.5234 N   0  0  0  0  0  0  0  0  0  0  0  0
  147.1444  135.7864  156.7273 C   0  0  0  0  0  0  0  0  0  0  0  0
  147.9460  137.6713  155.4001 C   0  0  0  0  0  0  0  0  0  0  0  0
  147.9519  138.3515  154.2211 N   0  0  0  0  0  0  0  0  0  0  0  0
  148.7607  139.3955  154.0279 C   0  0  0  0  0  0  0  0  0  0  0  0
  149.6422  139.9301  154.8704 N   0  0  0  0  0  0  0  0  0  0  0  0
  149.6578  139.2604  156.0566 C   0  0  0  0  0  0  0  0  0  0  0  0
  148.8551  138.1330  156.4065 C   0  0  0  0  0  0  0  0  0  0  0  0
  149.1693  137.7406  157.7059 N   0  0  0  0  0  0  0  0  0  0  0  0
  150.0929  138.5753  158.0933 C   0  0  0  0  0  0  0  0  0  0  0  0
  150.4494  139.5194  157.1620 N   0  0  0  0  0  0  0  0  0  0  0  0
  151.4473  140.5620  157.3296 C   0  0  0  0  0  0  0  0  0  0  0  0
  151.6041  141.0225  158.8003 C   0  0  1  0  0  0  0  0  0  0  0  0
  152.2979  139.9593  159.6868 C   0  0  0  0  0  0  0  0  0  0  0  0
  153.3662  139.3353  159.0050 O   0  0  0  0  0  0  0  0  0  0  0  0
  152.2937  142.4073  158.8976 C   0  0  1  0  0  0  0  0  0  0  0  0
  151.7216  143.4718  157.9778 C   0  0  0  0  0  0  0  0  0  0  0  0
  152.2426  144.7557  158.6128 C   0  0  0  0  0  0  0  0  0  0  0  0
  152.2730  144.5014  160.0121 O   0  0  0  0  0  0  0  0  0  0  0  0
  152.1464  143.1033  160.2557 C   0  0  0  0  0  0  0  0  0  0  0  0
  146.6835  134.4874  152.4599 N   0  3  2  0  0  0  0  0  0  0  0  0
  145.5517  135.1392  151.7561 C   0  0  0  0  0  0  0  0  0  0  0  0
  146.6970  133.0174  152.2710 C   0  0  0  0  0  0  0  0  0  0  0  0
  145.3675  131.7577  153.4873 H   0  0  0  0  0  0  0  0  0  0  0  0
  147.7947  134.5653  154.1950 H   0  0  0  0  0  0  0  0  0  0  0  0
  149.3059  131.6977  154.7091 H   0  0  0  0  0  0  0  0  0  0  0  0
  148.4508  133.2316  154.8608 H   0  0  0  0  0  0  0  0  0  0  0  0
  148.9004  132.6168  153.2614 H   0  0  0  0  0  0  0  0  0  0  0  0
  144.8853  133.7819  154.4884 H   0  0  0  0  0  0  0  0  0  0  0  0
  146.2102  133.3581  155.5670 H   0  0  0  0  0  0  0  0  0  0  0  0
  146.3494  136.8417  153.5738 H   0  0  0  0  0  0  0  0  0  0  0  0
  145.2561  136.0986  154.6801 H   0  0  0  0  0  0  0  0  0  0  0  0
  146.8954  136.3741  157.6116 H   0  0  0  0  0  0  0  0  0  0  0  0
  148.1415  135.3648  156.8596 H   0  0  0  0  0  0  0  0  0  0  0  0
  146.4391  134.9567  156.6747 H   0  0  0  0  0  0  0  0  0  0  0  0
  148.6911  139.8696  153.0598 H   0  0  0  0  0  0  0  0  0  0  0  0
  150.5460  138.5235  159.0730 H   0  0  0  0  0  0  0  0  0  0  0  0
  152.4008  140.2028  156.9404 H   0  0  0  0  0  0  0  0  0  0  0  0
  151.1541  141.3982  156.6949 H   0  0  0  0  0  0  0  0  0  0  0  0
  150.5959  141.1408  159.2002 H   0  0  0  0  0  0  0  0  0  0  0  0
  152.6847  140.4083  160.6014 H   0  0  0  0  0  0  0  0  0  0  0  0
  151.5917  139.1931  160.0068 H   0  0  0  0  0  0  0  0  0  0  0  0
  153.1069  138.4545  158.7809 H   0  0  0  0  0  0  0  0  0  0  0  0
  153.3572  142.3027  158.6756 H   0  0  0  0  0  0  0  0  0  0  0  0
  152.0404  143.3636  156.9408 H   0  0  0  0  0  0  0  0  0  0  0  0
  150.6310  143.4567  158.0053 H   0  0  0  0  0  0  0  0  0  0  0  0
  153.2589  144.9618  158.2743 H   0  0  0  0  0  0  0  0  0  0  0  0
  151.6236  145.6214  158.3761 H   0  0  0  0  0  0  0  0  0  0  0  0
  151.1577  142.9220  160.6797 H   0  0  0  0  0  0  0  0  0  0  0  0
  152.8891  142.7644  160.9782 H   0  0  0  0  0  0  0  0  0  0  0  0
  144.5930  134.8278  152.1726 H   0  0  0  0  0  0  0  0  0  0  0  0
  145.5622  134.8775  150.6975 H   0  0  0  0  0  0  0  0  0  0  0  0
  145.6195  136.2254  151.8129 H   0  0  0  0  0  0  0  0  0  0  0  0
  147.7156  132.7222  152.0169 H   0  0  0  0  0  0  0  0  0  0  0  0
  146.0597  132.6991  151.4446 H   0  0  0  0  0  0  0  0  0  0  0  0
  147.5266  134.8653  152.0510 H   0  0  0  0  0  0  0  0  0  0  0  0
  1  2  1  0  0  0  0
  1 32  1  0  0  0  0
  1 33  1  0  0  0  0
  1 34  1  0  0  0  0
  2  3  1  0  0  0  0
  3 30  1  0  0  0  0
  3 29  1  0  0  0  0
  3  4  1  0  0  0  0
  4  5  1  0  0  0  0
  4 35  1  0  0  0  0
  4 36  1  0  0  0  0
  5 31  1  0  0  0  0
  5  6  1  0  0  0  0
  5 27  1  0  0  0  0
  6  7  1  0  0  0  0
  6 37  1  0  0  0  0
  6 38  1  0  0  0  0
  7  8  1  0  0  0  0
  7  9  1  0  0  0  0
  8 39  1  0  0  0  0
  8 40  1  0  0  0  0
  8 41  1  0  0  0  0
  9 14  1  0  0  0  0
  9 10  2  0  0  0  0
 10 11  1  0  0  0  0
 11 12  2  0  0  0  0
 11 42  1  0  0  0  0
 12 13  1  0  0  0  0
 13 17  1  0  0  0  0
 13 14  2  0  0  0  0
 14 15  1  0  0  0  0
 15 16  2  0  0  0  0
 16 17  1  0  0  0  0
 16 43  1  0  0  0  0
 17 18  1  0  0  0  0
 18 19  1  0  0  0  0
 18 44  1  0  0  0  0
 18 45  1  0  0  0  0
 19 20  1  0  0  0  0
 19 22  1  0  0  0  0
 19 46  1  0  0  0  0
 20 21  1  0  0  0  0
 20 47  1  0  0  0  0
 20 48  1  0  0  0  0
 21 49  1  0  0  0  0
 22 26  1  0  0  0  0
 22 23  1  0  0  0  0
 22 50  1  0  0  0  0
 23 24  1  0  0  0  0
 23 51  1  0  0  0  0
 23 52  1  0  0  0  0
 24 25  1  0  0  0  0
 24 53  1  0  0  0  0
 24 54  1  0  0  0  0
 25 26  1  0  0  0  0
 26 55  1  0  0  0  0
 26 56  1  0  0  0  0
 27 28  1  0  0  0  0
 27 29  1  0  0  0  0
 27 62  1  0  0  0  0
 28 57  1  0  0  0  0
 28 58  1  0  0  0  0
 28 59  1  0  0  0  0
 29 60  1  0  0  0  0
 29 61  1  0  0  0  0
M  CHG  1  27   1
M  END
> <s_m_source_file>
AV-unprocessed.smi

> <i_m_source_file_index>
21

> <i_lp_mmshare_version>
43012

> <i_f3d_flags>
0

> <s_epik_input>
W0NIM11PW0NASF0xW0NIMl1bQ0BIXShOKFtDSDNdKVtDSDJdMSlbQ0gyXU4oW0NIM10pYyhuW2NIXW4yKWMoYzIzKW5bY0hdbjNbQ0gyXVtDQEhdKFtDSDJdW09IXSlbQ0BASF00W0NIMl1bQ0gyXU9bQ0gyXTQ=

> <s_epik_cmdline>
J2VwaWtfcHl0aG9uJywgJy1waCcsICc3LjAnLCAnLXRuJywgJzgnLCAnLW1hJywgJzIwMCcsICctbWV0YWxfYmluZGluZycsICctaW1hZScsICc8aW5maWxlLm1hZT4nLCAnLW9tYWUnLCAnPG91dGZpbGUubWFlPic=

> <r_lp_tautomer_probability>
1

> <r_epik_Ionization_Penalty>
0.0157465

> <r_epik_Ionization_Penalty_Charging>
0.015354

> <r_epik_Ionization_Penalty_Neutral>
0.000392529

> <r_epik_State_Penalty>
0.0120612

> <r_epik_Charging_Adjusted_Penalty>
0.0274152

> <i_epik_Tot_Q>
1

> <i_epik_Tot_abs_Q>
1

> <r_epik_Metal_State_Penalty>
0.0121253

> <b_epik_Metal_Only>
0

> <s_lp_Force_Field>
OPLS_2005

> <r_lp_Energy>
62.2742

> <b_lp_Chiralities_Consistent>
1

> <s_lp_Variant>
AV-unprocessed.smi:21-15

> <Gold.Version>
5.8.1

> <Gold.Id.Protein>
6NUR|6NUR_protein|mol2

> <Gold.PLP.Fitness>
47.7878

> <Gold.PLP.PLP>
-38.4257

> <Gold.PLP.part.hbond>
-2.0000

> <Gold.PLP.part.metal>
0.0000

> <Gold.PLP.part.buried>
-3.2029

> <Gold.PLP.part.nonpolar>
-33.8548

> <Gold.PLP.part.repulsive>
0.4094

> <Gold.PLP.ligand.clash>
0.0000

> <Gold.PLP.ligand.torsion>
1.4170

> <Gold.PLP.Chemscore.Hbond>
3.0000

> <Gold.PLP.Chemscore.CHOScore>
0.9224

> <Gold.PLP.Chemscore.Metal>
0.0000

> <Gold.Chemscore.Hbonds>
donor molecule, donor type, donor heavy atom, donor atom, acceptor molecule, acceptor atom, score
      L1  H    27    62       P1  7948  2.00
      P1  H  7997  8010       L1    21  0.06
      L1  C    11    42       P1  7957  1.00

> <Gold.PLP.Chemscore.Internal.Correction>
0.4288

> <Gold.Rescore>
     Score         DG    S(hbond)    S(metal)    S(lipo)     H(rot)  DE(clash)    DE(int)     intcor
     11.64     -14.58       1.93        0.00      89.97       3.08       0.03       2.91       ----

> <Gold.Chemscore.Fitness>
11.6448

> <Gold.Chemscore.DG>
-14.5820

> <Gold.Chemscore.ZeroCoef>
-5.4800

> <Gold.Chemscore.Hbond>
1.9312

> <Gold.Chemscore.Metal>
0.0000

> <Gold.Chemscore.Lipo>
89.9665

> <Gold.Chemscore.Internal_Hbond>
0.0000

> <Gold.Chemscore.DEClash>
0.0318

> <Gold.Chemscore.DEInternal>
2.9054

> <Gold.Chemscore.Rot>
3.0758

> <Gold.Chemscore.Internal.Correction>
   9.000000E+99

> <Gold.Chemscore.Hbonds>
donor molecule, donor type, donor heavy atom, donor atom, acceptor molecule, acceptor atom, score
      L1  H    27    62       P1  7948  0.83
      P1  H  7997  8010       L1    21  0.05

> <Gold.Chemscore.Hbond.Weighted>
-6.4501

> <Gold.Chemscore.Metal.Weighted>
-0.0000

> <Gold.Chemscore.Lipo.Weighted>
-10.5261

> <Gold.Chemscore.Internal_Hbond.Weighted>
0.0000

> <Gold.Chemscore.DEClash.Weighted>
0.0318

> <Gold.Chemscore.DEInternal.Weighted>
2.9054

> <Gold.Chemscore.Rot.Weighted>
7.8741

> <Gold.Chemscore.Internal.Correction.Weighted>
   9.000000E+99

> <Gold.Protein.RotatedTorsions>
[ 6907 6896 6895 6894 ] final -122.78 input  -60.11 | X-H torsion
[ 7974 7965 7964 7962 ] final  -31.06 input  175.53 | X-H torsion
[ 8008 7997 7996 7995 ] final   16.38 input   59.86 | X-H torsion
[ 10167 10162 10161 10158 ] final   48.25 input  -65.29 | X-H torsion
[ 10718 10713 10712 10709 ] final   17.25 input   66.30 | X-H torsion
[ 10763 10752 10751 10750 ] final  -80.49 input  -60.55 | X-H torsion
[ 11005 11000 10999 10996 ] final -141.21 input  -57.11 | X-H torsion

> <Gold.Protein.ActiveResidues>
 VAL166  LYS551  ARG553  GLY616  TRP617  ASP618  TYR619  PRO620  LYS621  CYS622 
 ASP623  PHE694  ASN695  SER759  ASP760  ASP761  ALA762  ILE779  LEU786  VAL792 
 PHE793  MET794  SER795  GLU796  ALA797  LYS798  CYS799  TRP800  GLU811  SER814 

> <Gold.Protein.RotatedAtoms>
  150.8609  133.7646  159.2992 H   0  0  0  0  0  0  0  0  0  0  0  0  # atno 6907 bound_to 6896
  151.5288  135.1066  159.9907 H   0  0  0  0  0  0  0  0  0  0  0  0  # atno 6908 bound_to 6896
  152.4625  133.7808  159.6905 H   0  0  0  0  0  0  0  0  0  0  0  0  # atno 6909 bound_to 6896
  146.1096  140.5619  142.8784 H   0  0  0  0  0  0  0  0  0  0  0  0  # atno 7974 bound_to 7965
  154.8761  140.2966  155.5452 H   0  0  0  0  0  0  0  0  0  0  0  0  # atno 8008 bound_to 7997
  156.3022  140.2451  156.3690 H   0  0  0  0  0  0  0  0  0  0  0  0  # atno 8009 bound_to 7997
  154.8766  140.0399  157.1746 H   0  0  0  0  0  0  0  0  0  0  0  0  # atno 8010 bound_to 7997
  140.2952  144.2999  150.6231 H   0  0  0  0  0  0  0  0  0  0  0  0  # atno 10167 bound_to 10162
  157.0795  130.6382  149.5823 H   0  0  0  0  0  0  0  0  0  0  0  0  # atno 10718 bound_to 10713
  154.5519  135.5659  153.6929 H   0  0  0  0  0  0  0  0  0  0  0  0  # atno 10763 bound_to 10752
  152.9992  135.6253  154.2363 H   0  0  0  0  0  0  0  0  0  0  0  0  # atno 10764 bound_to 10752
  154.2298  135.2866  155.2874 H   0  0  0  0  0  0  0  0  0  0  0  0  # atno 10765 bound_to 10752
  140.8347  134.2474  157.4840 H   0  0  0  0  0  0  0  0  0  0  0  0  # atno 11005 bound_to 11000
  144.7500  140.5166  143.6808 LP  0  0  0  0  0  0  0  0  0  0  0  0  # atno 17320 bound_to 7965
  145.5691  139.1482  143.3298 LP  0  0  0  0  0  0  0  0  0  0  0  0  # atno 17321 bound_to 7965
  140.5698  143.2182  151.7619 LP  0  0  0  0  0  0  0  0  0  0  0  0  # atno 17342 bound_to 10162
  139.4928  144.4232  151.9954 LP  0  0  0  0  0  0  0  0  0  0  0  0  # atno 17343 bound_to 10162
  155.9927  130.4986  150.7353 LP  0  0  0  0  0  0  0  0  0  0  0  0  # atno 17370 bound_to 10713
  157.4812  131.0902  151.0534 LP  0  0  0  0  0  0  0  0  0  0  0  0  # atno 17371 bound_to 10713
  139.8704  134.9604  156.4364 LP  0  0  0  0  0  0  0  0  0  0  0  0  # atno 17394 bound_to 11000
  140.8960  133.7813  155.9626 LP  0  0  0  0  0  0  0  0  0  0  0  0  # atno 17395 bound_to 11000

$$$$
