AV-unprocessed.smi:2741|AV-procd|sdf|10558|dock7
  -GOLD-   2272015 13D 1   1.00000     0.00000
 Structure written by MMmdl.
 39 40  0  0  0  0  0  0  0  0  1 V2000
  149.7206  135.7380  158.4357 O   0  0  0  0  0  0  0  0  0  0  0  0
  149.2746  136.8080  158.8522 C   0  0  0  0  0  0  0  0  0  0  0  0
  147.8997  136.8760  159.5318 C   0  0  0  0  0  0  0  0  0  0  0  0
  147.7480  135.9138  160.6363 N   0  0  0  0  0  0  0  0  0  0  0  0
  147.8244  134.5448  160.3124 C   0  0  0  0  0  0  0  0  0  0  0  0
  147.6892  133.5664  161.2281 C   0  0  0  0  0  0  0  0  0  0  0  0
  147.8277  132.0983  160.8555 C   0  0  0  0  0  0  0  0  0  0  0  0
  148.2239  131.9587  159.5902 F   0  0  0  0  0  0  0  0  0  0  0  0
  148.7320  131.5150  161.6409 F   0  0  0  0  0  0  0  0  0  0  0  0
  146.6702  131.4530  161.0055 F   0  0  0  0  0  0  0  0  0  0  0  0
  147.4906  133.9899  162.6004 C   0  0  0  0  0  0  0  0  0  0  0  0
  147.4211  135.2951  162.9281 C   0  0  0  0  0  0  0  0  0  0  0  0
  147.5451  136.3471  161.9168 C   0  0  0  0  0  0  0  0  0  0  0  0
  147.4738  137.5427  162.2027 O   0  0  0  0  0  0  0  0  0  0  0  0
  149.9462  137.9662  158.7695 N   0  0  0  0  0  0  0  0  0  0  0  0
  151.2718  138.1298  158.1824 C   0  0  0  0  0  0  0  0  0  0  0  0
  151.4812  139.5455  157.6104 C   0  0  2  0  0  0  0  0  0  0  0  0
  151.3281  140.6711  158.6455 C   0  0  0  0  0  0  0  0  0  0  0  0
  150.9004  141.8843  157.8249 C   0  0  0  0  0  0  0  0  0  0  0  0
  149.9378  141.2869  156.7998 C   0  0  1  0  0  0  0  0  0  0  0  0
  149.8079  142.1045  155.6560 O   0  0  0  0  0  0  0  0  0  0  0  0
  150.5093  139.9000  156.4671 C   0  0  0  0  0  0  0  0  0  0  0  0
  147.7492  137.8963  159.8872 H   0  0  0  0  0  0  0  0  0  0  0  0
  147.1167  136.7163  158.7877 H   0  0  0  0  0  0  0  0  0  0  0  0
  147.9963  134.3388  159.2658 H   0  0  0  0  0  0  0  0  0  0  0  0
  147.3909  133.2487  163.3797 H   0  0  0  0  0  0  0  0  0  0  0  0
  147.2695  135.5743  163.9604 H   0  0  0  0  0  0  0  0  0  0  0  0
  149.5082  138.7961  159.1423 H   0  0  0  0  0  0  0  0  0  0  0  0
  152.0394  137.9025  158.9243 H   0  0  0  0  0  0  0  0  0  0  0  0
  151.3814  137.3881  157.3906 H   0  0  0  0  0  0  0  0  0  0  0  0
  152.4919  139.6100  157.2041 H   0  0  0  0  0  0  0  0  0  0  0  0
  150.5429  140.4232  159.3610 H   0  0  0  0  0  0  0  0  0  0  0  0
  152.2452  140.8495  159.2079 H   0  0  0  0  0  0  0  0  0  0  0  0
  150.4414  142.6658  158.4313 H   0  0  0  0  0  0  0  0  0  0  0  0
  151.7713  142.3129  157.3259 H   0  0  0  0  0  0  0  0  0  0  0  0
  148.9558  141.1688  157.2605 H   0  0  0  0  0  0  0  0  0  0  0  0
  149.5505  142.9708  155.9328 H   0  0  0  0  0  0  0  0  0  0  0  0
  151.0516  139.9110  155.5205 H   0  0  0  0  0  0  0  0  0  0  0  0
  149.7047  139.1706  156.3649 H   0  0  0  0  0  0  0  0  0  0  0  0
  1  2  2  0  0  0  0
  2  3  1  0  0  0  0
  2 15  1  0  0  0  0
  3  4  1  0  0  0  0
  3 23  1  0  0  0  0
  3 24  1  0  0  0  0
  4 13  1  0  0  0  0
  4  5  1  0  0  0  0
  5  6  2  0  0  0  0
  5 25  1  0  0  0  0
  6  7  1  0  0  0  0
  6 11  1  0  0  0  0
  7  8  1  0  0  0  0
  7  9  1  0  0  0  0
  7 10  1  0  0  0  0
 11 12  2  0  0  0  0
 11 26  1  0  0  0  0
 12 13  1  0  0  0  0
 12 27  1  0  0  0  0
 13 14  2  0  0  0  0
 15 16  1  0  0  0  0
 15 28  1  0  0  0  0
 16 17  1  0  0  0  0
 16 29  1  0  0  0  0
 16 30  1  0  0  0  0
 17 22  1  0  0  0  0
 17 18  1  0  0  0  0
 17 31  1  0  0  0  0
 18 19  1  0  0  0  0
 18 32  1  0  0  0  0
 18 33  1  0  0  0  0
 19 20  1  0  0  0  0
 19 34  1  0  0  0  0
 19 35  1  0  0  0  0
 20 21  1  0  0  0  0
 20 22  1  0  0  0  0
 20 36  1  0  0  0  0
 21 37  1  0  0  0  0
 22 38  1  0  0  0  0
 22 39  1  0  0  0  0
M  END
> <s_m_source_file>
AV-unprocessed.smi

> <i_m_source_file_index>
2741

> <i_lp_mmshare_version>
43012

> <i_f3d_flags>
0

> <s_epik_input>
W09IXVtDQEBIXShbQ0gyXTEpW0NIMl1bQ0gyXVtDQEhdMVtDSDJdW05IXUMoPU8pW0NIMl1uMltjSF1jKEMoRikoRilGKVtjSF1bY0hdYzI9Tw==

> <s_epik_cmdline>
J2VwaWtfcHl0aG9uJywgJy1waCcsICc3LjAnLCAnLXRuJywgJzgnLCAnLW1hJywgJzIwMCcsICctbWV0YWxfYmluZGluZycsICctaW1hZScsICc8aW5maWxlLm1hZT4nLCAnLW9tYWUnLCAnPG91dGZpbGUubWFlPic=

> <r_lp_tautomer_probability>
1

> <r_epik_Ionization_Penalty>
1.17551e-06

> <r_epik_Ionization_Penalty_Charging>
1.78841e-08

> <r_epik_Ionization_Penalty_Neutral>
1.15762e-06

> <r_epik_State_Penalty>
-0

> <r_epik_Charging_Adjusted_Penalty>
1.78841e-08

> <i_epik_Tot_Q>
0

> <i_epik_Tot_abs_Q>
0

> <r_epik_Metal_State_Penalty>
-0

> <b_epik_Metal_Only>
0

> <s_lp_Force_Field>
OPLS_2005

> <r_lp_Energy>
33.5858

> <b_lp_Chiralities_Consistent>
1

> <s_lp_Variant>
AV-unprocessed.smi:2741-1

> <Gold.Version>
5.8.1

> <Gold.Id.Protein>
6NUR|6NUR_protein|mol2

> <Gold.PLP.Fitness>
48.4197

> <Gold.PLP.PLP>
-40.5383

> <Gold.PLP.part.hbond>
-4.0000

> <Gold.PLP.part.metal>
0.0000

> <Gold.PLP.part.buried>
-4.9586

> <Gold.PLP.part.nonpolar>
-31.0609

> <Gold.PLP.part.repulsive>
0.2070

> <Gold.PLP.ligand.clash>
1.2781

> <Gold.PLP.ligand.torsion>
0.4413

> <Gold.PLP.Chemscore.Hbond>
3.3280

> <Gold.PLP.Chemscore.CHOScore>
0.0000

> <Gold.PLP.Chemscore.Metal>
0.0000

> <Gold.Chemscore.Hbonds>
donor molecule, donor type, donor heavy atom, donor atom, acceptor molecule, acceptor atom, score
      L1  H    21    37       P1  8028  1.00
      P1  H  6896  6908       L1     1  1.00
      P1  H  6931  6943       L1    14  0.70
      P1  H  6934  6947       L1    14  0.51

> <Gold.PLP.Chemscore.Internal.Correction>
0.0582

> <Gold.Rescore>
     Score         DG    S(hbond)    S(metal)    S(lipo)     H(rot)  DE(clash)    DE(int)     intcor
     17.17     -17.97       3.29        0.00      67.17       2.48       0.33       0.47       ----

> <Gold.Chemscore.Fitness>
17.1681

> <Gold.Chemscore.DG>
-17.9718

> <Gold.Chemscore.ZeroCoef>
-5.4800

> <Gold.Chemscore.Hbond>
3.2884

> <Gold.Chemscore.Metal>
0.0000

> <Gold.Chemscore.Lipo>
67.1729

> <Gold.Chemscore.Internal_Hbond>
0.0000

> <Gold.Chemscore.DEClash>
0.3350

> <Gold.Chemscore.DEInternal>
0.4687

> <Gold.Chemscore.Rot>
2.4807

> <Gold.Chemscore.Internal.Correction>
   9.000000E+99

> <Gold.Chemscore.Hbonds>
donor molecule, donor type, donor heavy atom, donor atom, acceptor molecule, acceptor atom, score
      L1  H    21    37       P1  8028  0.97
      P1  H  6896  6908       L1     1  0.94
      P1  H  6931  6943       L1    14  0.49
      P1  H  6934  6947       L1    14  0.51

> <Gold.Chemscore.Hbond.Weighted>
-10.9832

> <Gold.Chemscore.Metal.Weighted>
-0.0000

> <Gold.Chemscore.Lipo.Weighted>
-7.8592

> <Gold.Chemscore.Internal_Hbond.Weighted>
0.0000

> <Gold.Chemscore.DEClash.Weighted>
0.3350

> <Gold.Chemscore.DEInternal.Weighted>
0.4687

> <Gold.Chemscore.Rot.Weighted>
6.3507

> <Gold.Chemscore.Internal.Correction.Weighted>
   9.000000E+99

> <Gold.Protein.RotatedTorsions>
[ 6907 6896 6895 6894 ] final -179.71 input  -60.11 | X-H torsion
[ 7974 7965 7964 7962 ] final -126.66 input  175.53 | X-H torsion
[ 8008 7997 7996 7995 ] final  105.69 input   59.86 | X-H torsion
[ 10167 10162 10161 10158 ] final  -62.47 input  -65.29 | X-H torsion
[ 10718 10713 10712 10709 ] final   59.23 input   66.30 | X-H torsion
[ 10763 10752 10751 10750 ] final  -37.67 input  -60.55 | X-H torsion
[ 11005 11000 10999 10996 ] final   21.29 input  -57.11 | X-H torsion

> <Gold.Protein.ActiveResidues>
 VAL166  LYS551  ARG553  GLY616  TRP617  ASP618  TYR619  PRO620  LYS621  CYS622 
 ASP623  PHE694  ASN695  SER759  ASP760  ASP761  ALA762  ILE779  LEU786  VAL792 
 PHE793  MET794  SER795  GLU796  ALA797  LYS798  CYS799  TRP800  GLU811  SER814 

> <Gold.Protein.RotatedAtoms>
  151.6578  133.3318  159.3166 H   0  0  0  0  0  0  0  0  0  0  0  0  # atno 6907 bound_to 6896
  150.7928  134.6969  159.6538 H   0  0  0  0  0  0  0  0  0  0  0  0  # atno 6908 bound_to 6896
  152.4011  134.6289  160.0122 H   0  0  0  0  0  0  0  0  0  0  0  0  # atno 6909 bound_to 6896
  144.9849  140.7677  143.4589 H   0  0  0  0  0  0  0  0  0  0  0  0  # atno 7974 bound_to 7965
  156.1680  140.3126  155.8923 H   0  0  0  0  0  0  0  0  0  0  0  0  # atno 8008 bound_to 7997
  155.3646  140.0478  157.3063 H   0  0  0  0  0  0  0  0  0  0  0  0  # atno 8009 bound_to 7997
  154.5212  140.2199  155.8983 H   0  0  0  0  0  0  0  0  0  0  0  0  # atno 8010 bound_to 7997
  140.5937  143.2346  151.6083 H   0  0  0  0  0  0  0  0  0  0  0  0  # atno 10167 bound_to 10162
  157.5659  130.8871  149.9187 H   0  0  0  0  0  0  0  0  0  0  0  0  # atno 10718 bound_to 10713
  153.9001  135.6803  153.4756 H   0  0  0  0  0  0  0  0  0  0  0  0  # atno 10763 bound_to 10752
  153.1134  135.4773  154.9071 H   0  0  0  0  0  0  0  0  0  0  0  0  # atno 10764 bound_to 10752
  154.7579  135.3202  154.8388 H   0  0  0  0  0  0  0  0  0  0  0  0  # atno 10765 bound_to 10752
  140.3933  134.1796  155.7663 H   0  0  0  0  0  0  0  0  0  0  0  0  # atno 11005 bound_to 11000
  145.2367  139.2090  143.5014 LP  0  0  0  0  0  0  0  0  0  0  0  0  # atno 17320 bound_to 7965
  146.3417  140.2255  142.8592 LP  0  0  0  0  0  0  0  0  0  0  0  0  # atno 17321 bound_to 7965
  139.5244  144.3105  152.0997 LP  0  0  0  0  0  0  0  0  0  0  0  0  # atno 17342 bound_to 10162
  140.2274  144.4404  150.6315 LP  0  0  0  0  0  0  0  0  0  0  0  0  # atno 17343 bound_to 10162
  156.0707  130.3685  150.0781 LP  0  0  0  0  0  0  0  0  0  0  0  0  # atno 17370 bound_to 10713
  156.8940  130.9598  151.3585 LP  0  0  0  0  0  0  0  0  0  0  0  0  # atno 17371 bound_to 10713
  141.1883  133.8263  157.0999 LP  0  0  0  0  0  0  0  0  0  0  0  0  # atno 17394 bound_to 11000
  140.0391  134.9863  157.0927 LP  0  0  0  0  0  0  0  0  0  0  0  0  # atno 17395 bound_to 11000

$$$$
