AV-unprocessed.smi:2775|AV-procd|sdf|10691|dock5
  -GOLD-   2272015133D 1   1.00000     0.00000
 Structure written by MMmdl.
 42 45  0  0  0  0  0  0  0  0  1 V2000
  144.8626  131.9291  150.5959 C   0  0  0  0  0  0  0  0  0  0  0  0
  144.6780  133.2503  151.3189 C   0  0  0  0  0  0  0  0  0  0  0  0
  143.4059  133.6973  151.4059 N   0  0  0  0  0  0  0  0  0  0  0  0
  143.1848  134.8637  152.0466 C   0  0  0  0  0  0  0  0  0  0  0  0
  144.2103  135.6377  152.6222 C   0  0  0  0  0  0  0  0  0  0  0  0
  145.5449  135.1799  152.5174 C   0  0  0  0  0  0  0  0  0  0  0  0
  146.6530  135.8699  153.0784 N   0  0  0  0  0  0  0  0  0  0  0  0
  146.6789  136.7073  154.1328 C   0  0  0  0  0  0  0  0  0  0  0  0
  145.7115  136.9755  154.8420 O   0  0  0  0  0  0  0  0  0  0  0  0
  147.8759  137.2844  154.3360 N   0  0  0  0  0  0  0  0  0  0  0  0
  148.2353  138.2374  155.3894 C   0  0  1  0  0  0  0  0  0  0  0  0
  149.6882  138.1033  155.9051 C   0  0  1  0  0  0  0  0  0  0  0  0
  150.7361  137.2695  155.2123 C   0  0  0  0  0  0  0  0  0  0  0  0
  151.2078  138.1824  154.0855 C   0  0  0  0  0  0  0  0  0  0  0  0
  151.0439  139.5046  154.5980 O   0  0  0  0  0  0  0  0  0  0  0  0
  149.9376  139.5551  155.5028 C   0  0  1  0  0  0  0  0  0  0  0  0
  148.5458  139.6431  154.8494 C   0  0  0  0  0  0  0  0  0  0  0  0
  148.3695  140.0526  153.3719 C   0  0  0  0  0  0  0  0  0  0  0  0
  148.0009  141.4557  153.8589 C   0  0  0  0  0  0  0  0  0  0  0  0
  147.6286  140.8247  155.2025 C   0  0  0  0  0  0  0  0  0  0  0  0
  145.7816  133.9504  151.8601 C   0  0  0  0  0  0  0  0  0  0  0  0
  147.3891  133.3216  151.7122 Cl  0  0  0  0  0  0  0  0  0  0  0  0
  145.5064  132.0600  149.7259 H   0  0  0  0  0  0  0  0  0  0  0  0
  143.9104  131.5225  150.2520 H   0  0  0  0  0  0  0  0  0  0  0  0
  145.3217  131.1955  151.2588 H   0  0  0  0  0  0  0  0  0  0  0  0
  142.1566  135.1881  152.1083 H   0  0  0  0  0  0  0  0  0  0  0  0
  143.9554  136.5513  153.1372 H   0  0  0  0  0  0  0  0  0  0  0  0
  147.5080  135.8126  152.5449 H   0  0  0  0  0  0  0  0  0  0  0  0
  148.5978  137.0831  153.6591 H   0  0  0  0  0  0  0  0  0  0  0  0
  147.5151  138.2827  156.2087 H   0  0  0  0  0  0  0  0  0  0  0  0
  149.6932  137.9752  156.9883 H   0  0  0  0  0  0  0  0  0  0  0  0
  151.5620  137.0673  155.8950 H   0  0  0  0  0  0  0  0  0  0  0  0
  150.3721  136.3091  154.8489 H   0  0  0  0  0  0  0  0  0  0  0  0
  152.2401  137.9909  153.7927 H   0  0  0  0  0  0  0  0  0  0  0  0
  150.5782  138.0540  153.2045 H   0  0  0  0  0  0  0  0  0  0  0  0
  150.0837  140.2334  156.3443 H   0  0  0  0  0  0  0  0  0  0  0  0
  149.2678  140.0143  152.7564 H   0  0  0  0  0  0  0  0  0  0  0  0
  147.5293  139.5578  152.8822 H   0  0  0  0  0  0  0  0  0  0  0  0
  148.8650  142.1186  153.9279 H   0  0  0  0  0  0  0  0  0  0  0  0
  147.1716  141.9225  153.3267 H   0  0  0  0  0  0  0  0  0  0  0  0
  146.5761  140.5407  155.2542 H   0  0  0  0  0  0  0  0  0  0  0  0
  147.9316  141.4013  156.0768 H   0  0  0  0  0  0  0  0  0  0  0  0
  1  2  1  0  0  0  0
  1 23  1  0  0  0  0
  1 24  1  0  0  0  0
  1 25  1  0  0  0  0
  2 21  1  0  0  0  0
  2  3  2  0  0  0  0
  3  4  1  0  0  0  0
  4  5  2  0  0  0  0
  4 26  1  0  0  0  0
  5  6  1  0  0  0  0
  5 27  1  0  0  0  0
  6  7  1  0  0  0  0
  6 21  2  0  0  0  0
  7  8  1  0  0  0  0
  7 28  1  0  0  0  0
  8  9  2  0  0  0  0
  8 10  1  0  0  0  0
 10 11  1  0  0  0  0
 10 29  1  0  0  0  0
 11 17  1  0  0  0  0
 11 12  1  0  0  0  0
 11 30  1  0  0  0  0
 12 16  1  0  0  0  0
 12 13  1  0  0  0  0
 12 31  1  0  0  0  0
 13 14  1  0  0  0  0
 13 32  1  0  0  0  0
 13 33  1  0  0  0  0
 14 15  1  0  0  0  0
 14 34  1  0  0  0  0
 14 35  1  0  0  0  0
 15 16  1  0  0  0  0
 16 17  1  0  0  0  0
 16 36  1  0  0  0  0
 17 20  1  0  0  0  0
 17 18  1  0  0  0  0
 18 19  1  0  0  0  0
 18 37  1  0  0  0  0
 18 38  1  0  0  0  0
 19 20  1  0  0  0  0
 19 39  1  0  0  0  0
 19 40  1  0  0  0  0
 20 41  1  0  0  0  0
 20 42  1  0  0  0  0
 21 22  1  0  0  0  0
M  END
> <s_m_source_file>
AV-unprocessed.smi

> <i_m_source_file_index>
2775

> <i_lp_mmshare_version>
43012

> <i_f3d_flags>
0

> <s_epik_input>
W0NIM11jMW5bY0hdW2NIXWMoYzFDbClbTkhdQyg9TylbTkhdW0NAQEhdMltDQEhdKFtDSDJdW0NIMl1PMylbQ0BASF0zQzI0W0NIMl1bQ0gyXVtDSDJdNA==

> <s_epik_cmdline>
J2VwaWtfcHl0aG9uJywgJy1waCcsICc3LjAnLCAnLXRuJywgJzgnLCAnLW1hJywgJzIwMCcsICctbWV0YWxfYmluZGluZycsICctaW1hZScsICc8aW5maWxlLm1hZT4nLCAnLW9tYWUnLCAnPG91dGZpbGUubWFlPic=

> <r_epik_Ionization_Penalty>
0.01026

> <r_epik_Ionization_Penalty_Charging>
0

> <r_epik_Ionization_Penalty_Neutral>
0.01026

> <r_epik_State_Penalty>
0.00780685

> <r_epik_Charging_Adjusted_Penalty>
0.00780685

> <i_epik_Tot_Q>
0

> <i_epik_Tot_abs_Q>
0

> <r_epik_Metal_State_Penalty>
0.00767411

> <b_epik_Metal_Only>
0

> <s_lp_Force_Field>
OPLS_2005

> <r_lp_Energy>
57.8128

> <b_lp_Chiralities_Consistent>
1

> <s_lp_Variant>
AV-unprocessed.smi:2775-4

> <Gold.Version>
5.8.1

> <Gold.Id.Protein>
6NUR|6NUR_protein|mol2

> <Gold.PLP.Fitness>
36.3663

> <Gold.PLP.PLP>
-28.2430

> <Gold.PLP.part.hbond>
-3.0000

> <Gold.PLP.part.metal>
0.0000

> <Gold.PLP.part.buried>
-1.6825

> <Gold.PLP.part.nonpolar>
-23.5746

> <Gold.PLP.part.repulsive>
0.3397

> <Gold.PLP.ligand.clash>
0.0000

> <Gold.PLP.ligand.torsion>
0.3631

> <Gold.PLP.Chemscore.Hbond>
2.8960

> <Gold.PLP.Chemscore.CHOScore>
0.0000

> <Gold.PLP.Chemscore.Metal>
0.0000

> <Gold.Chemscore.Hbonds>
donor molecule, donor type, donor heavy atom, donor atom, acceptor molecule, acceptor atom, score
      L1  H     7    28       P1  7948  1.00
      L1  H    10    29       P1  7948  0.90
      P1  H  7989  7998       L1    15  1.00

> <Gold.PLP.Chemscore.Internal.Correction>
0.1616

> <Gold.Rescore>
     Score         DG    S(hbond)    S(metal)    S(lipo)     H(rot)  DE(clash)    DE(int)     intcor
     20.01     -22.99       2.90        0.00      88.60       1.00       1.93       1.04       ----

> <Gold.Chemscore.Fitness>
20.0124

> <Gold.Chemscore.DG>
-22.9884

> <Gold.Chemscore.ZeroCoef>
-5.4800

> <Gold.Chemscore.Hbond>
2.9047

> <Gold.Chemscore.Metal>
0.0000

> <Gold.Chemscore.Lipo>
88.6035

> <Gold.Chemscore.Internal_Hbond>
0.0000

> <Gold.Chemscore.DEClash>
1.9340

> <Gold.Chemscore.DEInternal>
1.0421

> <Gold.Chemscore.Rot>
1.0000

> <Gold.Chemscore.Internal.Correction>
   9.000000E+99

> <Gold.Chemscore.Hbonds>
donor molecule, donor type, donor heavy atom, donor atom, acceptor molecule, acceptor atom, score
      L1  H     7    28       P1  7948  0.99
      L1  H    10    29       P1  7948  0.84
      P1  H  7989  7998       L1    15  0.91

> <Gold.Chemscore.Hbond.Weighted>
-9.7018

> <Gold.Chemscore.Metal.Weighted>
-0.0000

> <Gold.Chemscore.Lipo.Weighted>
-10.3666

> <Gold.Chemscore.Internal_Hbond.Weighted>
0.0000

> <Gold.Chemscore.DEClash.Weighted>
1.9340

> <Gold.Chemscore.DEInternal.Weighted>
1.0421

> <Gold.Chemscore.Rot.Weighted>
2.5600

> <Gold.Chemscore.Internal.Correction.Weighted>
   9.000000E+99

> <Gold.Protein.RotatedTorsions>
[ 6907 6896 6895 6894 ] final    5.66 input  -60.11 | X-H torsion
[ 7974 7965 7964 7962 ] final -140.24 input  175.53 | X-H torsion
[ 8008 7997 7996 7995 ] final   48.52 input   59.86 | X-H torsion
[ 10167 10162 10161 10158 ] final   52.09 input  -65.29 | X-H torsion
[ 10718 10713 10712 10709 ] final  -85.01 input   66.30 | X-H torsion
[ 10763 10752 10751 10750 ] final -144.60 input  -60.55 | X-H torsion
[ 11005 11000 10999 10996 ] final   87.90 input  -57.11 | X-H torsion

> <Gold.Protein.ActiveResidues>
 VAL166  LYS551  ARG553  GLY616  TRP617  ASP618  TYR619  PRO620  LYS621  CYS622 
 ASP623  PHE694  ASN695  SER759  ASP760  ASP761  ALA762  ILE779  LEU786  VAL792 
 PHE793  MET794  SER795  GLU796  ALA797  LYS798  CYS799  TRP800  GLU811  SER814 

> <Gold.Protein.RotatedAtoms>
  151.6610  135.0989  160.0179 H   0  0  0  0  0  0  0  0  0  0  0  0  # atno 6907 bound_to 6896
  152.3946  133.6724  159.6274 H   0  0  0  0  0  0  0  0  0  0  0  0  # atno 6908 bound_to 6896
  150.7856  133.8812  159.3327 H   0  0  0  0  0  0  0  0  0  0  0  0  # atno 6909 bound_to 6896
  144.8612  140.6223  143.5327 H   0  0  0  0  0  0  0  0  0  0  0  0  # atno 7974 bound_to 7965
  155.3870  140.3431  155.4249 H   0  0  0  0  0  0  0  0  0  0  0  0  # atno 8008 bound_to 7997
  156.1579  140.1591  156.8695 H   0  0  0  0  0  0  0  0  0  0  0  0  # atno 8009 bound_to 7997
  154.5112  140.0789  156.7975 H   0  0  0  0  0  0  0  0  0  0  0  0  # atno 8010 bound_to 7997
  140.2550  144.3436  150.6336 H   0  0  0  0  0  0  0  0  0  0  0  0  # atno 10167 bound_to 10162
  156.0000  130.4717  150.4497 H   0  0  0  0  0  0  0  0  0  0  0  0  # atno 10718 bound_to 10713
  154.8421  135.3436  154.6372 H   0  0  0  0  0  0  0  0  0  0  0  0  # atno 10763 bound_to 10752
  153.6982  135.6971  153.5075 H   0  0  0  0  0  0  0  0  0  0  0  0  # atno 10764 bound_to 10752
  153.2543  135.4343  155.0784 H   0  0  0  0  0  0  0  0  0  0  0  0  # atno 10765 bound_to 10752
  139.8909  134.8453  156.2925 H   0  0  0  0  0  0  0  0  0  0  0  0  # atno 11005 bound_to 11000
  145.4308  139.1549  143.4023 LP  0  0  0  0  0  0  0  0  0  0  0  0  # atno 17320 bound_to 7965
  146.2862  140.4424  142.8757 LP  0  0  0  0  0  0  0  0  0  0  0  0  # atno 17321 bound_to 7965
  140.6010  143.2167  151.7071 LP  0  0  0  0  0  0  0  0  0  0  0  0  # atno 17342 bound_to 10162
  139.5034  144.3792  152.0393 LP  0  0  0  0  0  0  0  0  0  0  0  0  # atno 17343 bound_to 10162
  157.2531  131.0550  151.2367 LP  0  0  0  0  0  0  0  0  0  0  0  0  # atno 17370 bound_to 10713
  157.3509  130.7081  149.6440 LP  0  0  0  0  0  0  0  0  0  0  0  0  # atno 17371 bound_to 10713
  140.9967  133.7176  156.0897 LP  0  0  0  0  0  0  0  0  0  0  0  0  # atno 17394 bound_to 11000
  140.7553  134.4000  157.5535 LP  0  0  0  0  0  0  0  0  0  0  0  0  # atno 17395 bound_to 11000

$$$$
