AV-unprocessed.smi:218|AV-procd|sdf|1673|dock8
  -GOLD-   2262020 93D 1   1.00000     0.00000
 Structure written by MMmdl.
 54 57  0  0  0  0  0  0  0  0  1 V2000
  151.8743  143.4946  161.3696 C   0  0  0  0  0  0  0  0  0  0  0  0
  152.2664  142.5826  160.2011 C   0  0  0  0  0  0  0  0  0  0  0  0
  153.3760  143.2190  159.3462 C   0  0  0  0  0  0  0  0  0  0  0  0
  151.0882  142.3840  159.4174 O   0  0  0  0  0  0  0  0  0  0  0  0
  151.0676  141.4228  158.4252 C   0  0  0  0  0  0  0  0  0  0  0  0
  151.2039  140.0714  158.8026 C   0  0  0  0  0  0  0  0  0  0  0  0
  151.1836  139.0772  157.8018 C   0  0  0  0  0  0  0  0  0  0  0  0
  151.3243  137.6052  158.1543 C   0  0  0  0  0  0  0  0  0  0  0  0
  150.7115  137.2103  159.4187 N   0  0  0  0  0  0  0  0  0  0  0  0
  150.1785  135.9776  159.5696 C   0  0  0  0  0  0  0  0  0  0  0  0
  150.3222  135.0277  158.6087 N   0  0  0  0  0  0  0  0  0  0  0  0
  149.7889  133.8151  158.7838 C   0  0  0  0  0  0  0  0  0  0  0  0
  149.0942  133.3519  159.8249 N   0  0  0  0  0  0  0  0  0  0  0  0
  148.9518  134.2998  160.7961 C   0  0  0  0  0  0  0  0  0  0  0  0
  149.4609  135.6274  160.7425 C   0  0  0  0  0  0  0  0  0  0  0  0
  149.1230  136.3093  161.9042 N   0  0  0  0  0  0  0  0  0  0  0  0
  148.4546  135.4307  162.6020 C   0  0  0  0  0  0  0  0  0  0  0  0
  148.3074  134.1949  162.0123 N   0  0  0  0  0  0  0  0  0  0  0  0
  147.6078  132.9989  162.5714 C   0  0  1  0  0  0  0  0  0  0  0  0
  146.3727  133.4081  163.0668 O   0  0  0  0  0  0  0  0  0  0  0  0
  145.4253  132.3761  162.8430 C   0  0  1  0  0  0  0  0  0  0  0  0
  143.9894  132.9167  162.9591 C   0  0  0  0  0  0  0  0  0  0  0  0
  143.7698  133.4561  164.2453 O   0  0  0  0  0  0  0  0  0  0  0  0
  145.8408  131.7767  161.4902 C   0  0  1  0  0  0  0  0  0  0  0  0
  145.2566  132.4679  160.4027 O   0  0  0  0  0  0  0  0  0  0  0  0
  147.3591  131.9440  161.4776 C   0  0  2  0  0  0  0  0  0  0  0  0
  147.9693  130.7136  161.8132 O   0  0  0  0  0  0  0  0  0  0  0  0
  151.0386  139.4774  156.4587 C   0  0  0  0  0  0  0  0  0  0  0  0
  150.9106  140.8515  156.1789 C   0  0  0  0  0  0  0  0  0  0  0  0
  150.9258  141.8069  157.1321 N   0  0  0  0  0  0  0  0  0  0  0  0
  148.2484  132.6487  163.3825 H   0  0  0  0  0  0  0  0  0  0  0  0
  145.5888  131.6260  163.6192 H   0  0  0  0  0  0  0  0  0  0  0  0
  145.5328  130.7326  161.4130 H   0  0  0  0  0  0  0  0  0  0  0  0
  147.7357  132.2786  160.5091 H   0  0  0  0  0  0  0  0  0  0  0  0
  152.7269  143.6881  162.0211 H   0  0  0  0  0  0  0  0  0  0  0  0
  151.0922  143.0366  161.9755 H   0  0  0  0  0  0  0  0  0  0  0  0
  151.4999  144.4551  161.0141 H   0  0  0  0  0  0  0  0  0  0  0  0
  152.6173  141.6425  160.6296 H   0  0  0  0  0  0  0  0  0  0  0  0
  154.2656  143.4154  159.9451 H   0  0  0  0  0  0  0  0  0  0  0  0
  153.0472  144.1661  158.9180 H   0  0  0  0  0  0  0  0  0  0  0  0
  153.6750  142.5709  158.5229 H   0  0  0  0  0  0  0  0  0  0  0  0
  151.3176  139.8065  159.8435 H   0  0  0  0  0  0  0  0  0  0  0  0
  150.9188  136.9908  157.3494 H   0  0  0  0  0  0  0  0  0  0  0  0
  152.3877  137.3720  158.2092 H   0  0  0  0  0  0  0  0  0  0  0  0
  150.5681  137.9534  160.0872 H   0  0  0  0  0  0  0  0  0  0  0  0
  149.9419  133.1154  157.9755 H   0  0  0  0  0  0  0  0  0  0  0  0
  148.0517  135.6602  163.5778 H   0  0  0  0  0  0  0  0  0  0  0  0
  143.8314  133.7069  162.2249 H   0  0  0  0  0  0  0  0  0  0  0  0
  143.2507  132.1420  162.7519 H   0  0  0  0  0  0  0  0  0  0  0  0
  142.9117  133.8522  164.2621 H   0  0  0  0  0  0  0  0  0  0  0  0
  144.4971  132.9332  160.7188 H   0  0  0  0  0  0  0  0  0  0  0  0
  148.8423  130.7059  161.4516 H   0  0  0  0  0  0  0  0  0  0  0  0
  151.0192  138.7507  155.6598 H   0  0  0  0  0  0  0  0  0  0  0  0
  150.7940  141.1929  155.1610 H   0  0  0  0  0  0  0  0  0  0  0  0
  1  2  1  0  0  0  0
  1 35  1  0  0  0  0
  1 36  1  0  0  0  0
  1 37  1  0  0  0  0
  2  3  1  0  0  0  0
  2  4  1  0  0  0  0
  2 38  1  0  0  0  0
  3 39  1  0  0  0  0
  3 40  1  0  0  0  0
  3 41  1  0  0  0  0
  4  5  1  0  0  0  0
  5 30  1  0  0  0  0
  5  6  2  0  0  0  0
  6  7  1  0  0  0  0
  6 42  1  0  0  0  0
  7  8  1  0  0  0  0
  7 28  2  0  0  0  0
  8  9  1  0  0  0  0
  8 43  1  0  0  0  0
  8 44  1  0  0  0  0
  9 10  1  0  0  0  0
  9 45  1  0  0  0  0
 10 15  1  0  0  0  0
 10 11  2  0  0  0  0
 11 12  1  0  0  0  0
 12 13  2  0  0  0  0
 12 46  1  0  0  0  0
 13 14  1  0  0  0  0
 14 18  1  0  0  0  0
 14 15  2  0  0  0  0
 15 16  1  0  0  0  0
 16 17  2  0  0  0  0
 17 18  1  0  0  0  0
 17 47  1  0  0  0  0
 18 19  1  0  0  0  0
 19 31  1  0  0  0  0
 19 26  1  0  0  0  0
 19 20  1  0  0  0  0
 20 21  1  0  0  0  0
 21 32  1  0  0  0  0
 21 22  1  0  0  0  0
 21 24  1  0  0  0  0
 22 23  1  0  0  0  0
 22 48  1  0  0  0  0
 22 49  1  0  0  0  0
 23 50  1  0  0  0  0
 24 33  1  0  0  0  0
 24 25  1  0  0  0  0
 24 26  1  0  0  0  0
 25 51  1  0  0  0  0
 26 34  1  0  0  0  0
 26 27  1  0  0  0  0
 27 52  1  0  0  0  0
 28 29  1  0  0  0  0
 28 53  1  0  0  0  0
 29 30  2  0  0  0  0
 29 54  1  0  0  0  0
M  END
> <s_m_source_file>
AV-unprocessed.smi

> <i_m_source_file_index>
218

> <i_lp_mmshare_version>
43012

> <i_f3d_flags>
0

> <s_epik_input>
W0NIM11bQ0hdKFtDSDNdKU9jMVtjSF1jKFtjSF1bY0hdbjEpW0NIMl1bTkhdYyhuW2NIXW4yKWMoYzIzKW5bY0hdbjNbQ0BASF00T1tDQEhdKFtDSDJdW09IXSlbQ0BASF0oW09IXSlbQ0BIXTRbT0hd

> <s_epik_cmdline>
J2VwaWtfcHl0aG9uJywgJy1waCcsICc3LjAnLCAnLXRuJywgJzgnLCAnLW1hJywgJzIwMCcsICctbWV0YWxfYmluZGluZycsICctaW1hZScsICc8aW5maWxlLm1hZT4nLCAnLW9tYWUnLCAnPG91dGZpbGUubWFlPic=

> <r_lp_tautomer_probability>
1

> <r_epik_Ionization_Penalty>
0.00457014

> <r_epik_Ionization_Penalty_Charging>
0

> <r_epik_Ionization_Penalty_Neutral>
0.00457014

> <r_epik_State_Penalty>
-0

> <r_epik_Charging_Adjusted_Penalty>
0

> <i_epik_Tot_Q>
0

> <i_epik_Tot_abs_Q>
0

> <r_epik_Metal_State_Penalty>
-0

> <b_epik_Metal_Only>
0

> <s_epik_Chemistry_Notes>
This compound contains an acetal/aminal-like group ( X-CH(R)-Y where X, Y are N, S, or O) that may be acid/base labile, releasing an aldehyde.

> <s_lp_Force_Field>
OPLS_2005

> <r_lp_Energy>
38.5835

> <b_lp_Chiralities_Consistent>
1

> <s_lp_Variant>
AV-unprocessed.smi:218-12

> <Gold.Version>
5.8.1

> <Gold.Id.Protein>
6NUR|6NUR_protein|mol2

> <Gold.PLP.Fitness>
52.5638

> <Gold.PLP.PLP>
-50.1159

> <Gold.PLP.part.hbond>
-3.8434

> <Gold.PLP.part.metal>
0.0000

> <Gold.PLP.part.buried>
-9.2020

> <Gold.PLP.part.nonpolar>
-38.5914

> <Gold.PLP.part.repulsive>
0.8009

> <Gold.PLP.ligand.clash>
0.0000

> <Gold.PLP.ligand.torsion>
0.9527

> <Gold.PLP.Chemscore.Hbond>
1.3792

> <Gold.PLP.Chemscore.CHOScore>
0.0000

> <Gold.PLP.Chemscore.Metal>
0.0000

> <Gold.Chemscore.Hbonds>
donor molecule, donor type, donor heavy atom, donor atom, acceptor molecule, acceptor atom, score
      P1  H  6931  6943       L1    16  1.00

> <Gold.PLP.Chemscore.Internal.Correction>
0.2158

> <Gold.Rescore>
     Score         DG    S(hbond)    S(metal)    S(lipo)     H(rot)  DE(clash)    DE(int)     intcor
      4.53      -6.86       1.24        0.00      83.62       4.90       0.04       2.29       ----

> <Gold.Chemscore.Fitness>
4.5293

> <Gold.Chemscore.DG>
-6.8553

> <Gold.Chemscore.ZeroCoef>
-5.4800

> <Gold.Chemscore.Hbond>
1.2404

> <Gold.Chemscore.Metal>
0.0000

> <Gold.Chemscore.Lipo>
83.6231

> <Gold.Chemscore.Internal_Hbond>
0.0000

> <Gold.Chemscore.DEClash>
0.0362

> <Gold.Chemscore.DEInternal>
2.2898

> <Gold.Chemscore.Rot>
4.9029

> <Gold.Chemscore.Internal.Correction>
   9.000000E+99

> <Gold.Chemscore.Hbonds>
donor molecule, donor type, donor heavy atom, donor atom, acceptor molecule, acceptor atom, score
      P1  H  6931  6943       L1    16  0.96

> <Gold.Chemscore.Hbond.Weighted>
-4.1429

> <Gold.Chemscore.Metal.Weighted>
-0.0000

> <Gold.Chemscore.Lipo.Weighted>
-9.7839

> <Gold.Chemscore.Internal_Hbond.Weighted>
0.0000

> <Gold.Chemscore.DEClash.Weighted>
0.0362

> <Gold.Chemscore.DEInternal.Weighted>
2.2898

> <Gold.Chemscore.Rot.Weighted>
12.5515

> <Gold.Chemscore.Internal.Correction.Weighted>
   9.000000E+99

> <Gold.Protein.RotatedTorsions>
[ 6907 6896 6895 6894 ] final  -88.40 input  -60.11 | X-H torsion
[ 7974 7965 7964 7962 ] final   18.27 input  175.53 | X-H torsion
[ 8008 7997 7996 7995 ] final  116.47 input   59.86 | X-H torsion
[ 10167 10162 10161 10158 ] final  -63.58 input  -65.29 | X-H torsion
[ 10718 10713 10712 10709 ] final -102.33 input   66.30 | X-H torsion
[ 10763 10752 10751 10750 ] final  -58.72 input  -60.55 | X-H torsion
[ 11005 11000 10999 10996 ] final -102.24 input  -57.11 | X-H torsion

> <Gold.Protein.ActiveResidues>
 VAL166  LYS551  ARG553  GLY616  TRP617  ASP618  TYR619  PRO620  LYS621  CYS622 
 ASP623  PHE694  ASN695  SER759  ASP760  ASP761  ALA762  ILE779  LEU786  VAL792 
 PHE793  MET794  SER795  GLU796  ALA797  LYS798  CYS799  TRP800  GLU811  SER814 

> <Gold.Protein.RotatedAtoms>
  150.6868  134.2747  159.4602 H   0  0  0  0  0  0  0  0  0  0  0  0  # atno 6907 bound_to 6896
  152.0666  134.9558  160.0584 H   0  0  0  0  0  0  0  0  0  0  0  0  # atno 6908 bound_to 6896
  152.0964  133.4192  159.4604 H   0  0  0  0  0  0  0  0  0  0  0  0  # atno 6909 bound_to 6896
  146.2190  139.8481  142.8628 H   0  0  0  0  0  0  0  0  0  0  0  0  # atno 7974 bound_to 7965
  156.2441  140.2917  156.0527 H   0  0  0  0  0  0  0  0  0  0  0  0  # atno 8008 bound_to 7997
  155.1863  140.0405  157.2909 H   0  0  0  0  0  0  0  0  0  0  0  0  # atno 8009 bound_to 7997
  154.6225  140.2479  155.7539 H   0  0  0  0  0  0  0  0  0  0  0  0  # atno 8010 bound_to 7997
  140.5860  143.2334  151.6241 H   0  0  0  0  0  0  0  0  0  0  0  0  # atno 10167 bound_to 10162
  156.0225  130.5415  150.7093 H   0  0  0  0  0  0  0  0  0  0  0  0  # atno 10718 bound_to 10713
  154.2426  135.6341  153.5212 H   0  0  0  0  0  0  0  0  0  0  0  0  # atno 10763 bound_to 10752
  152.9927  135.5545  154.5894 H   0  0  0  0  0  0  0  0  0  0  0  0  # atno 10764 bound_to 10752
  154.5403  135.2894  155.1076 H   0  0  0  0  0  0  0  0  0  0  0  0  # atno 10765 bound_to 10752
  141.1197  133.8543  157.1335 H   0  0  0  0  0  0  0  0  0  0  0  0  # atno 11005 bound_to 11000
  145.2829  141.0144  143.3707 LP  0  0  0  0  0  0  0  0  0  0  0  0  # atno 17320 bound_to 7965
  144.9136  139.4498  143.6575 LP  0  0  0  0  0  0  0  0  0  0  0  0  # atno 17321 bound_to 7965
  139.5198  144.3242  152.0884 LP  0  0  0  0  0  0  0  0  0  0  0  0  # atno 17342 bound_to 10162
  140.2399  144.4280  150.6264 LP  0  0  0  0  0  0  0  0  0  0  0  0  # atno 17343 bound_to 10162
  157.4735  131.0895  151.0616 LP  0  0  0  0  0  0  0  0  0  0  0  0  # atno 17370 bound_to 10713
  157.1070  130.6005  149.5473 LP  0  0  0  0  0  0  0  0  0  0  0  0  # atno 17371 bound_to 10713
  140.0145  134.9973  157.0465 LP  0  0  0  0  0  0  0  0  0  0  0  0  # atno 17394 bound_to 11000
  140.4543  134.1550  155.7184 LP  0  0  0  0  0  0  0  0  0  0  0  0  # atno 17395 bound_to 11000

$$$$
