AV-unprocessed.smi:51|AV-procd|sdf|499|dock8
  -GOLD-   2262016373D 1   1.00000     0.00000
 Structure written by MMmdl.
 25 26  0  0  0  0  0  0  0  0  2 V2000
  152.5037  136.6788  156.1620 O   0  0  0  0  0  0  0  0  0  0  0  0
  152.4833  137.8236  156.6643 C   0  0  0  0  0  0  0  0  0  0  0  0
  153.4327  138.3633  157.2759 O   0  5  0  0  0  0  0  0  0  0  0  0
  151.1782  138.6178  156.5230 C   0  0  2  0  0  0  0  0  0  0  0  0
  150.1863  137.9798  155.5305 C   0  0  0  0  0  0  0  0  0  0  0  0
  150.3376  138.8281  154.2696 C   0  0  1  0  0  0  0  0  0  0  0  0
  149.1790  138.8121  153.4622 O   0  0  0  0  0  0  0  0  0  0  0  0
  150.6317  140.2118  154.8436 C   0  0  0  0  0  0  0  0  0  0  0  0
  151.4699  139.9559  156.0067 N   0  0  0  0  0  0  0  0  0  0  0  0
  151.5213  140.9822  156.9602 C   0  0  0  0  0  0  0  0  0  0  0  0
  150.9334  142.2315  156.6722 C   0  0  0  0  0  0  0  0  0  0  0  0
  151.0265  143.2165  157.6755 C   0  0  0  0  0  0  0  0  0  0  0  0
  151.6416  142.9767  158.8538 N   0  0  0  0  0  0  0  0  0  0  0  0
  152.1621  141.7582  159.0209 C   0  0  0  0  0  0  0  0  0  0  0  0
  152.1353  140.7505  158.1457 N   0  0  0  0  0  0  0  0  0  0  0  0
  150.7095  138.6700  157.5071 H   0  0  0  0  0  0  0  0  0  0  0  0
  150.3627  136.9189  155.3465 H   0  0  0  0  0  0  0  0  0  0  0  0
  149.1754  138.0775  155.9297 H   0  0  0  0  0  0  0  0  0  0  0  0
  151.1918  138.4778  153.6882 H   0  0  0  0  0  0  0  0  0  0  0  0
  149.4380  138.9719  152.5677 H   0  0  0  0  0  0  0  0  0  0  0  0
  151.1449  140.8459  154.1199 H   0  0  0  0  0  0  0  0  0  0  0  0
  149.7069  140.7125  155.1358 H   0  0  0  0  0  0  0  0  0  0  0  0
  150.4432  142.4261  155.7295 H   0  0  0  0  0  0  0  0  0  0  0  0
  150.6044  144.2001  157.5324 H   0  0  0  0  0  0  0  0  0  0  0  0
  152.6533  141.5670  159.9634 H   0  0  0  0  0  0  0  0  0  0  0  0
  1  2  2  0  0  0  0
  2  3  1  0  0  0  0
  2  4  1  0  0  0  0
  4  9  1  0  0  0  0
  4  5  1  0  0  0  0
  4 16  1  0  0  0  0
  5  6  1  0  0  0  0
  5 17  1  0  0  0  0
  5 18  1  0  0  0  0
  6  7  1  0  0  0  0
  6  8  1  0  0  0  0
  6 19  1  0  0  0  0
  7 20  1  0  0  0  0
  8  9  1  0  0  0  0
  8 21  1  0  0  0  0
  8 22  1  0  0  0  0
  9 10  1  0  0  0  0
 10 15  1  0  0  0  0
 10 11  2  0  0  0  0
 11 12  1  0  0  0  0
 11 23  1  0  0  0  0
 12 13  2  0  0  0  0
 12 24  1  0  0  0  0
 13 14  1  0  0  0  0
 14 15  2  0  0  0  0
 14 25  1  0  0  0  0
M  CHG  1   3  -1
M  END
> <s_m_source_file>
AV-unprocessed.smi

> <i_m_source_file_index>
51

> <i_lp_mmshare_version>
43012

> <i_f3d_flags>
0

> <s_epik_input>
Tz1DKFtPSF0pW0NAQEhdMVtDSDJdW0NAQEhdKFtPSF0pW0NIMl1OMWMyW2NIXVtjSF1uW2NIXW4y

> <s_epik_cmdline>
J2VwaWtfcHl0aG9uJywgJy1waCcsICc3LjAnLCAnLXRuJywgJzgnLCAnLW1hJywgJzIwMCcsICctbWV0YWxfYmluZGluZycsICctaW1hZScsICc8aW5maWxlLm1hZT4nLCAnLW9tYWUnLCAnPG91dGZpbGUubWFlPic=

> <r_lp_tautomer_probability>
1

> <r_epik_Ionization_Penalty>
0.225251

> <r_epik_Ionization_Penalty_Charging>
0.000248217

> <r_epik_Ionization_Penalty_Neutral>
0.225002

> <r_epik_State_Penalty>
0.21284

> <r_epik_Charging_Adjusted_Penalty>
0.213088

> <i_epik_Tot_Q>
-1

> <i_epik_Tot_abs_Q>
1

> <r_epik_Metal_State_Penalty>
0.154111

> <b_epik_Metal_Only>
0

> <s_lp_Force_Field>
OPLS_2005

> <r_lp_Energy>
17.878

> <b_lp_Chiralities_Consistent>
1

> <s_lp_Variant>
AV-unprocessed.smi:51-1

> <Gold.Version>
5.8.1

> <Gold.Id.Protein>
6NUR|6NUR_protein|mol2

> <Gold.PLP.Fitness>
37.4689

> <Gold.PLP.PLP>
-21.3248

> <Gold.PLP.part.hbond>
-4.0000

> <Gold.PLP.part.metal>
0.0000

> <Gold.PLP.part.buried>
-2.0700

> <Gold.PLP.part.nonpolar>
-15.6185

> <Gold.PLP.part.repulsive>
0.0226

> <Gold.PLP.ligand.clash>
0.3216

> <Gold.PLP.ligand.torsion>
0.5285

> <Gold.PLP.Chemscore.Hbond>
4.8960

> <Gold.PLP.Chemscore.CHOScore>
0.9118

> <Gold.PLP.Chemscore.Metal>
0.0000

> <Gold.Chemscore.Hbonds>
donor molecule, donor type, donor heavy atom, donor atom, acceptor molecule, acceptor atom, score
      L1  H     7    20       P1  7957  1.00
      P1  H  7997  8010       L1     3  1.98
      P1  H 10752 10764       L1     1  1.95
      L1  C    12    24       P1  8028  0.80

> <Gold.PLP.Chemscore.Internal.Correction>
0.0992

> <Gold.Rescore>
     Score         DG    S(hbond)    S(metal)    S(lipo)     H(rot)  DE(clash)    DE(int)     intcor
     12.04     -14.12       2.87        0.00      40.59       2.23       0.42       1.66       ----

> <Gold.Chemscore.Fitness>
12.0370

> <Gold.Chemscore.DG>
-14.1249

> <Gold.Chemscore.ZeroCoef>
-5.4800

> <Gold.Chemscore.Hbond>
2.8745

> <Gold.Chemscore.Metal>
0.0000

> <Gold.Chemscore.Lipo>
40.5890

> <Gold.Chemscore.Internal_Hbond>
0.0000

> <Gold.Chemscore.DEClash>
0.4233

> <Gold.Chemscore.DEInternal>
1.6646

> <Gold.Chemscore.Rot>
2.2285

> <Gold.Chemscore.Internal.Correction>
   9.000000E+99

> <Gold.Chemscore.Hbonds>
donor molecule, donor type, donor heavy atom, donor atom, acceptor molecule, acceptor atom, score
      L1  H     7    20       P1  7957  0.90
      P1  H  7997  8010       L1     3  0.88
      P1  H 10752 10764       L1     1  0.93

> <Gold.Chemscore.Hbond.Weighted>
-9.6010

> <Gold.Chemscore.Metal.Weighted>
-0.0000

> <Gold.Chemscore.Lipo.Weighted>
-4.7489

> <Gold.Chemscore.Internal_Hbond.Weighted>
0.0000

> <Gold.Chemscore.DEClash.Weighted>
0.4233

> <Gold.Chemscore.DEInternal.Weighted>
1.6646

> <Gold.Chemscore.Rot.Weighted>
5.7050

> <Gold.Chemscore.Internal.Correction.Weighted>
   9.000000E+99

> <Gold.Protein.RotatedTorsions>
[ 6907 6896 6895 6894 ] final -171.68 input  -60.11 | X-H torsion
[ 7974 7965 7964 7962 ] final    9.34 input  175.53 | X-H torsion
[ 8008 7997 7996 7995 ] final   38.19 input   59.86 | X-H torsion
[ 10167 10162 10161 10158 ] final  -47.60 input  -65.29 | X-H torsion
[ 10718 10713 10712 10709 ] final  110.26 input   66.30 | X-H torsion
[ 10763 10752 10751 10750 ] final  -33.45 input  -60.55 | X-H torsion
[ 11005 11000 10999 10996 ] final  -68.87 input  -57.11 | X-H torsion

> <Gold.Protein.ActiveResidues>
 VAL166  LYS551  ARG553  GLY616  TRP617  ASP618  TYR619  PRO620  LYS621  CYS622 
 ASP623  PHE694  ASN695  SER759  ASP760  ASP761  ALA762  ILE779  LEU786  VAL792 
 PHE793  MET794  SER795  GLU796  ALA797  LYS798  CYS799  TRP800  GLU811  SER814 

> <Gold.Protein.RotatedAtoms>
  151.5278  133.3454  159.2912 H   0  0  0  0  0  0  0  0  0  0  0  0  # atno 6907 bound_to 6896
  150.8612  134.7967  159.7095 H   0  0  0  0  0  0  0  0  0  0  0  0  # atno 6908 bound_to 6896
  152.4631  134.5147  159.9816 H   0  0  0  0  0  0  0  0  0  0  0  0  # atno 6909 bound_to 6896
  146.2404  139.9798  142.8437 H   0  0  0  0  0  0  0  0  0  0  0  0  # atno 7974 bound_to 7965
  155.2161  140.3327  155.4322 H   0  0  0  0  0  0  0  0  0  0  0  0  # atno 8008 bound_to 7997
  156.2352  140.1869  156.7187 H   0  0  0  0  0  0  0  0  0  0  0  0  # atno 8009 bound_to 7997
  154.6046  140.0618  156.9399 H   0  0  0  0  0  0  0  0  0  0  0  0  # atno 8010 bound_to 7997
  140.6768  143.2777  151.3951 H   0  0  0  0  0  0  0  0  0  0  0  0  # atno 10167 bound_to 10162
  157.6502  131.0929  150.6576 H   0  0  0  0  0  0  0  0  0  0  0  0  # atno 10718 bound_to 10713
  153.8305  135.6866  153.4815 H   0  0  0  0  0  0  0  0  0  0  0  0  # atno 10763 bound_to 10752
  153.1514  135.4616  154.9640 H   0  0  0  0  0  0  0  0  0  0  0  0  # atno 10764 bound_to 10752
  154.7889  135.3294  154.7768 H   0  0  0  0  0  0  0  0  0  0  0  0  # atno 10765 bound_to 10752
  141.1541  133.6751  156.6511 H   0  0  0  0  0  0  0  0  0  0  0  0  # atno 11005 bound_to 11000
  145.1603  140.9669  143.4381 LP  0  0  0  0  0  0  0  0  0  0  0  0  # atno 17320 bound_to 7965
  145.0123  139.3499  143.6114 LP  0  0  0  0  0  0  0  0  0  0  0  0  # atno 17321 bound_to 7965
  139.6065  144.1187  152.2254 LP  0  0  0  0  0  0  0  0  0  0  0  0  # atno 17342 bound_to 10162
  140.0588  144.5874  150.7279 LP  0  0  0  0  0  0  0  0  0  0  0  0  # atno 17343 bound_to 10162
  156.6888  130.4589  149.5606 LP  0  0  0  0  0  0  0  0  0  0  0  0  # atno 17370 bound_to 10713
  156.1876  130.6539  151.1025 LP  0  0  0  0  0  0  0  0  0  0  0  0  # atno 17371 bound_to 10713
  140.3319  134.7921  157.4333 LP  0  0  0  0  0  0  0  0  0  0  0  0  # atno 17394 bound_to 11000
  140.1009  134.5473  155.8353 LP  0  0  0  0  0  0  0  0  0  0  0  0  # atno 17395 bound_to 11000

$$$$
