AV-unprocessed.smi:2770|AV-procd|sdf|10659|dock1
  -GOLD-   2272015103D 1   1.00000     0.00000
 Structure written by MMmdl.
 34 35  0  0  0  0  0  0  0  0  1 V2000
  146.7698  140.1246  152.7380 C   0  0  0  0  0  0  0  0  0  0  0  0
  148.0941  140.3180  153.3083 N   0  0  0  0  0  0  0  0  0  0  0  0
  148.3245  140.7746  154.5478 C   0  0  0  0  0  0  0  0  0  0  0  0
  147.4231  141.0686  155.3338 O   0  0  0  0  0  0  0  0  0  0  0  0
  149.7971  140.9170  154.9492 C   0  0  1  0  0  0  0  0  0  0  0  0
  149.9847  141.7035  156.2657 C   0  0  0  0  0  0  0  0  0  0  0  0
  151.3946  141.7253  156.6353 N   0  0  0  0  0  0  0  0  0  0  0  0
  151.6704  142.5266  157.7521 C   0  0  0  0  0  0  0  0  0  0  0  0
  151.3161  143.8916  157.7193 C   0  0  0  0  0  0  0  0  0  0  0  0
  151.5944  144.6906  158.8450 C   0  0  0  0  0  0  0  0  0  0  0  0
  152.2162  144.0991  159.9610 C   0  0  0  0  0  0  0  0  0  0  0  0
  152.5336  142.7261  159.9005 C   0  0  0  0  0  0  0  0  0  0  0  0
  153.2040  142.0299  161.0659 C   0  0  0  0  0  0  0  0  0  0  0  0
  152.2697  141.9538  158.8239 N   0  0  0  0  0  0  0  0  0  0  0  0
  151.9660  140.3878  156.7240 C   0  0  0  0  0  0  0  0  0  0  0  0
  151.7344  139.6309  155.4052 C   0  0  0  0  0  0  0  0  0  0  0  0
  150.3416  139.6076  155.1036 O   0  0  0  0  0  0  0  0  0  0  0  0
  146.8557  139.7668  151.7120 H   0  0  0  0  0  0  0  0  0  0  0  0
  146.2108  141.0612  152.7272 H   0  0  0  0  0  0  0  0  0  0  0  0
  146.2046  139.3880  153.3102 H   0  0  0  0  0  0  0  0  0  0  0  0
  148.8871  140.0931  152.7251 H   0  0  0  0  0  0  0  0  0  0  0  0
  150.3243  141.4307  154.1425 H   0  0  0  0  0  0  0  0  0  0  0  0
  149.6226  142.7259  156.1492 H   0  0  0  0  0  0  0  0  0  0  0  0
  149.4068  141.2445  157.0698 H   0  0  0  0  0  0  0  0  0  0  0  0
  150.8393  144.3194  156.8495 H   0  0  0  0  0  0  0  0  0  0  0  0
  151.3354  145.7391  158.8524 H   0  0  0  0  0  0  0  0  0  0  0  0
  152.4426  144.6864  160.8387 H   0  0  0  0  0  0  0  0  0  0  0  0
  153.3679  142.7168  161.8966 H   0  0  0  0  0  0  0  0  0  0  0  0
  154.1703  141.6276  160.7608 H   0  0  0  0  0  0  0  0  0  0  0  0
  152.5848  141.2062  161.4225 H   0  0  0  0  0  0  0  0  0  0  0  0
  153.0337  140.4541  156.9365 H   0  0  0  0  0  0  0  0  0  0  0  0
  151.5055  139.8434  157.5497 H   0  0  0  0  0  0  0  0  0  0  0  0
  152.2859  140.0968  154.5869 H   0  0  0  0  0  0  0  0  0  0  0  0
  152.0973  138.6067  155.4906 H   0  0  0  0  0  0  0  0  0  0  0  0
  1  2  1  0  0  0  0
  1 18  1  0  0  0  0
  1 19  1  0  0  0  0
  1 20  1  0  0  0  0
  2  3  1  0  0  0  0
  2 21  1  0  0  0  0
  3  4  2  0  0  0  0
  3  5  1  0  0  0  0
  5 17  1  0  0  0  0
  5  6  1  0  0  0  0
  5 22  1  0  0  0  0
  6  7  1  0  0  0  0
  6 23  1  0  0  0  0
  6 24  1  0  0  0  0
  7  8  1  0  0  0  0
  7 15  1  0  0  0  0
  8 14  1  0  0  0  0
  8  9  2  0  0  0  0
  9 10  1  0  0  0  0
  9 25  1  0  0  0  0
 10 11  2  0  0  0  0
 10 26  1  0  0  0  0
 11 12  1  0  0  0  0
 11 27  1  0  0  0  0
 12 13  1  0  0  0  0
 12 14  2  0  0  0  0
 13 28  1  0  0  0  0
 13 29  1  0  0  0  0
 13 30  1  0  0  0  0
 15 16  1  0  0  0  0
 15 31  1  0  0  0  0
 15 32  1  0  0  0  0
 16 17  1  0  0  0  0
 16 33  1  0  0  0  0
 16 34  1  0  0  0  0
M  END
> <s_m_source_file>
AV-unprocessed.smi

> <i_m_source_file_index>
2770

> <i_lp_mmshare_version>
43012

> <i_f3d_flags>
0

> <s_epik_input>
W0NIM11bTkhdQyg9TylbQ0BASF0xW0NIMl1OKFtDSDJdW0NIMl1PMSljMltjSF1bY0hdW2NIXWMobjIpW0NIM10=

> <s_epik_cmdline>
J2VwaWtfcHl0aG9uJywgJy1waCcsICc3LjAnLCAnLXRuJywgJzgnLCAnLW1hJywgJzIwMCcsICctbWV0YWxfYmluZGluZycsICctaW1hZScsICc8aW5maWxlLm1hZT4nLCAnLW9tYWUnLCAnPG91dGZpbGUubWFlPic=

> <r_lp_tautomer_probability>
1

> <r_epik_Ionization_Penalty>
0.0115449

> <r_epik_Ionization_Penalty_Charging>
0

> <r_epik_Ionization_Penalty_Neutral>
0.0115449

> <r_epik_State_Penalty>
0.00889041

> <r_epik_Charging_Adjusted_Penalty>
0.00889041

> <i_epik_Tot_Q>
0

> <i_epik_Tot_abs_Q>
0

> <r_epik_Metal_State_Penalty>
0.00871946

> <b_epik_Metal_Only>
0

> <s_lp_Force_Field>
OPLS_2005

> <r_lp_Energy>
19.0153

> <b_lp_Chiralities_Consistent>
1

> <s_lp_Variant>
AV-unprocessed.smi:2770-2

> <Gold.Version>
5.8.1

> <Gold.Id.Protein>
6NUR|6NUR_protein|mol2

> <Gold.PLP.Fitness>
38.7730

> <Gold.PLP.PLP>
-36.4132

> <Gold.PLP.part.hbond>
-1.0000

> <Gold.PLP.part.metal>
0.0000

> <Gold.PLP.part.buried>
-0.2917

> <Gold.PLP.part.nonpolar>
-34.9253

> <Gold.PLP.part.repulsive>
0.3051

> <Gold.PLP.ligand.clash>
0.0000

> <Gold.PLP.ligand.torsion>
0.2874

> <Gold.PLP.Chemscore.Hbond>
0.9440

> <Gold.PLP.Chemscore.CHOScore>
0.0000

> <Gold.PLP.Chemscore.Metal>
0.0000

> <Gold.Chemscore.Hbonds>
donor molecule, donor type, donor heavy atom, donor atom, acceptor molecule, acceptor atom, score
      L1  H     2    21       P1  7957  0.98

> <Gold.PLP.Chemscore.Internal.Correction>
0.1027

> <Gold.Rescore>
     Score         DG    S(hbond)    S(metal)    S(lipo)     H(rot)  DE(clash)    DE(int)     intcor
     15.73     -16.47       0.97        0.00      94.09       1.27       0.33       0.41       ----

> <Gold.Chemscore.Fitness>
15.7288

> <Gold.Chemscore.DG>
-16.4666

> <Gold.Chemscore.ZeroCoef>
-5.4800

> <Gold.Chemscore.Hbond>
0.9693

> <Gold.Chemscore.Metal>
0.0000

> <Gold.Chemscore.Lipo>
94.0942

> <Gold.Chemscore.Internal_Hbond>
0.0000

> <Gold.Chemscore.DEClash>
0.3270

> <Gold.Chemscore.DEInternal>
0.4108

> <Gold.Chemscore.Rot>
1.2734

> <Gold.Chemscore.Internal.Correction>
   9.000000E+99

> <Gold.Chemscore.Hbonds>
donor molecule, donor type, donor heavy atom, donor atom, acceptor molecule, acceptor atom, score
      L1  H     2    21       P1  7957  0.93

> <Gold.Chemscore.Hbond.Weighted>
-3.2373

> <Gold.Chemscore.Metal.Weighted>
-0.0000

> <Gold.Chemscore.Lipo.Weighted>
-11.0090

> <Gold.Chemscore.Internal_Hbond.Weighted>
0.0000

> <Gold.Chemscore.DEClash.Weighted>
0.3270

> <Gold.Chemscore.DEInternal.Weighted>
0.4108

> <Gold.Chemscore.Rot.Weighted>
3.2598

> <Gold.Chemscore.Internal.Correction.Weighted>
   9.000000E+99

> <Gold.Protein.RotatedTorsions>
[ 6907 6896 6895 6894 ] final  162.91 input  -60.11 | X-H torsion
[ 7974 7965 7964 7962 ] final  -25.33 input  175.53 | X-H torsion
[ 8008 7997 7996 7995 ] final  -34.93 input   59.86 | X-H torsion
[ 10167 10162 10161 10158 ] final   -6.79 input  -65.29 | X-H torsion
[ 10718 10713 10712 10709 ] final -136.68 input   66.30 | X-H torsion
[ 10763 10752 10751 10750 ] final  174.41 input  -60.55 | X-H torsion
[ 11005 11000 10999 10996 ] final  -87.50 input  -57.11 | X-H torsion

> <Gold.Protein.ActiveResidues>
 VAL166  LYS551  ARG553  GLY616  TRP617  ASP618  TYR619  PRO620  LYS621  CYS622 
 ASP623  PHE694  ASN695  SER759  ASP760  ASP761  ALA762  ILE779  LEU786  VAL792 
 PHE793  MET794  SER795  GLU796  ALA797  LYS798  CYS799  TRP800  GLU811  SER814 

> <Gold.Protein.RotatedAtoms>
  151.9333  133.3617  159.3938 H   0  0  0  0  0  0  0  0  0  0  0  0  # atno 6907 bound_to 6896
  150.7013  134.4515  159.5348 H   0  0  0  0  0  0  0  0  0  0  0  0  # atno 6908 bound_to 6896
  152.2159  134.8458  160.0542 H   0  0  0  0  0  0  0  0  0  0  0  0  # atno 6909 bound_to 6896
  146.1498  140.4872  142.8616 H   0  0  0  0  0  0  0  0  0  0  0  0  # atno 7974 bound_to 7965
  154.4108  140.1671  156.2130 H   0  0  0  0  0  0  0  0  0  0  0  0  # atno 8008 bound_to 7997
  155.9428  140.3407  155.6319 H   0  0  0  0  0  0  0  0  0  0  0  0  # atno 8009 bound_to 7997
  155.6967  140.0740  157.2417 H   0  0  0  0  0  0  0  0  0  0  0  0  # atno 8010 bound_to 7997
  140.7008  143.6154  150.8664 H   0  0  0  0  0  0  0  0  0  0  0  0  # atno 10167 bound_to 10162
  156.2797  130.7313  151.1307 H   0  0  0  0  0  0  0  0  0  0  0  0  # atno 10718 bound_to 10713
  154.4535  135.2765  155.1764 H   0  0  0  0  0  0  0  0  0  0  0  0  # atno 10763 bound_to 10752
  154.3582  135.6135  153.5680 H   0  0  0  0  0  0  0  0  0  0  0  0  # atno 10764 bound_to 10752
  152.9849  135.5828  154.4883 H   0  0  0  0  0  0  0  0  0  0  0  0  # atno 10765 bound_to 10752
  141.1616  133.7515  156.9316 H   0  0  0  0  0  0  0  0  0  0  0  0  # atno 11005 bound_to 11000
  144.7890  140.5993  143.6554 LP  0  0  0  0  0  0  0  0  0  0  0  0  # atno 17320 bound_to 7965
  145.4851  139.1492  143.3740 LP  0  0  0  0  0  0  0  0  0  0  0  0  # atno 17321 bound_to 7965
  139.9876  143.5883  152.2921 LP  0  0  0  0  0  0  0  0  0  0  0  0  # atno 17342 bound_to 10162
  139.6526  144.7661  151.2118 LP  0  0  0  0  0  0  0  0  0  0  0  0  # atno 17343 bound_to 10162
  157.7310  131.0611  150.5697 LP  0  0  0  0  0  0  0  0  0  0  0  0  # atno 17370 bound_to 10713
  156.5802  130.4302  149.5981 LP  0  0  0  0  0  0  0  0  0  0  0  0  # atno 17371 bound_to 10713
  140.1383  134.9311  157.2431 LP  0  0  0  0  0  0  0  0  0  0  0  0  # atno 17394 bound_to 11000
  140.2868  134.3286  155.7326 LP  0  0  0  0  0  0  0  0  0  0  0  0  # atno 17395 bound_to 11000

$$$$
