AV-unprocessed.smi:2003|AV-procd|sdf|8117|dock2
  -GOLD-   2272010353D 1   1.00000     0.00000
 Structure written by MMmdl.
 43 44  0  0  0  0  0  0  0  0  1 V2000
  143.6513  131.8420  150.7488 C   0  0  0  0  0  0  0  0  0  0  0  0
  143.6893  133.2726  151.1989 C   0  0  0  0  0  0  0  0  0  0  0  0
  144.5957  134.2959  150.7955 C   0  0  0  0  0  0  0  0  0  0  0  0
  144.1666  135.3782  151.5141 C   0  0  0  0  0  0  0  0  0  0  0  0
  144.6630  136.6436  151.5333 N   0  0  0  0  0  0  0  0  0  0  0  0
  145.6260  137.1571  152.3182 C   0  0  0  0  0  0  0  0  0  0  0  0
  146.2461  136.5429  153.1864 O   0  0  0  0  0  0  0  0  0  0  0  0
  145.8403  138.4481  152.0360 N   0  0  0  0  0  0  0  0  0  0  0  0
  146.8337  139.2860  152.6981 C   0  0  0  0  0  0  0  0  0  0  0  0
  146.7769  139.1299  154.2382 C   0  0  2  0  0  0  0  0  0  0  0  0
  145.5622  139.9330  154.7568 C   0  0  0  0  0  0  0  0  0  0  0  0
  148.0433  139.4695  154.9234 N   0  0  0  0  0  0  0  0  0  0  0  0
  148.4412  140.8647  154.7123 C   0  0  0  0  0  0  0  0  0  0  0  0
  149.7652  141.2136  155.4135 C   0  0  0  0  0  0  0  0  0  0  0  0
  150.7900  140.3371  154.9636 O   0  0  0  0  0  0  0  0  0  0  0  0
  150.4761  138.9725  155.2085 C   0  0  0  0  0  0  0  0  0  0  0  0
  149.1555  138.6102  154.5075 C   0  0  0  0  0  0  0  0  0  0  0  0
  143.0854  135.0034  152.2803 N   0  0  0  0  0  0  0  0  0  0  0  0
  142.2912  135.7933  153.2009 C   0  0  0  0  0  0  0  0  0  0  0  0
  142.7937  133.6997  152.0819 N   0  0  0  0  0  0  0  0  0  0  0  0
  144.4347  131.6381  150.0188 H   0  0  0  0  0  0  0  0  0  0  0  0
  142.6948  131.6015  150.2842 H   0  0  0  0  0  0  0  0  0  0  0  0
  143.7961  131.1623  151.5888 H   0  0  0  0  0  0  0  0  0  0  0  0
  145.4152  134.2252  150.0964 H   0  0  0  0  0  0  0  0  0  0  0  0
  144.2523  137.2764  150.8626 H   0  0  0  0  0  0  0  0  0  0  0  0
  145.2939  138.8809  151.3055 H   0  0  0  0  0  0  0  0  0  0  0  0
  147.8254  139.0134  152.3333 H   0  0  0  0  0  0  0  0  0  0  0  0
  146.6961  140.3262  152.4018 H   0  0  0  0  0  0  0  0  0  0  0  0
  146.5608  138.0784  154.4337 H   0  0  0  0  0  0  0  0  0  0  0  0
  144.6724  139.7352  154.1586 H   0  0  0  0  0  0  0  0  0  0  0  0
  145.7485  141.0070  154.7237 H   0  0  0  0  0  0  0  0  0  0  0  0
  145.3019  139.6675  155.7808 H   0  0  0  0  0  0  0  0  0  0  0  0
  148.5339  141.0654  153.6438 H   0  0  0  0  0  0  0  0  0  0  0  0
  147.6805  141.5426  155.0960 H   0  0  0  0  0  0  0  0  0  0  0  0
  150.0529  142.2413  155.1911 H   0  0  0  0  0  0  0  0  0  0  0  0
  149.6599  141.1380  156.4970 H   0  0  0  0  0  0  0  0  0  0  0  0
  151.2871  138.3480  154.8335 H   0  0  0  0  0  0  0  0  0  0  0  0
  150.4052  138.7943  156.2826 H   0  0  0  0  0  0  0  0  0  0  0  0
  148.9398  137.5675  154.7358 H   0  0  0  0  0  0  0  0  0  0  0  0
  149.2895  138.6760  153.4266 H   0  0  0  0  0  0  0  0  0  0  0  0
  142.9211  136.1439  154.0189 H   0  0  0  0  0  0  0  0  0  0  0  0
  141.4742  135.1987  153.6121 H   0  0  0  0  0  0  0  0  0  0  0  0
  141.8728  136.6538  152.6781 H   0  0  0  0  0  0  0  0  0  0  0  0
  1  2  1  0  0  0  0
  1 21  1  0  0  0  0
  1 22  1  0  0  0  0
  1 23  1  0  0  0  0
  2 20  2  0  0  0  0
  2  3  1  0  0  0  0
  3  4  2  0  0  0  0
  3 24  1  0  0  0  0
  4  5  1  0  0  0  0
  4 18  1  0  0  0  0
  5  6  1  0  0  0  0
  5 25  1  0  0  0  0
  6  7  2  0  0  0  0
  6  8  1  0  0  0  0
  8  9  1  0  0  0  0
  8 26  1  0  0  0  0
  9 10  1  0  0  0  0
  9 27  1  0  0  0  0
  9 28  1  0  0  0  0
 10 11  1  0  0  0  0
 10 12  1  0  0  0  0
 10 29  1  0  0  0  0
 11 30  1  0  0  0  0
 11 31  1  0  0  0  0
 11 32  1  0  0  0  0
 12 17  1  0  0  0  0
 12 13  1  0  0  0  0
 13 14  1  0  0  0  0
 13 33  1  0  0  0  0
 13 34  1  0  0  0  0
 14 15  1  0  0  0  0
 14 35  1  0  0  0  0
 14 36  1  0  0  0  0
 15 16  1  0  0  0  0
 16 17  1  0  0  0  0
 16 37  1  0  0  0  0
 16 38  1  0  0  0  0
 17 39  1  0  0  0  0
 17 40  1  0  0  0  0
 18 19  1  0  0  0  0
 18 20  1  0  0  0  0
 19 41  1  0  0  0  0
 19 42  1  0  0  0  0
 19 43  1  0  0  0  0
M  END
> <s_m_source_file>
AV-unprocessed.smi

> <i_m_source_file_index>
2003

> <i_lp_mmshare_version>
43012

> <i_f3d_flags>
0

> <s_epik_input>
W0NIM11jMVtjSF1jKG4objEpW0NIM10pW05IXUMoPU8pW05IXVtDSDJdW0NASF0oW0NIM10pTjJbQ0gyXVtDSDJdT1tDSDJdW0NIMl0y

> <s_epik_cmdline>
J2VwaWtfcHl0aG9uJywgJy1waCcsICc3LjAnLCAnLXRuJywgJzgnLCAnLW1hJywgJzIwMCcsICctbWV0YWxfYmluZGluZycsICctaW1hZScsICc8aW5maWxlLm1hZT4nLCAnLW9tYWUnLCAnPG91dGZpbGUubWFlPic=

> <r_lp_tautomer_probability>
1

> <r_epik_Ionization_Penalty>
0.233974

> <r_epik_Ionization_Penalty_Charging>
0

> <r_epik_Ionization_Penalty_Neutral>
0.233974

> <r_epik_State_Penalty>
0.224627

> <r_epik_Charging_Adjusted_Penalty>
0.224627

> <i_epik_Tot_Q>
0

> <i_epik_Tot_abs_Q>
0

> <r_epik_Metal_State_Penalty>
0.224624

> <b_epik_Metal_Only>
0

> <s_lp_Force_Field>
OPLS_2005

> <r_lp_Energy>
33.8314

> <b_lp_Chiralities_Consistent>
1

> <s_lp_Variant>
AV-unprocessed.smi:2003-1

> <Gold.Version>
5.8.1

> <Gold.Id.Protein>
6NUR|6NUR_protein|mol2

> <Gold.PLP.Fitness>
40.4616

> <Gold.PLP.PLP>
-33.8011

> <Gold.PLP.part.hbond>
-3.8357

> <Gold.PLP.part.metal>
0.0000

> <Gold.PLP.part.buried>
-5.6737

> <Gold.PLP.part.nonpolar>
-26.9840

> <Gold.PLP.part.repulsive>
2.1920

> <Gold.PLP.ligand.clash>
0.0000

> <Gold.PLP.ligand.torsion>
1.0354

> <Gold.PLP.Chemscore.Hbond>
2.8882

> <Gold.PLP.Chemscore.CHOScore>
0.0000

> <Gold.PLP.Chemscore.Metal>
0.0000

> <Gold.Chemscore.Hbonds>
donor molecule, donor type, donor heavy atom, donor atom, acceptor molecule, acceptor atom, score
      L1  H     5    25       P1 10171  1.00
      L1  H     8    26       P1 10171  0.86
      P1  H  7989  7998       L1    15  1.00

> <Gold.PLP.Chemscore.Internal.Correction>
0.0669

> <Gold.Rescore>
     Score         DG    S(hbond)    S(metal)    S(lipo)     H(rot)  DE(clash)    DE(int)     intcor
     15.93     -18.84       2.84        0.00      65.66       1.49       0.37       2.53       ----

> <Gold.Chemscore.Fitness>
15.9313

> <Gold.Chemscore.DG>
-18.8353

> <Gold.Chemscore.ZeroCoef>
-5.4800

> <Gold.Chemscore.Hbond>
2.8434

> <Gold.Chemscore.Metal>
0.0000

> <Gold.Chemscore.Lipo>
65.6637

> <Gold.Chemscore.Internal_Hbond>
0.0000

> <Gold.Chemscore.DEClash>
0.3700

> <Gold.Chemscore.DEInternal>
2.5340

> <Gold.Chemscore.Rot>
1.4938

> <Gold.Chemscore.Internal.Correction>
   9.000000E+99

> <Gold.Chemscore.Hbonds>
donor molecule, donor type, donor heavy atom, donor atom, acceptor molecule, acceptor atom, score
      L1  H     5    25       P1 10171  1.00
      L1  H     8    26       P1 10171  0.79
      P1  H  7989  7998       L1    15  0.87

> <Gold.Chemscore.Hbond.Weighted>
-9.4968

> <Gold.Chemscore.Metal.Weighted>
-0.0000

> <Gold.Chemscore.Lipo.Weighted>
-7.6826

> <Gold.Chemscore.Internal_Hbond.Weighted>
0.0000

> <Gold.Chemscore.DEClash.Weighted>
0.3700

> <Gold.Chemscore.DEInternal.Weighted>
2.5340

> <Gold.Chemscore.Rot.Weighted>
3.8242

> <Gold.Chemscore.Internal.Correction.Weighted>
   9.000000E+99

> <Gold.Protein.RotatedTorsions>
[ 6907 6896 6895 6894 ] final  174.71 input  -60.11 | X-H torsion
[ 7974 7965 7964 7962 ] final  -66.58 input  175.53 | X-H torsion
[ 8008 7997 7996 7995 ] final   38.97 input   59.86 | X-H torsion
[ 10167 10162 10161 10158 ] final -157.70 input  -65.29 | X-H torsion
[ 10718 10713 10712 10709 ] final -115.41 input   66.30 | X-H torsion
[ 10763 10752 10751 10750 ] final  153.80 input  -60.55 | X-H torsion
[ 11005 11000 10999 10996 ] final   35.01 input  -57.11 | X-H torsion

> <Gold.Protein.ActiveResidues>
 VAL166  LYS551  ARG553  GLY616  TRP617  ASP618  TYR619  PRO620  LYS621  CYS622 
 ASP623  PHE694  ASN695  SER759  ASP760  ASP761  ALA762  ILE779  LEU786  VAL792 
 PHE793  MET794  SER795  GLU796  ALA797  LYS798  CYS799  TRP800  GLU811  SER814 

> <Gold.Protein.RotatedAtoms>
  151.7479  133.3325  159.3383 H   0  0  0  0  0  0  0  0  0  0  0  0  # atno 6907 bound_to 6896
  150.7547  134.6218  159.6149 H   0  0  0  0  0  0  0  0  0  0  0  0  # atno 6908 bound_to 6896
  152.3487  134.7037  160.0294 H   0  0  0  0  0  0  0  0  0  0  0  0  # atno 6909 bound_to 6896
  145.7400  140.8958  143.0535 H   0  0  0  0  0  0  0  0  0  0  0  0  # atno 7974 bound_to 7965
  155.2289  140.3336  155.4306 H   0  0  0  0  0  0  0  0  0  0  0  0  # atno 8008 bound_to 7997
  156.2303  140.1847  156.7305 H   0  0  0  0  0  0  0  0  0  0  0  0  # atno 8009 bound_to 7997
  154.5967  140.0629  156.9298 H   0  0  0  0  0  0  0  0  0  0  0  0  # atno 8010 bound_to 7997
  139.6749  143.9680  152.2305 H   0  0  0  0  0  0  0  0  0  0  0  0  # atno 10167 bound_to 10162
  156.0894  130.6079  150.8902 H   0  0  0  0  0  0  0  0  0  0  0  0  # atno 10718 bound_to 10713
  154.1420  135.2820  155.3158 H   0  0  0  0  0  0  0  0  0  0  0  0  # atno 10763 bound_to 10752
  154.6280  135.5445  153.7652 H   0  0  0  0  0  0  0  0  0  0  0  0  # atno 10764 bound_to 10752
  153.0248  135.6455  154.1566 H   0  0  0  0  0  0  0  0  0  0  0  0  # atno 10765 bound_to 10752
  140.2470  134.3348  155.7904 H   0  0  0  0  0  0  0  0  0  0  0  0  # atno 11005 bound_to 11000
  144.6873  139.9447  143.7476 LP  0  0  0  0  0  0  0  0  0  0  0  0  # atno 17320 bound_to 7965
  146.0457  139.3463  143.0670 LP  0  0  0  0  0  0  0  0  0  0  0  0  # atno 17321 bound_to 7965
  139.9455  144.6654  150.8224 LP  0  0  0  0  0  0  0  0  0  0  0  0  # atno 17342 bound_to 10162
  140.7632  143.3216  151.2608 LP  0  0  0  0  0  0  0  0  0  0  0  0  # atno 17343 bound_to 10162
  157.6038  131.0940  150.8914 LP  0  0  0  0  0  0  0  0  0  0  0  0  # atno 17370 bound_to 10713
  156.9066  130.5266  149.5281 LP  0  0  0  0  0  0  0  0  0  0  0  0  # atno 17371 bound_to 10713
  141.2205  133.7331  156.8976 LP  0  0  0  0  0  0  0  0  0  0  0  0  # atno 17394 bound_to 11000
  140.1596  134.9174  157.2698 LP  0  0  0  0  0  0  0  0  0  0  0  0  # atno 17395 bound_to 11000

$$$$
