AV-unprocessed.smi:301|AV-procd|sdf|2270|dock7
  -GOLD-   2262022163D 1   1.00000     0.00000
 Structure written by MMmdl.
 32 33  0  0  0  0  0  0  0  0  1 V2000
  146.0761  137.7690  156.3386 C   0  0  0  0  0  0  0  0  0  0  0  0
  146.6506  138.6341  155.2695 C   0  0  0  0  0  0  0  0  0  0  0  0
  147.3356  139.7539  155.5141 N   0  0  0  0  0  0  0  0  0  0  0  0
  147.7621  140.3930  154.3446 C   0  0  0  0  0  0  0  0  0  0  0  0
  148.5465  141.6705  154.4319 C   0  0  0  0  0  0  0  0  0  0  0  0
  149.8002  141.4801  155.2909 C   0  0  0  0  0  0  0  0  0  0  0  0
  150.5340  140.5073  155.1119 O   0  0  0  0  0  0  0  0  0  0  0  0
  150.0400  142.4211  156.2172 N   0  0  0  0  0  0  0  0  0  0  0  0
  151.1854  142.4356  157.1200 C   0  0  0  0  0  0  0  0  0  0  0  0
  151.3352  143.7948  157.8234 C   0  0  2  0  0  0  0  0  0  0  0  0
  152.5169  143.8646  158.7848 C   0  0  0  0  0  0  0  0  0  0  0  0
  152.1307  145.0387  159.6586 C   0  0  0  0  0  0  0  0  0  0  0  0
  150.6046  144.9383  159.7153 C   0  0  0  0  0  0  0  0  0  0  0  0
  150.2184  144.0550  158.6643 O   0  0  0  0  0  0  0  0  0  0  0  0
  147.3954  139.7257  153.2014 C   0  0  0  0  0  0  0  0  0  0  0  0
  146.4894  138.2799  153.5538 S   0  0  0  0  0  0  0  0  0  0  0  0
  146.4526  138.0664  157.3178 H   0  0  0  0  0  0  0  0  0  0  0  0
  146.3475  136.7280  156.1624 H   0  0  0  0  0  0  0  0  0  0  0  0
  144.9893  137.8534  156.3406 H   0  0  0  0  0  0  0  0  0  0  0  0
  148.8549  142.0057  153.4409 H   0  0  0  0  0  0  0  0  0  0  0  0
  147.9255  142.4668  154.8450 H   0  0  0  0  0  0  0  0  0  0  0  0
  149.3914  143.1913  156.2923 H   0  0  0  0  0  0  0  0  0  0  0  0
  151.0538  141.6435  157.8577 H   0  0  0  0  0  0  0  0  0  0  0  0
  152.0942  142.1945  156.5661 H   0  0  0  0  0  0  0  0  0  0  0  0
  151.4181  144.6022  157.0934 H   0  0  0  0  0  0  0  0  0  0  0  0
  152.5779  142.9554  159.3849 H   0  0  0  0  0  0  0  0  0  0  0  0
  153.4713  144.0060  158.2769 H   0  0  0  0  0  0  0  0  0  0  0  0
  152.5963  145.0069  160.6441 H   0  0  0  0  0  0  0  0  0  0  0  0
  152.4245  145.9716  159.1752 H   0  0  0  0  0  0  0  0  0  0  0  0
  150.2696  144.5245  160.6667 H   0  0  0  0  0  0  0  0  0  0  0  0
  150.1374  145.9154  159.5884 H   0  0  0  0  0  0  0  0  0  0  0  0
  147.5989  139.9992  152.1767 H   0  0  0  0  0  0  0  0  0  0  0  0
  1  2  1  0  0  0  0
  1 17  1  0  0  0  0
  1 18  1  0  0  0  0
  1 19  1  0  0  0  0
  2 16  1  0  0  0  0
  2  3  2  0  0  0  0
  3  4  1  0  0  0  0
  4  5  1  0  0  0  0
  4 15  2  0  0  0  0
  5  6  1  0  0  0  0
  5 20  1  0  0  0  0
  5 21  1  0  0  0  0
  6  7  2  0  0  0  0
  6  8  1  0  0  0  0
  8  9  1  0  0  0  0
  8 22  1  0  0  0  0
  9 10  1  0  0  0  0
  9 23  1  0  0  0  0
  9 24  1  0  0  0  0
 10 14  1  0  0  0  0
 10 11  1  0  0  0  0
 10 25  1  0  0  0  0
 11 12  1  0  0  0  0
 11 26  1  0  0  0  0
 11 27  1  0  0  0  0
 12 13  1  0  0  0  0
 12 28  1  0  0  0  0
 12 29  1  0  0  0  0
 13 14  1  0  0  0  0
 13 30  1  0  0  0  0
 13 31  1  0  0  0  0
 15 16  1  0  0  0  0
 15 32  1  0  0  0  0
M  END
> <s_m_source_file>
AV-unprocessed.smi

> <i_m_source_file_index>
301

> <i_lp_mmshare_version>
43012

> <i_f3d_flags>
0

> <s_epik_input>
W0NIM11jMW5jKFtjSF1zMSlbQ0gyXUMoPU8pW05IXVtDSDJdW0NAQEhdMltDSDJdW0NIMl1bQ0gyXU8y

> <s_epik_cmdline>
J2VwaWtfcHl0aG9uJywgJy1waCcsICc3LjAnLCAnLXRuJywgJzgnLCAnLW1hJywgJzIwMCcsICctbWV0YWxfYmluZGluZycsICctaW1hZScsICc8aW5maWxlLm1hZT4nLCAnLW9tYWUnLCAnPG91dGZpbGUubWFlPic=

> <r_lp_tautomer_probability>
1

> <r_epik_Ionization_Penalty>
6.06873e-05

> <r_epik_Ionization_Penalty_Charging>
0

> <r_epik_Ionization_Penalty_Neutral>
6.06873e-05

> <r_epik_State_Penalty>
-0

> <r_epik_Charging_Adjusted_Penalty>
0

> <i_epik_Tot_Q>
0

> <i_epik_Tot_abs_Q>
0

> <r_epik_Metal_State_Penalty>
-0

> <b_epik_Metal_Only>
0

> <s_lp_Force_Field>
OPLS_2005

> <r_lp_Energy>
15.97

> <b_lp_Chiralities_Consistent>
1

> <s_lp_Variant>
AV-unprocessed.smi:301-1

> <Gold.Version>
5.8.1

> <Gold.Id.Protein>
6NUR|6NUR_protein|mol2

> <Gold.PLP.Fitness>
39.3967

> <Gold.PLP.PLP>
-30.9111

> <Gold.PLP.part.hbond>
-2.0000

> <Gold.PLP.part.metal>
0.0000

> <Gold.PLP.part.buried>
-3.4755

> <Gold.PLP.part.nonpolar>
-25.8956

> <Gold.PLP.part.repulsive>
0.3704

> <Gold.PLP.ligand.clash>
0.0000

> <Gold.PLP.ligand.torsion>
0.2390

> <Gold.PLP.Chemscore.Hbond>
2.0000

> <Gold.PLP.Chemscore.CHOScore>
0.9837

> <Gold.PLP.Chemscore.Metal>
0.0000

> <Gold.Chemscore.Hbonds>
donor molecule, donor type, donor heavy atom, donor atom, acceptor molecule, acceptor atom, score
      L1  H     8    22       P1  8028  0.94
      P1  H  7989  7998       L1     7  0.99
      L1  C    15    32       P1  7957  0.96

> <Gold.PLP.Chemscore.Internal.Correction>
0.0126

> <Gold.Rescore>
     Score         DG    S(hbond)    S(metal)    S(lipo)     H(rot)  DE(clash)    DE(int)     intcor
     16.59     -16.86       1.68        0.00      82.37       1.51       0.07       0.19       ----

> <Gold.Chemscore.Fitness>
16.5925

> <Gold.Chemscore.DG>
-16.8569

> <Gold.Chemscore.ZeroCoef>
-5.4800

> <Gold.Chemscore.Hbond>
1.6785

> <Gold.Chemscore.Metal>
0.0000

> <Gold.Chemscore.Lipo>
82.3741

> <Gold.Chemscore.Internal_Hbond>
0.0000

> <Gold.Chemscore.DEClash>
0.0729

> <Gold.Chemscore.DEInternal>
0.1914

> <Gold.Chemscore.Rot>
1.5106

> <Gold.Chemscore.Internal.Correction>
   9.000000E+99

> <Gold.Chemscore.Hbonds>
donor molecule, donor type, donor heavy atom, donor atom, acceptor molecule, acceptor atom, score
      L1  H     8    22       P1  8028  0.91
      P1  H  7989  7998       L1     7  0.55

> <Gold.Chemscore.Hbond.Weighted>
-5.6061

> <Gold.Chemscore.Metal.Weighted>
-0.0000

> <Gold.Chemscore.Lipo.Weighted>
-9.6378

> <Gold.Chemscore.Internal_Hbond.Weighted>
0.0000

> <Gold.Chemscore.DEClash.Weighted>
0.0729

> <Gold.Chemscore.DEInternal.Weighted>
0.1914

> <Gold.Chemscore.Rot.Weighted>
3.8670

> <Gold.Chemscore.Internal.Correction.Weighted>
   9.000000E+99

> <Gold.Protein.RotatedTorsions>
[ 6907 6896 6895 6894 ] final   68.41 input  -60.11 | X-H torsion
[ 7974 7965 7964 7962 ] final   55.25 input  175.53 | X-H torsion
[ 8008 7997 7996 7995 ] final -168.75 input   59.86 | X-H torsion
[ 10167 10162 10161 10158 ] final -112.22 input  -65.29 | X-H torsion
[ 10718 10713 10712 10709 ] final    6.72 input   66.30 | X-H torsion
[ 10763 10752 10751 10750 ] final -107.47 input  -60.55 | X-H torsion
[ 11005 11000 10999 10996 ] final   87.29 input  -57.11 | X-H torsion

> <Gold.Protein.ActiveResidues>
 VAL166  LYS551  ARG553  GLY616  TRP617  ASP618  TYR619  PRO620  LYS621  CYS622 
 ASP623  PHE694  ASN695  SER759  ASP760  ASP761  ALA762  ILE779  LEU786  VAL792 
 PHE793  MET794  SER795  GLU796  ALA797  LYS798  CYS799  TRP800  GLU811  SER814 

> <Gold.Protein.RotatedAtoms>
  152.4618  134.5166  159.9769 H   0  0  0  0  0  0  0  0  0  0  0  0  # atno 6907 bound_to 6896
  151.5213  133.3460  159.2910 H   0  0  0  0  0  0  0  0  0  0  0  0  # atno 6908 bound_to 6896
  150.8585  134.7959  159.7126 H   0  0  0  0  0  0  0  0  0  0  0  0  # atno 6909 bound_to 6896
  145.9523  139.3984  143.0298 H   0  0  0  0  0  0  0  0  0  0  0  0  # atno 7974 bound_to 7965
  155.8956  140.1032  157.1387 H   0  0  0  0  0  0  0  0  0  0  0  0  # atno 8008 bound_to 7997
  154.4020  140.1302  156.4435 H   0  0  0  0  0  0  0  0  0  0  0  0  # atno 8009 bound_to 7997
  155.7483  140.3465  155.5140 H   0  0  0  0  0  0  0  0  0  0  0  0  # atno 8010 bound_to 7997
  140.1251  143.4410  152.1665 H   0  0  0  0  0  0  0  0  0  0  0  0  # atno 10167 bound_to 10162
  156.9263  130.5809  149.5648 H   0  0  0  0  0  0  0  0  0  0  0  0  # atno 10718 bound_to 10713
  154.8077  135.4673  154.0435 H   0  0  0  0  0  0  0  0  0  0  0  0  # atno 10763 bound_to 10752
  153.1891  135.6852  153.8383 H   0  0  0  0  0  0  0  0  0  0  0  0  # atno 10764 bound_to 10752
  153.7907  135.3243  155.3355 H   0  0  0  0  0  0  0  0  0  0  0  0  # atno 10765 bound_to 10752
  139.8923  134.8412  156.2840 H   0  0  0  0  0  0  0  0  0  0  0  0  # atno 11005 bound_to 11000
  145.8153  140.9706  143.0927 LP  0  0  0  0  0  0  0  0  0  0  0  0  # atno 17320 bound_to 7965
  144.6798  139.9973  143.7484 LP  0  0  0  0  0  0  0  0  0  0  0  0  # atno 17321 bound_to 7965
  139.5549  144.7365  151.4325 LP  0  0  0  0  0  0  0  0  0  0  0  0  # atno 17342 bound_to 10162
  140.6850  143.7995  150.7173 LP  0  0  0  0  0  0  0  0  0  0  0  0  # atno 17343 bound_to 10162
  156.0468  130.5543  150.8898 LP  0  0  0  0  0  0  0  0  0  0  0  0  # atno 17370 bound_to 10713
  157.5875  131.0945  150.9172 LP  0  0  0  0  0  0  0  0  0  0  0  0  # atno 17371 bound_to 10713
  141.0020  133.7146  156.0975 LP  0  0  0  0  0  0  0  0  0  0  0  0  # atno 17394 bound_to 11000
  140.7485  134.4072  157.5545 LP  0  0  0  0  0  0  0  0  0  0  0  0  # atno 17395 bound_to 11000

$$$$
