AV-unprocessed.smi:907|AV-procd|sdf|4110|dock3
  -GOLD-   22720 2 03D 1   1.00000     0.00000
 Structure written by MMmdl.
 54 57  0  0  0  0  0  0  0  0  3 V2000
  147.8765  140.9185  155.2100 O   0  0  0  0  0  0  0  0  0  0  0  0
  148.9439  140.3379  155.0092 C   0  0  0  0  0  0  0  0  0  0  0  0
  150.1126  140.8106  155.4760 N   0  0  0  0  0  0  0  0  0  0  0  0
  150.2612  142.0162  156.2836 C   0  0  0  0  0  0  0  0  0  0  0  0
  150.7770  141.6934  157.6962 C   0  0  0  0  0  0  0  0  0  0  0  0
  150.8571  142.9278  158.5726 C   0  0  0  0  0  0  0  0  0  0  0  0
  151.5292  142.9190  159.8140 C   0  0  0  0  0  0  0  0  0  0  0  0
  151.5759  144.1017  160.5810 C   0  0  0  0  0  0  0  0  0  0  0  0
  150.9512  145.2672  160.0904 C   0  0  0  0  0  0  0  0  0  0  0  0
  150.2965  145.2206  158.8425 C   0  0  0  0  0  0  0  0  0  0  0  0
  150.2737  144.0681  158.1369 N   0  3  0  0  0  0  0  0  0  0  0  0
  149.0463  139.2191  154.2495 N   0  0  0  0  0  0  0  0  0  0  0  0
  150.2819  138.4787  153.9632 C   0  0  0  0  0  0  0  0  0  0  0  0
  150.2972  137.1882  154.8041 C   0  0  0  0  0  0  0  0  0  0  0  0
  149.0829  136.3555  154.5646 N   0  3  0  0  0  0  0  0  0  0  0  0
  149.0809  135.1010  155.3711 C   0  0  2  0  0  0  0  0  0  0  0  0
  150.2869  134.1669  155.1038 C   0  0  0  0  0  0  0  0  0  0  0  0
  149.6235  132.7952  154.8761 C   0  0  2  0  0  0  0  0  0  0  0  0
  148.9920  132.7791  153.4738 C   0  0  0  0  0  0  0  0  0  0  0  0
  147.7922  133.7286  153.6380 C   0  0  0  0  0  0  0  0  0  0  0  0
  147.8827  134.1509  155.1211 C   0  0  1  0  0  0  0  0  0  0  0  0
  148.3916  132.8686  155.7707 C   0  0  0  0  0  0  0  0  0  0  0  0
  147.8256  137.1452  154.7032 C   0  0  0  0  0  0  0  0  0  0  0  0
  147.8712  138.4347  153.8644 C   0  0  0  0  0  0  0  0  0  0  0  0
  150.9552  140.3005  155.2535 H   0  0  0  0  0  0  0  0  0  0  0  0
  150.9351  142.7135  155.7826 H   0  0  0  0  0  0  0  0  0  0  0  0
  149.2916  142.5116  156.3427 H   0  0  0  0  0  0  0  0  0  0  0  0
  150.1286  140.9573  158.1737 H   0  0  0  0  0  0  0  0  0  0  0  0
  151.7678  141.2398  157.6443 H   0  0  0  0  0  0  0  0  0  0  0  0
  152.0056  142.0186  160.1743 H   0  0  0  0  0  0  0  0  0  0  0  0
  152.0857  144.1145  161.5333 H   0  0  0  0  0  0  0  0  0  0  0  0
  150.9756  146.1832  160.6626 H   0  0  0  0  0  0  0  0  0  0  0  0
  149.7946  146.0638  158.3910 H   0  0  0  0  0  0  0  0  0  0  0  0
  150.3106  138.2307  152.9010 H   0  0  0  0  0  0  0  0  0  0  0  0
  151.1916  139.0481  154.1537 H   0  0  0  0  0  0  0  0  0  0  0  0
  151.2002  136.6264  154.5686 H   0  0  0  0  0  0  0  0  0  0  0  0
  150.3547  137.4430  155.8637 H   0  0  0  0  0  0  0  0  0  0  0  0
  149.0789  135.3824  156.4261 H   0  0  0  0  0  0  0  0  0  0  0  0
  150.8826  134.4578  154.2380 H   0  0  0  0  0  0  0  0  0  0  0  0
  150.9501  134.1437  155.9696 H   0  0  0  0  0  0  0  0  0  0  0  0
  150.2846  131.9493  155.0668 H   0  0  0  0  0  0  0  0  0  0  0  0
  149.6849  133.1108  152.6994 H   0  0  0  0  0  0  0  0  0  0  0  0
  148.6544  131.7756  153.2111 H   0  0  0  0  0  0  0  0  0  0  0  0
  147.8342  134.5731  152.9501 H   0  0  0  0  0  0  0  0  0  0  0  0
  146.8596  133.1960  153.4471 H   0  0  0  0  0  0  0  0  0  0  0  0
  146.9396  134.5100  155.5341 H   0  0  0  0  0  0  0  0  0  0  0  0
  147.7149  132.0212  155.6459 H   0  0  0  0  0  0  0  0  0  0  0  0
  148.6314  132.9809  156.8297 H   0  0  0  0  0  0  0  0  0  0  0  0
  146.9670  136.5563  154.3824 H   0  0  0  0  0  0  0  0  0  0  0  0
  147.6670  137.3919  155.7545 H   0  0  0  0  0  0  0  0  0  0  0  0
  146.9389  138.9893  153.9802 H   0  0  0  0  0  0  0  0  0  0  0  0
  147.9354  138.1891  152.8032 H   0  0  0  0  0  0  0  0  0  0  0  0
  149.1230  136.0696  153.5969 H   0  0  0  0  0  0  0  0  0  0  0  0
  149.7945  144.0580  157.2365 H   0  0  0  0  0  0  0  0  0  0  0  0
  1  2  2  0  0  0  0
  2  3  1  0  0  0  0
  2 12  1  0  0  0  0
  3  4  1  0  0  0  0
  3 25  1  0  0  0  0
  4  5  1  0  0  0  0
  4 26  1  0  0  0  0
  4 27  1  0  0  0  0
  5  6  1  0  0  0  0
  5 28  1  0  0  0  0
  5 29  1  0  0  0  0
  6 11  1  0  0  0  0
  6  7  2  0  0  0  0
  7  8  1  0  0  0  0
  7 30  1  0  0  0  0
  8  9  2  0  0  0  0
  8 31  1  0  0  0  0
  9 10  1  0  0  0  0
  9 32  1  0  0  0  0
 10 11  2  0  0  0  0
 10 33  1  0  0  0  0
 11 54  1  0  0  0  0
 12 24  1  0  0  0  0
 12 13  1  0  0  0  0
 13 14  1  0  0  0  0
 13 34  1  0  0  0  0
 13 35  1  0  0  0  0
 14 15  1  0  0  0  0
 14 36  1  0  0  0  0
 14 37  1  0  0  0  0
 15 16  1  0  0  0  0
 15 23  1  0  0  0  0
 15 53  1  0  0  0  0
 16 21  1  0  0  0  0
 16 17  1  0  0  0  0
 16 38  1  0  0  0  0
 17 18  1  0  0  0  0
 17 39  1  0  0  0  0
 17 40  1  0  0  0  0
 18 22  1  0  0  0  0
 18 19  1  0  0  0  0
 18 41  1  0  0  0  0
 19 20  1  0  0  0  0
 19 42  1  0  0  0  0
 19 43  1  0  0  0  0
 20 21  1  0  0  0  0
 20 44  1  0  0  0  0
 20 45  1  0  0  0  0
 21 22  1  0  0  0  0
 21 46  1  0  0  0  0
 22 47  1  0  0  0  0
 22 48  1  0  0  0  0
 23 24  1  0  0  0  0
 23 49  1  0  0  0  0
 23 50  1  0  0  0  0
 24 51  1  0  0  0  0
 24 52  1  0  0  0  0
M  CHG  1  11   1
M  CHG  1  15   1
M  END
> <s_m_source_file>
AV-unprocessed.smi

> <i_m_source_file_index>
907

> <i_lp_mmshare_version>
43012

> <i_f3d_flags>
0

> <s_epik_input>
W0NIMl0xW0NIMl1bQ0BASF0oW0NIMl0yKVtDQEBIXShbQ0gyXVtDQEhdMTIpTihbQ0gyXVtDSDJdMylbQ0gyXVtDSDJdTjNDKD1PKVtOSF1bQ0gyXVtDSDJdYzRbY0hdW2NIXVtjSF1bY0hdbjQ=

> <s_epik_cmdline>
J2VwaWtfcHl0aG9uJywgJy1waCcsICc3LjAnLCAnLXRuJywgJzgnLCAnLW1hJywgJzIwMCcsICctbWV0YWxfYmluZGluZycsICctaW1hZScsICc8aW5maWxlLm1hZT4nLCAnLW9tYWUnLCAnPG91dGZpbGUubWFlPic=

> <r_epik_Ionization_Penalty>
1.63018

> <r_epik_Ionization_Penalty_Charging>
1.63015

> <r_epik_Ionization_Penalty_Neutral>
2.64641e-05

> <r_epik_State_Penalty>
1.72761

> <r_epik_Charging_Adjusted_Penalty>
3.35777

> <i_epik_Tot_Q>
2

> <i_epik_Tot_abs_Q>
2

> <r_epik_Metal_State_Penalty>
1.76501

> <b_epik_Metal_Only>
0

> <s_lp_Force_Field>
OPLS_2005

> <r_lp_Energy>
102.759

> <b_lp_Chiralities_Consistent>
1

> <s_lp_Variant>
AV-unprocessed.smi:907-5

> <Gold.Version>
5.8.1

> <Gold.Id.Protein>
6NUR|6NUR_protein|mol2

> <Gold.PLP.Fitness>
54.6392

> <Gold.PLP.PLP>
-42.9519

> <Gold.PLP.part.hbond>
-2.0000

> <Gold.PLP.part.metal>
0.0000

> <Gold.PLP.part.buried>
-3.2469

> <Gold.PLP.part.nonpolar>
-37.1948

> <Gold.PLP.part.repulsive>
0.8727

> <Gold.PLP.ligand.clash>
0.0000

> <Gold.PLP.ligand.torsion>
0.2005

> <Gold.PLP.Chemscore.Hbond>
3.9825

> <Gold.PLP.Chemscore.CHOScore>
0.0000

> <Gold.PLP.Chemscore.Metal>
0.0000

> <Gold.Chemscore.Hbonds>
donor molecule, donor type, donor heavy atom, donor atom, acceptor molecule, acceptor atom, score
      L1  H    11    54       P1  8028  2.00
      L1  H    15    53       P1  7948  2.00

> <Gold.PLP.Chemscore.Internal.Correction>
0.1409

> <Gold.Rescore>
     Score         DG    S(hbond)    S(metal)    S(lipo)     H(rot)  DE(clash)    DE(int)     intcor
     21.32     -21.95       1.82        0.00     120.77       1.46       0.37       0.26       ----

> <Gold.Chemscore.Fitness>
21.3242

> <Gold.Chemscore.DG>
-21.9519

> <Gold.Chemscore.ZeroCoef>
-5.4800

> <Gold.Chemscore.Hbond>
1.8180

> <Gold.Chemscore.Metal>
0.0000

> <Gold.Chemscore.Lipo>
120.7711

> <Gold.Chemscore.Internal_Hbond>
0.0000

> <Gold.Chemscore.DEClash>
0.3689

> <Gold.Chemscore.DEInternal>
0.2588

> <Gold.Chemscore.Rot>
1.4572

> <Gold.Chemscore.Internal.Correction>
   9.000000E+99

> <Gold.Chemscore.Hbonds>
donor molecule, donor type, donor heavy atom, donor atom, acceptor molecule, acceptor atom, score
      L1  H    11    54       P1  8028  0.65
      L1  H    15    53       P1  7948  0.92

> <Gold.Chemscore.Hbond.Weighted>
-6.0723

> <Gold.Chemscore.Metal.Weighted>
-0.0000

> <Gold.Chemscore.Lipo.Weighted>
-14.1302

> <Gold.Chemscore.Internal_Hbond.Weighted>
0.0000

> <Gold.Chemscore.DEClash.Weighted>
0.3689

> <Gold.Chemscore.DEInternal.Weighted>
0.2588

> <Gold.Chemscore.Rot.Weighted>
3.7305

> <Gold.Chemscore.Internal.Correction.Weighted>
   9.000000E+99

> <Gold.Protein.RotatedTorsions>
[ 6907 6896 6895 6894 ] final   45.68 input  -60.11 | X-H torsion
[ 7974 7965 7964 7962 ] final  168.38 input  175.53 | X-H torsion
[ 8008 7997 7996 7995 ] final -143.98 input   59.86 | X-H torsion
[ 10167 10162 10161 10158 ] final  -11.51 input  -65.29 | X-H torsion
[ 10718 10713 10712 10709 ] final  -43.04 input   66.30 | X-H torsion
[ 10763 10752 10751 10750 ] final   21.36 input  -60.55 | X-H torsion
[ 11005 11000 10999 10996 ] final -130.93 input  -57.11 | X-H torsion

> <Gold.Protein.ActiveResidues>
 VAL166  LYS551  ARG553  GLY616  TRP617  ASP618  TYR619  PRO620  LYS621  CYS622 
 ASP623  PHE694  ASN695  SER759  ASP760  ASP761  ALA762  ILE779  LEU786  VAL792 
 PHE793  MET794  SER795  GLU796  ALA797  LYS798  CYS799  TRP800  GLU811  SER814 

> <Gold.Protein.RotatedAtoms>
  152.2475  134.8167  160.0450 H   0  0  0  0  0  0  0  0  0  0  0  0  # atno 6907 bound_to 6896
  151.8859  133.3500  159.3790 H   0  0  0  0  0  0  0  0  0  0  0  0  # atno 6908 bound_to 6896
  150.7073  134.4898  159.5554 H   0  0  0  0  0  0  0  0  0  0  0  0  # atno 6909 bound_to 6896
  144.7390  139.8899  143.6402 H   0  0  0  0  0  0  0  0  0  0  0  0  # atno 7974 bound_to 7965
  155.5195  140.0590  157.2909 H   0  0  0  0  0  0  0  0  0  0  0  0  # atno 8008 bound_to 7997
  154.4523  140.1955  156.0430 H   0  0  0  0  0  0  0  0  0  0  0  0  # atno 8009 bound_to 7997
  156.0729  140.3257  155.7601 H   0  0  0  0  0  0  0  0  0  0  0  0  # atno 8010 bound_to 7997
  140.7140  143.5632  150.9173 H   0  0  0  0  0  0  0  0  0  0  0  0  # atno 10167 bound_to 10162
  156.2532  130.4190  149.8626 H   0  0  0  0  0  0  0  0  0  0  0  0  # atno 10718 bound_to 10713
  153.1001  135.6670  153.9688 H   0  0  0  0  0  0  0  0  0  0  0  0  # atno 10763 bound_to 10752
  153.9261  135.3009  155.3448 H   0  0  0  0  0  0  0  0  0  0  0  0  # atno 10764 bound_to 10752
  154.7422  135.5074  153.9217 H   0  0  0  0  0  0  0  0  0  0  0  0  # atno 10765 bound_to 10752
  140.9302  134.1329  157.4241 H   0  0  0  0  0  0  0  0  0  0  0  0  # atno 11005 bound_to 11000
  146.1149  139.4159  143.0264 LP  0  0  0  0  0  0  0  0  0  0  0  0  # atno 17320 bound_to 7965
  145.7389  141.0015  143.1312 LP  0  0  0  0  0  0  0  0  0  0  0  0  # atno 17321 bound_to 7965
  139.9357  143.6440  152.3066 LP  0  0  0  0  0  0  0  0  0  0  0  0  # atno 17342 bound_to 10162
  139.6907  144.7647  151.1443 LP  0  0  0  0  0  0  0  0  0  0  0  0  # atno 17343 bound_to 10162
  156.6167  130.8609  151.3466 LP  0  0  0  0  0  0  0  0  0  0  0  0  # atno 17370 bound_to 10713
  157.7222  130.9574  150.1487 LP  0  0  0  0  0  0  0  0  0  0  0  0  # atno 17371 bound_to 10713
  139.8795  135.0002  156.5999 LP  0  0  0  0  0  0  0  0  0  0  0  0  # atno 17394 bound_to 11000
  140.7872  133.8612  155.8616 LP  0  0  0  0  0  0  0  0  0  0  0  0  # atno 17395 bound_to 11000

$$$$
