AV-unprocessed.smi:114|AV-procd|sdf|1121|dock9
  -GOLD-   2262018243D 1   1.00000     0.00000
 Structure written by MMmdl.
 32 34  0  0  0  0  0  0  0  0  1 V2000
  154.4407  137.0930  157.5870 N   0  0  0  0  0  0  0  0  0  0  0  0
  153.5196  138.0634  157.6653 C   0  0  0  0  0  0  0  0  0  0  0  0
  153.8191  139.1789  158.3690 N   0  0  0  0  0  0  0  0  0  0  0  0
  152.9286  140.1720  158.4678 C   0  0  0  0  0  0  0  0  0  0  0  0
  153.3081  141.2512  159.1913 F   0  0  0  0  0  0  0  0  0  0  0  0
  151.7043  140.2165  157.9335 N   0  0  0  0  0  0  0  0  0  0  0  0
  151.3904  139.0944  157.2216 C   0  0  0  0  0  0  0  0  0  0  0  0
  152.2499  137.9753  157.0439 C   0  0  0  0  0  0  0  0  0  0  0  0
  151.6247  137.0127  156.2670 N   0  0  0  0  0  0  0  0  0  0  0  0
  150.4626  137.5401  155.9949 C   0  0  0  0  0  0  0  0  0  0  0  0
  150.2246  138.7852  156.5370 N   0  0  0  0  0  0  0  0  0  0  0  0
  148.9782  139.6052  156.3340 C   0  0  2  0  0  0  0  0  0  0  0  0
  148.1049  138.8817  155.5281 O   0  0  0  0  0  0  0  0  0  0  0  0
  148.2642  139.2770  154.1737 C   0  0  1  0  0  0  0  0  0  0  0  0
  146.9910  138.9419  153.3828 C   0  0  0  0  0  0  0  0  0  0  0  0
  147.0527  139.5210  152.0968 O   0  0  0  0  0  0  0  0  0  0  0  0
  148.5337  140.7857  154.2863 C   0  0  2  0  0  0  0  0  0  0  0  0
  149.3758  141.2130  153.2345 O   0  0  0  0  0  0  0  0  0  0  0  0
  149.2265  140.9573  155.6420 C   0  0  1  0  0  0  0  0  0  0  0  0
  148.6291  142.0169  156.3620 O   0  0  0  0  0  0  0  0  0  0  0  0
  148.5658  139.7037  157.3393 H   0  0  0  0  0  0  0  0  0  0  0  0
  149.1243  138.7630  153.7441 H   0  0  0  0  0  0  0  0  0  0  0  0
  147.5930  141.3389  154.2577 H   0  0  0  0  0  0  0  0  0  0  0  0
  150.2933  141.1634  155.5627 H   0  0  0  0  0  0  0  0  0  0  0  0
  154.2404  136.2514  157.0656 H   0  0  0  0  0  0  0  0  0  0  0  0
  155.3349  137.2082  158.0416 H   0  0  0  0  0  0  0  0  0  0  0  0
  149.7370  137.0279  155.3797 H   0  0  0  0  0  0  0  0  0  0  0  0
  146.8399  137.8644  153.3093 H   0  0  0  0  0  0  0  0  0  0  0  0
  146.1182  139.3584  153.8864 H   0  0  0  0  0  0  0  0  0  0  0  0
  147.9607  139.6284  151.8582 H   0  0  0  0  0  0  0  0  0  0  0  0
  149.5165  140.4850  152.6488 H   0  0  0  0  0  0  0  0  0  0  0  0
  148.8235  142.8281  155.9175 H   0  0  0  0  0  0  0  0  0  0  0  0
  1  2  1  0  0  0  0
  1 25  1  0  0  0  0
  1 26  1  0  0  0  0
  2  8  1  0  0  0  0
  2  3  2  0  0  0  0
  3  4  1  0  0  0  0
  4  5  1  0  0  0  0
  4  6  2  0  0  0  0
  6  7  1  0  0  0  0
  7 11  1  0  0  0  0
  7  8  2  0  0  0  0
  8  9  1  0  0  0  0
  9 10  2  0  0  0  0
 10 11  1  0  0  0  0
 10 27  1  0  0  0  0
 11 12  1  0  0  0  0
 12 21  1  0  0  0  0
 12 19  1  0  0  0  0
 12 13  1  0  0  0  0
 13 14  1  0  0  0  0
 14 22  1  0  0  0  0
 14 15  1  0  0  0  0
 14 17  1  0  0  0  0
 15 16  1  0  0  0  0
 15 28  1  0  0  0  0
 15 29  1  0  0  0  0
 16 30  1  0  0  0  0
 17 23  1  0  0  0  0
 17 18  1  0  0  0  0
 17 19  1  0  0  0  0
 18 31  1  0  0  0  0
 19 24  1  0  0  0  0
 19 20  1  0  0  0  0
 20 32  1  0  0  0  0
M  END
> <s_m_source_file>
AV-unprocessed.smi

> <i_m_source_file_index>
114

> <i_lp_mmshare_version>
43012

> <i_f3d_flags>
0

> <s_epik_input>
RmMobjEpbmMoW05IMl0pYyhjMTIpbltjSF1uMltDQEBIXTNPW0NASF0oW0NIMl1bT0hdKVtDQEBIXShbT0hdKVtDQEBIXTNbT0hd

> <s_epik_cmdline>
J2VwaWtfcHl0aG9uJywgJy1waCcsICc3LjAnLCAnLXRuJywgJzgnLCAnLW1hJywgJzIwMCcsICctbWV0YWxfYmluZGluZycsICctaW1hZScsICc8aW5maWxlLm1hZT4nLCAnLW9tYWUnLCAnPG91dGZpbGUubWFlPic=

> <r_lp_tautomer_probability>
1

> <r_epik_Ionization_Penalty>
1.13199e-05

> <r_epik_Ionization_Penalty_Charging>
0

> <r_epik_Ionization_Penalty_Neutral>
1.13199e-05

> <r_epik_State_Penalty>
-0

> <r_epik_Charging_Adjusted_Penalty>
0

> <i_epik_Tot_Q>
0

> <i_epik_Tot_abs_Q>
0

> <r_epik_Metal_State_Penalty>
-0

> <b_epik_Metal_Only>
0

> <s_epik_Chemistry_Notes>
This compound contains an acetal/aminal-like group ( X-CH(R)-Y where X, Y are N, S, or O) that may be acid/base labile, releasing an aldehyde.

> <s_lp_Force_Field>
OPLS_2005

> <r_lp_Energy>
32.4154

> <b_lp_Chiralities_Consistent>
1

> <s_lp_Variant>
AV-unprocessed.smi:114-15

> <Gold.Version>
5.8.1

> <Gold.Id.Protein>
6NUR|6NUR_protein|mol2

> <Gold.PLP.Fitness>
36.2210

> <Gold.PLP.PLP>
-21.4879

> <Gold.PLP.part.hbond>
-5.4058

> <Gold.PLP.part.metal>
0.0000

> <Gold.PLP.part.buried>
-4.2622

> <Gold.PLP.part.nonpolar>
-11.9431

> <Gold.PLP.part.repulsive>
0.1921

> <Gold.PLP.ligand.clash>
0.0000

> <Gold.PLP.ligand.torsion>
0.0327

> <Gold.PLP.Chemscore.Hbond>
4.9260

> <Gold.PLP.Chemscore.CHOScore>
0.0000

> <Gold.PLP.Chemscore.Metal>
0.0000

> <Gold.Chemscore.Hbonds>
donor molecule, donor type, donor heavy atom, donor atom, acceptor molecule, acceptor atom, score
      L1  H    16    30       P1  7957  1.00
      L1  H    18    31       P1  7957  0.90
      L1  H    20    32       P1  8028  1.00
      P1  H  7997  8008       L1     3  0.90
      P1  H  8011  8017       L1    18  1.00

> <Gold.PLP.Chemscore.Internal.Correction>
0.0205

> <Gold.Rescore>
     Score         DG    S(hbond)    S(metal)    S(lipo)     H(rot)  DE(clash)    DE(int)     intcor
      9.61      -9.62       3.30        0.00      29.22       4.03       0.00       0.01       ----

> <Gold.Chemscore.Fitness>
9.6064

> <Gold.Chemscore.DG>
-9.6194

> <Gold.Chemscore.ZeroCoef>
-5.4800

> <Gold.Chemscore.Hbond>
3.3028

> <Gold.Chemscore.Metal>
0.0000

> <Gold.Chemscore.Lipo>
29.2223

> <Gold.Chemscore.Internal_Hbond>
0.0000

> <Gold.Chemscore.DEClash>
0.0000

> <Gold.Chemscore.DEInternal>
0.0130

> <Gold.Chemscore.Rot>
4.0277

> <Gold.Chemscore.Internal.Correction>
   9.000000E+99

> <Gold.Chemscore.Hbonds>
donor molecule, donor type, donor heavy atom, donor atom, acceptor molecule, acceptor atom, score
      L1  H    16    30       P1  7957  1.00
      L1  H    18    31       P1  7957  0.84
      L1  H    20    32       P1  8028  0.99
      P1  H  7997  8008       L1     3  0.06
      P1  H  8011  8017       L1    18  0.28

> <Gold.Chemscore.Hbond.Weighted>
-11.0314

> <Gold.Chemscore.Metal.Weighted>
-0.0000

> <Gold.Chemscore.Lipo.Weighted>
-3.4190

> <Gold.Chemscore.Internal_Hbond.Weighted>
0.0000

> <Gold.Chemscore.DEClash.Weighted>
0.0000

> <Gold.Chemscore.DEInternal.Weighted>
0.0130

> <Gold.Chemscore.Rot.Weighted>
10.3110

> <Gold.Chemscore.Internal.Correction.Weighted>
   9.000000E+99

> <Gold.Protein.RotatedTorsions>
[ 6907 6896 6895 6894 ] final  111.54 input  -60.11 | X-H torsion
[ 7974 7965 7964 7962 ] final  -89.14 input  175.53 | X-H torsion
[ 8008 7997 7996 7995 ] final -113.32 input   59.86 | X-H torsion
[ 10167 10162 10161 10158 ] final  104.84 input  -65.29 | X-H torsion
[ 10718 10713 10712 10709 ] final  -38.22 input   66.30 | X-H torsion
[ 10763 10752 10751 10750 ] final -137.12 input  -60.55 | X-H torsion
[ 11005 11000 10999 10996 ] final -133.94 input  -57.11 | X-H torsion

> <Gold.Protein.ActiveResidues>
 VAL166  LYS551  ARG553  GLY616  TRP617  ASP618  TYR619  PRO620  LYS621  CYS622 
 ASP623  PHE694  ASN695  SER759  ASP760  ASP761  ALA762  ILE779  LEU786  VAL792 
 PHE793  MET794  SER795  GLU796  ALA797  LYS798  CYS799  TRP800  GLU811  SER814 

> <Gold.Protein.RotatedAtoms>
  152.4964  133.8642  159.7265 H   0  0  0  0  0  0  0  0  0  0  0  0  # atno 6907 bound_to 6896
  150.9146  133.6946  159.2853 H   0  0  0  0  0  0  0  0  0  0  0  0  # atno 6908 bound_to 6896
  151.4344  135.1017  159.9704 H   0  0  0  0  0  0  0  0  0  0  0  0  # atno 6909 bound_to 6896
  145.4438  140.9559  143.2060 H   0  0  0  0  0  0  0  0  0  0  0  0  # atno 7974 bound_to 7965
  155.0189  140.0393  157.2429 H   0  0  0  0  0  0  0  0  0  0  0  0  # atno 8008 bound_to 7997
  154.7395  140.2746  155.6362 H   0  0  0  0  0  0  0  0  0  0  0  0  # atno 8009 bound_to 7997
  156.2861  140.2668  156.2119 H   0  0  0  0  0  0  0  0  0  0  0  0  # atno 8010 bound_to 7997
  139.7143  144.7071  151.0976 H   0  0  0  0  0  0  0  0  0  0  0  0  # atno 10167 bound_to 10162
  156.3062  130.4246  149.8094 H   0  0  0  0  0  0  0  0  0  0  0  0  # atno 10718 bound_to 10713
  154.8669  135.3652  154.5171 H   0  0  0  0  0  0  0  0  0  0  0  0  # atno 10763 bound_to 10752
  153.5803  135.7018  153.5471 H   0  0  0  0  0  0  0  0  0  0  0  0  # atno 10764 bound_to 10752
  153.3463  135.4084  155.1574 H   0  0  0  0  0  0  0  0  0  0  0  0  # atno 10765 bound_to 10752
  140.9035  134.1659  157.4443 H   0  0  0  0  0  0  0  0  0  0  0  0  # atno 11005 bound_to 11000
  144.8105  139.5971  143.7031 LP  0  0  0  0  0  0  0  0  0  0  0  0  # atno 17320 bound_to 7965
  146.2542  139.6266  142.9406 LP  0  0  0  0  0  0  0  0  0  0  0  0  # atno 17321 bound_to 7965
  140.7740  143.5251  150.9490 LP  0  0  0  0  0  0  0  0  0  0  0  0  # atno 17342 bound_to 10162
  139.8937  143.6922  152.3141 LP  0  0  0  0  0  0  0  0  0  0  0  0  # atno 17343 bound_to 10162
  156.5454  130.8318  151.3283 LP  0  0  0  0  0  0  0  0  0  0  0  0  # atno 17370 bound_to 10713
  157.7380  130.9806  150.2227 LP  0  0  0  0  0  0  0  0  0  0  0  0  # atno 17371 bound_to 10713
  139.8746  134.9907  156.5517 LP  0  0  0  0  0  0  0  0  0  0  0  0  # atno 17394 bound_to 11000
  140.8200  133.8361  155.8887 LP  0  0  0  0  0  0  0  0  0  0  0  0  # atno 17395 bound_to 11000

$$$$
