AV-unprocessed.smi:1705|AV-procd|sdf|6885|dock2
  -GOLD-   22720 8 93D 1   1.00000     0.00000
 Structure written by MMmdl.
 38 39  0  0  0  0  0  0  0  0  1 V2000
  150.2032  136.4745  156.5327 C   0  0  0  0  0  0  0  0  0  0  0  0
  150.4919  137.1637  157.8753 C   0  0  1  0  0  0  0  0  0  0  0  0
  150.4134  138.6079  157.7133 N   0  0  0  0  0  0  0  0  0  0  0  0
  151.2450  139.5558  158.3017 C   0  0  0  0  0  0  0  0  0  0  0  0
  152.2684  139.2009  159.1290 C   0  0  0  0  0  0  0  0  0  0  0  0
  152.6090  137.8465  159.4317 C   0  0  0  0  0  0  0  0  0  0  0  0
  152.9037  136.7594  159.7013 N   0  0  0  0  0  0  0  0  0  0  0  0
  153.1362  140.1946  159.7577 C   0  0  0  0  0  0  0  0  0  0  0  0
  154.0676  139.9123  160.5154 O   0  0  0  0  0  0  0  0  0  0  0  0
  152.8304  141.5332  159.4399 N   0  0  0  0  0  0  0  0  0  0  0  0
  153.6619  142.5468  160.0587 C   0  0  0  0  0  0  0  0  0  0  0  0
  151.7761  141.9282  158.5906 C   0  0  0  0  0  0  0  0  0  0  0  0
  151.5372  143.1179  158.3624 O   0  0  0  0  0  0  0  0  0  0  0  0
  150.9931  140.8999  158.0103 N   0  0  0  0  0  0  0  0  0  0  0  0
  149.9214  141.3692  157.1548 C   0  0  0  0  0  0  0  0  0  0  0  0
  149.5176  136.7184  158.9814 C   0  0  1  0  0  0  0  0  0  0  0  0
  148.0763  137.1918  158.7982 C   0  0  0  0  0  0  0  0  0  0  0  0
  147.2741  136.1837  159.6034 C   0  0  0  0  0  0  0  0  0  0  0  0
  148.2100  134.9775  159.7233 C   0  0  0  0  0  0  0  0  0  0  0  0
  149.3572  135.3079  158.9520 O   0  0  0  0  0  0  0  0  0  0  0  0
  150.3367  135.3950  156.6028 H   0  0  0  0  0  0  0  0  0  0  0  0
  150.8720  136.8331  155.7507 H   0  0  0  0  0  0  0  0  0  0  0  0
  149.1810  136.6639  156.2035 H   0  0  0  0  0  0  0  0  0  0  0  0
  151.4984  136.8944  158.1942 H   0  0  0  0  0  0  0  0  0  0  0  0
  149.4598  138.9193  157.5968 H   0  0  0  0  0  0  0  0  0  0  0  0
  153.4251  143.5424  159.6861 H   0  0  0  0  0  0  0  0  0  0  0  0
  154.7002  142.3131  159.8161 H   0  0  0  0  0  0  0  0  0  0  0  0
  153.4829  142.4944  161.1340 H   0  0  0  0  0  0  0  0  0  0  0  0
  149.2079  141.8955  157.7911 H   0  0  0  0  0  0  0  0  0  0  0  0
  149.4333  140.5355  156.6557 H   0  0  0  0  0  0  0  0  0  0  0  0
  150.3571  142.0271  156.4005 H   0  0  0  0  0  0  0  0  0  0  0  0
  149.8864  137.0156  159.9652 H   0  0  0  0  0  0  0  0  0  0  0  0
  147.9205  138.2181  159.1315 H   0  0  0  0  0  0  0  0  0  0  0  0
  147.7917  137.1302  157.7470 H   0  0  0  0  0  0  0  0  0  0  0  0
  147.0351  136.5760  160.5926 H   0  0  0  0  0  0  0  0  0  0  0  0
  146.3371  135.9310  159.1062 H   0  0  0  0  0  0  0  0  0  0  0  0
  148.5047  134.8210  160.7617 H   0  0  0  0  0  0  0  0  0  0  0  0
  147.7532  134.0580  159.3570 H   0  0  0  0  0  0  0  0  0  0  0  0
  1  2  1  0  0  0  0
  1 21  1  0  0  0  0
  1 22  1  0  0  0  0
  1 23  1  0  0  0  0
  2  3  1  0  0  0  0
  2 16  1  0  0  0  0
  2 24  1  0  0  0  0
  3  4  1  0  0  0  0
  3 25  1  0  0  0  0
  4 14  1  0  0  0  0
  4  5  2  0  0  0  0
  5  6  1  0  0  0  0
  5  8  1  0  0  0  0
  6  7  3  0  0  0  0
  8  9  2  0  0  0  0
  8 10  1  0  0  0  0
 10 11  1  0  0  0  0
 10 12  1  0  0  0  0
 11 26  1  0  0  0  0
 11 27  1  0  0  0  0
 11 28  1  0  0  0  0
 12 13  2  0  0  0  0
 12 14  1  0  0  0  0
 14 15  1  0  0  0  0
 15 29  1  0  0  0  0
 15 30  1  0  0  0  0
 15 31  1  0  0  0  0
 16 20  1  0  0  0  0
 16 17  1  0  0  0  0
 16 32  1  0  0  0  0
 17 18  1  0  0  0  0
 17 33  1  0  0  0  0
 17 34  1  0  0  0  0
 18 19  1  0  0  0  0
 18 35  1  0  0  0  0
 18 36  1  0  0  0  0
 19 20  1  0  0  0  0
 19 37  1  0  0  0  0
 19 38  1  0  0  0  0
M  END
> <s_m_source_file>
AV-unprocessed.smi

> <i_m_source_file_index>
1705

> <i_lp_mmshare_version>
43012

> <i_f3d_flags>
0

> <s_epik_input>
TzFbQ0gyXVtDSDJdW0NIMl1bQ0BIXTFbQ0BIXShbQ0gzXSlbTkhdYzJjKEMjTiljKD1PKW4oW0NIM10pYyg9TyluMltDSDNd

> <s_epik_cmdline>
J2VwaWtfcHl0aG9uJywgJy1waCcsICc3LjAnLCAnLXRuJywgJzgnLCAnLW1hJywgJzIwMCcsICctbWV0YWxfYmluZGluZycsICctaW1hZScsICc8aW5maWxlLm1hZT4nLCAnLW9tYWUnLCAnPG91dGZpbGUubWFlPic=

> <r_epik_Ionization_Penalty>
0.000446268

> <r_epik_Ionization_Penalty_Charging>
9.41922e-10

> <r_epik_Ionization_Penalty_Neutral>
0.000446267

> <r_epik_State_Penalty>
0.000275531

> <r_epik_Charging_Adjusted_Penalty>
0.000275532

> <i_epik_Tot_Q>
0

> <i_epik_Tot_abs_Q>
0

> <r_epik_Metal_State_Penalty>
-0

> <b_epik_Metal_Only>
0

> <s_lp_Force_Field>
OPLS_2005

> <r_lp_Energy>
37.8394

> <b_lp_Chiralities_Consistent>
1

> <s_lp_Variant>
AV-unprocessed.smi:1705-4

> <Gold.Version>
5.8.1

> <Gold.Id.Protein>
6NUR|6NUR_protein|mol2

> <Gold.PLP.Fitness>
33.3307

> <Gold.PLP.PLP>
-28.1973

> <Gold.PLP.part.hbond>
-2.0000

> <Gold.PLP.part.metal>
0.0000

> <Gold.PLP.part.buried>
-6.1914

> <Gold.PLP.part.nonpolar>
-20.0145

> <Gold.PLP.part.repulsive>
0.1154

> <Gold.PLP.ligand.clash>
9.0509

> <Gold.PLP.ligand.torsion>
0.4478

> <Gold.PLP.Chemscore.Hbond>
2.0000

> <Gold.PLP.Chemscore.CHOScore>
0.0000

> <Gold.PLP.Chemscore.Metal>
0.0000

> <Gold.Chemscore.Hbonds>
donor molecule, donor type, donor heavy atom, donor atom, acceptor molecule, acceptor atom, score
      P1  H  6896  6907       L1    20  1.00
      P1  H  6896  6908       L1     7  1.00

> <Gold.PLP.Chemscore.Internal.Correction>
9.0800

> <Gold.Rescore>
     Score         DG    S(hbond)    S(metal)    S(lipo)     H(rot)  DE(clash)    DE(int)     intcor
     11.09     -13.74       1.91        0.00      43.99       1.28       0.10       2.55       ----

> <Gold.Chemscore.Fitness>
11.0891

> <Gold.Chemscore.DG>
-13.7412

> <Gold.Chemscore.ZeroCoef>
-5.4800

> <Gold.Chemscore.Hbond>
1.9120

> <Gold.Chemscore.Metal>
0.0000

> <Gold.Chemscore.Lipo>
43.9899

> <Gold.Chemscore.Internal_Hbond>
0.0000

> <Gold.Chemscore.DEClash>
0.0991

> <Gold.Chemscore.DEInternal>
2.5530

> <Gold.Chemscore.Rot>
1.2780

> <Gold.Chemscore.Internal.Correction>
   9.000000E+99

> <Gold.Chemscore.Hbonds>
donor molecule, donor type, donor heavy atom, donor atom, acceptor molecule, acceptor atom, score
      P1  H  6896  6907       L1    20  0.66
      P1  H  6896  6908       L1     7  0.98

> <Gold.Chemscore.Hbond.Weighted>
-6.3860

> <Gold.Chemscore.Metal.Weighted>
-0.0000

> <Gold.Chemscore.Lipo.Weighted>
-5.1468

> <Gold.Chemscore.Internal_Hbond.Weighted>
0.0000

> <Gold.Chemscore.DEClash.Weighted>
0.0991

> <Gold.Chemscore.DEInternal.Weighted>
2.5530

> <Gold.Chemscore.Rot.Weighted>
3.2717

> <Gold.Chemscore.Internal.Correction.Weighted>
   9.000000E+99

> <Gold.Protein.RotatedTorsions>
[ 6907 6896 6895 6894 ] final  -84.69 input  -60.11 | X-H torsion
[ 7974 7965 7964 7962 ] final  -73.25 input  175.53 | X-H torsion
[ 8008 7997 7996 7995 ] final -158.67 input   59.86 | X-H torsion
[ 10167 10162 10161 10158 ] final -145.18 input  -65.29 | X-H torsion
[ 10718 10713 10712 10709 ] final  -17.66 input   66.30 | X-H torsion
[ 10763 10752 10751 10750 ] final   -7.40 input  -60.55 | X-H torsion
[ 11005 11000 10999 10996 ] final  -65.22 input  -57.11 | X-H torsion

> <Gold.Protein.ActiveResidues>
 VAL166  LYS551  ARG553  GLY616  TRP617  ASP618  TYR619  PRO620  LYS621  CYS622 
 ASP623  PHE694  ASN695  SER759  ASP760  ASP761  ALA762  ILE779  LEU786  VAL792 
 PHE793  MET794  SER795  GLU796  ALA797  LYS798  CYS799  TRP800  GLU811  SER814 

> <Gold.Protein.RotatedAtoms>
  150.6875  134.3320  159.4830 H   0  0  0  0  0  0  0  0  0  0  0  0  # atno 6907 bound_to 6896
  152.1183  134.9221  160.0573 H   0  0  0  0  0  0  0  0  0  0  0  0  # atno 6908 bound_to 6896
  152.0437  133.3954  159.4384 H   0  0  0  0  0  0  0  0  0  0  0  0  # atno 6909 bound_to 6896
  145.6545  140.9272  143.0967 H   0  0  0  0  0  0  0  0  0  0  0  0  # atno 7974 bound_to 7965
  155.7510  140.0826  157.2201 H   0  0  0  0  0  0  0  0  0  0  0  0  # atno 8008 bound_to 7997
  154.4012  140.1560  156.2780 H   0  0  0  0  0  0  0  0  0  0  0  0  # atno 8009 bound_to 7997
  155.8930  140.3414  155.5973 H   0  0  0  0  0  0  0  0  0  0  0  0  # atno 8010 bound_to 7997
  139.7829  143.8075  152.2641 H   0  0  0  0  0  0  0  0  0  0  0  0  # atno 10167 bound_to 10162
  156.5705  130.4748  149.6365 H   0  0  0  0  0  0  0  0  0  0  0  0  # atno 10718 bound_to 10713
  153.4259  135.7011  153.6263 H   0  0  0  0  0  0  0  0  0  0  0  0  # atno 10763 bound_to 10752
  153.4698  135.3717  155.2385 H   0  0  0  0  0  0  0  0  0  0  0  0  # atno 10764 bound_to 10752
  154.8724  135.4040  154.3635 H   0  0  0  0  0  0  0  0  0  0  0  0  # atno 10765 bound_to 10752
  141.1448  133.6678  156.5953 H   0  0  0  0  0  0  0  0  0  0  0  0  # atno 11005 bound_to 11000
  144.7110  139.8370  143.7414 LP  0  0  0  0  0  0  0  0  0  0  0  0  # atno 17320 bound_to 7965
  146.1176  139.4189  143.0248 LP  0  0  0  0  0  0  0  0  0  0  0  0  # atno 17321 bound_to 7965
  139.8143  144.7323  150.9656 LP  0  0  0  0  0  0  0  0  0  0  0  0  # atno 17342 bound_to 10162
  140.7819  143.4220  151.0826 LP  0  0  0  0  0  0  0  0  0  0  0  0  # atno 17343 bound_to 10162
  156.2719  130.7022  151.1821 LP  0  0  0  0  0  0  0  0  0  0  0  0  # atno 17370 bound_to 10713
  157.7349  131.0577  150.5498 LP  0  0  0  0  0  0  0  0  0  0  0  0  # atno 17371 bound_to 10713
  140.3731  134.7588  157.4612 LP  0  0  0  0  0  0  0  0  0  0  0  0  # atno 17394 bound_to 11000
  140.0695  134.5882  155.8657 LP  0  0  0  0  0  0  0  0  0  0  0  0  # atno 17395 bound_to 11000

$$$$
