AV-unprocessed.smi:1978|AV-procd|sdf|8009|dock7
  -GOLD-   2272010193D 1   1.00000     0.00000
 Structure written by MMmdl.
 44 45  0  0  0  0  0  0  0  0  3 V2000
  152.3543  143.4757  158.0907 C   0  0  0  0  0  0  0  0  0  0  0  0
  151.6650  142.2810  157.5264 C   0  0  0  0  0  0  0  0  0  0  0  0
  152.0979  141.0278  157.1964 C   0  0  0  0  0  0  0  0  0  0  0  0
  150.9209  140.3988  156.7093 C   0  0  0  0  0  0  0  0  0  0  0  0
  150.9555  139.0550  156.2516 N   0  0  0  0  0  0  0  0  0  0  0  0
  152.0104  138.3356  155.8271 C   0  0  0  0  0  0  0  0  0  0  0  0
  153.1353  138.8470  155.7756 O   0  0  0  0  0  0  0  0  0  0  0  0
  151.6632  137.0628  155.4926 N   0  5  0  0  0  0  0  0  0  0  0  0
  150.3223  136.6497  155.0794 C   0  0  0  0  0  0  0  0  0  0  0  0
  150.2787  135.1087  154.8315 C   0  0  1  0  0  0  0  0  0  0  0  0
  150.6477  134.3666  156.1533 C   0  0  0  0  0  0  0  0  0  0  0  0
  148.9513  134.6986  154.2413 N   0  3  1  0  0  0  0  0  0  0  0  0
  148.8707  133.2668  153.8024 C   0  0  0  0  0  0  0  0  0  0  0  0
  147.6664  133.0493  152.8708 C   0  0  0  0  0  0  0  0  0  0  0  0
  146.3546  133.4723  153.5414 C   0  0  0  0  0  0  0  0  0  0  0  0
  146.4728  134.9047  154.0846 C   0  0  0  0  0  0  0  0  0  0  0  0
  147.7106  135.0902  154.9892 C   0  0  1  0  0  0  0  0  0  0  0  0
  147.5413  134.3567  156.3424 C   0  0  0  0  0  0  0  0  0  0  0  0
  149.8649  141.1981  156.7399 N   0  0  0  0  0  0  0  0  0  0  0  0
  150.3362  142.4078  157.2634 O   0  0  0  0  0  0  0  0  0  0  0  0
  153.3028  143.1969  158.5498 H   0  0  0  0  0  0  0  0  0  0  0  0
  151.7391  143.9558  158.8519 H   0  0  0  0  0  0  0  0  0  0  0  0
  152.5587  144.2073  157.3092 H   0  0  0  0  0  0  0  0  0  0  0  0
  153.0964  140.6276  157.2877 H   0  0  0  0  0  0  0  0  0  0  0  0
  150.0698  138.5717  156.2543 H   0  0  0  0  0  0  0  0  0  0  0  0
  149.5658  136.9132  155.8195 H   0  0  0  0  0  0  0  0  0  0  0  0
  150.0234  137.1742  154.1725 H   0  0  0  0  0  0  0  0  0  0  0  0
  151.0378  134.8464  154.0922 H   0  0  0  0  0  0  0  0  0  0  0  0
  151.6143  134.6798  156.5539 H   0  0  0  0  0  0  0  0  0  0  0  0
  150.7454  133.2920  156.0197 H   0  0  0  0  0  0  0  0  0  0  0  0
  149.9072  134.5272  156.9396 H   0  0  0  0  0  0  0  0  0  0  0  0
  149.7613  132.9499  153.2624 H   0  0  0  0  0  0  0  0  0  0  0  0
  148.8136  132.6072  154.6680 H   0  0  0  0  0  0  0  0  0  0  0  0
  147.8097  133.6244  151.9551 H   0  0  0  0  0  0  0  0  0  0  0  0
  147.6099  132.0023  152.5715 H   0  0  0  0  0  0  0  0  0  0  0  0
  145.5325  133.4095  152.8278 H   0  0  0  0  0  0  0  0  0  0  0  0
  146.1109  132.7801  154.3474 H   0  0  0  0  0  0  0  0  0  0  0  0
  146.5385  135.5975  153.2444 H   0  0  0  0  0  0  0  0  0  0  0  0
  145.5650  135.1730  154.6261 H   0  0  0  0  0  0  0  0  0  0  0  0
  147.7478  136.1593  155.1929 H   0  0  0  0  0  0  0  0  0  0  0  0
  146.7128  134.7856  156.9066 H   0  0  0  0  0  0  0  0  0  0  0  0
  148.4271  134.4229  156.9711 H   0  0  0  0  0  0  0  0  0  0  0  0
  147.3244  133.2966  156.2208 H   0  0  0  0  0  0  0  0  0  0  0  0
  148.9037  135.2377  153.3884 H   0  0  0  0  0  0  0  0  0  0  0  0
  1  2  1  0  0  0  0
  1 21  1  0  0  0  0
  1 22  1  0  0  0  0
  1 23  1  0  0  0  0
  2 20  1  0  0  0  0
  2  3  2  0  0  0  0
  3  4  1  0  0  0  0
  3 24  1  0  0  0  0
  4  5  1  0  0  0  0
  4 19  2  0  0  0  0
  5  6  1  0  0  0  0
  5 25  1  0  0  0  0
  6  7  2  0  0  0  0
  6  8  1  0  0  0  0
  8  9  1  0  0  0  0
  9 10  1  0  0  0  0
  9 26  1  0  0  0  0
  9 27  1  0  0  0  0
 10 11  1  0  0  0  0
 10 12  1  0  0  0  0
 10 28  1  0  0  0  0
 11 29  1  0  0  0  0
 11 30  1  0  0  0  0
 11 31  1  0  0  0  0
 12 17  1  0  0  0  0
 12 13  1  0  0  0  0
 12 44  1  0  0  0  0
 13 14  1  0  0  0  0
 13 32  1  0  0  0  0
 13 33  1  0  0  0  0
 14 15  1  0  0  0  0
 14 34  1  0  0  0  0
 14 35  1  0  0  0  0
 15 16  1  0  0  0  0
 15 36  1  0  0  0  0
 15 37  1  0  0  0  0
 16 17  1  0  0  0  0
 16 38  1  0  0  0  0
 16 39  1  0  0  0  0
 17 18  1  0  0  0  0
 17 40  1  0  0  0  0
 18 41  1  0  0  0  0
 18 42  1  0  0  0  0
 18 43  1  0  0  0  0
 19 20  1  0  0  0  0
M  CHG  1   8  -1
M  CHG  1  12   1
M  END
> <s_m_source_file>
AV-unprocessed.smi

> <i_m_source_file_index>
1978

> <i_lp_mmshare_version>
43012

> <i_f3d_flags>
0

> <s_epik_input>
W0NIM11jMVtjSF1jKG5vMSlbTkhdQyg9TylbTkhdW0NIMl1bQ0BIXShbQ0gzXSlOMltDSDJdW0NIMl1bQ0gyXVtDSDJdW0NASF0yW0NIM10=

> <s_epik_cmdline>
J2VwaWtfcHl0aG9uJywgJy1waCcsICc3LjAnLCAnLXRuJywgJzgnLCAnLW1hJywgJzIwMCcsICctbWV0YWxfYmluZGluZycsICctaW1hZScsICc8aW5maWxlLm1hZT4nLCAnLW9tYWUnLCAnPG91dGZpbGUubWFlPic=

> <r_epik_Ionization_Penalty>
6.7666

> <r_epik_Ionization_Penalty_Charging>
6.7666

> <r_epik_Ionization_Penalty_Neutral>
5.77131e-06

> <r_epik_State_Penalty>
6.79217

> <r_epik_Charging_Adjusted_Penalty>
13.5588

> <i_epik_Tot_Q>
0

> <i_epik_Tot_abs_Q>
2

> <r_epik_Metal_State_Penalty>
2.72569

> <b_epik_Metal_Only>
1

> <s_lp_Force_Field>
OPLS_2005

> <r_lp_Energy>
25.8375

> <b_lp_Chiralities_Consistent>
1

> <s_lp_Variant>
AV-unprocessed.smi:1978-18

> <Gold.Version>
5.8.1

> <Gold.Id.Protein>
6NUR|6NUR_protein|mol2

> <Gold.PLP.Fitness>
41.9125

> <Gold.PLP.PLP>
-27.3822

> <Gold.PLP.part.hbond>
-3.0000

> <Gold.PLP.part.metal>
0.0000

> <Gold.PLP.part.buried>
-4.6271

> <Gold.PLP.part.nonpolar>
-20.2884

> <Gold.PLP.part.repulsive>
0.2430

> <Gold.PLP.ligand.clash>
0.0136

> <Gold.PLP.ligand.torsion>
0.2938

> <Gold.PLP.Chemscore.Hbond>
5.0000

> <Gold.PLP.Chemscore.CHOScore>
0.0000

> <Gold.PLP.Chemscore.Metal>
0.0000

> <Gold.Chemscore.Hbonds>
donor molecule, donor type, donor heavy atom, donor atom, acceptor molecule, acceptor atom, score
      L1  H    12    44       P1  7948  2.00
      P1  H  7997  8009       L1     7  1.00
      P1  H 10752 10764       L1     8  1.53

> <Gold.PLP.Chemscore.Internal.Correction>
0.1315

> <Gold.Rescore>
     Score         DG    S(hbond)    S(metal)    S(lipo)     H(rot)  DE(clash)    DE(int)     intcor
     16.06     -17.79       2.65        0.00      62.87       1.52       0.06       1.67       ----

> <Gold.Chemscore.Fitness>
16.0567

> <Gold.Chemscore.DG>
-17.7923

> <Gold.Chemscore.ZeroCoef>
-5.4800

> <Gold.Chemscore.Hbond>
2.6483

> <Gold.Chemscore.Metal>
0.0000

> <Gold.Chemscore.Lipo>
62.8677

> <Gold.Chemscore.Internal_Hbond>
0.0000

> <Gold.Chemscore.DEClash>
0.0649

> <Gold.Chemscore.DEInternal>
1.6707

> <Gold.Chemscore.Rot>
1.5190

> <Gold.Chemscore.Internal.Correction>
   9.000000E+99

> <Gold.Chemscore.Hbonds>
donor molecule, donor type, donor heavy atom, donor atom, acceptor molecule, acceptor atom, score
      L1  H    12    44       P1  7948  0.60
      P1  H  7997  8009       L1     7  0.98
      P1  H 10752 10764       L1     8  0.41

> <Gold.Chemscore.Hbond.Weighted>
-8.8454

> <Gold.Chemscore.Metal.Weighted>
-0.0000

> <Gold.Chemscore.Lipo.Weighted>
-7.3555

> <Gold.Chemscore.Internal_Hbond.Weighted>
0.0000

> <Gold.Chemscore.DEClash.Weighted>
0.0649

> <Gold.Chemscore.DEInternal.Weighted>
1.6707

> <Gold.Chemscore.Rot.Weighted>
3.8886

> <Gold.Chemscore.Internal.Correction.Weighted>
   9.000000E+99

> <Gold.Protein.RotatedTorsions>
[ 6907 6896 6895 6894 ] final  -85.22 input  -60.11 | X-H torsion
[ 7974 7965 7964 7962 ] final  101.99 input  175.53 | X-H torsion
[ 8008 7997 7996 7995 ] final -161.97 input   59.86 | X-H torsion
[ 10167 10162 10161 10158 ] final   25.76 input  -65.29 | X-H torsion
[ 10718 10713 10712 10709 ] final  -41.45 input   66.30 | X-H torsion
[ 10763 10752 10751 10750 ] final  -50.77 input  -60.55 | X-H torsion
[ 11005 11000 10999 10996 ] final   73.12 input  -57.11 | X-H torsion

> <Gold.Protein.ActiveResidues>
 VAL166  LYS551  ARG553  GLY616  TRP617  ASP618  TYR619  PRO620  LYS621  CYS622 
 ASP623  PHE694  ASN695  SER759  ASP760  ASP761  ALA762  ILE779  LEU786  VAL792 
 PHE793  MET794  SER795  GLU796  ALA797  LYS798  CYS799  TRP800  GLU811  SER814 

> <Gold.Protein.RotatedAtoms>
  150.6871  134.3239  159.4797 H   0  0  0  0  0  0  0  0  0  0  0  0  # atno 6907 bound_to 6896
  152.1111  134.9271  160.0576 H   0  0  0  0  0  0  0  0  0  0  0  0  # atno 6908 bound_to 6896
  152.0513  133.3985  159.4415 H   0  0  0  0  0  0  0  0  0  0  0  0  # atno 6909 bound_to 6896
  145.3650  139.2410  143.3486 H   0  0  0  0  0  0  0  0  0  0  0  0  # atno 7974 bound_to 7965
  155.8000  140.0890  157.1962 H   0  0  0  0  0  0  0  0  0  0  0  0  # atno 8008 bound_to 7997
  154.3982  140.1474  156.3322 H   0  0  0  0  0  0  0  0  0  0  0  0  # atno 8009 bound_to 7997
  155.8472  140.3436  155.5672 H   0  0  0  0  0  0  0  0  0  0  0  0  # atno 8010 bound_to 7997
  140.5079  144.0208  150.6360 H   0  0  0  0  0  0  0  0  0  0  0  0  # atno 10167 bound_to 10162
  156.2702  130.4206  149.8446 H   0  0  0  0  0  0  0  0  0  0  0  0  # atno 10718 bound_to 10713
  154.1157  135.6542  153.4893 H   0  0  0  0  0  0  0  0  0  0  0  0  # atno 10763 bound_to 10752
  153.0242  135.5258  154.7147 H   0  0  0  0  0  0  0  0  0  0  0  0  # atno 10764 bound_to 10752
  154.6340  135.2980  155.0152 H   0  0  0  0  0  0  0  0  0  0  0  0  # atno 10765 bound_to 10752
  139.9456  134.7319  156.0988 H   0  0  0  0  0  0  0  0  0  0  0  0  # atno 11005 bound_to 11000
  146.2910  140.4291  142.8739 LP  0  0  0  0  0  0  0  0  0  0  0  0  # atno 17320 bound_to 7965
  144.8618  140.7150  143.6102 LP  0  0  0  0  0  0  0  0  0  0  0  0  # atno 17321 bound_to 7965
  140.3522  143.2956  152.0475 LP  0  0  0  0  0  0  0  0  0  0  0  0  # atno 17342 bound_to 10162
  139.4888  144.6365  151.6964 LP  0  0  0  0  0  0  0  0  0  0  0  0  # atno 17343 bound_to 10162
  156.5930  130.8514  151.3413 LP  0  0  0  0  0  0  0  0  0  0  0  0  # atno 17370 bound_to 10713
  157.7281  130.9652  150.1728 LP  0  0  0  0  0  0  0  0  0  0  0  0  # atno 17371 bound_to 10713
  141.1105  133.6645  156.2968 LP  0  0  0  0  0  0  0  0  0  0  0  0  # atno 17394 bound_to 11000
  140.5843  134.5714  157.5486 LP  0  0  0  0  0  0  0  0  0  0  0  0  # atno 17395 bound_to 11000

$$$$
