AV-unprocessed.smi:1806|AV-procd|sdf|7299|dock3
  -GOLD-   22720 8553D 1   1.00000     0.00000
 Structure written by MMmdl.
 28 29  0  0  0  0  0  0  0  0  1 V2000
  152.6735  143.0985  162.4179 C   0  0  0  0  0  0  0  0  0  0  0  0
  152.3887  143.5263  160.9937 C   0  0  0  0  0  0  0  0  0  0  0  0
  152.1943  144.8833  160.6692 C   0  0  0  0  0  0  0  0  0  0  0  0
  151.9338  145.2130  159.3271 C   0  0  0  0  0  0  0  0  0  0  0  0
  151.8811  144.1799  158.3716 C   0  0  0  0  0  0  0  0  0  0  0  0
  152.0887  142.8433  158.7803 C   0  0  0  0  0  0  0  0  0  0  0  0
  152.0146  141.8784  157.7411 N   0  0  0  0  0  0  0  0  0  0  0  0
  152.0994  140.5368  157.8325 C   0  0  0  0  0  0  0  0  0  0  0  0
  152.2635  139.9279  158.8913 O   0  0  0  0  0  0  0  0  0  0  0  0
  151.9736  139.9060  156.5237 C   0  0  0  0  0  0  0  0  0  0  0  0
  150.9603  140.2694  155.7038 C   0  0  0  0  0  0  0  0  0  0  0  0
  150.7366  139.7066  154.4721 O   0  0  0  0  0  0  0  0  0  0  0  0
  151.4910  138.5288  154.2126 C   0  0  0  0  0  0  0  0  0  0  0  0
  152.9272  138.6891  154.7320 C   0  0  0  0  0  0  0  0  0  0  0  0
  152.9166  138.9837  156.1248 O   0  0  0  0  0  0  0  0  0  0  0  0
  152.3381  142.5356  160.0775 N   0  0  0  0  0  0  0  0  0  0  0  0
  152.5840  143.9378  163.1081 H   0  0  0  0  0  0  0  0  0  0  0  0
  153.6845  142.6980  162.4970 H   0  0  0  0  0  0  0  0  0  0  0  0
  151.9716  142.3250  162.7312 H   0  0  0  0  0  0  0  0  0  0  0  0
  152.2421  145.6528  161.4258 H   0  0  0  0  0  0  0  0  0  0  0  0
  151.7771  146.2408  159.0347 H   0  0  0  0  0  0  0  0  0  0  0  0
  151.6829  144.4161  157.3360 H   0  0  0  0  0  0  0  0  0  0  0  0
  151.8802  142.2489  156.8116 H   0  0  0  0  0  0  0  0  0  0  0  0
  150.2045  141.0030  155.9461 H   0  0  0  0  0  0  0  0  0  0  0  0
  151.0051  137.6786  154.6932 H   0  0  0  0  0  0  0  0  0  0  0  0
  151.4920  138.3341  153.1400 H   0  0  0  0  0  0  0  0  0  0  0  0
  153.4981  137.7759  154.5647 H   0  0  0  0  0  0  0  0  0  0  0  0
  153.4393  139.4910  154.1983 H   0  0  0  0  0  0  0  0  0  0  0  0
  1  2  1  0  0  0  0
  1 17  1  0  0  0  0
  1 18  1  0  0  0  0
  1 19  1  0  0  0  0
  2 16  1  0  0  0  0
  2  3  2  0  0  0  0
  3  4  1  0  0  0  0
  3 20  1  0  0  0  0
  4  5  2  0  0  0  0
  4 21  1  0  0  0  0
  5  6  1  0  0  0  0
  5 22  1  0  0  0  0
  6  7  1  0  0  0  0
  6 16  2  0  0  0  0
  7  8  1  0  0  0  0
  7 23  1  0  0  0  0
  8  9  2  0  0  0  0
  8 10  1  0  0  0  0
 10 15  1  0  0  0  0
 10 11  2  0  0  0  0
 11 12  1  0  0  0  0
 11 24  1  0  0  0  0
 12 13  1  0  0  0  0
 13 14  1  0  0  0  0
 13 25  1  0  0  0  0
 13 26  1  0  0  0  0
 14 15  1  0  0  0  0
 14 27  1  0  0  0  0
 14 28  1  0  0  0  0
M  END
> <s_m_source_file>
AV-unprocessed.smi

> <i_m_source_file_index>
1806

> <i_lp_mmshare_version>
43012

> <i_f3d_flags>
0

> <s_epik_input>
W0NIM11jMVtjSF1bY0hdW2NIXWMobjEpW05IXUMoPU8pQzI9W0NIXU9bQ0gyXVtDSDJdTzI=

> <s_epik_cmdline>
J2VwaWtfcHl0aG9uJywgJy1waCcsICc3LjAnLCAnLXRuJywgJzgnLCAnLW1hJywgJzIwMCcsICctbWV0YWxfYmluZGluZycsICctaW1hZScsICc8aW5maWxlLm1hZT4nLCAnLW9tYWUnLCAnPG91dGZpbGUubWFlPic=

> <r_lp_tautomer_probability>
1

> <r_epik_Ionization_Penalty>
0.000170398

> <r_epik_Ionization_Penalty_Charging>
0

> <r_epik_Ionization_Penalty_Neutral>
0.000170398

> <r_epik_State_Penalty>
-0

> <r_epik_Charging_Adjusted_Penalty>
0

> <i_epik_Tot_Q>
0

> <i_epik_Tot_abs_Q>
0

> <r_epik_Metal_State_Penalty>
0.0293809

> <b_epik_Metal_Only>
0

> <s_lp_Force_Field>
OPLS_2005

> <r_lp_Energy>
3.70878

> <b_lp_Chiralities_Consistent>
1

> <s_lp_Variant>
AV-unprocessed.smi:1806-1

> <Gold.Version>
5.8.1

> <Gold.Id.Protein>
6NUR|6NUR_protein|mol2

> <Gold.PLP.Fitness>
42.9946

> <Gold.PLP.PLP>
-39.6235

> <Gold.PLP.part.hbond>
-2.0000

> <Gold.PLP.part.metal>
0.0000

> <Gold.PLP.part.buried>
-5.2798

> <Gold.PLP.part.nonpolar>
-32.2464

> <Gold.PLP.part.repulsive>
0.1763

> <Gold.PLP.ligand.clash>
0.0000

> <Gold.PLP.ligand.torsion>
0.8800

> <Gold.PLP.Chemscore.Hbond>
1.7100

> <Gold.PLP.Chemscore.CHOScore>
0.0000

> <Gold.PLP.Chemscore.Metal>
0.0000

> <Gold.Chemscore.Hbonds>
donor molecule, donor type, donor heavy atom, donor atom, acceptor molecule, acceptor atom, score
      P1  H  7989  7998       L1    12  0.95
      P1  H  7997  8009       L1    15  0.76

> <Gold.PLP.Chemscore.Internal.Correction>
0.0012

> <Gold.Rescore>
     Score         DG    S(hbond)    S(metal)    S(lipo)     H(rot)  DE(clash)    DE(int)     intcor
     17.16     -19.08       0.85        0.00      91.86       0.00       0.12       1.80       ----

> <Gold.Chemscore.Fitness>
17.1568

> <Gold.Chemscore.DG>
-19.0752

> <Gold.Chemscore.ZeroCoef>
-5.4800

> <Gold.Chemscore.Hbond>
0.8526

> <Gold.Chemscore.Metal>
0.0000

> <Gold.Chemscore.Lipo>
91.8606

> <Gold.Chemscore.Internal_Hbond>
0.0000

> <Gold.Chemscore.DEClash>
0.1217

> <Gold.Chemscore.DEInternal>
1.7968

> <Gold.Chemscore.Rot>
0.0000

> <Gold.Chemscore.Internal.Correction>
   9.000000E+99

> <Gold.Chemscore.Hbonds>
donor molecule, donor type, donor heavy atom, donor atom, acceptor molecule, acceptor atom, score
      P1  H  7989  7998       L1    12  0.06
      P1  H  7997  8009       L1    15  0.03

> <Gold.Chemscore.Hbond.Weighted>
-2.8475

> <Gold.Chemscore.Metal.Weighted>
-0.0000

> <Gold.Chemscore.Lipo.Weighted>
-10.7477

> <Gold.Chemscore.Internal_Hbond.Weighted>
0.0000

> <Gold.Chemscore.DEClash.Weighted>
0.1217

> <Gold.Chemscore.DEInternal.Weighted>
1.7968

> <Gold.Chemscore.Rot.Weighted>
0.0000

> <Gold.Chemscore.Internal.Correction.Weighted>
   9.000000E+99

> <Gold.Protein.RotatedTorsions>
[ 6907 6896 6895 6894 ] final   17.42 input  -60.11 | X-H torsion
[ 7974 7965 7964 7962 ] final   19.88 input  175.53 | X-H torsion
[ 8008 7997 7996 7995 ] final -151.48 input   59.86 | X-H torsion
[ 10167 10162 10161 10158 ] final  167.03 input  -65.29 | X-H torsion
[ 10718 10713 10712 10709 ] final  -21.33 input   66.30 | X-H torsion
[ 10763 10752 10751 10750 ] final -146.30 input  -60.55 | X-H torsion
[ 11005 11000 10999 10996 ] final   70.47 input  -57.11 | X-H torsion

> <Gold.Protein.ActiveResidues>
 VAL166  LYS551  ARG553  GLY616  TRP617  ASP618  TYR619  PRO620  LYS621  CYS622 
 ASP623  PHE694  ASN695  SER759  ASP760  ASP761  ALA762  ILE779  LEU786  VAL792 
 PHE793  MET794  SER795  GLU796  ALA797  LYS798  CYS799  TRP800  GLU811  SER814 

> <Gold.Protein.RotatedAtoms>
  151.8493  135.0563  160.0456 H   0  0  0  0  0  0  0  0  0  0  0  0  # atno 6907 bound_to 6896
  152.2748  133.5411  159.5470 H   0  0  0  0  0  0  0  0  0  0  0  0  # atno 6908 bound_to 6896
  150.7166  134.0563  159.3858 H   0  0  0  0  0  0  0  0  0  0  0  0  # atno 6909 bound_to 6896
  146.2132  139.8249  142.8672 H   0  0  0  0  0  0  0  0  0  0  0  0  # atno 7974 bound_to 7965
  155.6401  140.0701  157.2621 H   0  0  0  0  0  0  0  0  0  0  0  0  # atno 8008 bound_to 7997
  154.4185  140.1752  156.1613 H   0  0  0  0  0  0  0  0  0  0  0  0  # atno 8009 bound_to 7997
  155.9862  140.3349  155.6713 H   0  0  0  0  0  0  0  0  0  0  0  0  # atno 8010 bound_to 7997
  139.4936  144.3965  151.9458 H   0  0  0  0  0  0  0  0  0  0  0  0  # atno 10167 bound_to 10162
  156.5196  130.4629  149.6604 H   0  0  0  0  0  0  0  0  0  0  0  0  # atno 10718 bound_to 10713
  154.8342  135.3390  154.6640 H   0  0  0  0  0  0  0  0  0  0  0  0  # atno 10763 bound_to 10752
  153.7257  135.6955  153.5006 H   0  0  0  0  0  0  0  0  0  0  0  0  # atno 10764 bound_to 10752
  153.2349  135.4404  155.0588 H   0  0  0  0  0  0  0  0  0  0  0  0  # atno 10765 bound_to 10752
  139.9596  134.7085  156.0676 H   0  0  0  0  0  0  0  0  0  0  0  0  # atno 11005 bound_to 11000
  145.3057  141.0206  143.3583 LP  0  0  0  0  0  0  0  0  0  0  0  0  # atno 17320 bound_to 7965
  144.8973  139.4696  143.6649 LP  0  0  0  0  0  0  0  0  0  0  0  0  # atno 17321 bound_to 7965
  140.3404  144.3210  150.5968 LP  0  0  0  0  0  0  0  0  0  0  0  0  # atno 17342 bound_to 10162
  140.5571  143.2197  151.7829 LP  0  0  0  0  0  0  0  0  0  0  0  0  # atno 17343 bound_to 10162
  156.3162  130.7255  151.2158 LP  0  0  0  0  0  0  0  0  0  0  0  0  # atno 17370 bound_to 10713
  157.7439  131.0468  150.4912 LP  0  0  0  0  0  0  0  0  0  0  0  0  # atno 17371 bound_to 10713
  141.1271  133.6596  156.3366 LP  0  0  0  0  0  0  0  0  0  0  0  0  # atno 17394 bound_to 11000
  140.5531  134.6008  157.5413 LP  0  0  0  0  0  0  0  0  0  0  0  0  # atno 17395 bound_to 11000

$$$$
