AV-unprocessed.smi:1275|AV-procd|sdf|5342|dock8
  -GOLD-   22720 4473D 1   1.00000     0.00000
 Structure written by MMmdl.
 42 43  0  0  0  0  0  0  0  0  1 V2000
  152.7797  133.2216  165.1742 C   0  0  0  0  0  0  0  0  0  0  0  0
  153.8869  133.4137  164.3118 O   0  0  0  0  0  0  0  0  0  0  0  0
  153.7283  132.7501  163.0690 C   0  0  0  0  0  0  0  0  0  0  0  0
  154.9704  132.9943  162.2070 C   0  0  0  0  0  0  0  0  0  0  0  0
  154.5904  133.7359  161.0516 O   0  0  0  0  0  0  0  0  0  0  0  0
  154.4943  135.1085  161.1516 C   0  0  0  0  0  0  0  0  0  0  0  0
  154.7728  135.7143  162.3929 C   0  0  0  0  0  0  0  0  0  0  0  0
  154.6841  137.1152  162.5028 C   0  0  0  0  0  0  0  0  0  0  0  0
  154.3256  137.8691  161.3603 C   0  0  0  0  0  0  0  0  0  0  0  0
  154.1853  139.2830  161.3480 N   0  0  0  0  0  0  0  0  0  0  0  0
  154.3475  140.1368  160.3180 C   0  0  0  0  0  0  0  0  0  0  0  0
  154.6716  139.7763  159.1861 O   0  0  0  0  0  0  0  0  0  0  0  0
  154.1272  141.4382  160.6343 N   0  0  0  0  0  0  0  0  0  0  0  0
  153.7903  141.9821  161.9581 C   0  0  0  0  0  0  0  0  0  0  0  0
  152.3339  142.4776  161.9173 C   0  0  0  0  0  0  0  0  0  0  0  0
  152.1883  143.4547  160.8892 O   0  0  0  0  0  0  0  0  0  0  0  0
  152.5414  142.9735  159.5930 C   0  0  1  0  0  0  0  0  0  0  0  0
  152.3227  144.1069  158.5848 C   0  0  0  0  0  0  0  0  0  0  0  0
  154.0050  142.4878  159.6182 C   0  0  0  0  0  0  0  0  0  0  0  0
  154.0479  137.1657  160.1704 C   0  0  0  0  0  0  0  0  0  0  0  0
  154.1333  135.8236  160.0574 N   0  0  0  0  0  0  0  0  0  0  0  0
  152.9495  133.7515  166.1112 H   0  0  0  0  0  0  0  0  0  0  0  0
  152.6387  132.1650  165.4053 H   0  0  0  0  0  0  0  0  0  0  0  0
  151.8616  133.6087  164.7302 H   0  0  0  0  0  0  0  0  0  0  0  0
  153.5669  131.6806  163.2126 H   0  0  0  0  0  0  0  0  0  0  0  0
  152.8497  133.1490  162.5600 H   0  0  0  0  0  0  0  0  0  0  0  0
  155.6967  133.5698  162.7831 H   0  0  0  0  0  0  0  0  0  0  0  0
  155.4332  132.0437  161.9365 H   0  0  0  0  0  0  0  0  0  0  0  0
  155.0472  135.1142  163.2478 H   0  0  0  0  0  0  0  0  0  0  0  0
  154.8779  137.5781  163.4578 H   0  0  0  0  0  0  0  0  0  0  0  0
  153.8450  139.6915  162.2063 H   0  0  0  0  0  0  0  0  0  0  0  0
  153.9133  141.2754  162.7783 H   0  0  0  0  0  0  0  0  0  0  0  0
  154.4599  142.8129  162.1846 H   0  0  0  0  0  0  0  0  0  0  0  0
  151.6449  141.6491  161.7455 H   0  0  0  0  0  0  0  0  0  0  0  0
  152.0613  142.9278  162.8716 H   0  0  0  0  0  0  0  0  0  0  0  0
  151.8831  142.1429  159.3321 H   0  0  0  0  0  0  0  0  0  0  0  0
  152.5674  143.7841  157.5725 H   0  0  0  0  0  0  0  0  0  0  0  0
  152.9445  144.9707  158.8207 H   0  0  0  0  0  0  0  0  0  0  0  0
  151.2828  144.4344  158.5863 H   0  0  0  0  0  0  0  0  0  0  0  0
  154.6751  143.3121  159.8673 H   0  0  0  0  0  0  0  0  0  0  0  0
  154.3041  142.1509  158.6247 H   0  0  0  0  0  0  0  0  0  0  0  0
  153.7544  137.6962  159.2761 H   0  0  0  0  0  0  0  0  0  0  0  0
  1  2  1  0  0  0  0
  1 22  1  0  0  0  0
  1 23  1  0  0  0  0
  1 24  1  0  0  0  0
  2  3  1  0  0  0  0
  3  4  1  0  0  0  0
  3 25  1  0  0  0  0
  3 26  1  0  0  0  0
  4  5  1  0  0  0  0
  4 27  1  0  0  0  0
  4 28  1  0  0  0  0
  5  6  1  0  0  0  0
  6 21  1  0  0  0  0
  6  7  2  0  0  0  0
  7  8  1  0  0  0  0
  7 29  1  0  0  0  0
  8  9  2  0  0  0  0
  8 30  1  0  0  0  0
  9 10  1  0  0  0  0
  9 20  1  0  0  0  0
 10 11  1  0  0  0  0
 10 31  1  0  0  0  0
 11 12  2  0  0  0  0
 11 13  1  0  0  0  0
 13 19  1  0  0  0  0
 13 14  1  0  0  0  0
 14 15  1  0  0  0  0
 14 32  1  0  0  0  0
 14 33  1  0  0  0  0
 15 16  1  0  0  0  0
 15 34  1  0  0  0  0
 15 35  1  0  0  0  0
 16 17  1  0  0  0  0
 17 18  1  0  0  0  0
 17 19  1  0  0  0  0
 17 36  1  0  0  0  0
 18 37  1  0  0  0  0
 18 38  1  0  0  0  0
 18 39  1  0  0  0  0
 19 40  1  0  0  0  0
 19 41  1  0  0  0  0
 20 21  2  0  0  0  0
 20 42  1  0  0  0  0
M  END
> <s_m_source_file>
AV-unprocessed.smi

> <i_m_source_file_index>
1275

> <i_lp_mmshare_version>
43012

> <i_f3d_flags>
0

> <s_epik_input>
W0NIM11PW0NIMl1bQ0gyXU9jMVtjSF1bY0hdYyhbY0hdbjEpW05IXUMoPU8pTjJbQ0gyXVtDSDJdT1tDQEBIXShbQ0gzXSlbQ0gyXTI=

> <s_epik_cmdline>
J2VwaWtfcHl0aG9uJywgJy1waCcsICc3LjAnLCAnLXRuJywgJzgnLCAnLW1hJywgJzIwMCcsICctbWV0YWxfYmluZGluZycsICctaW1hZScsICc8aW5maWxlLm1hZT4nLCAnLW9tYWUnLCAnPG91dGZpbGUubWFlPic=

> <r_lp_tautomer_probability>
1

> <r_epik_Ionization_Penalty>
5.69099e-05

> <r_epik_Ionization_Penalty_Charging>
0

> <r_epik_Ionization_Penalty_Neutral>
5.69099e-05

> <r_epik_State_Penalty>
-0

> <r_epik_Charging_Adjusted_Penalty>
0

> <i_epik_Tot_Q>
0

> <i_epik_Tot_abs_Q>
0

> <r_epik_Metal_State_Penalty>
-0

> <b_epik_Metal_Only>
0

> <s_lp_Force_Field>
OPLS_2005

> <r_lp_Energy>
32.9839

> <b_lp_Chiralities_Consistent>
1

> <s_lp_Variant>
AV-unprocessed.smi:1275-1

> <Gold.Version>
5.8.1

> <Gold.Id.Protein>
6NUR|6NUR_protein|mol2

> <Gold.PLP.Fitness>
44.7016

> <Gold.PLP.PLP>
-40.6090

> <Gold.PLP.part.hbond>
-2.0566

> <Gold.PLP.part.metal>
0.0000

> <Gold.PLP.part.buried>
-3.7902

> <Gold.PLP.part.nonpolar>
-34.8218

> <Gold.PLP.part.repulsive>
0.1776

> <Gold.PLP.ligand.clash>
0.5969

> <Gold.PLP.ligand.torsion>
0.7017

> <Gold.PLP.Chemscore.Hbond>
2.0000

> <Gold.PLP.Chemscore.CHOScore>
0.0000

> <Gold.PLP.Chemscore.Metal>
0.0000

> <Gold.Chemscore.Hbonds>
donor molecule, donor type, donor heavy atom, donor atom, acceptor molecule, acceptor atom, score
      P1  H  6896  6908       L1    21  0.45
      P1  H  7997  8008       L1    12  1.00

> <Gold.PLP.Chemscore.Internal.Correction>
0.0930

> <Gold.Rescore>
     Score         DG    S(hbond)    S(metal)    S(lipo)     H(rot)  DE(clash)    DE(int)     intcor
     16.12     -18.44       1.59        0.00     100.75       1.62       0.27       2.05       ----

> <Gold.Chemscore.Fitness>
16.1200

> <Gold.Chemscore.DG>
-18.4412

> <Gold.Chemscore.ZeroCoef>
-5.4800

> <Gold.Chemscore.Hbond>
1.5912

> <Gold.Chemscore.Metal>
0.0000

> <Gold.Chemscore.Lipo>
100.7540

> <Gold.Chemscore.Internal_Hbond>
0.0000

> <Gold.Chemscore.DEClash>
0.2716

> <Gold.Chemscore.DEInternal>
2.0495

> <Gold.Chemscore.Rot>
1.6178

> <Gold.Chemscore.Internal.Correction>
   9.000000E+99

> <Gold.Chemscore.Hbonds>
donor molecule, donor type, donor heavy atom, donor atom, acceptor molecule, acceptor atom, score
      P1  H  6896  6908       L1    21  0.02
      P1  H  7997  8008       L1    12  0.98

> <Gold.Chemscore.Hbond.Weighted>
-5.3146

> <Gold.Chemscore.Metal.Weighted>
-0.0000

> <Gold.Chemscore.Lipo.Weighted>
-11.7882

> <Gold.Chemscore.Internal_Hbond.Weighted>
0.0000

> <Gold.Chemscore.DEClash.Weighted>
0.2716

> <Gold.Chemscore.DEInternal.Weighted>
2.0495

> <Gold.Chemscore.Rot.Weighted>
4.1416

> <Gold.Chemscore.Internal.Correction.Weighted>
   9.000000E+99

> <Gold.Protein.RotatedTorsions>
[ 6907 6896 6895 6894 ] final  -80.98 input  -60.11 | X-H torsion
[ 7974 7965 7964 7962 ] final  -30.93 input  175.53 | X-H torsion
[ 8008 7997 7996 7995 ] final -128.49 input   59.86 | X-H torsion
[ 10167 10162 10161 10158 ] final  -29.18 input  -65.29 | X-H torsion
[ 10718 10713 10712 10709 ] final   60.42 input   66.30 | X-H torsion
[ 10763 10752 10751 10750 ] final   77.71 input  -60.55 | X-H torsion
[ 11005 11000 10999 10996 ] final   10.79 input  -57.11 | X-H torsion

> <Gold.Protein.ActiveResidues>
 VAL166  LYS551  ARG553  GLY616  TRP617  ASP618  TYR619  PRO620  LYS621  CYS622 
 ASP623  PHE694  ASN695  SER759  ASP760  ASP761  ALA762  ILE779  LEU786  VAL792 
 PHE793  MET794  SER795  GLU796  ALA797  LYS798  CYS799  TRP800  GLU811  SER814 

> <Gold.Protein.RotatedAtoms>
  150.6920  134.3887  159.5066 H   0  0  0  0  0  0  0  0  0  0  0  0  # atno 6907 bound_to 6896
  152.1678  134.8856  160.0546 H   0  0  0  0  0  0  0  0  0  0  0  0  # atno 6908 bound_to 6896
  151.9894  133.3750  159.4175 H   0  0  0  0  0  0  0  0  0  0  0  0  # atno 6909 bound_to 6896
  146.1105  140.5603  142.8780 H   0  0  0  0  0  0  0  0  0  0  0  0  # atno 7974 bound_to 7965
  155.2636  140.0437  157.3000 H   0  0  0  0  0  0  0  0  0  0  0  0  # atno 8008 bound_to 7997
  154.5696  140.2370  155.8181 H   0  0  0  0  0  0  0  0  0  0  0  0  # atno 8009 bound_to 7997
  156.2112  140.2998  155.9744 H   0  0  0  0  0  0  0  0  0  0  0  0  # atno 8010 bound_to 7997
  140.7263  143.3950  151.1364 H   0  0  0  0  0  0  0  0  0  0  0  0  # atno 10167 bound_to 10162
  157.5751  130.8938  149.9333 H   0  0  0  0  0  0  0  0  0  0  0  0  # atno 10718 bound_to 10713
  153.0819  135.4904  154.8520 H   0  0  0  0  0  0  0  0  0  0  0  0  # atno 10763 bound_to 10752
  154.7162  135.3030  154.9123 H   0  0  0  0  0  0  0  0  0  0  0  0  # atno 10764 bound_to 10752
  153.9801  135.6791  153.4803 H   0  0  0  0  0  0  0  0  0  0  0  0  # atno 10765 bound_to 10752
  140.5105  134.0657  155.7817 H   0  0  0  0  0  0  0  0  0  0  0  0  # atno 11005 bound_to 11000
  144.7508  140.5185  143.6803 LP  0  0  0  0  0  0  0  0  0  0  0  0  # atno 17320 bound_to 7965
  145.5672  139.1482  143.3308 LP  0  0  0  0  0  0  0  0  0  0  0  0  # atno 17321 bound_to 7965
  139.7561  143.8706  152.3089 LP  0  0  0  0  0  0  0  0  0  0  0  0  # atno 17342 bound_to 10162
  139.8576  144.7133  150.9139 LP  0  0  0  0  0  0  0  0  0  0  0  0  # atno 17343 bound_to 10162
  156.0796  130.3674  150.0607 LP  0  0  0  0  0  0  0  0  0  0  0  0  # atno 17370 bound_to 10713
  156.8755  130.9538  151.3605 LP  0  0  0  0  0  0  0  0  0  0  0  0  # atno 17371 bound_to 10713
  141.1388  133.9175  157.2373 LP  0  0  0  0  0  0  0  0  0  0  0  0  # atno 17394 bound_to 11000
  139.9661  135.0141  156.9392 LP  0  0  0  0  0  0  0  0  0  0  0  0  # atno 17395 bound_to 11000

$$$$
