AV-unprocessed.smi:2045|AV-procd|sdf|8310|dock3
  -GOLD-   2272010573D 1   1.00000     0.00000
 Structure written by MMmdl.
 38 39  0  0  0  0  0  0  0  0  3 V2000
  152.7375  137.1708  157.0145 C   0  0  0  0  0  0  0  0  0  0  0  0
  151.9724  138.0243  156.0623 C   0  0  0  0  0  0  0  0  0  0  0  0
  150.7736  137.8651  155.4265 C   0  0  0  0  0  0  0  0  0  0  0  0
  150.6500  139.0607  154.6693 C   0  0  0  0  0  0  0  0  0  0  0  0
  149.5096  139.2863  153.8536 N   0  0  0  0  0  0  0  0  0  0  0  0
  148.2209  138.9914  154.1053 C   0  0  0  0  0  0  0  0  0  0  0  0
  147.8978  138.4694  155.1791 O   0  0  0  0  0  0  0  0  0  0  0  0
  147.4040  139.3332  153.0713 N   0  5  0  0  0  0  0  0  0  0  0  0
  146.3586  138.4749  152.5190 C   0  0  0  0  0  0  0  0  0  0  0  0
  146.2260  137.2051  153.3808 C   0  0  0  0  0  0  0  0  0  0  0  0
  146.0691  135.9803  152.5514 N   0  3  0  0  0  0  0  0  0  0  0  0
  145.9093  134.7508  153.3729 C   0  0  0  0  0  0  0  0  0  0  0  0
  145.9003  133.4883  152.4941 C   0  0  0  0  0  0  0  0  0  0  0  0
  144.8087  133.5710  151.4194 C   0  0  0  0  0  0  0  0  0  0  0  0
  144.9754  134.8595  150.6042 C   0  0  0  0  0  0  0  0  0  0  0  0
  144.9954  136.0923  151.5232 C   0  0  0  0  0  0  0  0  0  0  0  0
  151.6821  139.8756  154.8298 N   0  0  0  0  0  0  0  0  0  0  0  0
  152.5347  139.2154  155.7224 O   0  0  0  0  0  0  0  0  0  0  0  0
  152.2327  136.2184  157.1768 H   0  0  0  0  0  0  0  0  0  0  0  0
  152.8419  137.6671  157.9793 H   0  0  0  0  0  0  0  0  0  0  0  0
  153.7359  136.9631  156.6299 H   0  0  0  0  0  0  0  0  0  0  0  0
  150.0946  137.0282  155.4937 H   0  0  0  0  0  0  0  0  0  0  0  0
  149.6924  139.7181  152.9601 H   0  0  0  0  0  0  0  0  0  0  0  0
  145.3903  138.9761  152.4837 H   0  0  0  0  0  0  0  0  0  0  0  0
  146.5803  138.1838  151.4916 H   0  0  0  0  0  0  0  0  0  0  0  0
  147.1241  137.1220  153.9954 H   0  0  0  0  0  0  0  0  0  0  0  0
  145.3927  137.2914  154.0805 H   0  0  0  0  0  0  0  0  0  0  0  0
  146.7287  134.6778  154.0891 H   0  0  0  0  0  0  0  0  0  0  0  0
  144.9859  134.8162  153.9505 H   0  0  0  0  0  0  0  0  0  0  0  0
  146.8744  133.3666  152.0184 H   0  0  0  0  0  0  0  0  0  0  0  0
  145.7463  132.6043  153.1134 H   0  0  0  0  0  0  0  0  0  0  0  0
  144.8557  132.7004  150.7646 H   0  0  0  0  0  0  0  0  0  0  0  0
  143.8249  133.5561  151.8902 H   0  0  0  0  0  0  0  0  0  0  0  0
  145.9024  134.8149  150.0309 H   0  0  0  0  0  0  0  0  0  0  0  0
  144.1664  134.9487  149.8786 H   0  0  0  0  0  0  0  0  0  0  0  0
  144.0286  136.2063  152.0162 H   0  0  0  0  0  0  0  0  0  0  0  0
  145.1445  136.9859  150.9164 H   0  0  0  0  0  0  0  0  0  0  0  0
  146.9427  135.8730  152.0556 H   0  0  0  0  0  0  0  0  0  0  0  0
  1  2  1  0  0  0  0
  1 19  1  0  0  0  0
  1 20  1  0  0  0  0
  1 21  1  0  0  0  0
  2 18  1  0  0  0  0
  2  3  2  0  0  0  0
  3  4  1  0  0  0  0
  3 22  1  0  0  0  0
  4  5  1  0  0  0  0
  4 17  2  0  0  0  0
  5  6  1  0  0  0  0
  5 23  1  0  0  0  0
  6  7  2  0  0  0  0
  6  8  1  0  0  0  0
  8  9  1  0  0  0  0
  9 10  1  0  0  0  0
  9 24  1  0  0  0  0
  9 25  1  0  0  0  0
 10 11  1  0  0  0  0
 10 26  1  0  0  0  0
 10 27  1  0  0  0  0
 11 16  1  0  0  0  0
 11 12  1  0  0  0  0
 11 38  1  0  0  0  0
 12 13  1  0  0  0  0
 12 28  1  0  0  0  0
 12 29  1  0  0  0  0
 13 14  1  0  0  0  0
 13 30  1  0  0  0  0
 13 31  1  0  0  0  0
 14 15  1  0  0  0  0
 14 32  1  0  0  0  0
 14 33  1  0  0  0  0
 15 16  1  0  0  0  0
 15 34  1  0  0  0  0
 15 35  1  0  0  0  0
 16 36  1  0  0  0  0
 16 37  1  0  0  0  0
 17 18  1  0  0  0  0
M  CHG  1   8  -1
M  CHG  1  11   1
M  END
> <s_m_source_file>
AV-unprocessed.smi

> <i_m_source_file_index>
2045

> <i_lp_mmshare_version>
43012

> <i_f3d_flags>
0

> <s_epik_input>
W0NIM11jMVtjSF1jKG5vMSlbTkhdQyg9TylbTkhdW0NIMl1bQ0gyXU4yW0NIMl1bQ0gyXVtDSDJdW0NIMl1bQ0gyXTI=

> <s_epik_cmdline>
J2VwaWtfcHl0aG9uJywgJy1waCcsICc3LjAnLCAnLXRuJywgJzgnLCAnLW1hJywgJzIwMCcsICctbWV0YWxfYmluZGluZycsICctaW1hZScsICc8aW5maWxlLm1hZT4nLCAnLW9tYWUnLCAnPG91dGZpbGUubWFlPic=

> <r_epik_Ionization_Penalty>
6.7666

> <r_epik_Ionization_Penalty_Charging>
6.7666

> <r_epik_Ionization_Penalty_Neutral>
5.77131e-06

> <r_epik_State_Penalty>
6.79217

> <r_epik_Charging_Adjusted_Penalty>
13.5588

> <i_epik_Tot_Q>
0

> <i_epik_Tot_abs_Q>
2

> <r_epik_Metal_State_Penalty>
2.72569

> <b_epik_Metal_Only>
1

> <s_lp_Force_Field>
OPLS_2005

> <r_lp_Energy>
13.1294

> <b_lp_Chiralities_Consistent>
1

> <s_lp_Variant>
AV-unprocessed.smi:2045-3

> <Gold.Version>
5.8.1

> <Gold.Id.Protein>
6NUR|6NUR_protein|mol2

> <Gold.PLP.Fitness>
38.4599

> <Gold.PLP.PLP>
-25.4720

> <Gold.PLP.part.hbond>
-3.8014

> <Gold.PLP.part.metal>
0.0000

> <Gold.PLP.part.buried>
-4.2037

> <Gold.PLP.part.nonpolar>
-19.3166

> <Gold.PLP.part.repulsive>
1.7690

> <Gold.PLP.ligand.clash>
0.0000

> <Gold.PLP.ligand.torsion>
1.0291

> <Gold.PLP.Chemscore.Hbond>
5.0000

> <Gold.PLP.Chemscore.CHOScore>
0.0000

> <Gold.PLP.Chemscore.Metal>
0.0000

> <Gold.Chemscore.Hbonds>
donor molecule, donor type, donor heavy atom, donor atom, acceptor molecule, acceptor atom, score
      L1  H     5    23       P1  7957  1.00
      L1  H    11    38       P1  7948  2.00
      P1  H  7989  7998       L1    17  1.00
      P1  H  7997  8010       L1    18  0.84

> <Gold.PLP.Chemscore.Internal.Correction>
0.0460

> <Gold.Rescore>
     Score         DG    S(hbond)    S(metal)    S(lipo)     H(rot)  DE(clash)    DE(int)     intcor
     15.39     -19.06       3.58        0.00      47.79       1.55       0.00       3.67       ----

> <Gold.Chemscore.Fitness>
15.3864

> <Gold.Chemscore.DG>
-19.0633

> <Gold.Chemscore.ZeroCoef>
-5.4800

> <Gold.Chemscore.Hbond>
3.5844

> <Gold.Chemscore.Metal>
0.0000

> <Gold.Chemscore.Lipo>
47.7855

> <Gold.Chemscore.Internal_Hbond>
0.0000

> <Gold.Chemscore.DEClash>
0.0021

> <Gold.Chemscore.DEInternal>
3.6748

> <Gold.Chemscore.Rot>
1.5544

> <Gold.Chemscore.Internal.Correction>
   9.000000E+99

> <Gold.Chemscore.Hbonds>
donor molecule, donor type, donor heavy atom, donor atom, acceptor molecule, acceptor atom, score
      L1  H     5    23       P1  7957  1.00
      L1  H    11    38       P1  7948  0.91
      P1  H  7989  7998       L1    17  0.49
      P1  H  7997  8010       L1    18  0.78

> <Gold.Chemscore.Hbond.Weighted>
-11.9718

> <Gold.Chemscore.Metal.Weighted>
-0.0000

> <Gold.Chemscore.Lipo.Weighted>
-5.5909

> <Gold.Chemscore.Internal_Hbond.Weighted>
0.0000

> <Gold.Chemscore.DEClash.Weighted>
0.0021

> <Gold.Chemscore.DEInternal.Weighted>
3.6748

> <Gold.Chemscore.Rot.Weighted>
3.9794

> <Gold.Chemscore.Internal.Correction.Weighted>
   9.000000E+99

> <Gold.Protein.RotatedTorsions>
[ 6907 6896 6895 6894 ] final -167.91 input  -60.11 | X-H torsion
[ 7974 7965 7964 7962 ] final   15.71 input  175.53 | X-H torsion
[ 8008 7997 7996 7995 ] final   88.77 input   59.86 | X-H torsion
[ 10167 10162 10161 10158 ] final  -22.28 input  -65.29 | X-H torsion
[ 10718 10713 10712 10709 ] final   88.30 input   66.30 | X-H torsion
[ 10763 10752 10751 10750 ] final  162.94 input  -60.55 | X-H torsion
[ 11005 11000 10999 10996 ] final  -34.06 input  -57.11 | X-H torsion

> <Gold.Protein.ActiveResidues>
 VAL166  LYS551  ARG553  GLY616  TRP617  ASP618  TYR619  PRO620  LYS621  CYS622 
 ASP623  PHE694  ASN695  SER759  ASP760  ASP761  ALA762  ILE779  LEU786  VAL792 
 PHE793  MET794  SER795  GLU796  ALA797  LYS798  CYS799  TRP800  GLU811  SER814 

> <Gold.Protein.RotatedAtoms>
  151.4670  133.3578  159.2817 H   0  0  0  0  0  0  0  0  0  0  0  0  # atno 6907 bound_to 6896
  150.8986  134.8398  159.7355 H   0  0  0  0  0  0  0  0  0  0  0  0  # atno 6908 bound_to 6896
  152.4866  134.4588  159.9650 H   0  0  0  0  0  0  0  0  0  0  0  0  # atno 6909 bound_to 6896
  146.2270  139.8854  142.8563 H   0  0  0  0  0  0  0  0  0  0  0  0  # atno 7974 bound_to 7965
  155.9919  140.3368  155.6761 H   0  0  0  0  0  0  0  0  0  0  0  0  # atno 8008 bound_to 7997
  155.6409  140.0695  157.2637 H   0  0  0  0  0  0  0  0  0  0  0  0  # atno 8009 bound_to 7997
  154.4222  140.1743  156.1559 H   0  0  0  0  0  0  0  0  0  0  0  0  # atno 8010 bound_to 7997
  140.7285  143.4549  151.0463 H   0  0  0  0  0  0  0  0  0  0  0  0  # atno 10167 bound_to 10162
  157.6948  131.0289  150.3254 H   0  0  0  0  0  0  0  0  0  0  0  0  # atno 10718 bound_to 10713
  154.2861  135.2762  155.2675 H   0  0  0  0  0  0  0  0  0  0  0  0  # atno 10763 bound_to 10752
  154.5175  135.5765  153.6657 H   0  0  0  0  0  0  0  0  0  0  0  0  # atno 10764 bound_to 10752
  152.9921  135.6196  154.3023 H   0  0  0  0  0  0  0  0  0  0  0  0  # atno 10765 bound_to 10752
  140.9685  133.7123  156.1485 H   0  0  0  0  0  0  0  0  0  0  0  0  # atno 11005 bound_to 11000
  145.2471  141.0030  143.3902 LP  0  0  0  0  0  0  0  0  0  0  0  0  # atno 17320 bound_to 7965
  144.9405  139.4195  143.6451 LP  0  0  0  0  0  0  0  0  0  0  0  0  # atno 17321 bound_to 7965
  139.8228  143.7796  152.3177 LP  0  0  0  0  0  0  0  0  0  0  0  0  # atno 17342 bound_to 10162
  139.7885  144.7419  150.9988 LP  0  0  0  0  0  0  0  0  0  0  0  0  # atno 17343 bound_to 10162
  156.3735  130.3868  149.7157 LP  0  0  0  0  0  0  0  0  0  0  0  0  # atno 17370 bound_to 10713
  156.4563  130.7930  151.2951 LP  0  0  0  0  0  0  0  0  0  0  0  0  # atno 17371 bound_to 10713
  140.7364  134.4199  157.5560 LP  0  0  0  0  0  0  0  0  0  0  0  0  # atno 17394 bound_to 11000
  139.8903  134.8807  156.2375 LP  0  0  0  0  0  0  0  0  0  0  0  0  # atno 17395 bound_to 11000

$$$$
