AV-unprocessed.smi:2195|AV-procd|sdf|8904|dock4
  -GOLD-   2272012123D 1   1.00000     0.00000
 Structure written by MMmdl.
 39 41  0  0  0  0  0  0  0  0  1 V2000
  144.4276  145.7883  153.9802 C   0  0  0  0  0  0  0  0  0  0  0  0
  145.0440  144.4428  154.3026 C   0  0  0  0  0  0  0  0  0  0  0  0
  146.0003  143.8688  153.4415 C   0  0  0  0  0  0  0  0  0  0  0  0
  146.5684  142.6184  153.7515 C   0  0  0  0  0  0  0  0  0  0  0  0
  146.1948  141.9243  154.9202 C   0  0  0  0  0  0  0  0  0  0  0  0
  146.8035  140.7087  155.1446 O   0  0  0  0  0  0  0  0  0  0  0  0
  148.0965  140.4884  154.5946 C   0  0  0  0  0  0  0  0  0  0  0  0
  149.1433  141.2975  155.3780 C   0  0  2  0  0  0  0  0  0  0  0  0
  149.4268  142.4945  154.6806 O   0  0  0  0  0  0  0  0  0  0  0  0
  150.4298  140.5080  155.6890 C   0  0  0  0  0  0  0  0  0  0  0  0
  150.9425  140.7903  157.0176 N   0  0  0  0  0  0  0  0  0  0  0  0
  151.0647  139.9206  158.0387 C   0  0  0  0  0  0  0  0  0  0  0  0
  151.5613  140.3870  159.1809 N   0  0  0  0  0  0  0  0  0  0  0  0
  151.7902  141.7149  158.8639 C   0  0  0  0  0  0  0  0  0  0  0  0
  152.3147  142.7673  159.6478 C   0  0  0  0  0  0  0  0  0  0  0  0
  152.4573  144.0608  159.1037 C   0  0  0  0  0  0  0  0  0  0  0  0
  152.0782  144.3219  157.7707 C   0  0  0  0  0  0  0  0  0  0  0  0
  151.5530  143.2894  156.9703 C   0  0  0  0  0  0  0  0  0  0  0  0
  151.4131  142.0001  157.5166 C   0  0  0  0  0  0  0  0  0  0  0  0
  145.2306  142.5061  155.7814 C   0  0  0  0  0  0  0  0  0  0  0  0
  144.6610  143.7566  155.4716 C   0  0  0  0  0  0  0  0  0  0  0  0
  144.8612  146.2192  153.0772 H   0  0  0  0  0  0  0  0  0  0  0  0
  144.5918  146.4853  154.8023 H   0  0  0  0  0  0  0  0  0  0  0  0
  143.3532  145.6840  153.8269 H   0  0  0  0  0  0  0  0  0  0  0  0
  146.3032  144.3831  152.5412 H   0  0  0  0  0  0  0  0  0  0  0  0
  147.3018  142.1876  153.0857 H   0  0  0  0  0  0  0  0  0  0  0  0
  148.3536  139.4277  154.6032 H   0  0  0  0  0  0  0  0  0  0  0  0
  148.1012  140.8222  153.5556 H   0  0  0  0  0  0  0  0  0  0  0  0
  148.6859  141.5992  156.3210 H   0  0  0  0  0  0  0  0  0  0  0  0
  149.2106  143.2258  155.2388 H   0  0  0  0  0  0  0  0  0  0  0  0
  150.2384  139.4364  155.6181 H   0  0  0  0  0  0  0  0  0  0  0  0
  151.2095  140.7336  154.9606 H   0  0  0  0  0  0  0  0  0  0  0  0
  150.7703  138.8861  157.9375 H   0  0  0  0  0  0  0  0  0  0  0  0
  152.6076  142.5790  160.6701 H   0  0  0  0  0  0  0  0  0  0  0  0
  152.8592  144.8571  159.7127 H   0  0  0  0  0  0  0  0  0  0  0  0
  152.1906  145.3161  157.3635 H   0  0  0  0  0  0  0  0  0  0  0  0
  151.2601  143.4865  155.9497 H   0  0  0  0  0  0  0  0  0  0  0  0
  144.9098  142.0131  156.6863 H   0  0  0  0  0  0  0  0  0  0  0  0
  143.9275  144.1891  156.1363 H   0  0  0  0  0  0  0  0  0  0  0  0
  1  2  1  0  0  0  0
  1 22  1  0  0  0  0
  1 23  1  0  0  0  0
  1 24  1  0  0  0  0
  2 21  1  0  0  0  0
  2  3  2  0  0  0  0
  3  4  1  0  0  0  0
  3 25  1  0  0  0  0
  4  5  2  0  0  0  0
  4 26  1  0  0  0  0
  5  6  1  0  0  0  0
  5 20  1  0  0  0  0
  6  7  1  0  0  0  0
  7  8  1  0  0  0  0
  7 27  1  0  0  0  0
  7 28  1  0  0  0  0
  8  9  1  0  0  0  0
  8 10  1  0  0  0  0
  8 29  1  0  0  0  0
  9 30  1  0  0  0  0
 10 11  1  0  0  0  0
 10 31  1  0  0  0  0
 10 32  1  0  0  0  0
 11 19  1  0  0  0  0
 11 12  1  0  0  0  0
 12 13  2  0  0  0  0
 12 33  1  0  0  0  0
 13 14  1  0  0  0  0
 14 19  2  0  0  0  0
 14 15  1  0  0  0  0
 15 16  2  0  0  0  0
 15 34  1  0  0  0  0
 16 17  1  0  0  0  0
 16 35  1  0  0  0  0
 17 18  2  0  0  0  0
 17 36  1  0  0  0  0
 18 19  1  0  0  0  0
 18 37  1  0  0  0  0
 20 21  2  0  0  0  0
 20 38  1  0  0  0  0
 21 39  1  0  0  0  0
M  END
> <s_m_source_file>
AV-unprocessed.smi

> <i_m_source_file_index>
2195

> <i_lp_mmshare_version>
43012

> <i_f3d_flags>
0

> <s_epik_input>
W0NIM11jMVtjSF1bY0hdYyhbY0hdW2NIXTEpT1tDSDJdW0NASF0oW09IXSlbQ0gyXW4oW2NIXW4yKWMoYzIzKVtjSF1bY0hdW2NIXVtjSF0z

> <s_epik_cmdline>
J2VwaWtfcHl0aG9uJywgJy1waCcsICc3LjAnLCAnLXRuJywgJzgnLCAnLW1hJywgJzIwMCcsICctbWV0YWxfYmluZGluZycsICctaW1hZScsICc8aW5maWxlLm1hZT4nLCAnLW9tYWUnLCAnPG91dGZpbGUubWFlPic=

> <r_lp_tautomer_probability>
1

> <r_epik_Ionization_Penalty>
0.0609831

> <r_epik_Ionization_Penalty_Charging>
0

> <r_epik_Ionization_Penalty_Neutral>
0.0609831

> <r_epik_State_Penalty>
0.0529032

> <r_epik_Charging_Adjusted_Penalty>
0.0529032

> <i_epik_Tot_Q>
0

> <i_epik_Tot_abs_Q>
0

> <r_epik_Metal_State_Penalty>
5.53344e-05

> <b_epik_Metal_Only>
0

> <s_lp_Force_Field>
OPLS_2005

> <r_lp_Energy>
15.928

> <b_lp_Chiralities_Consistent>
1

> <s_lp_Variant>
AV-unprocessed.smi:2195-1

> <Gold.Version>
5.8.1

> <Gold.Id.Protein>
6NUR|6NUR_protein|mol2

> <Gold.PLP.Fitness>
46.9761

> <Gold.PLP.PLP>
-46.9331

> <Gold.PLP.part.hbond>
-1.5541

> <Gold.PLP.part.metal>
0.0000

> <Gold.PLP.part.buried>
-5.1225

> <Gold.PLP.part.nonpolar>
-40.1953

> <Gold.PLP.part.repulsive>
0.0652

> <Gold.PLP.ligand.clash>
0.0000

> <Gold.PLP.ligand.torsion>
1.5053

> <Gold.PLP.Chemscore.Hbond>
0.9959

> <Gold.PLP.Chemscore.CHOScore>
0.0000

> <Gold.PLP.Chemscore.Metal>
0.0000

> <Gold.Chemscore.Hbonds>
donor molecule, donor type, donor heavy atom, donor atom, acceptor molecule, acceptor atom, score
      L1  H     9    30       P1  8028  1.00
      P1  H  8011  8017       L1     9  0.02

> <Gold.PLP.Chemscore.Internal.Correction>
0.0659

> <Gold.Rescore>
     Score         DG    S(hbond)    S(metal)    S(lipo)     H(rot)  DE(clash)    DE(int)     intcor
     15.65     -17.80       1.05        0.00     123.14       2.19       0.47       1.67       ----

> <Gold.Chemscore.Fitness>
15.6500

> <Gold.Chemscore.DG>
-17.7965

> <Gold.Chemscore.ZeroCoef>
-5.4800

> <Gold.Chemscore.Hbond>
1.0509

> <Gold.Chemscore.Metal>
0.0000

> <Gold.Chemscore.Lipo>
123.1354

> <Gold.Chemscore.Internal_Hbond>
0.0000

> <Gold.Chemscore.DEClash>
0.4725

> <Gold.Chemscore.DEInternal>
1.6739

> <Gold.Chemscore.Rot>
2.1877

> <Gold.Chemscore.Internal.Correction>
   9.000000E+99

> <Gold.Chemscore.Hbonds>
donor molecule, donor type, donor heavy atom, donor atom, acceptor molecule, acceptor atom, score
      L1  H     9    30       P1  8028  0.97
      P1  H  8011  8017       L1     9  0.02

> <Gold.Chemscore.Hbond.Weighted>
-3.5101

> <Gold.Chemscore.Metal.Weighted>
-0.0000

> <Gold.Chemscore.Lipo.Weighted>
-14.4068

> <Gold.Chemscore.Internal_Hbond.Weighted>
0.0000

> <Gold.Chemscore.DEClash.Weighted>
0.4725

> <Gold.Chemscore.DEInternal.Weighted>
1.6739

> <Gold.Chemscore.Rot.Weighted>
5.6005

> <Gold.Chemscore.Internal.Correction.Weighted>
   9.000000E+99

> <Gold.Protein.RotatedTorsions>
[ 6907 6896 6895 6894 ] final  126.50 input  -60.11 | X-H torsion
[ 7974 7965 7964 7962 ] final  -63.72 input  175.53 | X-H torsion
[ 8008 7997 7996 7995 ] final -108.79 input   59.86 | X-H torsion
[ 10167 10162 10161 10158 ] final   90.91 input  -65.29 | X-H torsion
[ 10718 10713 10712 10709 ] final  -91.23 input   66.30 | X-H torsion
[ 10763 10752 10751 10750 ] final  -79.43 input  -60.55 | X-H torsion
[ 11005 11000 10999 10996 ] final   89.87 input  -57.11 | X-H torsion

> <Gold.Protein.ActiveResidues>
 VAL166  LYS551  ARG553  GLY616  TRP617  ASP618  TYR619  PRO620  LYS621  CYS622 
 ASP623  PHE694  ASN695  SER759  ASP760  ASP761  ALA762  ILE779  LEU786  VAL792 
 PHE793  MET794  SER795  GLU796  ALA797  LYS798  CYS799  TRP800  GLU811  SER814 

> <Gold.Protein.RotatedAtoms>
  152.3897  133.6661  159.6227 H   0  0  0  0  0  0  0  0  0  0  0  0  # atno 6907 bound_to 6896
  150.7808  133.8975  159.3340 H   0  0  0  0  0  0  0  0  0  0  0  0  # atno 6908 bound_to 6896
  151.6764  135.0970  160.0259 H   0  0  0  0  0  0  0  0  0  0  0  0  # atno 6909 bound_to 6896
  145.7756  140.8789  143.0357 H   0  0  0  0  0  0  0  0  0  0  0  0  # atno 7974 bound_to 7965
  154.9496  140.0401  157.2137 H   0  0  0  0  0  0  0  0  0  0  0  0  # atno 8008 bound_to 7997
  154.7991  140.2848  155.5913 H   0  0  0  0  0  0  0  0  0  0  0  0  # atno 8009 bound_to 7997
  156.2959  140.2558  156.2855 H   0  0  0  0  0  0  0  0  0  0  0  0  # atno 8010 bound_to 7997
  139.8426  144.6633  150.9265 H   0  0  0  0  0  0  0  0  0  0  0  0  # atno 10167 bound_to 10162
  155.9992  130.4940  150.5443 H   0  0  0  0  0  0  0  0  0  0  0  0  # atno 10718 bound_to 10713
  154.5385  135.5696  153.6819 H   0  0  0  0  0  0  0  0  0  0  0  0  # atno 10763 bound_to 10752
  152.9957  135.6222  154.2533 H   0  0  0  0  0  0  0  0  0  0  0  0  # atno 10764 bound_to 10752
  154.2463  135.2860  155.2814 H   0  0  0  0  0  0  0  0  0  0  0  0  # atno 10765 bound_to 10752
  139.8867  134.8578  156.3203 H   0  0  0  0  0  0  0  0  0  0  0  0  # atno 11005 bound_to 11000
  144.6805  139.9917  143.7484 LP  0  0  0  0  0  0  0  0  0  0  0  0  # atno 17320 bound_to 7965
  146.0126  139.3182  143.0861 LP  0  0  0  0  0  0  0  0  0  0  0  0  # atno 17321 bound_to 7965
  140.7796  143.3899  151.1329 LP  0  0  0  0  0  0  0  0  0  0  0  0  # atno 17342 bound_to 10162
  139.7544  143.8730  152.3085 LP  0  0  0  0  0  0  0  0  0  0  0  0  # atno 17343 bound_to 10162
  157.3375  131.0711  151.1814 LP  0  0  0  0  0  0  0  0  0  0  0  0  # atno 17370 bound_to 10713
  157.2673  130.6687  149.6003 LP  0  0  0  0  0  0  0  0  0  0  0  0  # atno 17371 bound_to 10713
  140.9791  133.7279  156.0645 LP  0  0  0  0  0  0  0  0  0  0  0  0  # atno 17394 bound_to 11000
  140.7773  134.3765  157.5495 LP  0  0  0  0  0  0  0  0  0  0  0  0  # atno 17395 bound_to 11000

$$$$
