AV-unprocessed.smi:1107|AV-procd|sdf|4785|dock7
  -GOLD-   22720 3333D 1   1.00000     0.00000
 Structure written by MMmdl.
 48 49  0  0  0  0  0  0  0  0  3 V2000
  150.7729  142.6186  157.9325 C   0  0  0  0  0  0  0  0  0  0  0  0
  150.8757  141.4951  156.9231 C   0  0  0  0  0  0  0  0  0  0  0  0
  149.9431  141.3447  156.0617 N   0  0  0  0  0  0  0  0  0  0  0  0
  150.0249  140.2978  155.1280 C   0  0  0  0  0  0  0  0  0  0  0  0
  148.8517  140.1696  154.1725 C   0  0  0  0  0  0  0  0  0  0  0  0
  151.0936  139.4504  155.1122 C   0  0  0  0  0  0  0  0  0  0  0  0
  151.2128  138.2508  154.1707 C   0  0  0  0  0  0  0  0  0  0  0  0
  151.0326  136.8886  154.8445 C   0  0  0  0  0  0  0  0  0  0  0  0
  151.8007  136.5361  155.7385 O   0  0  0  0  0  0  0  0  0  0  0  0
  149.9838  136.1576  154.4341 N   0  0  0  0  0  0  0  0  0  0  0  0
  149.4729  134.9447  155.0648 C   0  0  2  0  0  0  0  0  0  0  0  0
  148.7162  135.3167  156.3468 C   0  0  0  0  0  0  0  0  0  0  0  0
  150.6366  133.9682  155.3504 C   0  0  0  0  0  0  0  0  0  0  0  0
  150.2385  132.5349  155.3082 N   0  3  0  0  0  0  0  0  0  0  0  0
  149.5089  132.1940  154.0584 C   0  0  0  0  0  0  0  0  0  0  0  0
  149.0159  130.7367  154.0666 C   0  0  0  0  0  0  0  0  0  0  0  0
  150.1699  129.7601  154.3222 C   0  0  0  0  0  0  0  0  0  0  0  0
  150.9053  130.1472  155.6108 C   0  0  0  0  0  0  0  0  0  0  0  0
  151.3762  131.6090  155.5546 C   0  0  0  0  0  0  0  0  0  0  0  0
  152.1504  139.6629  156.1159 C   0  0  0  0  0  0  0  0  0  0  0  0
  153.1301  138.9198  156.1486 O   0  0  0  0  0  0  0  0  0  0  0  0
  151.9853  140.6842  157.0026 N   0  5  0  0  0  0  0  0  0  0  0  0
  150.1468  143.4270  157.5525 H   0  0  0  0  0  0  0  0  0  0  0  0
  151.7580  143.0302  158.1559 H   0  0  0  0  0  0  0  0  0  0  0  0
  150.3338  142.2495  158.8596 H   0  0  0  0  0  0  0  0  0  0  0  0
  148.4098  139.1749  154.2332 H   0  0  0  0  0  0  0  0  0  0  0  0
  149.1772  140.3435  153.1466 H   0  0  0  0  0  0  0  0  0  0  0  0
  148.0718  140.8959  154.4042 H   0  0  0  0  0  0  0  0  0  0  0  0
  150.4795  138.3260  153.3687 H   0  0  0  0  0  0  0  0  0  0  0  0
  152.1816  138.2793  153.6696 H   0  0  0  0  0  0  0  0  0  0  0  0
  149.4323  136.5337  153.6758 H   0  0  0  0  0  0  0  0  0  0  0  0
  148.7556  134.4550  154.4055 H   0  0  0  0  0  0  0  0  0  0  0  0
  148.3113  134.4293  156.8343 H   0  0  0  0  0  0  0  0  0  0  0  0
  147.8802  135.9823  156.1295 H   0  0  0  0  0  0  0  0  0  0  0  0
  149.3665  135.8218  157.0619 H   0  0  0  0  0  0  0  0  0  0  0  0
  151.4058  134.1351  154.5944 H   0  0  0  0  0  0  0  0  0  0  0  0
  151.1020  134.1941  156.3110 H   0  0  0  0  0  0  0  0  0  0  0  0
  148.6507  132.8573  153.9434 H   0  0  0  0  0  0  0  0  0  0  0  0
  150.1607  132.3640  153.2001 H   0  0  0  0  0  0  0  0  0  0  0  0
  148.2551  130.6093  154.8357 H   0  0  0  0  0  0  0  0  0  0  0  0
  148.5323  130.5023  153.1179 H   0  0  0  0  0  0  0  0  0  0  0  0
  149.7910  128.7404  154.3954 H   0  0  0  0  0  0  0  0  0  0  0  0
  150.8636  129.7779  153.4806 H   0  0  0  0  0  0  0  0  0  0  0  0
  150.2463  130.0067  156.4684 H   0  0  0  0  0  0  0  0  0  0  0  0
  151.7585  129.4864  155.7657 H   0  0  0  0  0  0  0  0  0  0  0  0
  152.1232  131.7311  154.7689 H   0  0  0  0  0  0  0  0  0  0  0  0
  151.8663  131.8540  156.4961 H   0  0  0  0  0  0  0  0  0  0  0  0
  149.5799  132.3967  156.0623 H   0  0  0  0  0  0  0  0  0  0  0  0
  1  2  1  0  0  0  0
  1 23  1  0  0  0  0
  1 24  1  0  0  0  0
  1 25  1  0  0  0  0
  2 22  1  0  0  0  0
  2  3  2  0  0  0  0
  3  4  1  0  0  0  0
  4  5  1  0  0  0  0
  4  6  2  0  0  0  0
  5 26  1  0  0  0  0
  5 27  1  0  0  0  0
  5 28  1  0  0  0  0
  6  7  1  0  0  0  0
  6 20  1  0  0  0  0
  7  8  1  0  0  0  0
  7 29  1  0  0  0  0
  7 30  1  0  0  0  0
  8  9  2  0  0  0  0
  8 10  1  0  0  0  0
 10 11  1  0  0  0  0
 10 31  1  0  0  0  0
 11 12  1  0  0  0  0
 11 13  1  0  0  0  0
 11 32  1  0  0  0  0
 12 33  1  0  0  0  0
 12 34  1  0  0  0  0
 12 35  1  0  0  0  0
 13 14  1  0  0  0  0
 13 36  1  0  0  0  0
 13 37  1  0  0  0  0
 14 19  1  0  0  0  0
 14 15  1  0  0  0  0
 14 48  1  0  0  0  0
 15 16  1  0  0  0  0
 15 38  1  0  0  0  0
 15 39  1  0  0  0  0
 16 17  1  0  0  0  0
 16 40  1  0  0  0  0
 16 41  1  0  0  0  0
 17 18  1  0  0  0  0
 17 42  1  0  0  0  0
 17 43  1  0  0  0  0
 18 19  1  0  0  0  0
 18 44  1  0  0  0  0
 18 45  1  0  0  0  0
 19 46  1  0  0  0  0
 19 47  1  0  0  0  0
 20 21  2  0  0  0  0
 20 22  1  0  0  0  0
M  CHG  1  14   1
M  CHG  1  22  -1
M  END
> <s_m_source_file>
AV-unprocessed.smi

> <i_m_source_file_index>
1107

> <i_lp_mmshare_version>
43012

> <i_f3d_flags>
0

> <s_epik_input>
W0NIM11jMW5jKFtDSDNdKWMoYyg9TylbbkhdMSlbQ0gyXUMoPU8pW05IXVtDQEhdKFtDSDNdKVtDSDJdTjJbQ0gyXVtDSDJdW0NIMl1bQ0gyXVtDSDJdMg==

> <s_epik_cmdline>
J2VwaWtfcHl0aG9uJywgJy1waCcsICc3LjAnLCAnLXRuJywgJzgnLCAnLW1hJywgJzIwMCcsICctbWV0YWxfYmluZGluZycsICctaW1hZScsICc8aW5maWxlLm1hZT4nLCAnLW9tYWUnLCAnPG91dGZpbGUubWFlPic=

> <r_lp_tautomer_probability>
0.839158

> <r_epik_Ionization_Penalty>
6.34615

> <r_epik_Ionization_Penalty_Charging>
0.00266072

> <r_epik_Ionization_Penalty_Neutral>
6.34348

> <r_epik_State_Penalty>
4.30851

> <r_epik_Charging_Adjusted_Penalty>
4.31117

> <i_epik_Tot_Q>
0

> <i_epik_Tot_abs_Q>
2

> <r_epik_Metal_State_Penalty>
0.75957

> <b_epik_Metal_Only>
1

> <s_lp_Force_Field>
OPLS_2005

> <r_lp_Energy>
18.3813

> <b_lp_Chiralities_Consistent>
1

> <s_lp_Variant>
AV-unprocessed.smi:1107-5

> <Gold.Version>
5.8.1

> <Gold.Id.Protein>
6NUR|6NUR_protein|mol2

> <Gold.PLP.Fitness>
44.9430

> <Gold.PLP.PLP>
-37.6133

> <Gold.PLP.part.hbond>
-3.5386

> <Gold.PLP.part.metal>
0.0000

> <Gold.PLP.part.buried>
-2.1429

> <Gold.PLP.part.nonpolar>
-30.6410

> <Gold.PLP.part.repulsive>
0.1932

> <Gold.PLP.ligand.clash>
0.0000

> <Gold.PLP.ligand.torsion>
0.6483

> <Gold.PLP.Chemscore.Hbond>
2.8640

> <Gold.PLP.Chemscore.CHOScore>
0.0000

> <Gold.PLP.Chemscore.Metal>
0.0000

> <Gold.Chemscore.Hbonds>
donor molecule, donor type, donor heavy atom, donor atom, acceptor molecule, acceptor atom, score
      L1  H    10    31       P1  7948  0.83
      P1  H  7997  8010       L1    21  0.95
      P1  H 10752 10764       L1     9  1.00

> <Gold.PLP.Chemscore.Internal.Correction>
0.0343

> <Gold.Rescore>
     Score         DG    S(hbond)    S(metal)    S(lipo)     H(rot)  DE(clash)    DE(int)     intcor
     14.27     -17.69       2.54        0.00      73.84       1.92       0.08       3.33       ----

> <Gold.Chemscore.Fitness>
14.2711

> <Gold.Chemscore.DG>
-17.6889

> <Gold.Chemscore.ZeroCoef>
-5.4800

> <Gold.Chemscore.Hbond>
2.5429

> <Gold.Chemscore.Metal>
0.0000

> <Gold.Chemscore.Lipo>
73.8419

> <Gold.Chemscore.Internal_Hbond>
0.0000

> <Gold.Chemscore.DEClash>
0.0846

> <Gold.Chemscore.DEInternal>
3.3332

> <Gold.Chemscore.Rot>
1.9233

> <Gold.Chemscore.Internal.Correction>
   9.000000E+99

> <Gold.Chemscore.Hbonds>
donor molecule, donor type, donor heavy atom, donor atom, acceptor molecule, acceptor atom, score
      L1  H    10    31       P1  7948  0.71
      P1  H  7997  8010       L1    21  0.21
      P1  H 10752 10764       L1     9  0.35

> <Gold.Chemscore.Hbond.Weighted>
-8.4931

> <Gold.Chemscore.Metal.Weighted>
-0.0000

> <Gold.Chemscore.Lipo.Weighted>
-8.6395

> <Gold.Chemscore.Internal_Hbond.Weighted>
0.0000

> <Gold.Chemscore.DEClash.Weighted>
0.0846

> <Gold.Chemscore.DEInternal.Weighted>
3.3332

> <Gold.Chemscore.Rot.Weighted>
4.9237

> <Gold.Chemscore.Internal.Correction.Weighted>
   9.000000E+99

> <Gold.Protein.RotatedTorsions>
[ 6907 6896 6895 6894 ] final  152.83 input  -60.11 | X-H torsion
[ 7974 7965 7964 7962 ] final -107.69 input  175.53 | X-H torsion
[ 8008 7997 7996 7995 ] final   79.63 input   59.86 | X-H torsion
[ 10167 10162 10161 10158 ] final   84.68 input  -65.29 | X-H torsion
[ 10718 10713 10712 10709 ] final   47.00 input   66.30 | X-H torsion
[ 10763 10752 10751 10750 ] final  -45.24 input  -60.55 | X-H torsion
[ 11005 11000 10999 10996 ] final  138.99 input  -57.11 | X-H torsion

> <Gold.Protein.ActiveResidues>
 VAL166  LYS551  ARG553  GLY616  TRP617  ASP618  TYR619  PRO620  LYS621  CYS622 
 ASP623  PHE694  ASN695  SER759  ASP760  ASP761  ALA762  ILE779  LEU786  VAL792 
 PHE793  MET794  SER795  GLU796  ALA797  LYS798  CYS799  TRP800  GLU811  SER814 

> <Gold.Protein.RotatedAtoms>
  152.0812  133.4153  159.4501 H   0  0  0  0  0  0  0  0  0  0  0  0  # atno 6907 bound_to 6896
  150.6862  134.2980  159.4703 H   0  0  0  0  0  0  0  0  0  0  0  0  # atno 6908 bound_to 6896
  152.0822  134.9463  160.0624 H   0  0  0  0  0  0  0  0  0  0  0  0  # atno 6909 bound_to 6896
  145.2022  140.9061  143.3363 H   0  0  0  0  0  0  0  0  0  0  0  0  # atno 7974 bound_to 7965
  155.8723  140.3448  155.5830 H   0  0  0  0  0  0  0  0  0  0  0  0  # atno 8008 bound_to 7997
  155.7813  140.0859  157.2077 H   0  0  0  0  0  0  0  0  0  0  0  0  # atno 8009 bound_to 7997
  154.4018  140.1500  156.3043 H   0  0  0  0  0  0  0  0  0  0  0  0  # atno 8010 bound_to 7997
  139.9055  144.6304  150.8592 H   0  0  0  0  0  0  0  0  0  0  0  0  # atno 10167 bound_to 10162
  157.4540  130.8156  149.7817 H   0  0  0  0  0  0  0  0  0  0  0  0  # atno 10718 bound_to 10713
  154.0252  135.6664  153.4776 H   0  0  0  0  0  0  0  0  0  0  0  0  # atno 10763 bound_to 10752
  153.0563  135.5054  154.7985 H   0  0  0  0  0  0  0  0  0  0  0  0  # atno 10764 bound_to 10752
  154.6912  135.3062  154.9441 H   0  0  0  0  0  0  0  0  0  0  0  0  # atno 10765 bound_to 10752
  140.0223  134.9391  157.0498 H   0  0  0  0  0  0  0  0  0  0  0  0  # atno 11005 bound_to 11000
  144.9936  139.3665  143.6202 LP  0  0  0  0  0  0  0  0  0  0  0  0  # atno 17320 bound_to 7965
  146.3415  139.9130  142.8777 LP  0  0  0  0  0  0  0  0  0  0  0  0  # atno 17321 bound_to 7965
  140.7697  143.3404  151.2219 LP  0  0  0  0  0  0  0  0  0  0  0  0  # atno 17342 bound_to 10162
  139.6988  143.9568  152.2895 LP  0  0  0  0  0  0  0  0  0  0  0  0  # atno 17343 bound_to 10162
  155.9999  130.3886  150.2646 LP  0  0  0  0  0  0  0  0  0  0  0  0  # atno 17370 bound_to 10713
  157.0820  131.0146  151.3153 LP  0  0  0  0  0  0  0  0  0  0  0  0  # atno 17371 bound_to 10713
  140.4367  134.1724  155.7171 LP  0  0  0  0  0  0  0  0  0  0  0  0  # atno 17394 bound_to 11000
  141.1781  133.8471  157.1352 LP  0  0  0  0  0  0  0  0  0  0  0  0  # atno 17395 bound_to 11000

$$$$
