AV-unprocessed.smi:247|AV-procd|sdf|1890|dock2
  -GOLD-   2262020553D 1   1.00000     0.00000
 Structure written by MMmdl.
 61 65  0  0  0  0  0  0  0  0  1 V2000
  147.5087  135.8788  154.8542 O   0  0  0  0  0  0  0  0  0  0  0  0
  146.8069  134.6983  155.1922 C   0  0  0  0  0  0  0  0  0  0  0  0
  146.8033  133.6341  154.0595 C   0  0  0  0  0  0  0  0  0  0  0  0
  148.2819  133.3342  153.6572 C   0  0  0  0  0  0  0  0  0  0  0  0
  149.0170  132.4878  154.5868 N   0  0  0  0  0  0  0  0  0  0  0  0
  148.8787  131.1267  154.7480 C   0  0  0  0  0  0  0  0  0  0  0  0
  149.6633  130.5865  155.6399 N   0  0  0  0  0  0  0  0  0  0  0  0
  150.4120  131.6539  156.1173 C   0  0  0  0  0  0  0  0  0  0  0  0
  151.4504  131.7753  157.0779 C   0  0  0  0  0  0  0  0  0  0  0  0
  151.9012  130.7009  157.7694 N   0  0  0  0  0  0  0  0  0  0  0  0
  151.6715  130.8960  159.1907 C   0  0  0  0  0  0  0  0  0  0  0  0
  152.4505  129.7872  159.8795 C   0  0  0  0  0  0  0  0  0  0  0  0
  153.5875  129.4700  158.9079 C   0  0  0  0  0  0  0  0  0  0  0  0
  153.2908  130.2522  157.6074 C   0  0  1  0  0  0  0  0  0  0  0  0
  153.5622  129.4070  156.3115 C   0  0  1  0  0  0  0  0  0  0  0  0
  154.9763  128.7809  156.2270 C   0  0  0  0  0  0  0  0  0  0  0  0
  155.1490  127.7927  157.2390 O   0  0  0  0  0  0  0  0  0  0  0  0
  154.2867  126.6711  157.0811 C   0  0  0  0  0  0  0  0  0  0  0  0
  152.8148  127.1133  157.1162 C   0  0  0  0  0  0  0  0  0  0  0  0
  152.5760  128.2278  156.0871 C   0  0  1  0  0  0  0  0  0  0  0  0
  151.2145  128.6031  156.0781 O   0  0  0  0  0  0  0  0  0  0  0  0
  151.9614  133.0148  157.3026 N   0  0  0  0  0  0  0  0  0  0  0  0
  151.5063  134.0626  156.6092 C   0  0  0  0  0  0  0  0  0  0  0  0
  150.5547  134.0951  155.6735 N   0  0  0  0  0  0  0  0  0  0  0  0
  150.0255  132.8557  155.4620 C   0  0  0  0  0  0  0  0  0  0  0  0
  146.0607  132.3599  154.5385 C   0  0  0  0  0  0  0  0  0  0  0  0
  145.8181  131.3588  153.3949 C   0  0  0  0  0  0  0  0  0  0  0  0
  145.0862  131.9874  152.3497 O   0  0  0  0  0  0  0  0  0  0  0  0
  145.7789  133.0829  151.7630 C   0  0  0  0  0  0  0  0  0  0  0  0
  146.0436  134.1730  152.8195 C   0  0  0  0  0  0  0  0  0  0  0  0
  147.6176  135.9045  153.9157 H   0  0  0  0  0  0  0  0  0  0  0  0
  147.2561  134.2876  156.0970 H   0  0  0  0  0  0  0  0  0  0  0  0
  145.7896  134.9929  155.4501 H   0  0  0  0  0  0  0  0  0  0  0  0
  148.3394  132.8580  152.6797 H   0  0  0  0  0  0  0  0  0  0  0  0
  148.8322  134.2703  153.5520 H   0  0  0  0  0  0  0  0  0  0  0  0
  148.1689  130.5414  154.1816 H   0  0  0  0  0  0  0  0  0  0  0  0
  152.0504  131.8708  159.5034 H   0  0  0  0  0  0  0  0  0  0  0  0
  150.6097  130.8499  159.4359 H   0  0  0  0  0  0  0  0  0  0  0  0
  152.8056  130.0820  160.8674 H   0  0  0  0  0  0  0  0  0  0  0  0
  151.8144  128.9094  160.0005 H   0  0  0  0  0  0  0  0  0  0  0  0
  154.5533  129.7634  159.3207 H   0  0  0  0  0  0  0  0  0  0  0  0
  153.6158  128.3927  158.7413 H   0  0  0  0  0  0  0  0  0  0  0  0
  153.9338  131.1319  157.6033 H   0  0  0  0  0  0  0  0  0  0  0  0
  153.4720  130.0871  155.4633 H   0  0  0  0  0  0  0  0  0  0  0  0
  155.1294  128.3208  155.2494 H   0  0  0  0  0  0  0  0  0  0  0  0
  155.7583  129.5330  156.3066 H   0  0  0  0  0  0  0  0  0  0  0  0
  154.5138  126.1637  156.1421 H   0  0  0  0  0  0  0  0  0  0  0  0
  154.4841  125.9580  157.8815 H   0  0  0  0  0  0  0  0  0  0  0  0
  152.1696  126.2591  156.9080 H   0  0  0  0  0  0  0  0  0  0  0  0
  152.5560  127.4573  158.1176 H   0  0  0  0  0  0  0  0  0  0  0  0
  152.7675  127.8124  155.0965 H   0  0  0  0  0  0  0  0  0  0  0  0
  150.7626  128.0782  155.4351 H   0  0  0  0  0  0  0  0  0  0  0  0
  151.9725  135.0101  156.8356 H   0  0  0  0  0  0  0  0  0  0  0  0
  146.5916  131.8780  155.3589 H   0  0  0  0  0  0  0  0  0  0  0  0
  145.0861  132.6315  154.9450 H   0  0  0  0  0  0  0  0  0  0  0  0
  146.7530  130.9519  153.0094 H   0  0  0  0  0  0  0  0  0  0  0  0
  145.2385  130.5120  153.7626 H   0  0  0  0  0  0  0  0  0  0  0  0
  146.7012  132.7380  151.2956 H   0  0  0  0  0  0  0  0  0  0  0  0
  145.1631  133.4900  150.9609 H   0  0  0  0  0  0  0  0  0  0  0  0
  145.0748  134.5756  153.1165 H   0  0  0  0  0  0  0  0  0  0  0  0
  146.5875  135.0045  152.3701 H   0  0  0  0  0  0  0  0  0  0  0  0
  1  2  1  0  0  0  0
  1 31  1  0  0  0  0
  2  3  1  0  0  0  0
  2 32  1  0  0  0  0
  2 33  1  0  0  0  0
  3 30  1  0  0  0  0
  3  4  1  0  0  0  0
  3 26  1  0  0  0  0
  4  5  1  0  0  0  0
  4 34  1  0  0  0  0
  4 35  1  0  0  0  0
  5 25  1  0  0  0  0
  5  6  1  0  0  0  0
  6  7  2  0  0  0  0
  6 36  1  0  0  0  0
  7  8  1  0  0  0  0
  8 25  2  0  0  0  0
  8  9  1  0  0  0  0
  9 10  1  0  0  0  0
  9 22  2  0  0  0  0
 10 14  1  0  0  0  0
 10 11  1  0  0  0  0
 11 12  1  0  0  0  0
 11 37  1  0  0  0  0
 11 38  1  0  0  0  0
 12 13  1  0  0  0  0
 12 39  1  0  0  0  0
 12 40  1  0  0  0  0
 13 14  1  0  0  0  0
 13 41  1  0  0  0  0
 13 42  1  0  0  0  0
 14 15  1  0  0  0  0
 14 43  1  0  0  0  0
 15 20  1  0  0  0  0
 15 16  1  0  0  0  0
 15 44  1  0  0  0  0
 16 17  1  0  0  0  0
 16 45  1  0  0  0  0
 16 46  1  0  0  0  0
 17 18  1  0  0  0  0
 18 19  1  0  0  0  0
 18 47  1  0  0  0  0
 18 48  1  0  0  0  0
 19 20  1  0  0  0  0
 19 49  1  0  0  0  0
 19 50  1  0  0  0  0
 20 21  1  0  0  0  0
 20 51  1  0  0  0  0
 21 52  1  0  0  0  0
 22 23  1  0  0  0  0
 23 24  2  0  0  0  0
 23 53  1  0  0  0  0
 24 25  1  0  0  0  0
 26 27  1  0  0  0  0
 26 54  1  0  0  0  0
 26 55  1  0  0  0  0
 27 28  1  0  0  0  0
 27 56  1  0  0  0  0
 27 57  1  0  0  0  0
 28 29  1  0  0  0  0
 29 30  1  0  0  0  0
 29 58  1  0  0  0  0
 29 59  1  0  0  0  0
 30 60  1  0  0  0  0
 30 61  1  0  0  0  0
M  END
> <s_m_source_file>
AV-unprocessed.smi

> <i_m_source_file_index>
247

> <i_lp_mmshare_version>
43012

> <i_f3d_flags>
0

> <s_epik_input>
W0NIMl0xW0NIMl1PW0NIMl1bQ0gyXUMxKFtDSDJdW09IXSlbQ0gyXW4oW2NIXW4yKWMoYzIzKW5bY0hdbmMzTjRbQ0gyXVtDSDJdW0NIMl1bQ0BIXTRbQ0BASF01W0NIMl1PW0NIMl1bQ0gyXVtDQEhdNVtPSF0=

> <s_epik_cmdline>
J2VwaWtfcHl0aG9uJywgJy1waCcsICc3LjAnLCAnLXRuJywgJzgnLCAnLW1hJywgJzIwMCcsICctbWV0YWxfYmluZGluZycsICctaW1hZScsICc8aW5maWxlLm1hZT4nLCAnLW9tYWUnLCAnPG91dGZpbGUubWFlPic=

> <r_lp_tautomer_probability>
1

> <r_epik_Ionization_Penalty>
0.00362597

> <r_epik_Ionization_Penalty_Charging>
0

> <r_epik_Ionization_Penalty_Neutral>
0.00362597

> <r_epik_State_Penalty>
0.00241433

> <r_epik_Charging_Adjusted_Penalty>
0.00241433

> <i_epik_Tot_Q>
0

> <i_epik_Tot_abs_Q>
0

> <r_epik_Metal_State_Penalty>
-0

> <b_epik_Metal_Only>
0

> <s_lp_Force_Field>
OPLS_2005

> <r_lp_Energy>
64.2344

> <b_lp_Chiralities_Consistent>
1

> <s_lp_Variant>
AV-unprocessed.smi:247-3

> <Gold.Version>
5.8.1

> <Gold.Id.Protein>
6NUR|6NUR_protein|mol2

> <Gold.PLP.Fitness>
42.8793

> <Gold.PLP.PLP>
-37.9186

> <Gold.PLP.part.hbond>
-1.1479

> <Gold.PLP.part.metal>
0.0000

> <Gold.PLP.part.buried>
-5.4009

> <Gold.PLP.part.nonpolar>
-30.2695

> <Gold.PLP.part.repulsive>
0.2477

> <Gold.PLP.ligand.clash>
0.0000

> <Gold.PLP.ligand.torsion>
0.4447

> <Gold.PLP.Chemscore.Hbond>
1.0000

> <Gold.PLP.Chemscore.CHOScore>
0.9242

> <Gold.PLP.Chemscore.Metal>
0.0000

> <Gold.Chemscore.Hbonds>
donor molecule, donor type, donor heavy atom, donor atom, acceptor molecule, acceptor atom, score
      P1  H  6896  6909       L1    22  0.19

> <Gold.PLP.Chemscore.Internal.Correction>
0.0774

> <Gold.Rescore>
     Score         DG    S(hbond)    S(metal)    S(lipo)     H(rot)  DE(clash)    DE(int)     intcor
      9.26     -12.17       1.92        0.00      73.01       3.23       0.22       2.69       ----

> <Gold.Chemscore.Fitness>
9.2573

> <Gold.Chemscore.DG>
-12.1688

> <Gold.Chemscore.ZeroCoef>
-5.4800

> <Gold.Chemscore.Hbond>
1.9193

> <Gold.Chemscore.Metal>
0.0000

> <Gold.Chemscore.Lipo>
73.0066

> <Gold.Chemscore.Internal_Hbond>
0.0000

> <Gold.Chemscore.DEClash>
0.2170

> <Gold.Chemscore.DEInternal>
2.6945

> <Gold.Chemscore.Rot>
3.2278

> <Gold.Chemscore.Internal.Correction>
   9.000000E+99

> <Gold.Chemscore.Hbonds>
donor molecule, donor type, donor heavy atom, donor atom, acceptor molecule, acceptor atom, score
      L1  H     1    31       P1  7948  0.03
      P1  H  6896  6909       L1    22  0.13

> <Gold.Chemscore.Hbond.Weighted>
-6.4103

> <Gold.Chemscore.Metal.Weighted>
-0.0000

> <Gold.Chemscore.Lipo.Weighted>
-8.5418

> <Gold.Chemscore.Internal_Hbond.Weighted>
0.0000

> <Gold.Chemscore.DEClash.Weighted>
0.2170

> <Gold.Chemscore.DEInternal.Weighted>
2.6945

> <Gold.Chemscore.Rot.Weighted>
8.2633

> <Gold.Chemscore.Internal.Correction.Weighted>
   9.000000E+99

> <Gold.Protein.RotatedTorsions>
[ 6907 6896 6895 6894 ] final  -98.48 input  -60.11 | X-H torsion
[ 7974 7965 7964 7962 ] final   37.70 input  175.53 | X-H torsion
[ 8008 7997 7996 7995 ] final -115.26 input   59.86 | X-H torsion
[ 10167 10162 10161 10158 ] final  -28.95 input  -65.29 | X-H torsion
[ 10718 10713 10712 10709 ] final  -96.83 input   66.30 | X-H torsion
[ 10763 10752 10751 10750 ] final -104.45 input  -60.55 | X-H torsion
[ 11005 11000 10999 10996 ] final  123.57 input  -57.11 | X-H torsion

> <Gold.Protein.ActiveResidues>
 VAL166  LYS551  ARG553  GLY616  TRP617  ASP618  TYR619  PRO620  LYS621  CYS622 
 ASP623  PHE694  ASN695  SER759  ASP760  ASP761  ALA762  ILE779  LEU786  VAL792 
 PHE793  MET794  SER795  GLU796  ALA797  LYS798  CYS799  TRP800  GLU811  SER814 

> <Gold.Protein.RotatedAtoms>
  150.7048  134.1188  159.4026 H   0  0  0  0  0  0  0  0  0  0  0  0  # atno 6907 bound_to 6896
  151.9174  135.0310  160.0528 H   0  0  0  0  0  0  0  0  0  0  0  0  # atno 6908 bound_to 6896
  152.2285  133.5004  159.5239 H   0  0  0  0  0  0  0  0  0  0  0  0  # atno 6909 bound_to 6896
  146.1117  139.5861  142.9347 H   0  0  0  0  0  0  0  0  0  0  0  0  # atno 7974 bound_to 7965
  155.0493  140.0393  157.2538 H   0  0  0  0  0  0  0  0  0  0  0  0  # atno 8008 bound_to 7997
  154.7151  140.2700  155.6569 H   0  0  0  0  0  0  0  0  0  0  0  0  # atno 8009 bound_to 7997
  156.2801  140.2714  156.1805 H   0  0  0  0  0  0  0  0  0  0  0  0  # atno 8010 bound_to 7997
  140.7265  143.3968  151.1333 H   0  0  0  0  0  0  0  0  0  0  0  0  # atno 10167 bound_to 10162
  156.0070  130.5168  150.6285 H   0  0  0  0  0  0  0  0  0  0  0  0  # atno 10718 bound_to 10713
  154.7879  135.4786  153.9986 H   0  0  0  0  0  0  0  0  0  0  0  0  # atno 10763 bound_to 10752
  153.1587  135.6804  153.8782 H   0  0  0  0  0  0  0  0  0  0  0  0  # atno 10764 bound_to 10752
  153.8403  135.3180  155.3403 H   0  0  0  0  0  0  0  0  0  0  0  0  # atno 10765 bound_to 10752
  139.9319  134.9641  156.8280 H   0  0  0  0  0  0  0  0  0  0  0  0  # atno 11005 bound_to 11000
  145.5649  141.0400  143.2206 LP  0  0  0  0  0  0  0  0  0  0  0  0  # atno 17320 bound_to 7965
  144.7517  139.7176  143.7270 LP  0  0  0  0  0  0  0  0  0  0  0  0  # atno 17321 bound_to 7965
  139.7582  143.8675  152.3094 LP  0  0  0  0  0  0  0  0  0  0  0  0  # atno 17342 bound_to 10162
  139.8552  144.7144  150.9165 LP  0  0  0  0  0  0  0  0  0  0  0  0  # atno 17343 bound_to 10162
  157.4087  131.0820  151.1241 LP  0  0  0  0  0  0  0  0  0  0  0  0  # atno 17370 bound_to 10713
  157.1879  130.6339  149.5694 LP  0  0  0  0  0  0  0  0  0  0  0  0  # atno 17371 bound_to 10713
  140.6180  134.0021  155.7605 LP  0  0  0  0  0  0  0  0  0  0  0  0  # atno 17394 bound_to 11000
  141.0912  133.9914  157.3234 LP  0  0  0  0  0  0  0  0  0  0  0  0  # atno 17395 bound_to 11000

$$$$
