AV-unprocessed.smi:2047|AV-procd|sdf|8315|dock3
  -GOLD-   2272010583D 1   1.00000     0.00000
 Structure written by MMmdl.
 42 44  0  0  0  0  0  0  0  0  1 V2000
  149.8881  133.9610  155.4930 O   0  0  0  0  0  0  0  0  0  0  0  0
  149.6250  134.5563  154.4484 C   0  0  0  0  0  0  0  0  0  0  0  0
  148.8687  134.0767  153.4468 N   0  0  0  0  0  0  0  0  0  0  0  0
  148.1932  132.8256  153.3600 C   0  0  0  0  0  0  0  0  0  0  0  0
  148.6652  131.6713  154.0328 C   0  0  0  0  0  0  0  0  0  0  0  0
  147.9971  130.4473  153.8563 C   0  0  0  0  0  0  0  0  0  0  0  0
  146.8862  130.4142  152.9977 C   0  0  0  0  0  0  0  0  0  0  0  0
  146.4326  131.4989  152.3392 N   0  0  0  0  0  0  0  0  0  0  0  0
  147.0573  132.6902  152.5103 C   0  0  0  0  0  0  0  0  0  0  0  0
  146.5293  133.7945  151.8025 N   0  0  0  0  0  0  0  0  0  0  0  0
  145.6282  133.5876  150.6738 C   0  0  0  0  0  0  0  0  0  0  0  0
  144.9868  134.9498  150.4270 C   0  0  0  0  0  0  0  0  0  0  0  0
  144.8494  135.5051  151.8412 C   0  0  0  0  0  0  0  0  0  0  0  0
  146.0774  134.9504  152.5717 C   0  0  0  0  0  0  0  0  0  0  0  0
  150.0587  135.7941  154.1731 N   0  0  0  0  0  0  0  0  0  0  0  0
  150.9169  136.5949  155.0406 C   0  0  2  0  0  0  0  0  0  0  0  0
  150.1235  137.1687  156.2290 C   0  0  0  0  0  0  0  0  0  0  0  0
  150.9552  138.2773  156.8841 C   0  0  0  0  0  0  0  0  0  0  0  0
  151.9256  139.0472  155.5334 S   0  0  0  0  0  0  0  0  0  0  0  0
  151.2922  140.3128  155.1334 O   0  0  0  0  0  0  0  0  0  0  0  0
  153.3539  138.9912  155.8792 O   0  0  0  0  0  0  0  0  0  0  0  0
  151.5484  137.7690  154.2754 C   0  0  0  0  0  0  0  0  0  0  0  0
  148.6778  134.7182  152.6910 H   0  0  0  0  0  0  0  0  0  0  0  0
  149.5413  131.6943  154.6618 H   0  0  0  0  0  0  0  0  0  0  0  0
  148.3373  129.5531  154.3570 H   0  0  0  0  0  0  0  0  0  0  0  0
  146.3509  129.4915  152.8294 H   0  0  0  0  0  0  0  0  0  0  0  0
  146.1660  133.2268  149.7966 H   0  0  0  0  0  0  0  0  0  0  0  0
  144.8525  132.8626  150.9244 H   0  0  0  0  0  0  0  0  0  0  0  0
  145.6590  135.5798  149.8424 H   0  0  0  0  0  0  0  0  0  0  0  0
  144.0357  134.8830  149.8983 H   0  0  0  0  0  0  0  0  0  0  0  0
  144.7958  136.5938  151.8685 H   0  0  0  0  0  0  0  0  0  0  0  0
  143.9415  135.1126  152.3010 H   0  0  0  0  0  0  0  0  0  0  0  0
  145.8419  134.6897  153.6046 H   0  0  0  0  0  0  0  0  0  0  0  0
  146.8710  135.6979  152.5828 H   0  0  0  0  0  0  0  0  0  0  0  0
  149.7858  136.2089  153.2941 H   0  0  0  0  0  0  0  0  0  0  0  0
  151.7170  135.9732  155.4473 H   0  0  0  0  0  0  0  0  0  0  0  0
  149.1920  137.6035  155.8631 H   0  0  0  0  0  0  0  0  0  0  0  0
  149.8529  136.3947  156.9478 H   0  0  0  0  0  0  0  0  0  0  0  0
  150.3461  139.0281  157.3874 H   0  0  0  0  0  0  0  0  0  0  0  0
  151.6574  137.8578  157.6047 H   0  0  0  0  0  0  0  0  0  0  0  0
  152.4557  137.4884  153.7401 H   0  0  0  0  0  0  0  0  0  0  0  0
  150.8455  138.2029  153.5634 H   0  0  0  0  0  0  0  0  0  0  0  0
  1  2  2  0  0  0  0
  2  3  1  0  0  0  0
  2 15  1  0  0  0  0
  3  4  1  0  0  0  0
  3 23  1  0  0  0  0
  4  9  1  0  0  0  0
  4  5  2  0  0  0  0
  5  6  1  0  0  0  0
  5 24  1  0  0  0  0
  6  7  2  0  0  0  0
  6 25  1  0  0  0  0
  7  8  1  0  0  0  0
  7 26  1  0  0  0  0
  8  9  2  0  0  0  0
  9 10  1  0  0  0  0
 10 14  1  0  0  0  0
 10 11  1  0  0  0  0
 11 12  1  0  0  0  0
 11 27  1  0  0  0  0
 11 28  1  0  0  0  0
 12 13  1  0  0  0  0
 12 29  1  0  0  0  0
 12 30  1  0  0  0  0
 13 14  1  0  0  0  0
 13 31  1  0  0  0  0
 13 32  1  0  0  0  0
 14 33  1  0  0  0  0
 14 34  1  0  0  0  0
 15 16  1  0  0  0  0
 15 35  1  0  0  0  0
 16 22  1  0  0  0  0
 16 17  1  0  0  0  0
 16 36  1  0  0  0  0
 17 18  1  0  0  0  0
 17 37  1  0  0  0  0
 17 38  1  0  0  0  0
 18 19  1  0  0  0  0
 18 39  1  0  0  0  0
 18 40  1  0  0  0  0
 19 20  2  0  0  0  0
 19 21  2  0  0  0  0
 19 22  1  0  0  0  0
 22 41  1  0  0  0  0
 22 42  1  0  0  0  0
M  END
> <s_m_source_file>
AV-unprocessed.smi

> <i_m_source_file_index>
2047

> <i_lp_mmshare_version>
43012

> <i_f3d_flags>
0

> <s_epik_input>
Tz1TMSg9TylbQ0gyXVtDSDJdW0NASF0oW0NIMl0xKVtOSF1DKD1PKVtOSF1jMltjSF1bY0hdW2NIXW5jMk4zW0NIMl1bQ0gyXVtDSDJdW0NIMl0z

> <s_epik_cmdline>
J2VwaWtfcHl0aG9uJywgJy1waCcsICc3LjAnLCAnLXRuJywgJzgnLCAnLW1hJywgJzIwMCcsICctbWV0YWxfYmluZGluZycsICctaW1hZScsICc8aW5maWxlLm1hZT4nLCAnLW9tYWUnLCAnPG91dGZpbGUubWFlPic=

> <r_lp_tautomer_probability>
1

> <r_epik_Ionization_Penalty>
0.0840625

> <r_epik_Ionization_Penalty_Charging>
0

> <r_epik_Ionization_Penalty_Neutral>
0.0840625

> <r_epik_State_Penalty>
0.0741601

> <r_epik_Charging_Adjusted_Penalty>
0.0741601

> <i_epik_Tot_Q>
0

> <i_epik_Tot_abs_Q>
0

> <r_epik_Metal_State_Penalty>
0.0657339

> <b_epik_Metal_Only>
0

> <s_lp_Force_Field>
OPLS_2005

> <r_lp_Energy>
32.0686

> <b_lp_Chiralities_Consistent>
1

> <s_lp_Variant>
AV-unprocessed.smi:2047-1

> <Gold.Version>
5.8.1

> <Gold.Id.Protein>
6NUR|6NUR_protein|mol2

> <Gold.PLP.Fitness>
43.8966

> <Gold.PLP.PLP>
-32.7542

> <Gold.PLP.part.hbond>
-4.8762

> <Gold.PLP.part.metal>
0.0000

> <Gold.PLP.part.buried>
-2.8115

> <Gold.PLP.part.nonpolar>
-25.9494

> <Gold.PLP.part.repulsive>
0.4251

> <Gold.PLP.ligand.clash>
0.0000

> <Gold.PLP.ligand.torsion>
0.5887

> <Gold.PLP.Chemscore.Hbond>
4.0000

> <Gold.PLP.Chemscore.CHOScore>
0.0000

> <Gold.PLP.Chemscore.Metal>
0.0000

> <Gold.Chemscore.Hbonds>
donor molecule, donor type, donor heavy atom, donor atom, acceptor molecule, acceptor atom, score
      L1  H     3    23       P1  7948  0.75
      L1  H    15    35       P1  7948  0.75
      P1  H  7989  7998       L1    20  1.00
      P1  H  7997  8008       L1    21  1.00

> <Gold.PLP.Chemscore.Internal.Correction>
0.3197

> <Gold.Rescore>
     Score         DG    S(hbond)    S(metal)    S(lipo)     H(rot)  DE(clash)    DE(int)     intcor
     18.14     -20.17       3.39        0.00      56.16       1.25       0.01       2.01       ----

> <Gold.Chemscore.Fitness>
18.1408

> <Gold.Chemscore.DG>
-20.1677

> <Gold.Chemscore.ZeroCoef>
-5.4800

> <Gold.Chemscore.Hbond>
3.3867

> <Gold.Chemscore.Metal>
0.0000

> <Gold.Chemscore.Lipo>
56.1628

> <Gold.Chemscore.Internal_Hbond>
0.0000

> <Gold.Chemscore.DEClash>
0.0141

> <Gold.Chemscore.DEInternal>
2.0128

> <Gold.Chemscore.Rot>
1.2480

> <Gold.Chemscore.Internal.Correction>
   9.000000E+99

> <Gold.Chemscore.Hbonds>
donor molecule, donor type, donor heavy atom, donor atom, acceptor molecule, acceptor atom, score
      L1  H     3    23       P1  7948  0.09
      L1  H    15    35       P1  7948  0.09
      P1  H  7989  7998       L1    20  0.89
      P1  H  7997  8008       L1    21  0.92

> <Gold.Chemscore.Hbond.Weighted>
-11.3115

> <Gold.Chemscore.Metal.Weighted>
-0.0000

> <Gold.Chemscore.Lipo.Weighted>
-6.5711

> <Gold.Chemscore.Internal_Hbond.Weighted>
0.0000

> <Gold.Chemscore.DEClash.Weighted>
0.0141

> <Gold.Chemscore.DEInternal.Weighted>
2.0128

> <Gold.Chemscore.Rot.Weighted>
3.1948

> <Gold.Chemscore.Internal.Correction.Weighted>
   9.000000E+99

> <Gold.Protein.RotatedTorsions>
[ 6907 6896 6895 6894 ] final -160.77 input  -60.11 | X-H torsion
[ 7974 7965 7964 7962 ] final  -52.40 input  175.53 | X-H torsion
[ 8008 7997 7996 7995 ] final  -39.23 input   59.86 | X-H torsion
[ 10167 10162 10161 10158 ] final   18.64 input  -65.29 | X-H torsion
[ 10718 10713 10712 10709 ] final  134.68 input   66.30 | X-H torsion
[ 10763 10752 10751 10750 ] final   54.40 input  -60.55 | X-H torsion
[ 11005 11000 10999 10996 ] final  139.07 input  -57.11 | X-H torsion

> <Gold.Protein.ActiveResidues>
 VAL166  LYS551  ARG553  GLY616  TRP617  ASP618  TYR619  PRO620  LYS621  CYS622 
 ASP623  PHE694  ASN695  SER759  ASP760  ASP761  ALA762  ILE779  LEU786  VAL792 
 PHE793  MET794  SER795  GLU796  ALA797  LYS798  CYS799  TRP800  GLU811  SER814 

> <Gold.Protein.RotatedAtoms>
  151.3542  133.3914  159.2682 H   0  0  0  0  0  0  0  0  0  0  0  0  # atno 6907 bound_to 6896
  150.9777  134.9139  159.7836 H   0  0  0  0  0  0  0  0  0  0  0  0  # atno 6908 bound_to 6896
  152.5206  134.3506  159.9302 H   0  0  0  0  0  0  0  0  0  0  0  0  # atno 6909 bound_to 6896
  145.9083  140.7936  142.9708 H   0  0  0  0  0  0  0  0  0  0  0  0  # atno 7974 bound_to 7965
  154.4026  140.1557  156.2829 H   0  0  0  0  0  0  0  0  0  0  0  0  # atno 8008 bound_to 7997
  155.8854  140.3441  155.5895 H   0  0  0  0  0  0  0  0  0  0  0  0  # atno 8009 bound_to 7997
  155.7620  140.0819  157.2141 H   0  0  0  0  0  0  0  0  0  0  0  0  # atno 8010 bound_to 7997
  140.5639  143.9287  150.6662 H   0  0  0  0  0  0  0  0  0  0  0  0  # atno 10167 bound_to 10162
  157.4648  131.1076  150.9876 H   0  0  0  0  0  0  0  0  0  0  0  0  # atno 10718 bound_to 10713
  152.9804  135.5746  154.4897 H   0  0  0  0  0  0  0  0  0  0  0  0  # atno 10763 bound_to 10752
  154.4434  135.2776  155.1834 H   0  0  0  0  0  0  0  0  0  0  0  0  # atno 10764 bound_to 10752
  154.3492  135.6213  153.5688 H   0  0  0  0  0  0  0  0  0  0  0  0  # atno 10765 bound_to 10752
  140.0228  134.9388  157.0509 H   0  0  0  0  0  0  0  0  0  0  0  0  # atno 11005 bound_to 11000
  144.6741  140.1786  143.7408 LP  0  0  0  0  0  0  0  0  0  0  0  0  # atno 17320 bound_to 7965
  145.8704  139.2269  143.1664 LP  0  0  0  0  0  0  0  0  0  0  0  0  # atno 17321 bound_to 7965
  140.2745  143.3432  152.1207 LP  0  0  0  0  0  0  0  0  0  0  0  0  # atno 17342 bound_to 10162
  139.5083  144.6847  151.5917 LP  0  0  0  0  0  0  0  0  0  0  0  0  # atno 17343 bound_to 10162
  157.0661  130.5845  149.5394 LP  0  0  0  0  0  0  0  0  0  0  0  0  # atno 17370 bound_to 10713
  156.0045  130.5130  150.7782 LP  0  0  0  0  0  0  0  0  0  0  0  0  # atno 17371 bound_to 10713
  140.4357  134.1733  155.7170 LP  0  0  0  0  0  0  0  0  0  0  0  0  # atno 17394 bound_to 11000
  141.1784  133.8465  157.1341 LP  0  0  0  0  0  0  0  0  0  0  0  0  # atno 17395 bound_to 11000

$$$$
