AV-unprocessed.smi:832|AV-procd|sdf|3879|dock4
  -GOLD-   22720 1333D 1   1.00000     0.00000
 Structure written by MMmdl.
 42 43  0  0  0  0  0  0  0  0  2 V2000
  151.2982  141.3599  156.4490 C   0  0  0  0  0  0  0  0  0  0  0  0
  151.2435  139.9353  156.0146 C   0  0  0  0  0  0  0  0  0  0  0  0
  150.2671  139.1772  155.4316 C   0  0  0  0  0  0  0  0  0  0  0  0
  150.8884  137.9074  155.2933 C   0  0  0  0  0  0  0  0  0  0  0  0
  150.1913  136.8136  154.7195 N   0  0  0  0  0  0  0  0  0  0  0  0
  149.8709  135.6488  155.3084 C   0  0  0  0  0  0  0  0  0  0  0  0
  150.1494  135.3397  156.4674 O   0  0  0  0  0  0  0  0  0  0  0  0
  149.1940  134.8477  154.4723 N   0  0  0  0  0  0  0  0  0  0  0  0
  148.7193  133.5037  154.7881 C   0  0  0  0  0  0  0  0  0  0  0  0
  148.2971  132.7205  153.5294 C   0  0  1  0  0  0  0  0  0  0  0  0
  147.1158  131.7808  153.7611 C   0  0  0  0  0  0  0  0  0  0  0  0
  146.4785  131.5999  152.3769 C   0  0  0  0  0  0  0  0  0  0  0  0
  147.0459  132.6490  151.4930 N   0  3  1  0  0  0  0  0  0  0  0  0
  146.0753  133.2882  150.5602 C   0  0  0  0  0  0  0  0  0  0  0  0
  144.9533  134.0061  151.3341 C   0  0  0  0  0  0  0  0  0  0  0  0
  145.4567  132.2639  149.5890 C   0  0  0  0  0  0  0  0  0  0  0  0
  147.7971  133.5770  152.3653 C   0  0  0  0  0  0  0  0  0  0  0  0
  152.1309  137.8916  155.7511 N   0  0  0  0  0  0  0  0  0  0  0  0
  152.3654  139.1916  156.2141 O   0  0  0  0  0  0  0  0  0  0  0  0
  150.2970  141.7861  156.5134 H   0  0  0  0  0  0  0  0  0  0  0  0
  151.8754  141.9564  155.7427 H   0  0  0  0  0  0  0  0  0  0  0  0
  151.7664  141.4488  157.4296 H   0  0  0  0  0  0  0  0  0  0  0  0
  149.2709  139.4851  155.1509 H   0  0  0  0  0  0  0  0  0  0  0  0
  149.9059  136.9323  153.7588 H   0  0  0  0  0  0  0  0  0  0  0  0
  149.0110  135.1843  153.5380 H   0  0  0  0  0  0  0  0  0  0  0  0
  149.5346  132.9772  155.2847 H   0  0  0  0  0  0  0  0  0  0  0  0
  147.9014  133.5453  155.5098 H   0  0  0  0  0  0  0  0  0  0  0  0
  149.1418  132.1241  153.1798 H   0  0  0  0  0  0  0  0  0  0  0  0
  147.4178  130.8339  154.2100 H   0  0  0  0  0  0  0  0  0  0  0  0
  146.3936  132.2479  154.4324 H   0  0  0  0  0  0  0  0  0  0  0  0
  146.7123  130.6204  151.9584 H   0  0  0  0  0  0  0  0  0  0  0  0
  145.3931  131.6756  152.4592 H   0  0  0  0  0  0  0  0  0  0  0  0
  146.6129  134.0304  149.9680 H   0  0  0  0  0  0  0  0  0  0  0  0
  144.2352  134.4584  150.6494 H   0  0  0  0  0  0  0  0  0  0  0  0
  145.3361  134.8082  151.9649 H   0  0  0  0  0  0  0  0  0  0  0  0
  144.4064  133.3121  151.9733 H   0  0  0  0  0  0  0  0  0  0  0  0
  144.7085  132.7344  148.9502 H   0  0  0  0  0  0  0  0  0  0  0  0
  144.9664  131.4516  150.1265 H   0  0  0  0  0  0  0  0  0  0  0  0
  146.2032  131.8256  148.9264 H   0  0  0  0  0  0  0  0  0  0  0  0
  147.1264  134.3551  152.7341 H   0  0  0  0  0  0  0  0  0  0  0  0
  148.6156  134.0570  151.8278 H   0  0  0  0  0  0  0  0  0  0  0  0
  147.7405  132.1861  150.9242 H   0  0  0  0  0  0  0  0  0  0  0  0
  1  2  1  0  0  0  0
  1 20  1  0  0  0  0
  1 21  1  0  0  0  0
  1 22  1  0  0  0  0
  2 19  1  0  0  0  0
  2  3  2  0  0  0  0
  3  4  1  0  0  0  0
  3 23  1  0  0  0  0
  4  5  1  0  0  0  0
  4 18  2  0  0  0  0
  5  6  1  0  0  0  0
  5 24  1  0  0  0  0
  6  7  2  0  0  0  0
  6  8  1  0  0  0  0
  8  9  1  0  0  0  0
  8 25  1  0  0  0  0
  9 10  1  0  0  0  0
  9 26  1  0  0  0  0
  9 27  1  0  0  0  0
 10 17  1  0  0  0  0
 10 11  1  0  0  0  0
 10 28  1  0  0  0  0
 11 12  1  0  0  0  0
 11 29  1  0  0  0  0
 11 30  1  0  0  0  0
 12 13  1  0  0  0  0
 12 31  1  0  0  0  0
 12 32  1  0  0  0  0
 13 14  1  0  0  0  0
 13 17  1  0  0  0  0
 13 42  1  0  0  0  0
 14 15  1  0  0  0  0
 14 16  1  0  0  0  0
 14 33  1  0  0  0  0
 15 34  1  0  0  0  0
 15 35  1  0  0  0  0
 15 36  1  0  0  0  0
 16 37  1  0  0  0  0
 16 38  1  0  0  0  0
 16 39  1  0  0  0  0
 17 40  1  0  0  0  0
 17 41  1  0  0  0  0
 18 19  1  0  0  0  0
M  CHG  1  13   1
M  END
> <s_m_source_file>
AV-unprocessed.smi

> <i_m_source_file_index>
832

> <i_lp_mmshare_version>
43012

> <i_f3d_flags>
0

> <s_epik_input>
W0NIM11jMVtjSF1jKG5vMSlbTkhdQyg9TylbTkhdW0NIMl1bQ0BASF0yW0NIMl1bQ0gyXU4oW0NIMl0yKVtDSF0oW0NIM10pW0NIM10=

> <s_epik_cmdline>
J2VwaWtfcHl0aG9uJywgJy1waCcsICc3LjAnLCAnLXRuJywgJzgnLCAnLW1hJywgJzIwMCcsICctbWV0YWxfYmluZGluZycsICctaW1hZScsICc8aW5maWxlLm1hZT4nLCAnLW9tYWUnLCAnPG91dGZpbGUubWFlPic=

> <r_lp_tautomer_probability>
1

> <r_epik_Ionization_Penalty>
0.000242791

> <r_epik_Ionization_Penalty_Charging>
0.000220876

> <r_epik_Ionization_Penalty_Neutral>
2.19143e-05

> <r_epik_State_Penalty>
-0

> <r_epik_Charging_Adjusted_Penalty>
0.000220876

> <i_epik_Tot_Q>
1

> <i_epik_Tot_abs_Q>
1

> <r_epik_Metal_State_Penalty>
-0

> <b_epik_Metal_Only>
0

> <s_lp_Force_Field>
OPLS_2005

> <r_lp_Energy>
26.1652

> <b_lp_Chiralities_Consistent>
1

> <s_lp_Variant>
AV-unprocessed.smi:832-4

> <Gold.Version>
5.8.1

> <Gold.Id.Protein>
6NUR|6NUR_protein|mol2

> <Gold.PLP.Fitness>
46.5602

> <Gold.PLP.PLP>
-36.2539

> <Gold.PLP.part.hbond>
-6.2266

> <Gold.PLP.part.metal>
0.0000

> <Gold.PLP.part.buried>
-5.9959

> <Gold.PLP.part.nonpolar>
-25.0266

> <Gold.PLP.part.repulsive>
0.2054

> <Gold.PLP.ligand.clash>
0.0000

> <Gold.PLP.ligand.torsion>
1.1242

> <Gold.PLP.Chemscore.Hbond>
4.1751

> <Gold.PLP.Chemscore.CHOScore>
0.0000

> <Gold.PLP.Chemscore.Metal>
0.0000

> <Gold.Chemscore.Hbonds>
donor molecule, donor type, donor heavy atom, donor atom, acceptor molecule, acceptor atom, score
      L1  H     5    24       P1  7948  0.59
      L1  H     8    25       P1  7948  1.00
      L1  H    13    42       P1 10747  1.00
      P1  H  7997  8010       L1    19  0.55

> <Gold.PLP.Chemscore.Internal.Correction>
0.0294

> <Gold.Rescore>
     Score         DG    S(hbond)    S(metal)    S(lipo)     H(rot)  DE(clash)    DE(int)     intcor
     16.07     -17.61       2.28        0.00      71.82       1.51       0.16       1.37       ----

> <Gold.Chemscore.Fitness>
16.0737

> <Gold.Chemscore.DG>
-17.6056

> <Gold.Chemscore.ZeroCoef>
-5.4800

> <Gold.Chemscore.Hbond>
2.2756

> <Gold.Chemscore.Metal>
0.0000

> <Gold.Chemscore.Lipo>
71.8174

> <Gold.Chemscore.Internal_Hbond>
0.0000

> <Gold.Chemscore.DEClash>
0.1604

> <Gold.Chemscore.DEInternal>
1.3716

> <Gold.Chemscore.Rot>
1.5146

> <Gold.Chemscore.Internal.Correction>
   9.000000E+99

> <Gold.Chemscore.Hbonds>
donor molecule, donor type, donor heavy atom, donor atom, acceptor molecule, acceptor atom, score
      L1  H     5    24       P1  7948  0.25
      L1  H     8    25       P1  7948  0.50
      L1  H    13    42       P1 10747  0.99
      P1  H  7997  8010       L1    19  0.52

> <Gold.Chemscore.Hbond.Weighted>
-7.6004

> <Gold.Chemscore.Metal.Weighted>
-0.0000

> <Gold.Chemscore.Lipo.Weighted>
-8.4026

> <Gold.Chemscore.Internal_Hbond.Weighted>
0.0000

> <Gold.Chemscore.DEClash.Weighted>
0.1604

> <Gold.Chemscore.DEInternal.Weighted>
1.3716

> <Gold.Chemscore.Rot.Weighted>
3.8774

> <Gold.Chemscore.Internal.Correction.Weighted>
   9.000000E+99

> <Gold.Protein.RotatedTorsions>
[ 6907 6896 6895 6894 ] final  163.53 input  -60.11 | X-H torsion
[ 7974 7965 7964 7962 ] final  164.48 input  175.53 | X-H torsion
[ 8008 7997 7996 7995 ] final   88.98 input   59.86 | X-H torsion
[ 10167 10162 10161 10158 ] final  129.44 input  -65.29 | X-H torsion
[ 10718 10713 10712 10709 ] final -109.31 input   66.30 | X-H torsion
[ 10763 10752 10751 10750 ] final  175.04 input  -60.55 | X-H torsion
[ 11005 11000 10999 10996 ] final -156.47 input  -57.11 | X-H torsion

> <Gold.Protein.ActiveResidues>
 VAL166  LYS551  ARG553  GLY616  TRP617  ASP618  TYR619  PRO620  LYS621  CYS622 
 ASP623  PHE694  ASN695  SER759  ASP760  ASP761  ALA762  ILE779  LEU786  VAL792 
 PHE793  MET794  SER795  GLU796  ALA797  LYS798  CYS799  TRP800  GLU811  SER814 

> <Gold.Protein.RotatedAtoms>
  151.9237  133.3592  159.3905 H   0  0  0  0  0  0  0  0  0  0  0  0  # atno 6907 bound_to 6896
  150.7031  134.4608  159.5389 H   0  0  0  0  0  0  0  0  0  0  0  0  # atno 6908 bound_to 6896
  152.2237  134.8389  160.0533 H   0  0  0  0  0  0  0  0  0  0  0  0  # atno 6909 bound_to 6896
  144.7543  139.8332  143.6355 H   0  0  0  0  0  0  0  0  0  0  0  0  # atno 7974 bound_to 7965
  155.9944  140.3365  155.6784 H   0  0  0  0  0  0  0  0  0  0  0  0  # atno 8008 bound_to 7997
  155.6376  140.0692  157.2647 H   0  0  0  0  0  0  0  0  0  0  0  0  # atno 8009 bound_to 7997
  154.4229  140.1748  156.1527 H   0  0  0  0  0  0  0  0  0  0  0  0  # atno 8010 bound_to 7997
  139.5478  144.6788  151.4419 H   0  0  0  0  0  0  0  0  0  0  0  0  # atno 10167 bound_to 10162
  156.0530  130.5757  150.8082 H   0  0  0  0  0  0  0  0  0  0  0  0  # atno 10718 bound_to 10713
  154.4621  135.2768  155.1705 H   0  0  0  0  0  0  0  0  0  0  0  0  # atno 10763 bound_to 10752
  154.3489  135.6154  153.5636 H   0  0  0  0  0  0  0  0  0  0  0  0  # atno 10764 bound_to 10752
  152.9856  135.5806  154.4985 H   0  0  0  0  0  0  0  0  0  0  0  0  # atno 10765 bound_to 10752
  140.6752  134.4204  157.5229 H   0  0  0  0  0  0  0  0  0  0  0  0  # atno 11005 bound_to 11000
  146.1534  139.4624  143.0034 LP  0  0  0  0  0  0  0  0  0  0  0  0  # atno 17320 bound_to 7965
  145.6833  141.0185  143.1595 LP  0  0  0  0  0  0  0  0  0  0  0  0  # atno 17321 bound_to 7965
  140.6731  143.8249  150.7024 LP  0  0  0  0  0  0  0  0  0  0  0  0  # atno 17342 bound_to 10162
  140.1680  143.4219  152.2021 LP  0  0  0  0  0  0  0  0  0  0  0  0  # atno 17343 bound_to 10162
  157.5475  131.0943  150.9742 LP  0  0  0  0  0  0  0  0  0  0  0  0  # atno 17370 bound_to 10713
  157.0010  130.5600  149.5311 LP  0  0  0  0  0  0  0  0  0  0  0  0  # atno 17371 bound_to 10713
  139.8969  134.8649  156.2068 LP  0  0  0  0  0  0  0  0  0  0  0  0  # atno 17394 bound_to 11000
  141.0361  133.6963  156.1514 LP  0  0  0  0  0  0  0  0  0  0  0  0  # atno 17395 bound_to 11000

$$$$
