AV-unprocessed.smi:2579|AV-procd|sdf|10126|dock8
  -GOLD-   2272014143D 1   1.00000     0.00000
 Structure written by MMmdl.
 38 40  0  0  0  0  0  0  0  0  1 V2000
  150.0057  137.8231  153.8367 O   0  0  0  0  0  0  0  0  0  0  0  0
  150.9813  137.2605  154.6878 C   0  0  0  0  0  0  0  0  0  0  0  0
  152.1430  138.2433  154.8827 C   0  0  0  0  0  0  0  0  0  0  0  0
  151.6751  139.5350  155.3470 N   0  0  0  0  0  0  0  0  0  0  0  0
  151.8844  140.2409  156.5246 C   0  0  0  0  0  0  0  0  0  0  0  0
  152.6246  139.7949  157.5379 N   0  0  0  0  0  0  0  0  0  0  0  0
  152.5111  140.8213  158.4570 C   0  0  0  0  0  0  0  0  0  0  0  0
  153.0650  140.9604  159.7499 C   0  0  0  0  0  0  0  0  0  0  0  0
  152.8040  142.1139  160.5183 C   0  0  0  0  0  0  0  0  0  0  0  0
  151.9863  143.1427  160.0072 C   0  0  0  0  0  0  0  0  0  0  0  0
  151.4253  143.0260  158.7209 C   0  0  0  0  0  0  0  0  0  0  0  0
  151.6901  141.8738  157.9565 C   0  0  0  0  0  0  0  0  0  0  0  0
  151.3062  141.4550  156.6861 N   0  0  0  0  0  0  0  0  0  0  0  0
  150.4586  142.1853  155.7544 C   0  0  0  0  0  0  0  0  0  0  0  0
  149.2686  141.3399  155.2729 C   0  0  1  0  0  0  0  0  0  0  0  0
  147.9473  141.6752  155.9647 C   0  0  0  0  0  0  0  0  0  0  0  0
  146.8895  141.3459  154.9200 C   0  0  0  0  0  0  0  0  0  0  0  0
  147.6911  141.0396  153.6531 C   0  0  0  0  0  0  0  0  0  0  0  0
  148.9782  141.5805  153.9050 O   0  0  0  0  0  0  0  0  0  0  0  0
  149.6162  137.1290  153.3272 H   0  0  0  0  0  0  0  0  0  0  0  0
  150.5365  136.9680  155.6400 H   0  0  0  0  0  0  0  0  0  0  0  0
  151.3477  136.3506  154.2121 H   0  0  0  0  0  0  0  0  0  0  0  0
  152.8234  137.8472  155.6369 H   0  0  0  0  0  0  0  0  0  0  0  0
  152.7213  138.3608  153.9657 H   0  0  0  0  0  0  0  0  0  0  0  0
  151.0634  139.9960  154.6889 H   0  0  0  0  0  0  0  0  0  0  0  0
  153.6917  140.1778  160.1515 H   0  0  0  0  0  0  0  0  0  0  0  0
  153.2325  142.2094  161.5052 H   0  0  0  0  0  0  0  0  0  0  0  0
  151.7904  144.0219  160.6034 H   0  0  0  0  0  0  0  0  0  0  0  0
  150.7987  143.8124  158.3272 H   0  0  0  0  0  0  0  0  0  0  0  0
  150.0982  143.0879  156.2487 H   0  0  0  0  0  0  0  0  0  0  0  0
  151.0618  142.5210  154.9102 H   0  0  0  0  0  0  0  0  0  0  0  0
  149.4892  140.2780  155.3983 H   0  0  0  0  0  0  0  0  0  0  0  0
  147.8143  141.1166  156.8917 H   0  0  0  0  0  0  0  0  0  0  0  0
  147.9003  142.7381  156.2060 H   0  0  0  0  0  0  0  0  0  0  0  0
  146.2745  140.4940  155.2122 H   0  0  0  0  0  0  0  0  0  0  0  0
  146.2286  142.2003  154.7690 H   0  0  0  0  0  0  0  0  0  0  0  0
  147.7787  139.9623  153.5047 H   0  0  0  0  0  0  0  0  0  0  0  0
  147.2456  141.4725  152.7570 H   0  0  0  0  0  0  0  0  0  0  0  0
  1  2  1  0  0  0  0
  1 20  1  0  0  0  0
  2  3  1  0  0  0  0
  2 21  1  0  0  0  0
  2 22  1  0  0  0  0
  3  4  1  0  0  0  0
  3 23  1  0  0  0  0
  3 24  1  0  0  0  0
  4  5  1  0  0  0  0
  4 25  1  0  0  0  0
  5 13  1  0  0  0  0
  5  6  2  0  0  0  0
  6  7  1  0  0  0  0
  7 12  2  0  0  0  0
  7  8  1  0  0  0  0
  8  9  2  0  0  0  0
  8 26  1  0  0  0  0
  9 10  1  0  0  0  0
  9 27  1  0  0  0  0
 10 11  2  0  0  0  0
 10 28  1  0  0  0  0
 11 12  1  0  0  0  0
 11 29  1  0  0  0  0
 12 13  1  0  0  0  0
 13 14  1  0  0  0  0
 14 15  1  0  0  0  0
 14 30  1  0  0  0  0
 14 31  1  0  0  0  0
 15 19  1  0  0  0  0
 15 16  1  0  0  0  0
 15 32  1  0  0  0  0
 16 17  1  0  0  0  0
 16 33  1  0  0  0  0
 16 34  1  0  0  0  0
 17 18  1  0  0  0  0
 17 35  1  0  0  0  0
 17 36  1  0  0  0  0
 18 19  1  0  0  0  0
 18 37  1  0  0  0  0
 18 38  1  0  0  0  0
M  END
> <s_m_source_file>
AV-unprocessed.smi

> <i_m_source_file_index>
2579

> <i_lp_mmshare_version>
43012

> <i_f3d_flags>
0

> <s_epik_input>
W09IXVtDSDJdW0NIMl1bTkhdYyhuMSluKGMoYzEyKVtjSF1bY0hdW2NIXVtjSF0yKVtDSDJdW0NAQEhdM1tDSDJdW0NIMl1bQ0gyXU8z

> <s_epik_cmdline>
J2VwaWtfcHl0aG9uJywgJy1waCcsICc3LjAnLCAnLXRuJywgJzgnLCAnLW1hJywgJzIwMCcsICctbWV0YWxfYmluZGluZycsICctaW1hZScsICc8aW5maWxlLm1hZT4nLCAnLW9tYWUnLCAnPG91dGZpbGUubWFlPic=

> <r_epik_Ionization_Penalty>
1.27244

> <r_epik_Ionization_Penalty_Charging>
0

> <r_epik_Ionization_Penalty_Neutral>
1.27244

> <r_epik_State_Penalty>
1.34401

> <r_epik_Charging_Adjusted_Penalty>
1.34401

> <i_epik_Tot_Q>
0

> <i_epik_Tot_abs_Q>
0

> <r_epik_Metal_State_Penalty>
0.00511131

> <b_epik_Metal_Only>
0

> <s_lp_Force_Field>
OPLS_2005

> <r_lp_Energy>
20.6152

> <b_lp_Chiralities_Consistent>
1

> <s_lp_Variant>
AV-unprocessed.smi:2579-4

> <Gold.Version>
5.8.1

> <Gold.Id.Protein>
6NUR|6NUR_protein|mol2

> <Gold.PLP.Fitness>
45.2234

> <Gold.PLP.PLP>
-38.4219

> <Gold.PLP.part.hbond>
-3.9471

> <Gold.PLP.part.metal>
0.0000

> <Gold.PLP.part.buried>
-4.1745

> <Gold.PLP.part.nonpolar>
-30.7820

> <Gold.PLP.part.repulsive>
0.3494

> <Gold.PLP.ligand.clash>
0.0000

> <Gold.PLP.ligand.torsion>
0.6124

> <Gold.PLP.Chemscore.Hbond>
2.6720

> <Gold.PLP.Chemscore.CHOScore>
0.0000

> <Gold.PLP.Chemscore.Metal>
0.0000

> <Gold.Chemscore.Hbonds>
donor molecule, donor type, donor heavy atom, donor atom, acceptor molecule, acceptor atom, score
      L1  H     1    20       P1  7948  1.00
      P1  H  7997  8010       L1     6  1.00
      P1  H  8011  8017       L1    19  0.67

> <Gold.PLP.Chemscore.Internal.Correction>
0.0102

> <Gold.Rescore>
     Score         DG    S(hbond)    S(metal)    S(lipo)     H(rot)  DE(clash)    DE(int)     intcor
     14.91     -16.85       1.54        0.00     100.75       2.17       1.30       0.64       ----

> <Gold.Chemscore.Fitness>
14.9127

> <Gold.Chemscore.DG>
-16.8496

> <Gold.Chemscore.ZeroCoef>
-5.4800

> <Gold.Chemscore.Hbond>
1.5370

> <Gold.Chemscore.Metal>
0.0000

> <Gold.Chemscore.Lipo>
100.7534

> <Gold.Chemscore.Internal_Hbond>
0.0000

> <Gold.Chemscore.DEClash>
1.2952

> <Gold.Chemscore.DEInternal>
0.6416

> <Gold.Chemscore.Rot>
2.1688

> <Gold.Chemscore.Internal.Correction>
   9.000000E+99

> <Gold.Chemscore.Hbonds>
donor molecule, donor type, donor heavy atom, donor atom, acceptor molecule, acceptor atom, score
      L1  H     1    20       P1  7948  0.74
      P1  H  7997  8010       L1     6  0.12
      P1  H  8011  8017       L1    19  0.57

> <Gold.Chemscore.Hbond.Weighted>
-5.1337

> <Gold.Chemscore.Metal.Weighted>
-0.0000

> <Gold.Chemscore.Lipo.Weighted>
-11.7881

> <Gold.Chemscore.Internal_Hbond.Weighted>
0.0000

> <Gold.Chemscore.DEClash.Weighted>
1.2952

> <Gold.Chemscore.DEInternal.Weighted>
0.6416

> <Gold.Chemscore.Rot.Weighted>
5.5522

> <Gold.Chemscore.Internal.Correction.Weighted>
   9.000000E+99

> <Gold.Protein.RotatedTorsions>
[ 6907 6896 6895 6894 ] final -124.57 input  -60.11 | X-H torsion
[ 7974 7965 7964 7962 ] final -129.18 input  175.53 | X-H torsion
[ 8008 7997 7996 7995 ] final   49.39 input   59.86 | X-H torsion
[ 10167 10162 10161 10158 ] final  171.15 input  -65.29 | X-H torsion
[ 10718 10713 10712 10709 ] final -117.44 input   66.30 | X-H torsion
[ 10763 10752 10751 10750 ] final   39.50 input  -60.55 | X-H torsion
[ 11005 11000 10999 10996 ] final -134.05 input  -57.11 | X-H torsion

> <Gold.Protein.ActiveResidues>
 VAL166  LYS551  ARG553  GLY616  TRP617  ASP618  TYR619  PRO620  LYS621  CYS622 
 ASP623  PHE694  ASN695  SER759  ASP760  ASP761  ALA762  ILE779  LEU786  VAL792 
 PHE793  MET794  SER795  GLU796  ALA797  LYS798  CYS799  TRP800  GLU811  SER814 

> <Gold.Protein.RotatedAtoms>
  150.8781  133.7410  159.2940 H   0  0  0  0  0  0  0  0  0  0  0  0  # atno 6907 bound_to 6896
  151.5000  135.1060  159.9836 H   0  0  0  0  0  0  0  0  0  0  0  0  # atno 6908 bound_to 6896
  152.4741  133.8053  159.7030 H   0  0  0  0  0  0  0  0  0  0  0  0  # atno 6909 bound_to 6896
  144.9597  140.7433  143.4737 H   0  0  0  0  0  0  0  0  0  0  0  0  # atno 7974 bound_to 7965
  155.4014  140.3438  155.4257 H   0  0  0  0  0  0  0  0  0  0  0  0  # atno 8008 bound_to 7997
  156.1501  140.1568  156.8815 H   0  0  0  0  0  0  0  0  0  0  0  0  # atno 8009 bound_to 7997
  154.5045  140.0806  156.7847 H   0  0  0  0  0  0  0  0  0  0  0  0  # atno 8010 bound_to 7997
  139.5038  144.3518  151.9915 H   0  0  0  0  0  0  0  0  0  0  0  0  # atno 10167 bound_to 10162
  156.1034  130.6190  150.9164 H   0  0  0  0  0  0  0  0  0  0  0  0  # atno 10718 bound_to 10713
  152.9965  135.6219  154.2474 H   0  0  0  0  0  0  0  0  0  0  0  0  # atno 10763 bound_to 10752
  154.2214  135.2796  155.2925 H   0  0  0  0  0  0  0  0  0  0  0  0  # atno 10764 bound_to 10752
  154.5525  135.5729  153.6993 H   0  0  0  0  0  0  0  0  0  0  0  0  # atno 10765 bound_to 10752
  140.9025  134.1672  157.4450 H   0  0  0  0  0  0  0  0  0  0  0  0  # atno 11005 bound_to 11000
  145.2719  139.1951  143.4837 LP  0  0  0  0  0  0  0  0  0  0  0  0  # atno 17320 bound_to 7965
  146.3349  140.2666  142.8604 LP  0  0  0  0  0  0  0  0  0  0  0  0  # atno 17321 bound_to 7965
  140.2954  144.3706  150.6076 LP  0  0  0  0  0  0  0  0  0  0  0  0  # atno 17342 bound_to 10162
  140.5914  143.2168  151.7246 LP  0  0  0  0  0  0  0  0  0  0  0  0  # atno 17343 bound_to 10162
  157.6207  131.0930  150.8627 LP  0  0  0  0  0  0  0  0  0  0  0  0  # atno 17370 bound_to 10713
  156.8750  130.5159  149.5294 LP  0  0  0  0  0  0  0  0  0  0  0  0  # atno 17371 bound_to 10713
  139.8744  134.9904  156.5499 LP  0  0  0  0  0  0  0  0  0  0  0  0  # atno 17394 bound_to 11000
  140.8212  133.8352  155.8897 LP  0  0  0  0  0  0  0  0  0  0  0  0  # atno 17395 bound_to 11000

$$$$
