AV-unprocessed.smi:1605|AV-procd|sdf|6456|dock2
  -GOLD-   22720 7113D 1   1.00000     0.00000
 Structure written by MMmdl.
 52 54  0  0  0  0  0  0  0  0  3 V2000
  146.9997  143.6028  156.8863 C   0  0  0  0  0  0  0  0  0  0  0  0
  147.1482  143.4888  155.4793 O   0  0  0  0  0  0  0  0  0  0  0  0
  147.5861  142.2110  155.0370 C   0  0  2  0  0  0  0  0  0  0  0  0
  147.8432  142.3055  153.5259 C   0  0  0  0  0  0  0  0  0  0  0  0
  148.2195  140.9363  152.9365 C   0  0  0  0  0  0  0  0  0  0  0  0
  147.1659  139.9267  153.2159 N   0  3  1  0  0  0  0  0  0  0  0  0
  147.4294  138.6331  152.5334 C   0  0  0  0  0  0  0  0  0  0  0  0
  146.1388  137.9301  152.0565 C   0  0  1  0  0  0  0  0  0  0  0  0
  146.3662  137.3777  150.7746 O   0  0  0  0  0  0  0  0  0  0  0  0
  145.6598  136.8170  153.0167 C   0  0  0  0  0  0  0  0  0  0  0  0
  144.5670  135.9842  152.4867 N   0  0  0  0  0  0  0  0  0  0  0  0
  143.4614  136.3424  151.7775 C   0  0  0  0  0  0  0  0  0  0  0  0
  142.7560  135.2080  151.5134 N   0  3  0  0  0  0  0  0  0  0  0  0
  143.4246  134.1070  152.0520 C   0  0  0  0  0  0  0  0  0  0  0  0
  143.1041  132.7544  152.0436 C   0  0  0  0  0  0  0  0  0  0  0  0
  144.0040  131.8742  152.6860 C   0  0  0  0  0  0  0  0  0  0  0  0
  143.6805  130.3898  152.7021 C   0  0  0  0  0  0  0  0  0  0  0  0
  145.1850  132.3611  153.3034 C   0  0  0  0  0  0  0  0  0  0  0  0
  146.1485  131.4071  153.9886 C   0  0  0  0  0  0  0  0  0  0  0  0
  145.4934  133.7400  153.2990 C   0  0  0  0  0  0  0  0  0  0  0  0
  144.5920  134.5958  152.6699 C   0  0  0  0  0  0  0  0  0  0  0  0
  146.9255  139.7865  154.6770 C   0  0  0  0  0  0  0  0  0  0  0  0
  146.5211  141.1311  155.3041 C   0  0  0  0  0  0  0  0  0  0  0  0
  146.7019  144.6210  157.1365 H   0  0  0  0  0  0  0  0  0  0  0  0
  147.9382  143.3941  157.4012 H   0  0  0  0  0  0  0  0  0  0  0  0
  146.2319  142.9318  157.2704 H   0  0  0  0  0  0  0  0  0  0  0  0
  148.5216  141.9444  155.5324 H   0  0  0  0  0  0  0  0  0  0  0  0
  146.9527  142.6849  153.0228 H   0  0  0  0  0  0  0  0  0  0  0  0
  148.6388  143.0248  153.3287 H   0  0  0  0  0  0  0  0  0  0  0  0
  148.3563  141.0403  151.8595 H   0  0  0  0  0  0  0  0  0  0  0  0
  149.1717  140.5958  153.3467 H   0  0  0  0  0  0  0  0  0  0  0  0
  148.0731  138.8031  151.6690 H   0  0  0  0  0  0  0  0  0  0  0  0
  147.9914  137.9834  153.2063 H   0  0  0  0  0  0  0  0  0  0  0  0
  145.3253  138.6485  151.9638 H   0  0  0  0  0  0  0  0  0  0  0  0
  147.0069  136.6867  150.8455 H   0  0  0  0  0  0  0  0  0  0  0  0
  146.4910  136.1460  153.2373 H   0  0  0  0  0  0  0  0  0  0  0  0
  145.3524  137.2345  153.9761 H   0  0  0  0  0  0  0  0  0  0  0  0
  143.1901  137.3449  151.4797 H   0  0  0  0  0  0  0  0  0  0  0  0
  142.2052  132.3902  151.5680 H   0  0  0  0  0  0  0  0  0  0  0  0
  144.4550  129.8237  152.1845 H   0  0  0  0  0  0  0  0  0  0  0  0
  142.7299  130.1830  152.2096 H   0  0  0  0  0  0  0  0  0  0  0  0
  143.6099  130.0237  153.7267 H   0  0  0  0  0  0  0  0  0  0  0  0
  147.0106  131.9358  154.3963 H   0  0  0  0  0  0  0  0  0  0  0  0
  146.5182  130.6628  153.2831 H   0  0  0  0  0  0  0  0  0  0  0  0
  145.6546  130.8904  154.8119 H   0  0  0  0  0  0  0  0  0  0  0  0
  146.3908  134.1088  153.7730 H   0  0  0  0  0  0  0  0  0  0  0  0
  146.1365  139.0604  154.8676 H   0  0  0  0  0  0  0  0  0  0  0  0
  147.8262  139.4046  155.1606 H   0  0  0  0  0  0  0  0  0  0  0  0
  146.3700  140.9959  156.3747 H   0  0  0  0  0  0  0  0  0  0  0  0
  145.5621  141.4510  154.8940 H   0  0  0  0  0  0  0  0  0  0  0  0
  146.3170  140.2938  152.8100 H   0  0  0  0  0  0  0  0  0  0  0  0
  141.8849  135.1881  150.9983 H   0  0  0  0  0  0  0  0  0  0  0  0
  1  2  1  0  0  0  0
  1 24  1  0  0  0  0
  1 25  1  0  0  0  0
  1 26  1  0  0  0  0
  2  3  1  0  0  0  0
  3 23  1  0  0  0  0
  3  4  1  0  0  0  0
  3 27  1  0  0  0  0
  4  5  1  0  0  0  0
  4 28  1  0  0  0  0
  4 29  1  0  0  0  0
  5  6  1  0  0  0  0
  5 30  1  0  0  0  0
  5 31  1  0  0  0  0
  6  7  1  0  0  0  0
  6 22  1  0  0  0  0
  6 51  1  0  0  0  0
  7  8  1  0  0  0  0
  7 32  1  0  0  0  0
  7 33  1  0  0  0  0
  8  9  1  0  0  0  0
  8 10  1  0  0  0  0
  8 34  1  0  0  0  0
  9 35  1  0  0  0  0
 10 11  1  0  0  0  0
 10 36  1  0  0  0  0
 10 37  1  0  0  0  0
 11 21  1  0  0  0  0
 11 12  1  0  0  0  0
 12 13  2  0  0  0  0
 12 38  1  0  0  0  0
 13 14  1  0  0  0  0
 13 52  1  0  0  0  0
 14 21  2  0  0  0  0
 14 15  1  0  0  0  0
 15 16  2  0  0  0  0
 15 39  1  0  0  0  0
 16 17  1  0  0  0  0
 16 18  1  0  0  0  0
 17 40  1  0  0  0  0
 17 41  1  0  0  0  0
 17 42  1  0  0  0  0
 18 19  1  0  0  0  0
 18 20  2  0  0  0  0
 19 43  1  0  0  0  0
 19 44  1  0  0  0  0
 19 45  1  0  0  0  0
 20 21  1  0  0  0  0
 20 46  1  0  0  0  0
 22 23  1  0  0  0  0
 22 47  1  0  0  0  0
 22 48  1  0  0  0  0
 23 49  1  0  0  0  0
 23 50  1  0  0  0  0
M  CHG  1   6   1
M  CHG  1  13   1
M  END
> <s_m_source_file>
AV-unprocessed.smi

> <i_m_source_file_index>
1605

> <i_lp_mmshare_version>
43012

> <i_f3d_flags>
0

> <s_epik_input>
W0NIM11PW0NIXTFbQ0gyXVtDSDJdTihbQ0gyXVtDSDJdMSlbQ0gyXVtDQEhdKFtPSF0pW0NIMl1uKFtjSF1uMiljKGMyMylbY0hdYyhbQ0gzXSljKFtjSF0zKVtDSDNd

> <s_epik_cmdline>
J2VwaWtfcHl0aG9uJywgJy1waCcsICc3LjAnLCAnLXRuJywgJzgnLCAnLW1hJywgJzIwMCcsICctbWV0YWxfYmluZGluZycsICctaW1hZScsICc8aW5maWxlLm1hZT4nLCAnLW9tYWUnLCAnPG91dGZpbGUubWFlPic=

> <r_epik_Ionization_Penalty>
1.19848

> <r_epik_Ionization_Penalty_Charging>
1.19848

> <r_epik_Ionization_Penalty_Neutral>
1.67134e-06

> <r_epik_State_Penalty>
1.2782

> <r_epik_Charging_Adjusted_Penalty>
2.47668

> <i_epik_Tot_Q>
2

> <i_epik_Tot_abs_Q>
2

> <r_epik_Metal_State_Penalty>
5.29544

> <b_epik_Metal_Only>
0

> <s_lp_Force_Field>
OPLS_2005

> <r_lp_Energy>
33.6993

> <b_lp_Chiralities_Consistent>
1

> <s_lp_Variant>
AV-unprocessed.smi:1605-6

> <Gold.Version>
5.8.1

> <Gold.Id.Protein>
6NUR|6NUR_protein|mol2

> <Gold.PLP.Fitness>
56.7219

> <Gold.PLP.PLP>
-41.2329

> <Gold.PLP.part.hbond>
-5.0000

> <Gold.PLP.part.metal>
0.0000

> <Gold.PLP.part.buried>
-5.4443

> <Gold.PLP.part.nonpolar>
-31.9745

> <Gold.PLP.part.repulsive>
0.1353

> <Gold.PLP.ligand.clash>
0.0000

> <Gold.PLP.ligand.torsion>
1.2912

> <Gold.PLP.Chemscore.Hbond>
5.0000

> <Gold.PLP.Chemscore.CHOScore>
1.0000

> <Gold.PLP.Chemscore.Metal>
0.0000

> <Gold.Chemscore.Hbonds>
donor molecule, donor type, donor heavy atom, donor atom, acceptor molecule, acceptor atom, score
      L1  H     9    35       P1  7948  0.50
      L1  C    12    38       P1 10171  1.00

> <Gold.PLP.Chemscore.Internal.Correction>
0.0715

> <Gold.Rescore>
     Score         DG    S(hbond)    S(metal)    S(lipo)     H(rot)  DE(clash)    DE(int)     intcor
     17.27     -18.87       2.83        0.00      83.76       2.28       0.35       1.24       ----

> <Gold.Chemscore.Fitness>
17.2716

> <Gold.Chemscore.DG>
-18.8689

> <Gold.Chemscore.ZeroCoef>
-5.4800

> <Gold.Chemscore.Hbond>
2.8251

> <Gold.Chemscore.Metal>
0.0000

> <Gold.Chemscore.Lipo>
83.7613

> <Gold.Chemscore.Internal_Hbond>
0.0000

> <Gold.Chemscore.DEClash>
0.3540

> <Gold.Chemscore.DEInternal>
1.2433

> <Gold.Chemscore.Rot>
2.2839

> <Gold.Chemscore.Internal.Correction>
   9.000000E+99

> <Gold.Chemscore.Hbonds>
donor molecule, donor type, donor heavy atom, donor atom, acceptor molecule, acceptor atom, score
      L1  H     9    35       P1  7948  0.49

> <Gold.Chemscore.Hbond.Weighted>
-9.4357

> <Gold.Chemscore.Metal.Weighted>
-0.0000

> <Gold.Chemscore.Lipo.Weighted>
-9.8001

> <Gold.Chemscore.Internal_Hbond.Weighted>
0.0000

> <Gold.Chemscore.DEClash.Weighted>
0.3540

> <Gold.Chemscore.DEInternal.Weighted>
1.2433

> <Gold.Chemscore.Rot.Weighted>
5.8469

> <Gold.Chemscore.Internal.Correction.Weighted>
   9.000000E+99

> <Gold.Protein.RotatedTorsions>
[ 6907 6896 6895 6894 ] final  173.74 input  -60.11 | X-H torsion
[ 7974 7965 7964 7962 ] final   62.68 input  175.53 | X-H torsion
[ 8008 7997 7996 7995 ] final  179.68 input   59.86 | X-H torsion
[ 10167 10162 10161 10158 ] final  -73.82 input  -65.29 | X-H torsion
[ 10718 10713 10712 10709 ] final -127.79 input   66.30 | X-H torsion
[ 10763 10752 10751 10750 ] final   44.32 input  -60.55 | X-H torsion
[ 11005 11000 10999 10996 ] final  -54.77 input  -57.11 | X-H torsion

> <Gold.Protein.ActiveResidues>
 VAL166  LYS551  ARG553  GLY616  TRP617  ASP618  TYR619  PRO620  LYS621  CYS622 
 ASP623  PHE694  ASN695  SER759  ASP760  ASP761  ALA762  ILE779  LEU786  VAL792 
 PHE793  MET794  SER795  GLU796  ALA797  LYS798  CYS799  TRP800  GLU811  SER814 

> <Gold.Protein.RotatedAtoms>
  151.7634  133.3335  159.3423 H   0  0  0  0  0  0  0  0  0  0  0  0  # atno 6907 bound_to 6896
  150.7489  134.6085  159.6083 H   0  0  0  0  0  0  0  0  0  0  0  0  # atno 6908 bound_to 6896
  152.3390  134.7162  160.0320 H   0  0  0  0  0  0  0  0  0  0  0  0  # atno 6909 bound_to 6896
  145.8705  139.3375  143.0765 H   0  0  0  0  0  0  0  0  0  0  0  0  # atno 7974 bound_to 7965
  156.0406  140.1302  157.0159 H   0  0  0  0  0  0  0  0  0  0  0  0  # atno 8008 bound_to 7997
  154.4389  140.1031  156.6302 H   0  0  0  0  0  0  0  0  0  0  0  0  # atno 8009 bound_to 7997
  155.5672  140.3466  155.4508 H   0  0  0  0  0  0  0  0  0  0  0  0  # atno 8010 bound_to 7997
  140.5078  143.2350  151.7644 H   0  0  0  0  0  0  0  0  0  0  0  0  # atno 10167 bound_to 10162
  156.1890  130.6783  151.0401 H   0  0  0  0  0  0  0  0  0  0  0  0  # atno 10718 bound_to 10713
  152.9843  135.6074  154.3254 H   0  0  0  0  0  0  0  0  0  0  0  0  # atno 10763 bound_to 10752
  154.2961  135.2774  155.2634 H   0  0  0  0  0  0  0  0  0  0  0  0  # atno 10764 bound_to 10752
  154.4908  135.5893  153.6514 H   0  0  0  0  0  0  0  0  0  0  0  0  # atno 10765 bound_to 10752
  141.1042  133.6615  156.4371 H   0  0  0  0  0  0  0  0  0  0  0  0  # atno 11005 bound_to 11000
  145.9142  140.9159  143.0438 LP  0  0  0  0  0  0  0  0  0  0  0  0  # atno 17320 bound_to 7965
  144.6726  140.1201  143.7450 LP  0  0  0  0  0  0  0  0  0  0  0  0  # atno 17321 bound_to 7965
  139.4888  144.4432  151.9740 LP  0  0  0  0  0  0  0  0  0  0  0  0  # atno 17342 bound_to 10162
  140.3524  144.3073  150.5947 LP  0  0  0  0  0  0  0  0  0  0  0  0  # atno 17343 bound_to 10162
  157.6917  131.0807  150.7087 LP  0  0  0  0  0  0  0  0  0  0  0  0  # atno 17370 bound_to 10713
  156.7144  130.4661  149.5539 LP  0  0  0  0  0  0  0  0  0  0  0  0  # atno 17371 bound_to 10713
  140.4945  134.6544  157.5224 LP  0  0  0  0  0  0  0  0  0  0  0  0  # atno 17394 bound_to 11000
  139.9905  134.6992  155.9698 LP  0  0  0  0  0  0  0  0  0  0  0  0  # atno 17395 bound_to 11000

$$$$
