AV-unprocessed.smi:2881|AV-procd|sdf|11068|dock3
  -GOLD-   2272015543D 1   1.00000     0.00000
 Structure written by MMmdl.
 40 42  0  0  0  0  0  0  0  0  1 V2000
  152.0692  144.2507  161.5470 C   0  0  0  0  0  0  0  0  0  0  0  0
  151.7816  143.5940  160.2289 C   0  0  0  0  0  0  0  0  0  0  0  0
  151.9629  144.1298  158.9200 C   0  0  0  0  0  0  0  0  0  0  0  0
  151.5503  143.1292  158.0848 C   0  0  0  0  0  0  0  0  0  0  0  0
  151.4842  143.0516  156.5934 C   0  0  0  0  0  0  0  0  0  0  0  0
  150.4880  141.9828  156.1458 C   0  0  0  0  0  0  0  0  0  0  0  0
  150.8939  140.8964  155.7335 O   0  0  0  0  0  0  0  0  0  0  0  0
  149.1881  142.3019  156.2340 N   0  0  0  0  0  0  0  0  0  0  0  0
  148.0841  141.4217  155.8589 C   0  0  1  0  0  0  0  0  0  0  0  0
  146.8737  141.5046  156.8236 C   0  0  1  0  0  0  0  0  0  0  0  0
  146.4238  142.9650  157.0442 C   0  0  0  0  0  0  0  0  0  0  0  0
  145.8196  143.3402  155.6783 C   0  0  0  0  0  0  0  0  0  0  0  0
  145.9748  142.0387  154.8672 C   0  0  2  0  0  0  0  0  0  0  0  0
  145.7462  140.9825  155.9427 C   0  0  0  0  0  0  0  0  0  0  0  0
  147.4651  141.8386  154.4995 C   0  0  2  0  0  0  0  0  0  0  0  0
  147.6966  140.7889  153.3950 C   0  0  0  0  0  0  0  0  0  0  0  0
  148.9692  140.1945  153.5397 O   0  0  0  0  0  0  0  0  0  0  0  0
  151.1572  142.0898  158.8974 N   0  0  0  0  0  0  0  0  0  0  0  0
  151.2946  142.3621  160.2083 N   0  0  0  0  0  0  0  0  0  0  0  0
  150.8016  141.2008  158.5750 H   0  0  0  0  0  0  0  0  0  0  0  0
  152.6087  145.1881  161.4105 H   0  0  0  0  0  0  0  0  0  0  0  0
  152.6782  143.6084  162.1836 H   0  0  0  0  0  0  0  0  0  0  0  0
  151.1462  144.4738  162.0827 H   0  0  0  0  0  0  0  0  0  0  0  0
  152.3396  145.1019  158.6381 H   0  0  0  0  0  0  0  0  0  0  0  0
  152.4702  142.8254  156.1854 H   0  0  0  0  0  0  0  0  0  0  0  0
  151.1914  144.0170  156.1784 H   0  0  0  0  0  0  0  0  0  0  0  0
  148.9446  143.2174  156.5832 H   0  0  0  0  0  0  0  0  0  0  0  0
  148.4412  140.3908  155.8098 H   0  0  0  0  0  0  0  0  0  0  0  0
  147.0188  140.9509  157.7518 H   0  0  0  0  0  0  0  0  0  0  0  0
  145.6599  143.0145  157.8211 H   0  0  0  0  0  0  0  0  0  0  0  0
  147.2330  143.6311  157.3436 H   0  0  0  0  0  0  0  0  0  0  0  0
  144.7678  143.6077  155.7867 H   0  0  0  0  0  0  0  0  0  0  0  0
  146.3311  144.1838  155.2137 H   0  0  0  0  0  0  0  0  0  0  0  0
  145.2949  141.9816  154.0167 H   0  0  0  0  0  0  0  0  0  0  0  0
  145.9050  139.9603  155.5970 H   0  0  0  0  0  0  0  0  0  0  0  0
  144.7628  141.0485  156.4117 H   0  0  0  0  0  0  0  0  0  0  0  0
  147.8880  142.7851  154.1567 H   0  0  0  0  0  0  0  0  0  0  0  0
  146.9439  140.0027  153.4614 H   0  0  0  0  0  0  0  0  0  0  0  0
  147.6151  141.2280  152.4007 H   0  0  0  0  0  0  0  0  0  0  0  0
  149.4376  140.2840  152.7238 H   0  0  0  0  0  0  0  0  0  0  0  0
  1 21  1  0  0  0  0
  1 22  1  0  0  0  0
  1 23  1  0  0  0  0
  1  2  1  0  0  0  0
  2 19  2  0  0  0  0
  2  3  1  0  0  0  0
  3  4  2  0  0  0  0
  3 24  1  0  0  0  0
  4 18  1  0  0  0  0
  4  5  1  0  0  0  0
  5  6  1  0  0  0  0
  5 25  1  0  0  0  0
  5 26  1  0  0  0  0
  6  7  2  0  0  0  0
  6  8  1  0  0  0  0
  8  9  1  0  0  0  0
  8 27  1  0  0  0  0
  9 15  1  0  0  0  0
  9 10  1  0  0  0  0
  9 28  1  0  0  0  0
 10 14  1  0  0  0  0
 10 11  1  0  0  0  0
 10 29  1  0  0  0  0
 11 12  1  0  0  0  0
 11 30  1  0  0  0  0
 11 31  1  0  0  0  0
 12 13  1  0  0  0  0
 12 32  1  0  0  0  0
 12 33  1  0  0  0  0
 13 14  1  0  0  0  0
 13 15  1  0  0  0  0
 13 34  1  0  0  0  0
 14 35  1  0  0  0  0
 14 36  1  0  0  0  0
 15 16  1  0  0  0  0
 15 37  1  0  0  0  0
 16 17  1  0  0  0  0
 16 38  1  0  0  0  0
 16 39  1  0  0  0  0
 17 40  1  0  0  0  0
 18 19  1  0  0  0  0
 18 20  1  0  0  0  0
M  END
> <s_m_source_file>
AV-unprocessed.smi

> <i_m_source_file_index>
2881

> <i_lp_mmshare_version>
43012

> <i_f3d_flags>
0

> <s_epik_input>
W0NIM11jMVtjSF1jKG5bbkhdMSlbQ0gyXUMoPU8pW05IXVtDQEhdKFtDQEBIXTIzKVtDQEhdKFtDSDJdW09IXSlbQ0BASF0oW0NIMl0zKVtDSDJdW0NIMl0y

> <s_epik_cmdline>
J2VwaWtfcHl0aG9uJywgJy1waCcsICc3LjAnLCAnLXRuJywgJzgnLCAnLW1hJywgJzIwMCcsICctbWV0YWxfYmluZGluZycsICctaW1hZScsICc8aW5maWxlLm1hZT4nLCAnLW9tYWUnLCAnPG91dGZpbGUubWFlPic=

> <r_lp_tautomer_probability>
0.5

> <r_epik_Ionization_Penalty>
0.00013396

> <r_epik_Ionization_Penalty_Charging>
0

> <r_epik_Ionization_Penalty_Neutral>
0.00013396

> <r_epik_State_Penalty>
0.41068

> <r_epik_Charging_Adjusted_Penalty>
0.41068

> <i_epik_Tot_Q>
0

> <i_epik_Tot_abs_Q>
0

> <r_epik_Metal_State_Penalty>
0.41066

> <b_epik_Metal_Only>
0

> <s_lp_Force_Field>
OPLS_2005

> <r_lp_Energy>
46.8949

> <b_lp_Chiralities_Consistent>
1

> <s_lp_Variant>
AV-unprocessed.smi:2881-14

> <Gold.Version>
5.8.1

> <Gold.Id.Protein>
6NUR|6NUR_protein|mol2

> <Gold.PLP.Fitness>
36.7771

> <Gold.PLP.PLP>
-33.2520

> <Gold.PLP.part.hbond>
-3.5788

> <Gold.PLP.part.metal>
0.0000

> <Gold.PLP.part.buried>
-4.1716

> <Gold.PLP.part.nonpolar>
-24.6242

> <Gold.PLP.part.repulsive>
0.2450

> <Gold.PLP.ligand.clash>
0.0000

> <Gold.PLP.ligand.torsion>
1.0715

> <Gold.PLP.Chemscore.Hbond>
1.8821

> <Gold.PLP.Chemscore.CHOScore>
0.0000

> <Gold.PLP.Chemscore.Metal>
0.0000

> <Gold.Chemscore.Hbonds>
donor molecule, donor type, donor heavy atom, donor atom, acceptor molecule, acceptor atom, score
      L1  H     8    27       P1  8028  0.54
      L1  H    17    40       P1  7957  1.00
      P1  H  7989  7998       L1     7  0.16

> <Gold.PLP.Chemscore.Internal.Correction>
0.0219

> <Gold.Rescore>
     Score         DG    S(hbond)    S(metal)    S(lipo)     H(rot)  DE(clash)    DE(int)     intcor
     14.44     -17.13       2.14        0.00      88.29       2.28       1.51       1.17       ----

> <Gold.Chemscore.Fitness>
14.4365

> <Gold.Chemscore.DG>
-17.1255

> <Gold.Chemscore.ZeroCoef>
-5.4800

> <Gold.Chemscore.Hbond>
2.1379

> <Gold.Chemscore.Metal>
0.0000

> <Gold.Chemscore.Lipo>
88.2909

> <Gold.Chemscore.Internal_Hbond>
0.0000

> <Gold.Chemscore.DEClash>
1.5149

> <Gold.Chemscore.DEInternal>
1.1742

> <Gold.Chemscore.Rot>
2.2755

> <Gold.Chemscore.Internal.Correction>
   9.000000E+99

> <Gold.Chemscore.Hbonds>
donor molecule, donor type, donor heavy atom, donor atom, acceptor molecule, acceptor atom, score
      L1  H     8    27       P1  8028  0.54
      L1  H    17    40       P1  7957  0.95
      P1  H  7989  7998       L1     7  0.15

> <Gold.Chemscore.Hbond.Weighted>
-7.1407

> <Gold.Chemscore.Metal.Weighted>
-0.0000

> <Gold.Chemscore.Lipo.Weighted>
-10.3300

> <Gold.Chemscore.Internal_Hbond.Weighted>
0.0000

> <Gold.Chemscore.DEClash.Weighted>
1.5149

> <Gold.Chemscore.DEInternal.Weighted>
1.1742

> <Gold.Chemscore.Rot.Weighted>
5.8252

> <Gold.Chemscore.Internal.Correction.Weighted>
   9.000000E+99

> <Gold.Protein.RotatedTorsions>
[ 6907 6896 6895 6894 ] final    5.22 input  -60.11 | X-H torsion
[ 7974 7965 7964 7962 ] final  148.86 input  175.53 | X-H torsion
[ 8008 7997 7996 7995 ] final   78.11 input   59.86 | X-H torsion
[ 10167 10162 10161 10158 ] final   -7.44 input  -65.29 | X-H torsion
[ 10718 10713 10712 10709 ] final   65.54 input   66.30 | X-H torsion
[ 10763 10752 10751 10750 ] final   40.24 input  -60.55 | X-H torsion
[ 11005 11000 10999 10996 ] final  -95.82 input  -57.11 | X-H torsion

> <Gold.Protein.ActiveResidues>
 VAL166  LYS551  ARG553  GLY616  TRP617  ASP618  TYR619  PRO620  LYS621  CYS622 
 ASP623  PHE694  ASN695  SER759  ASP760  ASP761  ALA762  ILE779  LEU786  VAL792 
 PHE793  MET794  SER795  GLU796  ALA797  LYS798  CYS799  TRP800  GLU811  SER814 

> <Gold.Protein.RotatedAtoms>
  151.6540  135.0998  160.0166 H   0  0  0  0  0  0  0  0  0  0  0  0  # atno 6907 bound_to 6896
  152.3984  133.6777  159.6304 H   0  0  0  0  0  0  0  0  0  0  0  0  # atno 6908 bound_to 6896
  150.7888  133.8750  159.3310 H   0  0  0  0  0  0  0  0  0  0  0  0  # atno 6909 bound_to 6896
  144.8481  139.6208  143.5986 H   0  0  0  0  0  0  0  0  0  0  0  0  # atno 7974 bound_to 7965
  155.8512  140.3458  155.5694 H   0  0  0  0  0  0  0  0  0  0  0  0  # atno 8008 bound_to 7997
  155.8036  140.0888  157.1963 H   0  0  0  0  0  0  0  0  0  0  0  0  # atno 8009 bound_to 7997
  154.4008  140.1461  156.3291 H   0  0  0  0  0  0  0  0  0  0  0  0  # atno 8010 bound_to 7997
  140.7029  143.6080  150.8732 H   0  0  0  0  0  0  0  0  0  0  0  0  # atno 10167 bound_to 10162
  157.6112  130.9220  149.9990 H   0  0  0  0  0  0  0  0  0  0  0  0  # atno 10718 bound_to 10713
  152.9942  135.6197  154.2594 H   0  0  0  0  0  0  0  0  0  0  0  0  # atno 10763 bound_to 10752
  154.2330  135.2791  155.2884 H   0  0  0  0  0  0  0  0  0  0  0  0  # atno 10764 bound_to 10752
  154.5433  135.5754  153.6916 H   0  0  0  0  0  0  0  0  0  0  0  0  # atno 10765 bound_to 10752
  141.1430  133.8053  157.0487 H   0  0  0  0  0  0  0  0  0  0  0  0  # atno 11005 bound_to 11000
  146.2762  139.6758  142.9261 LP  0  0  0  0  0  0  0  0  0  0  0  0  # atno 17320 bound_to 7965
  145.4555  141.0430  143.2780 LP  0  0  0  0  0  0  0  0  0  0  0  0  # atno 17321 bound_to 7965
  139.9804  143.5958  152.2945 LP  0  0  0  0  0  0  0  0  0  0  0  0  # atno 17342 bound_to 10162
  139.6577  144.7662  151.2024 LP  0  0  0  0  0  0  0  0  0  0  0  0  # atno 17343 bound_to 10162
  156.1216  130.3646  149.9878 LP  0  0  0  0  0  0  0  0  0  0  0  0  # atno 17370 bound_to 10713
  156.7957  130.9272  151.3646 LP  0  0  0  0  0  0  0  0  0  0  0  0  # atno 17371 bound_to 10713
  140.0646  134.9736  157.1363 LP  0  0  0  0  0  0  0  0  0  0  0  0  # atno 17394 bound_to 11000
  140.3799  134.2299  155.7172 LP  0  0  0  0  0  0  0  0  0  0  0  0  # atno 17395 bound_to 11000

$$$$
