AV-unprocessed.smi:618|AV-procd|sdf|3080|dock7
  -GOLD-   22720 0 03D 1   1.00000     0.00000
 Structure written by MMmdl.
 41 43  0  0  0  0  0  0  0  0  2 V2000
  144.6051  136.5417  152.1868 O   0  0  0  0  0  0  0  0  0  0  0  0
  145.7965  136.3696  151.9301 C   0  0  0  0  0  0  0  0  0  0  0  0
  146.7172  137.3386  152.0304 N   0  0  0  0  0  0  0  0  0  0  0  0
  146.4402  138.7090  152.4482 C   0  0  0  0  0  0  0  0  0  0  0  0
  147.1076  139.0439  153.8013 C   0  0  2  0  0  0  0  0  0  0  0  0
  146.0867  139.4248  154.9012 C   0  0  0  0  0  0  0  0  0  0  0  0
  145.5983  140.7946  154.6572 N   0  3  1  0  0  0  0  0  0  0  0  0
  144.6107  141.3567  155.5950 C   0  0  0  0  0  0  0  0  0  0  0  0
  144.7781  142.8848  155.4793 C   0  0  0  0  0  0  0  0  0  0  0  0
  145.9931  143.1031  154.5601 C   0  0  0  0  0  0  0  0  0  0  0  0
  146.7031  141.7538  154.6022 C   0  0  2  0  0  0  0  0  0  0  0  0
  147.6257  141.3879  153.4342 C   0  0  0  0  0  0  0  0  0  0  0  0
  148.1119  140.0612  153.6572 O   0  0  0  0  0  0  0  0  0  0  0  0
  146.3494  135.2076  151.5429 N   0  0  0  0  0  0  0  0  0  0  0  0
  145.7075  133.9613  151.3097 C   0  0  0  0  0  0  0  0  0  0  0  0
  144.3110  133.7529  151.4187 C   0  0  0  0  0  0  0  0  0  0  0  0
  143.7910  132.4737  151.1429 C   0  0  0  0  0  0  0  0  0  0  0  0
  144.6831  131.4527  150.7619 C   0  0  0  0  0  0  0  0  0  0  0  0
  146.0142  131.6406  150.6402 N   0  0  0  0  0  0  0  0  0  0  0  0
  146.5053  132.8699  150.9049 C   0  0  0  0  0  0  0  0  0  0  0  0
  147.6750  137.1124  151.8045 H   0  0  0  0  0  0  0  0  0  0  0  0
  146.7814  139.3827  151.6630 H   0  0  0  0  0  0  0  0  0  0  0  0
  145.3609  138.8555  152.5172 H   0  0  0  0  0  0  0  0  0  0  0  0
  147.6257  138.1476  154.1436 H   0  0  0  0  0  0  0  0  0  0  0  0
  145.2506  138.7247  154.9173 H   0  0  0  0  0  0  0  0  0  0  0  0
  146.5615  139.3793  155.8826 H   0  0  0  0  0  0  0  0  0  0  0  0
  143.6027  141.0256  155.3443 H   0  0  0  0  0  0  0  0  0  0  0  0
  144.8328  141.0312  156.6126 H   0  0  0  0  0  0  0  0  0  0  0  0
  143.8867  143.3598  155.0682 H   0  0  0  0  0  0  0  0  0  0  0  0
  144.9561  143.3174  156.4645 H   0  0  0  0  0  0  0  0  0  0  0  0
  145.6554  143.3203  153.5455 H   0  0  0  0  0  0  0  0  0  0  0  0
  146.6301  143.9256  154.8870 H   0  0  0  0  0  0  0  0  0  0  0  0
  147.2675  141.6913  155.5356 H   0  0  0  0  0  0  0  0  0  0  0  0
  147.1085  141.4590  152.4770 H   0  0  0  0  0  0  0  0  0  0  0  0
  148.4726  142.0727  153.3896 H   0  0  0  0  0  0  0  0  0  0  0  0
  147.3552  135.1986  151.4566 H   0  0  0  0  0  0  0  0  0  0  0  0
  143.6315  134.5451  151.6923 H   0  0  0  0  0  0  0  0  0  0  0  0
  142.7312  132.2809  151.2177 H   0  0  0  0  0  0  0  0  0  0  0  0
  144.3168  130.4608  150.5429 H   0  0  0  0  0  0  0  0  0  0  0  0
  147.5740  132.9837  150.7944 H   0  0  0  0  0  0  0  0  0  0  0  0
  145.1646  140.8047  153.7449 H   0  0  0  0  0  0  0  0  0  0  0  0
  1  2  2  0  0  0  0
  2  3  1  0  0  0  0
  2 14  1  0  0  0  0
  3  4  1  0  0  0  0
  3 21  1  0  0  0  0
  4  5  1  0  0  0  0
  4 22  1  0  0  0  0
  4 23  1  0  0  0  0
  5 13  1  0  0  0  0
  5  6  1  0  0  0  0
  5 24  1  0  0  0  0
  6  7  1  0  0  0  0
  6 25  1  0  0  0  0
  6 26  1  0  0  0  0
  7 11  1  0  0  0  0
  7  8  1  0  0  0  0
  7 41  1  0  0  0  0
  8  9  1  0  0  0  0
  8 27  1  0  0  0  0
  8 28  1  0  0  0  0
  9 10  1  0  0  0  0
  9 29  1  0  0  0  0
  9 30  1  0  0  0  0
 10 11  1  0  0  0  0
 10 31  1  0  0  0  0
 10 32  1  0  0  0  0
 11 12  1  0  0  0  0
 11 33  1  0  0  0  0
 12 13  1  0  0  0  0
 12 34  1  0  0  0  0
 12 35  1  0  0  0  0
 14 15  1  0  0  0  0
 14 36  1  0  0  0  0
 15 20  1  0  0  0  0
 15 16  2  0  0  0  0
 16 17  1  0  0  0  0
 16 37  1  0  0  0  0
 17 18  2  0  0  0  0
 17 38  1  0  0  0  0
 18 19  1  0  0  0  0
 18 39  1  0  0  0  0
 19 20  2  0  0  0  0
 20 40  1  0  0  0  0
M  CHG  1   7   1
M  END
> <s_m_source_file>
AV-unprocessed.smi

> <i_m_source_file_index>
618

> <i_lp_mmshare_version>
43012

> <i_f3d_flags>
0

> <s_epik_input>
W2NIXTFuW2NIXVtjSF1bY0hdYzFbTkhdQyg9TylbTkhdW0NIMl1bQ0BIXShbQ0gyXTIpT1tDSDJdW0NAQEhdKE4yMylbQ0gyXVtDSDJdW0NIMl0z

> <s_epik_cmdline>
J2VwaWtfcHl0aG9uJywgJy1waCcsICc3LjAnLCAnLXRuJywgJzgnLCAnLW1hJywgJzIwMCcsICctbWV0YWxfYmluZGluZycsICctaW1hZScsICc8aW5maWxlLm1hZT4nLCAnLW9tYWUnLCAnPG91dGZpbGUubWFlPic=

> <r_epik_Ionization_Penalty>
0.111044

> <r_epik_Ionization_Penalty_Charging>
0.10673

> <r_epik_Ionization_Penalty_Neutral>
0.00431361

> <r_epik_State_Penalty>
0.0978747

> <r_epik_Charging_Adjusted_Penalty>
0.204605

> <i_epik_Tot_Q>
1

> <i_epik_Tot_abs_Q>
1

> <r_epik_Metal_State_Penalty>
0.0947591

> <b_epik_Metal_Only>
0

> <s_lp_Force_Field>
OPLS_2005

> <r_lp_Energy>
41.554

> <b_lp_Chiralities_Consistent>
1

> <s_lp_Variant>
AV-unprocessed.smi:618-7

> <Gold.Version>
5.8.1

> <Gold.Id.Protein>
6NUR|6NUR_protein|mol2

> <Gold.PLP.Fitness>
45.5394

> <Gold.PLP.PLP>
-33.5171

> <Gold.PLP.part.hbond>
-2.8945

> <Gold.PLP.part.metal>
0.0000

> <Gold.PLP.part.buried>
-7.4492

> <Gold.PLP.part.nonpolar>
-25.8372

> <Gold.PLP.part.repulsive>
1.4710

> <Gold.PLP.ligand.clash>
0.0000

> <Gold.PLP.ligand.torsion>
0.7636

> <Gold.PLP.Chemscore.Hbond>
3.8873

> <Gold.PLP.Chemscore.CHOScore>
0.6259

> <Gold.PLP.Chemscore.Metal>
0.0000

> <Gold.Chemscore.Hbonds>
donor molecule, donor type, donor heavy atom, donor atom, acceptor molecule, acceptor atom, score
      L1  H     3    21       P1  7948  0.99
      L1  H     7    41       P1 10175  2.00
      L1  H    14    36       P1  7948  0.88
      L1  C    20    40       P1 10747  0.66

> <Gold.PLP.Chemscore.Internal.Correction>
0.0101

> <Gold.Rescore>
     Score         DG    S(hbond)    S(metal)    S(lipo)     H(rot)  DE(clash)    DE(int)     intcor
     17.61     -19.89       2.71        0.00      73.57       1.27       0.25       2.02       ----

> <Gold.Chemscore.Fitness>
17.6118

> <Gold.Chemscore.DG>
-19.8864

> <Gold.Chemscore.ZeroCoef>
-5.4800

> <Gold.Chemscore.Hbond>
2.7061

> <Gold.Chemscore.Metal>
0.0000

> <Gold.Chemscore.Lipo>
73.5715

> <Gold.Chemscore.Internal_Hbond>
0.0000

> <Gold.Chemscore.DEClash>
0.2547

> <Gold.Chemscore.DEInternal>
2.0199

> <Gold.Chemscore.Rot>
1.2656

> <Gold.Chemscore.Internal.Correction>
   9.000000E+99

> <Gold.Chemscore.Hbonds>
donor molecule, donor type, donor heavy atom, donor atom, acceptor molecule, acceptor atom, score
      L1  H     3    21       P1  7948  0.91
      L1  H     7    41       P1 10175  0.89
      L1  H    14    36       P1  7948  0.68

> <Gold.Chemscore.Hbond.Weighted>
-9.0384

> <Gold.Chemscore.Metal.Weighted>
-0.0000

> <Gold.Chemscore.Lipo.Weighted>
-8.6079

> <Gold.Chemscore.Internal_Hbond.Weighted>
0.0000

> <Gold.Chemscore.DEClash.Weighted>
0.2547

> <Gold.Chemscore.DEInternal.Weighted>
2.0199

> <Gold.Chemscore.Rot.Weighted>
3.2399

> <Gold.Chemscore.Internal.Correction.Weighted>
   9.000000E+99

> <Gold.Protein.RotatedTorsions>
[ 6907 6896 6895 6894 ] final  -15.62 input  -60.11 | X-H torsion
[ 7974 7965 7964 7962 ] final    1.35 input  175.53 | X-H torsion
[ 8008 7997 7996 7995 ] final   41.35 input   59.86 | X-H torsion
[ 10167 10162 10161 10158 ] final   31.09 input  -65.29 | X-H torsion
[ 10718 10713 10712 10709 ] final  -47.30 input   66.30 | X-H torsion
[ 10763 10752 10751 10750 ] final  148.30 input  -60.55 | X-H torsion
[ 11005 11000 10999 10996 ] final   12.51 input  -57.11 | X-H torsion

> <Gold.Protein.ActiveResidues>
 VAL166  LYS551  ARG553  GLY616  TRP617  ASP618  TYR619  PRO620  LYS621  CYS622 
 ASP623  PHE694  ASN695  SER759  ASP760  ASP761  ALA762  ILE779  LEU786  VAL792 
 PHE793  MET794  SER795  GLU796  ALA797  LYS798  CYS799  TRP800  GLU811  SER814 

> <Gold.Protein.RotatedAtoms>
  151.3212  135.0819  159.9305 H   0  0  0  0  0  0  0  0  0  0  0  0  # atno 6907 bound_to 6896
  152.5256  133.9637  159.7739 H   0  0  0  0  0  0  0  0  0  0  0  0  # atno 6908 bound_to 6896
  150.9958  133.6052  159.2732 H   0  0  0  0  0  0  0  0  0  0  0  0  # atno 6909 bound_to 6896
  146.2440  140.1000  142.8348 H   0  0  0  0  0  0  0  0  0  0  0  0  # atno 7974 bound_to 7965
  155.2683  140.3364  155.4267 H   0  0  0  0  0  0  0  0  0  0  0  0  # atno 8008 bound_to 7997
  156.2144  140.1783  156.7664 H   0  0  0  0  0  0  0  0  0  0  0  0  # atno 8009 bound_to 7997
  154.5732  140.0666  156.8980 H   0  0  0  0  0  0  0  0  0  0  0  0  # atno 8010 bound_to 7997
  140.4620  144.0893  150.6215 H   0  0  0  0  0  0  0  0  0  0  0  0  # atno 10167 bound_to 10162
  156.2098  130.4160  149.9130 H   0  0  0  0  0  0  0  0  0  0  0  0  # atno 10718 bound_to 10713
  154.0525  135.2880  155.3338 H   0  0  0  0  0  0  0  0  0  0  0  0  # atno 10763 bound_to 10752
  154.6860  135.5245  153.8330 H   0  0  0  0  0  0  0  0  0  0  0  0  # atno 10764 bound_to 10752
  153.0555  135.6593  154.0720 H   0  0  0  0  0  0  0  0  0  0  0  0  # atno 10765 bound_to 10752
  140.4911  134.0839  155.7771 H   0  0  0  0  0  0  0  0  0  0  0  0  # atno 11005 bound_to 11000
  145.0576  140.9064  143.4958 LP  0  0  0  0  0  0  0  0  0  0  0  0  # atno 17320 bound_to 7965
  145.1110  139.2757  143.5637 LP  0  0  0  0  0  0  0  0  0  0  0  0  # atno 17321 bound_to 7965
  140.4082  143.2670  151.9865 LP  0  0  0  0  0  0  0  0  0  0  0  0  # atno 17342 bound_to 10162
  139.4807  144.5938  151.7725 LP  0  0  0  0  0  0  0  0  0  0  0  0  # atno 17343 bound_to 10162
  156.6811  130.8858  151.3576 LP  0  0  0  0  0  0  0  0  0  0  0  0  # atno 17370 bound_to 10713
  157.7032  130.9356  150.0850 LP  0  0  0  0  0  0  0  0  0  0  0  0  # atno 17371 bound_to 10713
  141.1483  133.9015  157.2160 LP  0  0  0  0  0  0  0  0  0  0  0  0  # atno 17394 bound_to 11000
  139.9768  135.0111  156.9652 LP  0  0  0  0  0  0  0  0  0  0  0  0  # atno 17395 bound_to 11000

$$$$
