AV-unprocessed.smi:1879|AV-procd|sdf|7631|dock3
  -GOLD-   22720 9353D 1   1.00000     0.00000
 Structure written by MMmdl.
 46 48  0  0  0  0  0  0  0  0  1 V2000
  145.1447  137.2185  153.4721 O   0  0  0  0  0  0  0  0  0  0  0  0
  146.2721  136.9216  153.0771 C   0  0  0  0  0  0  0  0  0  0  0  0
  147.3564  137.7102  153.1633 N   0  0  0  0  0  0  0  0  0  0  0  0
  147.4716  139.0019  153.7518 C   0  0  0  0  0  0  0  0  0  0  0  0
  146.3819  139.9009  153.8545 C   0  0  0  0  0  0  0  0  0  0  0  0
  146.5776  141.1472  154.4772 C   0  0  0  0  0  0  0  0  0  0  0  0
  147.8547  141.4494  154.9824 C   0  0  0  0  0  0  0  0  0  0  0  0
  148.8988  140.5996  154.9053 N   0  0  0  0  0  0  0  0  0  0  0  0
  148.7159  139.3969  154.3069 C   0  0  0  0  0  0  0  0  0  0  0  0
  149.8184  138.5258  154.2434 N   0  0  0  0  0  0  0  0  0  0  0  0
  151.0969  139.1033  154.6240 C   0  0  0  0  0  0  0  0  0  0  0  0
  152.0329  137.9116  154.8381 C   0  0  0  0  0  0  0  0  0  0  0  0
  151.1024  136.7240  155.1133 C   0  0  0  0  0  0  0  0  0  0  0  0
  149.6864  137.2979  155.0098 C   0  0  0  0  0  0  0  0  0  0  0  0
  146.5712  135.7596  152.4790 N   0  0  0  0  0  0  0  0  0  0  0  0
  145.6403  134.6657  152.2150 C   0  0  2  0  0  0  0  0  0  0  0  0
  146.3864  133.5142  151.5135 C   0  0  0  0  0  0  0  0  0  0  0  0
  145.4301  132.3754  151.1248 C   0  0  0  0  0  0  0  0  0  0  0  0
  144.2771  132.8976  150.2510 C   0  0  1  0  0  0  0  0  0  0  0  0
  143.3879  131.8403  149.9600 O   0  0  0  0  0  0  0  0  0  0  0  0
  143.5169  134.0310  150.9608 C   0  0  0  0  0  0  0  0  0  0  0  0
  144.4675  135.1739  151.3531 C   0  0  0  0  0  0  0  0  0  0  0  0
  148.1886  137.3749  152.7001 H   0  0  0  0  0  0  0  0  0  0  0  0
  145.3992  139.6527  153.4842 H   0  0  0  0  0  0  0  0  0  0  0  0
  145.7655  141.8528  154.5703 H   0  0  0  0  0  0  0  0  0  0  0  0
  148.0416  142.3959  155.4674 H   0  0  0  0  0  0  0  0  0  0  0  0
  151.4710  139.7743  153.8503 H   0  0  0  0  0  0  0  0  0  0  0  0
  151.0020  139.6745  155.5485 H   0  0  0  0  0  0  0  0  0  0  0  0
  152.6175  137.7229  153.9367 H   0  0  0  0  0  0  0  0  0  0  0  0
  152.7321  138.0910  155.6554 H   0  0  0  0  0  0  0  0  0  0  0  0
  151.2561  135.9499  154.3606 H   0  0  0  0  0  0  0  0  0  0  0  0
  151.2806  136.2765  156.0914 H   0  0  0  0  0  0  0  0  0  0  0  0
  149.2930  137.5071  156.0056 H   0  0  0  0  0  0  0  0  0  0  0  0
  149.0065  136.6013  154.5184 H   0  0  0  0  0  0  0  0  0  0  0  0
  147.5259  135.6169  152.1834 H   0  0  0  0  0  0  0  0  0  0  0  0
  145.2339  134.2797  153.1518 H   0  0  0  0  0  0  0  0  0  0  0  0
  146.8845  133.8868  150.6171 H   0  0  0  0  0  0  0  0  0  0  0  0
  147.1715  133.1274  152.1645 H   0  0  0  0  0  0  0  0  0  0  0  0
  145.9806  131.5966  150.5956 H   0  0  0  0  0  0  0  0  0  0  0  0
  145.0320  131.9135  152.0295 H   0  0  0  0  0  0  0  0  0  0  0  0
  144.6783  133.2672  149.3062 H   0  0  0  0  0  0  0  0  0  0  0  0
  142.5167  132.1011  150.2170 H   0  0  0  0  0  0  0  0  0  0  0  0
  142.7259  134.4144  150.3151 H   0  0  0  0  0  0  0  0  0  0  0  0
  143.0266  133.6458  151.8563 H   0  0  0  0  0  0  0  0  0  0  0  0
  143.9130  135.9428  151.8928 H   0  0  0  0  0  0  0  0  0  0  0  0
  144.8511  135.6479  150.4483 H   0  0  0  0  0  0  0  0  0  0  0  0
  1  2  2  0  0  0  0
  2  3  1  0  0  0  0
  2 15  1  0  0  0  0
  3  4  1  0  0  0  0
  3 23  1  0  0  0  0
  4  9  1  0  0  0  0
  4  5  2  0  0  0  0
  5  6  1  0  0  0  0
  5 24  1  0  0  0  0
  6  7  2  0  0  0  0
  6 25  1  0  0  0  0
  7  8  1  0  0  0  0
  7 26  1  0  0  0  0
  8  9  2  0  0  0  0
  9 10  1  0  0  0  0
 10 14  1  0  0  0  0
 10 11  1  0  0  0  0
 11 12  1  0  0  0  0
 11 27  1  0  0  0  0
 11 28  1  0  0  0  0
 12 13  1  0  0  0  0
 12 29  1  0  0  0  0
 12 30  1  0  0  0  0
 13 14  1  0  0  0  0
 13 31  1  0  0  0  0
 13 32  1  0  0  0  0
 14 33  1  0  0  0  0
 14 34  1  0  0  0  0
 15 16  1  0  0  0  0
 15 35  1  0  0  0  0
 16 22  1  0  0  0  0
 16 17  1  0  0  0  0
 16 36  1  0  0  0  0
 17 18  1  0  0  0  0
 17 37  1  0  0  0  0
 17 38  1  0  0  0  0
 18 19  1  0  0  0  0
 18 39  1  0  0  0  0
 18 40  1  0  0  0  0
 19 20  1  0  0  0  0
 19 21  1  0  0  0  0
 19 41  1  0  0  0  0
 20 42  1  0  0  0  0
 21 22  1  0  0  0  0
 21 43  1  0  0  0  0
 21 44  1  0  0  0  0
 22 45  1  0  0  0  0
 22 46  1  0  0  0  0
M  END
> <s_m_source_file>
AV-unprocessed.smi

> <i_m_source_file_index>
1879

> <i_lp_mmshare_version>
43012

> <i_f3d_flags>
0

> <s_epik_input>
W0NIMl0xW0NIMl1bQ0BIXShbT0hdKVtDSDJdW0NIMl1bQ0BIXTFbTkhdQyg9TylbTkhdYzJbY0hdW2NIXVtjSF1uYzJOM1tDSDJdW0NIMl1bQ0gyXVtDSDJdMw==

> <s_epik_cmdline>
J2VwaWtfcHl0aG9uJywgJy1waCcsICc3LjAnLCAnLXRuJywgJzgnLCAnLW1hJywgJzIwMCcsICctbWV0YWxfYmluZGluZycsICctaW1hZScsICc8aW5maWxlLm1hZT4nLCAnLW9tYWUnLCAnPG91dGZpbGUubWFlPic=

> <r_lp_tautomer_probability>
1

> <r_epik_Ionization_Penalty>
0.104121

> <r_epik_Ionization_Penalty_Charging>
0

> <r_epik_Ionization_Penalty_Neutral>
0.104121

> <r_epik_State_Penalty>
0.0934704

> <r_epik_Charging_Adjusted_Penalty>
0.0934704

> <i_epik_Tot_Q>
0

> <i_epik_Tot_abs_Q>
0

> <r_epik_Metal_State_Penalty>
0.0794466

> <b_epik_Metal_Only>
0

> <s_lp_Force_Field>
OPLS_2005

> <r_lp_Energy>
38.1849

> <b_lp_Chiralities_Consistent>
1

> <s_lp_Variant>
AV-unprocessed.smi:1879-1

> <Gold.Version>
5.8.1

> <Gold.Id.Protein>
6NUR|6NUR_protein|mol2

> <Gold.PLP.Fitness>
43.2504

> <Gold.PLP.PLP>
-31.8591

> <Gold.PLP.part.hbond>
-3.6731

> <Gold.PLP.part.metal>
0.0000

> <Gold.PLP.part.buried>
-0.0382

> <Gold.PLP.part.nonpolar>
-30.1528

> <Gold.PLP.part.repulsive>
0.5886

> <Gold.PLP.ligand.clash>
0.0000

> <Gold.PLP.ligand.torsion>
0.3064

> <Gold.PLP.Chemscore.Hbond>
2.9913

> <Gold.PLP.Chemscore.CHOScore>
1.0000

> <Gold.PLP.Chemscore.Metal>
0.0000

> <Gold.Chemscore.Hbonds>
donor molecule, donor type, donor heavy atom, donor atom, acceptor molecule, acceptor atom, score
      L1  H     3    23       P1  7948  1.00
      L1  H    15    35       P1  7948  1.00
      P1  H 10785 10796       L1    20  0.83
      L1  C     7    26       P1  8028  1.00

> <Gold.PLP.Chemscore.Internal.Correction>
0.0304

> <Gold.Rescore>
     Score         DG    S(hbond)    S(metal)    S(lipo)     H(rot)  DE(clash)    DE(int)     intcor
     17.04     -21.77       2.99        0.00      90.29       1.67       2.19       2.53       ----

> <Gold.Chemscore.Fitness>
17.0408

> <Gold.Chemscore.DG>
-21.7653

> <Gold.Chemscore.ZeroCoef>
-5.4800

> <Gold.Chemscore.Hbond>
2.9949

> <Gold.Chemscore.Metal>
0.0000

> <Gold.Chemscore.Lipo>
90.2855

> <Gold.Chemscore.Internal_Hbond>
0.0000

> <Gold.Chemscore.DEClash>
2.1908

> <Gold.Chemscore.DEInternal>
2.5337

> <Gold.Chemscore.Rot>
1.6723

> <Gold.Chemscore.Internal.Correction>
   9.000000E+99

> <Gold.Chemscore.Hbonds>
donor molecule, donor type, donor heavy atom, donor atom, acceptor molecule, acceptor atom, score
      L1  H     3    23       P1  7948  0.94
      L1  H    15    35       P1  7948  0.91
      P1  H 10785 10796       L1    20  0.48

> <Gold.Chemscore.Hbond.Weighted>
-10.0031

> <Gold.Chemscore.Metal.Weighted>
-0.0000

> <Gold.Chemscore.Lipo.Weighted>
-10.5634

> <Gold.Chemscore.Internal_Hbond.Weighted>
0.0000

> <Gold.Chemscore.DEClash.Weighted>
2.1908

> <Gold.Chemscore.DEInternal.Weighted>
2.5337

> <Gold.Chemscore.Rot.Weighted>
4.2812

> <Gold.Chemscore.Internal.Correction.Weighted>
   9.000000E+99

> <Gold.Protein.RotatedTorsions>
[ 6907 6896 6895 6894 ] final  -41.55 input  -60.11 | X-H torsion
[ 7974 7965 7964 7962 ] final -162.88 input  175.53 | X-H torsion
[ 8008 7997 7996 7995 ] final  -53.17 input   59.86 | X-H torsion
[ 10167 10162 10161 10158 ] final  -67.12 input  -65.29 | X-H torsion
[ 10718 10713 10712 10709 ] final  -76.66 input   66.30 | X-H torsion
[ 10763 10752 10751 10750 ] final   54.99 input  -60.55 | X-H torsion
[ 11005 11000 10999 10996 ] final -131.16 input  -57.11 | X-H torsion

> <Gold.Protein.ActiveResidues>
 VAL166  LYS551  ARG553  GLY616  TRP617  ASP618  TYR619  PRO620  LYS621  CYS622 
 ASP623  PHE694  ASN695  SER759  ASP760  ASP761  ALA762  ILE779  LEU786  VAL792 
 PHE793  MET794  SER795  GLU796  ALA797  LYS798  CYS799  TRP800  GLU811  SER814 

> <Gold.Protein.RotatedAtoms>
  150.9654  134.9035  159.7755 H   0  0  0  0  0  0  0  0  0  0  0  0  # atno 6907 bound_to 6896
  152.5171  134.3615  159.9296 H   0  0  0  0  0  0  0  0  0  0  0  0  # atno 6908 bound_to 6896
  151.3625  133.3843  159.2726 H   0  0  0  0  0  0  0  0  0  0  0  0  # atno 6909 bound_to 6896
  144.7343  140.3188  143.6174 H   0  0  0  0  0  0  0  0  0  0  0  0  # atno 7974 bound_to 7965
  154.4126  140.1206  156.5110 H   0  0  0  0  0  0  0  0  0  0  0  0  # atno 8008 bound_to 7997
  155.6798  140.3496  155.4831 H   0  0  0  0  0  0  0  0  0  0  0  0  # atno 8009 bound_to 7997
  155.9561  140.1114  157.0926 H   0  0  0  0  0  0  0  0  0  0  0  0  # atno 8010 bound_to 7997
  140.5606  143.2313  151.6735 H   0  0  0  0  0  0  0  0  0  0  0  0  # atno 10167 bound_to 10162
  156.0168  130.4471  150.3227 H   0  0  0  0  0  0  0  0  0  0  0  0  # atno 10718 bound_to 10713
  152.9811  135.5726  154.4994 H   0  0  0  0  0  0  0  0  0  0  0  0  # atno 10763 bound_to 10752
  154.4516  135.2778  155.1779 H   0  0  0  0  0  0  0  0  0  0  0  0  # atno 10764 bound_to 10752
  154.3404  135.6230  153.5647 H   0  0  0  0  0  0  0  0  0  0  0  0  # atno 10765 bound_to 10752
  140.9283  134.1353  157.4256 H   0  0  0  0  0  0  0  0  0  0  0  0  # atno 11005 bound_to 11000
  145.7589  139.1818  143.2278 LP  0  0  0  0  0  0  0  0  0  0  0  0  # atno 17320 bound_to 7965
  146.1002  140.7553  142.9553 LP  0  0  0  0  0  0  0  0  0  0  0  0  # atno 17321 bound_to 7965
  139.5068  144.3668  152.0509 LP  0  0  0  0  0  0  0  0  0  0  0  0  # atno 17342 bound_to 10162
  140.2794  144.3877  150.6124 LP  0  0  0  0  0  0  0  0  0  0  0  0  # atno 17343 bound_to 10162
  157.1326  131.0276  151.2962 LP  0  0  0  0  0  0  0  0  0  0  0  0  # atno 17370 bound_to 10713
  157.4538  130.7613  149.7174 LP  0  0  0  0  0  0  0  0  0  0  0  0  # atno 17371 bound_to 10713
  139.8790  134.9996  156.5964 LP  0  0  0  0  0  0  0  0  0  0  0  0  # atno 17394 bound_to 11000
  140.7896  133.8593  155.8635 LP  0  0  0  0  0  0  0  0  0  0  0  0  # atno 17395 bound_to 11000

$$$$
