AV-unprocessed.smi:34|AV-procd|sdf|240|dock3
  -GOLD-   2262015583D 1   1.00000     0.00000
 Structure written by MMmdl.
 54 58  0  0  0  0  0  0  0  0  2 V2000
  145.6585  137.9225  160.8380 O   0  0  0  0  0  0  0  0  0  0  0  0
  145.6344  136.6904  160.8004 C   0  0  0  0  0  0  0  0  0  0  0  0
  146.3682  135.8652  160.0117 N   0  5  0  0  0  0  0  0  0  0  0  0
  147.3366  136.3715  159.2333 C   0  0  0  0  0  0  0  0  0  0  0  0
  148.6302  136.0041  159.4200 N   0  0  0  0  0  0  0  0  0  0  0  0
  149.5958  136.5122  158.6456 C   0  0  0  0  0  0  0  0  0  0  0  0
  149.4942  137.3925  157.6451 N   0  0  0  0  0  0  0  0  0  0  0  0
  148.1992  137.7786  157.4542 C   0  0  0  0  0  0  0  0  0  0  0  0
  147.0780  137.3185  158.2047 C   0  0  0  0  0  0  0  0  0  0  0  0
  145.9082  137.9150  157.7573 N   0  0  0  0  0  0  0  0  0  0  0  0
  146.3611  138.6921  156.7760 C   0  0  0  0  0  0  0  0  0  0  0  0
  147.6853  138.6702  156.5265 N   0  0  0  0  0  0  0  0  0  0  0  0
  148.4259  139.4435  155.4861 C   0  0  1  0  0  0  0  0  0  0  0  0
  149.5009  140.0762  156.1056 O   0  0  0  0  0  0  0  0  0  0  0  0
  150.5753  140.1367  155.1810 C   0  0  1  0  0  0  0  0  0  0  0  0
  151.9058  140.3911  155.8998 C   0  0  0  0  0  0  0  0  0  0  0  0
  151.7566  141.4882  156.7863 O   0  0  0  0  0  0  0  0  0  0  0  0
  152.1048  141.3598  158.0816 C   0  0  0  0  0  0  0  0  0  0  0  0
  152.4569  140.2938  158.5911 O   0  0  0  0  0  0  0  0  0  0  0  0
  152.0202  142.6439  158.8359 C   0  0  0  0  0  0  0  0  0  0  0  0
  151.7436  143.8416  158.1357 C   0  0  0  0  0  0  0  0  0  0  0  0
  151.6573  145.0695  158.8204 C   0  0  0  0  0  0  0  0  0  0  0  0
  151.8465  145.1150  160.2138 C   0  0  0  0  0  0  0  0  0  0  0  0
  152.1224  143.9307  160.9220 C   0  0  0  0  0  0  0  0  0  0  0  0
  152.2092  142.7016  160.2389 C   0  0  0  0  0  0  0  0  0  0  0  0
  150.4919  138.7871  154.4654 C   0  0  1  0  0  0  0  0  0  0  0  0
  151.0904  137.8316  155.1787 F   0  0  0  0  0  0  0  0  0  0  0  0
  148.9943  138.5109  154.4008 C   0  0  2  0  0  0  0  0  0  0  0  0
  148.5037  138.8377  153.1164 O   0  0  0  0  0  0  0  0  0  0  0  0
  144.6450  135.9580  161.6662 C   0  0  0  0  0  0  0  0  0  0  0  0
  143.3844  136.5389  161.9344 C   0  0  0  0  0  0  0  0  0  0  0  0
  142.4539  135.8802  162.7614 C   0  0  0  0  0  0  0  0  0  0  0  0
  142.7784  134.6381  163.3383 C   0  0  0  0  0  0  0  0  0  0  0  0
  144.0360  134.0568  163.0905 C   0  0  0  0  0  0  0  0  0  0  0  0
  144.9666  134.7141  162.2623 C   0  0  0  0  0  0  0  0  0  0  0  0
  150.5953  136.1638  158.8598 H   0  0  0  0  0  0  0  0  0  0  0  0
  145.6884  139.3122  156.2019 H   0  0  0  0  0  0  0  0  0  0  0  0
  147.7121  140.1775  155.1080 H   0  0  0  0  0  0  0  0  0  0  0  0
  150.3755  140.9327  154.4609 H   0  0  0  0  0  0  0  0  0  0  0  0
  152.2253  139.4984  156.4399 H   0  0  0  0  0  0  0  0  0  0  0  0
  152.6807  140.6318  155.1706 H   0  0  0  0  0  0  0  0  0  0  0  0
  151.5947  143.8319  157.0656 H   0  0  0  0  0  0  0  0  0  0  0  0
  151.4456  145.9774  158.2750 H   0  0  0  0  0  0  0  0  0  0  0  0
  151.7802  146.0566  160.7385 H   0  0  0  0  0  0  0  0  0  0  0  0
  152.2679  143.9643  161.9917 H   0  0  0  0  0  0  0  0  0  0  0  0
  152.4223  141.8116  160.8128 H   0  0  0  0  0  0  0  0  0  0  0  0
  150.9793  138.7965  153.4897 H   0  0  0  0  0  0  0  0  0  0  0  0
  148.7670  137.4651  154.6145 H   0  0  0  0  0  0  0  0  0  0  0  0
  148.7583  138.1534  152.5162 H   0  0  0  0  0  0  0  0  0  0  0  0
  143.1210  137.4926  161.5004 H   0  0  0  0  0  0  0  0  0  0  0  0
  141.4909  136.3297  162.9534 H   0  0  0  0  0  0  0  0  0  0  0  0
  142.0652  134.1337  163.9732 H   0  0  0  0  0  0  0  0  0  0  0  0
  144.2892  133.1068  163.5372 H   0  0  0  0  0  0  0  0  0  0  0  0
  145.9301  134.2557  162.0922 H   0  0  0  0  0  0  0  0  0  0  0  0
  1  2  2  0  0  0  0
  2  3  1  0  0  0  0
  2 30  1  0  0  0  0
  3  4  1  0  0  0  0
  4  9  1  0  0  0  0
  4  5  2  0  0  0  0
  5  6  1  0  0  0  0
  6  7  2  0  0  0  0
  6 36  1  0  0  0  0
  7  8  1  0  0  0  0
  8 12  1  0  0  0  0
  8  9  2  0  0  0  0
  9 10  1  0  0  0  0
 10 11  2  0  0  0  0
 11 12  1  0  0  0  0
 11 37  1  0  0  0  0
 12 13  1  0  0  0  0
 13 28  1  0  0  0  0
 13 14  1  0  0  0  0
 13 38  1  0  0  0  0
 14 15  1  0  0  0  0
 15 16  1  0  0  0  0
 15 26  1  0  0  0  0
 15 39  1  0  0  0  0
 16 17  1  0  0  0  0
 16 40  1  0  0  0  0
 16 41  1  0  0  0  0
 17 18  1  0  0  0  0
 18 19  2  0  0  0  0
 18 20  1  0  0  0  0
 20 25  1  0  0  0  0
 20 21  2  0  0  0  0
 21 22  1  0  0  0  0
 21 42  1  0  0  0  0
 22 23  2  0  0  0  0
 22 43  1  0  0  0  0
 23 24  1  0  0  0  0
 23 44  1  0  0  0  0
 24 25  2  0  0  0  0
 24 45  1  0  0  0  0
 25 46  1  0  0  0  0
 26 27  1  0  0  0  0
 26 28  1  0  0  0  0
 26 47  1  0  0  0  0
 28 29  1  0  0  0  0
 28 48  1  0  0  0  0
 29 49  1  0  0  0  0
 30 35  1  0  0  0  0
 30 31  2  0  0  0  0
 31 32  1  0  0  0  0
 31 50  1  0  0  0  0
 32 33  2  0  0  0  0
 32 51  1  0  0  0  0
 33 34  1  0  0  0  0
 33 52  1  0  0  0  0
 34 35  2  0  0  0  0
 34 53  1  0  0  0  0
 35 54  1  0  0  0  0
M  CHG  1   3  -1
M  END
> <s_m_source_file>
AV-unprocessed.smi

> <i_m_source_file_index>
34

> <i_lp_mmshare_version>
43012

> <i_f3d_flags>
0

> <s_epik_input>
W2NIXTFbY0hdW2NIXVtjSF1bY0hdYzFDKD1PKVtOSF1jKG5bY0hdbjIpYyhjMjMpbltjSF1uM1tDQEBIXTRPW0NASF0oW0NAQEhdKEYpW0NASF00W09IXSlbQ0gyXU9DKD1PKWM1W2NIXVtjSF1bY0hdW2NIXVtjSF01

> <s_epik_cmdline>
J2VwaWtfcHl0aG9uJywgJy1waCcsICc3LjAnLCAnLXRuJywgJzgnLCAnLW1hJywgJzIwMCcsICctbWV0YWxfYmluZGluZycsICctaW1hZScsICc8aW5maWxlLm1hZT4nLCAnLW9tYWUnLCAnPG91dGZpbGUubWFlPic=

> <r_lp_tautomer_probability>
1

> <r_epik_Ionization_Penalty>
4.33227

> <r_epik_Ionization_Penalty_Charging>
3.41027

> <r_epik_Ionization_Penalty_Neutral>
0.922001

> <r_epik_State_Penalty>
3.41358

> <r_epik_Charging_Adjusted_Penalty>
6.82385

> <i_epik_Tot_Q>
-1

> <i_epik_Tot_abs_Q>
1

> <r_epik_Metal_State_Penalty>
0.496292

> <b_epik_Metal_Only>
1

> <s_epik_Chemistry_Notes>
This compound has an ester and may undergo hydrolysis at high or low pH. This compound contains an acetal/aminal-like group ( X-CH(R)-Y where X, Y are N, S, or O) that may be acid/base labile, releasing an aldehyde.

> <s_lp_Force_Field>
OPLS_2005

> <r_lp_Energy>
44.0615

> <b_lp_Chiralities_Consistent>
1

> <s_lp_Variant>
AV-unprocessed.smi:34-26

> <Gold.Version>
5.8.1

> <Gold.Id.Protein>
6NUR|6NUR_protein|mol2

> <Gold.PLP.Fitness>
57.7083

> <Gold.PLP.PLP>
-55.2629

> <Gold.PLP.part.hbond>
-3.0000

> <Gold.PLP.part.metal>
0.0000

> <Gold.PLP.part.buried>
-5.3774

> <Gold.PLP.part.nonpolar>
-46.0679

> <Gold.PLP.part.repulsive>
0.0383

> <Gold.PLP.ligand.clash>
0.0000

> <Gold.PLP.ligand.torsion>
1.7407

> <Gold.PLP.Chemscore.Hbond>
1.8640

> <Gold.PLP.Chemscore.CHOScore>
0.0000

> <Gold.PLP.Chemscore.Metal>
0.0000

> <Gold.Chemscore.Hbonds>
donor molecule, donor type, donor heavy atom, donor atom, acceptor molecule, acceptor atom, score
      L1  H    29    49       P1  7948  1.00
      P1  H  6934  6947       L1     1  0.93

> <Gold.PLP.Chemscore.Internal.Correction>
0.3349

> <Gold.Rescore>
     Score         DG    S(hbond)    S(metal)    S(lipo)     H(rot)  DE(clash)    DE(int)     intcor
     16.97     -21.34       1.96        0.00     138.41       2.69       1.33       3.03       ----

> <Gold.Chemscore.Fitness>
16.9746

> <Gold.Chemscore.DG>
-21.3376

> <Gold.Chemscore.ZeroCoef>
-5.4800

> <Gold.Chemscore.Hbond>
1.9644

> <Gold.Chemscore.Metal>
0.0000

> <Gold.Chemscore.Lipo>
138.4106

> <Gold.Chemscore.Internal_Hbond>
0.0000

> <Gold.Chemscore.DEClash>
1.3294

> <Gold.Chemscore.DEInternal>
3.0336

> <Gold.Chemscore.Rot>
2.6944

> <Gold.Chemscore.Internal.Correction>
   9.000000E+99

> <Gold.Chemscore.Hbonds>
donor molecule, donor type, donor heavy atom, donor atom, acceptor molecule, acceptor atom, score
      L1  H    29    49       P1  7948  0.94
      P1  H  6934  6947       L1     1  0.90

> <Gold.Chemscore.Hbond.Weighted>
-6.5611

> <Gold.Chemscore.Metal.Weighted>
-0.0000

> <Gold.Chemscore.Lipo.Weighted>
-16.1940

> <Gold.Chemscore.Internal_Hbond.Weighted>
0.0000

> <Gold.Chemscore.DEClash.Weighted>
1.3294

> <Gold.Chemscore.DEInternal.Weighted>
3.0336

> <Gold.Chemscore.Rot.Weighted>
6.8975

> <Gold.Chemscore.Internal.Correction.Weighted>
   9.000000E+99

> <Gold.Protein.RotatedTorsions>
[ 6907 6896 6895 6894 ] final  -92.81 input  -60.11 | X-H torsion
[ 7974 7965 7964 7962 ] final  -45.37 input  175.53 | X-H torsion
[ 8008 7997 7996 7995 ] final -100.17 input   59.86 | X-H torsion
[ 10167 10162 10161 10158 ] final  -19.28 input  -65.29 | X-H torsion
[ 10718 10713 10712 10709 ] final  123.77 input   66.30 | X-H torsion
[ 10763 10752 10751 10750 ] final  -13.36 input  -60.55 | X-H torsion
[ 11005 11000 10999 10996 ] final  -58.33 input  -57.11 | X-H torsion

> <Gold.Protein.ActiveResidues>
 VAL166  LYS551  ARG553  GLY616  TRP617  ASP618  TYR619  PRO620  LYS621  CYS622 
 ASP623  PHE694  ASN695  SER759  ASP760  ASP761  ALA762  ILE779  LEU786  VAL792 
 PHE793  MET794  SER795  GLU796  ALA797  LYS798  CYS799  TRP800  GLU811  SER814 

> <Gold.Protein.RotatedAtoms>
  150.6912  134.2064  159.4341 H   0  0  0  0  0  0  0  0  0  0  0  0  # atno 6907 bound_to 6896
  152.0028  134.9917  160.0575 H   0  0  0  0  0  0  0  0  0  0  0  0  # atno 6908 bound_to 6896
  152.1563  133.4518  159.4875 H   0  0  0  0  0  0  0  0  0  0  0  0  # atno 6909 bound_to 6896
  145.9827  140.7266  142.9355 H   0  0  0  0  0  0  0  0  0  0  0  0  # atno 7974 bound_to 7965
  154.8250  140.0442  157.1437 H   0  0  0  0  0  0  0  0  0  0  0  0  # atno 8008 bound_to 7997
  154.9217  140.3027  155.5193 H   0  0  0  0  0  0  0  0  0  0  0  0  # atno 8009 bound_to 7997
  156.2983  140.2339  156.4267 H   0  0  0  0  0  0  0  0  0  0  0  0  # atno 8010 bound_to 7997
  140.7267  143.4834  151.0087 H   0  0  0  0  0  0  0  0  0  0  0  0  # atno 10167 bound_to 10162
  157.5638  131.1088  150.8491 H   0  0  0  0  0  0  0  0  0  0  0  0  # atno 10718 bound_to 10713
  153.5122  135.7016  153.5775 H   0  0  0  0  0  0  0  0  0  0  0  0  # atno 10763 bound_to 10752
  153.3860  135.3908  155.1890 H   0  0  0  0  0  0  0  0  0  0  0  0  # atno 10764 bound_to 10752
  154.8702  135.3847  154.4603 H   0  0  0  0  0  0  0  0  0  0  0  0  # atno 10765 bound_to 10752
  141.1203  133.6612  156.4904 H   0  0  0  0  0  0  0  0  0  0  0  0  # atno 11005 bound_to 11000
  144.6866  140.2936  143.7274 LP  0  0  0  0  0  0  0  0  0  0  0  0  # atno 17320 bound_to 7965
  145.7745  139.1869  143.2193 LP  0  0  0  0  0  0  0  0  0  0  0  0  # atno 17321 bound_to 7965
  139.8534  143.7408  152.3177 LP  0  0  0  0  0  0  0  0  0  0  0  0  # atno 17342 bound_to 10162
  139.7598  144.7510  151.0380 LP  0  0  0  0  0  0  0  0  0  0  0  0  # atno 17343 bound_to 10162
  156.8981  130.5237  149.5283 LP  0  0  0  0  0  0  0  0  0  0  0  0  # atno 17370 bound_to 10713
  156.0688  130.5725  150.9342 LP  0  0  0  0  0  0  0  0  0  0  0  0  # atno 17371 bound_to 10713
  140.4528  134.6913  157.5048 LP  0  0  0  0  0  0  0  0  0  0  0  0  # atno 17394 bound_to 11000
  140.0154  134.6626  155.9317 LP  0  0  0  0  0  0  0  0  0  0  0  0  # atno 17395 bound_to 11000

$$$$
