AV-unprocessed.smi:2125|AV-procd|sdf|8674|dock1
  -GOLD-   2272011423D 1   1.00000     0.00000
 Structure written by MMmdl.
 32 33  0  0  0  0  0  0  0  0  1 V2000
  153.7011  141.4475  160.7019 C   0  0  0  0  0  0  0  0  0  0  0  0
  152.7073  141.7938  159.7073 N   0  0  0  0  0  0  0  0  0  0  0  0
  152.4441  140.8919  158.6477 C   0  0  0  0  0  0  0  0  0  0  0  0
  153.0266  139.8134  158.5313 O   0  0  0  0  0  0  0  0  0  0  0  0
  151.4266  141.3476  157.7079 C   0  0  0  0  0  0  0  0  0  0  0  0
  150.8109  142.5387  157.8740 C   0  0  0  0  0  0  0  0  0  0  0  0
  151.0873  143.4006  158.9196 N   0  0  0  0  0  0  0  0  0  0  0  0
  150.3765  144.6823  159.0139 C   0  0  0  0  0  0  0  0  0  0  0  0
  149.3757  144.7333  160.1766 C   0  0  0  0  0  0  0  0  0  0  0  0
  149.6775  144.2973  161.2885 O   0  0  0  0  0  0  0  0  0  0  0  0
  148.1875  145.2931  159.9047 N   0  0  0  0  0  0  0  0  0  0  0  0
  147.1046  145.4617  160.8647 C   0  0  0  0  0  0  0  0  0  0  0  0
  146.6919  144.1952  161.5909 C   0  0  0  0  0  0  0  0  0  0  0  0
  145.8559  143.1371  160.9074 C   0  0  0  0  0  0  0  0  0  0  0  0
  145.2528  143.9850  162.0004 C   0  0  0  0  0  0  0  0  0  0  0  0
  152.0616  143.0384  159.8739 C   0  0  0  0  0  0  0  0  0  0  0  0
  152.3324  143.7892  160.8147 O   0  0  0  0  0  0  0  0  0  0  0  0
  154.1433  140.4725  160.5007 H   0  0  0  0  0  0  0  0  0  0  0  0
  153.1975  141.4315  161.6702 H   0  0  0  0  0  0  0  0  0  0  0  0
  154.4737  142.2176  160.6675 H   0  0  0  0  0  0  0  0  0  0  0  0
  151.1632  140.7233  156.8668 H   0  0  0  0  0  0  0  0  0  0  0  0
  150.0666  142.8323  157.1480 H   0  0  0  0  0  0  0  0  0  0  0  0
  151.0931  145.4938  159.1472 H   0  0  0  0  0  0  0  0  0  0  0  0
  149.8623  144.8961  158.0750 H   0  0  0  0  0  0  0  0  0  0  0  0
  148.0228  145.6277  158.9663 H   0  0  0  0  0  0  0  0  0  0  0  0
  147.4362  146.1857  161.6093 H   0  0  0  0  0  0  0  0  0  0  0  0
  146.2361  145.9054  160.3744 H   0  0  0  0  0  0  0  0  0  0  0  0
  147.4333  143.8385  162.3035 H   0  0  0  0  0  0  0  0  0  0  0  0
  145.5305  143.3278  159.8866 H   0  0  0  0  0  0  0  0  0  0  0  0
  146.0769  142.0973  161.1390 H   0  0  0  0  0  0  0  0  0  0  0  0
  145.0684  143.5096  162.9616 H   0  0  0  0  0  0  0  0  0  0  0  0
  144.5255  144.7393  161.7057 H   0  0  0  0  0  0  0  0  0  0  0  0
  1  2  1  0  0  0  0
  1 18  1  0  0  0  0
  1 19  1  0  0  0  0
  1 20  1  0  0  0  0
  2 16  1  0  0  0  0
  2  3  1  0  0  0  0
  3  4  2  0  0  0  0
  3  5  1  0  0  0  0
  5  6  2  0  0  0  0
  5 21  1  0  0  0  0
  6  7  1  0  0  0  0
  6 22  1  0  0  0  0
  7  8  1  0  0  0  0
  7 16  1  0  0  0  0
  8  9  1  0  0  0  0
  8 23  1  0  0  0  0
  8 24  1  0  0  0  0
  9 10  2  0  0  0  0
  9 11  1  0  0  0  0
 11 12  1  0  0  0  0
 11 25  1  0  0  0  0
 12 13  1  0  0  0  0
 12 26  1  0  0  0  0
 12 27  1  0  0  0  0
 13 15  1  0  0  0  0
 13 14  1  0  0  0  0
 13 28  1  0  0  0  0
 14 15  1  0  0  0  0
 14 29  1  0  0  0  0
 14 30  1  0  0  0  0
 15 31  1  0  0  0  0
 15 32  1  0  0  0  0
 16 17  2  0  0  0  0
M  END
> <s_m_source_file>
AV-unprocessed.smi

> <i_m_source_file_index>
2125

> <i_lp_mmshare_version>
43012

> <i_f3d_flags>
0

> <s_epik_input>
W0NIM11uMWMoPU8pW2NIXVtjSF1uKGMxPU8pW0NIMl1DKD1PKVtOSF1bQ0gyXVtDSF0yW0NIMl1bQ0gyXTI=

> <s_epik_cmdline>
J2VwaWtfcHl0aG9uJywgJy1waCcsICc3LjAnLCAnLXRuJywgJzgnLCAnLW1hJywgJzIwMCcsICctbWV0YWxfYmluZGluZycsICctaW1hZScsICc8aW5maWxlLm1hZT4nLCAnLW9tYWUnLCAnPG91dGZpbGUubWFlPic=

> <r_lp_tautomer_probability>
1

> <r_epik_Ionization_Penalty>
3.09839e-08

> <r_epik_Ionization_Penalty_Charging>
1.16822e-08

> <r_epik_Ionization_Penalty_Neutral>
1.93017e-08

> <r_epik_State_Penalty>
-0

> <r_epik_Charging_Adjusted_Penalty>
1.16822e-08

> <i_epik_Tot_Q>
0

> <i_epik_Tot_abs_Q>
0

> <r_epik_Metal_State_Penalty>
-0

> <b_epik_Metal_Only>
0

> <s_lp_Force_Field>
OPLS_2005

> <r_lp_Energy>
19.7621

> <b_lp_Chiralities_Consistent>
1

> <s_lp_Variant>
AV-unprocessed.smi:2125-1

> <Gold.Version>
5.8.1

> <Gold.Id.Protein>
6NUR|6NUR_protein|mol2

> <Gold.PLP.Fitness>
49.0094

> <Gold.PLP.PLP>
-40.5085

> <Gold.PLP.part.hbond>
-3.0000

> <Gold.PLP.part.metal>
0.0000

> <Gold.PLP.part.buried>
-7.3897

> <Gold.PLP.part.nonpolar>
-31.2811

> <Gold.PLP.part.repulsive>
1.0989

> <Gold.PLP.ligand.clash>
0.0000

> <Gold.PLP.ligand.torsion>
0.6294

> <Gold.PLP.Chemscore.Hbond>
2.0663

> <Gold.PLP.Chemscore.CHOScore>
1.0000

> <Gold.PLP.Chemscore.Metal>
0.0000

> <Gold.Chemscore.Hbonds>
donor molecule, donor type, donor heavy atom, donor atom, acceptor molecule, acceptor atom, score
      L1  H    11    25       P1  8029  1.00
      P1  H  6933  6944       L1    10  0.15
      P1  H  7997  8008       L1     4  0.62
      L1  C     6    22       P1  8028  0.64

> <Gold.PLP.Chemscore.Internal.Correction>
0.5608

> <Gold.Rescore>
     Score         DG    S(hbond)    S(metal)    S(lipo)     H(rot)  DE(clash)    DE(int)     intcor
     11.93     -14.01       1.91        0.00      58.11       1.81       0.25       1.83       ----

> <Gold.Chemscore.Fitness>
11.9273

> <Gold.Chemscore.DG>
-14.0143

> <Gold.Chemscore.ZeroCoef>
-5.4800

> <Gold.Chemscore.Hbond>
1.9077

> <Gold.Chemscore.Metal>
0.0000

> <Gold.Chemscore.Lipo>
58.1139

> <Gold.Chemscore.Internal_Hbond>
0.0000

> <Gold.Chemscore.DEClash>
0.2536

> <Gold.Chemscore.DEInternal>
1.8335

> <Gold.Chemscore.Rot>
1.8112

> <Gold.Chemscore.Internal.Correction>
   9.000000E+99

> <Gold.Chemscore.Hbonds>
donor molecule, donor type, donor heavy atom, donor atom, acceptor molecule, acceptor atom, score
      L1  H    11    25       P1  8029  1.00
      P1  H  6933  6944       L1    10  0.07
      P1  H  7997  8008       L1     4  0.40

> <Gold.Chemscore.Hbond.Weighted>
-6.3717

> <Gold.Chemscore.Metal.Weighted>
-0.0000

> <Gold.Chemscore.Lipo.Weighted>
-6.7993

> <Gold.Chemscore.Internal_Hbond.Weighted>
0.0000

> <Gold.Chemscore.DEClash.Weighted>
0.2536

> <Gold.Chemscore.DEInternal.Weighted>
1.8335

> <Gold.Chemscore.Rot.Weighted>
4.6367

> <Gold.Chemscore.Internal.Correction.Weighted>
   9.000000E+99

> <Gold.Protein.RotatedTorsions>
[ 6907 6896 6895 6894 ] final  111.76 input  -60.11 | X-H torsion
[ 7974 7965 7964 7962 ] final   58.33 input  175.53 | X-H torsion
[ 8008 7997 7996 7995 ] final  -84.53 input   59.86 | X-H torsion
[ 10167 10162 10161 10158 ] final  174.48 input  -65.29 | X-H torsion
[ 10718 10713 10712 10709 ] final  -80.60 input   66.30 | X-H torsion
[ 10763 10752 10751 10750 ] final   81.45 input  -60.55 | X-H torsion
[ 11005 11000 10999 10996 ] final   36.65 input  -57.11 | X-H torsion

> <Gold.Protein.ActiveResidues>
 VAL166  LYS551  ARG553  GLY616  TRP617  ASP618  TYR619  PRO620  LYS621  CYS622 
 ASP623  PHE694  ASN695  SER759  ASP760  ASP761  ALA762  ILE779  LEU786  VAL792 
 PHE793  MET794  SER795  GLU796  ALA797  LYS798  CYS799  TRP800  GLU811  SER814 

> <Gold.Protein.RotatedAtoms>
  152.4952  133.8611  159.7250 H   0  0  0  0  0  0  0  0  0  0  0  0  # atno 6907 bound_to 6896
  150.9123  133.6974  159.2858 H   0  0  0  0  0  0  0  0  0  0  0  0  # atno 6908 bound_to 6896
  151.4379  135.1021  159.9714 H   0  0  0  0  0  0  0  0  0  0  0  0  # atno 6909 bound_to 6896
  145.9194  139.3717  143.0487 H   0  0  0  0  0  0  0  0  0  0  0  0  # atno 7974 bound_to 7965
  154.6309  140.0603  156.9730 H   0  0  0  0  0  0  0  0  0  0  0  0  # atno 8008 bound_to 7997
  155.1668  140.3287  155.4382 H   0  0  0  0  0  0  0  0  0  0  0  0  # atno 8009 bound_to 7997
  156.2482  140.1921  156.6772 H   0  0  0  0  0  0  0  0  0  0  0  0  # atno 8010 bound_to 7997
  139.5143  144.3141  152.0264 H   0  0  0  0  0  0  0  0  0  0  0  0  # atno 10167 bound_to 10162
  156.0067  130.4579  150.3825 H   0  0  0  0  0  0  0  0  0  0  0  0  # atno 10718 bound_to 10713
  153.1118  135.4765  154.9048 H   0  0  0  0  0  0  0  0  0  0  0  0  # atno 10763 bound_to 10752
  154.7488  135.3101  154.8597 H   0  0  0  0  0  0  0  0  0  0  0  0  # atno 10764 bound_to 10752
  153.9184  135.6857  153.4802 H   0  0  0  0  0  0  0  0  0  0  0  0  # atno 10765 bound_to 10752
  140.2304  134.3534  155.7966 H   0  0  0  0  0  0  0  0  0  0  0  0  # atno 11005 bound_to 11000
  145.8570  140.9497  143.0720 LP  0  0  0  0  0  0  0  0  0  0  0  0  # atno 17320 bound_to 7965
  144.6751  140.0480  143.7479 LP  0  0  0  0  0  0  0  0  0  0  0  0  # atno 17321 bound_to 7965
  140.2585  144.4093  150.6194 LP  0  0  0  0  0  0  0  0  0  0  0  0  # atno 17342 bound_to 10162
  140.6174  143.2173  151.6763 LP  0  0  0  0  0  0  0  0  0  0  0  0  # atno 17343 bound_to 10162
  157.1904  131.0414  151.2703 LP  0  0  0  0  0  0  0  0  0  0  0  0  # atno 17370 bound_to 10713
  157.4066  130.7362  149.6807 LP  0  0  0  0  0  0  0  0  0  0  0  0  # atno 17371 bound_to 10713
  141.2218  133.7242  156.8722 LP  0  0  0  0  0  0  0  0  0  0  0  0  # atno 17394 bound_to 11000
  140.1756  134.9069  157.2887 LP  0  0  0  0  0  0  0  0  0  0  0  0  # atno 17395 bound_to 11000

$$$$
