AV-unprocessed.smi:2831|AV-procd|sdf|10909|dock1
  -GOLD-   2272015353D 1   1.00000     0.00000
 Structure written by MMmdl.
 30 31  0  0  0  0  0  0  0  0  1 V2000
  143.8131  132.3864  149.4443 C   0  0  0  0  0  0  0  0  0  0  0  0
  144.9661  132.5231  150.3791 C   0  0  0  0  0  0  0  0  0  0  0  0
  145.5722  131.4675  150.9357 N   0  0  0  0  0  0  0  0  0  0  0  0
  146.6210  131.8398  151.7650 N   0  0  0  0  0  0  0  0  0  0  0  0
  146.7764  133.1702  151.8081 C   0  0  0  0  0  0  0  0  0  0  0  0
  147.7756  133.8238  152.5767 N   0  0  0  0  0  0  0  0  0  0  0  0
  148.3481  133.4123  153.7216 C   0  0  0  0  0  0  0  0  0  0  0  0
  148.0788  132.3674  154.3143 O   0  0  0  0  0  0  0  0  0  0  0  0
  149.2663  134.2957  154.1469 N   0  0  0  0  0  0  0  0  0  0  0  0
  150.1211  134.1887  155.3348 C   0  0  2  0  0  0  0  0  0  0  0  0
  151.0319  135.4293  155.4639 C   0  0  0  0  0  0  0  0  0  0  0  0
  150.9297  132.8789  155.3667 C   0  0  0  0  0  0  0  0  0  0  0  0
  150.4490  132.1484  156.6195 C   0  0  0  0  0  0  0  0  0  0  0  0
  149.9421  133.1850  157.4395 O   0  0  0  0  0  0  0  0  0  0  0  0
  149.2275  134.0558  156.5801 C   0  0  0  0  0  0  0  0  0  0  0  0
  145.6400  134.0846  150.8314 S   0  0  0  0  0  0  0  0  0  0  0  0
  143.1266  131.6182  149.8011 H   0  0  0  0  0  0  0  0  0  0  0  0
  144.1687  132.1068  148.4525 H   0  0  0  0  0  0  0  0  0  0  0  0
  143.2717  133.3297  149.3693 H   0  0  0  0  0  0  0  0  0  0  0  0
  148.1009  134.7037  152.2040 H   0  0  0  0  0  0  0  0  0  0  0  0
  149.4013  135.1235  153.5851 H   0  0  0  0  0  0  0  0  0  0  0  0
  151.6001  135.4039  156.3944 H   0  0  0  0  0  0  0  0  0  0  0  0
  150.4485  136.3508  155.4624 H   0  0  0  0  0  0  0  0  0  0  0  0
  151.7517  135.4934  154.6479 H   0  0  0  0  0  0  0  0  0  0  0  0
  150.7948  132.2530  154.4840 H   0  0  0  0  0  0  0  0  0  0  0  0
  151.9972  133.0881  155.4477 H   0  0  0  0  0  0  0  0  0  0  0  0
  149.6450  131.4512  156.3775 H   0  0  0  0  0  0  0  0  0  0  0  0
  151.2455  131.5941  157.1164 H   0  0  0  0  0  0  0  0  0  0  0  0
  149.0193  135.0101  157.0653 H   0  0  0  0  0  0  0  0  0  0  0  0
  148.2688  133.5915  156.3396 H   0  0  0  0  0  0  0  0  0  0  0  0
  1  2  1  0  0  0  0
  1 17  1  0  0  0  0
  1 18  1  0  0  0  0
  1 19  1  0  0  0  0
  2 16  1  0  0  0  0
  2  3  2  0  0  0  0
  3  4  1  0  0  0  0
  4  5  2  0  0  0  0
  5  6  1  0  0  0  0
  5 16  1  0  0  0  0
  6  7  1  0  0  0  0
  6 20  1  0  0  0  0
  7  8  2  0  0  0  0
  7  9  1  0  0  0  0
  9 10  1  0  0  0  0
  9 21  1  0  0  0  0
 10 15  1  0  0  0  0
 10 11  1  0  0  0  0
 10 12  1  0  0  0  0
 11 22  1  0  0  0  0
 11 23  1  0  0  0  0
 11 24  1  0  0  0  0
 12 13  1  0  0  0  0
 12 25  1  0  0  0  0
 12 26  1  0  0  0  0
 13 14  1  0  0  0  0
 13 27  1  0  0  0  0
 13 28  1  0  0  0  0
 14 15  1  0  0  0  0
 15 29  1  0  0  0  0
 15 30  1  0  0  0  0
M  END
> <s_m_source_file>
AV-unprocessed.smi

> <i_m_source_file_index>
2831

> <i_lp_mmshare_version>
43012

> <i_f3d_flags>
0

> <s_epik_input>
W0NIM11jMW5uYyhzMSlbTkhdQyg9TylbTkhdW0NAQF0yKFtDSDNdKVtDSDJdW0NIMl1PW0NIMl0y

> <s_epik_cmdline>
J2VwaWtfcHl0aG9uJywgJy1waCcsICc3LjAnLCAnLXRuJywgJzgnLCAnLW1hJywgJzIwMCcsICctbWV0YWxfYmluZGluZycsICctaW1hZScsICc8aW5maWxlLm1hZT4nLCAnLW9tYWUnLCAnPG91dGZpbGUubWFlPic=

> <r_lp_tautomer_probability>
1

> <r_epik_Ionization_Penalty>
0.00277018

> <r_epik_Ionization_Penalty_Charging>
0

> <r_epik_Ionization_Penalty_Neutral>
0.00277018

> <r_epik_State_Penalty>
-0

> <r_epik_Charging_Adjusted_Penalty>
0

> <i_epik_Tot_Q>
0

> <i_epik_Tot_abs_Q>
0

> <r_epik_Metal_State_Penalty>
0.356997

> <b_epik_Metal_Only>
0

> <s_lp_Force_Field>
OPLS_2005

> <r_lp_Energy>
14.9894

> <b_lp_Chiralities_Consistent>
1

> <s_lp_Variant>
AV-unprocessed.smi:2831-2

> <Gold.Version>
5.8.1

> <Gold.Id.Protein>
6NUR|6NUR_protein|mol2

> <Gold.PLP.Fitness>
32.7160

> <Gold.PLP.PLP>
-24.0921

> <Gold.PLP.part.hbond>
-3.0000

> <Gold.PLP.part.metal>
0.0000

> <Gold.PLP.part.buried>
-3.7236

> <Gold.PLP.part.nonpolar>
-17.2817

> <Gold.PLP.part.repulsive>
0.2754

> <Gold.PLP.ligand.clash>
0.0000

> <Gold.PLP.ligand.torsion>
0.1912

> <Gold.PLP.Chemscore.Hbond>
2.9920

> <Gold.PLP.Chemscore.CHOScore>
0.0000

> <Gold.PLP.Chemscore.Metal>
0.0000

> <Gold.Chemscore.Hbonds>
donor molecule, donor type, donor heavy atom, donor atom, acceptor molecule, acceptor atom, score
      L1  H     6    20       P1  7948  1.00
      L1  H     9    21       P1  7948  0.75
      P1  H  6896  6909       L1    14  0.88

> <Gold.PLP.Chemscore.Internal.Correction>
0.0303

> <Gold.Rescore>
     Score         DG    S(hbond)    S(metal)    S(lipo)     H(rot)  DE(clash)    DE(int)     intcor
     14.37     -16.66       2.46        0.00      47.09       1.00       0.08       2.21       ----

> <Gold.Chemscore.Fitness>
14.3680

> <Gold.Chemscore.DG>
-16.6631

> <Gold.Chemscore.ZeroCoef>
-5.4800

> <Gold.Chemscore.Hbond>
2.4650

> <Gold.Chemscore.Metal>
0.0000

> <Gold.Chemscore.Lipo>
47.0941

> <Gold.Chemscore.Internal_Hbond>
0.0000

> <Gold.Chemscore.DEClash>
0.0820

> <Gold.Chemscore.DEInternal>
2.2130

> <Gold.Chemscore.Rot>
1.0000

> <Gold.Chemscore.Internal.Correction>
   9.000000E+99

> <Gold.Chemscore.Hbonds>
donor molecule, donor type, donor heavy atom, donor atom, acceptor molecule, acceptor atom, score
      L1  H     6    20       P1  7948  0.30
      L1  H     9    21       P1  7948  0.10
      P1  H  6896  6909       L1    14  0.84

> <Gold.Chemscore.Hbond.Weighted>
-8.2331

> <Gold.Chemscore.Metal.Weighted>
-0.0000

> <Gold.Chemscore.Lipo.Weighted>
-5.5100

> <Gold.Chemscore.Internal_Hbond.Weighted>
0.0000

> <Gold.Chemscore.DEClash.Weighted>
0.0820

> <Gold.Chemscore.DEInternal.Weighted>
2.2130

> <Gold.Chemscore.Rot.Weighted>
2.5600

> <Gold.Chemscore.Internal.Correction.Weighted>
   9.000000E+99

> <Gold.Protein.RotatedTorsions>
[ 6907 6896 6895 6894 ] final   -4.83 input  -60.11 | X-H torsion
[ 7974 7965 7964 7962 ] final -100.85 input  175.53 | X-H torsion
[ 8008 7997 7996 7995 ] final  114.19 input   59.86 | X-H torsion
[ 10167 10162 10161 10158 ] final   95.01 input  -65.29 | X-H torsion
[ 10718 10713 10712 10709 ] final -140.61 input   66.30 | X-H torsion
[ 10763 10752 10751 10750 ] final -123.57 input  -60.55 | X-H torsion
[ 11005 11000 10999 10996 ] final    7.65 input  -57.11 | X-H torsion

> <Gold.Protein.ActiveResidues>
 VAL166  LYS551  ARG553  GLY616  TRP617  ASP618  TYR619  PRO620  LYS621  CYS622 
 ASP623  PHE694  ASN695  SER759  ASP760  ASP761  ALA762  ILE779  LEU786  VAL792 
 PHE793  MET794  SER795  GLU796  ALA797  LYS798  CYS799  TRP800  GLU811  SER814 

> <Gold.Protein.RotatedAtoms>
  151.4913  135.1057  159.9803 H   0  0  0  0  0  0  0  0  0  0  0  0  # atno 6907 bound_to 6896
  152.4740  133.8090  159.7004 H   0  0  0  0  0  0  0  0  0  0  0  0  # atno 6908 bound_to 6896
  150.8766  133.7368  159.2971 H   0  0  0  0  0  0  0  0  0  0  0  0  # atno 6909 bound_to 6896
  145.2892  140.9348  143.2887 H   0  0  0  0  0  0  0  0  0  0  0  0  # atno 7974 bound_to 7965
  156.2305  140.2964  156.0177 H   0  0  0  0  0  0  0  0  0  0  0  0  # atno 8008 bound_to 7997
  155.2237  140.0416  157.2969 H   0  0  0  0  0  0  0  0  0  0  0  0  # atno 8009 bound_to 7997
  154.5988  140.2421  155.7828 H   0  0  0  0  0  0  0  0  0  0  0  0  # atno 8010 bound_to 7997
  139.8029  144.6806  150.9742 H   0  0  0  0  0  0  0  0  0  0  0  0  # atno 10167 bound_to 10162
  156.3243  130.7551  151.1656 H   0  0  0  0  0  0  0  0  0  0  0  0  # atno 10718 bound_to 10713
  154.8710  135.4093  154.2965 H   0  0  0  0  0  0  0  0  0  0  0  0  # atno 10763 bound_to 10752
  153.3832  135.7012  153.6555 H   0  0  0  0  0  0  0  0  0  0  0  0  # atno 10764 bound_to 10752
  153.5369  135.3656  155.2672 H   0  0  0  0  0  0  0  0  0  0  0  0  # atno 10765 bound_to 10752
  140.5458  134.0330  155.7920 H   0  0  0  0  0  0  0  0  0  0  0  0  # atno 11005 bound_to 11000
  144.9187  139.4439  143.6552 LP  0  0  0  0  0  0  0  0  0  0  0  0  # atno 17320 bound_to 7965
  146.3190  139.8035  142.8960 LP  0  0  0  0  0  0  0  0  0  0  0  0  # atno 17321 bound_to 7965
  140.7820  143.4263  151.0763 LP  0  0  0  0  0  0  0  0  0  0  0  0  # atno 17342 bound_to 10162
  139.7934  143.8186  152.3154 LP  0  0  0  0  0  0  0  0  0  0  0  0  # atno 17343 bound_to 10162
  157.7418  131.0499  150.5071 LP  0  0  0  0  0  0  0  0  0  0  0  0  # atno 17370 bound_to 10713
  156.5227  130.4166  149.6242 LP  0  0  0  0  0  0  0  0  0  0  0  0  # atno 17371 bound_to 10713
  141.1200  133.9476  157.2747 LP  0  0  0  0  0  0  0  0  0  0  0  0  # atno 17394 bound_to 11000
  139.9480  135.0180  156.8910 LP  0  0  0  0  0  0  0  0  0  0  0  0  # atno 17395 bound_to 11000

$$$$
