AV-unprocessed.smi:1215|AV-procd|sdf|5096|dock4
  -GOLD-   22720 4143D 1   1.00000     0.00000
 Structure written by MMmdl.
 46 47  0  0  0  0  0  0  0  0  2 V2000
  150.2815  141.3034  157.6370 C   0  0  0  0  0  0  0  0  0  0  0  0
  151.6060  141.1368  156.8824 C   0  0  0  0  0  0  0  0  0  0  0  0
  151.5826  139.9840  156.0033 N   0  0  0  0  0  0  0  0  0  0  0  0
  150.5631  139.0707  155.8206 C   0  0  0  0  0  0  0  0  0  0  0  0
  151.0260  138.1815  154.8920 C   0  0  0  0  0  0  0  0  0  0  0  0
  150.3865  137.0436  154.3383 N   0  0  0  0  0  0  0  0  0  0  0  0
  150.6754  135.7527  154.5701 C   0  0  0  0  0  0  0  0  0  0  0  0
  151.5600  135.3478  155.3248 O   0  0  0  0  0  0  0  0  0  0  0  0
  149.8761  134.9383  153.8664 N   0  0  0  0  0  0  0  0  0  0  0  0
  149.9339  133.4815  153.8985 C   0  0  0  0  0  0  0  0  0  0  0  0
  148.9035  132.8531  152.9390 C   0  0  0  0  0  0  0  0  0  0  0  0
  147.7607  133.7540  152.6268 N   0  3  2  0  0  0  0  0  0  0  0  0
  146.9779  134.1027  153.8437 C   0  0  0  0  0  0  0  0  0  0  0  0
  145.9432  135.2009  153.5514 C   0  0  0  0  0  0  0  0  0  0  0  0
  145.0144  134.7924  152.4036 C   0  0  0  0  0  0  0  0  0  0  0  0
  145.8462  134.4221  151.1681 C   0  0  0  0  0  0  0  0  0  0  0  0
  146.8981  133.3352  151.4766 C   0  0  2  0  0  0  0  0  0  0  0  0
  146.2599  131.9410  151.6557 C   0  0  0  0  0  0  0  0  0  0  0  0
  152.3337  138.6188  154.5557 C   0  0  0  0  0  0  0  0  0  0  0  0
  152.6638  139.7080  155.2326 N   0  0  0  0  0  0  0  0  0  0  0  0
  150.3211  142.1646  158.3041 H   0  0  0  0  0  0  0  0  0  0  0  0
  150.0603  140.4235  158.2415 H   0  0  0  0  0  0  0  0  0  0  0  0
  149.4501  141.4551  156.9479 H   0  0  0  0  0  0  0  0  0  0  0  0
  151.8208  142.0273  156.2898 H   0  0  0  0  0  0  0  0  0  0  0  0
  152.4287  141.0202  157.5889 H   0  0  0  0  0  0  0  0  0  0  0  0
  149.6278  139.1409  156.3561 H   0  0  0  0  0  0  0  0  0  0  0  0
  149.6336  137.2345  153.6934 H   0  0  0  0  0  0  0  0  0  0  0  0
  149.1743  135.3559  153.2722 H   0  0  0  0  0  0  0  0  0  0  0  0
  150.9426  133.1412  153.6577 H   0  0  0  0  0  0  0  0  0  0  0  0
  149.7382  133.1827  154.9277 H   0  0  0  0  0  0  0  0  0  0  0  0
  149.3856  132.5171  152.0208 H   0  0  0  0  0  0  0  0  0  0  0  0
  148.5027  131.9543  153.4094 H   0  0  0  0  0  0  0  0  0  0  0  0
  146.4873  133.2142  154.2421 H   0  0  0  0  0  0  0  0  0  0  0  0
  147.6526  134.4582  154.6233 H   0  0  0  0  0  0  0  0  0  0  0  0
  145.3580  135.4099  154.4476 H   0  0  0  0  0  0  0  0  0  0  0  0
  146.4566  136.1282  153.2939 H   0  0  0  0  0  0  0  0  0  0  0  0
  144.3943  133.9486  152.7078 H   0  0  0  0  0  0  0  0  0  0  0  0
  144.3316  135.6085  152.1657 H   0  0  0  0  0  0  0  0  0  0  0  0
  145.1899  134.0969  150.3600 H   0  0  0  0  0  0  0  0  0  0  0  0
  146.3528  135.3163  150.8020 H   0  0  0  0  0  0  0  0  0  0  0  0
  147.5294  133.2820  150.5903 H   0  0  0  0  0  0  0  0  0  0  0  0
  145.6253  131.6973  150.8033 H   0  0  0  0  0  0  0  0  0  0  0  0
  145.6380  131.8797  152.5482 H   0  0  0  0  0  0  0  0  0  0  0  0
  147.0125  131.1554  151.7186 H   0  0  0  0  0  0  0  0  0  0  0  0
  153.0399  138.1920  153.8588 H   0  0  0  0  0  0  0  0  0  0  0  0
  148.1853  134.6230  152.3353 H   0  0  0  0  0  0  0  0  0  0  0  0
  1  2  1  0  0  0  0
  1 21  1  0  0  0  0
  1 22  1  0  0  0  0
  1 23  1  0  0  0  0
  2  3  1  0  0  0  0
  2 24  1  0  0  0  0
  2 25  1  0  0  0  0
  3 20  1  0  0  0  0
  3  4  1  0  0  0  0
  4  5  2  0  0  0  0
  4 26  1  0  0  0  0
  5  6  1  0  0  0  0
  5 19  1  0  0  0  0
  6  7  1  0  0  0  0
  6 27  1  0  0  0  0
  7  8  2  0  0  0  0
  7  9  1  0  0  0  0
  9 10  1  0  0  0  0
  9 28  1  0  0  0  0
 10 11  1  0  0  0  0
 10 29  1  0  0  0  0
 10 30  1  0  0  0  0
 11 12  1  0  0  0  0
 11 31  1  0  0  0  0
 11 32  1  0  0  0  0
 12 17  1  0  0  0  0
 12 13  1  0  0  0  0
 12 46  1  0  0  0  0
 13 14  1  0  0  0  0
 13 33  1  0  0  0  0
 13 34  1  0  0  0  0
 14 15  1  0  0  0  0
 14 35  1  0  0  0  0
 14 36  1  0  0  0  0
 15 16  1  0  0  0  0
 15 37  1  0  0  0  0
 15 38  1  0  0  0  0
 16 17  1  0  0  0  0
 16 39  1  0  0  0  0
 16 40  1  0  0  0  0
 17 18  1  0  0  0  0
 17 41  1  0  0  0  0
 18 42  1  0  0  0  0
 18 43  1  0  0  0  0
 18 44  1  0  0  0  0
 19 20  2  0  0  0  0
 19 45  1  0  0  0  0
M  CHG  1  12   1
M  END
> <s_m_source_file>
AV-unprocessed.smi

> <i_m_source_file_index>
1215

> <i_lp_mmshare_version>
43012

> <i_f3d_flags>
0

> <s_epik_input>
W0NIM11bQ0gyXW4xW2NIXWMoW2NIXW4xKVtOSF1DKD1PKVtOSF1bQ0gyXVtDSDJdTjJbQ0gyXVtDSDJdW0NIMl1bQ0gyXVtDQEhdMltDSDNd

> <s_epik_cmdline>
J2VwaWtfcHl0aG9uJywgJy1waCcsICc3LjAnLCAnLXRuJywgJzgnLCAnLW1hJywgJzIwMCcsICctbWV0YWxfYmluZGluZycsICctaW1hZScsICc8aW5maWxlLm1hZT4nLCAnLW9tYWUnLCAnPG91dGZpbGUubWFlPic=

> <r_lp_tautomer_probability>
1

> <r_epik_Ionization_Penalty>
0.00247187

> <r_epik_Ionization_Penalty_Charging>
0.00232067

> <r_epik_Ionization_Penalty_Neutral>
0.000151201

> <r_epik_State_Penalty>
0.00160128

> <r_epik_Charging_Adjusted_Penalty>
0.00392194

> <i_epik_Tot_Q>
1

> <i_epik_Tot_abs_Q>
1

> <r_epik_Metal_State_Penalty>
-0

> <b_epik_Metal_Only>
0

> <s_lp_Force_Field>
OPLS_2005

> <r_lp_Energy>
24.1958

> <b_lp_Chiralities_Consistent>
1

> <s_lp_Variant>
AV-unprocessed.smi:1215-3

> <Gold.Version>
5.8.1

> <Gold.Id.Protein>
6NUR|6NUR_protein|mol2

> <Gold.PLP.Fitness>
51.5886

> <Gold.PLP.PLP>
-36.6012

> <Gold.PLP.part.hbond>
-7.2886

> <Gold.PLP.part.metal>
0.0000

> <Gold.PLP.part.buried>
-2.5032

> <Gold.PLP.part.nonpolar>
-27.6776

> <Gold.PLP.part.repulsive>
0.1731

> <Gold.PLP.ligand.clash>
0.0000

> <Gold.PLP.ligand.torsion>
0.9764

> <Gold.PLP.Chemscore.Hbond>
5.6237

> <Gold.PLP.Chemscore.CHOScore>
0.0000

> <Gold.PLP.Chemscore.Metal>
0.0000

> <Gold.Chemscore.Hbonds>
donor molecule, donor type, donor heavy atom, donor atom, acceptor molecule, acceptor atom, score
      L1  H     6    27       P1  7948  0.43
      L1  H     9    28       P1  7948  0.83
      L1  H    12    46       P1  7948  2.00
      P1  H  7989  7998       L1    20  0.03
      P1  H  7997  8009       L1    20  1.00
      P1  H 10752 10765       L1     8  1.00

> <Gold.PLP.Chemscore.Internal.Correction>
0.0692

> <Gold.Rescore>
     Score         DG    S(hbond)    S(metal)    S(lipo)     H(rot)  DE(clash)    DE(int)     intcor
     18.95     -21.21       3.45        0.00      70.86       1.59       1.29       0.97       ----

> <Gold.Chemscore.Fitness>
18.9499

> <Gold.Chemscore.DG>
-21.2059

> <Gold.Chemscore.ZeroCoef>
-5.4800

> <Gold.Chemscore.Hbond>
3.4456

> <Gold.Chemscore.Metal>
0.0000

> <Gold.Chemscore.Lipo>
70.8578

> <Gold.Chemscore.Internal_Hbond>
0.0000

> <Gold.Chemscore.DEClash>
1.2862

> <Gold.Chemscore.DEInternal>
0.9698

> <Gold.Chemscore.Rot>
1.5909

> <Gold.Chemscore.Internal.Correction>
   9.000000E+99

> <Gold.Chemscore.Hbonds>
donor molecule, donor type, donor heavy atom, donor atom, acceptor molecule, acceptor atom, score
      L1  H     6    27       P1  7948  0.35
      L1  H     9    28       P1  7948  0.21
      L1  H    12    46       P1  7948  0.26
      P1  H  7997  8009       L1    20  0.87
      P1  H 10752 10765       L1     8  0.85

> <Gold.Chemscore.Hbond.Weighted>
-11.5083

> <Gold.Chemscore.Metal.Weighted>
-0.0000

> <Gold.Chemscore.Lipo.Weighted>
-8.2904

> <Gold.Chemscore.Internal_Hbond.Weighted>
0.0000

> <Gold.Chemscore.DEClash.Weighted>
1.2862

> <Gold.Chemscore.DEInternal.Weighted>
0.9698

> <Gold.Chemscore.Rot.Weighted>
4.0728

> <Gold.Chemscore.Internal.Correction.Weighted>
   9.000000E+99

> <Gold.Protein.RotatedTorsions>
[ 6907 6896 6895 6894 ] final  151.10 input  -60.11 | X-H torsion
[ 7974 7965 7964 7962 ] final -105.38 input  175.53 | X-H torsion
[ 8008 7997 7996 7995 ] final -147.06 input   59.86 | X-H torsion
[ 10167 10162 10161 10158 ] final   34.42 input  -65.29 | X-H torsion
[ 10718 10713 10712 10709 ] final  -88.89 input   66.30 | X-H torsion
[ 10763 10752 10751 10750 ] final -161.72 input  -60.55 | X-H torsion
[ 11005 11000 10999 10996 ] final -168.34 input  -57.11 | X-H torsion

> <Gold.Protein.ActiveResidues>
 VAL166  LYS551  ARG553  GLY616  TRP617  ASP618  TYR619  PRO620  LYS621  CYS622 
 ASP623  PHE694  ASN695  SER759  ASP760  ASP761  ALA762  ILE779  LEU786  VAL792 
 PHE793  MET794  SER795  GLU796  ALA797  LYS798  CYS799  TRP800  GLU811  SER814 

> <Gold.Protein.RotatedAtoms>
  152.1053  133.4271  159.4605 H   0  0  0  0  0  0  0  0  0  0  0  0  # atno 6907 bound_to 6896
  150.6865  134.2712  159.4598 H   0  0  0  0  0  0  0  0  0  0  0  0  # atno 6908 bound_to 6896
  152.0576  134.9614  160.0625 H   0  0  0  0  0  0  0  0  0  0  0  0  # atno 6909 bound_to 6896
  145.2311  140.9171  143.3204 H   0  0  0  0  0  0  0  0  0  0  0  0  # atno 7974 bound_to 7965
  155.5695  140.0633  157.2810 H   0  0  0  0  0  0  0  0  0  0  0  0  # atno 8008 bound_to 7997
  154.4365  140.1871  156.0910 H   0  0  0  0  0  0  0  0  0  0  0  0  # atno 8009 bound_to 7997
  156.0387  140.3298  155.7223 H   0  0  0  0  0  0  0  0  0  0  0  0  # atno 8010 bound_to 7997
  140.4317  144.1316  150.6160 H   0  0  0  0  0  0  0  0  0  0  0  0  # atno 10167 bound_to 10162
  155.9984  130.4852  150.5087 H   0  0  0  0  0  0  0  0  0  0  0  0  # atno 10718 bound_to 10713
  154.7278  135.3040  154.8942 H   0  0  0  0  0  0  0  0  0  0  0  0  # atno 10763 bound_to 10752
  153.9794  135.6732  153.4753 H   0  0  0  0  0  0  0  0  0  0  0  0  # atno 10764 bound_to 10752
  153.0891  135.4969  154.8574 H   0  0  0  0  0  0  0  0  0  0  0  0  # atno 10765 bound_to 10752
  140.5431  134.5503  157.5104 H   0  0  0  0  0  0  0  0  0  0  0  0  # atno 11005 bound_to 11000
  144.9675  139.3914  143.6325 LP  0  0  0  0  0  0  0  0  0  0  0  0  # atno 17320 bound_to 7965
  146.3352  139.8758  142.8832 LP  0  0  0  0  0  0  0  0  0  0  0  0  # atno 17321 bound_to 7965
  140.4420  143.2522  151.9460 LP  0  0  0  0  0  0  0  0  0  0  0  0  # atno 17342 bound_to 10162
  139.4785  144.5645  151.8187 LP  0  0  0  0  0  0  0  0  0  0  0  0  # atno 17343 bound_to 10162
  157.3063  131.0655  151.2033 LP  0  0  0  0  0  0  0  0  0  0  0  0  # atno 17370 bound_to 10713
  157.2994  130.6835  149.6156 LP  0  0  0  0  0  0  0  0  0  0  0  0  # atno 17371 bound_to 10713
  139.9494  134.7644  156.0485 LP  0  0  0  0  0  0  0  0  0  0  0  0  # atno 17394 bound_to 11000
  141.1216  133.6611  156.3228 LP  0  0  0  0  0  0  0  0  0  0  0  0  # atno 17395 bound_to 11000

$$$$
