AV-unprocessed.smi:1835|AV-procd|sdf|7474|dock8
  -GOLD-   22720 9173D 1   1.00000     0.00000
 Structure written by MMmdl.
 41 42  0  0  0  0  0  0  0  0  1 V2000
  147.9103  133.5732  153.4875 C   0  0  0  0  0  0  0  0  0  0  0  0
  149.2931  133.3912  154.1632 C   0  0  1  0  0  0  0  0  0  0  0  0
  149.5129  134.5546  155.1742 C   0  0  0  0  0  0  0  0  0  0  0  0
  149.8429  135.8263  154.5362 N   0  0  0  0  0  0  0  0  0  0  0  0
  150.7356  136.7129  155.0017 C   0  0  0  0  0  0  0  0  0  0  0  0
  151.3913  136.5320  156.0289 O   0  0  0  0  0  0  0  0  0  0  0  0
  150.9210  137.9840  154.1606 C   0  0  0  0  0  0  0  0  0  0  0  0
  149.8252  138.9547  154.3203 N   0  0  0  0  0  0  0  0  0  0  0  0
  148.5358  138.5342  153.9378 C   0  0  0  0  0  0  0  0  0  0  0  0
  147.4672  139.3405  154.0379 C   0  0  0  0  0  0  0  0  0  0  0  0
  147.6642  140.6737  154.5557 C   0  0  0  0  0  0  0  0  0  0  0  0
  148.8940  141.0873  154.9212 C   0  0  0  0  0  0  0  0  0  0  0  0
  150.0655  140.2103  154.8101 C   0  0  0  0  0  0  0  0  0  0  0  0
  151.1933  140.5817  155.1372 O   0  0  0  0  0  0  0  0  0  0  0  0
  149.4644  132.0493  154.7679 N   0  0  0  0  0  0  0  0  0  0  0  0
  149.3885  130.9710  153.7750 C   0  0  0  0  0  0  0  0  0  0  0  0
  149.5943  129.5760  154.3900 C   0  0  0  0  0  0  0  0  0  0  0  0
  150.8466  129.5294  155.0594 O   0  0  0  0  0  0  0  0  0  0  0  0
  150.9382  130.5078  156.0853 C   0  0  0  0  0  0  0  0  0  0  0  0
  150.7370  131.9108  155.4863 C   0  0  0  0  0  0  0  0  0  0  0  0
  147.7710  134.5774  153.0888 H   0  0  0  0  0  0  0  0  0  0  0  0
  147.0993  133.3851  154.1919 H   0  0  0  0  0  0  0  0  0  0  0  0
  147.7772  132.9102  152.6340 H   0  0  0  0  0  0  0  0  0  0  0  0
  150.0446  133.4997  153.3798 H   0  0  0  0  0  0  0  0  0  0  0  0
  148.6136  134.6994  155.7735 H   0  0  0  0  0  0  0  0  0  0  0  0
  150.3168  134.3423  155.8772 H   0  0  0  0  0  0  0  0  0  0  0  0
  149.3518  136.0494  153.6826 H   0  0  0  0  0  0  0  0  0  0  0  0
  151.8748  138.4365  154.4355 H   0  0  0  0  0  0  0  0  0  0  0  0
  151.0286  137.7099  153.1092 H   0  0  0  0  0  0  0  0  0  0  0  0
  148.4750  137.5261  153.5543 H   0  0  0  0  0  0  0  0  0  0  0  0
  146.4870  139.0022  153.7358 H   0  0  0  0  0  0  0  0  0  0  0  0
  146.8217  141.3428  154.6493 H   0  0  0  0  0  0  0  0  0  0  0  0
  149.0223  142.0886  155.3058 H   0  0  0  0  0  0  0  0  0  0  0  0
  148.4144  130.9635  153.2895 H   0  0  0  0  0  0  0  0  0  0  0  0
  150.1320  131.1348  152.9936 H   0  0  0  0  0  0  0  0  0  0  0  0
  148.7897  129.3382  155.0876 H   0  0  0  0  0  0  0  0  0  0  0  0
  149.5788  128.8134  153.6116 H   0  0  0  0  0  0  0  0  0  0  0  0
  150.1947  130.3073  156.8586 H   0  0  0  0  0  0  0  0  0  0  0  0
  151.9179  130.4359  156.5578 H   0  0  0  0  0  0  0  0  0  0  0  0
  151.5670  132.1405  154.8161 H   0  0  0  0  0  0  0  0  0  0  0  0
  150.7934  132.6146  156.3137 H   0  0  0  0  0  0  0  0  0  0  0  0
  1  2  1  0  0  0  0
  1 21  1  0  0  0  0
  1 22  1  0  0  0  0
  1 23  1  0  0  0  0
  2  3  1  0  0  0  0
  2 15  1  0  0  0  0
  2 24  1  0  0  0  0
  3  4  1  0  0  0  0
  3 25  1  0  0  0  0
  3 26  1  0  0  0  0
  4  5  1  0  0  0  0
  4 27  1  0  0  0  0
  5  6  2  0  0  0  0
  5  7  1  0  0  0  0
  7  8  1  0  0  0  0
  7 28  1  0  0  0  0
  7 29  1  0  0  0  0
  8 13  1  0  0  0  0
  8  9  1  0  0  0  0
  9 10  2  0  0  0  0
  9 30  1  0  0  0  0
 10 11  1  0  0  0  0
 10 31  1  0  0  0  0
 11 12  2  0  0  0  0
 11 32  1  0  0  0  0
 12 13  1  0  0  0  0
 12 33  1  0  0  0  0
 13 14  2  0  0  0  0
 15 20  1  0  0  0  0
 15 16  1  0  0  0  0
 16 17  1  0  0  0  0
 16 34  1  0  0  0  0
 16 35  1  0  0  0  0
 17 18  1  0  0  0  0
 17 36  1  0  0  0  0
 17 37  1  0  0  0  0
 18 19  1  0  0  0  0
 19 20  1  0  0  0  0
 19 38  1  0  0  0  0
 19 39  1  0  0  0  0
 20 40  1  0  0  0  0
 20 41  1  0  0  0  0
M  END
> <s_m_source_file>
AV-unprocessed.smi

> <i_m_source_file_index>
1835

> <i_lp_mmshare_version>
43012

> <i_f3d_flags>
0

> <s_epik_input>
W0NIMl0xW0NIMl1PW0NIMl1bQ0gyXU4xW0NASF0oW0NIM10pW0NIMl1bTkhdQyg9TylbQ0gyXW4yW2NIXVtjSF1bY0hdW2NIXWMyPU8=

> <s_epik_cmdline>
J2VwaWtfcHl0aG9uJywgJy1waCcsICc3LjAnLCAnLXRuJywgJzgnLCAnLW1hJywgJzIwMCcsICctbWV0YWxfYmluZGluZycsICctaW1hZScsICc8aW5maWxlLm1hZT4nLCAnLW9tYWUnLCAnPG91dGZpbGUubWFlPic=

> <r_lp_tautomer_probability>
1

> <r_epik_Ionization_Penalty>
0.237383

> <r_epik_Ionization_Penalty_Charging>
3.58805e-07

> <r_epik_Ionization_Penalty_Neutral>
0.237382

> <r_epik_State_Penalty>
0.228245

> <r_epik_Charging_Adjusted_Penalty>
0.228245

> <i_epik_Tot_Q>
0

> <i_epik_Tot_abs_Q>
0

> <r_epik_Metal_State_Penalty>
0.22822

> <b_epik_Metal_Only>
0

> <s_lp_Force_Field>
OPLS_2005

> <r_lp_Energy>
38.1368

> <b_lp_Chiralities_Consistent>
1

> <s_lp_Variant>
AV-unprocessed.smi:1835-2

> <Gold.Version>
5.8.1

> <Gold.Id.Protein>
6NUR|6NUR_protein|mol2

> <Gold.PLP.Fitness>
41.7612

> <Gold.PLP.PLP>
-32.0413

> <Gold.PLP.part.hbond>
-3.0756

> <Gold.PLP.part.metal>
0.0000

> <Gold.PLP.part.buried>
-2.8527

> <Gold.PLP.part.nonpolar>
-26.5634

> <Gold.PLP.part.repulsive>
0.2079

> <Gold.PLP.ligand.clash>
0.0000

> <Gold.PLP.ligand.torsion>
0.5494

> <Gold.PLP.Chemscore.Hbond>
2.5928

> <Gold.PLP.Chemscore.CHOScore>
1.0000

> <Gold.PLP.Chemscore.Metal>
0.0000

> <Gold.Chemscore.Hbonds>
donor molecule, donor type, donor heavy atom, donor atom, acceptor molecule, acceptor atom, score
      L1  H     4    27       P1  7948  1.00
      P1  H  7989  7998       L1    14  0.59
      P1  H 10752 10763       L1     6  0.32
      L1  C     9    30       P1  7948  1.00

> <Gold.PLP.Chemscore.Internal.Correction>
0.0402

> <Gold.Rescore>
     Score         DG    S(hbond)    S(metal)    S(lipo)     H(rot)  DE(clash)    DE(int)     intcor
     15.56     -16.52       2.52        0.00      63.78       1.89       0.12       0.83       ----

> <Gold.Chemscore.Fitness>
15.5611

> <Gold.Chemscore.DG>
-16.5167

> <Gold.Chemscore.ZeroCoef>
-5.4800

> <Gold.Chemscore.Hbond>
2.5174

> <Gold.Chemscore.Metal>
0.0000

> <Gold.Chemscore.Lipo>
63.7812

> <Gold.Chemscore.Internal_Hbond>
0.0000

> <Gold.Chemscore.DEClash>
0.1242

> <Gold.Chemscore.DEInternal>
0.8315

> <Gold.Chemscore.Rot>
1.8882

> <Gold.Chemscore.Internal.Correction>
   9.000000E+99

> <Gold.Chemscore.Hbonds>
donor molecule, donor type, donor heavy atom, donor atom, acceptor molecule, acceptor atom, score
      L1  H     4    27       P1  7948  0.70
      P1  H  7989  7998       L1    14  0.05
      P1  H 10752 10763       L1     6  0.07

> <Gold.Chemscore.Hbond.Weighted>
-8.4082

> <Gold.Chemscore.Metal.Weighted>
-0.0000

> <Gold.Chemscore.Lipo.Weighted>
-7.4624

> <Gold.Chemscore.Internal_Hbond.Weighted>
0.0000

> <Gold.Chemscore.DEClash.Weighted>
0.1242

> <Gold.Chemscore.DEInternal.Weighted>
0.8315

> <Gold.Chemscore.Rot.Weighted>
4.8338

> <Gold.Chemscore.Internal.Correction.Weighted>
   9.000000E+99

> <Gold.Protein.RotatedTorsions>
[ 6907 6896 6895 6894 ] final -163.84 input  -60.11 | X-H torsion
[ 7974 7965 7964 7962 ] final -158.75 input  175.53 | X-H torsion
[ 8008 7997 7996 7995 ] final  100.78 input   59.86 | X-H torsion
[ 10167 10162 10161 10158 ] final -126.85 input  -65.29 | X-H torsion
[ 10718 10713 10712 10709 ] final   54.54 input   66.30 | X-H torsion
[ 10763 10752 10751 10750 ] final   95.19 input  -60.55 | X-H torsion
[ 11005 11000 10999 10996 ] final  -63.97 input  -57.11 | X-H torsion

> <Gold.Protein.ActiveResidues>
 VAL166  LYS551  ARG553  GLY616  TRP617  ASP618  TYR619  PRO620  LYS621  CYS622 
 ASP623  PHE694  ASN695  SER759  ASP760  ASP761  ALA762  ILE779  LEU786  VAL792 
 PHE793  MET794  SER795  GLU796  ALA797  LYS798  CYS799  TRP800  GLU811  SER814 

> <Gold.Protein.RotatedAtoms>
  151.4023  133.3753  159.2733 H   0  0  0  0  0  0  0  0  0  0  0  0  # atno 6907 bound_to 6896
  150.9424  134.8833  159.7631 H   0  0  0  0  0  0  0  0  0  0  0  0  # atno 6908 bound_to 6896
  152.5077  134.3975  159.9457 H   0  0  0  0  0  0  0  0  0  0  0  0  # atno 6909 bound_to 6896
  144.7493  140.3783  143.6060 H   0  0  0  0  0  0  0  0  0  0  0  0  # atno 7974 bound_to 7965
  156.1236  140.3208  155.8244 H   0  0  0  0  0  0  0  0  0  0  0  0  # atno 8008 bound_to 7997
  155.4460  140.0529  157.3023 H   0  0  0  0  0  0  0  0  0  0  0  0  # atno 8009 bound_to 7997
  154.4846  140.2067  155.9699 H   0  0  0  0  0  0  0  0  0  0  0  0  # atno 8010 bound_to 7997
  139.9670  143.5887  152.2426 H   0  0  0  0  0  0  0  0  0  0  0  0  # atno 10167 bound_to 10162
  157.5266  130.8601  149.8630 H   0  0  0  0  0  0  0  0  0  0  0  0  # atno 10718 bound_to 10713
  153.2503  135.4263  155.0790 H   0  0  0  0  0  0  0  0  0  0  0  0  # atno 10763 bound_to 10752
  154.8378  135.3424  154.6523 H   0  0  0  0  0  0  0  0  0  0  0  0  # atno 10764 bound_to 10752
  153.6944  135.7032  153.5137 H   0  0  0  0  0  0  0  0  0  0  0  0  # atno 10765 bound_to 10752
  141.1410  133.6659  156.5761 H   0  0  0  0  0  0  0  0  0  0  0  0  # atno 11005 bound_to 11000
  145.7004  139.1660  143.2596 LP  0  0  0  0  0  0  0  0  0  0  0  0  # atno 17320 bound_to 7965
  146.1419  140.7045  142.9363 LP  0  0  0  0  0  0  0  0  0  0  0  0  # atno 17321 bound_to 7965
  139.6510  144.7660  151.2149 LP  0  0  0  0  0  0  0  0  0  0  0  0  # atno 17342 bound_to 10162
  140.7534  143.6161  150.8558 LP  0  0  0  0  0  0  0  0  0  0  0  0  # atno 17343 bound_to 10162
  156.0391  130.3743  150.1482 LP  0  0  0  0  0  0  0  0  0  0  0  0  # atno 17370 bound_to 10713
  156.9668  130.9822  151.3467 LP  0  0  0  0  0  0  0  0  0  0  0  0  # atno 17371 bound_to 10713
  140.3874  134.7470  157.4700 LP  0  0  0  0  0  0  0  0  0  0  0  0  # atno 17394 bound_to 11000
  140.0591  134.6020  155.8769 LP  0  0  0  0  0  0  0  0  0  0  0  0  # atno 17395 bound_to 11000

$$$$
