AV-unprocessed.smi:907|AV-procd|sdf|4106|dock3
  -GOLD-   22720 2 03D 1   1.00000     0.00000
 Structure written by MMmdl.
 53 56  0  0  0  0  0  0  0  0  2 V2000
  152.2335  139.4359  156.2604 O   0  0  0  0  0  0  0  0  0  0  0  0
  151.2746  139.6091  155.5072 C   0  0  0  0  0  0  0  0  0  0  0  0
  150.5851  140.7625  155.4805 N   0  0  0  0  0  0  0  0  0  0  0  0
  150.8844  141.9354  156.2945 C   0  0  0  0  0  0  0  0  0  0  0  0
  150.7251  141.6389  157.7952 C   0  0  0  0  0  0  0  0  0  0  0  0
  150.9522  142.8705  158.6506 C   0  0  0  0  0  0  0  0  0  0  0  0
  151.7532  142.8013  159.8103 C   0  0  0  0  0  0  0  0  0  0  0  0
  151.9398  143.9735  160.5679 C   0  0  0  0  0  0  0  0  0  0  0  0
  151.3227  145.1639  160.1377 C   0  0  0  0  0  0  0  0  0  0  0  0
  150.5433  145.1288  158.9641 C   0  0  0  0  0  0  0  0  0  0  0  0
  150.3579  144.0101  158.2303 N   0  0  0  0  0  0  0  0  0  0  0  0
  150.7918  138.6401  154.6902 N   0  0  0  0  0  0  0  0  0  0  0  0
  151.3704  137.3043  154.4961 C   0  0  0  0  0  0  0  0  0  0  0  0
  150.5121  136.2751  155.2551 C   0  0  0  0  0  0  0  0  0  0  0  0
  149.0815  136.3270  154.8347 N   0  3  0  0  0  0  0  0  0  0  0  0
  148.2354  135.3376  155.5624 C   0  0  2  0  0  0  0  0  0  0  0  0
  148.9560  134.0097  155.9025 C   0  0  0  0  0  0  0  0  0  0  0  0
  147.9660  132.9373  155.4092 C   0  0  2  0  0  0  0  0  0  0  0  0
  148.0388  132.8643  153.8744 C   0  0  0  0  0  0  0  0  0  0  0  0
  147.3748  134.1849  153.4462 C   0  0  0  0  0  0  0  0  0  0  0  0
  146.9879  134.8330  154.7939 C   0  0  1  0  0  0  0  0  0  0  0  0
  146.6146  133.6086  155.6232 C   0  0  0  0  0  0  0  0  0  0  0  0
  148.5337  137.7137  154.8760 C   0  0  0  0  0  0  0  0  0  0  0  0
  149.4418  138.7045  154.1262 C   0  0  0  0  0  0  0  0  0  0  0  0
  149.7924  140.8297  154.8589 H   0  0  0  0  0  0  0  0  0  0  0  0
  151.8942  142.2897  156.0807 H   0  0  0  0  0  0  0  0  0  0  0  0
  150.2065  142.7365  155.9987 H   0  0  0  0  0  0  0  0  0  0  0  0
  149.7267  141.2473  157.9957 H   0  0  0  0  0  0  0  0  0  0  0  0
  151.4253  140.8617  158.1040 H   0  0  0  0  0  0  0  0  0  0  0  0
  152.2161  141.8733  160.1131 H   0  0  0  0  0  0  0  0  0  0  0  0
  152.5454  143.9596  161.4618 H   0  0  0  0  0  0  0  0  0  0  0  0
  151.4443  146.0820  160.6931 H   0  0  0  0  0  0  0  0  0  0  0  0
  150.0559  146.0231  158.6054 H   0  0  0  0  0  0  0  0  0  0  0  0
  151.3778  137.0700  153.4306 H   0  0  0  0  0  0  0  0  0  0  0  0
  152.4086  137.2224  154.8179 H   0  0  0  0  0  0  0  0  0  0  0  0
  150.9248  135.2811  155.0875 H   0  0  0  0  0  0  0  0  0  0  0  0
  150.5786  136.4643  156.3278 H   0  0  0  0  0  0  0  0  0  0  0  0
  147.8976  135.8052  156.4894 H   0  0  0  0  0  0  0  0  0  0  0  0
  149.9229  133.8994  155.4104 H   0  0  0  0  0  0  0  0  0  0  0  0
  149.1198  133.9293  156.9778 H   0  0  0  0  0  0  0  0  0  0  0  0
  148.0860  131.9701  155.8980 H   0  0  0  0  0  0  0  0  0  0  0  0
  149.0618  132.7720  153.5076 H   0  0  0  0  0  0  0  0  0  0  0  0
  147.4720  132.0110  153.4995 H   0  0  0  0  0  0  0  0  0  0  0  0
  148.0391  134.8087  152.8483 H   0  0  0  0  0  0  0  0  0  0  0  0
  146.4856  133.9844  152.8472 H   0  0  0  0  0  0  0  0  0  0  0  0
  146.1898  135.5714  154.7135 H   0  0  0  0  0  0  0  0  0  0  0  0
  145.7793  133.0411  155.2086 H   0  0  0  0  0  0  0  0  0  0  0  0
  146.4058  133.8375  156.6698 H   0  0  0  0  0  0  0  0  0  0  0  0
  147.5424  137.7466  154.4253 H   0  0  0  0  0  0  0  0  0  0  0  0
  148.4212  138.0275  155.9151 H   0  0  0  0  0  0  0  0  0  0  0  0
  149.0166  139.7085  154.1673 H   0  0  0  0  0  0  0  0  0  0  0  0
  149.4819  138.4472  153.0665 H   0  0  0  0  0  0  0  0  0  0  0  0
  149.0638  136.0535  153.8626 H   0  0  0  0  0  0  0  0  0  0  0  0
  1  2  2  0  0  0  0
  2  3  1  0  0  0  0
  2 12  1  0  0  0  0
  3  4  1  0  0  0  0
  3 25  1  0  0  0  0
  4  5  1  0  0  0  0
  4 26  1  0  0  0  0
  4 27  1  0  0  0  0
  5  6  1  0  0  0  0
  5 28  1  0  0  0  0
  5 29  1  0  0  0  0
  6 11  1  0  0  0  0
  6  7  2  0  0  0  0
  7  8  1  0  0  0  0
  7 30  1  0  0  0  0
  8  9  2  0  0  0  0
  8 31  1  0  0  0  0
  9 10  1  0  0  0  0
  9 32  1  0  0  0  0
 10 11  2  0  0  0  0
 10 33  1  0  0  0  0
 12 24  1  0  0  0  0
 12 13  1  0  0  0  0
 13 14  1  0  0  0  0
 13 34  1  0  0  0  0
 13 35  1  0  0  0  0
 14 15  1  0  0  0  0
 14 36  1  0  0  0  0
 14 37  1  0  0  0  0
 15 16  1  0  0  0  0
 15 23  1  0  0  0  0
 15 53  1  0  0  0  0
 16 21  1  0  0  0  0
 16 17  1  0  0  0  0
 16 38  1  0  0  0  0
 17 18  1  0  0  0  0
 17 39  1  0  0  0  0
 17 40  1  0  0  0  0
 18 22  1  0  0  0  0
 18 19  1  0  0  0  0
 18 41  1  0  0  0  0
 19 20  1  0  0  0  0
 19 42  1  0  0  0  0
 19 43  1  0  0  0  0
 20 21  1  0  0  0  0
 20 44  1  0  0  0  0
 20 45  1  0  0  0  0
 21 22  1  0  0  0  0
 21 46  1  0  0  0  0
 22 47  1  0  0  0  0
 22 48  1  0  0  0  0
 23 24  1  0  0  0  0
 23 49  1  0  0  0  0
 23 50  1  0  0  0  0
 24 51  1  0  0  0  0
 24 52  1  0  0  0  0
M  CHG  1  15   1
M  END
> <s_m_source_file>
AV-unprocessed.smi

> <i_m_source_file_index>
907

> <i_lp_mmshare_version>
43012

> <i_f3d_flags>
0

> <s_epik_input>
W0NIMl0xW0NIMl1bQ0BASF0oW0NIMl0yKVtDQEBIXShbQ0gyXVtDQEhdMTIpTihbQ0gyXVtDSDJdMylbQ0gyXVtDSDJdTjNDKD1PKVtOSF1bQ0gyXVtDSDJdYzRbY0hdW2NIXVtjSF1bY0hdbjQ=

> <s_epik_cmdline>
J2VwaWtfcHl0aG9uJywgJy1waCcsICc3LjAnLCAnLXRuJywgJzgnLCAnLW1hJywgJzIwMCcsICctbWV0YWxfYmluZGluZycsICctaW1hZScsICc8aW5maWxlLm1hZT4nLCAnLW9tYWUnLCAnPG91dGZpbGUubWFlPic=

> <r_epik_Ionization_Penalty>
0.0419258

> <r_epik_Ionization_Penalty_Charging>
0.00262064

> <r_epik_Ionization_Penalty_Neutral>
0.0393052

> <r_epik_State_Penalty>
0.0329887

> <r_epik_Charging_Adjusted_Penalty>
0.0356093

> <i_epik_Tot_Q>
1

> <i_epik_Tot_abs_Q>
1

> <r_epik_Metal_State_Penalty>
0.0309172

> <b_epik_Metal_Only>
0

> <s_lp_Force_Field>
OPLS_2005

> <r_lp_Energy>
94.5265

> <b_lp_Chiralities_Consistent>
1

> <s_lp_Variant>
AV-unprocessed.smi:907-1

> <Gold.Version>
5.8.1

> <Gold.Id.Protein>
6NUR|6NUR_protein|mol2

> <Gold.PLP.Fitness>
52.7701

> <Gold.PLP.PLP>
-43.3322

> <Gold.PLP.part.hbond>
-2.2540

> <Gold.PLP.part.metal>
0.0000

> <Gold.PLP.part.buried>
0.1690

> <Gold.PLP.part.nonpolar>
-41.8877

> <Gold.PLP.part.repulsive>
0.5241

> <Gold.PLP.ligand.clash>
1.2268

> <Gold.PLP.ligand.torsion>
0.7425

> <Gold.PLP.Chemscore.Hbond>
3.0000

> <Gold.PLP.Chemscore.CHOScore>
0.9999

> <Gold.PLP.Chemscore.Metal>
0.0000

> <Gold.Chemscore.Hbonds>
donor molecule, donor type, donor heavy atom, donor atom, acceptor molecule, acceptor atom, score
      L1  H    15    53       P1  7948  2.00
      P1  H  7997  8010       L1     1  0.52
      L1  C    10    33       P1  8029  0.86

> <Gold.PLP.Chemscore.Internal.Correction>
0.1498

> <Gold.Rescore>
     Score         DG    S(hbond)    S(metal)    S(lipo)     H(rot)  DE(clash)    DE(int)     intcor
     20.57     -21.78       1.84        0.00     116.72       1.37       0.28       0.93       ----

> <Gold.Chemscore.Fitness>
20.5709

> <Gold.Chemscore.DG>
-21.7797

> <Gold.Chemscore.ZeroCoef>
-5.4800

> <Gold.Chemscore.Hbond>
1.8441

> <Gold.Chemscore.Metal>
0.0000

> <Gold.Chemscore.Lipo>
116.7158

> <Gold.Chemscore.Internal_Hbond>
0.0000

> <Gold.Chemscore.DEClash>
0.2801

> <Gold.Chemscore.DEInternal>
0.9287

> <Gold.Chemscore.Rot>
1.3731

> <Gold.Chemscore.Internal.Correction>
   9.000000E+99

> <Gold.Chemscore.Hbonds>
donor molecule, donor type, donor heavy atom, donor atom, acceptor molecule, acceptor atom, score
      L1  H    15    53       P1  7948  0.92
      P1  H  7997  8010       L1     1  0.52

> <Gold.Chemscore.Hbond.Weighted>
-6.1592

> <Gold.Chemscore.Metal.Weighted>
-0.0000

> <Gold.Chemscore.Lipo.Weighted>
-13.6557

> <Gold.Chemscore.Internal_Hbond.Weighted>
0.0000

> <Gold.Chemscore.DEClash.Weighted>
0.2801

> <Gold.Chemscore.DEInternal.Weighted>
0.9287

> <Gold.Chemscore.Rot.Weighted>
3.5152

> <Gold.Chemscore.Internal.Correction.Weighted>
   9.000000E+99

> <Gold.Protein.RotatedTorsions>
[ 6907 6896 6895 6894 ] final  172.22 input  -60.11 | X-H torsion
[ 7974 7965 7964 7962 ] final  136.22 input  175.53 | X-H torsion
[ 8008 7997 7996 7995 ] final   84.00 input   59.86 | X-H torsion
[ 10167 10162 10161 10158 ] final   72.71 input  -65.29 | X-H torsion
[ 10718 10713 10712 10709 ] final  164.59 input   66.30 | X-H torsion
[ 10763 10752 10751 10750 ] final  143.93 input  -60.55 | X-H torsion
[ 11005 11000 10999 10996 ] final  -12.17 input  -57.11 | X-H torsion

> <Gold.Protein.ActiveResidues>
 VAL166  LYS551  ARG553  GLY616  TRP617  ASP618  TYR619  PRO620  LYS621  CYS622 
 ASP623  PHE694  ASN695  SER759  ASP760  ASP761  ALA762  ILE779  LEU786  VAL792 
 PHE793  MET794  SER795  GLU796  ALA797  LYS798  CYS799  TRP800  GLU811  SER814 

> <Gold.Protein.RotatedAtoms>
  151.7877  133.3356  159.3489 H   0  0  0  0  0  0  0  0  0  0  0  0  # atno 6907 bound_to 6896
  150.7403  134.5871  159.5978 H   0  0  0  0  0  0  0  0  0  0  0  0  # atno 6908 bound_to 6896
  152.3232  134.7356  160.0360 H   0  0  0  0  0  0  0  0  0  0  0  0  # atno 6909 bound_to 6896
  144.9586  139.4736  143.5490 H   0  0  0  0  0  0  0  0  0  0  0  0  # atno 7974 bound_to 7965
  155.9313  140.3414  155.6252 H   0  0  0  0  0  0  0  0  0  0  0  0  # atno 8008 bound_to 7997
  155.7153  140.0777  157.2372 H   0  0  0  0  0  0  0  0  0  0  0  0  # atno 8009 bound_to 7997
  154.4086  140.1615  156.2329 H   0  0  0  0  0  0  0  0  0  0  0  0  # atno 8010 bound_to 7997
  140.0323  144.5455  150.7497 H   0  0  0  0  0  0  0  0  0  0  0  0  # atno 10167 bound_to 10162
  157.0921  131.0420  151.2533 H   0  0  0  0  0  0  0  0  0  0  0  0  # atno 10718 bound_to 10713
  153.9806  135.2941  155.3420 H   0  0  0  0  0  0  0  0  0  0  0  0  # atno 10763 bound_to 10752
  154.7271  135.5084  153.8907 H   0  0  0  0  0  0  0  0  0  0  0  0  # atno 10764 bound_to 10752
  153.0856  135.6692  154.0069 H   0  0  0  0  0  0  0  0  0  0  0  0  # atno 10765 bound_to 10752
  140.7629  133.8500  155.9140 H   0  0  0  0  0  0  0  0  0  0  0  0  # atno 11005 bound_to 11000
  146.3345  139.8721  142.8838 LP  0  0  0  0  0  0  0  0  0  0  0  0  # atno 17320 bound_to 7965
  145.2734  141.0116  143.3759 LP  0  0  0  0  0  0  0  0  0  0  0  0  # atno 17321 bound_to 7965
  140.7296  143.2675  151.3997 LP  0  0  0  0  0  0  0  0  0  0  0  0  # atno 17342 bound_to 10162
  139.6068  144.1181  152.2257 LP  0  0  0  0  0  0  0  0  0  0  0  0  # atno 17343 bound_to 10162
  157.4712  130.7710  149.7325 LP  0  0  0  0  0  0  0  0  0  0  0  0  # atno 17370 bound_to 10713
  155.9895  130.3951  150.3069 LP  0  0  0  0  0  0  0  0  0  0  0  0  # atno 17371 bound_to 10713
  140.9646  134.1611  157.4626 LP  0  0  0  0  0  0  0  0  0  0  0  0  # atno 17394 bound_to 11000
  139.8768  134.9957  156.5756 LP  0  0  0  0  0  0  0  0  0  0  0  0  # atno 17395 bound_to 11000

$$$$
