AV-unprocessed.smi:753|AV-procd|sdf|3605|dock9
  -GOLD-   22720 1 03D 1   1.00000     0.00000
 Structure written by MMmdl.
 44 46  0  0  0  0  0  0  0  0  2 V2000
  149.5121  132.9115  154.2138 C   0  0  0  0  0  0  0  0  0  0  0  0
  150.0975  134.1108  154.9286 C   0  0  0  0  0  0  0  0  0  0  0  0
  150.8363  133.9871  156.1247 C   0  0  0  0  0  0  0  0  0  0  0  0
  151.3477  135.1476  156.7413 C   0  0  0  0  0  0  0  0  0  0  0  0
  151.1118  136.4081  156.1491 C   0  0  0  0  0  0  0  0  0  0  0  0
  151.6164  137.6821  156.8043 C   0  0  0  0  0  0  0  0  0  0  0  0
  151.1908  137.8297  158.2782 C   0  0  0  0  0  0  0  0  0  0  0  0
  151.1020  139.2259  158.6991 N   0  0  0  0  0  0  0  0  0  0  0  0
  152.0257  140.1754  158.4674 C   0  0  0  0  0  0  0  0  0  0  0  0
  153.0688  139.9719  157.8488 O   0  0  0  0  0  0  0  0  0  0  0  0
  151.7164  141.3896  158.9543 N   0  0  0  0  0  0  0  0  0  0  0  0
  152.5064  142.6205  158.8679 C   0  0  2  0  0  0  0  0  0  0  0  0
  152.7727  143.2112  160.2706 C   0  0  0  0  0  0  0  0  0  0  0  0
  152.1693  144.6247  160.1751 C   0  0  2  0  0  0  0  0  0  0  0  0
  150.6321  144.5291  160.1415 C   0  0  0  0  0  0  0  0  0  0  0  0
  150.3546  143.9934  158.7243 C   0  0  0  0  0  0  0  0  0  0  0  0
  151.7762  143.7897  158.1567 C   0  0  1  0  0  0  0  0  0  0  0  0
  152.4956  145.0028  158.7365 C   0  0  0  0  0  0  0  0  0  0  0  0
  150.3745  136.4692  154.9475 C   0  0  0  0  0  0  0  0  0  0  0  0
  149.8988  135.3347  154.3897 N   0  3  0  0  0  0  0  0  0  0  0  0
  149.4327  132.0570  154.8866 H   0  0  0  0  0  0  0  0  0  0  0  0
  150.1443  132.6279  153.3723 H   0  0  0  0  0  0  0  0  0  0  0  0
  148.5145  133.1366  153.8350 H   0  0  0  0  0  0  0  0  0  0  0  0
  151.0055  133.0172  156.5691 H   0  0  0  0  0  0  0  0  0  0  0  0
  151.9042  135.0686  157.6639 H   0  0  0  0  0  0  0  0  0  0  0  0
  152.7043  137.7184  156.7320 H   0  0  0  0  0  0  0  0  0  0  0  0
  151.2474  138.5338  156.2319 H   0  0  0  0  0  0  0  0  0  0  0  0
  150.2098  137.3750  158.4183 H   0  0  0  0  0  0  0  0  0  0  0  0
  151.8739  137.2780  158.9264 H   0  0  0  0  0  0  0  0  0  0  0  0
  150.2770  139.4910  159.2173 H   0  0  0  0  0  0  0  0  0  0  0  0
  150.8218  141.4758  159.4148 H   0  0  0  0  0  0  0  0  0  0  0  0
  153.4625  142.4182  158.3816 H   0  0  0  0  0  0  0  0  0  0  0  0
  152.3240  142.6312  161.0785 H   0  0  0  0  0  0  0  0  0  0  0  0
  153.8451  143.2640  160.4626 H   0  0  0  0  0  0  0  0  0  0  0  0
  152.5488  145.3128  160.9310 H   0  0  0  0  0  0  0  0  0  0  0  0
  150.2439  143.8691  160.9181 H   0  0  0  0  0  0  0  0  0  0  0  0
  150.1748  145.5101  160.2766 H   0  0  0  0  0  0  0  0  0  0  0  0
  149.7487  143.0874  158.7273 H   0  0  0  0  0  0  0  0  0  0  0  0
  149.8154  144.7390  158.1385 H   0  0  0  0  0  0  0  0  0  0  0  0
  151.8025  143.7247  157.0684 H   0  0  0  0  0  0  0  0  0  0  0  0
  152.0599  145.9552  158.4293 H   0  0  0  0  0  0  0  0  0  0  0  0
  153.5662  145.0143  158.5238 H   0  0  0  0  0  0  0  0  0  0  0  0
  150.1381  137.3863  154.4282 H   0  0  0  0  0  0  0  0  0  0  0  0
  149.3609  135.4059  153.5259 H   0  0  0  0  0  0  0  0  0  0  0  0
  1  2  1  0  0  0  0
  1 21  1  0  0  0  0
  1 22  1  0  0  0  0
  1 23  1  0  0  0  0
  2 20  1  0  0  0  0
  2  3  2  0  0  0  0
  3  4  1  0  0  0  0
  3 24  1  0  0  0  0
  4  5  2  0  0  0  0
  4 25  1  0  0  0  0
  5  6  1  0  0  0  0
  5 19  1  0  0  0  0
  6  7  1  0  0  0  0
  6 26  1  0  0  0  0
  6 27  1  0  0  0  0
  7  8  1  0  0  0  0
  7 28  1  0  0  0  0
  7 29  1  0  0  0  0
  8  9  1  0  0  0  0
  8 30  1  0  0  0  0
  9 10  2  0  0  0  0
  9 11  1  0  0  0  0
 11 12  1  0  0  0  0
 11 31  1  0  0  0  0
 12 17  1  0  0  0  0
 12 13  1  0  0  0  0
 12 32  1  0  0  0  0
 13 14  1  0  0  0  0
 13 33  1  0  0  0  0
 13 34  1  0  0  0  0
 14 18  1  0  0  0  0
 14 15  1  0  0  0  0
 14 35  1  0  0  0  0
 15 16  1  0  0  0  0
 15 36  1  0  0  0  0
 15 37  1  0  0  0  0
 16 17  1  0  0  0  0
 16 38  1  0  0  0  0
 16 39  1  0  0  0  0
 17 18  1  0  0  0  0
 17 40  1  0  0  0  0
 18 41  1  0  0  0  0
 18 42  1  0  0  0  0
 19 20  2  0  0  0  0
 19 43  1  0  0  0  0
 20 44  1  0  0  0  0
M  CHG  1  20   1
M  END
> <s_m_source_file>
AV-unprocessed.smi

> <i_m_source_file_index>
753

> <i_lp_mmshare_version>
43012

> <i_f3d_flags>
0

> <s_epik_input>
W0NIM11jMVtjSF1bY0hdYyhbY0hdbjEpW0NIMl1bQ0gyXVtOSF1DKD1PKVtOSF1bQ0BIXShbQ0gyXVtDQEBIXTIzKVtDQEBIXShbQ0gyXTMpW0NIMl1bQ0gyXTI=

> <s_epik_cmdline>
J2VwaWtfcHl0aG9uJywgJy1waCcsICc3LjAnLCAnLXRuJywgJzgnLCAnLW1hJywgJzIwMCcsICctbWV0YWxfYmluZGluZycsICctaW1hZScsICc8aW5maWxlLm1hZT4nLCAnLW9tYWUnLCAnPG91dGZpbGUubWFlPic=

> <r_epik_Ionization_Penalty>
1.41708

> <r_epik_Ionization_Penalty_Charging>
1.41702

> <r_epik_Ionization_Penalty_Neutral>
5.73163e-05

> <r_epik_State_Penalty>
1.50048

> <r_epik_Charging_Adjusted_Penalty>
2.9175

> <i_epik_Tot_Q>
1

> <i_epik_Tot_abs_Q>
1

> <r_epik_Metal_State_Penalty>
1.55295

> <b_epik_Metal_Only>
0

> <s_lp_Force_Field>
OPLS_2005

> <r_lp_Energy>
59.6045

> <b_lp_Chiralities_Consistent>
1

> <s_lp_Variant>
AV-unprocessed.smi:753-7

> <Gold.Version>
5.8.1

> <Gold.Id.Protein>
6NUR|6NUR_protein|mol2

> <Gold.PLP.Fitness>
48.3373

> <Gold.PLP.PLP>
-39.8860

> <Gold.PLP.part.hbond>
-2.3752

> <Gold.PLP.part.metal>
0.0000

> <Gold.PLP.part.buried>
-4.7261

> <Gold.PLP.part.nonpolar>
-33.0540

> <Gold.PLP.part.repulsive>
0.3294

> <Gold.PLP.ligand.clash>
0.0000

> <Gold.PLP.ligand.torsion>
0.2864

> <Gold.PLP.Chemscore.Hbond>
3.0000

> <Gold.PLP.Chemscore.CHOScore>
0.0000

> <Gold.PLP.Chemscore.Metal>
0.0000

> <Gold.Chemscore.Hbonds>
donor molecule, donor type, donor heavy atom, donor atom, acceptor molecule, acceptor atom, score
      L1  H    20    44       P1  7948  1.90
      P1  H  7997  8009       L1    10  1.00

> <Gold.PLP.Chemscore.Internal.Correction>
0.0241

> <Gold.Rescore>
     Score         DG    S(hbond)    S(metal)    S(lipo)     H(rot)  DE(clash)    DE(int)     intcor
     19.08     -20.69       1.63        0.00     116.22       1.50       0.08       1.52       ----

> <Gold.Chemscore.Fitness>
19.0844

> <Gold.Chemscore.DG>
-20.6851

> <Gold.Chemscore.ZeroCoef>
-5.4800

> <Gold.Chemscore.Hbond>
1.6330

> <Gold.Chemscore.Metal>
0.0000

> <Gold.Chemscore.Lipo>
116.2199

> <Gold.Chemscore.Internal_Hbond>
0.0000

> <Gold.Chemscore.DEClash>
0.0811

> <Gold.Chemscore.DEInternal>
1.5196

> <Gold.Chemscore.Rot>
1.5027

> <Gold.Chemscore.Internal.Correction>
   9.000000E+99

> <Gold.Chemscore.Hbonds>
donor molecule, donor type, donor heavy atom, donor atom, acceptor molecule, acceptor atom, score
      L1  H    20    44       P1  7948  0.21
      P1  H  7997  8009       L1    10  0.96

> <Gold.Chemscore.Hbond.Weighted>
-5.4542

> <Gold.Chemscore.Metal.Weighted>
-0.0000

> <Gold.Chemscore.Lipo.Weighted>
-13.5977

> <Gold.Chemscore.Internal_Hbond.Weighted>
0.0000

> <Gold.Chemscore.DEClash.Weighted>
0.0811

> <Gold.Chemscore.DEInternal.Weighted>
1.5196

> <Gold.Chemscore.Rot.Weighted>
3.8468

> <Gold.Chemscore.Internal.Correction.Weighted>
   9.000000E+99

> <Gold.Protein.RotatedTorsions>
[ 6907 6896 6895 6894 ] final  -57.67 input  -60.11 | X-H torsion
[ 7974 7965 7964 7962 ] final   51.61 input  175.53 | X-H torsion
[ 8008 7997 7996 7995 ] final  152.57 input   59.86 | X-H torsion
[ 10167 10162 10161 10158 ] final  177.44 input  -65.29 | X-H torsion
[ 10718 10713 10712 10709 ] final -118.43 input   66.30 | X-H torsion
[ 10763 10752 10751 10750 ] final  119.50 input  -60.55 | X-H torsion
[ 11005 11000 10999 10996 ] final   -1.67 input  -57.11 | X-H torsion

> <Gold.Protein.ActiveResidues>
 VAL166  LYS551  ARG553  GLY616  TRP617  ASP618  TYR619  PRO620  LYS621  CYS622 
 ASP623  PHE694  ASN695  SER759  ASP760  ASP761  ALA762  ILE779  LEU786  VAL792 
 PHE793  MET794  SER795  GLU796  ALA797  LYS798  CYS799  TRP800  GLU811  SER814 

> <Gold.Protein.RotatedAtoms>
  150.8067  134.7197  159.6650 H   0  0  0  0  0  0  0  0  0  0  0  0  # atno 6907 bound_to 6896
  152.4187  134.5992  160.0005 H   0  0  0  0  0  0  0  0  0  0  0  0  # atno 6908 bound_to 6896
  151.6214  133.3302  159.3125 H   0  0  0  0  0  0  0  0  0  0  0  0  # atno 6909 bound_to 6896
  145.9896  139.4325  143.0082 H   0  0  0  0  0  0  0  0  0  0  0  0  # atno 7974 bound_to 7965
  156.2623  140.2017  156.6354 H   0  0  0  0  0  0  0  0  0  0  0  0  # atno 8008 bound_to 7997
  154.6650  140.0556  157.0128 H   0  0  0  0  0  0  0  0  0  0  0  0  # atno 8009 bound_to 7997
  155.1220  140.3225  155.4498 H   0  0  0  0  0  0  0  0  0  0  0  0  # atno 8010 bound_to 7997
  139.5253  144.2798  152.0556 H   0  0  0  0  0  0  0  0  0  0  0  0  # atno 10167 bound_to 10162
  156.1106  130.6245  150.9290 H   0  0  0  0  0  0  0  0  0  0  0  0  # atno 10718 bound_to 10713
  153.5839  135.3478  155.2885 H   0  0  0  0  0  0  0  0  0  0  0  0  # atno 10763 bound_to 10752
  154.8663  135.4188  154.2590 H   0  0  0  0  0  0  0  0  0  0  0  0  # atno 10764 bound_to 10752
  153.3382  135.7048  153.6960 H   0  0  0  0  0  0  0  0  0  0  0  0  # atno 10765 bound_to 10752
  140.6498  133.9414  155.8374 H   0  0  0  0  0  0  0  0  0  0  0  0  # atno 11005 bound_to 11000
  145.7649  140.9920  143.1180 LP  0  0  0  0  0  0  0  0  0  0  0  0  # atno 17320 bound_to 7965
  144.6885  139.9376  143.7474 LP  0  0  0  0  0  0  0  0  0  0  0  0  # atno 17321 bound_to 7965
  140.2254  144.4423  150.6323 LP  0  0  0  0  0  0  0  0  0  0  0  0  # atno 17342 bound_to 10162
  140.6391  143.2200  151.6330 LP  0  0  0  0  0  0  0  0  0  0  0  0  # atno 17343 bound_to 10162
  157.6286  131.0923  150.8485 LP  0  0  0  0  0  0  0  0  0  0  0  0  # atno 17370 bound_to 10713
  156.8596  130.5108  149.5305 LP  0  0  0  0  0  0  0  0  0  0  0  0  # atno 17371 bound_to 10713
  141.0545  134.0437  157.3741 LP  0  0  0  0  0  0  0  0  0  0  0  0  # atno 17394 bound_to 11000
  139.9050  135.0176  156.7443 LP  0  0  0  0  0  0  0  0  0  0  0  0  # atno 17395 bound_to 11000

$$$$
