AV-unprocessed.smi:514|AV-procd|sdf|2778|dock9
  -GOLD-   2262023253D 1   1.00000     0.00000
 Structure written by MMmdl.
 45 47  0  0  0  0  0  0  0  0  3 V2000
  149.6926  133.5265  154.2793 C   0  0  0  0  0  0  0  0  0  0  0  0
  149.6136  134.9806  154.7496 C   0  0  0  0  0  0  0  0  0  0  0  0
  150.9019  135.3990  155.1672 O   0  0  0  0  0  0  0  0  0  0  0  0
  150.8656  136.5781  155.9530 C   0  0  0  0  0  0  0  0  0  0  0  0
  150.9534  137.7944  155.0170 C   0  0  0  0  0  0  0  0  0  0  0  0
  150.8296  139.0601  155.7353 N   0  0  0  0  0  0  0  0  0  0  0  0
  149.9506  140.0843  155.5290 C   0  0  0  0  0  0  0  0  0  0  0  0
  148.9503  140.0687  154.5453 N   0  0  0  0  0  0  0  0  0  0  0  0
  148.1640  138.8747  154.2305 C   0  0  0  0  0  0  0  0  0  0  0  0
  146.6541  139.1741  154.2161 C   0  0  0  0  0  0  0  0  0  0  0  0
  146.3475  140.2576  153.2610 N   0  3  0  0  0  0  0  0  0  0  0  0
  147.1748  141.4594  153.4869 C   0  0  0  0  0  0  0  0  0  0  0  0
  148.6682  141.0848  153.5285 C   0  0  0  0  0  0  0  0  0  0  0  0
  150.1451  141.1382  156.3256 N   0  0  0  0  0  0  0  0  0  0  0  0
  151.2160  140.7536  157.1144 C   0  0  0  0  0  0  0  0  0  0  0  0
  151.6516  139.5120  156.7749 C   0  0  0  0  0  0  0  0  0  0  0  0
  152.8048  138.8434  157.4203 C   0  0  0  0  0  0  0  0  0  0  0  0
  153.1777  137.7295  157.0586 O   0  0  0  0  0  0  0  0  0  0  0  0
  153.3576  139.6082  158.4143 N   0  5  0  0  0  0  0  0  0  0  0  0
  152.9426  140.8664  158.7942 C   0  0  0  0  0  0  0  0  0  0  0  0
  153.4968  141.4877  159.7020 O   0  0  0  0  0  0  0  0  0  0  0  0
  151.8849  141.4561  158.1533 N   0  0  0  0  0  0  0  0  0  0  0  0
  151.4280  142.7974  158.5280 C   0  0  0  0  0  0  0  0  0  0  0  0
  148.7162  133.1706  153.9504 H   0  0  0  0  0  0  0  0  0  0  0  0
  150.0335  132.8738  155.0831 H   0  0  0  0  0  0  0  0  0  0  0  0
  150.3864  133.4221  153.4448 H   0  0  0  0  0  0  0  0  0  0  0  0
  149.2559  135.6150  153.9374 H   0  0  0  0  0  0  0  0  0  0  0  0
  148.9043  135.0664  155.5741 H   0  0  0  0  0  0  0  0  0  0  0  0
  149.9475  136.6026  156.5403 H   0  0  0  0  0  0  0  0  0  0  0  0
  151.6927  136.5798  156.6630 H   0  0  0  0  0  0  0  0  0  0  0  0
  151.8987  137.7855  154.4749 H   0  0  0  0  0  0  0  0  0  0  0  0
  150.1936  137.7405  154.2416 H   0  0  0  0  0  0  0  0  0  0  0  0
  148.4827  138.4806  153.2646 H   0  0  0  0  0  0  0  0  0  0  0  0
  148.3624  138.0910  154.9622 H   0  0  0  0  0  0  0  0  0  0  0  0
  146.0898  138.2827  153.9419 H   0  0  0  0  0  0  0  0  0  0  0  0
  146.3209  139.4713  155.2114 H   0  0  0  0  0  0  0  0  0  0  0  0
  146.5339  139.9174  152.3286 H   0  0  0  0  0  0  0  0  0  0  0  0
  146.9840  142.1814  152.6930 H   0  0  0  0  0  0  0  0  0  0  0  0
  146.8707  141.9271  154.4238 H   0  0  0  0  0  0  0  0  0  0  0  0
  149.2733  141.9732  153.6791 H   0  0  0  0  0  0  0  0  0  0  0  0
  148.9725  140.6925  152.5569 H   0  0  0  0  0  0  0  0  0  0  0  0
  151.0686  142.8034  159.5578 H   0  0  0  0  0  0  0  0  0  0  0  0
  150.6170  143.1575  157.8957 H   0  0  0  0  0  0  0  0  0  0  0  0
  152.2438  143.5171  158.4468 H   0  0  0  0  0  0  0  0  0  0  0  0
  145.3703  140.5026  153.3318 H   0  0  0  0  0  0  0  0  0  0  0  0
  1  2  1  0  0  0  0
  1 24  1  0  0  0  0
  1 25  1  0  0  0  0
  1 26  1  0  0  0  0
  2  3  1  0  0  0  0
  2 27  1  0  0  0  0
  2 28  1  0  0  0  0
  3  4  1  0  0  0  0
  4  5  1  0  0  0  0
  4 29  1  0  0  0  0
  4 30  1  0  0  0  0
  5  6  1  0  0  0  0
  5 31  1  0  0  0  0
  5 32  1  0  0  0  0
  6 16  1  0  0  0  0
  6  7  1  0  0  0  0
  7  8  1  0  0  0  0
  7 14  2  0  0  0  0
  8 13  1  0  0  0  0
  8  9  1  0  0  0  0
  9 10  1  0  0  0  0
  9 33  1  0  0  0  0
  9 34  1  0  0  0  0
 10 11  1  0  0  0  0
 10 35  1  0  0  0  0
 10 36  1  0  0  0  0
 11 12  1  0  0  0  0
 11 37  1  0  0  0  0
 11 45  1  0  0  0  0
 12 13  1  0  0  0  0
 12 38  1  0  0  0  0
 12 39  1  0  0  0  0
 13 40  1  0  0  0  0
 13 41  1  0  0  0  0
 14 15  1  0  0  0  0
 15 22  1  0  0  0  0
 15 16  2  0  0  0  0
 16 17  1  0  0  0  0
 17 18  2  0  0  0  0
 17 19  1  0  0  0  0
 19 20  1  0  0  0  0
 20 21  2  0  0  0  0
 20 22  1  0  0  0  0
 22 23  1  0  0  0  0
 23 42  1  0  0  0  0
 23 43  1  0  0  0  0
 23 44  1  0  0  0  0
M  CHG  1  11   1
M  CHG  1  19  -1
M  END
> <s_m_source_file>
AV-unprocessed.smi

> <i_m_source_file_index>
514

> <i_lp_mmshare_version>
43012

> <i_f3d_flags>
0

> <s_epik_input>
W0NIM11uMWMoPU8pW25IXWMoPU8pYyhjMTIpbihbQ0gyXVtDSDJdT1tDSDJdW0NIM10pYyhuMilOM1tDSDJdW0NIMl1bTkhdW0NIMl1bQ0gyXTM=

> <s_epik_cmdline>
J2VwaWtfcHl0aG9uJywgJy1waCcsICc3LjAnLCAnLXRuJywgJzgnLCAnLW1hJywgJzIwMCcsICctbWV0YWxfYmluZGluZycsICctaW1hZScsICc8aW5maWxlLm1hZT4nLCAnLW9tYWUnLCAnPG91dGZpbGUubWFlPic=

> <r_epik_Ionization_Penalty>
5.92505

> <r_epik_Ionization_Penalty_Charging>
0.0655308

> <r_epik_Ionization_Penalty_Neutral>
5.85952

> <r_epik_State_Penalty>
5.86593

> <r_epik_Charging_Adjusted_Penalty>
5.93146

> <i_epik_Tot_Q>
0

> <i_epik_Tot_abs_Q>
2

> <r_epik_Metal_State_Penalty>
1.83024

> <b_epik_Metal_Only>
1

> <s_lp_Force_Field>
OPLS_2005

> <r_lp_Energy>
48.6867

> <b_lp_Chiralities_Consistent>
1

> <s_lp_Variant>
AV-unprocessed.smi:514-3

> <Gold.Version>
5.8.1

> <Gold.Id.Protein>
6NUR|6NUR_protein|mol2

> <Gold.PLP.Fitness>
40.2155

> <Gold.PLP.PLP>
-31.0432

> <Gold.PLP.part.hbond>
-3.0000

> <Gold.PLP.part.metal>
0.0000

> <Gold.PLP.part.buried>
-0.0559

> <Gold.PLP.part.nonpolar>
-26.0611

> <Gold.PLP.part.repulsive>
0.1879

> <Gold.PLP.ligand.clash>
0.0000

> <Gold.PLP.ligand.torsion>
0.9989

> <Gold.PLP.Chemscore.Hbond>
3.6920

> <Gold.PLP.Chemscore.CHOScore>
0.0000

> <Gold.PLP.Chemscore.Metal>
0.0000

> <Gold.Chemscore.Hbonds>
donor molecule, donor type, donor heavy atom, donor atom, acceptor molecule, acceptor atom, score
      L1  H    11    45       P1 10175  1.86
      P1  H  7997  8010       L1    19  0.84
      P1  H 10752 10765       L1     3  0.65

> <Gold.PLP.Chemscore.Internal.Correction>
0.0940

> <Gold.Rescore>
     Score         DG    S(hbond)    S(metal)    S(lipo)     H(rot)  DE(clash)    DE(int)     intcor
      8.88     -12.83       1.48        0.00      58.14       1.72       1.53       2.42       ----

> <Gold.Chemscore.Fitness>
8.8805

> <Gold.Chemscore.DG>
-12.8316

> <Gold.Chemscore.ZeroCoef>
-5.4800

> <Gold.Chemscore.Hbond>
1.4839

> <Gold.Chemscore.Metal>
0.0000

> <Gold.Chemscore.Lipo>
58.1381

> <Gold.Chemscore.Internal_Hbond>
0.0000

> <Gold.Chemscore.DEClash>
1.5263

> <Gold.Chemscore.DEInternal>
2.4248

> <Gold.Chemscore.Rot>
1.7214

> <Gold.Chemscore.Internal.Correction>
   9.000000E+99

> <Gold.Chemscore.Hbonds>
donor molecule, donor type, donor heavy atom, donor atom, acceptor molecule, acceptor atom, score
      L1  H    11    45       P1 10175  0.86
      P1  H  7997  8010       L1    19  0.01
      P1  H 10752 10765       L1     3  0.11

> <Gold.Chemscore.Hbond.Weighted>
-4.9563

> <Gold.Chemscore.Metal.Weighted>
-0.0000

> <Gold.Chemscore.Lipo.Weighted>
-6.8022

> <Gold.Chemscore.Internal_Hbond.Weighted>
0.0000

> <Gold.Chemscore.DEClash.Weighted>
1.5263

> <Gold.Chemscore.DEInternal.Weighted>
2.4248

> <Gold.Chemscore.Rot.Weighted>
4.4069

> <Gold.Chemscore.Internal.Correction.Weighted>
   9.000000E+99

> <Gold.Protein.RotatedTorsions>
[ 6907 6896 6895 6894 ] final   34.34 input  -60.11 | X-H torsion
[ 7974 7965 7964 7962 ] final   67.86 input  175.53 | X-H torsion
[ 8008 7997 7996 7995 ] final    0.52 input   59.86 | X-H torsion
[ 10167 10162 10161 10158 ] final -141.60 input  -65.29 | X-H torsion
[ 10718 10713 10712 10709 ] final  176.67 input   66.30 | X-H torsion
[ 10763 10752 10751 10750 ] final  176.11 input  -60.55 | X-H torsion
[ 11005 11000 10999 10996 ] final  162.01 input  -57.11 | X-H torsion

> <Gold.Protein.ActiveResidues>
 VAL166  LYS551  ARG553  GLY616  TRP617  ASP618  TYR619  PRO620  LYS621  CYS622 
 ASP623  PHE694  ASN695  SER759  ASP760  ASP761  ALA762  ILE779  LEU786  VAL792 
 PHE793  MET794  SER795  GLU796  ALA797  LYS798  CYS799  TRP800  GLU811  SER814 

> <Gold.Protein.RotatedAtoms>
  152.1011  134.9341  160.0569 H   0  0  0  0  0  0  0  0  0  0  0  0  # atno 6907 bound_to 6896
  152.0555  133.4033  159.4404 H   0  0  0  0  0  0  0  0  0  0  0  0  # atno 6908 bound_to 6896
  150.6839  134.3179  159.4818 H   0  0  0  0  0  0  0  0  0  0  0  0  # atno 6909 bound_to 6896
  145.8095  139.3025  143.1107 H   0  0  0  0  0  0  0  0  0  0  0  0  # atno 7974 bound_to 7965
  154.6690  140.2607  155.7027 H   0  0  0  0  0  0  0  0  0  0  0  0  # atno 8008 bound_to 7997
  156.2651  140.2833  156.1114 H   0  0  0  0  0  0  0  0  0  0  0  0  # atno 8009 bound_to 7997
  155.1196  140.0377  157.2736 H   0  0  0  0  0  0  0  0  0  0  0  0  # atno 8010 bound_to 7997
  139.8169  143.7627  152.2665 H   0  0  0  0  0  0  0  0  0  0  0  0  # atno 10167 bound_to 10162
  156.9167  130.9927  151.3011 H   0  0  0  0  0  0  0  0  0  0  0  0  # atno 10718 bound_to 10713
  154.4767  135.2773  155.1602 H   0  0  0  0  0  0  0  0  0  0  0  0  # atno 10763 bound_to 10752
  154.3329  135.6186  153.5563 H   0  0  0  0  0  0  0  0  0  0  0  0  # atno 10764 bound_to 10752
  152.9870  135.5770  154.5159 H   0  0  0  0  0  0  0  0  0  0  0  0  # atno 10765 bound_to 10752
  140.2214  134.8193  157.3224 H   0  0  0  0  0  0  0  0  0  0  0  0  # atno 11005 bound_to 11000
  145.9792  140.8697  143.0123 LP  0  0  0  0  0  0  0  0  0  0  0  0  # atno 17320 bound_to 7965
  144.6759  140.2056  143.7382 LP  0  0  0  0  0  0  0  0  0  0  0  0  # atno 17321 bound_to 7965
  139.7793  144.7450  151.0112 LP  0  0  0  0  0  0  0  0  0  0  0  0  # atno 17342 bound_to 10162
  140.7815  143.4560  151.0345 LP  0  0  0  0  0  0  0  0  0  0  0  0  # atno 17343 bound_to 10162
  157.5934  130.8460  149.8692 LP  0  0  0  0  0  0  0  0  0  0  0  0  # atno 17370 bound_to 10713
  156.0510  130.3717  150.1201 LP  0  0  0  0  0  0  0  0  0  0  0  0  # atno 17371 bound_to 10713
  140.1845  134.4448  155.7752 LP  0  0  0  0  0  0  0  0  0  0  0  0  # atno 17394 bound_to 11000
  141.2223  133.6999  156.7924 LP  0  0  0  0  0  0  0  0  0  0  0  0  # atno 17395 bound_to 11000

$$$$
