AV-unprocessed.smi:3003|AV-procd|sdf|11438|dock1
  -GOLD-   2272016363D 1   1.00000     0.00000
 Structure written by MMmdl.
 41 42  0  0  0  0  0  0  0  0  1 V2000
  146.3919  134.0189  156.7382 C   0  0  0  0  0  0  0  0  0  0  0  0
  147.5880  135.3792  156.6486 S   0  0  0  0  0  0  0  0  0  0  0  0
  149.0453  134.5120  155.9942 C   0  0  1  0  0  0  0  0  0  0  0  0
  148.6446  133.6144  154.8129 C   0  0  0  0  0  0  0  0  0  0  0  0
  150.1571  135.4859  155.5866 C   0  0  0  0  0  0  0  0  0  0  0  0
  151.2429  135.4678  156.1675 O   0  0  0  0  0  0  0  0  0  0  0  0
  149.8749  136.3334  154.5846 N   0  0  0  0  0  0  0  0  0  0  0  0
  150.7855  137.3535  154.0751 C   0  0  0  0  0  0  0  0  0  0  0  0
  151.0092  138.5152  155.0324 C   0  0  0  0  0  0  0  0  0  0  0  0
  150.0091  139.4788  155.2785 C   0  0  0  0  0  0  0  0  0  0  0  0
  150.2764  140.5266  156.1798 C   0  0  0  0  0  0  0  0  0  0  0  0
  151.5406  140.5880  156.8132 C   0  0  0  0  0  0  0  0  0  0  0  0
  151.8264  141.6243  157.7288 N   0  0  0  0  0  0  0  0  0  0  0  0
  150.9114  142.7631  157.6984 C   0  0  0  0  0  0  0  0  0  0  0  0
  151.4888  143.9375  158.5074 C   0  0  0  0  0  0  0  0  0  0  0  0
  151.7940  143.5092  159.8304 O   0  0  0  0  0  0  0  0  0  0  0  0
  152.7731  142.4760  159.8382 C   0  0  0  0  0  0  0  0  0  0  0  0
  152.2380  141.2494  159.0805 C   0  0  0  0  0  0  0  0  0  0  0  0
  152.5053  139.6691  156.5594 N   0  0  0  0  0  0  0  0  0  0  0  0
  152.2433  138.6653  155.6960 C   0  0  0  0  0  0  0  0  0  0  0  0
  145.4295  134.3913  157.0889 H   0  0  0  0  0  0  0  0  0  0  0  0
  146.7333  133.2486  157.4295 H   0  0  0  0  0  0  0  0  0  0  0  0
  146.2505  133.5698  155.7551 H   0  0  0  0  0  0  0  0  0  0  0  0
  149.4189  133.8638  156.7888 H   0  0  0  0  0  0  0  0  0  0  0  0
  149.5090  133.0933  154.3995 H   0  0  0  0  0  0  0  0  0  0  0  0
  148.1853  134.1898  154.0081 H   0  0  0  0  0  0  0  0  0  0  0  0
  147.9266  132.8567  155.1274 H   0  0  0  0  0  0  0  0  0  0  0  0
  148.9622  136.2780  154.1560 H   0  0  0  0  0  0  0  0  0  0  0  0
  151.7409  136.8948  153.8141 H   0  0  0  0  0  0  0  0  0  0  0  0
  150.3698  137.7493  153.1484 H   0  0  0  0  0  0  0  0  0  0  0  0
  149.0495  139.4219  154.7864 H   0  0  0  0  0  0  0  0  0  0  0  0
  149.5179  141.2730  156.3631 H   0  0  0  0  0  0  0  0  0  0  0  0
  150.7157  143.0978  156.6809 H   0  0  0  0  0  0  0  0  0  0  0  0
  149.9537  142.4555  158.1206 H   0  0  0  0  0  0  0  0  0  0  0  0
  152.3836  144.3368  158.0271 H   0  0  0  0  0  0  0  0  0  0  0  0
  150.7646  144.7508  158.5561 H   0  0  0  0  0  0  0  0  0  0  0  0
  153.7011  142.8356  159.3907 H   0  0  0  0  0  0  0  0  0  0  0  0
  153.0001  142.2094  160.8705 H   0  0  0  0  0  0  0  0  0  0  0  0
  151.3864  140.8245  159.6134 H   0  0  0  0  0  0  0  0  0  0  0  0
  153.0138  140.4841  159.0401 H   0  0  0  0  0  0  0  0  0  0  0  0
  153.0437  137.9582  155.5358 H   0  0  0  0  0  0  0  0  0  0  0  0
  1  2  1  0  0  0  0
  1 21  1  0  0  0  0
  1 22  1  0  0  0  0
  1 23  1  0  0  0  0
  2  3  1  0  0  0  0
  3  4  1  0  0  0  0
  3  5  1  0  0  0  0
  3 24  1  0  0  0  0
  4 25  1  0  0  0  0
  4 26  1  0  0  0  0
  4 27  1  0  0  0  0
  5  6  2  0  0  0  0
  5  7  1  0  0  0  0
  7  8  1  0  0  0  0
  7 28  1  0  0  0  0
  8  9  1  0  0  0  0
  8 29  1  0  0  0  0
  8 30  1  0  0  0  0
  9 20  1  0  0  0  0
  9 10  2  0  0  0  0
 10 11  1  0  0  0  0
 10 31  1  0  0  0  0
 11 12  2  0  0  0  0
 11 32  1  0  0  0  0
 12 13  1  0  0  0  0
 12 19  1  0  0  0  0
 13 18  1  0  0  0  0
 13 14  1  0  0  0  0
 14 15  1  0  0  0  0
 14 33  1  0  0  0  0
 14 34  1  0  0  0  0
 15 16  1  0  0  0  0
 15 35  1  0  0  0  0
 15 36  1  0  0  0  0
 16 17  1  0  0  0  0
 17 18  1  0  0  0  0
 17 37  1  0  0  0  0
 17 38  1  0  0  0  0
 18 39  1  0  0  0  0
 18 40  1  0  0  0  0
 19 20  2  0  0  0  0
 20 41  1  0  0  0  0
M  END
> <s_m_source_file>
AV-unprocessed.smi

> <i_m_source_file_index>
3003

> <i_lp_mmshare_version>
43012

> <i_f3d_flags>
0

> <s_epik_input>
W0NIM11TW0NASF0oW0NIM10pQyg9TylbTkhdW0NIMl1jMVtjSF1bY0hdYyhuW2NIXTEpTjJbQ0gyXVtDSDJdT1tDSDJdW0NIMl0y

> <s_epik_cmdline>
J2VwaWtfcHl0aG9uJywgJy1waCcsICc3LjAnLCAnLXRuJywgJzgnLCAnLW1hJywgJzIwMCcsICctbWV0YWxfYmluZGluZycsICctaW1hZScsICc8aW5maWxlLm1hZT4nLCAnLW9tYWUnLCAnPG91dGZpbGUubWFlPic=

> <r_lp_tautomer_probability>
1

> <r_epik_Ionization_Penalty>
0.00417642

> <r_epik_Ionization_Penalty_Charging>
0

> <r_epik_Ionization_Penalty_Neutral>
0.00417642

> <r_epik_State_Penalty>
0.00299889

> <r_epik_Charging_Adjusted_Penalty>
0.00299889

> <i_epik_Tot_Q>
0

> <i_epik_Tot_abs_Q>
0

> <r_epik_Metal_State_Penalty>
-0

> <b_epik_Metal_Only>
0

> <s_lp_Force_Field>
OPLS_2005

> <r_lp_Energy>
16.8537

> <b_lp_Chiralities_Consistent>
1

> <s_lp_Variant>
AV-unprocessed.smi:3003-2

> <Gold.Version>
5.8.1

> <Gold.Id.Protein>
6NUR|6NUR_protein|mol2

> <Gold.PLP.Fitness>
42.9518

> <Gold.PLP.PLP>
-34.5947

> <Gold.PLP.part.hbond>
-4.0000

> <Gold.PLP.part.metal>
0.0000

> <Gold.PLP.part.buried>
1.7384

> <Gold.PLP.part.nonpolar>
-31.3465

> <Gold.PLP.part.repulsive>
0.1329

> <Gold.PLP.ligand.clash>
0.0000

> <Gold.PLP.ligand.torsion>
0.4663

> <Gold.PLP.Chemscore.Hbond>
2.9440

> <Gold.PLP.Chemscore.CHOScore>
0.0000

> <Gold.PLP.Chemscore.Metal>
0.0000

> <Gold.Chemscore.Hbonds>
donor molecule, donor type, donor heavy atom, donor atom, acceptor molecule, acceptor atom, score
      L1  H     7    28       P1  7948  0.11
      P1  H  7997  8008       L1    19  1.00
      P1  H 10752 10764       L1     6  0.60

> <Gold.PLP.Chemscore.Internal.Correction>
0.4577

> <Gold.Rescore>
     Score         DG    S(hbond)    S(metal)    S(lipo)     H(rot)  DE(clash)    DE(int)     intcor
     15.74     -19.24       2.32        0.00      87.87       1.67       2.76       0.74       ----

> <Gold.Chemscore.Fitness>
15.7375

> <Gold.Chemscore.DG>
-19.2444

> <Gold.Chemscore.ZeroCoef>
-5.4800

> <Gold.Chemscore.Hbond>
2.3216

> <Gold.Chemscore.Metal>
0.0000

> <Gold.Chemscore.Lipo>
87.8713

> <Gold.Chemscore.Internal_Hbond>
0.0000

> <Gold.Chemscore.DEClash>
2.7629

> <Gold.Chemscore.DEInternal>
0.7441

> <Gold.Chemscore.Rot>
1.6682

> <Gold.Chemscore.Internal.Correction>
   9.000000E+99

> <Gold.Chemscore.Hbonds>
donor molecule, donor type, donor heavy atom, donor atom, acceptor molecule, acceptor atom, score
      L1  H     7    28       P1  7948  0.10
      P1  H  7997  8008       L1    19  0.78
      P1  H 10752 10764       L1     6  0.58

> <Gold.Chemscore.Hbond.Weighted>
-7.7542

> <Gold.Chemscore.Metal.Weighted>
-0.0000

> <Gold.Chemscore.Lipo.Weighted>
-10.2809

> <Gold.Chemscore.Internal_Hbond.Weighted>
0.0000

> <Gold.Chemscore.DEClash.Weighted>
2.7629

> <Gold.Chemscore.DEInternal.Weighted>
0.7441

> <Gold.Chemscore.Rot.Weighted>
4.2707

> <Gold.Chemscore.Internal.Correction.Weighted>
   9.000000E+99

> <Gold.Protein.RotatedTorsions>
[ 6907 6896 6895 6894 ] final  -79.52 input  -60.11 | X-H torsion
[ 7974 7965 7964 7962 ] final -103.74 input  175.53 | X-H torsion
[ 8008 7997 7996 7995 ] final  -57.01 input   59.86 | X-H torsion
[ 10167 10162 10161 10158 ] final  165.12 input  -65.29 | X-H torsion
[ 10718 10713 10712 10709 ] final  -49.65 input   66.30 | X-H torsion
[ 10763 10752 10751 10750 ] final  -38.54 input  -60.55 | X-H torsion
[ 11005 11000 10999 10996 ] final  112.36 input  -57.11 | X-H torsion

> <Gold.Protein.ActiveResidues>
 VAL166  LYS551  ARG553  GLY616  TRP617  ASP618  TYR619  PRO620  LYS621  CYS622 
 ASP623  PHE694  ASN695  SER759  ASP760  ASP761  ALA762  ILE779  LEU786  VAL792 
 PHE793  MET794  SER795  GLU796  ALA797  LYS798  CYS799  TRP800  GLU811  SER814 

> <Gold.Protein.RotatedAtoms>
  150.6948  134.4108  159.5160 H   0  0  0  0  0  0  0  0  0  0  0  0  # atno 6907 bound_to 6896
  152.1867  134.8705  160.0530 H   0  0  0  0  0  0  0  0  0  0  0  0  # atno 6908 bound_to 6896
  151.9675  133.3680  159.4095 H   0  0  0  0  0  0  0  0  0  0  0  0  # atno 6909 bound_to 6896
  145.2521  140.9241  143.3089 H   0  0  0  0  0  0  0  0  0  0  0  0  # atno 7974 bound_to 7965
  154.4251  140.1116  156.5729 H   0  0  0  0  0  0  0  0  0  0  0  0  # atno 8008 bound_to 7997
  155.6193  140.3495  155.4628 H   0  0  0  0  0  0  0  0  0  0  0  0  # atno 8009 bound_to 7997
  156.0037  140.1204  157.0512 H   0  0  0  0  0  0  0  0  0  0  0  0  # atno 8010 bound_to 7997
  139.4900  144.4165  151.9238 H   0  0  0  0  0  0  0  0  0  0  0  0  # atno 10167 bound_to 10162
  156.1873  130.4152  149.9421 H   0  0  0  0  0  0  0  0  0  0  0  0  # atno 10718 bound_to 10713
  153.9146  135.6789  153.4750 H   0  0  0  0  0  0  0  0  0  0  0  0  # atno 10763 bound_to 10752
  153.1060  135.4805  154.8950 H   0  0  0  0  0  0  0  0  0  0  0  0  # atno 10764 bound_to 10752
  154.7509  135.3184  154.8514 H   0  0  0  0  0  0  0  0  0  0  0  0  # atno 10765 bound_to 10752
  139.8925  134.9528  156.6574 H   0  0  0  0  0  0  0  0  0  0  0  0  # atno 11005 bound_to 11000
  144.9494  139.4100  143.6410 LP  0  0  0  0  0  0  0  0  0  0  0  0  # atno 17320 bound_to 7965
  146.3299  139.8493  142.8876 LP  0  0  0  0  0  0  0  0  0  0  0  0  # atno 17321 bound_to 7965
  140.3608  144.2976  150.5934 LP  0  0  0  0  0  0  0  0  0  0  0  0  # atno 17342 bound_to 10162
  140.5405  143.2224  151.8093 LP  0  0  0  0  0  0  0  0  0  0  0  0  # atno 17343 bound_to 10162
  156.7172  130.8993  151.3615 LP  0  0  0  0  0  0  0  0  0  0  0  0  # atno 17370 bound_to 10713
  157.6907  130.9230  150.0506 LP  0  0  0  0  0  0  0  0  0  0  0  0  # atno 17371 bound_to 10713
  140.7474  133.8926  155.8322 LP  0  0  0  0  0  0  0  0  0  0  0  0  # atno 17394 bound_to 11000
  141.0029  134.1126  157.4300 LP  0  0  0  0  0  0  0  0  0  0  0  0  # atno 17395 bound_to 11000

$$$$
