AV-unprocessed.smi:240|AV-procd|sdf|1838|dock10
  -GOLD-   2262020453D 1   1.00000     0.00000
 Structure written by MMmdl.
 55 59  0  0  0  0  0  0  0  0  1 V2000
  151.7295  136.1609  155.7068 O   0  0  0  0  0  0  0  0  0  0  0  0
  150.8013  136.7234  154.7974 C   0  0  2  0  0  0  0  0  0  0  0  0
  151.3966  138.0179  154.2330 C   0  0  0  0  0  0  0  0  0  0  0  0
  150.9322  139.1427  155.1657 C   0  0  0  0  0  0  0  0  0  0  0  0
  149.9465  138.5022  156.1499 C   0  0  0  0  0  0  0  0  0  0  0  0
  149.5077  137.1692  155.5160 C   0  0  2  0  0  0  0  0  0  0  0  0
  148.8350  136.1510  156.4987 C   0  0  1  0  0  0  0  0  0  0  0  0
  149.6133  136.0904  157.8401 C   0  0  0  0  0  0  0  0  0  0  0  0
  148.9925  135.2013  158.7605 O   0  0  0  0  0  0  0  0  0  0  0  0
  147.6800  135.6232  159.0957 C   0  0  0  0  0  0  0  0  0  0  0  0
  146.8299  135.6129  157.8216 C   0  0  0  0  0  0  0  0  0  0  0  0
  147.4293  136.4701  156.8033 N   0  0  0  0  0  0  0  0  0  0  0  0
  146.5848  136.6167  155.7602 C   0  0  0  0  0  0  0  0  0  0  0  0
  146.1676  137.8747  155.4764 N   0  0  0  0  0  0  0  0  0  0  0  0
  145.3394  138.0861  154.4490 C   0  0  0  0  0  0  0  0  0  0  0  0
  144.8173  137.1975  153.6007 N   0  0  0  0  0  0  0  0  0  0  0  0
  145.2228  135.9288  153.8957 C   0  0  0  0  0  0  0  0  0  0  0  0
  146.0994  135.5510  154.9509 C   0  0  0  0  0  0  0  0  0  0  0  0
  146.2956  134.1757  154.9367 N   0  0  0  0  0  0  0  0  0  0  0  0
  145.5787  133.7643  153.9269 C   0  0  0  0  0  0  0  0  0  0  0  0
  144.8901  134.7485  153.2535 N   0  0  0  0  0  0  0  0  0  0  0  0
  144.0229  134.5722  152.0979 C   0  0  0  0  0  0  0  0  0  0  0  0
  144.7776  134.3689  150.7585 C   0  0  2  0  0  0  0  0  0  0  0  0
  144.9994  135.6280  150.1507 O   0  0  0  0  0  0  0  0  0  0  0  0
  144.0592  133.4540  149.7630 C   0  0  0  0  0  0  0  0  0  0  0  0
  144.7785  132.1240  149.9351 C   0  0  0  0  0  0  0  0  0  0  0  0
  146.1241  132.5299  150.1059 O   0  0  0  0  0  0  0  0  0  0  0  0
  146.1291  133.6567  150.9733 C   0  0  0  0  0  0  0  0  0  0  0  0
  151.2505  135.7465  156.4087 H   0  0  0  0  0  0  0  0  0  0  0  0
  150.6209  136.0135  153.9921 H   0  0  0  0  0  0  0  0  0  0  0  0
  152.4822  137.9768  154.1341 H   0  0  0  0  0  0  0  0  0  0  0  0
  150.9927  138.1947  153.2354 H   0  0  0  0  0  0  0  0  0  0  0  0
  151.7705  139.5953  155.6963 H   0  0  0  0  0  0  0  0  0  0  0  0
  150.4464  139.9308  154.5892 H   0  0  0  0  0  0  0  0  0  0  0  0
  150.4584  138.3118  157.0944 H   0  0  0  0  0  0  0  0  0  0  0  0
  149.1049  139.1632  156.3596 H   0  0  0  0  0  0  0  0  0  0  0  0
  148.7739  137.4199  154.7476 H   0  0  0  0  0  0  0  0  0  0  0  0
  148.8719  135.1527  156.0620 H   0  0  0  0  0  0  0  0  0  0  0  0
  150.6277  135.7241  157.6857 H   0  0  0  0  0  0  0  0  0  0  0  0
  149.6987  137.0828  158.2866 H   0  0  0  0  0  0  0  0  0  0  0  0
  147.2620  134.9397  159.8346 H   0  0  0  0  0  0  0  0  0  0  0  0
  147.7005  136.6157  159.5490 H   0  0  0  0  0  0  0  0  0  0  0  0
  146.7478  134.5918  157.4478 H   0  0  0  0  0  0  0  0  0  0  0  0
  145.8195  135.9544  158.0521 H   0  0  0  0  0  0  0  0  0  0  0  0
  145.0560  139.1147  154.2810 H   0  0  0  0  0  0  0  0  0  0  0  0
  145.5290  132.7221  153.6464 H   0  0  0  0  0  0  0  0  0  0  0  0
  143.3710  133.7192  152.2918 H   0  0  0  0  0  0  0  0  0  0  0  0
  143.3697  135.4433  152.0308 H   0  0  0  0  0  0  0  0  0  0  0  0
  145.1140  135.4966  149.2219 H   0  0  0  0  0  0  0  0  0  0  0  0
  142.9851  133.3695  149.9178 H   0  0  0  0  0  0  0  0  0  0  0  0
  144.2113  133.8010  148.7394 H   0  0  0  0  0  0  0  0  0  0  0  0
  144.4305  131.5998  150.8268 H   0  0  0  0  0  0  0  0  0  0  0  0
  144.6610  131.4647  149.0749 H   0  0  0  0  0  0  0  0  0  0  0  0
  146.9913  134.2921  150.7667 H   0  0  0  0  0  0  0  0  0  0  0  0
  146.2283  133.2981  151.9989 H   0  0  0  0  0  0  0  0  0  0  0  0
  1  2  1  0  0  0  0
  1 29  1  0  0  0  0
  2  6  1  0  0  0  0
  2  3  1  0  0  0  0
  2 30  1  0  0  0  0
  3  4  1  0  0  0  0
  3 31  1  0  0  0  0
  3 32  1  0  0  0  0
  4  5  1  0  0  0  0
  4 33  1  0  0  0  0
  4 34  1  0  0  0  0
  5  6  1  0  0  0  0
  5 35  1  0  0  0  0
  5 36  1  0  0  0  0
  6  7  1  0  0  0  0
  6 37  1  0  0  0  0
  7 12  1  0  0  0  0
  7  8  1  0  0  0  0
  7 38  1  0  0  0  0
  8  9  1  0  0  0  0
  8 39  1  0  0  0  0
  8 40  1  0  0  0  0
  9 10  1  0  0  0  0
 10 11  1  0  0  0  0
 10 41  1  0  0  0  0
 10 42  1  0  0  0  0
 11 12  1  0  0  0  0
 11 43  1  0  0  0  0
 11 44  1  0  0  0  0
 12 13  1  0  0  0  0
 13 18  1  0  0  0  0
 13 14  2  0  0  0  0
 14 15  1  0  0  0  0
 15 16  2  0  0  0  0
 15 45  1  0  0  0  0
 16 17  1  0  0  0  0
 17 21  1  0  0  0  0
 17 18  2  0  0  0  0
 18 19  1  0  0  0  0
 19 20  2  0  0  0  0
 20 21  1  0  0  0  0
 20 46  1  0  0  0  0
 21 22  1  0  0  0  0
 22 23  1  0  0  0  0
 22 47  1  0  0  0  0
 22 48  1  0  0  0  0
 23 28  1  0  0  0  0
 23 24  1  0  0  0  0
 23 25  1  0  0  0  0
 24 49  1  0  0  0  0
 25 26  1  0  0  0  0
 25 50  1  0  0  0  0
 25 51  1  0  0  0  0
 26 27  1  0  0  0  0
 26 52  1  0  0  0  0
 26 53  1  0  0  0  0
 27 28  1  0  0  0  0
 28 54  1  0  0  0  0
 28 55  1  0  0  0  0
M  END
> <s_m_source_file>
AV-unprocessed.smi

> <i_m_source_file_index>
240

> <i_lp_mmshare_version>
43012

> <i_f3d_flags>
0

> <s_epik_input>
W09IXVtDQEBIXTFbQ0gyXVtDSDJdW0NIMl1bQ0BIXTFbQ0BASF0yW0NIMl1PW0NIMl1bQ0gyXU4yYyhuW2NIXW4zKWMoYzM0KW5bY0hdbjRbQ0gyXVtDQEBdNShbT0hdKVtDSDJdW0NIMl1PW0NIMl01

> <s_epik_cmdline>
J2VwaWtfcHl0aG9uJywgJy1waCcsICc3LjAnLCAnLXRuJywgJzgnLCAnLW1hJywgJzIwMCcsICctbWV0YWxfYmluZGluZycsICctaW1hZScsICc8aW5maWxlLm1hZT4nLCAnLW9tYWUnLCAnPG91dGZpbGUubWFlPic=

> <r_lp_tautomer_probability>
1

> <r_epik_Ionization_Penalty>
0.000130618

> <r_epik_Ionization_Penalty_Charging>
0

> <r_epik_Ionization_Penalty_Neutral>
0.000130618

> <r_epik_State_Penalty>
-0

> <r_epik_Charging_Adjusted_Penalty>
0

> <i_epik_Tot_Q>
0

> <i_epik_Tot_abs_Q>
0

> <r_epik_Metal_State_Penalty>
-0

> <b_epik_Metal_Only>
0

> <s_lp_Force_Field>
OPLS_2005

> <r_lp_Energy>
64.4166

> <b_lp_Chiralities_Consistent>
1

> <s_lp_Variant>
AV-unprocessed.smi:240-15

> <Gold.Version>
5.8.1

> <Gold.Id.Protein>
6NUR|6NUR_protein|mol2

> <Gold.PLP.Fitness>
39.5528

> <Gold.PLP.PLP>
-29.7236

> <Gold.PLP.part.hbond>
-3.3589

> <Gold.PLP.part.metal>
0.0000

> <Gold.PLP.part.buried>
-6.9731

> <Gold.PLP.part.nonpolar>
-20.2170

> <Gold.PLP.part.repulsive>
0.4075

> <Gold.PLP.ligand.clash>
0.0000

> <Gold.PLP.ligand.torsion>
1.2563

> <Gold.PLP.Chemscore.Hbond>
3.0000

> <Gold.PLP.Chemscore.CHOScore>
1.0000

> <Gold.PLP.Chemscore.Metal>
0.0000

> <Gold.Chemscore.Hbonds>
donor molecule, donor type, donor heavy atom, donor atom, acceptor molecule, acceptor atom, score
      L1  H    24    49       P1  7921  1.00
      P1  H  6896  6908       L1     9  0.70
      P1  H 10752 10765       L1     1  1.00
      L1  C    15    45       P1 10175  0.72

> <Gold.PLP.Chemscore.Internal.Correction>
0.3419

> <Gold.Rescore>
     Score         DG    S(hbond)    S(metal)    S(lipo)     H(rot)  DE(clash)    DE(int)     intcor
     12.62     -13.99       2.27        0.00      73.75       3.00       0.19       1.18       ----

> <Gold.Chemscore.Fitness>
12.6186

> <Gold.Chemscore.DG>
-13.9894

> <Gold.Chemscore.ZeroCoef>
-5.4800

> <Gold.Chemscore.Hbond>
2.2668

> <Gold.Chemscore.Metal>
0.0000

> <Gold.Chemscore.Lipo>
73.7459

> <Gold.Chemscore.Internal_Hbond>
0.0000

> <Gold.Chemscore.DEClash>
0.1893

> <Gold.Chemscore.DEInternal>
1.1816

> <Gold.Chemscore.Rot>
3.0039

> <Gold.Chemscore.Internal.Correction>
   9.000000E+99

> <Gold.Chemscore.Hbonds>
donor molecule, donor type, donor heavy atom, donor atom, acceptor molecule, acceptor atom, score
      L1  H    24    49       P1  7921  0.93
      P1  H  6896  6908       L1     9  0.07
      P1  H 10752 10765       L1     1  0.85

> <Gold.Chemscore.Hbond.Weighted>
-7.5711

> <Gold.Chemscore.Metal.Weighted>
-0.0000

> <Gold.Chemscore.Lipo.Weighted>
-8.6283

> <Gold.Chemscore.Internal_Hbond.Weighted>
0.0000

> <Gold.Chemscore.DEClash.Weighted>
0.1893

> <Gold.Chemscore.DEInternal.Weighted>
1.1816

> <Gold.Chemscore.Rot.Weighted>
7.6899

> <Gold.Chemscore.Internal.Correction.Weighted>
   9.000000E+99

> <Gold.Protein.RotatedTorsions>
[ 6907 6896 6895 6894 ] final  175.34 input  -60.11 | X-H torsion
[ 7974 7965 7964 7962 ] final  113.83 input  175.53 | X-H torsion
[ 8008 7997 7996 7995 ] final -159.37 input   59.86 | X-H torsion
[ 10167 10162 10161 10158 ] final  -50.50 input  -65.29 | X-H torsion
[ 10718 10713 10712 10709 ] final  -24.02 input   66.30 | X-H torsion
[ 10763 10752 10751 10750 ] final -157.97 input  -60.55 | X-H torsion
[ 11005 11000 10999 10996 ] final    8.25 input  -57.11 | X-H torsion

> <Gold.Protein.ActiveResidues>
 VAL166  LYS551  ARG553  GLY616  TRP617  ASP618  TYR619  PRO620  LYS621  CYS622 
 ASP623  PHE694  ASN695  SER759  ASP760  ASP761  ALA762  ILE779  LEU786  VAL792 
 PHE793  MET794  SER795  GLU796  ALA797  LYS798  CYS799  TRP800  GLU811  SER814 

> <Gold.Protein.RotatedAtoms>
  151.7378  133.3320  159.3357 H   0  0  0  0  0  0  0  0  0  0  0  0  # atno 6907 bound_to 6896
  150.7586  134.6305  159.6193 H   0  0  0  0  0  0  0  0  0  0  0  0  # atno 6908 bound_to 6896
  152.3550  134.6954  160.0276 H   0  0  0  0  0  0  0  0  0  0  0  0  # atno 6909 bound_to 6896
  145.2121  139.2901  143.4263 H   0  0  0  0  0  0  0  0  0  0  0  0  # atno 7974 bound_to 7965
  155.7615  140.0840  157.2153 H   0  0  0  0  0  0  0  0  0  0  0  0  # atno 8008 bound_to 7997
  154.4003  140.1542  156.2895 H   0  0  0  0  0  0  0  0  0  0  0  0  # atno 8009 bound_to 7997
  155.8835  140.3419  155.5907 H   0  0  0  0  0  0  0  0  0  0  0  0  # atno 8010 bound_to 7997
  140.6634  143.2655  151.4369 H   0  0  0  0  0  0  0  0  0  0  0  0  # atno 10167 bound_to 10162
  156.4832  130.4550  149.6799 H   0  0  0  0  0  0  0  0  0  0  0  0  # atno 10718 bound_to 10713
  154.7594  135.3113  154.8408 H   0  0  0  0  0  0  0  0  0  0  0  0  # atno 10763 bound_to 10752
  153.9173  135.6799  153.4753 H   0  0  0  0  0  0  0  0  0  0  0  0  # atno 10764 bound_to 10752
  153.1193  135.4830  154.9099 H   0  0  0  0  0  0  0  0  0  0  0  0  # atno 10765 bound_to 10752
  140.5391  134.0391  155.7898 H   0  0  0  0  0  0  0  0  0  0  0  0  # atno 11005 bound_to 11000
  146.3395  140.2399  142.8595 LP  0  0  0  0  0  0  0  0  0  0  0  0  # atno 17320 bound_to 7965
  144.9846  140.8491  143.5376 LP  0  0  0  0  0  0  0  0  0  0  0  0  # atno 17321 bound_to 7965
  139.5875  144.1572  152.2047 LP  0  0  0  0  0  0  0  0  0  0  0  0  # atno 17342 bound_to 10162
  140.0916  144.5615  150.7050 LP  0  0  0  0  0  0  0  0  0  0  0  0  # atno 17343 bound_to 10162
  156.3500  130.7427  151.2385 LP  0  0  0  0  0  0  0  0  0  0  0  0  # atno 17370 bound_to 10713
  157.7481  131.0379  150.4480 LP  0  0  0  0  0  0  0  0  0  0  0  0  # atno 17371 bound_to 10713
  141.1237  133.9418  157.2678 LP  0  0  0  0  0  0  0  0  0  0  0  0  # atno 17394 bound_to 11000
  139.9513  135.0175  156.9002 LP  0  0  0  0  0  0  0  0  0  0  0  0  # atno 17395 bound_to 11000

$$$$
