AV-unprocessed.smi:1211|AV-procd|sdf|5080|dock8
  -GOLD-   22720 4133D 1   1.00000     0.00000
 Structure written by MMmdl.
 48 50  0  0  0  0  0  0  0  0  2 V2000
  151.4733  144.7209  159.3010 C   0  0  0  0  0  0  0  0  0  0  0  0
  152.1264  143.3616  159.4920 C   0  0  0  0  0  0  0  0  0  0  0  0
  153.1056  143.2017  160.4957 C   0  0  0  0  0  0  0  0  0  0  0  0
  153.7099  141.9451  160.6705 C   0  0  0  0  0  0  0  0  0  0  0  0
  153.3071  140.8947  159.8286 C   0  0  0  0  0  0  0  0  0  0  0  0
  152.3728  141.0385  158.8665 N   0  0  0  0  0  0  0  0  0  0  0  0
  151.7782  142.2445  158.6861 C   0  0  0  0  0  0  0  0  0  0  0  0
  150.7820  142.4685  157.6939 N   0  0  0  0  0  0  0  0  0  0  0  0
  150.5076  141.7314  156.6030 C   0  0  0  0  0  0  0  0  0  0  0  0
  151.0889  140.6971  156.2750 O   0  0  0  0  0  0  0  0  0  0  0  0
  149.5062  142.2714  155.8932 N   0  0  0  0  0  0  0  0  0  0  0  0
  148.9472  141.7197  154.6588 C   0  0  0  0  0  0  0  0  0  0  0  0
  147.5107  141.1293  154.8330 C   0  0  1  0  0  0  0  0  0  0  0  0
  146.5482  142.2651  155.0868 N   0  3  0  0  0  0  0  0  0  0  0  0
  145.8678  142.8567  153.9006 C   0  0  0  0  0  0  0  0  0  0  0  0
  145.0076  144.0684  154.3018 C   0  0  0  0  0  0  0  0  0  0  0  0
  144.0778  143.6997  155.3092 O   0  0  0  0  0  0  0  0  0  0  0  0
  144.7360  143.2555  156.4857 C   0  0  0  0  0  0  0  0  0  0  0  0
  145.5519  141.9951  156.1619 C   0  0  0  0  0  0  0  0  0  0  0  0
  147.1367  140.2678  153.5937 C   0  0  0  0  0  0  0  0  0  0  0  0
  147.9870  138.9938  153.6108 C   0  0  0  0  0  0  0  0  0  0  0  0
  148.2132  138.5369  155.3469 S   0  0  0  0  0  0  0  0  0  0  0  0
  147.5121  140.0876  155.9766 C   0  0  0  0  0  0  0  0  0  0  0  0
  151.8630  145.4517  160.0105 H   0  0  0  0  0  0  0  0  0  0  0  0
  150.3956  144.6510  159.4507 H   0  0  0  0  0  0  0  0  0  0  0  0
  151.6619  145.0970  158.2950 H   0  0  0  0  0  0  0  0  0  0  0  0
  153.3932  144.0306  161.1258 H   0  0  0  0  0  0  0  0  0  0  0  0
  154.4622  141.7905  161.4298 H   0  0  0  0  0  0  0  0  0  0  0  0
  153.7459  139.9131  159.9291 H   0  0  0  0  0  0  0  0  0  0  0  0
  150.2144  143.2906  157.8349 H   0  0  0  0  0  0  0  0  0  0  0  0
  149.0784  143.1137  156.2485 H   0  0  0  0  0  0  0  0  0  0  0  0
  148.9900  142.4625  153.8623 H   0  0  0  0  0  0  0  0  0  0  0  0
  149.6355  140.9435  154.3265 H   0  0  0  0  0  0  0  0  0  0  0  0
  146.5926  143.2194  153.1734 H   0  0  0  0  0  0  0  0  0  0  0  0
  145.2505  142.1034  153.4099 H   0  0  0  0  0  0  0  0  0  0  0  0
  145.6347  144.8886  154.6551 H   0  0  0  0  0  0  0  0  0  0  0  0
  144.4593  144.4411  153.4364 H   0  0  0  0  0  0  0  0  0  0  0  0
  145.3729  144.0442  156.8895 H   0  0  0  0  0  0  0  0  0  0  0  0
  143.9860  143.0314  157.2445 H   0  0  0  0  0  0  0  0  0  0  0  0
  144.8699  141.2027  155.8523 H   0  0  0  0  0  0  0  0  0  0  0  0
  146.0405  141.6558  157.0736 H   0  0  0  0  0  0  0  0  0  0  0  0
  146.1072  139.9180  153.6573 H   0  0  0  0  0  0  0  0  0  0  0  0
  147.2258  140.8073  152.6515 H   0  0  0  0  0  0  0  0  0  0  0  0
  147.5139  138.1827  153.0565 H   0  0  0  0  0  0  0  0  0  0  0  0
  148.9636  139.1691  153.1593 H   0  0  0  0  0  0  0  0  0  0  0  0
  148.0633  140.4214  156.8563 H   0  0  0  0  0  0  0  0  0  0  0  0
  146.4932  139.8686  156.2974 H   0  0  0  0  0  0  0  0  0  0  0  0
  147.1310  143.0116  155.4375 H   0  0  0  0  0  0  0  0  0  0  0  0
  1  2  1  0  0  0  0
  1 24  1  0  0  0  0
  1 25  1  0  0  0  0
  1 26  1  0  0  0  0
  2  7  1  0  0  0  0
  2  3  2  0  0  0  0
  3  4  1  0  0  0  0
  3 27  1  0  0  0  0
  4  5  2  0  0  0  0
  4 28  1  0  0  0  0
  5  6  1  0  0  0  0
  5 29  1  0  0  0  0
  6  7  2  0  0  0  0
  7  8  1  0  0  0  0
  8  9  1  0  0  0  0
  8 30  1  0  0  0  0
  9 10  2  0  0  0  0
  9 11  1  0  0  0  0
 11 12  1  0  0  0  0
 11 31  1  0  0  0  0
 12 13  1  0  0  0  0
 12 32  1  0  0  0  0
 12 33  1  0  0  0  0
 13 23  1  0  0  0  0
 13 14  1  0  0  0  0
 13 20  1  0  0  0  0
 14 19  1  0  0  0  0
 14 15  1  0  0  0  0
 14 48  1  0  0  0  0
 15 16  1  0  0  0  0
 15 34  1  0  0  0  0
 15 35  1  0  0  0  0
 16 17  1  0  0  0  0
 16 36  1  0  0  0  0
 16 37  1  0  0  0  0
 17 18  1  0  0  0  0
 18 19  1  0  0  0  0
 18 38  1  0  0  0  0
 18 39  1  0  0  0  0
 19 40  1  0  0  0  0
 19 41  1  0  0  0  0
 20 21  1  0  0  0  0
 20 42  1  0  0  0  0
 20 43  1  0  0  0  0
 21 22  1  0  0  0  0
 21 44  1  0  0  0  0
 21 45  1  0  0  0  0
 22 23  1  0  0  0  0
 23 46  1  0  0  0  0
 23 47  1  0  0  0  0
M  CHG  1  14   1
M  END
> <s_m_source_file>
AV-unprocessed.smi

> <i_m_source_file_index>
1211

> <i_lp_mmshare_version>
43012

> <i_f3d_flags>
0

> <s_epik_input>
W0NIM11jMVtjSF1bY0hdW2NIXW5jMVtOSF1DKD1PKVtOSF1bQ0gyXVtDQF0yKFtDSDJdW0NIMl1TW0NIMl0yKU4zW0NIMl1bQ0gyXU9bQ0gyXVtDSDJdMw==

> <s_epik_cmdline>
J2VwaWtfcHl0aG9uJywgJy1waCcsICc3LjAnLCAnLXRuJywgJzgnLCAnLW1hJywgJzIwMCcsICctbWV0YWxfYmluZGluZycsICctaW1hZScsICc8aW5maWxlLm1hZT4nLCAnLW9tYWUnLCAnPG91dGZpbGUubWFlPic=

> <r_epik_Ionization_Penalty>
2.03223

> <r_epik_Ionization_Penalty_Charging>
2.03219

> <r_epik_Ionization_Penalty_Neutral>
4.05816e-05

> <r_epik_State_Penalty>
2.16328

> <r_epik_Charging_Adjusted_Penalty>
4.19546

> <i_epik_Tot_Q>
1

> <i_epik_Tot_abs_Q>
1

> <r_epik_Metal_State_Penalty>
2.16328

> <b_epik_Metal_Only>
0

> <s_lp_Force_Field>
OPLS_2005

> <r_lp_Energy>
45.8952

> <b_lp_Chiralities_Consistent>
1

> <s_lp_Variant>
AV-unprocessed.smi:1211-3

> <Gold.Version>
5.8.1

> <Gold.Id.Protein>
6NUR|6NUR_protein|mol2

> <Gold.PLP.Fitness>
45.7537

> <Gold.PLP.PLP>
-42.3583

> <Gold.PLP.part.hbond>
-1.6291

> <Gold.PLP.part.metal>
0.0000

> <Gold.PLP.part.buried>
-6.8195

> <Gold.PLP.part.nonpolar>
-33.1840

> <Gold.PLP.part.repulsive>
0.4242

> <Gold.PLP.ligand.clash>
0.3142

> <Gold.PLP.ligand.torsion>
1.7352

> <Gold.PLP.Chemscore.Hbond>
2.3455

> <Gold.PLP.Chemscore.CHOScore>
0.0000

> <Gold.PLP.Chemscore.Metal>
0.0000

> <Gold.Chemscore.Hbonds>
donor molecule, donor type, donor heavy atom, donor atom, acceptor molecule, acceptor atom, score
      L1  H    11    31       P1  8028  0.70
      L1  H    14    48       P1  8028  0.05

> <Gold.PLP.Chemscore.Internal.Correction>
0.1435

> <Gold.Rescore>
     Score         DG    S(hbond)    S(metal)    S(lipo)     H(rot)  DE(clash)    DE(int)     intcor
     14.61     -17.55       1.04        0.00     105.93       1.48       0.01       2.94       ----

> <Gold.Chemscore.Fitness>
14.6058

> <Gold.Chemscore.DG>
-17.5467

> <Gold.Chemscore.ZeroCoef>
-5.4800

> <Gold.Chemscore.Hbond>
1.0381

> <Gold.Chemscore.Metal>
0.0000

> <Gold.Chemscore.Lipo>
105.9258

> <Gold.Chemscore.Internal_Hbond>
0.0000

> <Gold.Chemscore.DEClash>
0.0051

> <Gold.Chemscore.DEInternal>
2.9358

> <Gold.Chemscore.Rot>
1.4820

> <Gold.Chemscore.Internal.Correction>
   9.000000E+99

> <Gold.Chemscore.Hbonds>
donor molecule, donor type, donor heavy atom, donor atom, acceptor molecule, acceptor atom, score
      L1  H    11    31       P1  8028  0.70
      L1  H    14    48       P1  8028  0.01

> <Gold.Chemscore.Hbond.Weighted>
-3.4673

> <Gold.Chemscore.Metal.Weighted>
-0.0000

> <Gold.Chemscore.Lipo.Weighted>
-12.3933

> <Gold.Chemscore.Internal_Hbond.Weighted>
0.0000

> <Gold.Chemscore.DEClash.Weighted>
0.0051

> <Gold.Chemscore.DEInternal.Weighted>
2.9358

> <Gold.Chemscore.Rot.Weighted>
3.7939

> <Gold.Chemscore.Internal.Correction.Weighted>
   9.000000E+99

> <Gold.Protein.RotatedTorsions>
[ 6907 6896 6895 6894 ] final -145.54 input  -60.11 | X-H torsion
[ 7974 7965 7964 7962 ] final  123.66 input  175.53 | X-H torsion
[ 8008 7997 7996 7995 ] final  -66.33 input   59.86 | X-H torsion
[ 10167 10162 10161 10158 ] final   90.39 input  -65.29 | X-H torsion
[ 10718 10713 10712 10709 ] final -136.51 input   66.30 | X-H torsion
[ 10763 10752 10751 10750 ] final  -99.52 input  -60.55 | X-H torsion
[ 11005 11000 10999 10996 ] final   92.20 input  -57.11 | X-H torsion

> <Gold.Protein.ActiveResidues>
 VAL166  LYS551  ARG553  GLY616  TRP617  ASP618  TYR619  PRO620  LYS621  CYS622 
 ASP623  PHE694  ASN695  SER759  ASP760  ASP761  ALA762  ILE779  LEU786  VAL792 
 PHE793  MET794  SER795  GLU796  ALA797  LYS798  CYS799  TRP800  GLU811  SER814 

> <Gold.Protein.RotatedAtoms>
  151.1292  133.5049  159.2599 H   0  0  0  0  0  0  0  0  0  0  0  0  # atno 6907 bound_to 6896
  151.1776  135.0346  159.8789 H   0  0  0  0  0  0  0  0  0  0  0  0  # atno 6908 bound_to 6896
  152.5459  134.1147  159.8427 H   0  0  0  0  0  0  0  0  0  0  0  0  # atno 6909 bound_to 6896
  145.0933  139.3571  143.4849 H   0  0  0  0  0  0  0  0  0  0  0  0  # atno 7974 bound_to 7965
  154.4727  140.0915  156.7186 H   0  0  0  0  0  0  0  0  0  0  0  0  # atno 8008 bound_to 7997
  155.4679  140.3463  155.4303 H   0  0  0  0  0  0  0  0  0  0  0  0  # atno 8009 bound_to 7997
  156.1066  140.1436  156.9384 H   0  0  0  0  0  0  0  0  0  0  0  0  # atno 8010 bound_to 7997
  139.8478  144.6609  150.9205 H   0  0  0  0  0  0  0  0  0  0  0  0  # atno 10167 bound_to 10162
  156.2778  130.7303  151.1291 H   0  0  0  0  0  0  0  0  0  0  0  0  # atno 10718 bound_to 10713
  154.7504  135.4969  153.9279 H   0  0  0  0  0  0  0  0  0  0  0  0  # atno 10763 bound_to 10752
  153.1137  135.6715  153.9462 H   0  0  0  0  0  0  0  0  0  0  0  0  # atno 10764 bound_to 10752
  153.9214  135.3088  155.3426 H   0  0  0  0  0  0  0  0  0  0  0  0  # atno 10765 bound_to 10752
  139.8827  134.8719  156.3538 H   0  0  0  0  0  0  0  0  0  0  0  0  # atno 11005 bound_to 11000
  146.3531  140.0778  142.8619 LP  0  0  0  0  0  0  0  0  0  0  0  0  # atno 17320 bound_to 7965
  145.1040  140.9363  143.4696 LP  0  0  0  0  0  0  0  0  0  0  0  0  # atno 17321 bound_to 7965
  140.7791  143.3854  151.1403 LP  0  0  0  0  0  0  0  0  0  0  0  0  # atno 17342 bound_to 10162
  139.7495  143.8801  152.3073 LP  0  0  0  0  0  0  0  0  0  0  0  0  # atno 17343 bound_to 10162
  157.7305  131.0616  150.5724 LP  0  0  0  0  0  0  0  0  0  0  0  0  # atno 17370 bound_to 10713
  156.5827  130.4308  149.5970 LP  0  0  0  0  0  0  0  0  0  0  0  0  # atno 17371 bound_to 10713
  140.9576  133.7410  156.0357 LP  0  0  0  0  0  0  0  0  0  0  0  0  # atno 17394 bound_to 11000
  140.8029  134.3488  157.5434 LP  0  0  0  0  0  0  0  0  0  0  0  0  # atno 17395 bound_to 11000

$$$$
