AV-unprocessed.smi:1244|AV-procd|sdf|5229|dock5
  -GOLD-   22720 4333D 1   1.00000     0.00000
 Structure written by MMmdl.
 55 57  0  0  0  0  0  0  0  0  2 V2000
  152.0185  144.9680  158.5880 C   0  0  0  0  0  0  0  0  0  0  0  0
  152.4171  143.4908  158.5081 C   0  0  2  0  0  0  0  0  0  0  0  0
  151.2408  142.5911  158.0840 C   0  0  0  0  0  0  0  0  0  0  0  0
  151.6091  141.1806  158.0825 N   0  0  0  0  0  0  0  0  0  0  0  0
  150.4892  140.3413  157.6548 C   0  0  0  0  0  0  0  0  0  0  0  0
  150.7254  138.8216  157.7698 C   0  0  0  0  0  0  0  0  0  0  0  0
  149.5034  138.1092  158.1284 N   0  0  0  0  0  0  0  0  0  0  0  0
  149.3679  137.2966  159.1849 C   0  0  0  0  0  0  0  0  0  0  0  0
  150.2937  136.9927  159.9371 O   0  0  0  0  0  0  0  0  0  0  0  0
  148.0949  136.8931  159.3260 N   0  0  0  0  0  0  0  0  0  0  0  0
  147.5449  136.1131  160.3808 C   0  0  0  0  0  0  0  0  0  0  0  0
  147.9283  136.3090  161.7317 C   0  0  0  0  0  0  0  0  0  0  0  0
  147.3616  135.5083  162.7421 C   0  0  0  0  0  0  0  0  0  0  0  0
  146.4276  134.5194  162.3854 C   0  0  0  0  0  0  0  0  0  0  0  0
  146.0955  134.3489  161.0886 N   0  3  0  0  0  0  0  0  0  0  0  0
  146.6070  135.0899  160.0749 C   0  0  0  0  0  0  0  0  0  0  0  0
  146.2037  134.8098  158.7522 N   0  0  0  0  0  0  0  0  0  0  0  0
  146.6069  133.4913  158.2705 C   0  0  0  0  0  0  0  0  0  0  0  0
  145.4677  132.9879  157.3811 C   0  0  0  0  0  0  0  0  0  0  0  0
  144.2473  133.7083  157.9410 C   0  0  0  0  0  0  0  0  0  0  0  0
  144.8223  135.0641  158.3467 C   0  0  0  0  0  0  0  0  0  0  0  0
  152.1104  140.8192  159.4052 C   0  0  0  0  0  0  0  0  0  0  0  0
  153.2868  141.7157  159.8367 C   0  0  2  0  0  0  0  0  0  0  0  0
  153.7644  141.4011  161.2582 C   0  0  0  0  0  0  0  0  0  0  0  0
  152.8767  143.0798  159.7930 O   0  0  0  0  0  0  0  0  0  0  0  0
  151.6715  145.3336  157.6213 H   0  0  0  0  0  0  0  0  0  0  0  0
  152.8653  145.5838  158.8917 H   0  0  0  0  0  0  0  0  0  0  0  0
  151.2179  145.1218  159.3120 H   0  0  0  0  0  0  0  0  0  0  0  0
  153.2334  143.3863  157.7910 H   0  0  0  0  0  0  0  0  0  0  0  0
  150.3972  142.7514  158.7578 H   0  0  0  0  0  0  0  0  0  0  0  0
  150.9045  142.8847  157.0888 H   0  0  0  0  0  0  0  0  0  0  0  0
  149.5914  140.6105  158.2130 H   0  0  0  0  0  0  0  0  0  0  0  0
  150.2633  140.5628  156.6109 H   0  0  0  0  0  0  0  0  0  0  0  0
  151.0947  138.4181  156.8272 H   0  0  0  0  0  0  0  0  0  0  0  0
  151.5039  138.6200  158.5072 H   0  0  0  0  0  0  0  0  0  0  0  0
  148.6879  138.3014  157.5657 H   0  0  0  0  0  0  0  0  0  0  0  0
  147.4271  137.3018  158.6891 H   0  0  0  0  0  0  0  0  0  0  0  0
  148.6577  137.0563  162.0061 H   0  0  0  0  0  0  0  0  0  0  0  0
  147.6436  135.6492  163.7753 H   0  0  0  0  0  0  0  0  0  0  0  0
  145.9450  133.8588  163.0911 H   0  0  0  0  0  0  0  0  0  0  0  0
  147.5449  133.5434  157.7175 H   0  0  0  0  0  0  0  0  0  0  0  0
  146.7512  132.8116  159.1123 H   0  0  0  0  0  0  0  0  0  0  0  0
  145.6374  133.2999  156.3495 H   0  0  0  0  0  0  0  0  0  0  0  0
  145.3666  131.9024  157.3934 H   0  0  0  0  0  0  0  0  0  0  0  0
  143.4314  133.7906  157.2222 H   0  0  0  0  0  0  0  0  0  0  0  0
  143.8752  133.1817  158.8210 H   0  0  0  0  0  0  0  0  0  0  0  0
  144.2083  135.5548  159.1020 H   0  0  0  0  0  0  0  0  0  0  0  0
  144.8490  135.7290  157.4825 H   0  0  0  0  0  0  0  0  0  0  0  0
  151.3052  140.8953  160.1379 H   0  0  0  0  0  0  0  0  0  0  0  0
  152.4415  139.7811  159.4111 H   0  0  0  0  0  0  0  0  0  0  0  0
  154.1219  141.5768  159.1477 H   0  0  0  0  0  0  0  0  0  0  0  0
  154.1024  140.3678  161.3392 H   0  0  0  0  0  0  0  0  0  0  0  0
  152.9653  141.5511  161.9848 H   0  0  0  0  0  0  0  0  0  0  0  0
  154.5969  142.0460  161.5407 H   0  0  0  0  0  0  0  0  0  0  0  0
  145.4231  133.6170  160.8584 H   0  0  0  0  0  0  0  0  0  0  0  0
  1  2  1  0  0  0  0
  1 26  1  0  0  0  0
  1 27  1  0  0  0  0
  1 28  1  0  0  0  0
  2 25  1  0  0  0  0
  2  3  1  0  0  0  0
  2 29  1  0  0  0  0
  3  4  1  0  0  0  0
  3 30  1  0  0  0  0
  3 31  1  0  0  0  0
  4  5  1  0  0  0  0
  4 22  1  0  0  0  0
  5  6  1  0  0  0  0
  5 32  1  0  0  0  0
  5 33  1  0  0  0  0
  6  7  1  0  0  0  0
  6 34  1  0  0  0  0
  6 35  1  0  0  0  0
  7  8  1  0  0  0  0
  7 36  1  0  0  0  0
  8  9  2  0  0  0  0
  8 10  1  0  0  0  0
 10 11  1  0  0  0  0
 10 37  1  0  0  0  0
 11 16  1  0  0  0  0
 11 12  2  0  0  0  0
 12 13  1  0  0  0  0
 12 38  1  0  0  0  0
 13 14  2  0  0  0  0
 13 39  1  0  0  0  0
 14 15  1  0  0  0  0
 14 40  1  0  0  0  0
 15 16  2  0  0  0  0
 15 55  1  0  0  0  0
 16 17  1  0  0  0  0
 17 21  1  0  0  0  0
 17 18  1  0  0  0  0
 18 19  1  0  0  0  0
 18 41  1  0  0  0  0
 18 42  1  0  0  0  0
 19 20  1  0  0  0  0
 19 43  1  0  0  0  0
 19 44  1  0  0  0  0
 20 21  1  0  0  0  0
 20 45  1  0  0  0  0
 20 46  1  0  0  0  0
 21 47  1  0  0  0  0
 21 48  1  0  0  0  0
 22 23  1  0  0  0  0
 22 49  1  0  0  0  0
 22 50  1  0  0  0  0
 23 24  1  0  0  0  0
 23 25  1  0  0  0  0
 23 51  1  0  0  0  0
 24 52  1  0  0  0  0
 24 53  1  0  0  0  0
 24 54  1  0  0  0  0
M  CHG  1  15   1
M  END
> <s_m_source_file>
AV-unprocessed.smi

> <i_m_source_file_index>
1244

> <i_lp_mmshare_version>
43012

> <i_f3d_flags>
0

> <s_epik_input>
W0NIM11bQ0BASF0xW0NIMl1OKFtDSDJdW0NASF0oTzEpW0NIM10pW0NIMl1bQ0gyXVtOSF1DKD1PKVtOSF1jMltjSF1bY0hdW2NIXW5jMk4zW0NIMl1bQ0gyXVtDSDJdW0NIMl0z

> <s_epik_cmdline>
J2VwaWtfcHl0aG9uJywgJy1waCcsICc3LjAnLCAnLXRuJywgJzgnLCAnLW1hJywgJzIwMCcsICctbWV0YWxfYmluZGluZycsICctaW1hZScsICc8aW5maWxlLm1hZT4nLCAnLW9tYWUnLCAnPG91dGZpbGUubWFlPic=

> <r_epik_Ionization_Penalty>
1.38385

> <r_epik_Ionization_Penalty_Charging>
1.11784

> <r_epik_Ionization_Penalty_Neutral>
0.26601

> <r_epik_State_Penalty>
1.46794

> <r_epik_Charging_Adjusted_Penalty>
2.58578

> <i_epik_Tot_Q>
1

> <i_epik_Tot_abs_Q>
1

> <r_epik_Metal_State_Penalty>
1.54908

> <b_epik_Metal_Only>
0

> <s_lp_Force_Field>
OPLS_2005

> <r_lp_Energy>
57.7362

> <b_lp_Chiralities_Consistent>
1

> <s_lp_Variant>
AV-unprocessed.smi:1244-9

> <Gold.Version>
5.8.1

> <Gold.Id.Protein>
6NUR|6NUR_protein|mol2

> <Gold.PLP.Fitness>
44.2765

> <Gold.PLP.PLP>
-42.4325

> <Gold.PLP.part.hbond>
-1.8084

> <Gold.PLP.part.metal>
0.0000

> <Gold.PLP.part.buried>
-6.0874

> <Gold.PLP.part.nonpolar>
-35.9254

> <Gold.PLP.part.repulsive>
0.2988

> <Gold.PLP.ligand.clash>
0.0000

> <Gold.PLP.ligand.torsion>
0.6623

> <Gold.PLP.Chemscore.Hbond>
1.0000

> <Gold.PLP.Chemscore.CHOScore>
0.0000

> <Gold.PLP.Chemscore.Metal>
0.0000

> <Gold.Chemscore.Hbonds>
donor molecule, donor type, donor heavy atom, donor atom, acceptor molecule, acceptor atom, score
      P1  H  6896  6909       L1     9  0.86

> <Gold.PLP.Chemscore.Internal.Correction>
0.1686

> <Gold.Rescore>
     Score         DG    S(hbond)    S(metal)    S(lipo)     H(rot)  DE(clash)    DE(int)     intcor
     15.83     -17.35       0.97        0.00     108.34       1.58       0.02       1.50       ----

> <Gold.Chemscore.Fitness>
15.8319

> <Gold.Chemscore.DG>
-17.3538

> <Gold.Chemscore.ZeroCoef>
-5.4800

> <Gold.Chemscore.Hbond>
0.9707

> <Gold.Chemscore.Metal>
0.0000

> <Gold.Chemscore.Lipo>
108.3392

> <Gold.Chemscore.Internal_Hbond>
0.0000

> <Gold.Chemscore.DEClash>
0.0202

> <Gold.Chemscore.DEInternal>
1.5016

> <Gold.Chemscore.Rot>
1.5797

> <Gold.Chemscore.Internal.Correction>
   9.000000E+99

> <Gold.Chemscore.Hbonds>
donor molecule, donor type, donor heavy atom, donor atom, acceptor molecule, acceptor atom, score
      P1  H  6896  6909       L1     9  0.83

> <Gold.Chemscore.Hbond.Weighted>
-3.2420

> <Gold.Chemscore.Metal.Weighted>
-0.0000

> <Gold.Chemscore.Lipo.Weighted>
-12.6757

> <Gold.Chemscore.Internal_Hbond.Weighted>
0.0000

> <Gold.Chemscore.DEClash.Weighted>
0.0202

> <Gold.Chemscore.DEInternal.Weighted>
1.5016

> <Gold.Chemscore.Rot.Weighted>
4.0439

> <Gold.Chemscore.Internal.Correction.Weighted>
   9.000000E+99

> <Gold.Protein.RotatedTorsions>
[ 6907 6896 6895 6894 ] final  100.01 input  -60.11 | X-H torsion
[ 7974 7965 7964 7962 ] final  -49.00 input  175.53 | X-H torsion
[ 8008 7997 7996 7995 ] final -153.25 input   59.86 | X-H torsion
[ 10167 10162 10161 10158 ] final   97.59 input  -65.29 | X-H torsion
[ 10718 10713 10712 10709 ] final   53.02 input   66.30 | X-H torsion
[ 10763 10752 10751 10750 ] final  -81.74 input  -60.55 | X-H torsion
[ 11005 11000 10999 10996 ] final -158.59 input  -57.11 | X-H torsion

> <Gold.Protein.ActiveResidues>
 VAL166  LYS551  ARG553  GLY616  TRP617  ASP618  TYR619  PRO620  LYS621  CYS622 
 ASP623  PHE694  ASN695  SER759  ASP760  ASP761  ALA762  ILE779  LEU786  VAL792 
 PHE793  MET794  SER795  GLU796  ALA797  LYS798  CYS799  TRP800  GLU811  SER814 

> <Gold.Protein.RotatedAtoms>
  152.5381  134.0341  159.8037 H   0  0  0  0  0  0  0  0  0  0  0  0  # atno 6907 bound_to 6896
  151.0507  133.5619  159.2650 H   0  0  0  0  0  0  0  0  0  0  0  0  # atno 6908 bound_to 6896
  151.2554  135.0644  159.9131 H   0  0  0  0  0  0  0  0  0  0  0  0  # atno 6909 bound_to 6896
  145.9452  140.7625  142.9532 H   0  0  0  0  0  0  0  0  0  0  0  0  # atno 7974 bound_to 7965
  155.6678  140.0730  157.2531 H   0  0  0  0  0  0  0  0  0  0  0  0  # atno 8008 bound_to 7997
  154.4129  140.1704  156.1897 H   0  0  0  0  0  0  0  0  0  0  0  0  # atno 8009 bound_to 7997
  155.9642  140.3367  155.6521 H   0  0  0  0  0  0  0  0  0  0  0  0  # atno 8010 bound_to 7997
  139.7786  144.6896  151.0054 H   0  0  0  0  0  0  0  0  0  0  0  0  # atno 10167 bound_to 10162
  157.5129  130.8513  149.8458 H   0  0  0  0  0  0  0  0  0  0  0  0  # atno 10718 bound_to 10713
  154.5672  135.5616  153.7062 H   0  0  0  0  0  0  0  0  0  0  0  0  # atno 10763 bound_to 10752
  153.0037  135.6288  154.2163 H   0  0  0  0  0  0  0  0  0  0  0  0  # atno 10764 bound_to 10752
  154.2102  135.2874  155.2941 H   0  0  0  0  0  0  0  0  0  0  0  0  # atno 10765 bound_to 10752
  140.6519  134.4442  157.5235 H   0  0  0  0  0  0  0  0  0  0  0  0  # atno 11005 bound_to 11000
  144.6786  140.2344  143.7351 LP  0  0  0  0  0  0  0  0  0  0  0  0  # atno 17320 bound_to 7965
  145.8246  139.2059  143.1918 LP  0  0  0  0  0  0  0  0  0  0  0  0  # atno 17321 bound_to 7965
  140.7817  143.4508  151.0416 LP  0  0  0  0  0  0  0  0  0  0  0  0  # atno 17342 bound_to 10162
  139.8189  143.7848  152.3176 LP  0  0  0  0  0  0  0  0  0  0  0  0  # atno 17343 bound_to 10162
  156.0301  130.3767  150.1712 LP  0  0  0  0  0  0  0  0  0  0  0  0  # atno 17370 bound_to 10713
  156.9902  130.9891  151.3416 LP  0  0  0  0  0  0  0  0  0  0  0  0  # atno 17371 bound_to 10713
  139.9043  134.8485  156.1769 LP  0  0  0  0  0  0  0  0  0  0  0  0  # atno 17394 bound_to 11000
  141.0530  133.6879  156.1808 LP  0  0  0  0  0  0  0  0  0  0  0  0  # atno 17395 bound_to 11000

$$$$
