AV-unprocessed.smi:861|AV-procd|sdf|3972|dock6
  -GOLD-   22720 1443D 1   1.00000     0.00000
 Structure written by MMmdl.
 45 46  0  0  0  0  0  0  0  0  3 V2000
  146.8047  142.6986  154.0859 C   0  0  0  0  0  0  0  0  0  0  0  0
  147.5097  141.3732  154.4227 C   0  0  0  0  0  0  0  0  0  0  0  0
  149.0348  141.5616  154.3980 C   0  0  0  0  0  0  0  0  0  0  0  0
  147.0872  140.2215  153.4865 C   0  0  0  0  0  0  0  0  0  0  0  0
  148.0411  139.0103  153.5118 C   0  0  0  0  0  0  0  0  0  0  0  0
  147.3190  137.7134  153.5735 N   0  3  1  0  0  0  0  0  0  0  0  0
  147.1485  137.1934  154.9529 C   0  0  0  0  0  0  0  0  0  0  0  0
  146.4160  135.8429  154.9327 C   0  0  0  0  0  0  0  0  0  0  0  0
  145.1644  135.9906  154.2748 O   0  0  0  0  0  0  0  0  0  0  0  0
  145.3074  136.3908  152.9171 C   0  0  1  0  0  0  0  0  0  0  0  0
  143.8943  136.4230  152.3049 C   0  0  0  0  0  0  0  0  0  0  0  0
  143.1900  137.6733  152.5575 N   0  0  0  0  0  0  0  0  0  0  0  0
  141.8953  137.7009  153.0959 C   0  0  0  0  0  0  0  0  0  0  0  0
  141.1481  136.5520  153.4475 C   0  0  0  0  0  0  0  0  0  0  0  0
  139.8593  136.7315  153.9785 C   0  0  0  0  0  0  0  0  0  0  0  0
  139.3935  138.0496  154.1280 C   0  0  0  0  0  0  0  0  0  0  0  0
  140.1232  139.1349  153.7870 N   0  0  0  0  0  0  0  0  0  0  0  0
  141.3523  138.9303  153.2819 N   0  3  0  0  0  0  0  0  0  0  0  0
  146.0093  137.7657  152.8780 C   0  0  0  0  0  0  0  0  0  0  0  0
  147.0103  143.0077  153.0604 H   0  0  0  0  0  0  0  0  0  0  0  0
  147.1435  143.4987  154.7449 H   0  0  0  0  0  0  0  0  0  0  0  0
  145.7241  142.6264  154.2038 H   0  0  0  0  0  0  0  0  0  0  0  0
  147.2371  141.0981  155.4425 H   0  0  0  0  0  0  0  0  0  0  0  0
  149.3847  141.8335  153.4015 H   0  0  0  0  0  0  0  0  0  0  0  0
  149.5508  140.6480  154.6946 H   0  0  0  0  0  0  0  0  0  0  0  0
  149.3460  142.3484  155.0862 H   0  0  0  0  0  0  0  0  0  0  0  0
  146.0749  139.9002  153.7358 H   0  0  0  0  0  0  0  0  0  0  0  0
  147.0371  140.6152  152.4719 H   0  0  0  0  0  0  0  0  0  0  0  0
  148.7058  139.0228  152.6468 H   0  0  0  0  0  0  0  0  0  0  0  0
  148.6790  139.0881  154.3921 H   0  0  0  0  0  0  0  0  0  0  0  0
  148.1143  137.0639  155.4392 H   0  0  0  0  0  0  0  0  0  0  0  0
  146.5841  137.9127  155.5484 H   0  0  0  0  0  0  0  0  0  0  0  0
  147.0159  135.0786  154.4359 H   0  0  0  0  0  0  0  0  0  0  0  0
  146.2405  135.4971  155.9515 H   0  0  0  0  0  0  0  0  0  0  0  0
  145.9144  135.6490  152.3950 H   0  0  0  0  0  0  0  0  0  0  0  0
  143.9418  136.2436  151.2305 H   0  0  0  0  0  0  0  0  0  0  0  0
  143.2983  135.6077  152.7157 H   0  0  0  0  0  0  0  0  0  0  0  0
  143.6774  138.5421  152.3891 H   0  0  0  0  0  0  0  0  0  0  0  0
  141.5360  135.5528  153.3194 H   0  0  0  0  0  0  0  0  0  0  0  0
  139.2469  135.8884  154.2635 H   0  0  0  0  0  0  0  0  0  0  0  0
  138.4100  138.2404  154.5318 H   0  0  0  0  0  0  0  0  0  0  0  0
  145.3806  138.5243  153.3475 H   0  0  0  0  0  0  0  0  0  0  0  0
  146.1615  138.0722  151.8424 H   0  0  0  0  0  0  0  0  0  0  0  0
  147.8835  137.0435  153.0705 H   0  0  0  0  0  0  0  0  0  0  0  0
  141.9092  139.7462  153.0263 H   0  0  0  0  0  0  0  0  0  0  0  0
  1  2  1  0  0  0  0
  1 20  1  0  0  0  0
  1 21  1  0  0  0  0
  1 22  1  0  0  0  0
  2  3  1  0  0  0  0
  2  4  1  0  0  0  0
  2 23  1  0  0  0  0
  3 24  1  0  0  0  0
  3 25  1  0  0  0  0
  3 26  1  0  0  0  0
  4  5  1  0  0  0  0
  4 27  1  0  0  0  0
  4 28  1  0  0  0  0
  5  6  1  0  0  0  0
  5 29  1  0  0  0  0
  5 30  1  0  0  0  0
  6 19  1  0  0  0  0
  6  7  1  0  0  0  0
  6 44  1  0  0  0  0
  7  8  1  0  0  0  0
  7 31  1  0  0  0  0
  7 32  1  0  0  0  0
  8  9  1  0  0  0  0
  8 33  1  0  0  0  0
  8 34  1  0  0  0  0
  9 10  1  0  0  0  0
 10 11  1  0  0  0  0
 10 19  1  0  0  0  0
 10 35  1  0  0  0  0
 11 12  1  0  0  0  0
 11 36  1  0  0  0  0
 11 37  1  0  0  0  0
 12 13  1  0  0  0  0
 12 38  1  0  0  0  0
 13 18  1  0  0  0  0
 13 14  2  0  0  0  0
 14 15  1  0  0  0  0
 14 39  1  0  0  0  0
 15 16  2  0  0  0  0
 15 40  1  0  0  0  0
 16 17  1  0  0  0  0
 16 41  1  0  0  0  0
 17 18  2  0  0  0  0
 18 45  1  0  0  0  0
 19 42  1  0  0  0  0
 19 43  1  0  0  0  0
M  CHG  1   6   1
M  CHG  1  18   1
M  END
> <s_m_source_file>
AV-unprocessed.smi

> <i_m_source_file_index>
861

> <i_lp_mmshare_version>
43012

> <i_f3d_flags>
0

> <s_epik_input>
W0NIM11bQ0hdKFtDSDNdKVtDSDJdW0NIMl1OMVtDSDJdW0NIMl1PW0NASF0oW0NIMl0xKVtDSDJdW05IXWMyW2NIXVtjSF1bY0hdbm4y

> <s_epik_cmdline>
J2VwaWtfcHl0aG9uJywgJy1waCcsICc3LjAnLCAnLXRuJywgJzgnLCAnLW1hJywgJzIwMCcsICctbWV0YWxfYmluZGluZycsICctaW1hZScsICc8aW5maWxlLm1hZT4nLCAnLW9tYWUnLCAnPG91dGZpbGUubWFlPic=

> <r_lp_tautomer_probability>
0.966961

> <r_epik_Ionization_Penalty>
2.478

> <r_epik_Ionization_Penalty_Charging>
2.47799

> <r_epik_Ionization_Penalty_Neutral>
3.15286e-06

> <r_epik_State_Penalty>
2.10794

> <r_epik_Charging_Adjusted_Penalty>
4.58594

> <i_epik_Tot_Q>
2

> <i_epik_Tot_abs_Q>
2

> <r_epik_Metal_State_Penalty>
2.11378

> <b_epik_Metal_Only>
0

> <s_lp_Force_Field>
OPLS_2005

> <r_lp_Energy>
34.6119

> <b_lp_Chiralities_Consistent>
1

> <s_lp_Variant>
AV-unprocessed.smi:861-7

> <Gold.Version>
5.8.1

> <Gold.Id.Protein>
6NUR|6NUR_protein|mol2

> <Gold.PLP.Fitness>
47.2267

> <Gold.PLP.PLP>
-31.6597

> <Gold.PLP.part.hbond>
-4.7882

> <Gold.PLP.part.metal>
0.0000

> <Gold.PLP.part.buried>
-4.0722

> <Gold.PLP.part.nonpolar>
-24.1516

> <Gold.PLP.part.repulsive>
0.2601

> <Gold.PLP.ligand.clash>
0.0000

> <Gold.PLP.ligand.torsion>
1.1897

> <Gold.PLP.Chemscore.Hbond>
5.9680

> <Gold.PLP.Chemscore.CHOScore>
0.0000

> <Gold.PLP.Chemscore.Metal>
0.0000

> <Gold.Chemscore.Hbonds>
donor molecule, donor type, donor heavy atom, donor atom, acceptor molecule, acceptor atom, score
      L1  H     6    44       P1  7948  2.00
      L1  H    12    38       P1 10175  1.89
      L1  H    18    45       P1 10175  1.95

> <Gold.PLP.Chemscore.Internal.Correction>
0.0424

> <Gold.Rescore>
     Score         DG    S(hbond)    S(metal)    S(lipo)     H(rot)  DE(clash)    DE(int)     intcor
     16.34     -17.62       2.63        0.00      67.50       1.78       0.19       1.08       ----

> <Gold.Chemscore.Fitness>
16.3410

> <Gold.Chemscore.DG>
-17.6194

> <Gold.Chemscore.ZeroCoef>
-5.4800

> <Gold.Chemscore.Hbond>
2.6313

> <Gold.Chemscore.Metal>
0.0000

> <Gold.Chemscore.Lipo>
67.4967

> <Gold.Chemscore.Internal_Hbond>
0.0000

> <Gold.Chemscore.DEClash>
0.1938

> <Gold.Chemscore.DEInternal>
1.0846

> <Gold.Chemscore.Rot>
1.7759

> <Gold.Chemscore.Internal.Correction>
   9.000000E+99

> <Gold.Chemscore.Hbonds>
donor molecule, donor type, donor heavy atom, donor atom, acceptor molecule, acceptor atom, score
      L1  H     6    44       P1  7948  1.00
      L1  H    12    38       P1 10175  0.91
      L1  H    18    45       P1 10175  0.47

> <Gold.Chemscore.Hbond.Weighted>
-8.7885

> <Gold.Chemscore.Metal.Weighted>
-0.0000

> <Gold.Chemscore.Lipo.Weighted>
-7.8971

> <Gold.Chemscore.Internal_Hbond.Weighted>
0.0000

> <Gold.Chemscore.DEClash.Weighted>
0.1938

> <Gold.Chemscore.DEInternal.Weighted>
1.0846

> <Gold.Chemscore.Rot.Weighted>
4.5462

> <Gold.Chemscore.Internal.Correction.Weighted>
   9.000000E+99

> <Gold.Protein.RotatedTorsions>
[ 6907 6896 6895 6894 ] final   75.49 input  -60.11 | X-H torsion
[ 7974 7965 7964 7962 ] final  146.93 input  175.53 | X-H torsion
[ 8008 7997 7996 7995 ] final  149.64 input   59.86 | X-H torsion
[ 10167 10162 10161 10158 ] final   59.07 input  -65.29 | X-H torsion
[ 10718 10713 10712 10709 ] final   76.99 input   66.30 | X-H torsion
[ 10763 10752 10751 10750 ] final   79.61 input  -60.55 | X-H torsion
[ 11005 11000 10999 10996 ] final -119.32 input  -57.11 | X-H torsion

> <Gold.Protein.ActiveResidues>
 VAL166  LYS551  ARG553  GLY616  TRP617  ASP618  TYR619  PRO620  LYS621  CYS622 
 ASP623  PHE694  ASN695  SER759  ASP760  ASP761  ALA762  ILE779  LEU786  VAL792 
 PHE793  MET794  SER795  GLU796  ALA797  LYS798  CYS799  TRP800  GLU811  SER814 

> <Gold.Protein.RotatedAtoms>
  152.5028  134.4113  159.9449 H   0  0  0  0  0  0  0  0  0  0  0  0  # atno 6907 bound_to 6896
  151.4081  133.3730  159.2748 H   0  0  0  0  0  0  0  0  0  0  0  0  # atno 6908 bound_to 6896
  150.9312  134.8748  159.7611 H   0  0  0  0  0  0  0  0  0  0  0  0  # atno 6909 bound_to 6896
  144.8632  139.5965  143.5921 H   0  0  0  0  0  0  0  0  0  0  0  0  # atno 7974 bound_to 7965
  156.2747  140.2096  156.5890 H   0  0  0  0  0  0  0  0  0  0  0  0  # atno 8008 bound_to 7997
  154.6998  140.0522  157.0470 H   0  0  0  0  0  0  0  0  0  0  0  0  # atno 8009 bound_to 7997
  155.0751  140.3181  155.4621 H   0  0  0  0  0  0  0  0  0  0  0  0  # atno 8010 bound_to 7997
  140.1804  144.4188  150.6618 H   0  0  0  0  0  0  0  0  0  0  0  0  # atno 10167 bound_to 10162
  157.6694  130.9800  150.1577 H   0  0  0  0  0  0  0  0  0  0  0  0  # atno 10718 bound_to 10713
  153.0966  135.4833  154.8791 H   0  0  0  0  0  0  0  0  0  0  0  0  # atno 10763 bound_to 10752
  154.7332  135.3065  154.8859 H   0  0  0  0  0  0  0  0  0  0  0  0  # atno 10764 bound_to 10752
  153.9488  135.6825  153.4797 H   0  0  0  0  0  0  0  0  0  0  0  0  # atno 10765 bound_to 10752
  141.0223  134.0105  157.3264 H   0  0  0  0  0  0  0  0  0  0  0  0  # atno 11005 bound_to 11000
  146.2876  139.7048  142.9184 LP  0  0  0  0  0  0  0  0  0  0  0  0  # atno 17320 bound_to 7965
  145.4272  141.0412  143.2931 LP  0  0  0  0  0  0  0  0  0  0  0  0  # atno 17321 bound_to 7965
  140.6523  143.2228  151.6048 LP  0  0  0  0  0  0  0  0  0  0  0  0  # atno 17342 bound_to 10162
  139.5299  144.2948  152.1122 LP  0  0  0  0  0  0  0  0  0  0  0  0  # atno 17343 bound_to 10162
  156.2361  130.3686  149.8390 LP  0  0  0  0  0  0  0  0  0  0  0  0  # atno 17370 bound_to 10713
  156.6203  130.8623  151.3474 LP  0  0  0  0  0  0  0  0  0  0  0  0  # atno 17371 bound_to 10713
  139.9154  135.0196  156.7860 LP  0  0  0  0  0  0  0  0  0  0  0  0  # atno 17394 bound_to 11000
  140.6551  133.9696  155.7775 LP  0  0  0  0  0  0  0  0  0  0  0  0  # atno 17395 bound_to 11000

$$$$
