AV-unprocessed.smi:2306|AV-procd|sdf|9248|dock8
  -GOLD-   2272012463D 1   1.00000     0.00000
 Structure written by MMmdl.
 41 42  0  0  0  0  0  0  0  0  1 V2000
  152.0032  143.8743  161.4027 C   0  0  0  0  0  0  0  0  0  0  0  0
  151.8071  143.2199  160.0467 C   0  0  0  0  0  0  0  0  0  0  0  0
  150.9491  143.8914  159.1706 N   0  0  0  0  0  0  0  0  0  0  0  0
  150.7123  143.4013  157.9978 C   0  0  0  0  0  0  0  0  0  0  0  0
  151.2974  142.1990  157.5698 N   0  0  0  0  0  0  0  0  0  0  0  0
  150.9449  141.7492  156.2139 C   0  0  0  0  0  0  0  0  0  0  0  0
  150.0471  140.4903  156.2370 C   0  0  2  0  0  0  0  0  0  0  0  0
  150.8702  139.3419  156.2723 O   0  0  0  0  0  0  0  0  0  0  0  0
  149.1640  140.3829  154.9848 C   0  0  0  0  0  0  0  0  0  0  0  0
  148.1425  141.3618  155.0731 O   0  0  0  0  0  0  0  0  0  0  0  0
  147.2167  141.3042  154.0010 C   0  0  0  0  0  0  0  0  0  0  0  0
  146.0485  142.2528  154.2006 C   0  0  0  0  0  0  0  0  0  0  0  0
  145.2891  142.2217  155.3908 C   0  0  0  0  0  0  0  0  0  0  0  0
  144.1979  143.0966  155.5582 C   0  0  0  0  0  0  0  0  0  0  0  0
  143.8562  144.0017  154.5349 C   0  0  0  0  0  0  0  0  0  0  0  0
  144.6048  144.0297  153.3426 C   0  0  0  0  0  0  0  0  0  0  0  0
  145.6965  143.1554  153.1747 C   0  0  0  0  0  0  0  0  0  0  0  0
  152.1621  141.4907  158.3528 C   0  0  0  0  0  0  0  0  0  0  0  0
  152.6908  140.4501  157.9559 O   0  0  0  0  0  0  0  0  0  0  0  0
  152.4151  142.0561  159.6879 C   0  0  0  0  0  0  0  0  0  0  0  0
  153.3552  141.2792  160.6011 C   0  0  0  0  0  0  0  0  0  0  0  0
  153.0515  144.1332  161.5535 H   0  0  0  0  0  0  0  0  0  0  0  0
  151.6914  143.2002  162.2008 H   0  0  0  0  0  0  0  0  0  0  0  0
  151.4172  144.7900  161.4911 H   0  0  0  0  0  0  0  0  0  0  0  0
  150.0539  143.8872  157.2756 H   0  0  0  0  0  0  0  0  0  0  0  0
  150.4231  142.5664  155.7123 H   0  0  0  0  0  0  0  0  0  0  0  0
  151.8265  141.5866  155.5896 H   0  0  0  0  0  0  0  0  0  0  0  0
  149.4038  140.4787  157.1181 H   0  0  0  0  0  0  0  0  0  0  0  0
  150.7555  138.9148  157.1074 H   0  0  0  0  0  0  0  0  0  0  0  0
  149.7571  140.5250  154.0799 H   0  0  0  0  0  0  0  0  0  0  0  0
  148.7085  139.3926  154.9293 H   0  0  0  0  0  0  0  0  0  0  0  0
  147.7237  141.5540  153.0674 H   0  0  0  0  0  0  0  0  0  0  0  0
  146.8252  140.2910  153.9003 H   0  0  0  0  0  0  0  0  0  0  0  0
  145.5376  141.5288  156.1815 H   0  0  0  0  0  0  0  0  0  0  0  0
  143.6220  143.0715  156.4716 H   0  0  0  0  0  0  0  0  0  0  0  0
  143.0188  144.6716  154.6635 H   0  0  0  0  0  0  0  0  0  0  0  0
  144.3408  144.7211  152.5559 H   0  0  0  0  0  0  0  0  0  0  0  0
  146.2637  143.1804  152.2558 H   0  0  0  0  0  0  0  0  0  0  0  0
  152.9414  140.2927  160.8120 H   0  0  0  0  0  0  0  0  0  0  0  0
  153.5321  141.7721  161.5556 H   0  0  0  0  0  0  0  0  0  0  0  0
  154.3239  141.1441  160.1189 H   0  0  0  0  0  0  0  0  0  0  0  0
  1  2  1  0  0  0  0
  1 22  1  0  0  0  0
  1 23  1  0  0  0  0
  1 24  1  0  0  0  0
  2 20  2  0  0  0  0
  2  3  1  0  0  0  0
  3  4  2  0  0  0  0
  4  5  1  0  0  0  0
  4 25  1  0  0  0  0
  5  6  1  0  0  0  0
  5 18  1  0  0  0  0
  6  7  1  0  0  0  0
  6 26  1  0  0  0  0
  6 27  1  0  0  0  0
  7  8  1  0  0  0  0
  7  9  1  0  0  0  0
  7 28  1  0  0  0  0
  8 29  1  0  0  0  0
  9 10  1  0  0  0  0
  9 30  1  0  0  0  0
  9 31  1  0  0  0  0
 10 11  1  0  0  0  0
 11 12  1  0  0  0  0
 11 32  1  0  0  0  0
 11 33  1  0  0  0  0
 12 17  1  0  0  0  0
 12 13  2  0  0  0  0
 13 14  1  0  0  0  0
 13 34  1  0  0  0  0
 14 15  2  0  0  0  0
 14 35  1  0  0  0  0
 15 16  1  0  0  0  0
 15 36  1  0  0  0  0
 16 17  2  0  0  0  0
 16 37  1  0  0  0  0
 17 38  1  0  0  0  0
 18 19  2  0  0  0  0
 18 20  1  0  0  0  0
 20 21  1  0  0  0  0
 21 39  1  0  0  0  0
 21 40  1  0  0  0  0
 21 41  1  0  0  0  0
M  END
> <s_m_source_file>
AV-unprocessed.smi

> <i_m_source_file_index>
2306

> <i_lp_mmshare_version>
43012

> <i_f3d_flags>
0

> <s_epik_input>
W0NIM11jMW5bY0hdbihjKD1PKWMxW0NIM10pW0NIMl1bQ0BIXShbT0hdKVtDSDJdT1tDSDJdYzJbY0hdW2NIXVtjSF1bY0hdW2NIXTI=

> <s_epik_cmdline>
J2VwaWtfcHl0aG9uJywgJy1waCcsICc3LjAnLCAnLXRuJywgJzgnLCAnLW1hJywgJzIwMCcsICctbWV0YWxfYmluZGluZycsICctaW1hZScsICc8aW5maWxlLm1hZT4nLCAnLW9tYWUnLCAnPG91dGZpbGUubWFlPic=

> <r_lp_tautomer_probability>
1

> <r_epik_Ionization_Penalty>
5.35985e-05

> <r_epik_Ionization_Penalty_Charging>
1.17753e-07

> <r_epik_Ionization_Penalty_Neutral>
5.34808e-05

> <r_epik_State_Penalty>
-0

> <r_epik_Charging_Adjusted_Penalty>
1.17753e-07

> <i_epik_Tot_Q>
0

> <i_epik_Tot_abs_Q>
0

> <r_epik_Metal_State_Penalty>
-0

> <b_epik_Metal_Only>
0

> <s_lp_Force_Field>
OPLS_2005

> <r_lp_Energy>
22.2439

> <b_lp_Chiralities_Consistent>
1

> <s_lp_Variant>
AV-unprocessed.smi:2306-1

> <Gold.Version>
5.8.1

> <Gold.Id.Protein>
6NUR|6NUR_protein|mol2

> <Gold.PLP.Fitness>
49.3799

> <Gold.PLP.PLP>
-44.4001

> <Gold.PLP.part.hbond>
-1.0000

> <Gold.PLP.part.metal>
0.0000

> <Gold.PLP.part.buried>
-7.3936

> <Gold.PLP.part.nonpolar>
-35.4803

> <Gold.PLP.part.repulsive>
0.1706

> <Gold.PLP.ligand.clash>
0.0000

> <Gold.PLP.ligand.torsion>
0.5672

> <Gold.PLP.Chemscore.Hbond>
0.9920

> <Gold.PLP.Chemscore.CHOScore>
1.0000

> <Gold.PLP.Chemscore.Metal>
0.0000

> <Gold.Chemscore.Hbonds>
donor molecule, donor type, donor heavy atom, donor atom, acceptor molecule, acceptor atom, score
      P1  H  7997  8010       L1    19  0.67
      L1  C     4    25       P1  8028  1.00

> <Gold.PLP.Chemscore.Internal.Correction>
0.1382

> <Gold.Rescore>
     Score         DG    S(hbond)    S(metal)    S(lipo)     H(rot)  DE(clash)    DE(int)     intcor
     11.91     -14.06       0.91        0.00     102.44       2.52       0.07       2.07       ----

> <Gold.Chemscore.Fitness>
11.9149

> <Gold.Chemscore.DG>
-14.0606

> <Gold.Chemscore.ZeroCoef>
-5.4800

> <Gold.Chemscore.Hbond>
0.9090

> <Gold.Chemscore.Metal>
0.0000

> <Gold.Chemscore.Lipo>
102.4442

> <Gold.Chemscore.Internal_Hbond>
0.0000

> <Gold.Chemscore.DEClash>
0.0709

> <Gold.Chemscore.DEInternal>
2.0747

> <Gold.Chemscore.Rot>
2.5162

> <Gold.Chemscore.Internal.Correction>
   9.000000E+99

> <Gold.Chemscore.Hbonds>
donor molecule, donor type, donor heavy atom, donor atom, acceptor molecule, acceptor atom, score
      P1  H  7997  8010       L1    19  0.65

> <Gold.Chemscore.Hbond.Weighted>
-3.0360

> <Gold.Chemscore.Metal.Weighted>
-0.0000

> <Gold.Chemscore.Lipo.Weighted>
-11.9860

> <Gold.Chemscore.Internal_Hbond.Weighted>
0.0000

> <Gold.Chemscore.DEClash.Weighted>
0.0709

> <Gold.Chemscore.DEInternal.Weighted>
2.0747

> <Gold.Chemscore.Rot.Weighted>
6.4414

> <Gold.Chemscore.Internal.Correction.Weighted>
   9.000000E+99

> <Gold.Protein.RotatedTorsions>
[ 6907 6896 6895 6894 ] final   41.14 input  -60.11 | X-H torsion
[ 7974 7965 7964 7962 ] final -126.86 input  175.53 | X-H torsion
[ 8008 7997 7996 7995 ] final   44.93 input   59.86 | X-H torsion
[ 10167 10162 10161 10158 ] final -150.85 input  -65.29 | X-H torsion
[ 10718 10713 10712 10709 ] final  -45.85 input   66.30 | X-H torsion
[ 10763 10752 10751 10750 ] final   29.86 input  -60.55 | X-H torsion
[ 11005 11000 10999 10996 ] final   83.33 input  -57.11 | X-H torsion

> <Gold.Protein.ActiveResidues>
 VAL166  LYS551  ARG553  GLY616  TRP617  ASP618  TYR619  PRO620  LYS621  CYS622 
 ASP623  PHE694  ASN695  SER759  ASP760  ASP761  ALA762  ILE779  LEU786  VAL792 
 PHE793  MET794  SER795  GLU796  ALA797  LYS798  CYS799  TRP800  GLU811  SER814 

> <Gold.Protein.RotatedAtoms>
  152.1914  134.8668  160.0516 H   0  0  0  0  0  0  0  0  0  0  0  0  # atno 6907 bound_to 6896
  151.9555  133.3674  159.4024 H   0  0  0  0  0  0  0  0  0  0  0  0  # atno 6908 bound_to 6896
  150.6936  134.4219  159.5252 H   0  0  0  0  0  0  0  0  0  0  0  0  # atno 6909 bound_to 6896
  144.9830  140.7658  143.4601 H   0  0  0  0  0  0  0  0  0  0  0  0  # atno 7974 bound_to 7965
  155.3275  140.3400  155.4240 H   0  0  0  0  0  0  0  0  0  0  0  0  # atno 8008 bound_to 7997
  156.1878  140.1687  156.8188 H   0  0  0  0  0  0  0  0  0  0  0  0  # atno 8009 bound_to 7997
  154.5406  140.0725  156.8487 H   0  0  0  0  0  0  0  0  0  0  0  0  # atno 8010 bound_to 7997
  139.7318  143.8796  152.2537 H   0  0  0  0  0  0  0  0  0  0  0  0  # atno 10167 bound_to 10162
  156.2242  130.4168  149.8955 H   0  0  0  0  0  0  0  0  0  0  0  0  # atno 10718 bound_to 10713
  153.0405  135.6478  154.0955 H   0  0  0  0  0  0  0  0  0  0  0  0  # atno 10763 bound_to 10752
  154.0662  135.2884  155.3318 H   0  0  0  0  0  0  0  0  0  0  0  0  # atno 10764 bound_to 10752
  154.6624  135.5386  153.8100 H   0  0  0  0  0  0  0  0  0  0  0  0  # atno 10765 bound_to 10752
  139.9034  134.8137  156.2295 H   0  0  0  0  0  0  0  0  0  0  0  0  # atno 11005 bound_to 11000
  145.2394  139.2079  143.5001 LP  0  0  0  0  0  0  0  0  0  0  0  0  # atno 17320 bound_to 7965
  146.3413  140.2286  142.8593 LP  0  0  0  0  0  0  0  0  0  0  0  0  # atno 17321 bound_to 7965
  139.8722  144.7062  150.8974 LP  0  0  0  0  0  0  0  0  0  0  0  0  # atno 17342 bound_to 10162
  140.7772  143.3729  151.1616 LP  0  0  0  0  0  0  0  0  0  0  0  0  # atno 17343 bound_to 10162
  156.6591  130.8775  151.3544 LP  0  0  0  0  0  0  0  0  0  0  0  0  # atno 17370 bound_to 10713
  157.7102  130.9431  150.1064 LP  0  0  0  0  0  0  0  0  0  0  0  0  # atno 17371 bound_to 10713
  141.0354  133.6966  156.1504 LP  0  0  0  0  0  0  0  0  0  0  0  0  # atno 17394 bound_to 11000
  140.7034  134.4539  157.5585 LP  0  0  0  0  0  0  0  0  0  0  0  0  # atno 17395 bound_to 11000

$$$$
