AV-unprocessed.smi:1328|AV-procd|sdf|5479|dock8
  -GOLD-   22720 5 53D 1   1.00000     0.00000
 Structure written by MMmdl.
 38 39  0  0  0  0  0  0  0  0  1 V2000
  152.2634  138.9188  155.3378 C   0  0  0  0  0  0  0  0  0  0  0  0
  151.0672  139.7936  155.5809 C   0  0  0  0  0  0  0  0  0  0  0  0
  150.4634  140.3684  154.5545 N   0  0  0  0  0  0  0  0  0  0  0  0
  149.4068  141.1068  155.0956 O   0  0  0  0  0  0  0  0  0  0  0  0
  149.4142  140.9433  156.4429 C   0  0  0  0  0  0  0  0  0  0  0  0
  148.3580  141.6663  157.2083 C   0  0  0  0  0  0  0  0  0  0  0  0
  150.4409  140.1206  156.8183 C   0  0  0  0  0  0  0  0  0  0  0  0
  150.8270  139.6709  158.2039 C   0  0  0  0  0  0  0  0  0  0  0  0
  152.1657  140.2994  158.5884 C   0  0  0  0  0  0  0  0  0  0  0  0
  153.2025  139.9156  158.0477 O   0  0  0  0  0  0  0  0  0  0  0  0
  152.1247  141.2558  159.5296 N   0  0  0  0  0  0  0  0  0  0  0  0
  153.2755  141.9526  160.1005 C   0  0  2  0  0  0  0  0  0  0  0  0
  153.3627  141.6045  161.5938 C   0  0  0  0  0  0  0  0  0  0  0  0
  153.1606  143.4742  159.8714 C   0  0  2  0  0  0  0  0  0  0  0  0
  152.0360  144.1640  160.6473 C   0  0  0  0  0  0  0  0  0  0  0  0
  151.7904  145.3928  159.8031 C   0  0  0  0  0  0  0  0  0  0  0  0
  151.9509  144.8342  158.3933 C   0  0  0  0  0  0  0  0  0  0  0  0
  152.8744  143.7540  158.5020 O   0  0  0  0  0  0  0  0  0  0  0  0
  151.9699  137.8718  155.2627 H   0  0  0  0  0  0  0  0  0  0  0  0
  152.9860  139.0041  156.1492 H   0  0  0  0  0  0  0  0  0  0  0  0
  152.7763  139.1889  154.4139 H   0  0  0  0  0  0  0  0  0  0  0  0
  148.6556  142.6989  157.3914 H   0  0  0  0  0  0  0  0  0  0  0  0
  148.1793  141.1909  158.1727 H   0  0  0  0  0  0  0  0  0  0  0  0
  147.4167  141.6766  156.6588 H   0  0  0  0  0  0  0  0  0  0  0  0
  150.0749  139.9598  158.9388 H   0  0  0  0  0  0  0  0  0  0  0  0
  150.9059  138.5849  158.2669 H   0  0  0  0  0  0  0  0  0  0  0  0
  151.2207  141.5002  159.9066 H   0  0  0  0  0  0  0  0  0  0  0  0
  154.1932  141.5997  159.6267 H   0  0  0  0  0  0  0  0  0  0  0  0
  154.2321  142.0709  162.0580 H   0  0  0  0  0  0  0  0  0  0  0  0
  153.4522  140.5277  161.7408 H   0  0  0  0  0  0  0  0  0  0  0  0
  152.4768  141.9420  162.1331 H   0  0  0  0  0  0  0  0  0  0  0  0
  154.1062  143.9619  160.1152 H   0  0  0  0  0  0  0  0  0  0  0  0
  151.1405  143.5409  160.6643 H   0  0  0  0  0  0  0  0  0  0  0  0
  152.3089  144.4001  161.6762 H   0  0  0  0  0  0  0  0  0  0  0  0
  150.8137  145.8460  159.9743 H   0  0  0  0  0  0  0  0  0  0  0  0
  152.5569  146.1430  160.0014 H   0  0  0  0  0  0  0  0  0  0  0  0
  151.0010  144.4403  158.0300 H   0  0  0  0  0  0  0  0  0  0  0  0
  152.2985  145.5868  157.6852 H   0  0  0  0  0  0  0  0  0  0  0  0
  1  2  1  0  0  0  0
  1 19  1  0  0  0  0
  1 20  1  0  0  0  0
  1 21  1  0  0  0  0
  2  7  1  0  0  0  0
  2  3  2  0  0  0  0
  3  4  1  0  0  0  0
  4  5  1  0  0  0  0
  5  6  1  0  0  0  0
  5  7  2  0  0  0  0
  6 22  1  0  0  0  0
  6 23  1  0  0  0  0
  6 24  1  0  0  0  0
  7  8  1  0  0  0  0
  8  9  1  0  0  0  0
  8 25  1  0  0  0  0
  8 26  1  0  0  0  0
  9 10  2  0  0  0  0
  9 11  1  0  0  0  0
 11 12  1  0  0  0  0
 11 27  1  0  0  0  0
 12 13  1  0  0  0  0
 12 14  1  0  0  0  0
 12 28  1  0  0  0  0
 13 29  1  0  0  0  0
 13 30  1  0  0  0  0
 13 31  1  0  0  0  0
 14 18  1  0  0  0  0
 14 15  1  0  0  0  0
 14 32  1  0  0  0  0
 15 16  1  0  0  0  0
 15 33  1  0  0  0  0
 15 34  1  0  0  0  0
 16 17  1  0  0  0  0
 16 35  1  0  0  0  0
 16 36  1  0  0  0  0
 17 18  1  0  0  0  0
 17 37  1  0  0  0  0
 17 38  1  0  0  0  0
M  END
> <s_m_source_file>
AV-unprocessed.smi

> <i_m_source_file_index>
1328

> <i_lp_mmshare_version>
43012

> <i_f3d_flags>
0

> <s_epik_input>
W0NIM11jMW5vYyhbQ0gzXSljMVtDSDJdQyg9TylbTkhdW0NASF0oW0NIM10pW0NAQEhdMltDSDJdW0NIMl1bQ0gyXU8y

> <s_epik_cmdline>
J2VwaWtfcHl0aG9uJywgJy1waCcsICc3LjAnLCAnLXRuJywgJzgnLCAnLW1hJywgJzIwMCcsICctbWV0YWxfYmluZGluZycsICctaW1hZScsICc8aW5maWxlLm1hZT4nLCAnLW9tYWUnLCAnPG91dGZpbGUubWFlPic=

> <r_lp_tautomer_probability>
1

> <r_epik_Ionization_Penalty>
2.66156e-08

> <r_epik_Ionization_Penalty_Charging>
0

> <r_epik_Ionization_Penalty_Neutral>
2.66156e-08

> <r_epik_State_Penalty>
-0

> <r_epik_Charging_Adjusted_Penalty>
0

> <i_epik_Tot_Q>
0

> <i_epik_Tot_abs_Q>
0

> <r_epik_Metal_State_Penalty>
-0

> <b_epik_Metal_Only>
0

> <s_lp_Force_Field>
OPLS_2005

> <r_lp_Energy>
12.1854

> <b_lp_Chiralities_Consistent>
1

> <s_lp_Variant>
AV-unprocessed.smi:1328-1

> <Gold.Version>
5.8.1

> <Gold.Id.Protein>
6NUR|6NUR_protein|mol2

> <Gold.PLP.Fitness>
45.4909

> <Gold.PLP.PLP>
-40.0237

> <Gold.PLP.part.hbond>
-2.0000

> <Gold.PLP.part.metal>
0.0000

> <Gold.PLP.part.buried>
-5.6944

> <Gold.PLP.part.nonpolar>
-32.8087

> <Gold.PLP.part.repulsive>
0.3596

> <Gold.PLP.ligand.clash>
0.0000

> <Gold.PLP.ligand.torsion>
0.2622

> <Gold.PLP.Chemscore.Hbond>
1.9920

> <Gold.PLP.Chemscore.CHOScore>
0.0000

> <Gold.PLP.Chemscore.Metal>
0.0000

> <Gold.Chemscore.Hbonds>
donor molecule, donor type, donor heavy atom, donor atom, acceptor molecule, acceptor atom, score
      P1  H  7989  7998       L1     3  1.00
      P1  H  7997  8010       L1    10  1.00

> <Gold.PLP.Chemscore.Internal.Correction>
0.0156

> <Gold.Rescore>
     Score         DG    S(hbond)    S(metal)    S(lipo)     H(rot)  DE(clash)    DE(int)     intcor
     18.33     -19.68       1.89        0.00     100.48       1.52       0.03       1.31       ----

> <Gold.Chemscore.Fitness>
18.3284

> <Gold.Chemscore.DG>
-19.6771

> <Gold.Chemscore.ZeroCoef>
-5.4800

> <Gold.Chemscore.Hbond>
1.8928

> <Gold.Chemscore.Metal>
0.0000

> <Gold.Chemscore.Lipo>
100.4776

> <Gold.Chemscore.Internal_Hbond>
0.0000

> <Gold.Chemscore.DEClash>
0.0341

> <Gold.Chemscore.DEInternal>
1.3146

> <Gold.Chemscore.Rot>
1.5159

> <Gold.Chemscore.Internal.Correction>
   9.000000E+99

> <Gold.Chemscore.Hbonds>
donor molecule, donor type, donor heavy atom, donor atom, acceptor molecule, acceptor atom, score
      P1  H  7989  7998       L1     3  0.64
      P1  H  7997  8010       L1    10  0.99

> <Gold.Chemscore.Hbond.Weighted>
-6.3219

> <Gold.Chemscore.Metal.Weighted>
-0.0000

> <Gold.Chemscore.Lipo.Weighted>
-11.7559

> <Gold.Chemscore.Internal_Hbond.Weighted>
0.0000

> <Gold.Chemscore.DEClash.Weighted>
0.0341

> <Gold.Chemscore.DEInternal.Weighted>
1.3146

> <Gold.Chemscore.Rot.Weighted>
3.8807

> <Gold.Chemscore.Internal.Correction.Weighted>
   9.000000E+99

> <Gold.Protein.RotatedTorsions>
[ 6907 6896 6895 6894 ] final -129.98 input  -60.11 | X-H torsion
[ 7974 7965 7964 7962 ] final    4.05 input  175.53 | X-H torsion
[ 8008 7997 7996 7995 ] final   40.91 input   59.86 | X-H torsion
[ 10167 10162 10161 10158 ] final -126.46 input  -65.29 | X-H torsion
[ 10718 10713 10712 10709 ] final -145.43 input   66.30 | X-H torsion
[ 10763 10752 10751 10750 ] final   76.96 input  -60.55 | X-H torsion
[ 11005 11000 10999 10996 ] final  111.51 input  -57.11 | X-H torsion

> <Gold.Protein.ActiveResidues>
 VAL166  LYS551  ARG553  GLY616  TRP617  ASP618  TYR619  PRO620  LYS621  CYS622 
 ASP623  PHE694  ASN695  SER759  ASP760  ASP761  ALA762  ILE779  LEU786  VAL792 
 PHE793  MET794  SER795  GLU796  ALA797  LYS798  CYS799  TRP800  GLU811  SER814 

> <Gold.Protein.RotatedAtoms>
  150.9347  133.6725  159.2802 H   0  0  0  0  0  0  0  0  0  0  0  0  # atno 6907 bound_to 6896
  151.4135  135.0987  159.9602 H   0  0  0  0  0  0  0  0  0  0  0  0  # atno 6908 bound_to 6896
  152.5042  133.8815  159.7403 H   0  0  0  0  0  0  0  0  0  0  0  0  # atno 6909 bound_to 6896
  146.2444  140.0593  142.8369 H   0  0  0  0  0  0  0  0  0  0  0  0  # atno 7974 bound_to 7965
  155.2608  140.3359  155.4273 H   0  0  0  0  0  0  0  0  0  0  0  0  # atno 8008 bound_to 7997
  156.2175  140.1795  156.7597 H   0  0  0  0  0  0  0  0  0  0  0  0  # atno 8009 bound_to 7997
  154.5775  140.0659  156.9041 H   0  0  0  0  0  0  0  0  0  0  0  0  # atno 8010 bound_to 7997
  139.9712  143.5844  152.2412 H   0  0  0  0  0  0  0  0  0  0  0  0  # atno 10167 bound_to 10162
  156.3823  130.7843  151.2037 H   0  0  0  0  0  0  0  0  0  0  0  0  # atno 10718 bound_to 10713
  153.0763  135.4932  154.8412 H   0  0  0  0  0  0  0  0  0  0  0  0  # atno 10763 bound_to 10752
  154.7092  135.3016  154.9226 H   0  0  0  0  0  0  0  0  0  0  0  0  # atno 10764 bound_to 10752
  153.9925  135.6776  153.4808 H   0  0  0  0  0  0  0  0  0  0  0  0  # atno 10765 bound_to 10752
  139.8905  134.9509  156.6444 H   0  0  0  0  0  0  0  0  0  0  0  0  # atno 11005 bound_to 11000
  145.0914  140.9287  143.4766 LP  0  0  0  0  0  0  0  0  0  0  0  0  # atno 17320 bound_to 7965
  145.0766  139.2991  143.5804 LP  0  0  0  0  0  0  0  0  0  0  0  0  # atno 17321 bound_to 7965
  139.6480  144.7659  151.2205 LP  0  0  0  0  0  0  0  0  0  0  0  0  # atno 17342 bound_to 10162
  140.7521  143.6207  150.8516 LP  0  0  0  0  0  0  0  0  0  0  0  0  # atno 17343 bound_to 10162
  157.7493  131.0340  150.4298 LP  0  0  0  0  0  0  0  0  0  0  0  0  # atno 17370 bound_to 10713
  156.4544  130.4018  149.6615 LP  0  0  0  0  0  0  0  0  0  0  0  0  # atno 17371 bound_to 10713
  140.7569  133.8850  155.8389 LP  0  0  0  0  0  0  0  0  0  0  0  0  # atno 17394 bound_to 11000
  140.9954  134.1222  157.4368 LP  0  0  0  0  0  0  0  0  0  0  0  0  # atno 17395 bound_to 11000

$$$$
