AV-unprocessed.smi:3279|AV-procd|sdf|12548|dock10
  -GOLD-   2272018463D 1   1.00000     0.00000
 Structure written by MMmdl.
 35 35  0  0  0  0  0  0  0  0  2 V2000
  151.0625  138.1239  159.5615 C   0  0  0  0  0  0  0  0  0  0  0  0
  152.2102  138.1793  158.5416 C   0  0  2  0  0  0  0  0  0  0  0  0
  153.3899  139.0549  159.0210 C   0  0  0  0  0  0  0  0  0  0  0  0
  152.9430  140.3036  159.6300 N   0  0  0  0  0  0  0  0  0  0  0  0
  153.7312  141.1697  160.2845 C   0  0  0  0  0  0  0  0  0  0  0  0
  154.9276  140.9732  160.4973 O   0  0  0  0  0  0  0  0  0  0  0  0
  153.0753  142.4699  160.7425 C   0  0  0  0  0  0  0  0  0  0  0  0
  151.8230  142.6101  160.0765 O   0  0  0  0  0  0  0  0  0  0  0  0
  151.5545  143.8416  159.4016 C   0  0  0  0  0  0  0  0  0  0  0  0
  150.1014  143.9017  158.8893 C   0  0  0  0  0  0  0  0  0  0  0  0
  152.5199  143.8418  158.2056 C   0  0  0  0  0  0  0  0  0  0  0  0
  151.8723  145.0385  160.3195 C   0  0  0  0  0  0  0  0  0  0  0  0
  151.7202  138.5721  157.1748 C   0  0  0  0  0  0  0  0  0  0  0  0
  150.8165  137.8549  156.4895 N   0  0  0  0  0  0  0  0  0  0  0  0
  150.6857  138.5309  155.3401 N   0  0  0  0  0  0  0  0  0  0  0  0
  151.4838  139.6051  155.3536 N   0  0  0  0  0  0  0  0  0  0  0  0
  152.1552  139.6557  156.5117 N   0  5  0  0  0  0  0  0  0  0  0  0
  150.2860  137.4301  159.2379 H   0  0  0  0  0  0  0  0  0  0  0  0
  150.6013  139.1028  159.6957 H   0  0  0  0  0  0  0  0  0  0  0  0
  151.4196  137.7888  160.5355 H   0  0  0  0  0  0  0  0  0  0  0  0
  152.5990  137.1604  158.4988 H   0  0  0  0  0  0  0  0  0  0  0  0
  153.9675  138.5145  159.7718 H   0  0  0  0  0  0  0  0  0  0  0  0
  154.0761  139.2601  158.1977 H   0  0  0  0  0  0  0  0  0  0  0  0
  151.9741  140.5552  159.4950 H   0  0  0  0  0  0  0  0  0  0  0  0
  152.9417  142.4396  161.8241 H   0  0  0  0  0  0  0  0  0  0  0  0
  153.7545  143.2890  160.5092 H   0  0  0  0  0  0  0  0  0  0  0  0
  149.9450  144.7783  158.2598 H   0  0  0  0  0  0  0  0  0  0  0  0
  149.3825  143.9652  159.7063 H   0  0  0  0  0  0  0  0  0  0  0  0
  149.8560  143.0209  158.2952 H   0  0  0  0  0  0  0  0  0  0  0  0
  152.3345  142.9908  157.5490 H   0  0  0  0  0  0  0  0  0  0  0  0
  153.5577  143.7825  158.5353 H   0  0  0  0  0  0  0  0  0  0  0  0
  152.4142  144.7485  157.6088 H   0  0  0  0  0  0  0  0  0  0  0  0
  151.8190  145.9783  159.7690 H   0  0  0  0  0  0  0  0  0  0  0  0
  152.8762  144.9583  160.7382 H   0  0  0  0  0  0  0  0  0  0  0  0
  151.1715  145.1187  161.1500 H   0  0  0  0  0  0  0  0  0  0  0  0
  1  2  1  0  0  0  0
  1 18  1  0  0  0  0
  1 19  1  0  0  0  0
  1 20  1  0  0  0  0
  2  3  1  0  0  0  0
  2 13  1  0  0  0  0
  2 21  1  0  0  0  0
  3  4  1  0  0  0  0
  3 22  1  0  0  0  0
  3 23  1  0  0  0  0
  4  5  1  0  0  0  0
  4 24  1  0  0  0  0
  5  6  2  0  0  0  0
  5  7  1  0  0  0  0
  7  8  1  0  0  0  0
  7 25  1  0  0  0  0
  7 26  1  0  0  0  0
  8  9  1  0  0  0  0
  9 10  1  0  0  0  0
  9 11  1  0  0  0  0
  9 12  1  0  0  0  0
 10 27  1  0  0  0  0
 10 28  1  0  0  0  0
 10 29  1  0  0  0  0
 11 30  1  0  0  0  0
 11 31  1  0  0  0  0
 11 32  1  0  0  0  0
 12 33  1  0  0  0  0
 12 34  1  0  0  0  0
 12 35  1  0  0  0  0
 13 17  1  0  0  0  0
 13 14  2  0  0  0  0
 14 15  1  0  0  0  0
 15 16  2  0  0  0  0
 16 17  1  0  0  0  0
M  CHG  1  17  -1
M  END
> <s_m_source_file>
AV-unprocessed.smi

> <i_m_source_file_index>
3279

> <i_lp_mmshare_version>
43012

> <i_f3d_flags>
0

> <s_epik_input>
W25IXTFubm5jMVtDQEhdKFtDSDNdKVtDSDJdW05IXUMoPU8pW0NIMl1PQyhbQ0gzXSkoW0NIM10pW0NIM10=

> <s_epik_cmdline>
J2VwaWtfcHl0aG9uJywgJy1waCcsICc3LjAnLCAnLXRuJywgJzgnLCAnLW1hJywgJzIwMCcsICctbWV0YWxfYmluZGluZycsICctaW1hZScsICc8aW5maWxlLm1hZT4nLCAnLW9tYWUnLCAnPG91dGZpbGUubWFlPic=

> <r_epik_Ionization_Penalty>
0.054353

> <r_epik_Ionization_Penalty_Charging>
0.054353

> <r_epik_Ionization_Penalty_Neutral>
3.0997e-08

> <r_epik_State_Penalty>
0.0139445

> <r_epik_Charging_Adjusted_Penalty>
0.0682975

> <i_epik_Tot_Q>
-1

> <i_epik_Tot_abs_Q>
1

> <r_epik_Metal_State_Penalty>
0.0109703

> <b_epik_Metal_Only>
0

> <s_lp_Force_Field>
OPLS_2005

> <r_lp_Energy>
-0.4509

> <b_lp_Chiralities_Consistent>
1

> <s_lp_Variant>
AV-unprocessed.smi:3279-1

> <Gold.Version>
5.8.1

> <Gold.Id.Protein>
6NUR|6NUR_protein|mol2

> <Gold.PLP.Fitness>
38.8608

> <Gold.PLP.PLP>
-31.7502

> <Gold.PLP.part.hbond>
-2.8036

> <Gold.PLP.part.metal>
0.0000

> <Gold.PLP.part.buried>
-5.2768

> <Gold.PLP.part.nonpolar>
-23.4172

> <Gold.PLP.part.repulsive>
0.2202

> <Gold.PLP.ligand.clash>
0.0000

> <Gold.PLP.ligand.torsion>
0.9019

> <Gold.PLP.Chemscore.Hbond>
2.9280

> <Gold.PLP.Chemscore.CHOScore>
0.0000

> <Gold.PLP.Chemscore.Metal>
0.0000

> <Gold.Chemscore.Hbonds>
donor molecule, donor type, donor heavy atom, donor atom, acceptor molecule, acceptor atom, score
      P1  H  7989  7998       L1    16  0.47
      P1  H  7997  8010       L1    17  0.85

> <Gold.PLP.Chemscore.Internal.Correction>
0.1304

> <Gold.Rescore>
     Score         DG    S(hbond)    S(metal)    S(lipo)     H(rot)  DE(clash)    DE(int)     intcor
     12.22     -13.17       1.89        0.00      69.56       2.64       0.03       0.92       ----

> <Gold.Chemscore.Fitness>
12.2176

> <Gold.Chemscore.DG>
-13.1699

> <Gold.Chemscore.ZeroCoef>
-5.4800

> <Gold.Chemscore.Hbond>
1.8897

> <Gold.Chemscore.Metal>
0.0000

> <Gold.Chemscore.Lipo>
69.5641

> <Gold.Chemscore.Internal_Hbond>
0.0000

> <Gold.Chemscore.DEClash>
0.0320

> <Gold.Chemscore.DEInternal>
0.9203

> <Gold.Chemscore.Rot>
2.6409

> <Gold.Chemscore.Internal.Correction>
   9.000000E+99

> <Gold.Chemscore.Hbonds>
donor molecule, donor type, donor heavy atom, donor atom, acceptor molecule, acceptor atom, score
      P1  H  7989  7998       L1    16  0.44
      P1  H  7997  8010       L1    17  0.37

> <Gold.Chemscore.Hbond.Weighted>
-6.3116

> <Gold.Chemscore.Metal.Weighted>
-0.0000

> <Gold.Chemscore.Lipo.Weighted>
-8.1390

> <Gold.Chemscore.Internal_Hbond.Weighted>
0.0000

> <Gold.Chemscore.DEClash.Weighted>
0.0320

> <Gold.Chemscore.DEInternal.Weighted>
0.9203

> <Gold.Chemscore.Rot.Weighted>
6.7607

> <Gold.Chemscore.Internal.Correction.Weighted>
   9.000000E+99

> <Gold.Protein.RotatedTorsions>
[ 6907 6896 6895 6894 ] final   13.98 input  -60.11 | X-H torsion
[ 7974 7965 7964 7962 ] final  144.17 input  175.53 | X-H torsion
[ 8008 7997 7996 7995 ] final   84.45 input   59.86 | X-H torsion
[ 10167 10162 10161 10158 ] final -148.12 input  -65.29 | X-H torsion
[ 10718 10713 10712 10709 ] final   86.46 input   66.30 | X-H torsion
[ 10763 10752 10751 10750 ] final  -66.21 input  -60.55 | X-H torsion
[ 11005 11000 10999 10996 ] final   18.56 input  -57.11 | X-H torsion

> <Gold.Protein.ActiveResidues>
 VAL166  LYS551  ARG553  GLY616  TRP617  ASP618  TYR619  PRO620  LYS621  CYS622 
 ASP623  PHE694  ASN695  SER759  ASP760  ASP761  ALA762  ILE779  LEU786  VAL792 
 PHE793  MET794  SER795  GLU796  ALA797  LYS798  CYS799  TRP800  GLU811  SER814 

> <Gold.Protein.RotatedAtoms>
  151.7949  135.0725  160.0392 H   0  0  0  0  0  0  0  0  0  0  0  0  # atno 6907 bound_to 6896
  152.3130  133.5768  159.5702 H   0  0  0  0  0  0  0  0  0  0  0  0  # atno 6908 bound_to 6896
  150.7330  134.0040  159.3689 H   0  0  0  0  0  0  0  0  0  0  0  0  # atno 6909 bound_to 6896
  144.8858  139.5630  143.5821 H   0  0  0  0  0  0  0  0  0  0  0  0  # atno 7974 bound_to 7965
  155.9372  140.3410  155.6297 H   0  0  0  0  0  0  0  0  0  0  0  0  # atno 8008 bound_to 7997
  155.7084  140.0769  157.2400 H   0  0  0  0  0  0  0  0  0  0  0  0  # atno 8009 bound_to 7997
  154.4096  140.1627  156.2256 H   0  0  0  0  0  0  0  0  0  0  0  0  # atno 8010 bound_to 7997
  139.7560  143.8447  152.2597 H   0  0  0  0  0  0  0  0  0  0  0  0  # atno 10167 bound_to 10162
  157.6929  131.0216  150.2976 H   0  0  0  0  0  0  0  0  0  0  0  0  # atno 10718 bound_to 10713
  154.3565  135.6125  153.5669 H   0  0  0  0  0  0  0  0  0  0  0  0  # atno 10763 bound_to 10752
  152.9795  135.5805  154.4683 H   0  0  0  0  0  0  0  0  0  0  0  0  # atno 10764 bound_to 10752
  154.4413  135.2850  155.1823 H   0  0  0  0  0  0  0  0  0  0  0  0  # atno 10765 bound_to 10752
  140.4235  134.1494  155.7674 H   0  0  0  0  0  0  0  0  0  0  0  0  # atno 11005 bound_to 11000
  146.3023  139.7468  142.9082 LP  0  0  0  0  0  0  0  0  0  0  0  0  # atno 17320 bound_to 7965
  145.3871  141.0367  143.3145 LP  0  0  0  0  0  0  0  0  0  0  0  0  # atno 17321 bound_to 7965
  139.8439  144.7196  150.9296 LP  0  0  0  0  0  0  0  0  0  0  0  0  # atno 17342 bound_to 10162
  140.7803  143.3958  151.1232 LP  0  0  0  0  0  0  0  0  0  0  0  0  # atno 17343 bound_to 10162
  156.3497  130.3829  149.7339 LP  0  0  0  0  0  0  0  0  0  0  0  0  # atno 17370 bound_to 10713
  156.4821  130.8046  151.3060 LP  0  0  0  0  0  0  0  0  0  0  0  0  # atno 17371 bound_to 10713
  141.1774  133.8484  157.1373 LP  0  0  0  0  0  0  0  0  0  0  0  0  # atno 17394 bound_to 11000
  140.0184  134.9957  157.0540 LP  0  0  0  0  0  0  0  0  0  0  0  0  # atno 17395 bound_to 11000

$$$$
