AV-unprocessed.smi:3278|AV-procd|sdf|12543|dock4
  -GOLD-   2272018453D 1   1.00000     0.00000
 Structure written by MMmdl.
 39 40  0  0  0  0  0  0  0  0  2 V2000
  149.3105  137.4000  159.3592 C   0  0  0  0  0  0  0  0  0  0  0  0
  149.1032  138.3978  158.3316 N   0  0  0  0  0  0  0  0  0  0  0  0
  150.0031  138.8813  157.4077 C   0  0  0  0  0  0  0  0  0  0  0  0
  149.3534  139.8100  156.6412 C   0  0  0  0  0  0  0  0  0  0  0  0
  149.8961  140.6211  155.4833 C   0  0  2  0  0  0  0  0  0  0  0  0
  148.7598  141.4261  154.8295 C   0  0  0  0  0  0  0  0  0  0  0  0
  150.4265  139.7962  154.4623 O   0  0  0  0  0  0  0  0  0  0  0  0
  151.0290  141.5612  155.9495 C   0  0  0  0  0  0  0  0  0  0  0  0
  150.5036  142.7055  156.7291 N   0  3  0  0  0  0  0  0  0  0  0  0
  151.4602  143.3338  157.6664 C   0  0  1  0  0  0  0  0  0  0  0  0
  150.9714  144.7328  158.1039 C   0  0  0  0  0  0  0  0  0  0  0  0
  151.9595  145.4441  159.0435 C   0  0  0  0  0  0  0  0  0  0  0  0
  152.2008  144.6668  160.3443 C   0  0  0  0  0  0  0  0  0  0  0  0
  152.9304  143.0429  160.0061 S   0  0  0  0  0  0  0  0  0  0  0  0
  151.6578  142.4088  158.8808 C   0  0  0  0  0  0  0  0  0  0  0  0
  148.0396  139.8236  157.1962 C   0  0  0  0  0  0  0  0  0  0  0  0
  147.8928  138.9756  158.2004 N   0  0  0  0  0  0  0  0  0  0  0  0
  150.3369  137.0336  159.3232 H   0  0  0  0  0  0  0  0  0  0  0  0
  148.6295  136.5627  159.2040 H   0  0  0  0  0  0  0  0  0  0  0  0
  149.1245  137.8369  160.3409 H   0  0  0  0  0  0  0  0  0  0  0  0
  151.0226  138.5266  157.3692 H   0  0  0  0  0  0  0  0  0  0  0  0
  148.3052  142.1197  155.5378 H   0  0  0  0  0  0  0  0  0  0  0  0
  147.9700  140.7694  154.4621 H   0  0  0  0  0  0  0  0  0  0  0  0
  149.1200  142.0131  153.9836 H   0  0  0  0  0  0  0  0  0  0  0  0
  150.2542  138.8926  154.6809 H   0  0  0  0  0  0  0  0  0  0  0  0
  151.7545  141.0143  156.5539 H   0  0  0  0  0  0  0  0  0  0  0  0
  151.5673  141.9358  155.0791 H   0  0  0  0  0  0  0  0  0  0  0  0
  150.1573  143.4090  156.0924 H   0  0  0  0  0  0  0  0  0  0  0  0
  152.4199  143.4288  157.1560 H   0  0  0  0  0  0  0  0  0  0  0  0
  150.8169  145.3691  157.2331 H   0  0  0  0  0  0  0  0  0  0  0  0
  149.9998  144.6491  158.5929 H   0  0  0  0  0  0  0  0  0  0  0  0
  152.9082  145.6036  158.5295 H   0  0  0  0  0  0  0  0  0  0  0  0
  151.5743  146.4351  159.2852 H   0  0  0  0  0  0  0  0  0  0  0  0
  152.8728  145.2229  160.9981 H   0  0  0  0  0  0  0  0  0  0  0  0
  151.2649  144.5317  160.8876 H   0  0  0  0  0  0  0  0  0  0  0  0
  150.7246  142.2937  159.4337 H   0  0  0  0  0  0  0  0  0  0  0  0
  151.9605  141.4128  158.5556 H   0  0  0  0  0  0  0  0  0  0  0  0
  147.1893  140.4184  156.8957 H   0  0  0  0  0  0  0  0  0  0  0  0
  149.7239  142.3580  157.2692 H   0  0  0  0  0  0  0  0  0  0  0  0
  1  2  1  0  0  0  0
  1 18  1  0  0  0  0
  1 19  1  0  0  0  0
  1 20  1  0  0  0  0
  2 17  1  0  0  0  0
  2  3  1  0  0  0  0
  3  4  2  0  0  0  0
  3 21  1  0  0  0  0
  4  5  1  0  0  0  0
  4 16  1  0  0  0  0
  5  6  1  0  0  0  0
  5  7  1  0  0  0  0
  5  8  1  0  0  0  0
  6 22  1  0  0  0  0
  6 23  1  0  0  0  0
  6 24  1  0  0  0  0
  7 25  1  0  0  0  0
  8  9  1  0  0  0  0
  8 26  1  0  0  0  0
  8 27  1  0  0  0  0
  9 10  1  0  0  0  0
  9 28  1  0  0  0  0
  9 39  1  0  0  0  0
 10 15  1  0  0  0  0
 10 11  1  0  0  0  0
 10 29  1  0  0  0  0
 11 12  1  0  0  0  0
 11 30  1  0  0  0  0
 11 31  1  0  0  0  0
 12 13  1  0  0  0  0
 12 32  1  0  0  0  0
 12 33  1  0  0  0  0
 13 14  1  0  0  0  0
 13 34  1  0  0  0  0
 13 35  1  0  0  0  0
 14 15  1  0  0  0  0
 15 36  1  0  0  0  0
 15 37  1  0  0  0  0
 16 17  2  0  0  0  0
 16 38  1  0  0  0  0
M  CHG  1   9   1
M  END
> <s_m_source_file>
AV-unprocessed.smi

> <i_m_source_file_index>
3278

> <i_lp_mmshare_version>
43012

> <i_f3d_flags>
0

> <s_epik_input>
W0NIM11uMVtjSF1jKFtjSF1uMSlbQ0BAXShbQ0gzXSkoW09IXSlbQ0gyXVtOSF1bQ0BASF0yW0NIMl1bQ0gyXVtDSDJdU1tDSDJdMg==

> <s_epik_cmdline>
J2VwaWtfcHl0aG9uJywgJy1waCcsICc3LjAnLCAnLXRuJywgJzgnLCAnLW1hJywgJzIwMCcsICctbWV0YWxfYmluZGluZycsICctaW1hZScsICc8aW5maWxlLm1hZT4nLCAnLW9tYWUnLCAnPG91dGZpbGUubWFlPic=

> <r_lp_tautomer_probability>
1

> <r_epik_Ionization_Penalty>
0.0185703

> <r_epik_Ionization_Penalty_Charging>
0.0185619

> <r_epik_Ionization_Penalty_Neutral>
8.47286e-06

> <r_epik_State_Penalty>
0.0147768

> <r_epik_Charging_Adjusted_Penalty>
0.0333386

> <i_epik_Tot_Q>
1

> <i_epik_Tot_abs_Q>
1

> <r_epik_Metal_State_Penalty>
0.0147782

> <b_epik_Metal_Only>
0

> <s_lp_Force_Field>
OPLS_2005

> <r_lp_Energy>
8.58851

> <b_lp_Chiralities_Consistent>
1

> <s_lp_Variant>
AV-unprocessed.smi:3278-4

> <Gold.Version>
5.8.1

> <Gold.Id.Protein>
6NUR|6NUR_protein|mol2

> <Gold.PLP.Fitness>
43.9424

> <Gold.PLP.PLP>
-35.7930

> <Gold.PLP.part.hbond>
-2.6011

> <Gold.PLP.part.metal>
0.0000

> <Gold.PLP.part.buried>
-6.3349

> <Gold.PLP.part.nonpolar>
-27.4068

> <Gold.PLP.part.repulsive>
0.0389

> <Gold.PLP.ligand.clash>
0.0000

> <Gold.PLP.ligand.torsion>
0.4423

> <Gold.PLP.Chemscore.Hbond>
3.0000

> <Gold.PLP.Chemscore.CHOScore>
0.0000

> <Gold.PLP.Chemscore.Metal>
0.0000

> <Gold.Chemscore.Hbonds>
donor molecule, donor type, donor heavy atom, donor atom, acceptor molecule, acceptor atom, score
      L1  H     9    28       P1  8028  2.00
      P1  H  7989  7998       L1     7  1.00

> <Gold.PLP.Chemscore.Internal.Correction>
0.0340

> <Gold.Rescore>
     Score         DG    S(hbond)    S(metal)    S(lipo)     H(rot)  DE(clash)    DE(int)     intcor
     18.19     -18.67       1.93        0.00     101.41       2.00       0.04       0.43       ----

> <Gold.Chemscore.Fitness>
18.1927

> <Gold.Chemscore.DG>
-18.6669

> <Gold.Chemscore.ZeroCoef>
-5.4800

> <Gold.Chemscore.Hbond>
1.9316

> <Gold.Chemscore.Metal>
0.0000

> <Gold.Chemscore.Lipo>
101.4092

> <Gold.Chemscore.Internal_Hbond>
0.0000

> <Gold.Chemscore.DEClash>
0.0440

> <Gold.Chemscore.DEInternal>
0.4302

> <Gold.Chemscore.Rot>
2.0038

> <Gold.Chemscore.Internal.Correction>
   9.000000E+99

> <Gold.Chemscore.Hbonds>
donor molecule, donor type, donor heavy atom, donor atom, acceptor molecule, acceptor atom, score
      L1  H     9    28       P1  8028  0.94
      P1  H  7989  7998       L1     7  0.55

> <Gold.Chemscore.Hbond.Weighted>
-6.4517

> <Gold.Chemscore.Metal.Weighted>
-0.0000

> <Gold.Chemscore.Lipo.Weighted>
-11.8649

> <Gold.Chemscore.Internal_Hbond.Weighted>
0.0000

> <Gold.Chemscore.DEClash.Weighted>
0.0440

> <Gold.Chemscore.DEInternal.Weighted>
0.4302

> <Gold.Chemscore.Rot.Weighted>
5.1296

> <Gold.Chemscore.Internal.Correction.Weighted>
   9.000000E+99

> <Gold.Protein.RotatedTorsions>
[ 6907 6896 6895 6894 ] final  -12.32 input  -60.11 | X-H torsion
[ 7974 7965 7964 7962 ] final -126.20 input  175.53 | X-H torsion
[ 8008 7997 7996 7995 ] final   99.80 input   59.86 | X-H torsion
[ 10167 10162 10161 10158 ] final   -8.98 input  -65.29 | X-H torsion
[ 10718 10713 10712 10709 ] final -167.09 input   66.30 | X-H torsion
[ 10763 10752 10751 10750 ] final   83.18 input  -60.55 | X-H torsion
[ 11005 11000 10999 10996 ] final  -38.85 input  -57.11 | X-H torsion

> <Gold.Protein.ActiveResidues>
 VAL166  LYS551  ARG553  GLY616  TRP617  ASP618  TYR619  PRO620  LYS621  CYS622 
 ASP623  PHE694  ASN695  SER759  ASP760  ASP761  ALA762  ILE779  LEU786  VAL792 
 PHE793  MET794  SER795  GLU796  ALA797  LYS798  CYS799  TRP800  GLU811  SER814 

> <Gold.Protein.RotatedAtoms>
  151.3724  135.0925  159.9469 H   0  0  0  0  0  0  0  0  0  0  0  0  # atno 6907 bound_to 6896
  152.5131  133.9151  159.7517 H   0  0  0  0  0  0  0  0  0  0  0  0  # atno 6908 bound_to 6896
  150.9568  133.6434  159.2791 H   0  0  0  0  0  0  0  0  0  0  0  0  # atno 6909 bound_to 6896
  144.9897  140.7720  143.4562 H   0  0  0  0  0  0  0  0  0  0  0  0  # atno 7974 bound_to 7965
  156.1141  140.3223  155.8114 H   0  0  0  0  0  0  0  0  0  0  0  0  # atno 8008 bound_to 7997
  155.4621  140.0540  157.3007 H   0  0  0  0  0  0  0  0  0  0  0  0  # atno 8009 bound_to 7997
  154.4780  140.2041  155.9844 H   0  0  0  0  0  0  0  0  0  0  0  0  # atno 8010 bound_to 7997
  140.7074  143.5908  150.8896 H   0  0  0  0  0  0  0  0  0  0  0  0  # atno 10167 bound_to 10162
  156.6773  130.9108  151.3052 H   0  0  0  0  0  0  0  0  0  0  0  0  # atno 10718 bound_to 10713
  153.1268  135.4701  154.9284 H   0  0  0  0  0  0  0  0  0  0  0  0  # atno 10763 bound_to 10752
  154.7627  135.3136  154.8349 H   0  0  0  0  0  0  0  0  0  0  0  0  # atno 10764 bound_to 10752
  153.8900  135.6885  153.4815 H   0  0  0  0  0  0  0  0  0  0  0  0  # atno 10765 bound_to 10752
  141.0058  133.6932  156.2108 H   0  0  0  0  0  0  0  0  0  0  0  0  # atno 11005 bound_to 11000
  145.2303  139.2118  143.5046 LP  0  0  0  0  0  0  0  0  0  0  0  0  # atno 17320 bound_to 7965
  146.3428  140.2179  142.8591 LP  0  0  0  0  0  0  0  0  0  0  0  0  # atno 17321 bound_to 7965
  139.9634  143.6138  152.2995 LP  0  0  0  0  0  0  0  0  0  0  0  0  # atno 17342 bound_to 10162
  139.6699  144.7661  151.1803 LP  0  0  0  0  0  0  0  0  0  0  0  0  # atno 17343 bound_to 10162
  157.7056  130.9381  150.0921 LP  0  0  0  0  0  0  0  0  0  0  0  0  # atno 17370 bound_to 10713
  156.1894  130.3654  149.8930 LP  0  0  0  0  0  0  0  0  0  0  0  0  # atno 17371 bound_to 10713
  140.6815  134.4762  157.5589 LP  0  0  0  0  0  0  0  0  0  0  0  0  # atno 17394 bound_to 11000
  139.9063  134.8443  156.1695 LP  0  0  0  0  0  0  0  0  0  0  0  0  # atno 17395 bound_to 11000

$$$$
