AV-unprocessed.smi:23|AV-procd|sdf|173|dock6
  -GOLD-   2262015433D 1   1.00000     0.00000
 Structure written by MMmdl.
 53 56  0  0  0  0  0  0  0  0  1 V2000
  153.2161  132.0647  156.9413 C   0  0  0  0  0  0  0  0  0  0  0  0
  153.2981  130.9661  156.0407 O   0  0  0  0  0  0  0  0  0  0  0  0
  152.2248  130.0191  156.0133 C   0  0  1  0  0  0  0  0  0  0  0  0
  152.7429  128.9489  155.0314 C   0  0  0  0  0  0  0  0  0  0  0  0
  151.9968  129.4218  157.4253 C   0  0  0  0  0  0  0  0  0  0  0  0
  150.7968  128.4587  157.4486 C   0  0  0  0  0  0  0  0  0  0  0  0
  149.5375  129.1232  156.8682 C   0  0  0  0  0  0  0  0  0  0  0  0
  149.8065  129.6786  155.5410 N   0  0  0  0  0  0  0  0  0  0  0  0
  148.7488  129.9722  154.7435 C   0  0  0  0  0  0  0  0  0  0  0  0
  147.7994  129.0292  154.5005 N   0  0  0  0  0  0  0  0  0  0  0  0
  146.7502  129.3129  153.7232 C   0  0  0  0  0  0  0  0  0  0  0  0
  146.4576  130.4563  153.1007 N   0  0  0  0  0  0  0  0  0  0  0  0
  147.4073  131.4063  153.3370 C   0  0  0  0  0  0  0  0  0  0  0  0
  148.5770  131.2467  154.1329 C   0  0  0  0  0  0  0  0  0  0  0  0
  149.3235  132.4193  154.1159 N   0  0  0  0  0  0  0  0  0  0  0  0
  148.6316  133.2267  153.3596 C   0  0  0  0  0  0  0  0  0  0  0  0
  147.4504  132.7109  152.8756 N   0  0  0  0  0  0  0  0  0  0  0  0
  146.5269  133.3666  151.9957 C   0  0  0  0  0  0  0  0  0  0  0  0
  145.0538  133.5352  152.3820 C   0  0  0  0  0  0  0  0  0  0  0  0
  144.6282  133.3050  150.9150 C   0  0  0  0  0  0  0  0  0  0  0  0
  143.4655  132.3197  150.7183 C   0  0  0  0  0  0  0  0  0  0  0  0
  143.1369  132.1734  149.3515 O   0  0  0  0  0  0  0  0  0  0  0  0
  144.3103  134.5580  150.0687 C   0  0  0  0  0  0  0  0  0  0  0  0
  145.3790  135.4808  150.0117 O   0  0  0  0  0  0  0  0  0  0  0  0
  146.0290  132.6831  150.7183 C   0  0  0  0  0  0  0  0  0  0  0  0
  150.9085  130.6394  155.4816 C   0  0  0  0  0  0  0  0  0  0  0  0
  154.1482  132.6274  156.8930 H   0  0  0  0  0  0  0  0  0  0  0  0
  153.0800  131.7546  157.9760 H   0  0  0  0  0  0  0  0  0  0  0  0
  152.4163  132.7530  156.6685 H   0  0  0  0  0  0  0  0  0  0  0  0
  152.0251  128.1440  154.8759 H   0  0  0  0  0  0  0  0  0  0  0  0
  153.6686  128.4988  155.3918 H   0  0  0  0  0  0  0  0  0  0  0  0
  152.9505  129.3848  154.0534 H   0  0  0  0  0  0  0  0  0  0  0  0
  152.8955  128.9119  157.7737 H   0  0  0  0  0  0  0  0  0  0  0  0
  151.7966  130.2129  158.1464 H   0  0  0  0  0  0  0  0  0  0  0  0
  151.0293  127.5575  156.8813 H   0  0  0  0  0  0  0  0  0  0  0  0
  150.6043  128.1305  158.4703 H   0  0  0  0  0  0  0  0  0  0  0  0
  148.7344  128.3868  156.8141 H   0  0  0  0  0  0  0  0  0  0  0  0
  149.1988  129.9220  157.5294 H   0  0  0  0  0  0  0  0  0  0  0  0
  146.0417  128.5099  153.5823 H   0  0  0  0  0  0  0  0  0  0  0  0
  148.9653  134.2300  153.1374 H   0  0  0  0  0  0  0  0  0  0  0  0
  146.9763  134.3328  151.7634 H   0  0  0  0  0  0  0  0  0  0  0  0
  144.7050  132.7447  153.0486 H   0  0  0  0  0  0  0  0  0  0  0  0
  144.8035  134.5185  152.7816 H   0  0  0  0  0  0  0  0  0  0  0  0
  143.7039  131.3392  151.1323 H   0  0  0  0  0  0  0  0  0  0  0  0
  142.5710  132.6640  151.2386 H   0  0  0  0  0  0  0  0  0  0  0  0
  142.5265  132.8549  149.1146 H   0  0  0  0  0  0  0  0  0  0  0  0
  144.0611  134.2782  149.0445 H   0  0  0  0  0  0  0  0  0  0  0  0
  143.4446  135.0883  150.4665 H   0  0  0  0  0  0  0  0  0  0  0  0
  145.7329  135.4765  149.1354 H   0  0  0  0  0  0  0  0  0  0  0  0
  146.5475  132.9961  149.8112 H   0  0  0  0  0  0  0  0  0  0  0  0
  146.0293  131.5954  150.8072 H   0  0  0  0  0  0  0  0  0  0  0  0
  150.6108  131.4913  156.0931 H   0  0  0  0  0  0  0  0  0  0  0  0
  151.0628  131.0225  154.4733 H   0  0  0  0  0  0  0  0  0  0  0  0
  1  2  1  0  0  0  0
  1 27  1  0  0  0  0
  1 28  1  0  0  0  0
  1 29  1  0  0  0  0
  2  3  1  0  0  0  0
  3 26  1  0  0  0  0
  3  4  1  0  0  0  0
  3  5  1  0  0  0  0
  4 30  1  0  0  0  0
  4 31  1  0  0  0  0
  4 32  1  0  0  0  0
  5  6  1  0  0  0  0
  5 33  1  0  0  0  0
  5 34  1  0  0  0  0
  6  7  1  0  0  0  0
  6 35  1  0  0  0  0
  6 36  1  0  0  0  0
  7  8  1  0  0  0  0
  7 37  1  0  0  0  0
  7 38  1  0  0  0  0
  8  9  1  0  0  0  0
  8 26  1  0  0  0  0
  9 14  1  0  0  0  0
  9 10  2  0  0  0  0
 10 11  1  0  0  0  0
 11 12  2  0  0  0  0
 11 39  1  0  0  0  0
 12 13  1  0  0  0  0
 13 17  1  0  0  0  0
 13 14  2  0  0  0  0
 14 15  1  0  0  0  0
 15 16  2  0  0  0  0
 16 17  1  0  0  0  0
 16 40  1  0  0  0  0
 17 18  1  0  0  0  0
 18 25  1  0  0  0  0
 18 19  1  0  0  0  0
 18 41  1  0  0  0  0
 19 20  1  0  0  0  0
 19 42  1  0  0  0  0
 19 43  1  0  0  0  0
 20 21  1  0  0  0  0
 20 23  1  0  0  0  0
 20 25  1  0  0  0  0
 21 22  1  0  0  0  0
 21 44  1  0  0  0  0
 21 45  1  0  0  0  0
 22 46  1  0  0  0  0
 23 24  1  0  0  0  0
 23 47  1  0  0  0  0
 23 48  1  0  0  0  0
 24 49  1  0  0  0  0
 25 50  1  0  0  0  0
 25 51  1  0  0  0  0
 26 52  1  0  0  0  0
 26 53  1  0  0  0  0
M  END
> <s_m_source_file>
AV-unprocessed.smi

> <i_m_source_file_index>
23

> <i_lp_mmshare_version>
43012

> <i_f3d_flags>
0

> <s_epik_input>
W0NIM11PW0NAQF0xKFtDSDNdKVtDSDJdW0NIMl1bQ0gyXU4oW0NIMl0xKWMobltjSF1uMiljKGMyMyluW2NIXW4zW0NIXShbQ0gyXTQpW0NIMl1DNChbQ0gyXVtPSF0pW0NIMl1bT0hd

> <s_epik_cmdline>
J2VwaWtfcHl0aG9uJywgJy1waCcsICc3LjAnLCAnLXRuJywgJzgnLCAnLW1hJywgJzIwMCcsICctbWV0YWxfYmluZGluZycsICctaW1hZScsICc8aW5maWxlLm1hZT4nLCAnLW9tYWUnLCAnPG91dGZpbGUubWFlPic=

> <r_lp_tautomer_probability>
1

> <r_epik_Ionization_Penalty>
0.00233978

> <r_epik_Ionization_Penalty_Charging>
0

> <r_epik_Ionization_Penalty_Neutral>
0.00233978

> <r_epik_State_Penalty>
0.00146422

> <r_epik_Charging_Adjusted_Penalty>
0.00146422

> <i_epik_Tot_Q>
0

> <i_epik_Tot_abs_Q>
0

> <r_epik_Metal_State_Penalty>
-0

> <b_epik_Metal_Only>
0

> <s_lp_Force_Field>
OPLS_2005

> <r_lp_Energy>
49.0819

> <b_lp_Chiralities_Consistent>
1

> <s_lp_Variant>
AV-unprocessed.smi:23-1

> <Gold.Version>
5.8.1

> <Gold.Id.Protein>
6NUR|6NUR_protein|mol2

> <Gold.PLP.Fitness>
48.0221

> <Gold.PLP.PLP>
-39.9636

> <Gold.PLP.part.hbond>
-3.5527

> <Gold.PLP.part.metal>
0.0000

> <Gold.PLP.part.buried>
-6.7066

> <Gold.PLP.part.nonpolar>
-30.9469

> <Gold.PLP.part.repulsive>
0.3098

> <Gold.PLP.ligand.clash>
0.1152

> <Gold.PLP.ligand.torsion>
0.6190

> <Gold.PLP.Chemscore.Hbond>
2.2838

> <Gold.PLP.Chemscore.CHOScore>
0.5680

> <Gold.PLP.Chemscore.Metal>
0.0000

> <Gold.Chemscore.Hbonds>
donor molecule, donor type, donor heavy atom, donor atom, acceptor molecule, acceptor atom, score
      L1  H    22    46       P1 10186  0.54
      L1  H    24    49       P1  7921  1.00
      P1  H 10785 10796       L1    22  0.78
      L1  C    16    40       P1  7948  0.49

> <Gold.PLP.Chemscore.Internal.Correction>
0.8565

> <Gold.Rescore>
     Score         DG    S(hbond)    S(metal)    S(lipo)     H(rot)  DE(clash)    DE(int)     intcor
     11.66     -13.90       2.52        0.00      74.07       3.38       0.03       2.21       ----

> <Gold.Chemscore.Fitness>
11.6613

> <Gold.Chemscore.DG>
-13.8990

> <Gold.Chemscore.ZeroCoef>
-5.4800

> <Gold.Chemscore.Hbond>
2.5193

> <Gold.Chemscore.Metal>
0.0000

> <Gold.Chemscore.Lipo>
74.0745

> <Gold.Chemscore.Internal_Hbond>
0.0000

> <Gold.Chemscore.DEClash>
0.0310

> <Gold.Chemscore.DEInternal>
2.2067

> <Gold.Chemscore.Rot>
3.3837

> <Gold.Chemscore.Internal.Correction>
   9.000000E+99

> <Gold.Chemscore.Hbonds>
donor molecule, donor type, donor heavy atom, donor atom, acceptor molecule, acceptor atom, score
      L1  H    22    46       P1 10186  0.53
      L1  H    24    49       P1  7921  0.99
      P1  H 10785 10796       L1    22  0.62

> <Gold.Chemscore.Hbond.Weighted>
-8.4145

> <Gold.Chemscore.Metal.Weighted>
-0.0000

> <Gold.Chemscore.Lipo.Weighted>
-8.6667

> <Gold.Chemscore.Internal_Hbond.Weighted>
0.0000

> <Gold.Chemscore.DEClash.Weighted>
0.0310

> <Gold.Chemscore.DEInternal.Weighted>
2.2067

> <Gold.Chemscore.Rot.Weighted>
8.6622

> <Gold.Chemscore.Internal.Correction.Weighted>
   9.000000E+99

> <Gold.Protein.RotatedTorsions>
[ 6907 6896 6895 6894 ] final -128.44 input  -60.11 | X-H torsion
[ 7974 7965 7964 7962 ] final  -31.18 input  175.53 | X-H torsion
[ 8008 7997 7996 7995 ] final -110.16 input   59.86 | X-H torsion
[ 10167 10162 10161 10158 ] final  110.82 input  -65.29 | X-H torsion
[ 10718 10713 10712 10709 ] final   26.95 input   66.30 | X-H torsion
[ 10763 10752 10751 10750 ] final  113.75 input  -60.55 | X-H torsion
[ 11005 11000 10999 10996 ] final  -97.77 input  -57.11 | X-H torsion

> <Gold.Protein.ActiveResidues>
 VAL166  LYS551  ARG553  GLY616  TRP617  ASP618  TYR619  PRO620  LYS621  CYS622 
 ASP623  PHE694  ASN695  SER759  ASP760  ASP761  ALA762  ILE779  LEU786  VAL792 
 PHE793  MET794  SER795  GLU796  ALA797  LYS798  CYS799  TRP800  GLU811  SER814 

> <Gold.Protein.RotatedAtoms>
  150.9179  133.6916  159.2838 H   0  0  0  0  0  0  0  0  0  0  0  0  # atno 6907 bound_to 6896
  151.4380  135.1016  159.9671 H   0  0  0  0  0  0  0  0  0  0  0  0  # atno 6908 bound_to 6896
  152.4964  133.8594  159.7297 H   0  0  0  0  0  0  0  0  0  0  0  0  # atno 6909 bound_to 6896
  146.1087  140.5635  142.8788 H   0  0  0  0  0  0  0  0  0  0  0  0  # atno 7974 bound_to 7965
  154.9702  140.0397  157.2231 H   0  0  0  0  0  0  0  0  0  0  0  0  # atno 8008 bound_to 7997
  154.7808  140.2818  155.6043 H   0  0  0  0  0  0  0  0  0  0  0  0  # atno 8009 bound_to 7997
  156.2936  140.2592  156.2632 H   0  0  0  0  0  0  0  0  0  0  0  0  # atno 8010 bound_to 7997
  139.6659  144.7127  151.1779 H   0  0  0  0  0  0  0  0  0  0  0  0  # atno 10167 bound_to 10162
  157.2137  130.6946  149.6239 H   0  0  0  0  0  0  0  0  0  0  0  0  # atno 10718 bound_to 10713
  153.4971  135.3646  155.2521 H   0  0  0  0  0  0  0  0  0  0  0  0  # atno 10763 bound_to 10752
  154.8749  135.3991  154.3521 H   0  0  0  0  0  0  0  0  0  0  0  0  # atno 10764 bound_to 10752
  153.4151  135.7079  153.6398 H   0  0  0  0  0  0  0  0  0  0  0  0  # atno 10765 bound_to 10752
  141.1368  133.8195  157.0750 H   0  0  0  0  0  0  0  0  0  0  0  0  # atno 11005 bound_to 11000
  144.7492  140.5148  143.6814 LP  0  0  0  0  0  0  0  0  0  0  0  0  # atno 17320 bound_to 7965
  145.5709  139.1483  143.3289 LP  0  0  0  0  0  0  0  0  0  0  0  0  # atno 17321 bound_to 7965
  140.7599  143.5921  150.8786 LP  0  0  0  0  0  0  0  0  0  0  0  0  # atno 17342 bound_to 10162
  139.9582  143.6194  152.3010 LP  0  0  0  0  0  0  0  0  0  0  0  0  # atno 17343 bound_to 10162
  155.9688  130.4543  150.5843 LP  0  0  0  0  0  0  0  0  0  0  0  0  # atno 17370 bound_to 10713
  157.3646  131.0755  151.1608 LP  0  0  0  0  0  0  0  0  0  0  0  0  # atno 17371 bound_to 10713
  140.0487  134.9817  157.1097 LP  0  0  0  0  0  0  0  0  0  0  0  0  # atno 17394 bound_to 11000
  140.4023  134.2069  155.7163 LP  0  0  0  0  0  0  0  0  0  0  0  0  # atno 17395 bound_to 11000

$$$$
