AV-unprocessed.smi:1128|AV-procd|sdf|4844|dock7
  -GOLD-   22720 3413D 1   1.00000     0.00000
 Structure written by MMmdl.
 37 38  0  0  0  0  0  0  0  0  2 V2000
  151.7422  137.1510  159.9740 O   0  0  0  0  0  0  0  0  0  0  0  0
  150.7824  137.6647  159.4003 C   0  0  0  0  0  0  0  0  0  0  0  0
  150.8700  138.8054  158.7007 N   0  0  0  0  0  0  0  0  0  0  0  0
  152.0786  139.6049  158.5189 C   0  0  0  0  0  0  0  0  0  0  0  0
  151.9709  140.9882  159.1929 C   0  0  2  0  0  0  0  0  0  0  0  0
  151.0365  141.9550  158.4269 C   0  0  0  0  0  0  0  0  0  0  0  0
  151.1467  143.3887  158.9142 C   0  0  0  0  0  0  0  0  0  0  0  0
  152.1492  143.8321  159.6905 C   0  0  0  0  0  0  0  0  0  0  0  0
  153.2904  142.9505  160.1613 C   0  0  0  0  0  0  0  0  0  0  0  0
  153.3620  141.6241  159.3818 C   0  0  0  0  0  0  0  0  0  0  0  0
  149.5225  137.1922  159.3787 N   0  0  0  0  0  0  0  0  0  0  0  0
  148.9741  136.0421  159.9748 C   0  0  0  0  0  0  0  0  0  0  0  0
  149.0720  135.7159  161.2940 C   0  0  0  0  0  0  0  0  0  0  0  0
  148.4757  134.5051  161.8453 C   0  0  0  0  0  0  0  0  0  0  0  0
  148.6325  134.0718  163.2922 C   0  0  0  0  0  0  0  0  0  0  0  0
  149.2815  134.9948  164.0024 F   0  0  0  0  0  0  0  0  0  0  0  0
  147.4444  133.8634  163.8600 F   0  0  0  0  0  0  0  0  0  0  0  0
  149.3274  132.9368  163.3531 F   0  0  0  0  0  0  0  0  0  0  0  0
  147.8441  133.7450  160.8805 C   0  0  0  0  0  0  0  0  0  0  0  0
  147.6914  133.9993  159.5629 N   0  5  0  0  0  0  0  0  0  0  0  0
  148.2448  135.1387  159.0597 C   0  0  0  0  0  0  0  0  0  0  0  0
  148.1484  135.4266  157.8660 O   0  0  0  0  0  0  0  0  0  0  0  0
  150.0293  139.1527  158.2627 H   0  0  0  0  0  0  0  0  0  0  0  0
  152.9036  139.0460  158.9614 H   0  0  0  0  0  0  0  0  0  0  0  0
  152.3237  139.7154  157.4611 H   0  0  0  0  0  0  0  0  0  0  0  0
  151.5495  140.8379  160.1885 H   0  0  0  0  0  0  0  0  0  0  0  0
  151.2684  141.9457  157.3613 H   0  0  0  0  0  0  0  0  0  0  0  0
  149.9996  141.6336  158.5277 H   0  0  0  0  0  0  0  0  0  0  0  0
  150.3705  144.0703  158.5986 H   0  0  0  0  0  0  0  0  0  0  0  0
  152.1607  144.8617  160.0175 H   0  0  0  0  0  0  0  0  0  0  0  0
  154.2307  143.4925  160.0578 H   0  0  0  0  0  0  0  0  0  0  0  0
  153.1511  142.7566  161.2252 H   0  0  0  0  0  0  0  0  0  0  0  0
  154.0302  140.9359  159.9008 H   0  0  0  0  0  0  0  0  0  0  0  0
  153.8090  141.8040  158.4031 H   0  0  0  0  0  0  0  0  0  0  0  0
  148.8491  137.7485  158.8724 H   0  0  0  0  0  0  0  0  0  0  0  0
  149.6024  136.3458  161.9872 H   0  0  0  0  0  0  0  0  0  0  0  0
  147.3972  132.7853  161.2175 H   0  0  0  0  0  0  0  0  0  0  0  0
  1  2  2  0  0  0  0
  2  3  1  0  0  0  0
  2 11  1  0  0  0  0
  3  4  1  0  0  0  0
  3 23  1  0  0  0  0
  4  5  1  0  0  0  0
  4 24  1  0  0  0  0
  4 25  1  0  0  0  0
  5 10  1  0  0  0  0
  5  6  1  0  0  0  0
  5 26  1  0  0  0  0
  6  7  1  0  0  0  0
  6 27  1  0  0  0  0
  6 28  1  0  0  0  0
  7  8  2  0  0  0  0
  7 29  1  0  0  0  0
  8  9  1  0  0  0  0
  8 30  1  0  0  0  0
  9 10  1  0  0  0  0
  9 31  1  0  0  0  0
  9 32  1  0  0  0  0
 10 33  1  0  0  0  0
 10 34  1  0  0  0  0
 11 12  1  0  0  0  0
 11 35  1  0  0  0  0
 12 21  1  0  0  0  0
 12 13  2  0  0  0  0
 13 14  1  0  0  0  0
 13 36  1  0  0  0  0
 14 15  1  0  0  0  0
 14 19  2  0  0  0  0
 15 16  1  0  0  0  0
 15 17  1  0  0  0  0
 15 18  1  0  0  0  0
 19 20  1  0  0  0  0
 19 37  1  0  0  0  0
 20 21  1  0  0  0  0
 21 22  2  0  0  0  0
M  CHG  1  20  -1
M  END
> <s_m_source_file>
AV-unprocessed.smi

> <i_m_source_file_index>
1128

> <i_lp_mmshare_version>
43012

> <i_f3d_flags>
0

> <s_epik_input>
Tz1jMVtuSF1bY0hdYyhDKEYpKEYpRilbY0hdYzFbTkhdQyg9TylbTkhdW0NIMl1bQ0BASF0yW0NIMl1bQ0hdPVtDSF1bQ0gyXVtDSDJdMg==

> <s_epik_cmdline>
J2VwaWtfcHl0aG9uJywgJy1waCcsICc3LjAnLCAnLXRuJywgJzgnLCAnLW1hJywgJzIwMCcsICctbWV0YWxfYmluZGluZycsICctaW1hZScsICc8aW5maWxlLm1hZT4nLCAnLW9tYWUnLCAnPG91dGZpbGUubWFlPic=

> <r_lp_tautomer_probability>
1

> <r_epik_Ionization_Penalty>
3.16664

> <r_epik_Ionization_Penalty_Charging>
0.172425

> <r_epik_Ionization_Penalty_Neutral>
2.99422

> <r_epik_State_Penalty>
2.99038

> <r_epik_Charging_Adjusted_Penalty>
3.16281

> <i_epik_Tot_Q>
-1

> <i_epik_Tot_abs_Q>
1

> <r_epik_Metal_State_Penalty>
0.453031

> <b_epik_Metal_Only>
1

> <s_lp_Force_Field>
OPLS_2005

> <r_lp_Energy>
22.3955

> <b_lp_Chiralities_Consistent>
1

> <s_lp_Variant>
AV-unprocessed.smi:1128-3

> <Gold.Version>
5.8.1

> <Gold.Id.Protein>
6NUR|6NUR_protein|mol2

> <Gold.PLP.Fitness>
44.3831

> <Gold.PLP.PLP>
-42.8215

> <Gold.PLP.part.hbond>
-0.9399

> <Gold.PLP.part.metal>
0.0000

> <Gold.PLP.part.buried>
-5.7211

> <Gold.PLP.part.nonpolar>
-37.1431

> <Gold.PLP.part.repulsive>
0.2111

> <Gold.PLP.ligand.clash>
0.0000

> <Gold.PLP.ligand.torsion>
0.6707

> <Gold.PLP.Chemscore.Hbond>
0.9425

> <Gold.PLP.Chemscore.CHOScore>
0.0000

> <Gold.PLP.Chemscore.Metal>
0.0000

> <Gold.Chemscore.Hbonds>
donor molecule, donor type, donor heavy atom, donor atom, acceptor molecule, acceptor atom, score
      P1  H  6896  6909       L1     1  0.98

> <Gold.PLP.Chemscore.Internal.Correction>
0.0756

> <Gold.Rescore>
     Score         DG    S(hbond)    S(metal)    S(lipo)     H(rot)  DE(clash)    DE(int)     intcor
     14.82     -15.37       0.91        0.00      86.95       1.29       0.00       0.55       ----

> <Gold.Chemscore.Fitness>
14.8214

> <Gold.Chemscore.DG>
-15.3704

> <Gold.Chemscore.ZeroCoef>
-5.4800

> <Gold.Chemscore.Hbond>
0.9073

> <Gold.Chemscore.Metal>
0.0000

> <Gold.Chemscore.Lipo>
86.9511

> <Gold.Chemscore.Internal_Hbond>
0.0000

> <Gold.Chemscore.DEClash>
0.0000

> <Gold.Chemscore.DEInternal>
0.5491

> <Gold.Chemscore.Rot>
1.2943

> <Gold.Chemscore.Internal.Correction>
   9.000000E+99

> <Gold.Chemscore.Hbonds>
donor molecule, donor type, donor heavy atom, donor atom, acceptor molecule, acceptor atom, score
      P1  H  6896  6909       L1     1  0.40

> <Gold.Chemscore.Hbond.Weighted>
-3.0305

> <Gold.Chemscore.Metal.Weighted>
-0.0000

> <Gold.Chemscore.Lipo.Weighted>
-10.1733

> <Gold.Chemscore.Internal_Hbond.Weighted>
0.0000

> <Gold.Chemscore.DEClash.Weighted>
0.0000

> <Gold.Chemscore.DEInternal.Weighted>
0.5491

> <Gold.Chemscore.Rot.Weighted>
3.3133

> <Gold.Chemscore.Internal.Correction.Weighted>
   9.000000E+99

> <Gold.Protein.RotatedTorsions>
[ 6907 6896 6895 6894 ] final  104.13 input  -60.11 | X-H torsion
[ 7974 7965 7964 7962 ] final -123.61 input  175.53 | X-H torsion
[ 8008 7997 7996 7995 ] final   69.82 input   59.86 | X-H torsion
[ 10167 10162 10161 10158 ] final -164.54 input  -65.29 | X-H torsion
[ 10718 10713 10712 10709 ] final  113.55 input   66.30 | X-H torsion
[ 10763 10752 10751 10750 ] final   -9.53 input  -60.55 | X-H torsion
[ 11005 11000 10999 10996 ] final  -21.88 input  -57.11 | X-H torsion

> <Gold.Protein.ActiveResidues>
 VAL166  LYS551  ARG553  GLY616  TRP617  ASP618  TYR619  PRO620  LYS621  CYS622 
 ASP623  PHE694  ASN695  SER759  ASP760  ASP761  ALA762  ILE779  LEU786  VAL792 
 PHE793  MET794  SER795  GLU796  ALA797  LYS798  CYS799  TRP800  GLU811  SER814 

> <Gold.Protein.RotatedAtoms>
  152.5274  133.9722  159.7766 H   0  0  0  0  0  0  0  0  0  0  0  0  # atno 6907 bound_to 6896
  150.9991  133.6065  159.2704 H   0  0  0  0  0  0  0  0  0  0  0  0  # atno 6908 bound_to 6896
  151.3181  135.0818  159.9349 H   0  0  0  0  0  0  0  0  0  0  0  0  # atno 6909 bound_to 6896
  145.0169  140.7954  143.4405 H   0  0  0  0  0  0  0  0  0  0  0  0  # atno 7974 bound_to 7965
  155.7294  140.3492  155.5052 H   0  0  0  0  0  0  0  0  0  0  0  0  # atno 8008 bound_to 7997
  155.9197  140.1065  157.1238 H   0  0  0  0  0  0  0  0  0  0  0  0  # atno 8009 bound_to 7997
  154.4068  140.1252  156.4650 H   0  0  0  0  0  0  0  0  0  0  0  0  # atno 8010 bound_to 7997
  139.6243  144.0562  152.1961 H   0  0  0  0  0  0  0  0  0  0  0  0  # atno 10167 bound_to 10162
  157.6331  131.0985  150.7058 H   0  0  0  0  0  0  0  0  0  0  0  0  # atno 10718 bound_to 10713
  153.4560  135.7015  153.6079 H   0  0  0  0  0  0  0  0  0  0  0  0  # atno 10763 bound_to 10752
  153.4394  135.3784  155.2219 H   0  0  0  0  0  0  0  0  0  0  0  0  # atno 10764 bound_to 10752
  154.8728  135.3970  154.3979 H   0  0  0  0  0  0  0  0  0  0  0  0  # atno 10765 bound_to 10752
  140.8604  133.7792  156.0068 H   0  0  0  0  0  0  0  0  0  0  0  0  # atno 11005 bound_to 11000
  145.1948  139.2282  143.5224 LP  0  0  0  0  0  0  0  0  0  0  0  0  # atno 17320 bound_to 7965
  146.3479  140.1752  142.8589 LP  0  0  0  0  0  0  0  0  0  0  0  0  # atno 17321 bound_to 7965
  140.0212  144.6152  150.7565 LP  0  0  0  0  0  0  0  0  0  0  0  0  # atno 17342 bound_to 10162
  140.7401  143.2801  151.3625 LP  0  0  0  0  0  0  0  0  0  0  0  0  # atno 17343 bound_to 10162
  156.7394  130.4734  149.5481 LP  0  0  0  0  0  0  0  0  0  0  0  0  # atno 17370 bound_to 10713
  156.1550  130.6335  151.0645 LP  0  0  0  0  0  0  0  0  0  0  0  0  # atno 17371 bound_to 10713
  140.8689  134.2750  157.5200 LP  0  0  0  0  0  0  0  0  0  0  0  0  # atno 17394 bound_to 11000
  139.8707  134.9557  156.4215 LP  0  0  0  0  0  0  0  0  0  0  0  0  # atno 17395 bound_to 11000

$$$$
