AV-unprocessed.smi:2214|AV-procd|sdf|8958|dock7
  -GOLD-   2272012173D 1   1.00000     0.00000
 Structure written by MMmdl.
 41 42  0  0  0  0  0  0  0  0  1 V2000
  151.7012  144.9656  159.1254 C   0  0  0  0  0  0  0  0  0  0  0  0
  152.2598  143.6169  159.5302 C   0  0  0  0  0  0  0  0  0  0  0  0
  152.7420  143.4104  160.8375 C   0  0  0  0  0  0  0  0  0  0  0  0
  153.2598  142.1550  161.2043 C   0  0  0  0  0  0  0  0  0  0  0  0
  153.2976  141.1036  160.2681 C   0  0  0  0  0  0  0  0  0  0  0  0
  153.9400  139.5721  160.7440 Cl  0  0  0  0  0  0  0  0  0  0  0  0
  152.8189  141.2950  158.9530 C   0  0  0  0  0  0  0  0  0  0  0  0
  152.8883  140.2198  158.0928 O   0  0  0  0  0  0  0  0  0  0  0  0
  151.9382  140.1284  157.0385 C   0  0  0  0  0  0  0  0  0  0  0  0
  152.2071  138.8643  156.2042 C   0  0  2  0  0  0  0  0  0  0  0  0
  153.5968  138.6089  156.2428 O   0  0  0  0  0  0  0  0  0  0  0  0
  151.7214  138.9915  154.7427 C   0  0  0  0  0  0  0  0  0  0  0  0
  150.2528  138.9859  154.6404 N   0  0  0  0  0  0  0  0  0  0  0  0
  149.6128  137.7729  154.9418 C   0  0  0  0  0  0  0  0  0  0  0  0
  148.3268  137.6514  154.8856 N   0  0  0  0  0  0  0  0  0  0  0  0
  147.5386  138.7449  154.5154 C   0  0  0  0  0  0  0  0  0  0  0  0
  146.0418  138.4918  154.4767 C   0  0  0  0  0  0  0  0  0  0  0  0
  148.0968  139.9491  154.2143 C   0  0  0  0  0  0  0  0  0  0  0  0
  147.2895  141.1741  153.8035 C   0  0  0  0  0  0  0  0  0  0  0  0
  149.5589  140.1051  154.2832 C   0  0  0  0  0  0  0  0  0  0  0  0
  150.1299  141.1700  154.0404 O   0  0  0  0  0  0  0  0  0  0  0  0
  152.2996  142.5646  158.5927 C   0  0  0  0  0  0  0  0  0  0  0  0
  151.5383  145.6049  159.9936 H   0  0  0  0  0  0  0  0  0  0  0  0
  150.7474  144.8438  158.6109 H   0  0  0  0  0  0  0  0  0  0  0  0
  152.3925  145.4724  158.4517 H   0  0  0  0  0  0  0  0  0  0  0  0
  152.7175  144.2111  161.5622 H   0  0  0  0  0  0  0  0  0  0  0  0
  153.6291  141.9990  162.2071 H   0  0  0  0  0  0  0  0  0  0  0  0
  150.9174  140.1221  157.4249 H   0  0  0  0  0  0  0  0  0  0  0  0
  152.0423  141.0010  156.3915 H   0  0  0  0  0  0  0  0  0  0  0  0
  151.7103  138.0289  156.6991 H   0  0  0  0  0  0  0  0  0  0  0  0
  153.9495  138.9803  157.0368 H   0  0  0  0  0  0  0  0  0  0  0  0
  152.0906  139.9286  154.3214 H   0  0  0  0  0  0  0  0  0  0  0  0
  152.1801  138.2207  154.1193 H   0  0  0  0  0  0  0  0  0  0  0  0
  150.2722  136.9516  155.2276 H   0  0  0  0  0  0  0  0  0  0  0  0
  145.6533  138.6507  153.4705 H   0  0  0  0  0  0  0  0  0  0  0  0
  145.5231  139.1629  155.1616 H   0  0  0  0  0  0  0  0  0  0  0  0
  145.8043  137.4681  154.7689 H   0  0  0  0  0  0  0  0  0  0  0  0
  147.4352  141.9798  154.5237 H   0  0  0  0  0  0  0  0  0  0  0  0
  146.2203  140.9815  153.7371 H   0  0  0  0  0  0  0  0  0  0  0  0
  147.6177  141.5301  152.8267 H   0  0  0  0  0  0  0  0  0  0  0  0
  151.9240  142.7555  157.5991 H   0  0  0  0  0  0  0  0  0  0  0  0
  1  2  1  0  0  0  0
  1 23  1  0  0  0  0
  1 24  1  0  0  0  0
  1 25  1  0  0  0  0
  2 22  1  0  0  0  0
  2  3  2  0  0  0  0
  3  4  1  0  0  0  0
  3 26  1  0  0  0  0
  4  5  2  0  0  0  0
  4 27  1  0  0  0  0
  5  6  1  0  0  0  0
  5  7  1  0  0  0  0
  7  8  1  0  0  0  0
  7 22  2  0  0  0  0
  8  9  1  0  0  0  0
  9 10  1  0  0  0  0
  9 28  1  0  0  0  0
  9 29  1  0  0  0  0
 10 11  1  0  0  0  0
 10 12  1  0  0  0  0
 10 30  1  0  0  0  0
 11 31  1  0  0  0  0
 12 13  1  0  0  0  0
 12 32  1  0  0  0  0
 12 33  1  0  0  0  0
 13 20  1  0  0  0  0
 13 14  1  0  0  0  0
 14 15  2  0  0  0  0
 14 34  1  0  0  0  0
 15 16  1  0  0  0  0
 16 17  1  0  0  0  0
 16 18  2  0  0  0  0
 17 35  1  0  0  0  0
 17 36  1  0  0  0  0
 17 37  1  0  0  0  0
 18 19  1  0  0  0  0
 18 20  1  0  0  0  0
 19 38  1  0  0  0  0
 19 39  1  0  0  0  0
 19 40  1  0  0  0  0
 20 21  2  0  0  0  0
 22 41  1  0  0  0  0
M  END
> <s_m_source_file>
AV-unprocessed.smi

> <i_m_source_file_index>
2214

> <i_lp_mmshare_version>
43012

> <i_f3d_flags>
0

> <s_epik_input>
W0NIM11jMVtjSF1bY0hdYyhDbCljKFtjSF0xKU9bQ0gyXVtDQEhdKFtPSF0pW0NIMl1uMltjSF1uYyhbQ0gzXSljKFtDSDNdKWMyPU8=

> <s_epik_cmdline>
J2VwaWtfcHl0aG9uJywgJy1waCcsICc3LjAnLCAnLXRuJywgJzgnLCAnLW1hJywgJzIwMCcsICctbWV0YWxfYmluZGluZycsICctaW1hZScsICc8aW5maWxlLm1hZT4nLCAnLW9tYWUnLCAnPG91dGZpbGUubWFlPic=

> <r_lp_tautomer_probability>
1

> <r_epik_Ionization_Penalty>
3.50205e-05

> <r_epik_Ionization_Penalty_Charging>
7.87908e-08

> <r_epik_Ionization_Penalty_Neutral>
3.49418e-05

> <r_epik_State_Penalty>
-0

> <r_epik_Charging_Adjusted_Penalty>
7.87908e-08

> <i_epik_Tot_Q>
0

> <i_epik_Tot_abs_Q>
0

> <r_epik_Metal_State_Penalty>
-0

> <b_epik_Metal_Only>
0

> <s_lp_Force_Field>
OPLS_2005

> <r_lp_Energy>
24.1684

> <b_lp_Chiralities_Consistent>
1

> <s_lp_Variant>
AV-unprocessed.smi:2214-1

> <Gold.Version>
5.8.1

> <Gold.Id.Protein>
6NUR|6NUR_protein|mol2

> <Gold.PLP.Fitness>
48.3579

> <Gold.PLP.PLP>
-44.6893

> <Gold.PLP.part.hbond>
-3.3757

> <Gold.PLP.part.metal>
0.0000

> <Gold.PLP.part.buried>
-2.2265

> <Gold.PLP.part.nonpolar>
-38.8927

> <Gold.PLP.part.repulsive>
0.3050

> <Gold.PLP.ligand.clash>
0.0000

> <Gold.PLP.ligand.torsion>
0.8488

> <Gold.PLP.Chemscore.Hbond>
1.7843

> <Gold.PLP.Chemscore.CHOScore>
0.0000

> <Gold.PLP.Chemscore.Metal>
0.0000

> <Gold.Chemscore.Hbonds>
donor molecule, donor type, donor heavy atom, donor atom, acceptor molecule, acceptor atom, score
      P1  H  7989  7998       L1    21  0.40
      P1  H  7997  8010       L1     8  0.90
      P1  H  8011  8017       L1    21  0.53

> <Gold.PLP.Chemscore.Internal.Correction>
0.0132

> <Gold.Rescore>
     Score         DG    S(hbond)    S(metal)    S(lipo)     H(rot)  DE(clash)    DE(int)     intcor
     16.37     -18.66       1.54        0.00     120.03       2.35       1.40       0.90       ----

> <Gold.Chemscore.Fitness>
16.3674

> <Gold.Chemscore.DG>
-18.6633

> <Gold.Chemscore.ZeroCoef>
-5.4800

> <Gold.Chemscore.Hbond>
1.5430

> <Gold.Chemscore.Metal>
0.0000

> <Gold.Chemscore.Lipo>
120.0271

> <Gold.Chemscore.Internal_Hbond>
0.0000

> <Gold.Chemscore.DEClash>
1.3992

> <Gold.Chemscore.DEInternal>
0.8967

> <Gold.Chemscore.Rot>
2.3490

> <Gold.Chemscore.Internal.Correction>
   9.000000E+99

> <Gold.Chemscore.Hbonds>
donor molecule, donor type, donor heavy atom, donor atom, acceptor molecule, acceptor atom, score
      P1  H  7989  7998       L1    21  0.31
      P1  H  7997  8010       L1     8  0.22
      P1  H  8011  8017       L1    21  0.52

> <Gold.Chemscore.Hbond.Weighted>
-5.1537

> <Gold.Chemscore.Metal.Weighted>
-0.0000

> <Gold.Chemscore.Lipo.Weighted>
-14.0432

> <Gold.Chemscore.Internal_Hbond.Weighted>
0.0000

> <Gold.Chemscore.DEClash.Weighted>
1.3992

> <Gold.Chemscore.DEInternal.Weighted>
0.8967

> <Gold.Chemscore.Rot.Weighted>
6.0136

> <Gold.Chemscore.Internal.Correction.Weighted>
   9.000000E+99

> <Gold.Protein.RotatedTorsions>
[ 6907 6896 6895 6894 ] final    8.12 input  -60.11 | X-H torsion
[ 7974 7965 7964 7962 ] final   61.58 input  175.53 | X-H torsion
[ 8008 7997 7996 7995 ] final   30.04 input   59.86 | X-H torsion
[ 10167 10162 10161 10158 ] final -111.23 input  -65.29 | X-H torsion
[ 10718 10713 10712 10709 ] final -106.72 input   66.30 | X-H torsion
[ 10763 10752 10751 10750 ] final   92.30 input  -60.55 | X-H torsion
[ 11005 11000 10999 10996 ] final  -28.56 input  -57.11 | X-H torsion

> <Gold.Protein.ActiveResidues>
 VAL166  LYS551  ARG553  GLY616  TRP617  ASP618  TYR619  PRO620  LYS621  CYS622 
 ASP623  PHE694  ASN695  SER759  ASP760  ASP761  ALA762  ILE779  LEU786  VAL792 
 PHE793  MET794  SER795  GLU796  ALA797  LYS798  CYS799  TRP800  GLU811  SER814 

> <Gold.Protein.RotatedAtoms>
  151.7010  135.0930  160.0250 H   0  0  0  0  0  0  0  0  0  0  0  0  # atno 6907 bound_to 6896
  152.3721  133.6428  159.6103 H   0  0  0  0  0  0  0  0  0  0  0  0  # atno 6908 bound_to 6896
  150.7681  133.9170  159.3428 H   0  0  0  0  0  0  0  0  0  0  0  0  # atno 6909 bound_to 6896
  145.8831  139.3457  143.0694 H   0  0  0  0  0  0  0  0  0  0  0  0  # atno 7974 bound_to 7965
  155.0841  140.3213  155.4593 H   0  0  0  0  0  0  0  0  0  0  0  0  # atno 8008 bound_to 7997
  156.2759  140.2089  156.5914 H   0  0  0  0  0  0  0  0  0  0  0  0  # atno 8009 bound_to 7997
  154.6955  140.0512  157.0393 H   0  0  0  0  0  0  0  0  0  0  0  0  # atno 8010 bound_to 7997
  140.1359  143.4321  152.1596 H   0  0  0  0  0  0  0  0  0  0  0  0  # atno 10167 bound_to 10162
  156.0403  130.5626  150.7720 H   0  0  0  0  0  0  0  0  0  0  0  0  # atno 10718 bound_to 10713
  153.2176  135.4366  155.0452 H   0  0  0  0  0  0  0  0  0  0  0  0  # atno 10763 bound_to 10752
  154.8233  135.3348  154.6975 H   0  0  0  0  0  0  0  0  0  0  0  0  # atno 10764 bound_to 10752
  153.7408  135.7005  153.5023 H   0  0  0  0  0  0  0  0  0  0  0  0  # atno 10765 bound_to 10752
  140.9219  133.7393  156.0814 H   0  0  0  0  0  0  0  0  0  0  0  0  # atno 11005 bound_to 11000
  145.9000  140.9249  143.0508 LP  0  0  0  0  0  0  0  0  0  0  0  0  # atno 17320 bound_to 7965
  144.6728  140.1019  143.7460 LP  0  0  0  0  0  0  0  0  0  0  0  0  # atno 17321 bound_to 7965
  139.5496  144.7327  151.4475 LP  0  0  0  0  0  0  0  0  0  0  0  0  # atno 17342 bound_to 10162
  140.6789  143.8126  150.7095 LP  0  0  0  0  0  0  0  0  0  0  0  0  # atno 17343 bound_to 10162
  157.5211  131.0931  151.0077 LP  0  0  0  0  0  0  0  0  0  0  0  0  # atno 17370 bound_to 10713
  157.0407  130.5748  149.5356 LP  0  0  0  0  0  0  0  0  0  0  0  0  # atno 17371 bound_to 10713
  140.7976  134.3545  157.5448 LP  0  0  0  0  0  0  0  0  0  0  0  0  # atno 17394 bound_to 11000
  139.8777  134.9178  156.3188 LP  0  0  0  0  0  0  0  0  0  0  0  0  # atno 17395 bound_to 11000

$$$$
