AV-unprocessed.smi:3147|AV-procd|sdf|11987|dock4
  -GOLD-   2272017393D 1   1.00000     0.00000
 Structure written by MMmdl.
 37 38  0  0  0  0  0  0  0  0  2 V2000
  147.5717  139.5665  152.8229 C   0  0  0  0  0  0  0  0  0  0  0  0
  148.8555  139.5611  153.5825 C   0  0  0  0  0  0  0  0  0  0  0  0
  149.7182  138.4971  153.5553 N   0  3  0  0  0  0  0  0  0  0  0  0
  150.7911  138.7436  154.3085 C   0  0  0  0  0  0  0  0  0  0  0  0
  150.6276  139.9665  154.8253 N   0  0  0  0  0  0  0  0  0  0  0  0
  151.6320  140.5747  155.7120 C   0  0  0  0  0  0  0  0  0  0  0  0
  151.0599  140.9454  157.0847 C   0  0  0  0  0  0  0  0  0  0  0  0
  150.5370  140.0908  157.8012 O   0  0  0  0  0  0  0  0  0  0  0  0
  151.1734  142.2345  157.4370 N   0  0  0  0  0  0  0  0  0  0  0  0
  150.7445  142.8005  158.7127 C   0  0  0  0  0  0  0  0  0  0  0  0
  151.8883  142.8729  159.7418 C   0  0  2  0  0  0  0  0  0  0  0  0
  152.6217  141.5598  160.0171 C   0  0  0  0  0  0  0  0  0  0  0  0
  153.2842  141.8688  161.3408 C   0  0  0  0  0  0  0  0  0  0  0  0
  152.2265  142.7179  162.0455 C   0  0  0  0  0  0  0  0  0  0  0  0
  151.4244  143.2993  161.0187 O   0  0  0  0  0  0  0  0  0  0  0  0
  149.4361  140.5074  154.3951 C   0  0  0  0  0  0  0  0  0  0  0  0
  148.9700  141.8714  154.7884 C   0  0  0  0  0  0  0  0  0  0  0  0
  146.7734  139.9884  153.4339 H   0  0  0  0  0  0  0  0  0  0  0  0
  147.2881  138.5535  152.5357 H   0  0  0  0  0  0  0  0  0  0  0  0
  147.6745  140.1688  151.9199 H   0  0  0  0  0  0  0  0  0  0  0  0
  151.6268  138.0848  154.4645 H   0  0  0  0  0  0  0  0  0  0  0  0
  152.4573  139.8701  155.8214 H   0  0  0  0  0  0  0  0  0  0  0  0
  152.0315  141.4688  155.2313 H   0  0  0  0  0  0  0  0  0  0  0  0
  151.6128  142.8685  156.7853 H   0  0  0  0  0  0  0  0  0  0  0  0
  150.3689  143.8055  158.5198 H   0  0  0  0  0  0  0  0  0  0  0  0
  149.9047  142.2381  159.1237 H   0  0  0  0  0  0  0  0  0  0  0  0
  152.6167  143.6124  159.4048 H   0  0  0  0  0  0  0  0  0  0  0  0
  151.9252  140.7300  160.1400 H   0  0  0  0  0  0  0  0  0  0  0  0
  153.3334  141.2977  159.2338 H   0  0  0  0  0  0  0  0  0  0  0  0
  153.5590  140.9760  161.9031 H   0  0  0  0  0  0  0  0  0  0  0  0
  154.1874  142.4579  161.1749 H   0  0  0  0  0  0  0  0  0  0  0  0
  151.5896  142.0939  162.6726 H   0  0  0  0  0  0  0  0  0  0  0  0
  152.6744  143.4849  162.6777 H   0  0  0  0  0  0  0  0  0  0  0  0
  147.9601  142.0514  154.4203 H   0  0  0  0  0  0  0  0  0  0  0  0
  149.6301  142.6283  154.3653 H   0  0  0  0  0  0  0  0  0  0  0  0
  148.9640  141.9762  155.8734 H   0  0  0  0  0  0  0  0  0  0  0  0
  149.5676  137.6424  153.0342 H   0  0  0  0  0  0  0  0  0  0  0  0
  1  2  1  0  0  0  0
  1 18  1  0  0  0  0
  1 19  1  0  0  0  0
  1 20  1  0  0  0  0
  2 16  2  0  0  0  0
  2  3  1  0  0  0  0
  3  4  2  0  0  0  0
  3 37  1  0  0  0  0
  4  5  1  0  0  0  0
  4 21  1  0  0  0  0
  5  6  1  0  0  0  0
  5 16  1  0  0  0  0
  6  7  1  0  0  0  0
  6 22  1  0  0  0  0
  6 23  1  0  0  0  0
  7  8  2  0  0  0  0
  7  9  1  0  0  0  0
  9 10  1  0  0  0  0
  9 24  1  0  0  0  0
 10 11  1  0  0  0  0
 10 25  1  0  0  0  0
 10 26  1  0  0  0  0
 11 15  1  0  0  0  0
 11 12  1  0  0  0  0
 11 27  1  0  0  0  0
 12 13  1  0  0  0  0
 12 28  1  0  0  0  0
 12 29  1  0  0  0  0
 13 14  1  0  0  0  0
 13 30  1  0  0  0  0
 13 31  1  0  0  0  0
 14 15  1  0  0  0  0
 14 32  1  0  0  0  0
 14 33  1  0  0  0  0
 16 17  1  0  0  0  0
 17 34  1  0  0  0  0
 17 35  1  0  0  0  0
 17 36  1  0  0  0  0
M  CHG  1   3   1
M  END
> <s_m_source_file>
AV-unprocessed.smi

> <i_m_source_file_index>
3147

> <i_lp_mmshare_version>
43012

> <i_f3d_flags>
0

> <s_epik_input>
W0NIM11jMW5bY0hdbihjMVtDSDNdKVtDSDJdQyg9TylbTkhdW0NIMl1bQ0BASF0yW0NIMl1bQ0gyXVtDSDJdTzI=

> <s_epik_cmdline>
J2VwaWtfcHl0aG9uJywgJy1waCcsICc3LjAnLCAnLXRuJywgJzgnLCAnLW1hJywgJzIwMCcsICctbWV0YWxfYmluZGluZycsICctaW1hZScsICc8aW5maWxlLm1hZT4nLCAnLW9tYWUnLCAnPG91dGZpbGUubWFlPic=

> <r_lp_tautomer_probability>
1

> <r_epik_Ionization_Penalty>
0.131257

> <r_epik_Ionization_Penalty_Charging>
0

> <r_epik_Ionization_Penalty_Neutral>
0.131257

> <r_epik_State_Penalty>
0.12065

> <r_epik_Charging_Adjusted_Penalty>
0.12065

> <i_epik_Tot_Q>
1

> <i_epik_Tot_abs_Q>
1

> <r_epik_Metal_State_Penalty>
0.448684

> <b_epik_Metal_Only>
0

> <s_lp_Force_Field>
OPLS_2005

> <r_lp_Energy>
20.508

> <b_lp_Chiralities_Consistent>
1

> <s_lp_Variant>
AV-unprocessed.smi:3147-1

> <Gold.Version>
5.8.1

> <Gold.Id.Protein>
6NUR|6NUR_protein|mol2

> <Gold.PLP.Fitness>
43.9327

> <Gold.PLP.PLP>
-38.3291

> <Gold.PLP.part.hbond>
-1.6324

> <Gold.PLP.part.metal>
0.0000

> <Gold.PLP.part.buried>
-1.4822

> <Gold.PLP.part.nonpolar>
-34.7132

> <Gold.PLP.part.repulsive>
0.2019

> <Gold.PLP.ligand.clash>
0.0000

> <Gold.PLP.ligand.torsion>
0.2007

> <Gold.PLP.Chemscore.Hbond>
2.0000

> <Gold.PLP.Chemscore.CHOScore>
0.0000

> <Gold.PLP.Chemscore.Metal>
0.0000

> <Gold.Chemscore.Hbonds>
donor molecule, donor type, donor heavy atom, donor atom, acceptor molecule, acceptor atom, score
      L1  H     3    37       P1  7948  2.00

> <Gold.PLP.Chemscore.Internal.Correction>
0.0049

> <Gold.Rescore>
     Score         DG    S(hbond)    S(metal)    S(lipo)     H(rot)  DE(clash)    DE(int)     intcor
     14.05     -14.58       0.99        0.00      88.07       1.76       0.28       0.24       ----

> <Gold.Chemscore.Fitness>
14.0490

> <Gold.Chemscore.DG>
-14.5764

> <Gold.Chemscore.ZeroCoef>
-5.4800

> <Gold.Chemscore.Hbond>
0.9857

> <Gold.Chemscore.Metal>
0.0000

> <Gold.Chemscore.Lipo>
88.0674

> <Gold.Chemscore.Internal_Hbond>
0.0000

> <Gold.Chemscore.DEClash>
0.2848

> <Gold.Chemscore.DEInternal>
0.2426

> <Gold.Chemscore.Rot>
1.7577

> <Gold.Chemscore.Internal.Correction>
   9.000000E+99

> <Gold.Chemscore.Hbonds>
donor molecule, donor type, donor heavy atom, donor atom, acceptor molecule, acceptor atom, score
      L1  H     3    37       P1  7948  0.78

> <Gold.Chemscore.Hbond.Weighted>
-3.2923

> <Gold.Chemscore.Metal.Weighted>
-0.0000

> <Gold.Chemscore.Lipo.Weighted>
-10.3039

> <Gold.Chemscore.Internal_Hbond.Weighted>
0.0000

> <Gold.Chemscore.DEClash.Weighted>
0.2848

> <Gold.Chemscore.DEInternal.Weighted>
0.2426

> <Gold.Chemscore.Rot.Weighted>
4.4998

> <Gold.Chemscore.Internal.Correction.Weighted>
   9.000000E+99

> <Gold.Protein.RotatedTorsions>
[ 6907 6896 6895 6894 ] final  100.89 input  -60.11 | X-H torsion
[ 7974 7965 7964 7962 ] final  156.35 input  175.53 | X-H torsion
[ 8008 7997 7996 7995 ] final   53.00 input   59.86 | X-H torsion
[ 10167 10162 10161 10158 ] final -179.88 input  -65.29 | X-H torsion
[ 10718 10713 10712 10709 ] final  152.25 input   66.30 | X-H torsion
[ 10763 10752 10751 10750 ] final  162.85 input  -60.55 | X-H torsion
[ 11005 11000 10999 10996 ] final  -63.47 input  -57.11 | X-H torsion

> <Gold.Protein.ActiveResidues>
 VAL166  LYS551  ARG553  GLY616  TRP617  ASP618  TYR619  PRO620  LYS621  CYS622 
 ASP623  PHE694  ASN695  SER759  ASP760  ASP761  ALA762  ILE779  LEU786  VAL792 
 PHE793  MET794  SER795  GLU796  ALA797  LYS798  CYS799  TRP800  GLU811  SER814 

> <Gold.Protein.RotatedAtoms>
  152.5362  134.0208  159.7980 H   0  0  0  0  0  0  0  0  0  0  0  0  # atno 6907 bound_to 6896
  151.0395  133.5711  159.2660 H   0  0  0  0  0  0  0  0  0  0  0  0  # atno 6908 bound_to 6896
  151.2686  135.0684  159.9179 H   0  0  0  0  0  0  0  0  0  0  0  0  # atno 6909 bound_to 6896
  144.7968  139.7192  143.6198 H   0  0  0  0  0  0  0  0  0  0  0  0  # atno 7974 bound_to 7965
  155.4611  140.3462  155.4313 H   0  0  0  0  0  0  0  0  0  0  0  0  # atno 8008 bound_to 7997
  156.1160  140.1474  156.9301 H   0  0  0  0  0  0  0  0  0  0  0  0  # atno 8009 bound_to 7997
  154.4789  140.0876  156.7310 H   0  0  0  0  0  0  0  0  0  0  0  0  # atno 8010 bound_to 7997
  139.5366  144.2480  152.0808 H   0  0  0  0  0  0  0  0  0  0  0  0  # atno 10167 bound_to 10162
  157.2602  131.0796  151.1671 H   0  0  0  0  0  0  0  0  0  0  0  0  # atno 10718 bound_to 10713
  154.2847  135.2762  155.2681 H   0  0  0  0  0  0  0  0  0  0  0  0  # atno 10763 bound_to 10752
  154.5187  135.5762  153.6666 H   0  0  0  0  0  0  0  0  0  0  0  0  # atno 10764 bound_to 10752
  152.9923  135.6199  154.3008 H   0  0  0  0  0  0  0  0  0  0  0  0  # atno 10765 bound_to 10752
  141.1394  133.6652  156.5685 H   0  0  0  0  0  0  0  0  0  0  0  0  # atno 11005 bound_to 11000
  146.2239  139.5686  142.9600 LP  0  0  0  0  0  0  0  0  0  0  0  0  # atno 17320 bound_to 7965
  145.5652  141.0400  143.2204 LP  0  0  0  0  0  0  0  0  0  0  0  0  # atno 17321 bound_to 7965
  140.1951  144.4713  150.6459 LP  0  0  0  0  0  0  0  0  0  0  0  0  # atno 17342 bound_to 10162
  140.6576  143.2242  151.5932 LP  0  0  0  0  0  0  0  0  0  0  0  0  # atno 17343 bound_to 10162
  157.3184  130.6924  149.6255 LP  0  0  0  0  0  0  0  0  0  0  0  0  # atno 17370 bound_to 10713
  155.9664  130.4343  150.5042 LP  0  0  0  0  0  0  0  0  0  0  0  0  # atno 17371 bound_to 10713
  140.3932  134.7422  157.4734 LP  0  0  0  0  0  0  0  0  0  0  0  0  # atno 17394 bound_to 11000
  140.0551  134.6075  155.8815 LP  0  0  0  0  0  0  0  0  0  0  0  0  # atno 17395 bound_to 11000

$$$$
