AV-unprocessed.smi:1772|AV-procd|sdf|7161|dock2
  -GOLD-   22720 8403D 1   1.00000     0.00000
 Structure written by MMmdl.
 34 35  0  0  0  0  0  0  0  0  2 V2000
  146.9255  132.5860  153.9295 O   0  0  0  0  0  0  0  0  0  0  0  0
  147.5382  132.0765  152.9916 C   0  0  0  0  0  0  0  0  0  0  0  0
  148.7733  131.5679  153.1052 N   0  0  0  0  0  0  0  0  0  0  0  0
  149.5572  131.5390  154.3359 C   0  0  0  0  0  0  0  0  0  0  0  0
  149.3617  132.8100  155.1864 C   0  0  2  0  0  0  0  0  0  0  0  0
  149.4985  134.1176  154.3776 C   0  0  0  0  0  0  0  0  0  0  0  0
  149.5900  135.2922  155.3557 C   0  0  0  0  0  0  0  0  0  0  0  0
  150.4987  134.6516  156.8099 S   0  0  0  0  0  0  0  0  0  0  0  0
  151.9124  135.0463  156.7158 O   0  0  0  0  0  0  0  0  0  0  0  0
  149.7149  134.9249  158.0237 O   0  0  0  0  0  0  0  0  0  0  0  0
  150.3465  132.8791  156.3647 C   0  0  0  0  0  0  0  0  0  0  0  0
  147.0829  131.9747  151.7306 N   0  0  0  0  0  0  0  0  0  0  0  0
  145.8178  132.3640  151.2129 C   0  0  0  0  0  0  0  0  0  0  0  0
  145.5875  132.1711  149.8324 C   0  0  0  0  0  0  0  0  0  0  0  0
  144.3401  132.5253  149.2789 C   0  0  0  0  0  0  0  0  0  0  0  0
  143.3733  133.0349  150.0718 N   0  3  0  0  0  0  0  0  0  0  0  0
  143.5410  133.2237  151.3985 C   0  0  0  0  0  0  0  0  0  0  0  0
  144.7675  132.8892  152.0081 C   0  0  0  0  0  0  0  0  0  0  0  0
  149.2055  131.1716  152.2832 H   0  0  0  0  0  0  0  0  0  0  0  0
  149.3010  130.6520  154.9179 H   0  0  0  0  0  0  0  0  0  0  0  0
  150.6072  131.4312  154.0620 H   0  0  0  0  0  0  0  0  0  0  0  0
  148.3567  132.7961  155.6110 H   0  0  0  0  0  0  0  0  0  0  0  0
  150.4146  134.0796  153.7867 H   0  0  0  0  0  0  0  0  0  0  0  0
  148.6734  134.2527  153.6777 H   0  0  0  0  0  0  0  0  0  0  0  0
  150.1039  136.1588  154.9391 H   0  0  0  0  0  0  0  0  0  0  0  0
  148.5972  135.5986  155.6862 H   0  0  0  0  0  0  0  0  0  0  0  0
  150.0131  132.3032  157.2283 H   0  0  0  0  0  0  0  0  0  0  0  0
  151.3361  132.5249  156.0747 H   0  0  0  0  0  0  0  0  0  0  0  0
  147.7383  131.6178  151.0507 H   0  0  0  0  0  0  0  0  0  0  0  0
  146.3595  131.7601  149.1979 H   0  0  0  0  0  0  0  0  0  0  0  0
  144.0876  132.4144  148.2343 H   0  0  0  0  0  0  0  0  0  0  0  0
  142.6925  133.6279  151.9310 H   0  0  0  0  0  0  0  0  0  0  0  0
  144.8726  133.0289  153.0732 H   0  0  0  0  0  0  0  0  0  0  0  0
  142.4767  133.2829  149.6525 H   0  0  0  0  0  0  0  0  0  0  0  0
  1  2  2  0  0  0  0
  2  3  1  0  0  0  0
  2 12  1  0  0  0  0
  3  4  1  0  0  0  0
  3 19  1  0  0  0  0
  4  5  1  0  0  0  0
  4 20  1  0  0  0  0
  4 21  1  0  0  0  0
  5 11  1  0  0  0  0
  5  6  1  0  0  0  0
  5 22  1  0  0  0  0
  6  7  1  0  0  0  0
  6 23  1  0  0  0  0
  6 24  1  0  0  0  0
  7  8  1  0  0  0  0
  7 25  1  0  0  0  0
  7 26  1  0  0  0  0
  8  9  2  0  0  0  0
  8 10  2  0  0  0  0
  8 11  1  0  0  0  0
 11 27  1  0  0  0  0
 11 28  1  0  0  0  0
 12 13  1  0  0  0  0
 12 29  1  0  0  0  0
 13 18  1  0  0  0  0
 13 14  2  0  0  0  0
 14 15  1  0  0  0  0
 14 30  1  0  0  0  0
 15 16  2  0  0  0  0
 15 31  1  0  0  0  0
 16 17  1  0  0  0  0
 16 34  1  0  0  0  0
 17 18  2  0  0  0  0
 17 32  1  0  0  0  0
 18 33  1  0  0  0  0
M  CHG  1  16   1
M  END
> <s_m_source_file>
AV-unprocessed.smi

> <i_m_source_file_index>
1772

> <i_lp_mmshare_version>
43012

> <i_f3d_flags>
0

> <s_epik_input>
W2NIXTFbY0hdbltjSF1bY0hdYzFbTkhdQyg9TylbTkhdW0NIMl1bQ0BASF0oW0NIMl0yKVtDSDJdW0NIMl1TMig9Tyk9Tw==

> <s_epik_cmdline>
J2VwaWtfcHl0aG9uJywgJy1waCcsICc3LjAnLCAnLXRuJywgJzgnLCAnLW1hJywgJzIwMCcsICctbWV0YWxfYmluZGluZycsICctaW1hZScsICc8aW5maWxlLm1hZT4nLCAnLW9tYWUnLCAnPG91dGZpbGUubWFlPic=

> <r_epik_Ionization_Penalty>
1.04917

> <r_epik_Ionization_Penalty_Charging>
1.04915

> <r_epik_Ionization_Penalty_Neutral>
1.90771e-05

> <r_epik_State_Penalty>
1.10185

> <r_epik_Charging_Adjusted_Penalty>
2.151

> <i_epik_Tot_Q>
1

> <i_epik_Tot_abs_Q>
1

> <r_epik_Metal_State_Penalty>
1.19638

> <b_epik_Metal_Only>
0

> <s_lp_Force_Field>
OPLS_2005

> <r_lp_Energy>
16.4165

> <b_lp_Chiralities_Consistent>
1

> <s_lp_Variant>
AV-unprocessed.smi:1772-3

> <Gold.Version>
5.8.1

> <Gold.Id.Protein>
6NUR|6NUR_protein|mol2

> <Gold.PLP.Fitness>
50.4878

> <Gold.PLP.PLP>
-33.2480

> <Gold.PLP.part.hbond>
-5.0000

> <Gold.PLP.part.metal>
0.0000

> <Gold.PLP.part.buried>
-4.8181

> <Gold.PLP.part.nonpolar>
-24.4175

> <Gold.PLP.part.repulsive>
0.1543

> <Gold.PLP.ligand.clash>
0.0000

> <Gold.PLP.ligand.torsion>
0.2146

> <Gold.PLP.Chemscore.Hbond>
5.8880

> <Gold.PLP.Chemscore.CHOScore>
0.0000

> <Gold.PLP.Chemscore.Metal>
0.0000

> <Gold.Chemscore.Hbonds>
donor molecule, donor type, donor heavy atom, donor atom, acceptor molecule, acceptor atom, score
      L1  H     3    19       P1 10747  0.91
      L1  H    12    29       P1 10747  1.00
      L1  H    16    34       P1 10186  2.00
      P1  H  6896  6908       L1    10  1.00
      P1  H 10752 10763       L1     9  0.89

> <Gold.PLP.Chemscore.Internal.Correction>
0.0049

> <Gold.Rescore>
     Score         DG    S(hbond)    S(metal)    S(lipo)     H(rot)  DE(clash)    DE(int)     intcor
     21.10     -24.11       4.15        0.00      69.45       1.32       0.16       2.85       ----

> <Gold.Chemscore.Fitness>
21.0968

> <Gold.Chemscore.DG>
-24.1107

> <Gold.Chemscore.ZeroCoef>
-5.4800

> <Gold.Chemscore.Hbond>
4.1535

> <Gold.Chemscore.Metal>
0.0000

> <Gold.Chemscore.Lipo>
69.4478

> <Gold.Chemscore.Internal_Hbond>
0.0000

> <Gold.Chemscore.DEClash>
0.1592

> <Gold.Chemscore.DEInternal>
2.8547

> <Gold.Chemscore.Rot>
1.3153

> <Gold.Chemscore.Internal.Correction>
   9.000000E+99

> <Gold.Chemscore.Hbonds>
donor molecule, donor type, donor heavy atom, donor atom, acceptor molecule, acceptor atom, score
      L1  H     3    19       P1 10747  0.26
      L1  H    12    29       P1 10747  1.00
      L1  H    16    34       P1 10186  0.94
      P1  H  6896  6908       L1    10  0.59
      P1  H 10752 10763       L1     9  0.86

> <Gold.Chemscore.Hbond.Weighted>
-13.8725

> <Gold.Chemscore.Metal.Weighted>
-0.0000

> <Gold.Chemscore.Lipo.Weighted>
-8.1254

> <Gold.Chemscore.Internal_Hbond.Weighted>
0.0000

> <Gold.Chemscore.DEClash.Weighted>
0.1592

> <Gold.Chemscore.DEInternal.Weighted>
2.8547

> <Gold.Chemscore.Rot.Weighted>
3.3673

> <Gold.Chemscore.Internal.Correction.Weighted>
   9.000000E+99

> <Gold.Protein.RotatedTorsions>
[ 6907 6896 6895 6894 ] final  152.32 input  -60.11 | X-H torsion
[ 7974 7965 7964 7962 ] final  105.57 input  175.53 | X-H torsion
[ 8008 7997 7996 7995 ] final  137.82 input   59.86 | X-H torsion
[ 10167 10162 10161 10158 ] final  -19.74 input  -65.29 | X-H torsion
[ 10718 10713 10712 10709 ] final -171.10 input   66.30 | X-H torsion
[ 10763 10752 10751 10750 ] final  101.12 input  -60.55 | X-H torsion
[ 11005 11000 10999 10996 ] final  169.16 input  -57.11 | X-H torsion

> <Gold.Protein.ActiveResidues>
 VAL166  LYS551  ARG553  GLY616  TRP617  ASP618  TYR619  PRO620  LYS621  CYS622 
 ASP623  PHE694  ASN695  SER759  ASP760  ASP761  ALA762  ILE779  LEU786  VAL792 
 PHE793  MET794  SER795  GLU796  ALA797  LYS798  CYS799  TRP800  GLU811  SER814 

> <Gold.Protein.RotatedAtoms>
  152.0884  133.4188  159.4532 H   0  0  0  0  0  0  0  0  0  0  0  0  # atno 6907 bound_to 6896
  150.6862  134.2900  159.4672 H   0  0  0  0  0  0  0  0  0  0  0  0  # atno 6908 bound_to 6896
  152.0749  134.9509  160.0625 H   0  0  0  0  0  0  0  0  0  0  0  0  # atno 6909 bound_to 6896
  145.3180  139.2521  143.3727 H   0  0  0  0  0  0  0  0  0  0  0  0  # atno 7974 bound_to 7965
  156.3000  140.2409  156.3971 H   0  0  0  0  0  0  0  0  0  0  0  0  # atno 8008 bound_to 7997
  154.8560  140.0422  157.1655 H   0  0  0  0  0  0  0  0  0  0  0  0  # atno 8009 bound_to 7997
  154.8947  140.2968  155.5355 H   0  0  0  0  0  0  0  0  0  0  0  0  # atno 8010 bound_to 7997
  140.7271  143.4789  151.0144 H   0  0  0  0  0  0  0  0  0  0  0  0  # atno 10167 bound_to 10162
  156.7359  130.9324  151.3107 H   0  0  0  0  0  0  0  0  0  0  0  0  # atno 10718 bound_to 10713
  153.3226  135.4055  155.1429 H   0  0  0  0  0  0  0  0  0  0  0  0  # atno 10763 bound_to 10752
  154.8604  135.3591  154.5576 H   0  0  0  0  0  0  0  0  0  0  0  0  # atno 10764 bound_to 10752
  153.6010  135.7071  153.5443 H   0  0  0  0  0  0  0  0  0  0  0  0  # atno 10765 bound_to 10752
  140.2948  134.7644  157.3868 H   0  0  0  0  0  0  0  0  0  0  0  0  # atno 11005 bound_to 11000
  146.3093  140.3731  142.8676 LP  0  0  0  0  0  0  0  0  0  0  0  0  # atno 17320 bound_to 7965
  144.8962  140.7586  143.5895 LP  0  0  0  0  0  0  0  0  0  0  0  0  # atno 17321 bound_to 7965
  139.8487  143.7468  152.3178 LP  0  0  0  0  0  0  0  0  0  0  0  0  # atno 17342 bound_to 10162
  139.7642  144.7497  151.0319 LP  0  0  0  0  0  0  0  0  0  0  0  0  # atno 17343 bound_to 10162
  157.6839  130.9167  150.0337 LP  0  0  0  0  0  0  0  0  0  0  0  0  # atno 17370 bound_to 10713
  156.1497  130.3642  149.9456 LP  0  0  0  0  0  0  0  0  0  0  0  0  # atno 17371 bound_to 10713
  140.1162  134.5279  155.8222 LP  0  0  0  0  0  0  0  0  0  0  0  0  # atno 17394 bound_to 11000
  141.2139  133.6741  156.6782 LP  0  0  0  0  0  0  0  0  0  0  0  0  # atno 17395 bound_to 11000

$$$$
