AV-unprocessed.smi:235|AV-procd|sdf|1806|dock9
  -GOLD-   2262020383D 1   1.00000     0.00000
 Structure written by MMmdl.
 54 58  0  0  0  0  0  0  0  0  1 V2000
  153.5090  139.5381  158.0677 O   0  0  0  0  0  0  0  0  0  0  0  0
  152.7707  140.3445  158.6355 C   0  0  0  0  0  0  0  0  0  0  0  0
  153.0865  140.9512  159.7888 N   0  0  0  0  0  0  0  0  0  0  0  0
  154.2910  140.7520  160.5270 C   0  0  0  0  0  0  0  0  0  0  0  0
  154.3065  139.6461  161.5597 C   0  0  0  0  0  0  0  0  0  0  0  0
  154.2726  141.0825  162.0036 C   0  0  0  0  0  0  0  0  0  0  0  0
  151.4055  140.7100  158.0310 C   0  0  1  0  0  0  0  0  0  0  0  0
  151.0866  142.2025  158.2159 C   0  0  0  0  0  0  0  0  0  0  0  0
  150.1625  142.5214  157.0452 C   0  0  0  0  0  0  0  0  0  0  0  0
  150.7077  141.6453  155.9182 C   0  0  0  0  0  0  0  0  0  0  0  0
  151.3734  140.5281  156.5769 N   0  0  0  0  0  0  0  0  0  0  0  0
  151.3548  139.2993  155.9934 C   0  0  0  0  0  0  0  0  0  0  0  0
  151.4831  139.1992  154.6430 N   0  0  0  0  0  0  0  0  0  0  0  0
  151.4664  138.0050  154.0451 C   0  0  0  0  0  0  0  0  0  0  0  0
  151.3309  136.7985  154.5965 N   0  0  0  0  0  0  0  0  0  0  0  0
  151.1957  136.8886  155.9501 C   0  0  0  0  0  0  0  0  0  0  0  0
  151.1967  138.0849  156.7231 C   0  0  0  0  0  0  0  0  0  0  0  0
  151.0228  137.7732  158.0675 N   0  0  0  0  0  0  0  0  0  0  0  0
  150.9338  136.4715  158.0881 C   0  0  0  0  0  0  0  0  0  0  0  0
  151.0329  135.8596  156.8596 N   0  0  0  0  0  0  0  0  0  0  0  0
  150.9725  134.4352  156.5879 C   0  0  0  0  0  0  0  0  0  0  0  0
  149.6176  133.8028  156.9701 C   0  0  2  0  0  0  0  0  0  0  0  0
  149.8370  133.0066  158.1172 O   0  0  0  0  0  0  0  0  0  0  0  0
  148.9881  132.9295  155.8621 C   0  0  1  0  0  0  0  0  0  0  0  0
  148.8003  133.6424  154.5216 C   0  0  0  0  0  0  0  0  0  0  0  0
  148.7439  132.5030  153.5173 C   0  0  0  0  0  0  0  0  0  0  0  0
  149.3732  131.3237  154.2629 C   0  0  0  0  0  0  0  0  0  0  0  0
  149.8537  131.8690  155.4834 O   0  0  0  0  0  0  0  0  0  0  0  0
  152.4157  141.5964  160.1800 H   0  0  0  0  0  0  0  0  0  0  0  0
  155.2309  140.9406  160.0101 H   0  0  0  0  0  0  0  0  0  0  0  0
  153.3997  139.0579  161.6892 H   0  0  0  0  0  0  0  0  0  0  0  0
  155.2380  139.1000  161.6938 H   0  0  0  0  0  0  0  0  0  0  0  0
  155.1817  141.4945  162.4371 H   0  0  0  0  0  0  0  0  0  0  0  0
  153.3433  141.4538  162.4317 H   0  0  0  0  0  0  0  0  0  0  0  0
  150.6101  140.1165  158.4862 H   0  0  0  0  0  0  0  0  0  0  0  0
  150.6229  142.4143  159.1797 H   0  0  0  0  0  0  0  0  0  0  0  0
  151.9884  142.8131  158.1390 H   0  0  0  0  0  0  0  0  0  0  0  0
  149.1443  142.2163  157.2905 H   0  0  0  0  0  0  0  0  0  0  0  0
  150.1447  143.5813  156.7898 H   0  0  0  0  0  0  0  0  0  0  0  0
  149.9048  141.3253  155.2522 H   0  0  0  0  0  0  0  0  0  0  0  0
  151.4439  142.1925  155.3282 H   0  0  0  0  0  0  0  0  0  0  0  0
  151.5778  138.0186  152.9710 H   0  0  0  0  0  0  0  0  0  0  0  0
  150.7987  135.9187  159.0063 H   0  0  0  0  0  0  0  0  0  0  0  0
  151.1779  134.2767  155.5281 H   0  0  0  0  0  0  0  0  0  0  0  0
  151.7829  133.9542  157.1373 H   0  0  0  0  0  0  0  0  0  0  0  0
  148.9146  134.5884  157.2495 H   0  0  0  0  0  0  0  0  0  0  0  0
  149.9885  132.1163  157.8389 H   0  0  0  0  0  0  0  0  0  0  0  0
  148.0363  132.5130  156.1983 H   0  0  0  0  0  0  0  0  0  0  0  0
  147.9100  134.2714  154.4979 H   0  0  0  0  0  0  0  0  0  0  0  0
  149.6641  134.2738  154.3084 H   0  0  0  0  0  0  0  0  0  0  0  0
  147.7143  132.2722  153.2412 H   0  0  0  0  0  0  0  0  0  0  0  0
  149.2895  132.7509  152.6063 H   0  0  0  0  0  0  0  0  0  0  0  0
  148.6243  130.5608  154.4795 H   0  0  0  0  0  0  0  0  0  0  0  0
  150.1828  130.8567  153.7017 H   0  0  0  0  0  0  0  0  0  0  0  0
  1  2  2  0  0  0  0
  2  3  1  0  0  0  0
  2  7  1  0  0  0  0
  3  4  1  0  0  0  0
  3 29  1  0  0  0  0
  4  6  1  0  0  0  0
  4  5  1  0  0  0  0
  4 30  1  0  0  0  0
  5  6  1  0  0  0  0
  5 31  1  0  0  0  0
  5 32  1  0  0  0  0
  6 33  1  0  0  0  0
  6 34  1  0  0  0  0
  7 11  1  0  0  0  0
  7  8  1  0  0  0  0
  7 35  1  0  0  0  0
  8  9  1  0  0  0  0
  8 36  1  0  0  0  0
  8 37  1  0  0  0  0
  9 10  1  0  0  0  0
  9 38  1  0  0  0  0
  9 39  1  0  0  0  0
 10 11  1  0  0  0  0
 10 40  1  0  0  0  0
 10 41  1  0  0  0  0
 11 12  1  0  0  0  0
 12 17  1  0  0  0  0
 12 13  2  0  0  0  0
 13 14  1  0  0  0  0
 14 15  2  0  0  0  0
 14 42  1  0  0  0  0
 15 16  1  0  0  0  0
 16 20  1  0  0  0  0
 16 17  2  0  0  0  0
 17 18  1  0  0  0  0
 18 19  2  0  0  0  0
 19 20  1  0  0  0  0
 19 43  1  0  0  0  0
 20 21  1  0  0  0  0
 21 22  1  0  0  0  0
 21 44  1  0  0  0  0
 21 45  1  0  0  0  0
 22 23  1  0  0  0  0
 22 24  1  0  0  0  0
 22 46  1  0  0  0  0
 23 47  1  0  0  0  0
 24 28  1  0  0  0  0
 24 25  1  0  0  0  0
 24 48  1  0  0  0  0
 25 26  1  0  0  0  0
 25 49  1  0  0  0  0
 25 50  1  0  0  0  0
 26 27  1  0  0  0  0
 26 51  1  0  0  0  0
 26 52  1  0  0  0  0
 27 28  1  0  0  0  0
 27 53  1  0  0  0  0
 27 54  1  0  0  0  0
M  END
> <s_m_source_file>
AV-unprocessed.smi

> <i_m_source_file_index>
235

> <i_lp_mmshare_version>
43012

> <i_f3d_flags>
0

> <s_epik_input>
W0NIMl0xW0NIMl1bQ0hdMVtOSF1DKD1PKVtDQEBIXTJbQ0gyXVtDSDJdW0NIMl1OMmMobltjSF1uMyljKGMzNCluW2NIXW40W0NIMl1bQ0BIXShbT0hdKVtDQEBIXTVbQ0gyXVtDSDJdW0NIMl1PNQ==

> <s_epik_cmdline>
J2VwaWtfcHl0aG9uJywgJy1waCcsICc3LjAnLCAnLXRuJywgJzgnLCAnLW1hJywgJzIwMCcsICctbWV0YWxfYmluZGluZycsICctaW1hZScsICc8aW5maWxlLm1hZT4nLCAnLW9tYWUnLCAnPG91dGZpbGUubWFlPic=

> <r_lp_tautomer_probability>
1

> <r_epik_Ionization_Penalty>
0.000526714

> <r_epik_Ionization_Penalty_Charging>
0

> <r_epik_Ionization_Penalty_Neutral>
0.000526714

> <r_epik_State_Penalty>
0.000272704

> <r_epik_Charging_Adjusted_Penalty>
0.000272704

> <i_epik_Tot_Q>
0

> <i_epik_Tot_abs_Q>
0

> <r_epik_Metal_State_Penalty>
-0

> <b_epik_Metal_Only>
0

> <s_lp_Force_Field>
OPLS_2005

> <r_lp_Energy>
59.6109

> <b_lp_Chiralities_Consistent>
1

> <s_lp_Variant>
AV-unprocessed.smi:235-6

> <Gold.Version>
5.8.1

> <Gold.Id.Protein>
6NUR|6NUR_protein|mol2

> <Gold.PLP.Fitness>
50.2146

> <Gold.PLP.PLP>
-39.6501

> <Gold.PLP.part.hbond>
-3.9538

> <Gold.PLP.part.metal>
0.0000

> <Gold.PLP.part.buried>
-0.9746

> <Gold.PLP.part.nonpolar>
-34.1268

> <Gold.PLP.part.repulsive>
0.3691

> <Gold.PLP.ligand.clash>
0.0000

> <Gold.PLP.ligand.torsion>
2.0360

> <Gold.PLP.Chemscore.Hbond>
4.0000

> <Gold.PLP.Chemscore.CHOScore>
0.7620

> <Gold.PLP.Chemscore.Metal>
0.0000

> <Gold.Chemscore.Hbonds>
donor molecule, donor type, donor heavy atom, donor atom, acceptor molecule, acceptor atom, score
      P1  H  6896  6908       L1    23  1.00
      P1  H  7989  7998       L1    13  1.00
      P1  H  7997  8009       L1     1  1.00
      P1  H 10752 10763       L1    15  1.00
      L1  C    14    42       P1  7949  0.87

> <Gold.PLP.Chemscore.Internal.Correction>
0.3506

> <Gold.Rescore>
     Score         DG    S(hbond)    S(metal)    S(lipo)     H(rot)  DE(clash)    DE(int)     intcor
     14.65     -19.99       3.40        0.00      85.59       2.68       1.24       4.09       ----

> <Gold.Chemscore.Fitness>
14.6493

> <Gold.Chemscore.DG>
-19.9870

> <Gold.Chemscore.ZeroCoef>
-5.4800

> <Gold.Chemscore.Hbond>
3.3964

> <Gold.Chemscore.Metal>
0.0000

> <Gold.Chemscore.Lipo>
85.5864

> <Gold.Chemscore.Internal_Hbond>
0.0000

> <Gold.Chemscore.DEClash>
1.2437

> <Gold.Chemscore.DEInternal>
4.0939

> <Gold.Chemscore.Rot>
2.6760

> <Gold.Chemscore.Internal.Correction>
   9.000000E+99

> <Gold.Chemscore.Hbonds>
donor molecule, donor type, donor heavy atom, donor atom, acceptor molecule, acceptor atom, score
      P1  H  6896  6908       L1    23  0.70
      P1  H  7989  7998       L1    13  0.88
      P1  H  7997  8009       L1     1  0.96
      P1  H 10752 10763       L1    15  0.40

> <Gold.Chemscore.Hbond.Weighted>
-11.3440

> <Gold.Chemscore.Metal.Weighted>
-0.0000

> <Gold.Chemscore.Lipo.Weighted>
-10.0136

> <Gold.Chemscore.Internal_Hbond.Weighted>
0.0000

> <Gold.Chemscore.DEClash.Weighted>
1.2437

> <Gold.Chemscore.DEInternal.Weighted>
4.0939

> <Gold.Chemscore.Rot.Weighted>
6.8506

> <Gold.Chemscore.Internal.Correction.Weighted>
   9.000000E+99

> <Gold.Protein.RotatedTorsions>
[ 6907 6896 6895 6894 ] final   94.56 input  -60.11 | X-H torsion
[ 7974 7965 7964 7962 ] final  164.20 input  175.53 | X-H torsion
[ 8008 7997 7996 7995 ] final  163.56 input   59.86 | X-H torsion
[ 10167 10162 10161 10158 ] final   -7.81 input  -65.29 | X-H torsion
[ 10718 10713 10712 10709 ] final   29.09 input   66.30 | X-H torsion
[ 10763 10752 10751 10750 ] final   43.26 input  -60.55 | X-H torsion
[ 11005 11000 10999 10996 ] final   40.80 input  -57.11 | X-H torsion

> <Gold.Protein.ActiveResidues>
 VAL166  LYS551  ARG553  GLY616  TRP617  ASP618  TYR619  PRO620  LYS621  CYS622 
 ASP623  PHE694  ASN695  SER759  ASP760  ASP761  ALA762  ILE779  LEU786  VAL792 
 PHE793  MET794  SER795  GLU796  ALA797  LYS798  CYS799  TRP800  GLU811  SER814 

> <Gold.Protein.RotatedAtoms>
  152.5449  134.1175  159.8384 H   0  0  0  0  0  0  0  0  0  0  0  0  # atno 6907 bound_to 6896
  151.1234  133.5080  159.2609 H   0  0  0  0  0  0  0  0  0  0  0  0  # atno 6908 bound_to 6896
  151.1754  135.0346  159.8824 H   0  0  0  0  0  0  0  0  0  0  0  0  # atno 6909 bound_to 6896
  144.7555  139.8292  143.6351 H   0  0  0  0  0  0  0  0  0  0  0  0  # atno 7974 bound_to 7965
  156.1947  140.1720  156.8021 H   0  0  0  0  0  0  0  0  0  0  0  0  # atno 8008 bound_to 7997
  154.5515  140.0717  156.8707 H   0  0  0  0  0  0  0  0  0  0  0  0  # atno 8009 bound_to 7997
  155.3020  140.3362  155.4249 H   0  0  0  0  0  0  0  0  0  0  0  0  # atno 8010 bound_to 7997
  140.7040  143.6039  150.8771 H   0  0  0  0  0  0  0  0  0  0  0  0  # atno 10167 bound_to 10162
  157.2420  130.7074  149.6363 H   0  0  0  0  0  0  0  0  0  0  0  0  # atno 10718 bound_to 10713
  152.9864  135.6107  154.3082 H   0  0  0  0  0  0  0  0  0  0  0  0  # atno 10763 bound_to 10752
  154.2799  135.2777  155.2703 H   0  0  0  0  0  0  0  0  0  0  0  0  # atno 10764 bound_to 10752
  154.5047  135.5857  153.6615 H   0  0  0  0  0  0  0  0  0  0  0  0  # atno 10765 bound_to 10752
  140.1896  134.4003  155.8154 H   0  0  0  0  0  0  0  0  0  0  0  0  # atno 11005 bound_to 11000
  146.1561  139.4659  143.0018 LP  0  0  0  0  0  0  0  0  0  0  0  0  # atno 17320 bound_to 7965
  145.6793  141.0195  143.1615 LP  0  0  0  0  0  0  0  0  0  0  0  0  # atno 17321 bound_to 7965
  139.9763  143.6001  152.2957 LP  0  0  0  0  0  0  0  0  0  0  0  0  # atno 17342 bound_to 10162
  139.6606  144.7662  151.1971 LP  0  0  0  0  0  0  0  0  0  0  0  0  # atno 17343 bound_to 10162
  155.9669  130.4455  150.5503 LP  0  0  0  0  0  0  0  0  0  0  0  0  # atno 17370 bound_to 10713
  157.3368  131.0709  151.1818 LP  0  0  0  0  0  0  0  0  0  0  0  0  # atno 17371 bound_to 10713
  141.2226  133.7040  156.8072 LP  0  0  0  0  0  0  0  0  0  0  0  0  # atno 17394 bound_to 11000
  140.2175  134.8782  157.3341 LP  0  0  0  0  0  0  0  0  0  0  0  0  # atno 17395 bound_to 11000

$$$$
