AV-unprocessed.smi:635|AV-procd|sdf|3139|dock7
  -GOLD-   22720 0 63D 1   1.00000     0.00000
 Structure written by MMmdl.
 37 38  0  0  0  0  0  0  0  0  1 V2000
  148.9638  133.4110  153.2016 C   0  0  0  0  0  0  0  0  0  0  0  0
  149.6200  133.4295  154.5865 C   0  0  0  0  0  0  0  0  0  0  0  0
  149.6505  134.8351  155.2065 C   0  0  0  0  0  0  0  0  0  0  0  0
  150.6122  135.7881  154.4856 C   0  0  0  0  0  0  0  0  0  0  0  0
  150.5804  137.0572  155.1286 O   0  0  0  0  0  0  0  0  0  0  0  0
  151.4220  138.0473  154.5442 C   0  0  0  0  0  0  0  0  0  0  0  0
  152.0371  138.9610  155.6102 C   0  0  0  0  0  0  0  0  0  0  0  0
  153.1181  138.6565  156.1133 O   0  0  0  0  0  0  0  0  0  0  0  0
  151.3211  140.0546  155.9325 N   0  0  0  0  0  0  0  0  0  0  0  0
  151.6331  141.0585  156.8857 C   0  0  0  0  0  0  0  0  0  0  0  0
  150.9459  142.2797  156.7245 C   0  0  0  0  0  0  0  0  0  0  0  0
  151.2037  143.3155  157.6384 C   0  0  0  0  0  0  0  0  0  0  0  0
  152.1383  143.0612  158.6593 C   0  0  0  0  0  0  0  0  0  0  0  0
  152.4860  144.0794  159.7001 C   0  0  0  0  0  0  0  0  0  0  0  0
  151.4743  144.5263  160.7321 C   0  0  0  0  0  0  0  0  0  0  0  0
  151.9067  145.4744  159.6413 C   0  0  0  0  0  0  0  0  0  0  0  0
  152.7669  141.8704  158.7759 N   0  0  0  0  0  0  0  0  0  0  0  0
  152.5192  140.8900  157.9013 N   0  0  0  0  0  0  0  0  0  0  0  0
  148.9547  132.4015  152.7900 H   0  0  0  0  0  0  0  0  0  0  0  0
  149.5022  134.0510  152.5020 H   0  0  0  0  0  0  0  0  0  0  0  0
  147.9317  133.7596  153.2502 H   0  0  0  0  0  0  0  0  0  0  0  0
  149.0813  132.7479  155.2454 H   0  0  0  0  0  0  0  0  0  0  0  0
  150.6363  133.0423  154.5071 H   0  0  0  0  0  0  0  0  0  0  0  0
  148.6461  135.2589  155.1781 H   0  0  0  0  0  0  0  0  0  0  0  0
  149.9260  134.7700  156.2598 H   0  0  0  0  0  0  0  0  0  0  0  0
  151.6246  135.3817  154.4975 H   0  0  0  0  0  0  0  0  0  0  0  0
  150.3116  135.8796  153.4414 H   0  0  0  0  0  0  0  0  0  0  0  0
  152.2325  137.5434  154.0171 H   0  0  0  0  0  0  0  0  0  0  0  0
  150.8747  138.6310  153.8021 H   0  0  0  0  0  0  0  0  0  0  0  0
  150.4570  140.1851  155.4268 H   0  0  0  0  0  0  0  0  0  0  0  0
  150.2370  142.4222  155.9219 H   0  0  0  0  0  0  0  0  0  0  0  0
  150.7007  144.2678  157.5588 H   0  0  0  0  0  0  0  0  0  0  0  0
  153.5205  143.9729  160.0212 H   0  0  0  0  0  0  0  0  0  0  0  0
  150.4636  144.1278  160.6701 H   0  0  0  0  0  0  0  0  0  0  0  0
  151.8330  144.7394  161.7372 H   0  0  0  0  0  0  0  0  0  0  0  0
  152.5484  146.3029  159.9339 H   0  0  0  0  0  0  0  0  0  0  0  0
  151.1860  145.6935  158.8557 H   0  0  0  0  0  0  0  0  0  0  0  0
  1  2  1  0  0  0  0
  1 19  1  0  0  0  0
  1 20  1  0  0  0  0
  1 21  1  0  0  0  0
  2  3  1  0  0  0  0
  2 22  1  0  0  0  0
  2 23  1  0  0  0  0
  3  4  1  0  0  0  0
  3 24  1  0  0  0  0
  3 25  1  0  0  0  0
  4  5  1  0  0  0  0
  4 26  1  0  0  0  0
  4 27  1  0  0  0  0
  5  6  1  0  0  0  0
  6  7  1  0  0  0  0
  6 28  1  0  0  0  0
  6 29  1  0  0  0  0
  7  8  2  0  0  0  0
  7  9  1  0  0  0  0
  9 10  1  0  0  0  0
  9 30  1  0  0  0  0
 10 18  1  0  0  0  0
 10 11  2  0  0  0  0
 11 12  1  0  0  0  0
 11 31  1  0  0  0  0
 12 13  2  0  0  0  0
 12 32  1  0  0  0  0
 13 14  1  0  0  0  0
 13 17  1  0  0  0  0
 14 16  1  0  0  0  0
 14 15  1  0  0  0  0
 14 33  1  0  0  0  0
 15 16  1  0  0  0  0
 15 34  1  0  0  0  0
 15 35  1  0  0  0  0
 16 36  1  0  0  0  0
 16 37  1  0  0  0  0
 17 18  2  0  0  0  0
M  END
> <s_m_source_file>
AV-unprocessed.smi

> <i_m_source_file_index>
635

> <i_lp_mmshare_version>
43012

> <i_f3d_flags>
0

> <s_epik_input>
W0NIM11bQ0gyXVtDSDJdW0NIMl1PW0NIMl1DKD1PKVtOSF1jMVtjSF1bY0hdYyhubjEpW0NIXTJbQ0gyXVtDSDJdMg==

> <s_epik_cmdline>
J2VwaWtfcHl0aG9uJywgJy1waCcsICc3LjAnLCAnLXRuJywgJzgnLCAnLW1hJywgJzIwMCcsICctbWV0YWxfYmluZGluZycsICctaW1hZScsICc8aW5maWxlLm1hZT4nLCAnLW9tYWUnLCAnPG91dGZpbGUubWFlPic=

> <r_lp_tautomer_probability>
1

> <r_epik_Ionization_Penalty>
0.00559584

> <r_epik_Ionization_Penalty_Charging>
0

> <r_epik_Ionization_Penalty_Neutral>
0.00559584

> <r_epik_State_Penalty>
-0

> <r_epik_Charging_Adjusted_Penalty>
0

> <i_epik_Tot_Q>
0

> <i_epik_Tot_abs_Q>
0

> <r_epik_Metal_State_Penalty>
-0

> <b_epik_Metal_Only>
0

> <s_lp_Force_Field>
OPLS_2005

> <r_lp_Energy>
16.6483

> <b_lp_Chiralities_Consistent>
1

> <s_lp_Variant>
AV-unprocessed.smi:635-1

> <Gold.Version>
5.8.1

> <Gold.Id.Protein>
6NUR|6NUR_protein|mol2

> <Gold.PLP.Fitness>
40.3603

> <Gold.PLP.PLP>
-38.7614

> <Gold.PLP.part.hbond>
-1.5402

> <Gold.PLP.part.metal>
0.0000

> <Gold.PLP.part.buried>
-3.0949

> <Gold.PLP.part.nonpolar>
-33.4979

> <Gold.PLP.part.repulsive>
0.2413

> <Gold.PLP.ligand.clash>
0.0000

> <Gold.PLP.ligand.torsion>
0.7963

> <Gold.PLP.Chemscore.Hbond>
1.0000

> <Gold.PLP.Chemscore.CHOScore>
0.0000

> <Gold.PLP.Chemscore.Metal>
0.0000

> <Gold.Chemscore.Hbonds>
donor molecule, donor type, donor heavy atom, donor atom, acceptor molecule, acceptor atom, score
      P1  H  7997  8009       L1     8  1.00

> <Gold.PLP.Chemscore.Internal.Correction>
0.1915

> <Gold.Rescore>
     Score         DG    S(hbond)    S(metal)    S(lipo)     H(rot)  DE(clash)    DE(int)     intcor
     13.43     -15.49       0.93        0.00      98.69       1.82       0.08       1.98       ----

> <Gold.Chemscore.Fitness>
13.4253

> <Gold.Chemscore.DG>
-15.4872

> <Gold.Chemscore.ZeroCoef>
-5.4800

> <Gold.Chemscore.Hbond>
0.9306

> <Gold.Chemscore.Metal>
0.0000

> <Gold.Chemscore.Lipo>
98.6856

> <Gold.Chemscore.Internal_Hbond>
0.0000

> <Gold.Chemscore.DEClash>
0.0822

> <Gold.Chemscore.DEInternal>
1.9797

> <Gold.Chemscore.Rot>
1.8153

> <Gold.Chemscore.Internal.Correction>
   9.000000E+99

> <Gold.Chemscore.Hbonds>
donor molecule, donor type, donor heavy atom, donor atom, acceptor molecule, acceptor atom, score
      P1  H  7997  8009       L1     8  0.90

> <Gold.Chemscore.Hbond.Weighted>
-3.1082

> <Gold.Chemscore.Metal.Weighted>
-0.0000

> <Gold.Chemscore.Lipo.Weighted>
-11.5462

> <Gold.Chemscore.Internal_Hbond.Weighted>
0.0000

> <Gold.Chemscore.DEClash.Weighted>
0.0822

> <Gold.Chemscore.DEInternal.Weighted>
1.9797

> <Gold.Chemscore.Rot.Weighted>
4.6472

> <Gold.Chemscore.Internal.Correction.Weighted>
   9.000000E+99

> <Gold.Protein.RotatedTorsions>
[ 6907 6896 6895 6894 ] final  105.18 input  -60.11 | X-H torsion
[ 7974 7965 7964 7962 ] final   93.01 input  175.53 | X-H torsion
[ 8008 7997 7996 7995 ] final -172.22 input   59.86 | X-H torsion
[ 10167 10162 10161 10158 ] final   70.62 input  -65.29 | X-H torsion
[ 10718 10713 10712 10709 ] final -119.10 input   66.30 | X-H torsion
[ 10763 10752 10751 10750 ] final  146.09 input  -60.55 | X-H torsion
[ 11005 11000 10999 10996 ] final -140.94 input  -57.11 | X-H torsion

> <Gold.Protein.ActiveResidues>
 VAL166  LYS551  ARG553  GLY616  TRP617  ASP618  TYR619  PRO620  LYS621  CYS622 
 ASP623  PHE694  ASN695  SER759  ASP760  ASP761  ALA762  ILE779  LEU786  VAL792 
 PHE793  MET794  SER795  GLU796  ALA797  LYS798  CYS799  TRP800  GLU811  SER814 

> <Gold.Protein.RotatedAtoms>
  152.5239  133.9566  159.7696 H   0  0  0  0  0  0  0  0  0  0  0  0  # atno 6907 bound_to 6896
  150.9865  133.6184  159.2721 H   0  0  0  0  0  0  0  0  0  0  0  0  # atno 6908 bound_to 6896
  151.3343  135.0855  159.9402 H   0  0  0  0  0  0  0  0  0  0  0  0  # atno 6909 bound_to 6896
  145.4846  139.2277  143.2863 H   0  0  0  0  0  0  0  0  0  0  0  0  # atno 7974 bound_to 7965
  155.9417  140.1110  157.1050 H   0  0  0  0  0  0  0  0  0  0  0  0  # atno 8008 bound_to 7997
  154.4091  140.1217  156.5002 H   0  0  0  0  0  0  0  0  0  0  0  0  # atno 8009 bound_to 7997
  155.6953  140.3472  155.4912 H   0  0  0  0  0  0  0  0  0  0  0  0  # atno 8010 bound_to 7997
  140.0550  144.5280  150.7336 H   0  0  0  0  0  0  0  0  0  0  0  0  # atno 10167 bound_to 10162
  156.1155  130.6282  150.9374 H   0  0  0  0  0  0  0  0  0  0  0  0  # atno 10718 bound_to 10713
  154.0162  135.2910  155.3386 H   0  0  0  0  0  0  0  0  0  0  0  0  # atno 10763 bound_to 10752
  154.7073  135.5164  153.8618 H   0  0  0  0  0  0  0  0  0  0  0  0  # atno 10764 bound_to 10752
  153.0701  135.6645  154.0389 H   0  0  0  0  0  0  0  0  0  0  0  0  # atno 10765 bound_to 10752
  140.8374  134.2444  157.4827 H   0  0  0  0  0  0  0  0  0  0  0  0  # atno 11005 bound_to 11000
  146.2321  140.5635  142.8971 LP  0  0  0  0  0  0  0  0  0  0  0  0  # atno 17320 bound_to 7965
  144.7869  140.5954  143.6568 LP  0  0  0  0  0  0  0  0  0  0  0  0  # atno 17321 bound_to 7965
  140.7199  143.2579  151.4313 LP  0  0  0  0  0  0  0  0  0  0  0  0  # atno 17342 bound_to 10162
  139.5929  144.1459  152.2110 LP  0  0  0  0  0  0  0  0  0  0  0  0  # atno 17343 bound_to 10162
  157.6338  131.0918  150.8388 LP  0  0  0  0  0  0  0  0  0  0  0  0  # atno 17370 bound_to 10713
  156.8492  130.5074  149.5313 LP  0  0  0  0  0  0  0  0  0  0  0  0  # atno 17371 bound_to 10713
  139.8704  134.9617  156.4406 LP  0  0  0  0  0  0  0  0  0  0  0  0  # atno 17394 bound_to 11000
  140.8933  133.7832  155.9596 LP  0  0  0  0  0  0  0  0  0  0  0  0  # atno 17395 bound_to 11000

$$$$
