AV-unprocessed.smi:2559|AV-procd|sdf|10034|dock10
  -GOLD-   2272014 83D 1   1.00000     0.00000
 Structure written by MMmdl.
 44 46  0  0  0  0  0  0  0  0  1 V2000
  154.5014  137.1919  158.2604 C   0  0  0  0  0  0  0  0  0  0  0  0
  153.1377  137.4204  157.7783 N   0  0  0  0  0  0  0  0  0  0  0  0
  152.4158  136.3817  157.2493 C   0  0  0  0  0  0  0  0  0  0  0  0
  152.8739  135.2431  157.1537 O   0  0  0  0  0  0  0  0  0  0  0  0
  151.1442  136.6457  156.8216 N   0  0  0  0  0  0  0  0  0  0  0  0
  150.4939  137.8342  156.8517 C   0  0  0  0  0  0  0  0  0  0  0  0
  149.3384  137.9772  156.4595 O   0  0  0  0  0  0  0  0  0  0  0  0
  151.3101  138.9264  157.4042 C   0  0  0  0  0  0  0  0  0  0  0  0
  152.5747  138.7262  157.8563 C   0  0  0  0  0  0  0  0  0  0  0  0
  153.1123  139.9014  158.3567 N   0  0  0  0  0  0  0  0  0  0  0  0
  152.1346  140.7900  158.1617 C   0  0  0  0  0  0  0  0  0  0  0  0
  152.2406  142.1310  158.5350 N   0  0  0  0  0  0  0  0  0  0  0  0
  151.6620  143.2707  157.8220 C   0  0  0  0  0  0  0  0  0  0  0  0
  150.8946  144.2062  158.7726 C   0  0  0  0  0  0  0  0  0  0  0  0
  151.8195  144.7111  159.8881 C   0  0  0  0  0  0  0  0  0  0  0  0
  152.5171  143.5252  160.5686 C   0  0  0  0  0  0  0  0  0  0  0  0
  153.1980  142.6197  159.5265 C   0  0  0  0  0  0  0  0  0  0  0  0
  151.0021  140.2750  157.6080 N   0  0  0  0  0  0  0  0  0  0  0  0
  149.7332  140.9529  157.3410 C   0  0  0  0  0  0  0  0  0  0  0  0
  149.6262  141.4399  155.8806 C   0  0  2  0  0  0  0  0  0  0  0  0
  148.5506  142.3433  155.7156 O   0  0  0  0  0  0  0  0  0  0  0  0
  149.5056  140.3020  154.8498 C   0  0  0  0  0  0  0  0  0  0  0  0
  150.3536  140.5084  153.7381 O   0  0  0  0  0  0  0  0  0  0  0  0
  150.6293  135.8643  156.4428 H   0  0  0  0  0  0  0  0  0  0  0  0
  154.5168  136.4029  159.0141 H   0  0  0  0  0  0  0  0  0  0  0  0
  154.9408  138.0800  158.7143 H   0  0  0  0  0  0  0  0  0  0  0  0
  155.1500  136.8890  157.4372 H   0  0  0  0  0  0  0  0  0  0  0  0
  152.4681  143.8233  157.3372 H   0  0  0  0  0  0  0  0  0  0  0  0
  151.0184  142.9281  157.0127 H   0  0  0  0  0  0  0  0  0  0  0  0
  150.4841  145.0498  158.2174 H   0  0  0  0  0  0  0  0  0  0  0  0
  150.0458  143.6792  159.2086 H   0  0  0  0  0  0  0  0  0  0  0  0
  152.5693  145.3806  159.4647 H   0  0  0  0  0  0  0  0  0  0  0  0
  151.2556  145.2927  160.6179 H   0  0  0  0  0  0  0  0  0  0  0  0
  153.2522  143.8869  161.2882 H   0  0  0  0  0  0  0  0  0  0  0  0
  151.7873  142.9456  161.1354 H   0  0  0  0  0  0  0  0  0  0  0  0
  153.6639  141.7731  160.0318 H   0  0  0  0  0  0  0  0  0  0  0  0
  153.9998  143.1586  159.0200 H   0  0  0  0  0  0  0  0  0  0  0  0
  148.9081  140.2848  157.5688 H   0  0  0  0  0  0  0  0  0  0  0  0
  149.6076  141.7806  158.0351 H   0  0  0  0  0  0  0  0  0  0  0  0
  150.5292  142.0010  155.6394 H   0  0  0  0  0  0  0  0  0  0  0  0
  148.8999  143.1815  155.4547 H   0  0  0  0  0  0  0  0  0  0  0  0
  149.7355  139.3393  155.3077 H   0  0  0  0  0  0  0  0  0  0  0  0
  148.4804  140.2401  154.4838 H   0  0  0  0  0  0  0  0  0  0  0  0
  149.9084  140.2079  152.9605 H   0  0  0  0  0  0  0  0  0  0  0  0
  1  2  1  0  0  0  0
  1 25  1  0  0  0  0
  1 26  1  0  0  0  0
  1 27  1  0  0  0  0
  2  9  1  0  0  0  0
  2  3  1  0  0  0  0
  3  4  2  0  0  0  0
  3  5  1  0  0  0  0
  5 24  1  0  0  0  0
  5  6  1  0  0  0  0
  6  7  2  0  0  0  0
  6  8  1  0  0  0  0
  8 18  1  0  0  0  0
  8  9  2  0  0  0  0
  9 10  1  0  0  0  0
 10 11  2  0  0  0  0
 11 12  1  0  0  0  0
 11 18  1  0  0  0  0
 12 17  1  0  0  0  0
 12 13  1  0  0  0  0
 13 14  1  0  0  0  0
 13 28  1  0  0  0  0
 13 29  1  0  0  0  0
 14 15  1  0  0  0  0
 14 30  1  0  0  0  0
 14 31  1  0  0  0  0
 15 16  1  0  0  0  0
 15 32  1  0  0  0  0
 15 33  1  0  0  0  0
 16 17  1  0  0  0  0
 16 34  1  0  0  0  0
 16 35  1  0  0  0  0
 17 36  1  0  0  0  0
 17 37  1  0  0  0  0
 18 19  1  0  0  0  0
 19 20  1  0  0  0  0
 19 38  1  0  0  0  0
 19 39  1  0  0  0  0
 20 21  1  0  0  0  0
 20 22  1  0  0  0  0
 20 40  1  0  0  0  0
 21 41  1  0  0  0  0
 22 23  1  0  0  0  0
 22 42  1  0  0  0  0
 22 43  1  0  0  0  0
 23 44  1  0  0  0  0
M  END
> <s_m_source_file>
AV-unprocessed.smi

> <i_m_source_file_index>
2559

> <i_lp_mmshare_version>
43012

> <i_f3d_flags>
0

> <s_epik_input>
Tz1jMVtuSF1jKD1PKW4oW0NIM10pYyhjMTIpbmMobjJbQ0gyXVtDQEhdKFtPSF0pW0NIMl1bT0hdKU4zW0NIMl1bQ0gyXVtDSDJdW0NIMl1bQ0gyXTM=

> <s_epik_cmdline>
J2VwaWtfcHl0aG9uJywgJy1waCcsICc3LjAnLCAnLXRuJywgJzgnLCAnLW1hJywgJzIwMCcsICctbWV0YWxfYmluZGluZycsICctaW1hZScsICc8aW5maWxlLm1hZT4nLCAnLW9tYWUnLCAnPG91dGZpbGUubWFlPic=

> <r_lp_tautomer_probability>
1

> <r_epik_Ionization_Penalty>
0.0023969

> <r_epik_Ionization_Penalty_Charging>
9.35512e-05

> <r_epik_Ionization_Penalty_Neutral>
0.00230335

> <r_epik_State_Penalty>
-0

> <r_epik_Charging_Adjusted_Penalty>
9.35512e-05

> <i_epik_Tot_Q>
0

> <i_epik_Tot_abs_Q>
0

> <r_epik_Metal_State_Penalty>
0.0757518

> <b_epik_Metal_Only>
0

> <s_lp_Force_Field>
OPLS_2005

> <r_lp_Energy>
44.2112

> <b_lp_Chiralities_Consistent>
1

> <s_lp_Variant>
AV-unprocessed.smi:2559-1

> <Gold.Version>
5.8.1

> <Gold.Id.Protein>
6NUR|6NUR_protein|mol2

> <Gold.PLP.Fitness>
48.8091

> <Gold.PLP.PLP>
-37.5560

> <Gold.PLP.part.hbond>
-4.6717

> <Gold.PLP.part.metal>
0.0000

> <Gold.PLP.part.buried>
-5.8107

> <Gold.PLP.part.nonpolar>
-26.1247

> <Gold.PLP.part.repulsive>
0.1064

> <Gold.PLP.ligand.clash>
0.0000

> <Gold.PLP.ligand.torsion>
1.3620

> <Gold.PLP.Chemscore.Hbond>
4.4840

> <Gold.PLP.Chemscore.CHOScore>
0.0000

> <Gold.PLP.Chemscore.Metal>
0.0000

> <Gold.Chemscore.Hbonds>
donor molecule, donor type, donor heavy atom, donor atom, acceptor molecule, acceptor atom, score
      L1  H    21    41       P1  8028  0.94
      L1  H    23    44       P1  7957  1.00
      P1  H  7989  7998       L1    23  0.35
      P1  H  7997  8010       L1    10  0.85
      P1  H 10752 10763       L1     4  0.85

> <Gold.PLP.Chemscore.Internal.Correction>
0.5250

> <Gold.Rescore>
     Score         DG    S(hbond)    S(metal)    S(lipo)     H(rot)  DE(clash)    DE(int)     intcor
     16.24     -17.76       3.19        0.00      78.99       2.97       0.07       1.45       ----

> <Gold.Chemscore.Fitness>
16.2439

> <Gold.Chemscore.DG>
-17.7627

> <Gold.Chemscore.ZeroCoef>
-5.4800

> <Gold.Chemscore.Hbond>
3.1859

> <Gold.Chemscore.Metal>
0.0000

> <Gold.Chemscore.Lipo>
78.9853

> <Gold.Chemscore.Internal_Hbond>
0.0000

> <Gold.Chemscore.DEClash>
0.0719

> <Gold.Chemscore.DEInternal>
1.4469

> <Gold.Chemscore.Rot>
2.9685

> <Gold.Chemscore.Internal.Correction>
   9.000000E+99

> <Gold.Chemscore.Hbonds>
donor molecule, donor type, donor heavy atom, donor atom, acceptor molecule, acceptor atom, score
      L1  H    21    41       P1  8028  0.86
      L1  H    23    44       P1  7957  0.98
      P1  H  7989  7998       L1    23  0.27
      P1  H  7997  8010       L1    10  0.12
      P1  H 10752 10763       L1     4  0.14

> <Gold.Chemscore.Hbond.Weighted>
-10.6408

> <Gold.Chemscore.Metal.Weighted>
-0.0000

> <Gold.Chemscore.Lipo.Weighted>
-9.2413

> <Gold.Chemscore.Internal_Hbond.Weighted>
0.0000

> <Gold.Chemscore.DEClash.Weighted>
0.0719

> <Gold.Chemscore.DEInternal.Weighted>
1.4469

> <Gold.Chemscore.Rot.Weighted>
7.5994

> <Gold.Chemscore.Internal.Correction.Weighted>
   9.000000E+99

> <Gold.Protein.RotatedTorsions>
[ 6907 6896 6895 6894 ] final  -49.79 input  -60.11 | X-H torsion
[ 7974 7965 7964 7962 ] final  -60.80 input  175.53 | X-H torsion
[ 8008 7997 7996 7995 ] final   31.60 input   59.86 | X-H torsion
[ 10167 10162 10161 10158 ] final -176.96 input  -65.29 | X-H torsion
[ 10718 10713 10712 10709 ] final   90.70 input   66.30 | X-H torsion
[ 10763 10752 10751 10750 ] final  110.57 input  -60.55 | X-H torsion
[ 11005 11000 10999 10996 ] final  -49.59 input  -57.11 | X-H torsion

> <Gold.Protein.ActiveResidues>
 VAL166  LYS551  ARG553  GLY616  TRP617  ASP618  TYR619  PRO620  LYS621  CYS622 
 ASP623  PHE694  ASN695  SER759  ASP760  ASP761  ALA762  ILE779  LEU786  VAL792 
 PHE793  MET794  SER795  GLU796  ALA797  LYS798  CYS799  TRP800  GLU811  SER814 

> <Gold.Protein.RotatedAtoms>
  150.8770  134.8155  159.7196 H   0  0  0  0  0  0  0  0  0  0  0  0  # atno 6907 bound_to 6896
  152.4753  134.4856  159.9689 H   0  0  0  0  0  0  0  0  0  0  0  0  # atno 6908 bound_to 6896
  151.4936  133.3481  159.2893 H   0  0  0  0  0  0  0  0  0  0  0  0  # atno 6909 bound_to 6896
  145.8112  140.8597  143.0181 H   0  0  0  0  0  0  0  0  0  0  0  0  # atno 7974 bound_to 7965
  155.1090  140.3237  155.4526 H   0  0  0  0  0  0  0  0  0  0  0  0  # atno 8008 bound_to 7997
  156.2696  140.2047  156.6162 H   0  0  0  0  0  0  0  0  0  0  0  0  # atno 8009 bound_to 7997
  154.6770  140.0530  157.0213 H   0  0  0  0  0  0  0  0  0  0  0  0  # atno 8010 bound_to 7997
  139.5503  144.2126  152.1065 H   0  0  0  0  0  0  0  0  0  0  0  0  # atno 10167 bound_to 10162
  157.6959  131.0380  150.3618 H   0  0  0  0  0  0  0  0  0  0  0  0  # atno 10718 bound_to 10713
  153.4508  135.3744  155.2283 H   0  0  0  0  0  0  0  0  0  0  0  0  # atno 10763 bound_to 10752
  154.8756  135.3885  154.4040 H   0  0  0  0  0  0  0  0  0  0  0  0  # atno 10764 bound_to 10752
  153.4599  135.7086  153.6120 H   0  0  0  0  0  0  0  0  0  0  0  0  # atno 10765 bound_to 10752
  141.0768  133.6664  156.3608 H   0  0  0  0  0  0  0  0  0  0  0  0  # atno 11005 bound_to 11000
  144.6757  140.0398  143.7481 LP  0  0  0  0  0  0  0  0  0  0  0  0  # atno 17320 bound_to 7965
  145.9775  139.2916  143.1062 LP  0  0  0  0  0  0  0  0  0  0  0  0  # atno 17321 bound_to 7965
  140.1620  144.5017  150.6627 LP  0  0  0  0  0  0  0  0  0  0  0  0  # atno 17342 bound_to 10162
  140.6764  143.2307  151.5496 LP  0  0  0  0  0  0  0  0  0  0  0  0  # atno 17343 bound_to 10162
  156.4053  130.3923  149.6930 LP  0  0  0  0  0  0  0  0  0  0  0  0  # atno 17370 bound_to 10713
  156.4233  130.7779  151.2797 LP  0  0  0  0  0  0  0  0  0  0  0  0  # atno 17371 bound_to 10713
  140.5556  134.5985  157.5420 LP  0  0  0  0  0  0  0  0  0  0  0  0  # atno 17394 bound_to 11000
  139.9580  134.7501  156.0298 LP  0  0  0  0  0  0  0  0  0  0  0  0  # atno 17395 bound_to 11000

$$$$
