AV-unprocessed.smi:3234|AV-procd|sdf|12354|dock8
  -GOLD-   2272018213D 1   1.00000     0.00000
 Structure written by MMmdl.
 38 40  0  0  0  0  0  0  0  0  3 V2000
  145.0611  138.3951  153.1603 O   0  0  0  0  0  0  0  0  0  0  0  0
  146.0550  137.8627  152.6673 C   0  0  0  0  0  0  0  0  0  0  0  0
  147.3131  138.3279  152.7611 N   0  0  0  0  0  0  0  0  0  0  0  0
  147.7731  139.5106  153.4033 C   0  0  0  0  0  0  0  0  0  0  0  0
  146.9317  140.6449  153.3658 C   0  0  0  0  0  0  0  0  0  0  0  0
  147.3393  141.8353  154.0020 C   0  0  0  0  0  0  0  0  0  0  0  0
  148.5227  141.8798  154.6504 N   0  3  0  0  0  0  0  0  0  0  0  0
  149.3539  140.8183  154.7262 C   0  0  0  0  0  0  0  0  0  0  0  0
  149.0005  139.6011  154.1086 C   0  0  0  0  0  0  0  0  0  0  0  0
  146.0075  136.7143  151.9766 N   0  0  0  0  0  0  0  0  0  0  0  0
  144.7882  135.9554  151.7150 C   0  0  2  0  0  0  0  0  0  0  0  0
  144.4216  134.9490  152.8093 C   0  0  0  0  0  0  0  0  0  0  0  0
  143.6794  133.8240  152.0670 C   0  0  0  0  0  0  0  0  0  0  0  0
  143.8227  134.0979  150.6179 N   0  3  2  0  0  0  0  0  0  0  0  0
  143.9752  132.8889  149.7809 C   0  0  0  0  0  0  0  0  0  0  0  0
  144.5018  131.6930  150.5379 C   0  0  0  0  0  0  0  0  0  0  0  0
  145.4106  132.4568  149.5992 C   0  0  0  0  0  0  0  0  0  0  0  0
  144.9215  135.0701  150.4796 C   0  0  0  0  0  0  0  0  0  0  0  0
  148.0351  137.7354  152.3777 H   0  0  0  0  0  0  0  0  0  0  0  0
  145.9831  140.6099  152.8494 H   0  0  0  0  0  0  0  0  0  0  0  0
  146.7576  142.7454  154.0130 H   0  0  0  0  0  0  0  0  0  0  0  0
  150.2687  140.9708  155.2800 H   0  0  0  0  0  0  0  0  0  0  0  0
  149.6712  138.7604  154.1990 H   0  0  0  0  0  0  0  0  0  0  0  0
  146.8699  136.3402  151.6080 H   0  0  0  0  0  0  0  0  0  0  0  0
  143.9530  136.6421  151.5615 H   0  0  0  0  0  0  0  0  0  0  0  0
  145.3225  134.5452  153.2741 H   0  0  0  0  0  0  0  0  0  0  0  0
  143.8165  135.3991  153.5969 H   0  0  0  0  0  0  0  0  0  0  0  0
  144.1056  132.8551  152.3318 H   0  0  0  0  0  0  0  0  0  0  0  0
  142.6208  133.8016  152.3269 H   0  0  0  0  0  0  0  0  0  0  0  0
  143.2536  132.7602  148.9760 H   0  0  0  0  0  0  0  0  0  0  0  0
  144.6818  131.7968  151.6065 H   0  0  0  0  0  0  0  0  0  0  0  0
  144.1681  130.7083  150.2165 H   0  0  0  0  0  0  0  0  0  0  0  0
  145.6752  131.9743  148.6605 H   0  0  0  0  0  0  0  0  0  0  0  0
  146.1939  133.0680  150.0444 H   0  0  0  0  0  0  0  0  0  0  0  0
  144.8435  135.6331  149.5489 H   0  0  0  0  0  0  0  0  0  0  0  0
  145.8795  134.5462  150.4840 H   0  0  0  0  0  0  0  0  0  0  0  0
  142.9792  134.5725  150.3287 H   0  0  0  0  0  0  0  0  0  0  0  0
  148.7985  142.7503  155.1061 H   0  0  0  0  0  0  0  0  0  0  0  0
  1  2  2  0  0  0  0
  2  3  1  0  0  0  0
  2 10  1  0  0  0  0
  3  4  1  0  0  0  0
  3 19  1  0  0  0  0
  4  9  1  0  0  0  0
  4  5  2  0  0  0  0
  5  6  1  0  0  0  0
  5 20  1  0  0  0  0
  6  7  2  0  0  0  0
  6 21  1  0  0  0  0
  7  8  1  0  0  0  0
  7 38  1  0  0  0  0
  8  9  2  0  0  0  0
  8 22  1  0  0  0  0
  9 23  1  0  0  0  0
 10 11  1  0  0  0  0
 10 24  1  0  0  0  0
 11 18  1  0  0  0  0
 11 12  1  0  0  0  0
 11 25  1  0  0  0  0
 12 13  1  0  0  0  0
 12 26  1  0  0  0  0
 12 27  1  0  0  0  0
 13 14  1  0  0  0  0
 13 28  1  0  0  0  0
 13 29  1  0  0  0  0
 14 15  1  0  0  0  0
 14 18  1  0  0  0  0
 14 37  1  0  0  0  0
 15 17  1  0  0  0  0
 15 16  1  0  0  0  0
 15 30  1  0  0  0  0
 16 17  1  0  0  0  0
 16 31  1  0  0  0  0
 16 32  1  0  0  0  0
 17 33  1  0  0  0  0
 17 34  1  0  0  0  0
 18 35  1  0  0  0  0
 18 36  1  0  0  0  0
M  CHG  1   7   1
M  CHG  1  14   1
M  END
> <s_m_source_file>
AV-unprocessed.smi

> <i_m_source_file_index>
3234

> <i_lp_mmshare_version>
43012

> <i_f3d_flags>
0

> <s_epik_input>
W2NIXTFbY0hdbltjSF1bY0hdYzFbTkhdQyg9TylbTkhdW0NAQEhdMltDSDJdW0NIMl1OKFtDSDJdMilbQ0hdM1tDSDJdW0NIMl0z

> <s_epik_cmdline>
J2VwaWtfcHl0aG9uJywgJy1waCcsICc3LjAnLCAnLXRuJywgJzgnLCAnLW1hJywgJzIwMCcsICctbWV0YWxfYmluZGluZycsICctaW1hZScsICc8aW5maWxlLm1hZT4nLCAnLW9tYWUnLCAnPG91dGZpbGUubWFlPic=

> <r_epik_Ionization_Penalty>
1.14489

> <r_epik_Ionization_Penalty_Charging>
1.14487

> <r_epik_Ionization_Penalty_Neutral>
1.95212e-05

> <r_epik_State_Penalty>
1.205

> <r_epik_Charging_Adjusted_Penalty>
2.34987

> <i_epik_Tot_Q>
2

> <i_epik_Tot_abs_Q>
2

> <r_epik_Metal_State_Penalty>
1.28709

> <b_epik_Metal_Only>
0

> <s_lp_Force_Field>
OPLS_2005

> <r_lp_Energy>
48.7284

> <b_lp_Chiralities_Consistent>
1

> <s_lp_Variant>
AV-unprocessed.smi:3234-7

> <Gold.Version>
5.8.1

> <Gold.Id.Protein>
6NUR|6NUR_protein|mol2

> <Gold.PLP.Fitness>
46.9816

> <Gold.PLP.PLP>
-32.4798

> <Gold.PLP.part.hbond>
-4.2647

> <Gold.PLP.part.metal>
0.0000

> <Gold.PLP.part.buried>
-2.2799

> <Gold.PLP.part.nonpolar>
-30.9657

> <Gold.PLP.part.repulsive>
4.0175

> <Gold.PLP.ligand.clash>
0.0432

> <Gold.PLP.ligand.torsion>
1.4791

> <Gold.PLP.Chemscore.Hbond>
5.4133

> <Gold.PLP.Chemscore.CHOScore>
0.0000

> <Gold.PLP.Chemscore.Metal>
0.0000

> <Gold.Chemscore.Hbonds>
donor molecule, donor type, donor heavy atom, donor atom, acceptor molecule, acceptor atom, score
      L1  H     3    19       P1  7948  1.00
      L1  H     7    38       P1  8028  1.98
      L1  H    10    24       P1  7948  0.84
      L1  H    14    37       P1 10186  1.52

> <Gold.PLP.Chemscore.Internal.Correction>
1.2632

> <Gold.Rescore>
     Score         DG    S(hbond)    S(metal)    S(lipo)     H(rot)  DE(clash)    DE(int)     intcor
     18.90     -23.22       3.26        0.00      85.37       1.22       1.66       2.65       ----

> <Gold.Chemscore.Fitness>
18.9025

> <Gold.Chemscore.DG>
-23.2154

> <Gold.Chemscore.ZeroCoef>
-5.4800

> <Gold.Chemscore.Hbond>
3.2583

> <Gold.Chemscore.Metal>
0.0000

> <Gold.Chemscore.Lipo>
85.3690

> <Gold.Chemscore.Internal_Hbond>
0.0000

> <Gold.Chemscore.DEClash>
1.6605

> <Gold.Chemscore.DEInternal>
2.6524

> <Gold.Chemscore.Rot>
1.2248

> <Gold.Chemscore.Internal.Correction>
   9.000000E+99

> <Gold.Chemscore.Hbonds>
donor molecule, donor type, donor heavy atom, donor atom, acceptor molecule, acceptor atom, score
      L1  H     3    19       P1  7948  1.00
      L1  H     7    38       P1  8028  0.92
      L1  H    10    24       P1  7948  0.79
      L1  H    14    37       P1 10186  0.44

> <Gold.Chemscore.Hbond.Weighted>
-10.8827

> <Gold.Chemscore.Metal.Weighted>
-0.0000

> <Gold.Chemscore.Lipo.Weighted>
-9.9882

> <Gold.Chemscore.Internal_Hbond.Weighted>
0.0000

> <Gold.Chemscore.DEClash.Weighted>
1.6605

> <Gold.Chemscore.DEInternal.Weighted>
2.6524

> <Gold.Chemscore.Rot.Weighted>
3.1355

> <Gold.Chemscore.Internal.Correction.Weighted>
   9.000000E+99

> <Gold.Protein.RotatedTorsions>
[ 6907 6896 6895 6894 ] final  -28.87 input  -60.11 | X-H torsion
[ 7974 7965 7964 7962 ] final  107.17 input  175.53 | X-H torsion
[ 8008 7997 7996 7995 ] final  -14.04 input   59.86 | X-H torsion
[ 10167 10162 10161 10158 ] final   94.95 input  -65.29 | X-H torsion
[ 10718 10713 10712 10709 ] final   63.92 input   66.30 | X-H torsion
[ 10763 10752 10751 10750 ] final  -35.87 input  -60.55 | X-H torsion
[ 11005 11000 10999 10996 ] final   32.14 input  -57.11 | X-H torsion

> <Gold.Protein.ActiveResidues>
 VAL166  LYS551  ARG553  GLY616  TRP617  ASP618  TYR619  PRO620  LYS621  CYS622 
 ASP623  PHE694  ASN695  SER759  ASP760  ASP761  ALA762  ILE779  LEU786  VAL792 
 PHE793  MET794  SER795  GLU796  ALA797  LYS798  CYS799  TRP800  GLU811  SER814 

> <Gold.Protein.RotatedAtoms>
  151.1270  135.0110  159.8564 H   0  0  0  0  0  0  0  0  0  0  0  0  # atno 6907 bound_to 6896
  152.5450  134.1655  159.8585 H   0  0  0  0  0  0  0  0  0  0  0  0  # atno 6908 bound_to 6896
  151.1718  133.4734  159.2627 H   0  0  0  0  0  0  0  0  0  0  0  0  # atno 6909 bound_to 6896
  145.2971  139.2581  143.3834 H   0  0  0  0  0  0  0  0  0  0  0  0  # atno 7974 bound_to 7965
  154.5243  140.2233  155.8919 H   0  0  0  0  0  0  0  0  0  0  0  0  # atno 8008 bound_to 7997
  156.1696  140.3124  155.8914 H   0  0  0  0  0  0  0  0  0  0  0  0  # atno 8009 bound_to 7997
  155.3585  140.0460  157.3037 H   0  0  0  0  0  0  0  0  0  0  0  0  # atno 8010 bound_to 7997
  139.8035  144.6804  150.9734 H   0  0  0  0  0  0  0  0  0  0  0  0  # atno 10167 bound_to 10162
  157.6004  130.9132  149.9778 H   0  0  0  0  0  0  0  0  0  0  0  0  # atno 10718 bound_to 10713
  153.8704  135.6831  153.4775 H   0  0  0  0  0  0  0  0  0  0  0  0  # atno 10763 bound_to 10752
  153.1290  135.4706  154.9317 H   0  0  0  0  0  0  0  0  0  0  0  0  # atno 10764 bound_to 10752
  154.7717  135.3240  154.8127 H   0  0  0  0  0  0  0  0  0  0  0  0  # atno 10765 bound_to 10752
  140.2766  134.3021  155.7812 H   0  0  0  0  0  0  0  0  0  0  0  0  # atno 11005 bound_to 11000
  146.3165  140.3476  142.8653 LP  0  0  0  0  0  0  0  0  0  0  0  0  # atno 17320 bound_to 7965
  144.9124  140.7773  143.5799 LP  0  0  0  0  0  0  0  0  0  0  0  0  # atno 17321 bound_to 7965
  140.7820  143.4257  151.0771 LP  0  0  0  0  0  0  0  0  0  0  0  0  # atno 17342 bound_to 10162
  139.7928  143.8194  152.3154 LP  0  0  0  0  0  0  0  0  0  0  0  0  # atno 17343 bound_to 10162
  156.1076  130.3652  150.0105 LP  0  0  0  0  0  0  0  0  0  0  0  0  # atno 17370 bound_to 10713
  156.8209  130.9358  151.3641 LP  0  0  0  0  0  0  0  0  0  0  0  0  # atno 17371 bound_to 10713
  141.2169  133.7499  156.9416 LP  0  0  0  0  0  0  0  0  0  0  0  0  # atno 17394 bound_to 11000
  140.1323  134.9348  157.2353 LP  0  0  0  0  0  0  0  0  0  0  0  0  # atno 17395 bound_to 11000

$$$$
