AV-unprocessed.smi:623|AV-procd|sdf|3094|dock2
  -GOLD-   22720 0 13D 1   1.00000     0.00000
 Structure written by MMmdl.
 45 47  0  0  0  0  0  0  0  0  1 V2000
  151.5807  140.3069  155.9345 C   0  0  0  0  0  0  0  0  0  0  0  0
  150.3686  139.3415  156.0630 C   0  0  0  0  0  0  0  0  0  0  0  0
  150.6239  138.5286  157.3631 C   0  0  0  0  0  0  0  0  0  0  0  0
  148.9987  140.0469  156.0108 C   0  0  1  0  0  0  0  0  0  0  0  0
  148.9494  140.6472  154.5870 C   0  0  0  0  0  0  0  0  0  0  0  0
  149.7056  139.5949  153.7521 C   0  0  0  0  0  0  0  0  0  0  0  0
  150.0331  138.4978  154.8028 C   0  0  1  0  0  0  0  0  0  0  0  0
  151.1343  137.5296  154.3364 C   0  0  0  0  0  0  0  0  0  0  0  0
  148.6987  137.7888  155.2062 C   0  0  2  0  0  0  0  0  0  0  0  0
  147.8689  137.3826  154.0734 N   0  0  0  0  0  0  0  0  0  0  0  0
  146.5941  136.9726  154.1460 C   0  0  0  0  0  0  0  0  0  0  0  0
  145.9429  136.9506  155.1902 O   0  0  0  0  0  0  0  0  0  0  0  0
  145.9641  136.4968  152.8344 C   0  0  0  0  0  0  0  0  0  0  0  0
  144.6367  135.9142  153.0719 N   0  0  0  0  0  0  0  0  0  0  0  0
  143.4954  136.6165  152.7107 C   0  0  0  0  0  0  0  0  0  0  0  0
  142.2400  136.1371  152.8752 C   0  0  0  0  0  0  0  0  0  0  0  0
  142.0243  134.8178  153.4590 C   0  0  0  0  0  0  0  0  0  0  0  0
  140.9275  134.2977  153.6509 O   0  0  0  0  0  0  0  0  0  0  0  0
  143.1960  134.1409  153.8066 N   0  0  0  0  0  0  0  0  0  0  0  0
  144.4931  134.6282  153.6376 C   0  0  0  0  0  0  0  0  0  0  0  0
  145.4580  133.9437  153.9749 O   0  0  0  0  0  0  0  0  0  0  0  0
  147.9894  138.8790  156.0418 C   0  0  0  0  0  0  0  0  0  0  0  0
  143.0965  133.2216  154.2122 H   0  0  0  0  0  0  0  0  0  0  0  0
  151.6564  140.9435  156.8166 H   0  0  0  0  0  0  0  0  0  0  0  0
  151.5508  140.9767  155.0783 H   0  0  0  0  0  0  0  0  0  0  0  0
  152.5152  139.7500  155.8622 H   0  0  0  0  0  0  0  0  0  0  0  0
  149.8638  137.7895  157.6052 H   0  0  0  0  0  0  0  0  0  0  0  0
  150.6911  139.1936  158.2245 H   0  0  0  0  0  0  0  0  0  0  0  0
  151.5693  137.9888  157.3016 H   0  0  0  0  0  0  0  0  0  0  0  0
  148.8293  140.7836  156.7965 H   0  0  0  0  0  0  0  0  0  0  0  0
  147.9275  140.7926  154.2350 H   0  0  0  0  0  0  0  0  0  0  0  0
  149.4441  141.6177  154.5411 H   0  0  0  0  0  0  0  0  0  0  0  0
  149.1213  139.2387  152.9041 H   0  0  0  0  0  0  0  0  0  0  0  0
  150.6139  140.0191  153.3241 H   0  0  0  0  0  0  0  0  0  0  0  0
  150.8447  137.0195  153.4176 H   0  0  0  0  0  0  0  0  0  0  0  0
  151.3366  136.7661  155.0877 H   0  0  0  0  0  0  0  0  0  0  0  0
  152.0681  138.0543  154.1354 H   0  0  0  0  0  0  0  0  0  0  0  0
  148.8936  136.9175  155.8334 H   0  0  0  0  0  0  0  0  0  0  0  0
  148.3171  137.3680  153.1690 H   0  0  0  0  0  0  0  0  0  0  0  0
  145.9066  137.3312  152.1326 H   0  0  0  0  0  0  0  0  0  0  0  0
  146.6214  135.7684  152.3562 H   0  0  0  0  0  0  0  0  0  0  0  0
  143.6076  137.5965  152.2687 H   0  0  0  0  0  0  0  0  0  0  0  0
  141.3907  136.7323  152.5723 H   0  0  0  0  0  0  0  0  0  0  0  0
  147.8084  138.5370  157.0611 H   0  0  0  0  0  0  0  0  0  0  0  0
  147.0195  139.1688  155.6347 H   0  0  0  0  0  0  0  0  0  0  0  0
  1  2  1  0  0  0  0
  1 24  1  0  0  0  0
  1 25  1  0  0  0  0
  1 26  1  0  0  0  0
  2  7  1  0  0  0  0
  2  3  1  0  0  0  0
  2  4  1  0  0  0  0
  3 27  1  0  0  0  0
  3 28  1  0  0  0  0
  3 29  1  0  0  0  0
  4 22  1  0  0  0  0
  4  5  1  0  0  0  0
  4 30  1  0  0  0  0
  5  6  1  0  0  0  0
  5 31  1  0  0  0  0
  5 32  1  0  0  0  0
  6  7  1  0  0  0  0
  6 33  1  0  0  0  0
  6 34  1  0  0  0  0
  7  8  1  0  0  0  0
  7  9  1  0  0  0  0
  8 35  1  0  0  0  0
  8 36  1  0  0  0  0
  8 37  1  0  0  0  0
  9 10  1  0  0  0  0
  9 22  1  0  0  0  0
  9 38  1  0  0  0  0
 10 11  1  0  0  0  0
 10 39  1  0  0  0  0
 11 12  2  0  0  0  0
 11 13  1  0  0  0  0
 13 14  1  0  0  0  0
 13 40  1  0  0  0  0
 13 41  1  0  0  0  0
 14 20  1  0  0  0  0
 14 15  1  0  0  0  0
 15 16  2  0  0  0  0
 15 42  1  0  0  0  0
 16 17  1  0  0  0  0
 16 43  1  0  0  0  0
 17 18  2  0  0  0  0
 17 19  1  0  0  0  0
 19 23  1  0  0  0  0
 19 20  1  0  0  0  0
 20 21  2  0  0  0  0
 22 44  1  0  0  0  0
 22 45  1  0  0  0  0
M  END
> <s_m_source_file>
AV-unprocessed.smi

> <i_m_source_file_index>
623

> <i_lp_mmshare_version>
43012

> <i_f3d_flags>
0

> <s_epik_input>
W0NIM11bQ0BdMTJDKFtDSDNdKShbQ0gzXSlbQ0BIXShbQ0gyXVtDSDJdMSlbQ0gyXVtDQEBIXTJbTkhdQyg9TylbQ0gyXW4zW2NIXVtjSF1jKD1PKVtuSF1jMz1P

> <s_epik_cmdline>
J2VwaWtfcHl0aG9uJywgJy1waCcsICc3LjAnLCAnLXRuJywgJzgnLCAnLW1hJywgJzIwMCcsICctbWV0YWxfYmluZGluZycsICctaW1hZScsICc8aW5maWxlLm1hZT4nLCAnLW9tYWUnLCAnPG91dGZpbGUubWFlPic=

> <r_lp_tautomer_probability>
0.999537

> <r_epik_Ionization_Penalty>
0.00303563

> <r_epik_Ionization_Penalty_Charging>
0.00303561

> <r_epik_Ionization_Penalty_Neutral>
2.03238e-08

> <r_epik_State_Penalty>
0.00213308

> <r_epik_Charging_Adjusted_Penalty>
0.00516869

> <i_epik_Tot_Q>
0

> <i_epik_Tot_abs_Q>
0

> <r_epik_Metal_State_Penalty>
0.361714

> <b_epik_Metal_Only>
0

> <s_lp_Force_Field>
OPLS_2005

> <r_lp_Energy>
57.3757

> <b_lp_Chiralities_Consistent>
1

> <s_lp_Variant>
AV-unprocessed.smi:623-4

> <Gold.Version>
5.8.1

> <Gold.Id.Protein>
6NUR|6NUR_protein|mol2

> <Gold.PLP.Fitness>
40.4452

> <Gold.PLP.PLP>
-26.1143

> <Gold.PLP.part.hbond>
-4.0000

> <Gold.PLP.part.metal>
0.0000

> <Gold.PLP.part.buried>
-0.8529

> <Gold.PLP.part.nonpolar>
-21.5703

> <Gold.PLP.part.repulsive>
0.3201

> <Gold.PLP.ligand.clash>
0.0000

> <Gold.PLP.ligand.torsion>
0.3172

> <Gold.PLP.Chemscore.Hbond>
2.9833

> <Gold.PLP.Chemscore.CHOScore>
1.9991

> <Gold.PLP.Chemscore.Metal>
0.0000

> <Gold.Chemscore.Hbonds>
donor molecule, donor type, donor heavy atom, donor atom, acceptor molecule, acceptor atom, score
      L1  H    10    39       P1  7948  0.88
      L1  H    19    23       P1 10957  1.00
      P1  H 10995 11001       L1    18  0.08
      P1  H 11000 11005       L1    18  0.71
      L1  C    15    42       P1 10171  0.70
      L1  C    15    42       P1 10175  0.23

> <Gold.PLP.Chemscore.Internal.Correction>
0.0183

> <Gold.Rescore>
     Score         DG    S(hbond)    S(metal)    S(lipo)     H(rot)  DE(clash)    DE(int)     intcor
     15.21     -18.61       2.96        0.00      64.28       1.66       1.70       1.71       ----

> <Gold.Chemscore.Fitness>
15.2056

> <Gold.Chemscore.DG>
-18.6126

> <Gold.Chemscore.ZeroCoef>
-5.4800

> <Gold.Chemscore.Hbond>
2.9561

> <Gold.Chemscore.Metal>
0.0000

> <Gold.Chemscore.Lipo>
64.2809

> <Gold.Chemscore.Internal_Hbond>
0.0000

> <Gold.Chemscore.DEClash>
1.6953

> <Gold.Chemscore.DEInternal>
1.7117

> <Gold.Chemscore.Rot>
1.6647

> <Gold.Chemscore.Internal.Correction>
   9.000000E+99

> <Gold.Chemscore.Hbonds>
donor molecule, donor type, donor heavy atom, donor atom, acceptor molecule, acceptor atom, score
      L1  H    10    39       P1  7948  0.87
      L1  H    19    23       P1 10957  0.99
      P1  H 10995 11001       L1    18  0.09
      P1  H 11000 11005       L1    18  0.62

> <Gold.Chemscore.Hbond.Weighted>
-9.8734

> <Gold.Chemscore.Metal.Weighted>
-0.0000

> <Gold.Chemscore.Lipo.Weighted>
-7.5209

> <Gold.Chemscore.Internal_Hbond.Weighted>
0.0000

> <Gold.Chemscore.DEClash.Weighted>
1.6953

> <Gold.Chemscore.DEInternal.Weighted>
1.7117

> <Gold.Chemscore.Rot.Weighted>
4.2617

> <Gold.Chemscore.Internal.Correction.Weighted>
   9.000000E+99

> <Gold.Protein.RotatedTorsions>
[ 6907 6896 6895 6894 ] final   53.67 input  -60.11 | X-H torsion
[ 7974 7965 7964 7962 ] final  143.08 input  175.53 | X-H torsion
[ 8008 7997 7996 7995 ] final  156.33 input   59.86 | X-H torsion
[ 10167 10162 10161 10158 ] final   35.00 input  -65.29 | X-H torsion
[ 10718 10713 10712 10709 ] final  -44.79 input   66.30 | X-H torsion
[ 10763 10752 10751 10750 ] final   58.42 input  -60.55 | X-H torsion
[ 11005 11000 10999 10996 ] final   29.27 input  -57.11 | X-H torsion

> <Gold.Protein.ActiveResidues>
 VAL166  LYS551  ARG553  GLY616  TRP617  ASP618  TYR619  PRO620  LYS621  CYS622 
 ASP623  PHE694  ASN695  SER759  ASP760  ASP761  ALA762  ILE779  LEU786  VAL792 
 PHE793  MET794  SER795  GLU796  ALA797  LYS798  CYS799  TRP800  GLU811  SER814 

> <Gold.Protein.RotatedAtoms>
  152.3360  134.7197  160.0276 H   0  0  0  0  0  0  0  0  0  0  0  0  # atno 6907 bound_to 6896
  151.7598  133.3327  159.3422 H   0  0  0  0  0  0  0  0  0  0  0  0  # atno 6908 bound_to 6896
  150.7451  134.6049  159.6100 H   0  0  0  0  0  0  0  0  0  0  0  0  # atno 6909 bound_to 6896
  144.8951  139.5502  143.5780 H   0  0  0  0  0  0  0  0  0  0  0  0  # atno 7974 bound_to 7965
  156.2428  140.1915  156.6939 H   0  0  0  0  0  0  0  0  0  0  0  0  # atno 8008 bound_to 7997
  154.6231  140.0606  156.9666 H   0  0  0  0  0  0  0  0  0  0  0  0  # atno 8009 bound_to 7997
  155.1830  140.3278  155.4374 H   0  0  0  0  0  0  0  0  0  0  0  0  # atno 8010 bound_to 7997
  140.4262  144.1389  150.6153 H   0  0  0  0  0  0  0  0  0  0  0  0  # atno 10167 bound_to 10162
  156.2349  130.4175  149.8829 H   0  0  0  0  0  0  0  0  0  0  0  0  # atno 10718 bound_to 10713
  152.9870  135.5607  154.5550 H   0  0  0  0  0  0  0  0  0  0  0  0  # atno 10763 bound_to 10752
  154.4979  135.2796  155.1446 H   0  0  0  0  0  0  0  0  0  0  0  0  # atno 10764 bound_to 10752
  154.2888  135.6330  153.5430 H   0  0  0  0  0  0  0  0  0  0  0  0  # atno 10765 bound_to 10752
  140.3067  134.2696  155.7742 H   0  0  0  0  0  0  0  0  0  0  0  0  # atno 11005 bound_to 11000
  146.3077  139.7636  142.9044 LP  0  0  0  0  0  0  0  0  0  0  0  0  # atno 17320 bound_to 7965
  145.3714  141.0343  143.3229 LP  0  0  0  0  0  0  0  0  0  0  0  0  # atno 17321 bound_to 7965
  140.4478  143.2499  151.9388 LP  0  0  0  0  0  0  0  0  0  0  0  0  # atno 17342 bound_to 10162
  139.4783  144.5592  151.8266 LP  0  0  0  0  0  0  0  0  0  0  0  0  # atno 17343 bound_to 10162
  156.6431  130.8713  151.3517 LP  0  0  0  0  0  0  0  0  0  0  0  0  # atno 17370 bound_to 10713
  157.7150  130.9486  150.1222 LP  0  0  0  0  0  0  0  0  0  0  0  0  # atno 17371 bound_to 10713
  141.2117  133.7681  156.9847 LP  0  0  0  0  0  0  0  0  0  0  0  0  # atno 17394 bound_to 11000
  140.1061  134.9506  157.1996 LP  0  0  0  0  0  0  0  0  0  0  0  0  # atno 17395 bound_to 11000

$$$$
