AV-unprocessed.smi:281|AV-procd|sdf|2114|dock5
  -GOLD-   2262021413D 1   1.00000     0.00000
 Structure written by MMmdl.
 55 59  0  0  0  0  0  0  0  0  1 V2000
  153.7014  138.4060  154.5697 C   0  0  0  0  0  0  0  0  0  0  0  0
  152.3697  138.9841  155.0580 C   0  0  1  0  0  0  0  0  0  0  0  0
  151.2792  137.9069  155.1675 C   0  0  0  0  0  0  0  0  0  0  0  0
  150.0700  138.4941  155.7230 N   0  0  0  0  0  0  0  0  0  0  0  0
  149.0003  137.6732  155.6894 C   0  0  0  0  0  0  0  0  0  0  0  0
  149.0864  136.5201  156.3957 N   0  0  0  0  0  0  0  0  0  0  0  0
  148.0600  135.6641  156.4022 C   0  0  0  0  0  0  0  0  0  0  0  0
  146.8829  135.7663  155.7809 N   0  0  0  0  0  0  0  0  0  0  0  0
  146.7960  136.9255  155.0668 C   0  0  0  0  0  0  0  0  0  0  0  0
  147.7986  137.9308  154.9707 C   0  0  0  0  0  0  0  0  0  0  0  0
  147.3509  138.9717  154.1663 N   0  0  0  0  0  0  0  0  0  0  0  0
  146.1527  138.6017  153.8059 C   0  0  0  0  0  0  0  0  0  0  0  0
  145.7431  137.3794  154.2909 N   0  0  0  0  0  0  0  0  0  0  0  0
  144.4666  136.7242  154.0465 C   0  0  0  0  0  0  0  0  0  0  0  0
  144.1236  136.5675  152.5445 C   0  0  1  0  0  0  0  0  0  0  0  0
  143.5001  137.7541  152.0882 O   0  0  0  0  0  0  0  0  0  0  0  0
  145.3624  136.2955  151.6878 C   0  0  0  0  0  0  0  0  0  0  0  0
  145.2083  134.8336  151.2867 C   0  0  0  0  0  0  0  0  0  0  0  0
  143.8062  134.7008  151.1384 O   0  0  0  0  0  0  0  0  0  0  0  0
  143.2068  135.3648  152.2414 C   0  0  0  0  0  0  0  0  0  0  0  0
  150.2934  139.1185  157.0198 C   0  0  0  0  0  0  0  0  0  0  0  0
  151.4285  140.1663  156.9446 C   0  0  1  0  0  0  0  0  0  0  0  0
  151.0312  141.4478  156.1987 C   0  0  0  0  0  0  0  0  0  0  0  0
  150.8776  142.4914  157.2966 C   0  0  0  0  0  0  0  0  0  0  0  0
  151.8697  142.1024  158.2277 O   0  0  0  0  0  0  0  0  0  0  0  0
  151.7774  140.6917  158.3586 C   0  0  2  0  0  0  0  0  0  0  0  0
  153.0577  140.1263  158.9903 C   0  0  0  0  0  0  0  0  0  0  0  0
  152.5857  139.5697  156.3430 O   0  0  0  0  0  0  0  0  0  0  0  0
  153.5944  137.9506  153.5847 H   0  0  0  0  0  0  0  0  0  0  0  0
  154.0746  137.6433  155.2535 H   0  0  0  0  0  0  0  0  0  0  0  0
  154.4595  139.1860  154.4948 H   0  0  0  0  0  0  0  0  0  0  0  0
  152.0502  139.7510  154.3515 H   0  0  0  0  0  0  0  0  0  0  0  0
  151.0688  137.4835  154.1845 H   0  0  0  0  0  0  0  0  0  0  0  0
  151.6221  137.0914  155.8056 H   0  0  0  0  0  0  0  0  0  0  0  0
  148.2022  134.7684  156.9888 H   0  0  0  0  0  0  0  0  0  0  0  0
  145.5326  139.2155  153.1689 H   0  0  0  0  0  0  0  0  0  0  0  0
  144.4856  135.7477  154.5327 H   0  0  0  0  0  0  0  0  0  0  0  0
  143.6885  137.2990  154.5503 H   0  0  0  0  0  0  0  0  0  0  0  0
  143.9131  138.0181  151.2803 H   0  0  0  0  0  0  0  0  0  0  0  0
  145.3582  136.9106  150.7862 H   0  0  0  0  0  0  0  0  0  0  0  0
  146.3023  136.4860  152.2070 H   0  0  0  0  0  0  0  0  0  0  0  0
  145.7382  134.5897  150.3656 H   0  0  0  0  0  0  0  0  0  0  0  0
  145.5615  134.1696  152.0774 H   0  0  0  0  0  0  0  0  0  0  0  0
  143.1925  134.6613  153.0740 H   0  0  0  0  0  0  0  0  0  0  0  0
  142.1741  135.6434  152.0276 H   0  0  0  0  0  0  0  0  0  0  0  0
  149.3708  139.5829  157.3714 H   0  0  0  0  0  0  0  0  0  0  0  0
  150.5596  138.3502  157.7469 H   0  0  0  0  0  0  0  0  0  0  0  0
  151.8377  141.7639  155.5360 H   0  0  0  0  0  0  0  0  0  0  0  0
  150.1302  141.3419  155.5938 H   0  0  0  0  0  0  0  0  0  0  0  0
  151.0354  143.5088  156.9378 H   0  0  0  0  0  0  0  0  0  0  0  0
  149.8906  142.4349  157.7586 H   0  0  0  0  0  0  0  0  0  0  0  0
  150.9428  140.4974  159.0350 H   0  0  0  0  0  0  0  0  0  0  0  0
  153.0064  139.0404  159.0719 H   0  0  0  0  0  0  0  0  0  0  0  0
  153.2043  140.5285  159.9928 H   0  0  0  0  0  0  0  0  0  0  0  0
  153.9399  140.3798  158.4019 H   0  0  0  0  0  0  0  0  0  0  0  0
  1  2  1  0  0  0  0
  1 29  1  0  0  0  0
  1 30  1  0  0  0  0
  1 31  1  0  0  0  0
  2 28  1  0  0  0  0
  2  3  1  0  0  0  0
  2 32  1  0  0  0  0
  3  4  1  0  0  0  0
  3 33  1  0  0  0  0
  3 34  1  0  0  0  0
  4  5  1  0  0  0  0
  4 21  1  0  0  0  0
  5 10  1  0  0  0  0
  5  6  2  0  0  0  0
  6  7  1  0  0  0  0
  7  8  2  0  0  0  0
  7 35  1  0  0  0  0
  8  9  1  0  0  0  0
  9 13  1  0  0  0  0
  9 10  2  0  0  0  0
 10 11  1  0  0  0  0
 11 12  2  0  0  0  0
 12 13  1  0  0  0  0
 12 36  1  0  0  0  0
 13 14  1  0  0  0  0
 14 15  1  0  0  0  0
 14 37  1  0  0  0  0
 14 38  1  0  0  0  0
 15 20  1  0  0  0  0
 15 16  1  0  0  0  0
 15 17  1  0  0  0  0
 16 39  1  0  0  0  0
 17 18  1  0  0  0  0
 17 40  1  0  0  0  0
 17 41  1  0  0  0  0
 18 19  1  0  0  0  0
 18 42  1  0  0  0  0
 18 43  1  0  0  0  0
 19 20  1  0  0  0  0
 20 44  1  0  0  0  0
 20 45  1  0  0  0  0
 21 22  1  0  0  0  0
 21 46  1  0  0  0  0
 21 47  1  0  0  0  0
 22 26  1  0  0  0  0
 22 23  1  0  0  0  0
 22 28  1  0  0  0  0
 23 24  1  0  0  0  0
 23 48  1  0  0  0  0
 23 49  1  0  0  0  0
 24 25  1  0  0  0  0
 24 50  1  0  0  0  0
 24 51  1  0  0  0  0
 25 26  1  0  0  0  0
 26 27  1  0  0  0  0
 26 52  1  0  0  0  0
 27 53  1  0  0  0  0
 27 54  1  0  0  0  0
 27 55  1  0  0  0  0
M  END
> <s_m_source_file>
AV-unprocessed.smi

> <i_m_source_file_index>
281

> <i_lp_mmshare_version>
43012

> <i_f3d_flags>
0

> <s_epik_input>
W0NIM11bQ0BASF0xT1tDSDJdW0NIMl1bQ0BAXTEyW0NIMl1OKFtDSDJdW0NASF0oTzIpW0NIM10pYyhuW2NIXW4zKWMoYzM0KW5bY0hdbjRbQ0gyXVtDQEBdNShbT0hdKVtDSDJdW0NIMl1PW0NIMl01

> <s_epik_cmdline>
J2VwaWtfcHl0aG9uJywgJy1waCcsICc3LjAnLCAnLXRuJywgJzgnLCAnLW1hJywgJzIwMCcsICctbWV0YWxfYmluZGluZycsICctaW1hZScsICc8aW5maWxlLm1hZT4nLCAnLW9tYWUnLCAnPG91dGZpbGUubWFlPic=

> <r_lp_tautomer_probability>
1

> <r_epik_Ionization_Penalty>
0.00571331

> <r_epik_Ionization_Penalty_Charging>
0

> <r_epik_Ionization_Penalty_Neutral>
0.00571331

> <r_epik_State_Penalty>
0.00399586

> <r_epik_Charging_Adjusted_Penalty>
0.00399586

> <i_epik_Tot_Q>
0

> <i_epik_Tot_abs_Q>
0

> <r_epik_Metal_State_Penalty>
-0

> <b_epik_Metal_Only>
0

> <s_lp_Force_Field>
OPLS_2005

> <r_lp_Energy>
55.7735

> <b_lp_Chiralities_Consistent>
1

> <s_lp_Variant>
AV-unprocessed.smi:281-14

> <Gold.Version>
5.8.1

> <Gold.Id.Protein>
6NUR|6NUR_protein|mol2

> <Gold.PLP.Fitness>
41.9383

> <Gold.PLP.PLP>
-33.9397

> <Gold.PLP.part.hbond>
-3.0000

> <Gold.PLP.part.metal>
0.0000

> <Gold.PLP.part.buried>
-6.2088

> <Gold.PLP.part.nonpolar>
-25.7637

> <Gold.PLP.part.repulsive>
0.4473

> <Gold.PLP.ligand.clash>
0.0000

> <Gold.PLP.ligand.torsion>
0.5639

> <Gold.PLP.Chemscore.Hbond>
2.0000

> <Gold.PLP.Chemscore.CHOScore>
1.0000

> <Gold.PLP.Chemscore.Metal>
0.0000

> <Gold.Chemscore.Hbonds>
donor molecule, donor type, donor heavy atom, donor atom, acceptor molecule, acceptor atom, score
      L1  H    16    39       P1 10171  1.00
      P1  H  7997  8008       L1    28  1.00
      L1  C    12    36       P1 10175  1.00

> <Gold.PLP.Chemscore.Internal.Correction>
0.1264

> <Gold.Rescore>
     Score         DG    S(hbond)    S(metal)    S(lipo)     H(rot)  DE(clash)    DE(int)     intcor
     15.66     -16.16       1.91        0.00      82.66       2.09       0.08       0.42       ----

> <Gold.Chemscore.Fitness>
15.6633

> <Gold.Chemscore.DG>
-16.1576

> <Gold.Chemscore.ZeroCoef>
-5.4800

> <Gold.Chemscore.Hbond>
1.9052

> <Gold.Chemscore.Metal>
0.0000

> <Gold.Chemscore.Lipo>
82.6648

> <Gold.Chemscore.Internal_Hbond>
0.0000

> <Gold.Chemscore.DEClash>
0.0763

> <Gold.Chemscore.DEInternal>
0.4181

> <Gold.Chemscore.Rot>
2.0927

> <Gold.Chemscore.Internal.Correction>
   9.000000E+99

> <Gold.Chemscore.Hbonds>
donor molecule, donor type, donor heavy atom, donor atom, acceptor molecule, acceptor atom, score
      L1  H    16    39       P1 10171  0.92
      P1  H  7997  8008       L1    28  0.55

> <Gold.Chemscore.Hbond.Weighted>
-6.3632

> <Gold.Chemscore.Metal.Weighted>
-0.0000

> <Gold.Chemscore.Lipo.Weighted>
-9.6718

> <Gold.Chemscore.Internal_Hbond.Weighted>
0.0000

> <Gold.Chemscore.DEClash.Weighted>
0.0763

> <Gold.Chemscore.DEInternal.Weighted>
0.4181

> <Gold.Chemscore.Rot.Weighted>
5.3573

> <Gold.Chemscore.Internal.Correction.Weighted>
   9.000000E+99

> <Gold.Protein.RotatedTorsions>
[ 6907 6896 6895 6894 ] final -117.92 input  -60.11 | X-H torsion
[ 7974 7965 7964 7962 ] final  165.37 input  175.53 | X-H torsion
[ 8008 7997 7996 7995 ] final  -43.27 input   59.86 | X-H torsion
[ 10167 10162 10161 10158 ] final  127.79 input  -65.29 | X-H torsion
[ 10718 10713 10712 10709 ] final  -77.60 input   66.30 | X-H torsion
[ 10763 10752 10751 10750 ] final -113.69 input  -60.55 | X-H torsion
[ 11005 11000 10999 10996 ] final   63.29 input  -57.11 | X-H torsion

> <Gold.Protein.ActiveResidues>
 VAL166  LYS551  ARG553  GLY616  TRP617  ASP618  TYR619  PRO620  LYS621  CYS622 
 ASP623  PHE694  ASN695  SER759  ASP760  ASP761  ALA762  ILE779  LEU786  VAL792 
 PHE793  MET794  SER795  GLU796  ALA797  LYS798  CYS799  TRP800  GLU811  SER814 

> <Gold.Protein.RotatedAtoms>
  150.8177  133.8308  159.3152 H   0  0  0  0  0  0  0  0  0  0  0  0  # atno 6907 bound_to 6896
  151.6076  135.1041  160.0083 H   0  0  0  0  0  0  0  0  0  0  0  0  # atno 6908 bound_to 6896
  152.4267  133.7167  159.6566 H   0  0  0  0  0  0  0  0  0  0  0  0  # atno 6909 bound_to 6896
  144.7505  139.8460  143.6367 H   0  0  0  0  0  0  0  0  0  0  0  0  # atno 7974 bound_to 7965
  154.3997  140.1452  156.3492 H   0  0  0  0  0  0  0  0  0  0  0  0  # atno 8008 bound_to 7997
  155.8285  140.3467  155.5536 H   0  0  0  0  0  0  0  0  0  0  0  0  # atno 8009 bound_to 7997
  155.8213  140.0898  157.1837 H   0  0  0  0  0  0  0  0  0  0  0  0  # atno 8010 bound_to 7997
  139.5560  144.6849  151.4181 H   0  0  0  0  0  0  0  0  0  0  0  0  # atno 10167 bound_to 10162
  156.0140  130.4495  150.3369 H   0  0  0  0  0  0  0  0  0  0  0  0  # atno 10718 bound_to 10713
  154.8407  135.4445  154.1389 H   0  0  0  0  0  0  0  0  0  0  0  0  # atno 10763 bound_to 10752
  153.2580  135.6933  153.7615 H   0  0  0  0  0  0  0  0  0  0  0  0  # atno 10764 bound_to 10752
  153.6902  135.3388  155.3176 H   0  0  0  0  0  0  0  0  0  0  0  0  # atno 10765 bound_to 10752
  140.0035  134.6406  155.9893 H   0  0  0  0  0  0  0  0  0  0  0  0  # atno 11005 bound_to 11000
  146.1449  139.4516  143.0085 LP  0  0  0  0  0  0  0  0  0  0  0  0  # atno 17320 bound_to 7965
  145.6960  141.0150  143.1529 LP  0  0  0  0  0  0  0  0  0  0  0  0  # atno 17321 bound_to 7965
  140.6833  143.8032  150.7151 LP  0  0  0  0  0  0  0  0  0  0  0  0  # atno 17342 bound_to 10162
  140.1492  143.4373  152.2143 LP  0  0  0  0  0  0  0  0  0  0  0  0  # atno 17343 bound_to 10162
  157.1465  131.0310  151.2904 LP  0  0  0  0  0  0  0  0  0  0  0  0  # atno 17370 bound_to 10713
  157.4428  130.7553  149.7083 LP  0  0  0  0  0  0  0  0  0  0  0  0  # atno 17371 bound_to 10713
  141.1659  133.6537  156.4479 LP  0  0  0  0  0  0  0  0  0  0  0  0  # atno 17394 bound_to 11000
  140.4685  134.6775  157.5118 LP  0  0  0  0  0  0  0  0  0  0  0  0  # atno 17395 bound_to 11000

$$$$
