AV-unprocessed.smi:282|AV-procd|sdf|2120|dock1
  -GOLD-   2262021423D 1   1.00000     0.00000
 Structure written by MMmdl.
 65 69  0  0  0  0  0  0  0  0  2 V2000
  150.1866  139.8961  154.4368 C   0  0  0  0  0  0  0  0  0  0  0  0
  150.4793  139.5592  155.9054 C   0  0  0  0  0  0  0  0  0  0  0  0
  151.0787  140.7323  156.7267 C   0  0  1  0  0  0  0  0  0  0  0  0
  150.5222  142.0940  156.2337 C   0  0  0  0  0  0  0  0  0  0  0  0
  150.9806  143.2391  157.0590 N   0  3  2  0  0  0  0  0  0  0  0  0
  152.3903  143.6306  156.7872 C   0  0  0  0  0  0  0  0  0  0  0  0
  152.7845  144.8836  157.5840 C   0  0  0  0  0  0  0  0  0  0  0  0
  152.5631  144.6666  159.0854 C   0  0  0  0  0  0  0  0  0  0  0  0
  151.1070  144.2560  159.3451 C   0  0  0  0  0  0  0  0  0  0  0  0
  150.6832  143.0345  158.5035 C   0  0  2  0  0  0  0  0  0  0  0  0
  151.2806  141.7067  159.0033 C   0  0  0  0  0  0  0  0  0  0  0  0
  150.8409  140.5885  158.1718 N   0  0  0  0  0  0  0  0  0  0  0  0
  151.2119  139.4010  158.7015 C   0  0  0  0  0  0  0  0  0  0  0  0
  150.2678  138.5143  159.1127 N   0  0  0  0  0  0  0  0  0  0  0  0
  150.6415  137.3512  159.6552 C   0  0  0  0  0  0  0  0  0  0  0  0
  151.8752  136.8941  159.8822 N   0  0  0  0  0  0  0  0  0  0  0  0
  152.8221  137.7889  159.4779 C   0  0  0  0  0  0  0  0  0  0  0  0
  152.5762  139.0524  158.8736 C   0  0  0  0  0  0  0  0  0  0  0  0
  153.7752  139.6893  158.5853 N   0  0  0  0  0  0  0  0  0  0  0  0
  154.6832  138.8478  158.9988 C   0  0  0  0  0  0  0  0  0  0  0  0
  154.2003  137.6894  159.5682 N   0  0  0  0  0  0  0  0  0  0  0  0
  154.9898  136.5943  160.1153 C   0  0  0  0  0  0  0  0  0  0  0  0
  155.3172  136.7161  161.6341 C   0  0  0  0  0  0  0  0  0  0  0  0
  156.3783  137.8274  161.8788 C   0  0  0  0  0  0  0  0  0  0  0  0
  157.5804  137.5838  161.1765 O   0  0  0  0  0  0  0  0  0  0  0  0
  154.0004  137.0140  162.3951 C   0  0  0  0  0  0  0  0  0  0  0  0
  154.1469  136.8832  163.9213 C   0  0  0  0  0  0  0  0  0  0  0  0
  154.6063  135.5785  164.2489 O   0  0  0  0  0  0  0  0  0  0  0  0
  155.8911  135.2965  163.7109 C   0  0  0  0  0  0  0  0  0  0  0  0
  155.8521  135.3638  162.1724 C   0  0  0  0  0  0  0  0  0  0  0  0
  149.8810  139.0020  153.8930 H   0  0  0  0  0  0  0  0  0  0  0  0
  151.0704  140.2982  153.9408 H   0  0  0  0  0  0  0  0  0  0  0  0
  149.3802  140.6222  154.3382 H   0  0  0  0  0  0  0  0  0  0  0  0
  149.5674  139.2004  156.3843 H   0  0  0  0  0  0  0  0  0  0  0  0
  151.1681  138.7142  155.8985 H   0  0  0  0  0  0  0  0  0  0  0  0
  152.1588  140.7265  156.5749 H   0  0  0  0  0  0  0  0  0  0  0  0
  150.7917  142.2796  155.1941 H   0  0  0  0  0  0  0  0  0  0  0  0
  149.4319  142.0730  156.2680 H   0  0  0  0  0  0  0  0  0  0  0  0
  153.0666  142.8110  157.0307 H   0  0  0  0  0  0  0  0  0  0  0  0
  152.5116  143.8284  155.7216 H   0  0  0  0  0  0  0  0  0  0  0  0
  153.8288  145.1327  157.3940 H   0  0  0  0  0  0  0  0  0  0  0  0
  152.1957  145.7368  157.2442 H   0  0  0  0  0  0  0  0  0  0  0  0
  153.2425  143.8977  159.4546 H   0  0  0  0  0  0  0  0  0  0  0  0
  152.7992  145.5780  159.6356 H   0  0  0  0  0  0  0  0  0  0  0  0
  150.9570  144.0538  160.4061 H   0  0  0  0  0  0  0  0  0  0  0  0
  150.4556  145.0971  159.1031 H   0  0  0  0  0  0  0  0  0  0  0  0
  149.5988  142.9488  158.5922 H   0  0  0  0  0  0  0  0  0  0  0  0
  152.3701  141.7554  159.0040 H   0  0  0  0  0  0  0  0  0  0  0  0
  150.9737  141.5340  160.0363 H   0  0  0  0  0  0  0  0  0  0  0  0
  149.8384  136.6937  159.9540 H   0  0  0  0  0  0  0  0  0  0  0  0
  155.7396  139.0562  158.9086 H   0  0  0  0  0  0  0  0  0  0  0  0
  154.4649  135.6603  159.9116 H   0  0  0  0  0  0  0  0  0  0  0  0
  155.9137  136.5399  159.5378 H   0  0  0  0  0  0  0  0  0  0  0  0
  156.0165  138.8067  161.5710 H   0  0  0  0  0  0  0  0  0  0  0  0
  156.6093  137.9160  162.9403 H   0  0  0  0  0  0  0  0  0  0  0  0
  157.6125  138.1586  160.4270 H   0  0  0  0  0  0  0  0  0  0  0  0
  153.6206  138.0042  162.1424 H   0  0  0  0  0  0  0  0  0  0  0  0
  153.2297  136.3122  162.0732 H   0  0  0  0  0  0  0  0  0  0  0  0
  154.8214  137.6377  164.3274 H   0  0  0  0  0  0  0  0  0  0  0  0
  153.1803  137.0404  164.3998 H   0  0  0  0  0  0  0  0  0  0  0  0
  156.6309  135.9817  164.1253 H   0  0  0  0  0  0  0  0  0  0  0  0
  156.1866  134.2966  164.0284 H   0  0  0  0  0  0  0  0  0  0  0  0
  155.2137  134.5545  161.8154 H   0  0  0  0  0  0  0  0  0  0  0  0
  156.8492  135.1600  161.7809 H   0  0  0  0  0  0  0  0  0  0  0  0
  150.4252  144.0311  156.7691 H   0  0  0  0  0  0  0  0  0  0  0  0
  1  2  1  0  0  0  0
  1 31  1  0  0  0  0
  1 32  1  0  0  0  0
  1 33  1  0  0  0  0
  2  3  1  0  0  0  0
  2 34  1  0  0  0  0
  2 35  1  0  0  0  0
  3 12  1  0  0  0  0
  3  4  1  0  0  0  0
  3 36  1  0  0  0  0
  4  5  1  0  0  0  0
  4 37  1  0  0  0  0
  4 38  1  0  0  0  0
  5 10  1  0  0  0  0
  5  6  1  0  0  0  0
  5 65  1  0  0  0  0
  6  7  1  0  0  0  0
  6 39  1  0  0  0  0
  6 40  1  0  0  0  0
  7  8  1  0  0  0  0
  7 41  1  0  0  0  0
  7 42  1  0  0  0  0
  8  9  1  0  0  0  0
  8 43  1  0  0  0  0
  8 44  1  0  0  0  0
  9 10  1  0  0  0  0
  9 45  1  0  0  0  0
  9 46  1  0  0  0  0
 10 11  1  0  0  0  0
 10 47  1  0  0  0  0
 11 12  1  0  0  0  0
 11 48  1  0  0  0  0
 11 49  1  0  0  0  0
 12 13  1  0  0  0  0
 13 18  1  0  0  0  0
 13 14  2  0  0  0  0
 14 15  1  0  0  0  0
 15 16  2  0  0  0  0
 15 50  1  0  0  0  0
 16 17  1  0  0  0  0
 17 21  1  0  0  0  0
 17 18  2  0  0  0  0
 18 19  1  0  0  0  0
 19 20  2  0  0  0  0
 20 21  1  0  0  0  0
 20 51  1  0  0  0  0
 21 22  1  0  0  0  0
 22 23  1  0  0  0  0
 22 52  1  0  0  0  0
 22 53  1  0  0  0  0
 23 30  1  0  0  0  0
 23 24  1  0  0  0  0
 23 26  1  0  0  0  0
 24 25  1  0  0  0  0
 24 54  1  0  0  0  0
 24 55  1  0  0  0  0
 25 56  1  0  0  0  0
 26 27  1  0  0  0  0
 26 57  1  0  0  0  0
 26 58  1  0  0  0  0
 27 28  1  0  0  0  0
 27 59  1  0  0  0  0
 27 60  1  0  0  0  0
 28 29  1  0  0  0  0
 29 30  1  0  0  0  0
 29 61  1  0  0  0  0
 29 62  1  0  0  0  0
 30 63  1  0  0  0  0
 30 64  1  0  0  0  0
M  CHG  1   5   1
M  END
> <s_m_source_file>
AV-unprocessed.smi

> <i_m_source_file_index>
282

> <i_lp_mmshare_version>
43012

> <i_f3d_flags>
0

> <s_epik_input>
W0NIMl0xW0NIMl1bQ0gyXVtDSDJdW0NAQEhdKE4xMilbQ0gyXU4oW0NAQEhdKFtDSDJdMilbQ0gyXVtDSDNdKWMobltjSF1uMyljKGMzNCluW2NIXW40W0NIMl1DNShbQ0gyXVtPSF0pW0NIMl1bQ0gyXU9bQ0gyXVtDSDJdNQ==

> <s_epik_cmdline>
J2VwaWtfcHl0aG9uJywgJy1waCcsICc3LjAnLCAnLXRuJywgJzgnLCAnLW1hJywgJzIwMCcsICctbWV0YWxfYmluZGluZycsICctaW1hZScsICc8aW5maWxlLm1hZT4nLCAnLW9tYWUnLCAnPG91dGZpbGUubWFlPic=

> <r_lp_tautomer_probability>
1

> <r_epik_Ionization_Penalty>
0.00308583

> <r_epik_Ionization_Penalty_Charging>
0.00300384

> <r_epik_Ionization_Penalty_Neutral>
8.19894e-05

> <r_epik_State_Penalty>
-0

> <r_epik_Charging_Adjusted_Penalty>
0.00300384

> <i_epik_Tot_Q>
1

> <i_epik_Tot_abs_Q>
1

> <r_epik_Metal_State_Penalty>
-0

> <b_epik_Metal_Only>
0

> <s_lp_Force_Field>
OPLS_2005

> <r_lp_Energy>
59.0592

> <b_lp_Chiralities_Consistent>
1

> <s_lp_Variant>
AV-unprocessed.smi:282-4

> <Gold.Version>
5.8.1

> <Gold.Id.Protein>
6NUR|6NUR_protein|mol2

> <Gold.PLP.Fitness>
51.8339

> <Gold.PLP.PLP>
-41.8599

> <Gold.PLP.part.hbond>
-3.4523

> <Gold.PLP.part.metal>
0.0000

> <Gold.PLP.part.buried>
-2.8882

> <Gold.PLP.part.nonpolar>
-37.0076

> <Gold.PLP.part.repulsive>
0.1049

> <Gold.PLP.ligand.clash>
0.0000

> <Gold.PLP.ligand.torsion>
0.8956

> <Gold.PLP.Chemscore.Hbond>
3.8160

> <Gold.PLP.Chemscore.CHOScore>
0.0000

> <Gold.PLP.Chemscore.Metal>
0.0000

> <Gold.Chemscore.Hbonds>
donor molecule, donor type, donor heavy atom, donor atom, acceptor molecule, acceptor atom, score
      L1  H     5    65       P1  8028  1.95
      P1  H  6896  6909       L1    16  1.00
      P1  H  7997  8009       L1    19  0.70

> <Gold.PLP.Chemscore.Internal.Correction>
0.3173

> <Gold.Rescore>
     Score         DG    S(hbond)    S(metal)    S(lipo)     H(rot)  DE(clash)    DE(int)     intcor
     16.93     -22.46       1.97        0.00     142.55       2.46       4.67       0.87       ----

> <Gold.Chemscore.Fitness>
16.9259

> <Gold.Chemscore.DG>
-22.4599

> <Gold.Chemscore.ZeroCoef>
-5.4800

> <Gold.Chemscore.Hbond>
1.9741

> <Gold.Chemscore.Metal>
0.0000

> <Gold.Chemscore.Lipo>
142.5455

> <Gold.Chemscore.Internal_Hbond>
0.0000

> <Gold.Chemscore.DEClash>
4.6668

> <Gold.Chemscore.DEInternal>
0.8672

> <Gold.Chemscore.Rot>
2.4576

> <Gold.Chemscore.Internal.Correction>
   9.000000E+99

> <Gold.Chemscore.Hbonds>
donor molecule, donor type, donor heavy atom, donor atom, acceptor molecule, acceptor atom, score
      L1  H     5    65       P1  8028  0.89
      P1  H  6896  6909       L1    16  0.78
      P1  H  7997  8009       L1    19  0.07

> <Gold.Chemscore.Hbond.Weighted>
-6.5936

> <Gold.Chemscore.Metal.Weighted>
-0.0000

> <Gold.Chemscore.Lipo.Weighted>
-16.6778

> <Gold.Chemscore.Internal_Hbond.Weighted>
0.0000

> <Gold.Chemscore.DEClash.Weighted>
4.6668

> <Gold.Chemscore.DEInternal.Weighted>
0.8672

> <Gold.Chemscore.Rot.Weighted>
6.2915

> <Gold.Chemscore.Internal.Correction.Weighted>
   9.000000E+99

> <Gold.Protein.RotatedTorsions>
[ 6907 6896 6895 6894 ] final  138.27 input  -60.11 | X-H torsion
[ 7974 7965 7964 7962 ] final  -89.47 input  175.53 | X-H torsion
[ 8008 7997 7996 7995 ] final  154.10 input   59.86 | X-H torsion
[ 10167 10162 10161 10158 ] final   89.63 input  -65.29 | X-H torsion
[ 10718 10713 10712 10709 ] final  124.00 input   66.30 | X-H torsion
[ 10763 10752 10751 10750 ] final  -67.92 input  -60.55 | X-H torsion
[ 11005 11000 10999 10996 ] final   96.20 input  -57.11 | X-H torsion

> <Gold.Protein.ActiveResidues>
 VAL166  LYS551  ARG553  GLY616  TRP617  ASP618  TYR619  PRO620  LYS621  CYS622 
 ASP623  PHE694  ASN695  SER759  ASP760  ASP761  ALA762  ILE779  LEU786  VAL792 
 PHE793  MET794  SER795  GLU796  ALA797  LYS798  CYS799  TRP800  GLU811  SER814 

> <Gold.Protein.RotatedAtoms>
  152.2685  133.5361  159.5424 H   0  0  0  0  0  0  0  0  0  0  0  0  # atno 6907 bound_to 6896
  150.7150  134.0731  159.3880 H   0  0  0  0  0  0  0  0  0  0  0  0  # atno 6908 bound_to 6896
  151.8646  135.0512  160.0524 H   0  0  0  0  0  0  0  0  0  0  0  0  # atno 6909 bound_to 6896
  145.4393  140.9558  143.2084 H   0  0  0  0  0  0  0  0  0  0  0  0  # atno 7974 bound_to 7965
  156.2548  140.1976  156.6594 H   0  0  0  0  0  0  0  0  0  0  0  0  # atno 8008 bound_to 7997
  154.6476  140.0576  156.9944 H   0  0  0  0  0  0  0  0  0  0  0  0  # atno 8009 bound_to 7997
  155.1467  140.3247  155.4443 H   0  0  0  0  0  0  0  0  0  0  0  0  # atno 8010 bound_to 7997
  139.8554  144.6572  150.9121 H   0  0  0  0  0  0  0  0  0  0  0  0  # atno 10167 bound_to 10162
  157.5620  131.1089  150.8521 H   0  0  0  0  0  0  0  0  0  0  0  0  # atno 10718 bound_to 10713
  154.3815  135.6073  153.5793 H   0  0  0  0  0  0  0  0  0  0  0  0  # atno 10763 bound_to 10752
  152.9788  135.5862  154.4404 H   0  0  0  0  0  0  0  0  0  0  0  0  # atno 10764 bound_to 10752
  154.4174  135.2845  155.1975 H   0  0  0  0  0  0  0  0  0  0  0  0  # atno 10765 bound_to 10752
  139.8783  134.8938  156.4123 H   0  0  0  0  0  0  0  0  0  0  0  0  # atno 11005 bound_to 11000
  144.8132  139.5925  143.7020 LP  0  0  0  0  0  0  0  0  0  0  0  0  # atno 17320 bound_to 7965
  146.2565  139.6313  142.9391 LP  0  0  0  0  0  0  0  0  0  0  0  0  # atno 17321 bound_to 7965
  140.7782  143.3791  151.1510 LP  0  0  0  0  0  0  0  0  0  0  0  0  # atno 17342 bound_to 10162
  139.7425  143.8902  152.3054 LP  0  0  0  0  0  0  0  0  0  0  0  0  # atno 17343 bound_to 10162
  156.9016  130.5249  149.5282 LP  0  0  0  0  0  0  0  0  0  0  0  0  # atno 17370 bound_to 10713
  156.0672  130.5712  150.9311 LP  0  0  0  0  0  0  0  0  0  0  0  0  # atno 17371 bound_to 10713
  140.9192  133.7657  155.9885 LP  0  0  0  0  0  0  0  0  0  0  0  0  # atno 17394 bound_to 11000
  140.8459  134.3011  157.5295 LP  0  0  0  0  0  0  0  0  0  0  0  0  # atno 17395 bound_to 11000

$$$$
