AV-unprocessed.smi:821|AV-procd|sdf|3841|dock4
  -GOLD-   22720 1283D 1   1.00000     0.00000
 Structure written by MMmdl.
 45 46  0  0  0  0  0  0  0  0  2 V2000
  146.9475  142.3553  154.5127 C   0  0  0  0  0  0  0  0  0  0  0  0
  147.5512  140.9467  154.5933 C   0  0  1  0  0  0  0  0  0  0  0  0
  147.3358  140.1666  153.2761 C   0  0  0  0  0  0  0  0  0  0  0  0
  146.1165  139.3192  153.2960 N   0  3  0  0  0  0  0  0  0  0  0  0
  146.1228  138.2495  152.2685 C   0  0  0  0  0  0  0  0  0  0  0  0
  144.7954  137.4745  152.3023 C   0  0  0  0  0  0  0  0  0  0  0  0
  144.5917  136.9373  153.6039 O   0  0  0  0  0  0  0  0  0  0  0  0
  144.5082  137.9544  154.5948 C   0  0  0  0  0  0  0  0  0  0  0  0
  145.8239  138.7509  154.6323 C   0  0  0  0  0  0  0  0  0  0  0  0
  148.9732  141.0572  154.9215 N   0  0  0  0  0  0  0  0  0  0  0  0
  149.4870  141.3350  156.1301 C   0  0  0  0  0  0  0  0  0  0  0  0
  148.7959  141.4882  157.1379 O   0  0  0  0  0  0  0  0  0  0  0  0
  151.0179  141.4185  156.2062 C   0  0  0  0  0  0  0  0  0  0  0  0
  151.5130  141.8356  157.5292 N   0  0  0  0  0  0  0  0  0  0  0  0
  151.0573  143.0728  158.0187 C   0  0  0  0  0  0  0  0  0  0  0  0
  151.4471  143.5462  159.2099 C   0  0  0  0  0  0  0  0  0  0  0  0
  152.3575  142.7498  159.9962 C   0  0  0  0  0  0  0  0  0  0  0  0
  152.8172  141.5580  159.5496 C   0  0  0  0  0  0  0  0  0  0  0  0
  153.7784  140.7006  160.3706 C   0  0  0  0  0  0  0  0  0  0  0  0
  154.9897  140.6907  159.8132 F   0  0  0  0  0  0  0  0  0  0  0  0
  153.9072  141.1572  161.6171 F   0  0  0  0  0  0  0  0  0  0  0  0
  153.3416  139.4424  160.4407 F   0  0  0  0  0  0  0  0  0  0  0  0
  152.3855  141.0482  158.2320 C   0  0  0  0  0  0  0  0  0  0  0  0
  152.7824  139.9737  157.7774 O   0  0  0  0  0  0  0  0  0  0  0  0
  145.8774  142.3118  154.3076 H   0  0  0  0  0  0  0  0  0  0  0  0
  147.4139  142.9447  153.7225 H   0  0  0  0  0  0  0  0  0  0  0  0
  147.0790  142.8937  155.4522 H   0  0  0  0  0  0  0  0  0  0  0  0
  147.0357  140.4312  155.4048 H   0  0  0  0  0  0  0  0  0  0  0  0
  147.2931  140.8479  152.4247 H   0  0  0  0  0  0  0  0  0  0  0  0
  148.2090  139.5333  153.1121 H   0  0  0  0  0  0  0  0  0  0  0  0
  146.2684  138.6753  151.2760 H   0  0  0  0  0  0  0  0  0  0  0  0
  146.9566  137.5695  152.4499 H   0  0  0  0  0  0  0  0  0  0  0  0
  143.9603  138.1200  152.0249 H   0  0  0  0  0  0  0  0  0  0  0  0
  144.8190  136.6568  151.5821 H   0  0  0  0  0  0  0  0  0  0  0  0
  143.6612  138.6110  154.3881 H   0  0  0  0  0  0  0  0  0  0  0  0
  144.3223  137.4900  155.5634 H   0  0  0  0  0  0  0  0  0  0  0  0
  146.6466  138.1057  154.9450 H   0  0  0  0  0  0  0  0  0  0  0  0
  145.7446  139.5522  155.3676 H   0  0  0  0  0  0  0  0  0  0  0  0
  149.6211  140.9417  154.1551 H   0  0  0  0  0  0  0  0  0  0  0  0
  151.4239  140.4430  155.9352 H   0  0  0  0  0  0  0  0  0  0  0  0
  151.3842  142.1011  155.4367 H   0  0  0  0  0  0  0  0  0  0  0  0
  150.3830  143.6091  157.3668 H   0  0  0  0  0  0  0  0  0  0  0  0
  151.0913  144.5001  159.5712 H   0  0  0  0  0  0  0  0  0  0  0  0
  152.6679  143.1272  160.9591 H   0  0  0  0  0  0  0  0  0  0  0  0
  145.3440  139.9317  153.0754 H   0  0  0  0  0  0  0  0  0  0  0  0
  1  2  1  0  0  0  0
  1 25  1  0  0  0  0
  1 26  1  0  0  0  0
  1 27  1  0  0  0  0
  2  3  1  0  0  0  0
  2 10  1  0  0  0  0
  2 28  1  0  0  0  0
  3  4  1  0  0  0  0
  3 29  1  0  0  0  0
  3 30  1  0  0  0  0
  4  9  1  0  0  0  0
  4  5  1  0  0  0  0
  4 45  1  0  0  0  0
  5  6  1  0  0  0  0
  5 31  1  0  0  0  0
  5 32  1  0  0  0  0
  6  7  1  0  0  0  0
  6 33  1  0  0  0  0
  6 34  1  0  0  0  0
  7  8  1  0  0  0  0
  8  9  1  0  0  0  0
  8 35  1  0  0  0  0
  8 36  1  0  0  0  0
  9 37  1  0  0  0  0
  9 38  1  0  0  0  0
 10 11  1  0  0  0  0
 10 39  1  0  0  0  0
 11 12  2  0  0  0  0
 11 13  1  0  0  0  0
 13 14  1  0  0  0  0
 13 40  1  0  0  0  0
 13 41  1  0  0  0  0
 14 23  1  0  0  0  0
 14 15  1  0  0  0  0
 15 16  2  0  0  0  0
 15 42  1  0  0  0  0
 16 17  1  0  0  0  0
 16 43  1  0  0  0  0
 17 18  2  0  0  0  0
 17 44  1  0  0  0  0
 18 19  1  0  0  0  0
 18 23  1  0  0  0  0
 19 20  1  0  0  0  0
 19 21  1  0  0  0  0
 19 22  1  0  0  0  0
 23 24  2  0  0  0  0
M  CHG  1   4   1
M  END
> <s_m_source_file>
AV-unprocessed.smi

> <i_m_source_file_index>
821

> <i_lp_mmshare_version>
43012

> <i_f3d_flags>
0

> <s_epik_input>
W0NIMl0xW0NIMl1PW0NIMl1bQ0gyXU4xW0NIMl1bQ0BASF0oW0NIM10pW05IXUMoPU8pW0NIMl1uMltjSF1bY0hdW2NIXWMoQyhGKShGKUYpYzI9Tw==

> <s_epik_cmdline>
J2VwaWtfcHl0aG9uJywgJy1waCcsICc3LjAnLCAnLXRuJywgJzgnLCAnLW1hJywgJzIwMCcsICctbWV0YWxfYmluZGluZycsICctaW1hZScsICc8aW5maWxlLm1hZT4nLCAnLW9tYWUnLCAnPG91dGZpbGUubWFlPic=

> <r_lp_tautomer_probability>
1

> <r_epik_Ionization_Penalty>
0.656654

> <r_epik_Ionization_Penalty_Charging>
0.656653

> <r_epik_Ionization_Penalty_Neutral>
9.12373e-08

> <r_epik_State_Penalty>
0.675641

> <r_epik_Charging_Adjusted_Penalty>
1.33229

> <i_epik_Tot_Q>
1

> <i_epik_Tot_abs_Q>
1

> <r_epik_Metal_State_Penalty>
0.675695

> <b_epik_Metal_Only>
0

> <s_lp_Force_Field>
OPLS_2005

> <r_lp_Energy>
32.7589

> <b_lp_Chiralities_Consistent>
1

> <s_lp_Variant>
AV-unprocessed.smi:821-4

> <Gold.Version>
5.8.1

> <Gold.Id.Protein>
6NUR|6NUR_protein|mol2

> <Gold.PLP.Fitness>
52.9494

> <Gold.PLP.PLP>
-43.0100

> <Gold.PLP.part.hbond>
-2.0000

> <Gold.PLP.part.metal>
0.0000

> <Gold.PLP.part.buried>
-3.6510

> <Gold.PLP.part.nonpolar>
-37.1606

> <Gold.PLP.part.repulsive>
0.3254

> <Gold.PLP.ligand.clash>
0.0000

> <Gold.PLP.ligand.torsion>
1.2888

> <Gold.PLP.Chemscore.Hbond>
2.9920

> <Gold.PLP.Chemscore.CHOScore>
1.0000

> <Gold.PLP.Chemscore.Metal>
0.0000

> <Gold.Chemscore.Hbonds>
donor molecule, donor type, donor heavy atom, donor atom, acceptor molecule, acceptor atom, score
      L1  H     4    45       P1 10175  2.00
      P1  H  7997  8008       L1    24  1.00
      L1  C    15    42       P1  8028  1.00

> <Gold.PLP.Chemscore.Internal.Correction>
0.5410

> <Gold.Rescore>
     Score         DG    S(hbond)    S(metal)    S(lipo)     H(rot)  DE(clash)    DE(int)     intcor
     13.23     -17.14       1.90        0.00      92.88       2.17       0.08       3.84       ----

> <Gold.Chemscore.Fitness>
13.2289

> <Gold.Chemscore.DG>
-17.1436

> <Gold.Chemscore.ZeroCoef>
-5.4800

> <Gold.Chemscore.Hbond>
1.9028

> <Gold.Chemscore.Metal>
0.0000

> <Gold.Chemscore.Lipo>
92.8846

> <Gold.Chemscore.Internal_Hbond>
0.0000

> <Gold.Chemscore.DEClash>
0.0779

> <Gold.Chemscore.DEInternal>
3.8368

> <Gold.Chemscore.Rot>
2.1716

> <Gold.Chemscore.Internal.Correction>
   9.000000E+99

> <Gold.Chemscore.Hbonds>
donor molecule, donor type, donor heavy atom, donor atom, acceptor molecule, acceptor atom, score
      L1  H     4    45       P1 10175  1.00
      P1  H  7997  8008       L1    24  0.89

> <Gold.Chemscore.Hbond.Weighted>
-6.3553

> <Gold.Chemscore.Metal.Weighted>
-0.0000

> <Gold.Chemscore.Lipo.Weighted>
-10.8675

> <Gold.Chemscore.Internal_Hbond.Weighted>
0.0000

> <Gold.Chemscore.DEClash.Weighted>
0.0779

> <Gold.Chemscore.DEInternal.Weighted>
3.8368

> <Gold.Chemscore.Rot.Weighted>
5.5592

> <Gold.Chemscore.Internal.Correction.Weighted>
   9.000000E+99

> <Gold.Protein.RotatedTorsions>
[ 6907 6896 6895 6894 ] final  -51.18 input  -60.11 | X-H torsion
[ 7974 7965 7964 7962 ] final -165.97 input  175.53 | X-H torsion
[ 8008 7997 7996 7995 ] final  -70.29 input   59.86 | X-H torsion
[ 10167 10162 10161 10158 ] final -163.10 input  -65.29 | X-H torsion
[ 10718 10713 10712 10709 ] final   80.99 input   66.30 | X-H torsion
[ 10763 10752 10751 10750 ] final  115.31 input  -60.55 | X-H torsion
[ 11005 11000 10999 10996 ] final   17.32 input  -57.11 | X-H torsion

> <Gold.Protein.ActiveResidues>
 VAL166  LYS551  ARG553  GLY616  TRP617  ASP618  TYR619  PRO620  LYS621  CYS622 
 ASP623  PHE694  ASN695  SER759  ASP760  ASP761  ALA762  ILE779  LEU786  VAL792 
 PHE793  MET794  SER795  GLU796  ALA797  LYS798  CYS799  TRP800  GLU811  SER814 

> <Gold.Protein.RotatedAtoms>
  150.8636  134.7994  159.7101 H   0  0  0  0  0  0  0  0  0  0  0  0  # atno 6907 bound_to 6896
  152.4665  134.5059  159.9749 H   0  0  0  0  0  0  0  0  0  0  0  0  # atno 6908 bound_to 6896
  151.5159  133.3437  159.2928 H   0  0  0  0  0  0  0  0  0  0  0  0  # atno 6909 bound_to 6896
  144.7256  140.2735  143.6247 H   0  0  0  0  0  0  0  0  0  0  0  0  # atno 7974 bound_to 7965
  154.5001  140.0837  156.7779 H   0  0  0  0  0  0  0  0  0  0  0  0  # atno 8008 bound_to 7997
  155.4024  140.3437  155.4239 H   0  0  0  0  0  0  0  0  0  0  0  0  # atno 8009 bound_to 7997
  156.1445  140.1539  156.8856 H   0  0  0  0  0  0  0  0  0  0  0  0  # atno 8010 bound_to 7997
  139.6344  144.0377  152.2042 H   0  0  0  0  0  0  0  0  0  0  0  0  # atno 10167 bound_to 10162
  157.6821  130.9984  150.2160 H   0  0  0  0  0  0  0  0  0  0  0  0  # atno 10718 bound_to 10713
  153.5202  135.3599  155.2628 H   0  0  0  0  0  0  0  0  0  0  0  0  # atno 10763 bound_to 10752
  154.8735  135.4044  154.3268 H   0  0  0  0  0  0  0  0  0  0  0  0  # atno 10764 bound_to 10752
  153.3937  135.7072  153.6543 H   0  0  0  0  0  0  0  0  0  0  0  0  # atno 10765 bound_to 10752
  140.4372  134.1359  155.7686 H   0  0  0  0  0  0  0  0  0  0  0  0  # atno 11005 bound_to 11000
  145.8019  139.1968  143.2043 LP  0  0  0  0  0  0  0  0  0  0  0  0  # atno 17320 bound_to 7965
  146.0669  140.7911  142.9707 LP  0  0  0  0  0  0  0  0  0  0  0  0  # atno 17321 bound_to 7965
  140.0051  144.6265  150.7696 LP  0  0  0  0  0  0  0  0  0  0  0  0  # atno 17342 bound_to 10162
  140.7457  143.2880  151.3410 LP  0  0  0  0  0  0  0  0  0  0  0  0  # atno 17343 bound_to 10162
  156.2821  130.3735  149.7925 LP  0  0  0  0  0  0  0  0  0  0  0  0  # atno 17370 bound_to 10713
  156.5610  130.8383  151.3328 LP  0  0  0  0  0  0  0  0  0  0  0  0  # atno 17371 bound_to 10713
  141.1721  133.8588  157.1539 LP  0  0  0  0  0  0  0  0  0  0  0  0  # atno 17394 bound_to 11000
  140.0094  134.9994  157.0362 LP  0  0  0  0  0  0  0  0  0  0  0  0  # atno 17395 bound_to 11000

$$$$
