AV-unprocessed.smi:1296|AV-procd|sdf|5415|dock4
  -GOLD-   22720 4573D 1   1.00000     0.00000
 Structure written by MMmdl.
 35 35  0  0  0  0  0  0  0  0  2 V2000
  150.7327  142.7916  157.6486 C   0  0  0  0  0  0  0  0  0  0  0  0
  150.7819  141.6327  156.6760 C   0  0  0  0  0  0  0  0  0  0  0  0
  149.7923  141.4321  155.8917 N   0  0  0  0  0  0  0  0  0  0  0  0
  149.8312  140.3543  154.9912 C   0  0  0  0  0  0  0  0  0  0  0  0
  148.6089  140.1871  154.1051 C   0  0  0  0  0  0  0  0  0  0  0  0
  150.9084  139.5193  154.9346 C   0  0  0  0  0  0  0  0  0  0  0  0
  150.9909  138.3284  153.9795 C   0  0  0  0  0  0  0  0  0  0  0  0
  151.1738  136.9593  154.6388 C   0  0  0  0  0  0  0  0  0  0  0  0
  152.0538  136.7899  155.4825 O   0  0  0  0  0  0  0  0  0  0  0  0
  150.3364  135.9911  154.2364 N   0  0  0  0  0  0  0  0  0  0  0  0
  150.3369  134.6131  154.7171 C   0  0  0  0  0  0  0  0  0  0  0  0
  149.5137  133.6906  153.7971 C   0  0  0  0  0  0  0  0  0  0  0  0
  147.9987  133.9072  153.9579 C   0  0  0  0  0  0  0  0  0  0  0  0
  149.8786  132.2180  154.0365 C   0  0  0  0  0  0  0  0  0  0  0  0
  152.0317  139.7899  155.8501 C   0  0  0  0  0  0  0  0  0  0  0  0
  153.0342  139.0767  155.8323 O   0  0  0  0  0  0  0  0  0  0  0  0
  151.9136  140.8491  156.7010 N   0  5  0  0  0  0  0  0  0  0  0  0
  149.8749  143.4356  157.4495 H   0  0  0  0  0  0  0  0  0  0  0  0
  151.6374  143.3949  157.5675 H   0  0  0  0  0  0  0  0  0  0  0  0
  150.6538  142.4214  158.6710 H   0  0  0  0  0  0  0  0  0  0  0  0
  148.1235  139.2306  154.2990 H   0  0  0  0  0  0  0  0  0  0  0  0
  148.8888  140.2297  153.0524 H   0  0  0  0  0  0  0  0  0  0  0  0
  147.8785  140.9762  154.2877 H   0  0  0  0  0  0  0  0  0  0  0  0
  150.1094  138.2799  153.3401 H   0  0  0  0  0  0  0  0  0  0  0  0
  151.8184  138.5051  153.2916 H   0  0  0  0  0  0  0  0  0  0  0  0
  149.6463  136.2278  153.5385 H   0  0  0  0  0  0  0  0  0  0  0  0
  151.3733  134.2755  154.7529 H   0  0  0  0  0  0  0  0  0  0  0  0
  149.9545  134.5468  155.7371 H   0  0  0  0  0  0  0  0  0  0  0  0
  149.7743  133.9259  152.7642 H   0  0  0  0  0  0  0  0  0  0  0  0
  147.6786  133.7139  154.9823 H   0  0  0  0  0  0  0  0  0  0  0  0
  147.4357  133.2420  153.3027 H   0  0  0  0  0  0  0  0  0  0  0  0
  147.7097  134.9279  153.7070 H   0  0  0  0  0  0  0  0  0  0  0  0
  149.6430  131.9117  155.0563 H   0  0  0  0  0  0  0  0  0  0  0  0
  150.9431  132.0452  153.8750 H   0  0  0  0  0  0  0  0  0  0  0  0
  149.3338  131.5615  153.3576 H   0  0  0  0  0  0  0  0  0  0  0  0
  1  2  1  0  0  0  0
  1 18  1  0  0  0  0
  1 19  1  0  0  0  0
  1 20  1  0  0  0  0
  2 17  1  0  0  0  0
  2  3  2  0  0  0  0
  3  4  1  0  0  0  0
  4  5  1  0  0  0  0
  4  6  2  0  0  0  0
  5 21  1  0  0  0  0
  5 22  1  0  0  0  0
  5 23  1  0  0  0  0
  6  7  1  0  0  0  0
  6 15  1  0  0  0  0
  7  8  1  0  0  0  0
  7 24  1  0  0  0  0
  7 25  1  0  0  0  0
  8  9  2  0  0  0  0
  8 10  1  0  0  0  0
 10 11  1  0  0  0  0
 10 26  1  0  0  0  0
 11 12  1  0  0  0  0
 11 27  1  0  0  0  0
 11 28  1  0  0  0  0
 12 13  1  0  0  0  0
 12 14  1  0  0  0  0
 12 29  1  0  0  0  0
 13 30  1  0  0  0  0
 13 31  1  0  0  0  0
 13 32  1  0  0  0  0
 14 33  1  0  0  0  0
 14 34  1  0  0  0  0
 14 35  1  0  0  0  0
 15 16  2  0  0  0  0
 15 17  1  0  0  0  0
M  CHG  1  17  -1
M  END
> <s_m_source_file>
AV-unprocessed.smi

> <i_m_source_file_index>
1296

> <i_lp_mmshare_version>
43012

> <i_f3d_flags>
0

> <s_epik_input>
W0NIM11jMW5jKFtDSDNdKWMoYyg9TylbbkhdMSlbQ0gyXUMoPU8pW05IXVtDSDJdW0NIXShbQ0gzXSlbQ0gzXQ==

> <s_epik_cmdline>
J2VwaWtfcHl0aG9uJywgJy1waCcsICc3LjAnLCAnLXRuJywgJzgnLCAnLW1hJywgJzIwMCcsICctbWV0YWxfYmluZGluZycsICctaW1hZScsICc8aW5maWxlLm1hZT4nLCAnLW9tYWUnLCAnPG91dGZpbGUubWFlPic=

> <r_lp_tautomer_probability>
0.839158

> <r_epik_Ionization_Penalty>
6.60351

> <r_epik_Ionization_Penalty_Charging>
6.70818e-08

> <r_epik_Ionization_Penalty_Neutral>
6.60351

> <r_epik_State_Penalty>
4.42903

> <r_epik_Charging_Adjusted_Penalty>
4.42903

> <i_epik_Tot_Q>
-1

> <i_epik_Tot_abs_Q>
1

> <r_epik_Metal_State_Penalty>
0.797668

> <b_epik_Metal_Only>
1

> <s_lp_Force_Field>
OPLS_2005

> <r_lp_Energy>
9.77774

> <b_lp_Chiralities_Consistent>
1

> <s_lp_Variant>
AV-unprocessed.smi:1296-3

> <Gold.Version>
5.8.1

> <Gold.Id.Protein>
6NUR|6NUR_protein|mol2

> <Gold.PLP.Fitness>
40.8417

> <Gold.PLP.PLP>
-32.4681

> <Gold.PLP.part.hbond>
-3.8645

> <Gold.PLP.part.metal>
0.0000

> <Gold.PLP.part.buried>
-0.8029

> <Gold.PLP.part.nonpolar>
-27.8709

> <Gold.PLP.part.repulsive>
0.1927

> <Gold.PLP.ligand.clash>
0.0000

> <Gold.PLP.ligand.torsion>
0.3184

> <Gold.PLP.Chemscore.Hbond>
3.0000

> <Gold.PLP.Chemscore.CHOScore>
0.0000

> <Gold.PLP.Chemscore.Metal>
0.0000

> <Gold.Chemscore.Hbonds>
donor molecule, donor type, donor heavy atom, donor atom, acceptor molecule, acceptor atom, score
      L1  H    10    26       P1  7948  1.00
      P1  H  7997  8008       L1    16  0.98
      P1  H 10752 10763       L1     9  0.93

> <Gold.PLP.Chemscore.Internal.Correction>
0.0104

> <Gold.Rescore>
     Score         DG    S(hbond)    S(metal)    S(lipo)     H(rot)  DE(clash)    DE(int)     intcor
     12.43     -15.18       2.27        0.00      54.91       1.68       0.02       2.73       ----

> <Gold.Chemscore.Fitness>
12.4286

> <Gold.Chemscore.DG>
-15.1795

> <Gold.Chemscore.ZeroCoef>
-5.4800

> <Gold.Chemscore.Hbond>
2.2687

> <Gold.Chemscore.Metal>
0.0000

> <Gold.Chemscore.Lipo>
54.9141

> <Gold.Chemscore.Internal_Hbond>
0.0000

> <Gold.Chemscore.DEClash>
0.0208

> <Gold.Chemscore.DEInternal>
2.7300

> <Gold.Chemscore.Rot>
1.6808

> <Gold.Chemscore.Internal.Correction>
   9.000000E+99

> <Gold.Chemscore.Hbonds>
donor molecule, donor type, donor heavy atom, donor atom, acceptor molecule, acceptor atom, score
      L1  H    10    26       P1  7948  0.33
      P1  H  7997  8008       L1    16  0.52
      P1  H 10752 10763       L1     9  0.68

> <Gold.Chemscore.Hbond.Weighted>
-7.5774

> <Gold.Chemscore.Metal.Weighted>
-0.0000

> <Gold.Chemscore.Lipo.Weighted>
-6.4249

> <Gold.Chemscore.Internal_Hbond.Weighted>
0.0000

> <Gold.Chemscore.DEClash.Weighted>
0.0208

> <Gold.Chemscore.DEInternal.Weighted>
2.7300

> <Gold.Chemscore.Rot.Weighted>
4.3029

> <Gold.Chemscore.Internal.Correction.Weighted>
   9.000000E+99

> <Gold.Protein.RotatedTorsions>
[ 6907 6896 6895 6894 ] final -139.80 input  -60.11 | X-H torsion
[ 7974 7965 7964 7962 ] final -173.47 input  175.53 | X-H torsion
[ 8008 7997 7996 7995 ] final  -54.20 input   59.86 | X-H torsion
[ 10167 10162 10161 10158 ] final  -49.33 input  -65.29 | X-H torsion
[ 10718 10713 10712 10709 ] final  175.86 input   66.30 | X-H torsion
[ 10763 10752 10751 10750 ] final   86.71 input  -60.55 | X-H torsion
[ 11005 11000 10999 10996 ] final  123.46 input  -57.11 | X-H torsion

> <Gold.Protein.ActiveResidues>
 VAL166  LYS551  ARG553  GLY616  TRP617  ASP618  TYR619  PRO620  LYS621  CYS622 
 ASP623  PHE694  ASN695  SER759  ASP760  ASP761  ALA762  ILE779  LEU786  VAL792 
 PHE793  MET794  SER795  GLU796  ALA797  LYS798  CYS799  TRP800  GLU811  SER814 

> <Gold.Protein.RotatedAtoms>
  151.0525  133.5612  159.2640 H   0  0  0  0  0  0  0  0  0  0  0  0  # atno 6907 bound_to 6896
  151.2617  135.0655  159.9111 H   0  0  0  0  0  0  0  0  0  0  0  0  # atno 6908 bound_to 6896
  152.5384  134.0269  159.8061 H   0  0  0  0  0  0  0  0  0  0  0  0  # atno 6909 bound_to 6896
  144.7138  140.1617  143.6375 H   0  0  0  0  0  0  0  0  0  0  0  0  # atno 7974 bound_to 7965
  154.4155  140.1182  156.5277 H   0  0  0  0  0  0  0  0  0  0  0  0  # atno 8008 bound_to 7997
  155.6637  140.3496  155.4773 H   0  0  0  0  0  0  0  0  0  0  0  0  # atno 8009 bound_to 7997
  155.9691  140.1138  157.0818 H   0  0  0  0  0  0  0  0  0  0  0  0  # atno 8010 bound_to 7997
  140.6690  143.2702  151.4199 H   0  0  0  0  0  0  0  0  0  0  0  0  # atno 10167 bound_to 10162
  156.9287  130.9964  151.2991 H   0  0  0  0  0  0  0  0  0  0  0  0  # atno 10718 bound_to 10713
  153.1597  135.4570  154.9755 H   0  0  0  0  0  0  0  0  0  0  0  0  # atno 10763 bound_to 10752
  154.7888  135.3213  154.7827 H   0  0  0  0  0  0  0  0  0  0  0  0  # atno 10764 bound_to 10752
  153.8318  135.6938  153.4868 H   0  0  0  0  0  0  0  0  0  0  0  0  # atno 10765 bound_to 10752
  139.9314  134.9641  156.8263 H   0  0  0  0  0  0  0  0  0  0  0  0  # atno 11005 bound_to 11000
  145.9024  139.2438  143.1485 LP  0  0  0  0  0  0  0  0  0  0  0  0  # atno 17320 bound_to 7965
  145.9797  140.8693  143.0121 LP  0  0  0  0  0  0  0  0  0  0  0  0  # atno 17321 bound_to 7965
  139.5950  144.1417  152.2133 LP  0  0  0  0  0  0  0  0  0  0  0  0  # atno 17342 bound_to 10162
  140.0783  144.5722  150.7141 LP  0  0  0  0  0  0  0  0  0  0  0  0  # atno 17343 bound_to 10162
  157.5861  130.8410  149.8591 LP  0  0  0  0  0  0  0  0  0  0  0  0  # atno 17370 bound_to 10713
  156.0457  130.3728  150.1323 LP  0  0  0  0  0  0  0  0  0  0  0  0  # atno 17371 bound_to 10713
  140.6193  134.0009  155.7611 LP  0  0  0  0  0  0  0  0  0  0  0  0  # atno 17394 bound_to 11000
  141.0904  133.9925  157.3246 LP  0  0  0  0  0  0  0  0  0  0  0  0  # atno 17395 bound_to 11000

$$$$
