AV-unprocessed.smi:2186|AV-procd|sdf|8876|dock3
  -GOLD-   2272012 73D 1   1.00000     0.00000
 Structure written by MMmdl.
 43 44  0  0  0  0  0  0  0  0  1 V2000
  144.0405  144.2504  155.1708 C   0  0  0  0  0  0  0  0  0  0  0  0
  145.3479  143.9538  154.4217 C   0  0  0  0  0  0  0  0  0  0  0  0
  145.3061  144.3756  152.9458 C   0  0  0  0  0  0  0  0  0  0  0  0
  145.7796  142.5310  154.5894 C   0  0  0  0  0  0  0  0  0  0  0  0
  146.8795  142.0194  154.0285 N   0  0  0  0  0  0  0  0  0  0  0  0
  147.0574  140.6634  154.3224 C   0  0  0  0  0  0  0  0  0  0  0  0
  148.2360  139.9226  153.7610 C   0  0  0  0  0  0  0  0  0  0  0  0
  149.5158  140.3549  154.4782 C   0  0  0  0  0  0  0  0  0  0  0  0
  150.5424  139.6854  154.3645 O   0  0  0  0  0  0  0  0  0  0  0  0
  149.4422  141.4792  155.2076 N   0  0  0  0  0  0  0  0  0  0  0  0
  150.5549  142.0856  155.9262 C   0  0  0  0  0  0  0  0  0  0  0  0
  150.7971  141.3730  157.2696 C   0  0  0  0  0  0  0  0  0  0  0  0
  151.8547  141.9543  158.0940 N   0  0  0  0  0  0  0  0  0  0  0  0
  151.9386  141.2815  159.3860 C   0  0  0  0  0  0  0  0  0  0  0  0
  153.0481  141.8742  160.2714 C   0  0  0  0  0  0  0  0  0  0  0  0
  152.8200  143.2682  160.4484 O   0  0  0  0  0  0  0  0  0  0  0  0
  152.7722  143.9764  159.2140 C   0  0  0  0  0  0  0  0  0  0  0  0
  151.6687  143.3867  158.3179 C   0  0  0  0  0  0  0  0  0  0  0  0
  146.0734  140.1535  155.1329 C   0  0  0  0  0  0  0  0  0  0  0  0
  144.8825  141.3559  155.5451 S   0  0  0  0  0  0  0  0  0  0  0  0
  144.1353  144.0160  156.2316 H   0  0  0  0  0  0  0  0  0  0  0  0
  143.2126  143.6630  154.7725 H   0  0  0  0  0  0  0  0  0  0  0  0
  143.7703  145.3032  155.0875 H   0  0  0  0  0  0  0  0  0  0  0  0
  146.1177  144.5654  154.8938 H   0  0  0  0  0  0  0  0  0  0  0  0
  146.2758  144.2302  152.4689 H   0  0  0  0  0  0  0  0  0  0  0  0
  145.0435  145.4289  152.8455 H   0  0  0  0  0  0  0  0  0  0  0  0
  144.5700  143.7958  152.3880 H   0  0  0  0  0  0  0  0  0  0  0  0
  148.1069  138.8445  153.8665 H   0  0  0  0  0  0  0  0  0  0  0  0
  148.3380  140.1172  152.6927 H   0  0  0  0  0  0  0  0  0  0  0  0
  148.5581  141.9666  155.2388 H   0  0  0  0  0  0  0  0  0  0  0  0
  151.4442  142.0090  155.3001 H   0  0  0  0  0  0  0  0  0  0  0  0
  150.3609  143.1496  156.0658 H   0  0  0  0  0  0  0  0  0  0  0  0
  149.8676  141.3338  157.8399 H   0  0  0  0  0  0  0  0  0  0  0  0
  151.0558  140.3360  157.0492 H   0  0  0  0  0  0  0  0  0  0  0  0
  150.9829  141.3599  159.9067 H   0  0  0  0  0  0  0  0  0  0  0  0
  152.1268  140.2177  159.2385 H   0  0  0  0  0  0  0  0  0  0  0  0
  153.0573  141.3864  161.2464 H   0  0  0  0  0  0  0  0  0  0  0  0
  154.0291  141.7127  159.8222 H   0  0  0  0  0  0  0  0  0  0  0  0
  152.5754  145.0296  159.4147 H   0  0  0  0  0  0  0  0  0  0  0  0
  153.7423  143.9208  158.7178 H   0  0  0  0  0  0  0  0  0  0  0  0
  151.6690  143.9231  157.3696 H   0  0  0  0  0  0  0  0  0  0  0  0
  150.6961  143.5660  158.7790 H   0  0  0  0  0  0  0  0  0  0  0  0
  145.9751  139.1448  155.5059 H   0  0  0  0  0  0  0  0  0  0  0  0
  1  2  1  0  0  0  0
  1 21  1  0  0  0  0
  1 22  1  0  0  0  0
  1 23  1  0  0  0  0
  2  3  1  0  0  0  0
  2  4  1  0  0  0  0
  2 24  1  0  0  0  0
  3 25  1  0  0  0  0
  3 26  1  0  0  0  0
  3 27  1  0  0  0  0
  4 20  1  0  0  0  0
  4  5  2  0  0  0  0
  5  6  1  0  0  0  0
  6  7  1  0  0  0  0
  6 19  2  0  0  0  0
  7  8  1  0  0  0  0
  7 28  1  0  0  0  0
  7 29  1  0  0  0  0
  8  9  2  0  0  0  0
  8 10  1  0  0  0  0
 10 11  1  0  0  0  0
 10 30  1  0  0  0  0
 11 12  1  0  0  0  0
 11 31  1  0  0  0  0
 11 32  1  0  0  0  0
 12 13  1  0  0  0  0
 12 33  1  0  0  0  0
 12 34  1  0  0  0  0
 13 18  1  0  0  0  0
 13 14  1  0  0  0  0
 14 15  1  0  0  0  0
 14 35  1  0  0  0  0
 14 36  1  0  0  0  0
 15 16  1  0  0  0  0
 15 37  1  0  0  0  0
 15 38  1  0  0  0  0
 16 17  1  0  0  0  0
 17 18  1  0  0  0  0
 17 39  1  0  0  0  0
 17 40  1  0  0  0  0
 18 41  1  0  0  0  0
 18 42  1  0  0  0  0
 19 20  1  0  0  0  0
 19 43  1  0  0  0  0
M  END
> <s_m_source_file>
AV-unprocessed.smi

> <i_m_source_file_index>
2186

> <i_lp_mmshare_version>
43012

> <i_f3d_flags>
0

> <s_epik_input>
W0NIM11bQ0hdKFtDSDNdKWMxbmMoW2NIXXMxKVtDSDJdQyg9TylbTkhdW0NIMl1bQ0gyXU4yW0NIMl1bQ0gyXU9bQ0gyXVtDSDJdMg==

> <s_epik_cmdline>
J2VwaWtfcHl0aG9uJywgJy1waCcsICc3LjAnLCAnLXRuJywgJzgnLCAnLW1hJywgJzIwMCcsICctbWV0YWxfYmluZGluZycsICctaW1hZScsICc8aW5maWxlLm1hZT4nLCAnLW9tYWUnLCAnPG91dGZpbGUubWFlPic=

> <r_epik_Ionization_Penalty>
0.226788

> <r_epik_Ionization_Penalty_Charging>
0

> <r_epik_Ionization_Penalty_Neutral>
0.226788

> <r_epik_State_Penalty>
0.21727

> <r_epik_Charging_Adjusted_Penalty>
0.21727

> <i_epik_Tot_Q>
0

> <i_epik_Tot_abs_Q>
0

> <r_epik_Metal_State_Penalty>
0.217263

> <b_epik_Metal_Only>
0

> <s_lp_Force_Field>
OPLS_2005

> <r_lp_Energy>
12.6153

> <b_lp_Chiralities_Consistent>
1

> <s_lp_Variant>
AV-unprocessed.smi:2186-1

> <Gold.Version>
5.8.1

> <Gold.Id.Protein>
6NUR|6NUR_protein|mol2

> <Gold.PLP.Fitness>
35.7398

> <Gold.PLP.PLP>
-36.5378

> <Gold.PLP.part.hbond>
-1.0740

> <Gold.PLP.part.metal>
0.0000

> <Gold.PLP.part.buried>
-4.5933

> <Gold.PLP.part.nonpolar>
-30.8559

> <Gold.PLP.part.repulsive>
0.4854

> <Gold.PLP.ligand.clash>
2.8195

> <Gold.PLP.ligand.torsion>
0.5685

> <Gold.PLP.Chemscore.Hbond>
1.0000

> <Gold.PLP.Chemscore.CHOScore>
0.0000

> <Gold.PLP.Chemscore.Metal>
0.0000

> <Gold.Chemscore.Hbonds>
donor molecule, donor type, donor heavy atom, donor atom, acceptor molecule, acceptor atom, score
      P1  H  7989  7998       L1     9  1.00

> <Gold.PLP.Chemscore.Internal.Correction>
0.1586

> <Gold.Rescore>
     Score         DG    S(hbond)    S(metal)    S(lipo)     H(rot)  DE(clash)    DE(int)     intcor
     13.11     -13.77       0.76        0.00      86.87       1.73       0.08       0.58       ----

> <Gold.Chemscore.Fitness>
13.1112

> <Gold.Chemscore.DG>
-13.7728

> <Gold.Chemscore.ZeroCoef>
-5.4800

> <Gold.Chemscore.Hbond>
0.7628

> <Gold.Chemscore.Metal>
0.0000

> <Gold.Chemscore.Lipo>
86.8667

> <Gold.Chemscore.Internal_Hbond>
0.0000

> <Gold.Chemscore.DEClash>
0.0801

> <Gold.Chemscore.DEInternal>
0.5815

> <Gold.Chemscore.Rot>
1.7259

> <Gold.Chemscore.Internal.Correction>
   9.000000E+99

> <Gold.Chemscore.Hbonds>
donor molecule, donor type, donor heavy atom, donor atom, acceptor molecule, acceptor atom, score
      P1  H  7989  7998       L1     9  0.30

> <Gold.Chemscore.Hbond.Weighted>
-2.5477

> <Gold.Chemscore.Metal.Weighted>
-0.0000

> <Gold.Chemscore.Lipo.Weighted>
-10.1634

> <Gold.Chemscore.Internal_Hbond.Weighted>
0.0000

> <Gold.Chemscore.DEClash.Weighted>
0.0801

> <Gold.Chemscore.DEInternal.Weighted>
0.5815

> <Gold.Chemscore.Rot.Weighted>
4.4182

> <Gold.Chemscore.Internal.Correction.Weighted>
   9.000000E+99

> <Gold.Protein.RotatedTorsions>
[ 6907 6896 6895 6894 ] final   93.71 input  -60.11 | X-H torsion
[ 7974 7965 7964 7962 ] final   79.48 input  175.53 | X-H torsion
[ 8008 7997 7996 7995 ] final   57.30 input   59.86 | X-H torsion
[ 10167 10162 10161 10158 ] final  115.72 input  -65.29 | X-H torsion
[ 10718 10713 10712 10709 ] final  -23.79 input   66.30 | X-H torsion
[ 10763 10752 10751 10750 ] final  160.15 input  -60.55 | X-H torsion
[ 11005 11000 10999 10996 ] final -146.74 input  -57.11 | X-H torsion

> <Gold.Protein.ActiveResidues>
 VAL166  LYS551  ARG553  GLY616  TRP617  ASP618  TYR619  PRO620  LYS621  CYS622 
 ASP623  PHE694  ASN695  SER759  ASP760  ASP761  ALA762  ILE779  LEU786  VAL792 
 PHE793  MET794  SER795  GLU796  ALA797  LYS798  CYS799  TRP800  GLU811  SER814 

> <Gold.Protein.RotatedAtoms>
  152.5452  134.1306  159.8437 H   0  0  0  0  0  0  0  0  0  0  0  0  # atno 6907 bound_to 6896
  151.1352  133.5002  159.2605 H   0  0  0  0  0  0  0  0  0  0  0  0  # atno 6908 bound_to 6896
  151.1632  135.0293  159.8774 H   0  0  0  0  0  0  0  0  0  0  0  0  # atno 6909 bound_to 6896
  145.6636  139.2478  143.1908 H   0  0  0  0  0  0  0  0  0  0  0  0  # atno 7974 bound_to 7965
  155.5315  140.3482  155.4427 H   0  0  0  0  0  0  0  0  0  0  0  0  # atno 8008 bound_to 7997
  156.0715  140.1364  156.9849 H   0  0  0  0  0  0  0  0  0  0  0  0  # atno 8009 bound_to 7997
  154.4530  140.0964  156.6651 H   0  0  0  0  0  0  0  0  0  0  0  0  # atno 8010 bound_to 7997
  139.6297  144.7113  151.2457 H   0  0  0  0  0  0  0  0  0  0  0  0  # atno 10167 bound_to 10162
  156.4864  130.4556  149.6781 H   0  0  0  0  0  0  0  0  0  0  0  0  # atno 10718 bound_to 10713
  154.2429  135.2774  155.2847 H   0  0  0  0  0  0  0  0  0  0  0  0  # atno 10763 bound_to 10752
  154.5530  135.5669  153.6942 H   0  0  0  0  0  0  0  0  0  0  0  0  # atno 10764 bound_to 10752
  152.9996  135.6279  154.2574 H   0  0  0  0  0  0  0  0  0  0  0  0  # atno 10765 bound_to 10752
  140.7788  134.3103  157.5052 H   0  0  0  0  0  0  0  0  0  0  0  0  # atno 11005 bound_to 11000
  146.1104  140.7435  142.9506 LP  0  0  0  0  0  0  0  0  0  0  0  0  # atno 17320 bound_to 7965
  144.7080  140.3930  143.7102 LP  0  0  0  0  0  0  0  0  0  0  0  0  # atno 17321 bound_to 7965
  140.7432  143.6502  150.8255 LP  0  0  0  0  0  0  0  0  0  0  0  0  # atno 17342 bound_to 10162
  140.0125  143.5627  152.2833 LP  0  0  0  0  0  0  0  0  0  0  0  0  # atno 17343 bound_to 10162
  156.3470  130.7412  151.2366 LP  0  0  0  0  0  0  0  0  0  0  0  0  # atno 17370 bound_to 10713
  157.7478  131.0387  150.4518 LP  0  0  0  0  0  0  0  0  0  0  0  0  # atno 17371 bound_to 10713
  139.8745  134.9306  156.3506 LP  0  0  0  0  0  0  0  0  0  0  0  0  # atno 17394 bound_to 11000
  140.9502  133.7456  156.0262 LP  0  0  0  0  0  0  0  0  0  0  0  0  # atno 17395 bound_to 11000

$$$$
