AV-unprocessed.smi:2059|AV-procd|sdf|8352|dock1
  -GOLD-   2272011 23D 1   1.00000     0.00000
 Structure written by MMmdl.
 29 30  0  0  0  0  0  0  0  0  2 V2000
  143.5412  132.6298  149.0765 C   0  0  0  0  0  0  0  0  0  0  0  0
  144.4890  133.2415  150.0503 C   0  0  0  0  0  0  0  0  0  0  0  0
  145.7371  132.8895  150.4805 C   0  0  0  0  0  0  0  0  0  0  0  0
  146.0600  133.9109  151.4146 C   0  0  0  0  0  0  0  0  0  0  0  0
  147.3143  133.8869  152.0899 N   0  0  0  0  0  0  0  0  0  0  0  0
  147.8934  132.9497  152.8712 C   0  0  0  0  0  0  0  0  0  0  0  0
  147.2255  131.9239  153.0373 O   0  0  0  0  0  0  0  0  0  0  0  0
  149.1279  133.2105  153.3917 N   0  5  0  0  0  0  0  0  0  0  0  0
  149.4306  133.3663  154.8163 C   0  0  2  0  0  0  0  0  0  0  0  0
  150.3404  134.5884  155.0497 C   0  0  0  0  0  0  0  0  0  0  0  0
  150.9114  134.5119  156.4732 C   0  0  0  0  0  0  0  0  0  0  0  0
  151.0815  132.7235  156.8468 S   0  0  0  0  0  0  0  0  0  0  0  0
  152.4932  132.3273  156.7250 O   0  0  0  0  0  0  0  0  0  0  0  0
  150.3169  132.4157  158.0659 O   0  0  0  0  0  0  0  0  0  0  0  0
  150.1615  132.1337  155.3716 C   0  0  0  0  0  0  0  0  0  0  0  0
  145.0912  134.8080  151.5361 N   0  0  0  0  0  0  0  0  0  0  0  0
  144.0813  134.3840  150.6647 O   0  0  0  0  0  0  0  0  0  0  0  0
  143.9042  131.6600  148.7358 H   0  0  0  0  0  0  0  0  0  0  0  0
  143.4177  133.2709  148.2037 H   0  0  0  0  0  0  0  0  0  0  0  0
  142.5612  132.4826  149.5311 H   0  0  0  0  0  0  0  0  0  0  0  0
  146.3241  132.0359  150.1759 H   0  0  0  0  0  0  0  0  0  0  0  0
  147.8720  134.7174  151.9579 H   0  0  0  0  0  0  0  0  0  0  0  0
  148.5277  133.5182  155.4102 H   0  0  0  0  0  0  0  0  0  0  0  0
  151.1696  134.5641  154.3405 H   0  0  0  0  0  0  0  0  0  0  0  0
  149.8091  135.5263  154.8847 H   0  0  0  0  0  0  0  0  0  0  0  0
  151.8766  135.0091  156.5671 H   0  0  0  0  0  0  0  0  0  0  0  0
  150.2243  134.9482  157.1998 H   0  0  0  0  0  0  0  0  0  0  0  0
  149.4828  131.3261  155.6462 H   0  0  0  0  0  0  0  0  0  0  0  0
  150.8903  131.7497  154.6570 H   0  0  0  0  0  0  0  0  0  0  0  0
  1  2  1  0  0  0  0
  1 18  1  0  0  0  0
  1 19  1  0  0  0  0
  1 20  1  0  0  0  0
  2 17  1  0  0  0  0
  2  3  2  0  0  0  0
  3  4  1  0  0  0  0
  3 21  1  0  0  0  0
  4  5  1  0  0  0  0
  4 16  2  0  0  0  0
  5  6  1  0  0  0  0
  5 22  1  0  0  0  0
  6  7  2  0  0  0  0
  6  8  1  0  0  0  0
  8  9  1  0  0  0  0
  9 15  1  0  0  0  0
  9 10  1  0  0  0  0
  9 23  1  0  0  0  0
 10 11  1  0  0  0  0
 10 24  1  0  0  0  0
 10 25  1  0  0  0  0
 11 12  1  0  0  0  0
 11 26  1  0  0  0  0
 11 27  1  0  0  0  0
 12 13  2  0  0  0  0
 12 14  2  0  0  0  0
 12 15  1  0  0  0  0
 15 28  1  0  0  0  0
 15 29  1  0  0  0  0
 16 17  1  0  0  0  0
M  CHG  1   8  -1
M  END
> <s_m_source_file>
AV-unprocessed.smi

> <i_m_source_file_index>
2059

> <i_lp_mmshare_version>
43012

> <i_f3d_flags>
0

> <s_epik_input>
W0NIM11jMVtjSF1jKG5vMSlbTkhdQyg9TylbTkhdW0NAQEhdKFtDSDJdMilbQ0gyXVtDSDJdUzIoPU8pPU8=

> <s_epik_cmdline>
J2VwaWtfcHl0aG9uJywgJy1waCcsICc3LjAnLCAnLXRuJywgJzgnLCAnLW1hJywgJzIwMCcsICctbWV0YWxfYmluZGluZycsICctaW1hZScsICc8aW5maWxlLm1hZT4nLCAnLW9tYWUnLCAnPG91dGZpbGUubWFlPic=

> <r_lp_tautomer_probability>
1

> <r_epik_Ionization_Penalty>
6.6071

> <r_epik_Ionization_Penalty_Charging>
6.60709

> <r_epik_Ionization_Penalty_Neutral>
5.42629e-06

> <r_epik_State_Penalty>
6.6352

> <r_epik_Charging_Adjusted_Penalty>
13.2423

> <i_epik_Tot_Q>
-1

> <i_epik_Tot_abs_Q>
1

> <r_epik_Metal_State_Penalty>
2.57602

> <b_epik_Metal_Only>
1

> <s_lp_Force_Field>
OPLS_2005

> <r_lp_Energy>
11.3724

> <b_lp_Chiralities_Consistent>
1

> <s_lp_Variant>
AV-unprocessed.smi:2059-5

> <Gold.Version>
5.8.1

> <Gold.Id.Protein>
6NUR|6NUR_protein|mol2

> <Gold.PLP.Fitness>
30.7529

> <Gold.PLP.PLP>
-27.3843

> <Gold.PLP.part.hbond>
-2.0000

> <Gold.PLP.part.metal>
0.0000

> <Gold.PLP.part.buried>
-1.1772

> <Gold.PLP.part.nonpolar>
-22.2654

> <Gold.PLP.part.repulsive>
0.7375

> <Gold.PLP.ligand.clash>
0.0000

> <Gold.PLP.ligand.torsion>
1.3264

> <Gold.PLP.Chemscore.Hbond>
2.0000

> <Gold.PLP.Chemscore.CHOScore>
0.0000

> <Gold.PLP.Chemscore.Metal>
0.0000

> <Gold.Chemscore.Hbonds>
donor molecule, donor type, donor heavy atom, donor atom, acceptor molecule, acceptor atom, score
      L1  H     5    22       P1  7948  1.00
      P1  H  6896  6909       L1    14  1.00

> <Gold.PLP.Chemscore.Internal.Correction>
0.0214

> <Gold.Rescore>
     Score         DG    S(hbond)    S(metal)    S(lipo)     H(rot)  DE(clash)    DE(int)     intcor
     11.55     -13.36       1.32        0.00      51.46       1.00       0.42       1.38       ----

> <Gold.Chemscore.Fitness>
11.5494

> <Gold.Chemscore.DG>
-13.3561

> <Gold.Chemscore.ZeroCoef>
-5.4800

> <Gold.Chemscore.Hbond>
1.3221

> <Gold.Chemscore.Metal>
0.0000

> <Gold.Chemscore.Lipo>
51.4564

> <Gold.Chemscore.Internal_Hbond>
0.0000

> <Gold.Chemscore.DEClash>
0.4222

> <Gold.Chemscore.DEInternal>
1.3845

> <Gold.Chemscore.Rot>
1.0000

> <Gold.Chemscore.Internal.Correction>
   9.000000E+99

> <Gold.Chemscore.Hbonds>
donor molecule, donor type, donor heavy atom, donor atom, acceptor molecule, acceptor atom, score
      L1  H     5    22       P1  7948  0.35
      P1  H  6896  6909       L1    14  0.30

> <Gold.Chemscore.Hbond.Weighted>
-4.4157

> <Gold.Chemscore.Metal.Weighted>
-0.0000

> <Gold.Chemscore.Lipo.Weighted>
-6.0204

> <Gold.Chemscore.Internal_Hbond.Weighted>
0.0000

> <Gold.Chemscore.DEClash.Weighted>
0.4222

> <Gold.Chemscore.DEInternal.Weighted>
1.3845

> <Gold.Chemscore.Rot.Weighted>
2.5600

> <Gold.Chemscore.Internal.Correction.Weighted>
   9.000000E+99

> <Gold.Protein.RotatedTorsions>
[ 6907 6896 6895 6894 ] final  -23.93 input  -60.11 | X-H torsion
[ 7974 7965 7964 7962 ] final -106.09 input  175.53 | X-H torsion
[ 8008 7997 7996 7995 ] final  -83.39 input   59.86 | X-H torsion
[ 10167 10162 10161 10158 ] final -168.37 input  -65.29 | X-H torsion
[ 10718 10713 10712 10709 ] final  -85.75 input   66.30 | X-H torsion
[ 10763 10752 10751 10750 ] final  179.85 input  -60.55 | X-H torsion
[ 11005 11000 10999 10996 ] final  160.05 input  -57.11 | X-H torsion

> <Gold.Protein.ActiveResidues>
 VAL166  LYS551  ARG553  GLY616  TRP617  ASP618  TYR619  PRO620  LYS621  CYS622 
 ASP623  PHE694  ASN695  SER759  ASP760  ASP761  ALA762  ILE779  LEU786  VAL792 
 PHE793  MET794  SER795  GLU796  ALA797  LYS798  CYS799  TRP800  GLU811  SER814 

> <Gold.Protein.RotatedAtoms>
  151.1968  135.0426  159.8855 H   0  0  0  0  0  0  0  0  0  0  0  0  # atno 6907 bound_to 6896
  152.5435  134.0894  159.8280 H   0  0  0  0  0  0  0  0  0  0  0  0  # atno 6908 bound_to 6896
  151.1030  133.5182  159.2641 H   0  0  0  0  0  0  0  0  0  0  0  0  # atno 6909 bound_to 6896
  145.2222  140.9139  143.3253 H   0  0  0  0  0  0  0  0  0  0  0  0  # atno 7974 bound_to 7965
  154.6186  140.0619  156.9586 H   0  0  0  0  0  0  0  0  0  0  0  0  # atno 8008 bound_to 7997
  155.1854  140.3302  155.4349 H   0  0  0  0  0  0  0  0  0  0  0  0  # atno 8009 bound_to 7997
  156.2418  140.1890  156.6948 H   0  0  0  0  0  0  0  0  0  0  0  0  # atno 8010 bound_to 7997
  139.5989  144.1052  152.1721 H   0  0  0  0  0  0  0  0  0  0  0  0  # atno 10167 bound_to 10162
  155.9994  130.4741  150.4609 H   0  0  0  0  0  0  0  0  0  0  0  0  # atno 10718 bound_to 10713
  154.5260  135.2797  155.1221 H   0  0  0  0  0  0  0  0  0  0  0  0  # atno 10763 bound_to 10752
  154.2760  135.6294  153.5332 H   0  0  0  0  0  0  0  0  0  0  0  0  # atno 10764 bound_to 10752
  152.9946  135.5640  154.5761 H   0  0  0  0  0  0  0  0  0  0  0  0  # atno 10765 bound_to 10752
  140.2021  134.8330  157.3029 H   0  0  0  0  0  0  0  0  0  0  0  0  # atno 11005 bound_to 11000
  144.9754  139.3837  143.6288 LP  0  0  0  0  0  0  0  0  0  0  0  0  # atno 17320 bound_to 7965
  146.3373  139.8871  142.8815 LP  0  0  0  0  0  0  0  0  0  0  0  0  # atno 17321 bound_to 7965
  140.0644  144.5830  150.7239 LP  0  0  0  0  0  0  0  0  0  0  0  0  # atno 17342 bound_to 10162
  140.7234  143.2611  151.4202 LP  0  0  0  0  0  0  0  0  0  0  0  0  # atno 17343 bound_to 10162
  157.2634  131.0571  151.2306 LP  0  0  0  0  0  0  0  0  0  0  0  0  # atno 17370 bound_to 10713
  157.3413  130.7034  149.6383 LP  0  0  0  0  0  0  0  0  0  0  0  0  # atno 17371 bound_to 10713
  140.2043  134.4217  155.7646 LP  0  0  0  0  0  0  0  0  0  0  0  0  # atno 17394 bound_to 11000
  141.2227  133.7087  156.8234 LP  0  0  0  0  0  0  0  0  0  0  0  0  # atno 17395 bound_to 11000

$$$$
