AV-unprocessed.smi:2084|AV-procd|sdf|8515|dock1
  -GOLD-   2272011233D 1   1.00000     0.00000
 Structure written by MMmdl.
 38 39  0  0  0  0  0  0  0  0  3 V2000
  151.3397  138.0170  154.1384 C   0  0  0  0  0  0  0  0  0  0  0  0
  149.8797  137.7243  154.1799 N   0  3  0  0  0  0  0  0  0  0  0  0
  149.1027  138.9891  154.1066 C   0  0  0  0  0  0  0  0  0  0  0  0
  149.4252  136.7554  155.2437 C   0  0  0  0  0  0  0  0  0  0  0  0
  149.4001  137.4721  156.6319 C   0  0  0  0  0  0  0  0  0  0  0  0
  149.3823  136.5523  157.7703 N   0  0  0  0  0  0  0  0  0  0  0  0
  148.6977  136.7015  158.9128 C   0  0  0  0  0  0  0  0  0  0  0  0
  148.0069  137.7068  159.0934 O   0  0  0  0  0  0  0  0  0  0  0  0
  148.8460  135.6656  159.7679 N   0  5  0  0  0  0  0  0  0  0  0  0
  148.2210  135.6815  160.9564 C   0  0  0  0  0  0  0  0  0  0  0  0
  148.0805  136.7891  161.6935 N   0  0  0  0  0  0  0  0  0  0  0  0
  147.4033  136.5736  162.8952 C   0  0  0  0  0  0  0  0  0  0  0  0
  147.0277  135.2696  163.0815 C   0  0  0  0  0  0  0  0  0  0  0  0
  147.5150  134.2677  161.7443 S   0  0  0  0  0  0  0  0  0  0  0  0
  148.0037  136.2042  154.9116 C   0  0  0  0  0  0  0  0  0  0  0  0
  148.1775  134.7298  154.5408 C   0  0  0  0  0  0  0  0  0  0  0  0
  149.3897  134.2837  155.3493 C   0  0  0  0  0  0  0  0  0  0  0  0
  150.3300  135.4896  155.3074 C   0  0  0  0  0  0  0  0  0  0  0  0
  151.6632  138.6206  154.9853 H   0  0  0  0  0  0  0  0  0  0  0  0
  151.5763  138.5820  153.2364 H   0  0  0  0  0  0  0  0  0  0  0  0
  151.9610  137.1248  154.1044 H   0  0  0  0  0  0  0  0  0  0  0  0
  149.0898  139.5065  155.0662 H   0  0  0  0  0  0  0  0  0  0  0  0
  148.0759  138.8185  153.7863 H   0  0  0  0  0  0  0  0  0  0  0  0
  149.5353  139.6679  153.3707 H   0  0  0  0  0  0  0  0  0  0  0  0
  150.3021  138.0635  156.7805 H   0  0  0  0  0  0  0  0  0  0  0  0
  148.5672  138.1759  156.6736 H   0  0  0  0  0  0  0  0  0  0  0  0
  149.9330  135.7111  157.6786 H   0  0  0  0  0  0  0  0  0  0  0  0
  147.2337  137.4070  163.5604 H   0  0  0  0  0  0  0  0  0  0  0  0
  146.4985  134.8388  163.9177 H   0  0  0  0  0  0  0  0  0  0  0  0
  147.3427  136.2491  155.7747 H   0  0  0  0  0  0  0  0  0  0  0  0
  147.4748  136.7684  154.1439 H   0  0  0  0  0  0  0  0  0  0  0  0
  147.2888  134.1368  154.7588 H   0  0  0  0  0  0  0  0  0  0  0  0
  148.3891  134.6321  153.4756 H   0  0  0  0  0  0  0  0  0  0  0  0
  149.0902  134.0793  156.3782 H   0  0  0  0  0  0  0  0  0  0  0  0
  149.8495  133.3785  154.9520 H   0  0  0  0  0  0  0  0  0  0  0  0
  150.9672  135.3949  154.4303 H   0  0  0  0  0  0  0  0  0  0  0  0
  151.0064  135.4964  156.1628 H   0  0  0  0  0  0  0  0  0  0  0  0
  149.6901  137.2500  153.3084 H   0  0  0  0  0  0  0  0  0  0  0  0
  1  2  1  0  0  0  0
  1 19  1  0  0  0  0
  1 20  1  0  0  0  0
  1 21  1  0  0  0  0
  2  3  1  0  0  0  0
  2  4  1  0  0  0  0
  2 38  1  0  0  0  0
  3 22  1  0  0  0  0
  3 23  1  0  0  0  0
  3 24  1  0  0  0  0
  4 18  1  0  0  0  0
  4  5  1  0  0  0  0
  4 15  1  0  0  0  0
  5  6  1  0  0  0  0
  5 25  1  0  0  0  0
  5 26  1  0  0  0  0
  6  7  1  0  0  0  0
  6 27  1  0  0  0  0
  7  8  2  0  0  0  0
  7  9  1  0  0  0  0
  9 10  1  0  0  0  0
 10 14  1  0  0  0  0
 10 11  2  0  0  0  0
 11 12  1  0  0  0  0
 12 13  2  0  0  0  0
 12 28  1  0  0  0  0
 13 14  1  0  0  0  0
 13 29  1  0  0  0  0
 15 16  1  0  0  0  0
 15 30  1  0  0  0  0
 15 31  1  0  0  0  0
 16 17  1  0  0  0  0
 16 32  1  0  0  0  0
 16 33  1  0  0  0  0
 17 18  1  0  0  0  0
 17 34  1  0  0  0  0
 17 35  1  0  0  0  0
 18 36  1  0  0  0  0
 18 37  1  0  0  0  0
M  CHG  1   2   1
M  CHG  1   9  -1
M  END
> <s_m_source_file>
AV-unprocessed.smi

> <i_m_source_file_index>
2084

> <i_lp_mmshare_version>
43012

> <i_f3d_flags>
0

> <s_epik_input>
W0NIMl0xW0NIMl1bQ0gyXVtDSDJdQzEoTihbQ0gzXSlbQ0gzXSlbQ0gyXVtOSF1DKD1PKVtOSF1jMm5bY0hdW2NIXXMy

> <s_epik_cmdline>
J2VwaWtfcHl0aG9uJywgJy1waCcsICc3LjAnLCAnLXRuJywgJzgnLCAnLW1hJywgJzIwMCcsICctbWV0YWxfYmluZGluZycsICctaW1hZScsICc8aW5maWxlLm1hZT4nLCAnLW9tYWUnLCAnPG91dGZpbGUubWFlPic=

> <r_lp_tautomer_probability>
1

> <r_epik_Ionization_Penalty>
7.73928

> <r_epik_Ionization_Penalty_Charging>
6.33943

> <r_epik_Ionization_Penalty_Neutral>
1.39985

> <r_epik_State_Penalty>
6.33766

> <r_epik_Charging_Adjusted_Penalty>
12.6771

> <i_epik_Tot_Q>
0

> <i_epik_Tot_abs_Q>
2

> <r_epik_Metal_State_Penalty>
2.27131

> <b_epik_Metal_Only>
1

> <s_lp_Force_Field>
OPLS_2005

> <r_lp_Energy>
28.85

> <b_lp_Chiralities_Consistent>
1

> <s_lp_Variant>
AV-unprocessed.smi:2084-2

> <Gold.Version>
5.8.1

> <Gold.Id.Protein>
6NUR|6NUR_protein|mol2

> <Gold.PLP.Fitness>
42.8460

> <Gold.PLP.PLP>
-29.4180

> <Gold.PLP.part.hbond>
-4.1611

> <Gold.PLP.part.metal>
0.0000

> <Gold.PLP.part.buried>
-3.1011

> <Gold.PLP.part.nonpolar>
-22.3131

> <Gold.PLP.part.repulsive>
0.0999

> <Gold.PLP.ligand.clash>
0.0000

> <Gold.PLP.ligand.torsion>
0.8932

> <Gold.PLP.Chemscore.Hbond>
5.0262

> <Gold.PLP.Chemscore.CHOScore>
0.0000

> <Gold.PLP.Chemscore.Metal>
0.0000

> <Gold.Chemscore.Hbonds>
donor molecule, donor type, donor heavy atom, donor atom, acceptor molecule, acceptor atom, score
      L1  H     2    38       P1  7948  2.00
      P1  H  6896  6909       L1     9  1.62
      P1  H  6931  6943       L1    11  1.00
      P1  H  6934  6947       L1     8  0.06

> <Gold.PLP.Chemscore.Internal.Correction>
0.1359

> <Gold.Rescore>
     Score         DG    S(hbond)    S(metal)    S(lipo)     H(rot)  DE(clash)    DE(int)     intcor
     15.75     -18.14       2.77        0.00      63.05       1.55       0.02       2.37       ----

> <Gold.Chemscore.Fitness>
15.7499

> <Gold.Chemscore.DG>
-18.1423

> <Gold.Chemscore.ZeroCoef>
-5.4800

> <Gold.Chemscore.Hbond>
2.7741

> <Gold.Chemscore.Metal>
0.0000

> <Gold.Chemscore.Lipo>
63.0484

> <Gold.Chemscore.Internal_Hbond>
0.0000

> <Gold.Chemscore.DEClash>
0.0218

> <Gold.Chemscore.DEInternal>
2.3706

> <Gold.Chemscore.Rot>
1.5546

> <Gold.Chemscore.Internal.Correction>
   9.000000E+99

> <Gold.Chemscore.Hbonds>
donor molecule, donor type, donor heavy atom, donor atom, acceptor molecule, acceptor atom, score
      L1  H     2    38       P1  7948  0.65
      P1  H  6896  6909       L1     9  0.67
      P1  H  6931  6943       L1    11  0.55
      P1  H  6934  6947       L1     8  0.07

> <Gold.Chemscore.Hbond.Weighted>
-9.2655

> <Gold.Chemscore.Metal.Weighted>
-0.0000

> <Gold.Chemscore.Lipo.Weighted>
-7.3767

> <Gold.Chemscore.Internal_Hbond.Weighted>
0.0000

> <Gold.Chemscore.DEClash.Weighted>
0.0218

> <Gold.Chemscore.DEInternal.Weighted>
2.3706

> <Gold.Chemscore.Rot.Weighted>
3.9798

> <Gold.Chemscore.Internal.Correction.Weighted>
   9.000000E+99

> <Gold.Protein.RotatedTorsions>
[ 6907 6896 6895 6894 ] final   60.26 input  -60.11 | X-H torsion
[ 7974 7965 7964 7962 ] final -110.71 input  175.53 | X-H torsion
[ 8008 7997 7996 7995 ] final  -49.83 input   59.86 | X-H torsion
[ 10167 10162 10161 10158 ] final    6.73 input  -65.29 | X-H torsion
[ 10718 10713 10712 10709 ] final   97.74 input   66.30 | X-H torsion
[ 10763 10752 10751 10750 ] final  125.14 input  -60.55 | X-H torsion
[ 11005 11000 10999 10996 ] final   40.15 input  -57.11 | X-H torsion

> <Gold.Protein.ActiveResidues>
 VAL166  LYS551  ARG553  GLY616  TRP617  ASP618  TYR619  PRO620  LYS621  CYS622 
 ASP623  PHE694  ASN695  SER759  ASP760  ASP761  ALA762  ILE779  LEU786  VAL792 
 PHE793  MET794  SER795  GLU796  ALA797  LYS798  CYS799  TRP800  GLU811  SER814 

> <Gold.Protein.RotatedAtoms>
  152.3988  134.6321  160.0078 H   0  0  0  0  0  0  0  0  0  0  0  0  # atno 6907 bound_to 6896
  151.6533  133.3314  159.3165 H   0  0  0  0  0  0  0  0  0  0  0  0  # atno 6908 bound_to 6896
  150.7891  134.6943  159.6559 H   0  0  0  0  0  0  0  0  0  0  0  0  # atno 6909 bound_to 6896
  145.1650  140.8897  143.3569 H   0  0  0  0  0  0  0  0  0  0  0  0  # atno 7974 bound_to 7965
  154.4051  140.1287  156.4567 H   0  0  0  0  0  0  0  0  0  0  0  0  # atno 8008 bound_to 7997
  155.7313  140.3491  155.5041 H   0  0  0  0  0  0  0  0  0  0  0  0  # atno 8009 bound_to 7997
  155.9125  140.1038  157.1259 H   0  0  0  0  0  0  0  0  0  0  0  0  # atno 8010 bound_to 7997
  140.6411  143.7771  150.7430 H   0  0  0  0  0  0  0  0  0  0  0  0  # atno 10167 bound_to 10162
  157.6907  131.0619  150.4690 H   0  0  0  0  0  0  0  0  0  0  0  0  # atno 10718 bound_to 10713
  153.6725  135.3328  155.3157 H   0  0  0  0  0  0  0  0  0  0  0  0  # atno 10763 bound_to 10752
  154.8487  135.4390  154.1690 H   0  0  0  0  0  0  0  0  0  0  0  0  # atno 10764 bound_to 10752
  153.2685  135.6998  153.7581 H   0  0  0  0  0  0  0  0  0  0  0  0  # atno 10765 bound_to 10752
  140.1958  134.3930  155.8122 H   0  0  0  0  0  0  0  0  0  0  0  0  # atno 11005 bound_to 11000
  145.0292  139.3356  143.6033 LP  0  0  0  0  0  0  0  0  0  0  0  0  # atno 17320 bound_to 7965
  146.3477  139.9623  142.8716 LP  0  0  0  0  0  0  0  0  0  0  0  0  # atno 17321 bound_to 7965
  140.1403  143.4447  152.2198 LP  0  0  0  0  0  0  0  0  0  0  0  0  # atno 17342 bound_to 10162
  139.5621  144.7412  151.4126 LP  0  0  0  0  0  0  0  0  0  0  0  0  # atno 17343 bound_to 10162
  156.5029  130.4121  149.6343 LP  0  0  0  0  0  0  0  0  0  0  0  0  # atno 17370 bound_to 10713
  156.3311  130.7332  151.2262 LP  0  0  0  0  0  0  0  0  0  0  0  0  # atno 17371 bound_to 10713
  141.2227  133.7069  156.8174 LP  0  0  0  0  0  0  0  0  0  0  0  0  # atno 17394 bound_to 11000
  140.2109  134.8828  157.3273 LP  0  0  0  0  0  0  0  0  0  0  0  0  # atno 17395 bound_to 11000

$$$$
