AV-unprocessed.smi:1460|AV-procd|sdf|5929|dock1
  -GOLD-   22720 6 13D 1   1.00000     0.00000
 Structure written by MMmdl.
 41 42  0  0  0  0  0  0  0  0  1 V2000
  150.0917  143.9035  158.9771 C   0  0  0  0  0  0  0  0  0  0  0  0
  151.1893  144.2809  157.9734 C   0  0  1  0  0  0  0  0  0  0  0  0
  152.5649  144.4016  158.6646 C   0  0  0  0  0  0  0  0  0  0  0  0
  152.6781  143.5611  159.8437 N   0  0  0  0  0  0  0  0  0  0  0  0
  153.1928  142.2851  159.9414 C   0  0  0  0  0  0  0  0  0  0  0  0
  153.1080  141.9125  161.2522 C   0  0  0  0  0  0  0  0  0  0  0  0
  152.5151  143.0403  161.8860 C   0  0  0  0  0  0  0  0  0  0  0  0
  152.2551  144.0236  161.0398 N   0  0  0  0  0  0  0  0  0  0  0  0
  151.2267  143.2756  156.9117 N   0  0  0  0  0  0  0  0  0  0  0  0
  151.1002  141.9495  157.0820 C   0  0  0  0  0  0  0  0  0  0  0  0
  150.9618  141.4181  158.1843 O   0  0  0  0  0  0  0  0  0  0  0  0
  151.1116  141.0939  155.8096 C   0  0  0  0  0  0  0  0  0  0  0  0
  149.7185  140.4723  155.5545 C   0  0  0  0  0  0  0  0  0  0  0  0
  149.7522  139.5058  154.3566 C   0  0  0  0  0  0  0  0  0  0  0  0
  150.7696  138.4714  154.6084 N   0  0  0  0  0  0  0  0  0  0  0  0
  150.5309  137.1803  154.9511 C   0  0  0  0  0  0  0  0  0  0  0  0
  149.2926  136.7428  154.7017 N   0  0  0  0  0  0  0  0  0  0  0  0
  151.3834  136.4280  155.4202 O   0  0  0  0  0  0  0  0  0  0  0  0
  152.1161  139.0531  154.6704 C   0  0  0  0  0  0  0  0  0  0  0  0
  152.1990  139.9969  155.8834 C   0  0  0  0  0  0  0  0  0  0  0  0
  150.0139  144.6478  159.7701 H   0  0  0  0  0  0  0  0  0  0  0  0
  150.2935  142.9393  159.4449 H   0  0  0  0  0  0  0  0  0  0  0  0
  149.1181  143.8411  158.4897 H   0  0  0  0  0  0  0  0  0  0  0  0
  150.9194  145.2523  157.5544 H   0  0  0  0  0  0  0  0  0  0  0  0
  153.3588  144.1178  157.9720 H   0  0  0  0  0  0  0  0  0  0  0  0
  152.7602  145.4356  158.9520 H   0  0  0  0  0  0  0  0  0  0  0  0
  153.5804  141.7590  159.0817 H   0  0  0  0  0  0  0  0  0  0  0  0
  153.4234  140.9783  161.6923 H   0  0  0  0  0  0  0  0  0  0  0  0
  152.2672  143.1726  162.9286 H   0  0  0  0  0  0  0  0  0  0  0  0
  151.3387  143.6187  155.9685 H   0  0  0  0  0  0  0  0  0  0  0  0
  151.3482  141.7382  154.9607 H   0  0  0  0  0  0  0  0  0  0  0  0
  149.3747  139.9329  156.4388 H   0  0  0  0  0  0  0  0  0  0  0  0
  148.9863  141.2597  155.3705 H   0  0  0  0  0  0  0  0  0  0  0  0
  148.7529  139.1091  154.1781 H   0  0  0  0  0  0  0  0  0  0  0  0
  150.0133  140.0495  153.4474 H   0  0  0  0  0  0  0  0  0  0  0  0
  149.0382  135.7932  154.9303 H   0  0  0  0  0  0  0  0  0  0  0  0
  148.6170  137.3673  154.2862 H   0  0  0  0  0  0  0  0  0  0  0  0
  152.8985  138.2953  154.7335 H   0  0  0  0  0  0  0  0  0  0  0  0
  152.3146  139.6051  153.7505 H   0  0  0  0  0  0  0  0  0  0  0  0
  153.1887  140.4533  155.9264 H   0  0  0  0  0  0  0  0  0  0  0  0
  152.0890  139.4115  156.7977 H   0  0  0  0  0  0  0  0  0  0  0  0
  1  2  1  0  0  0  0
  1 21  1  0  0  0  0
  1 22  1  0  0  0  0
  1 23  1  0  0  0  0
  2  3  1  0  0  0  0
  2  9  1  0  0  0  0
  2 24  1  0  0  0  0
  3  4  1  0  0  0  0
  3 25  1  0  0  0  0
  3 26  1  0  0  0  0
  4  8  1  0  0  0  0
  4  5  1  0  0  0  0
  5  6  2  0  0  0  0
  5 27  1  0  0  0  0
  6  7  1  0  0  0  0
  6 28  1  0  0  0  0
  7  8  2  0  0  0  0
  7 29  1  0  0  0  0
  9 10  1  0  0  0  0
  9 30  1  0  0  0  0
 10 11  2  0  0  0  0
 10 12  1  0  0  0  0
 12 20  1  0  0  0  0
 12 13  1  0  0  0  0
 12 31  1  0  0  0  0
 13 14  1  0  0  0  0
 13 32  1  0  0  0  0
 13 33  1  0  0  0  0
 14 15  1  0  0  0  0
 14 34  1  0  0  0  0
 14 35  1  0  0  0  0
 15 16  1  0  0  0  0
 15 19  1  0  0  0  0
 16 17  1  0  0  0  0
 16 18  2  0  0  0  0
 17 36  1  0  0  0  0
 17 37  1  0  0  0  0
 19 20  1  0  0  0  0
 19 38  1  0  0  0  0
 19 39  1  0  0  0  0
 20 40  1  0  0  0  0
 20 41  1  0  0  0  0
M  END
> <s_m_source_file>
AV-unprocessed.smi

> <i_m_source_file_index>
1460

> <i_lp_mmshare_version>
43012

> <i_f3d_flags>
0

> <s_epik_input>
bjFbY0hdW2NIXVtjSF1uMVtDSDJdW0NAQEhdKFtDSDNdKVtOSF1DKD1PKVtDSF0yW0NIMl1bQ0gyXU4oQyg9TylbTkgyXSlbQ0gyXVtDSDJdMg==

> <s_epik_cmdline>
J2VwaWtfcHl0aG9uJywgJy1waCcsICc3LjAnLCAnLXRuJywgJzgnLCAnLW1hJywgJzIwMCcsICctbWV0YWxfYmluZGluZycsICctaW1hZScsICc8aW5maWxlLm1hZT4nLCAnLW9tYWUnLCAnPG91dGZpbGUubWFlPic=

> <r_lp_tautomer_probability>
1

> <r_epik_Ionization_Penalty>
0.000387527

> <r_epik_Ionization_Penalty_Charging>
0

> <r_epik_Ionization_Penalty_Neutral>
0.000387527

> <r_epik_State_Penalty>
-0

> <r_epik_Charging_Adjusted_Penalty>
0

> <i_epik_Tot_Q>
0

> <i_epik_Tot_abs_Q>
0

> <r_epik_Metal_State_Penalty>
-0

> <b_epik_Metal_Only>
0

> <s_lp_Force_Field>
OPLS_2005

> <r_lp_Energy>
25.9922

> <b_lp_Chiralities_Consistent>
1

> <s_lp_Variant>
AV-unprocessed.smi:1460-2

> <Gold.Version>
5.8.1

> <Gold.Id.Protein>
6NUR|6NUR_protein|mol2

> <Gold.PLP.Fitness>
49.7068

> <Gold.PLP.PLP>
-49.0853

> <Gold.PLP.part.hbond>
-2.9563

> <Gold.PLP.part.metal>
0.0000

> <Gold.PLP.part.buried>
-3.0948

> <Gold.PLP.part.nonpolar>
-42.4434

> <Gold.PLP.part.repulsive>
0.2513

> <Gold.PLP.ligand.clash>
0.0006

> <Gold.PLP.ligand.torsion>
1.2419

> <Gold.PLP.Chemscore.Hbond>
1.0000

> <Gold.PLP.Chemscore.CHOScore>
0.0000

> <Gold.PLP.Chemscore.Metal>
0.0000

> <Gold.Chemscore.Hbonds>
donor molecule, donor type, donor heavy atom, donor atom, acceptor molecule, acceptor atom, score
      P1  H 10752 10765       L1    18  1.00

> <Gold.PLP.Chemscore.Internal.Correction>
0.1057

> <Gold.Rescore>
     Score         DG    S(hbond)    S(metal)    S(lipo)     H(rot)  DE(clash)    DE(int)     intcor
     13.04     -16.38       1.29        0.00      96.31       1.82       0.42       2.93       ----

> <Gold.Chemscore.Fitness>
13.0386

> <Gold.Chemscore.DG>
-16.3837

> <Gold.Chemscore.ZeroCoef>
-5.4800

> <Gold.Chemscore.Hbond>
1.2864

> <Gold.Chemscore.Metal>
0.0000

> <Gold.Chemscore.Lipo>
96.3068

> <Gold.Chemscore.Internal_Hbond>
0.0000

> <Gold.Chemscore.DEClash>
0.4166

> <Gold.Chemscore.DEInternal>
2.9285

> <Gold.Chemscore.Rot>
1.8206

> <Gold.Chemscore.Internal.Correction>
   9.000000E+99

> <Gold.Chemscore.Hbonds>
donor molecule, donor type, donor heavy atom, donor atom, acceptor molecule, acceptor atom, score
      P1  H 10752 10765       L1    18  0.99

> <Gold.Chemscore.Hbond.Weighted>
-4.2965

> <Gold.Chemscore.Metal.Weighted>
-0.0000

> <Gold.Chemscore.Lipo.Weighted>
-11.2679

> <Gold.Chemscore.Internal_Hbond.Weighted>
0.0000

> <Gold.Chemscore.DEClash.Weighted>
0.4166

> <Gold.Chemscore.DEInternal.Weighted>
2.9285

> <Gold.Chemscore.Rot.Weighted>
4.6607

> <Gold.Chemscore.Internal.Correction.Weighted>
   9.000000E+99

> <Gold.Protein.RotatedTorsions>
[ 6907 6896 6895 6894 ] final  -83.86 input  -60.11 | X-H torsion
[ 7974 7965 7964 7962 ] final -113.89 input  175.53 | X-H torsion
[ 8008 7997 7996 7995 ] final -143.38 input   59.86 | X-H torsion
[ 10167 10162 10161 10158 ] final   76.07 input  -65.29 | X-H torsion
[ 10718 10713 10712 10709 ] final  169.74 input   66.30 | X-H torsion
[ 10763 10752 10751 10750 ] final -174.95 input  -60.55 | X-H torsion
[ 11005 11000 10999 10996 ] final   -5.22 input  -57.11 | X-H torsion

> <Gold.Protein.ActiveResidues>
 VAL166  LYS551  ARG553  GLY616  TRP617  ASP618  TYR619  PRO620  LYS621  CYS622 
 ASP623  PHE694  ASN695  SER759  ASP760  ASP761  ALA762  ILE779  LEU786  VAL792 
 PHE793  MET794  SER795  GLU796  ALA797  LYS798  CYS799  TRP800  GLU811  SER814 

> <Gold.Protein.RotatedAtoms>
  150.6881  134.3447  159.4883 H   0  0  0  0  0  0  0  0  0  0  0  0  # atno 6907 bound_to 6896
  152.1296  134.9142  160.0568 H   0  0  0  0  0  0  0  0  0  0  0  0  # atno 6908 bound_to 6896
  152.0317  133.3905  159.4337 H   0  0  0  0  0  0  0  0  0  0  0  0  # atno 6909 bound_to 6896
  145.1266  140.8700  143.3782 H   0  0  0  0  0  0  0  0  0  0  0  0  # atno 7974 bound_to 7965
  155.5097  140.0582  157.2925 H   0  0  0  0  0  0  0  0  0  0  0  0  # atno 8008 bound_to 7997
  154.4556  140.1971  156.0337 H   0  0  0  0  0  0  0  0  0  0  0  0  # atno 8009 bound_to 7997
  156.0793  140.3249  155.7677 H   0  0  0  0  0  0  0  0  0  0  0  0  # atno 8010 bound_to 7997
  139.9962  144.5720  150.7776 H   0  0  0  0  0  0  0  0  0  0  0  0  # atno 10167 bound_to 10162
  157.0183  131.0224  151.2782 H   0  0  0  0  0  0  0  0  0  0  0  0  # atno 10718 bound_to 10713
  154.5902  135.2844  155.0644 H   0  0  0  0  0  0  0  0  0  0  0  0  # atno 10763 bound_to 10752
  154.1947  135.6434  153.5074 H   0  0  0  0  0  0  0  0  0  0  0  0  # atno 10764 bound_to 10752
  153.0118  135.5454  154.6585 H   0  0  0  0  0  0  0  0  0  0  0  0  # atno 10765 bound_to 10752
  140.6888  133.9090  155.8604 H   0  0  0  0  0  0  0  0  0  0  0  0  # atno 11005 bound_to 11000
  145.0681  139.3053  143.5846 LP  0  0  0  0  0  0  0  0  0  0  0  0  # atno 17320 bound_to 7965
  146.3517  140.0146  142.8664 LP  0  0  0  0  0  0  0  0  0  0  0  0  # atno 17321 bound_to 7965
  140.7436  143.2849  151.3493 LP  0  0  0  0  0  0  0  0  0  0  0  0  # atno 17342 bound_to 10162
  139.6304  144.0731  152.2471 LP  0  0  0  0  0  0  0  0  0  0  0  0  # atno 17343 bound_to 10162
  157.5269  130.8033  149.7872 LP  0  0  0  0  0  0  0  0  0  0  0  0  # atno 17370 bound_to 10713
  156.0111  130.3833  150.2261 LP  0  0  0  0  0  0  0  0  0  0  0  0  # atno 17371 bound_to 10713
  141.0258  134.0825  157.4069 LP  0  0  0  0  0  0  0  0  0  0  0  0  # atno 17394 bound_to 11000
  139.8930  135.0128  156.6874 LP  0  0  0  0  0  0  0  0  0  0  0  0  # atno 17395 bound_to 11000

$$$$
