AV-unprocessed.smi:212|AV-procd|sdf|1625|dock1
  -GOLD-   2262019563D 1   1.00000     0.00000
 Structure written by MMmdl.
 65 68  0  0  0  0  0  0  0  0  2 V2000
  149.9547  133.2745  155.8037 C   0  0  0  0  0  0  0  0  0  0  0  0
  148.5721  133.8294  155.4076 C   0  0  2  0  0  0  0  0  0  0  0  0
  148.2989  133.7031  153.8949 C   0  0  0  0  0  0  0  0  0  0  0  0
  146.9361  134.1898  153.5598 N   0  3  2  0  0  0  0  0  0  0  0  0
  146.5693  133.9780  152.1349 C   0  0  0  0  0  0  0  0  0  0  0  0
  145.6879  132.7241  151.9362 C   0  0  0  0  0  0  0  0  0  0  0  0
  145.4530  132.4742  150.4370 C   0  0  0  0  0  0  0  0  0  0  0  0
  146.2844  131.4679  152.5976 C   0  0  0  0  0  0  0  0  0  0  0  0
  144.4199  132.9717  152.5124 O   0  0  0  0  0  0  0  0  0  0  0  0
  146.6987  135.5799  154.0246 C   0  0  0  0  0  0  0  0  0  0  0  0
  147.0104  135.7322  155.5275 C   0  0  0  0  0  0  0  0  0  0  0  0
  148.3246  135.1976  155.8751 N   0  0  0  0  0  0  0  0  0  0  0  0
  149.3436  136.0855  155.7951 C   0  0  0  0  0  0  0  0  0  0  0  0
  150.2577  135.9932  154.7948 N   0  0  0  0  0  0  0  0  0  0  0  0
  151.2707  136.8630  154.7348 C   0  0  0  0  0  0  0  0  0  0  0  0
  151.5516  137.8750  155.5586 N   0  0  0  0  0  0  0  0  0  0  0  0
  150.6354  137.9660  156.5648 C   0  0  0  0  0  0  0  0  0  0  0  0
  149.5068  137.1208  156.7517 C   0  0  0  0  0  0  0  0  0  0  0  0
  148.7948  137.5127  157.8775 N   0  0  0  0  0  0  0  0  0  0  0  0
  149.4667  138.5342  158.3348 C   0  0  0  0  0  0  0  0  0  0  0  0
  150.5982  138.8608  157.6204 N   0  0  0  0  0  0  0  0  0  0  0  0
  151.5221  139.9406  157.9133 C   0  0  0  0  0  0  0  0  0  0  0  0
  150.9063  141.3635  157.7955 C   0  0  2  0  0  0  0  0  0  0  0  0
  150.3835  141.5936  156.3601 C   0  0  0  0  0  0  0  0  0  0  0  0
  149.2178  142.3923  156.3625 O   0  0  0  0  0  0  0  0  0  0  0  0
  151.8176  142.5544  158.2191 C   0  0  1  0  0  0  0  0  0  0  0  0
  151.2855  143.9650  158.0362 C   0  0  0  0  0  0  0  0  0  0  0  0
  152.3021  144.7761  158.8338 C   0  0  0  0  0  0  0  0  0  0  0  0
  152.7335  143.9281  159.8959 O   0  0  0  0  0  0  0  0  0  0  0  0
  152.2935  142.5908  159.6731 C   0  0  0  0  0  0  0  0  0  0  0  0
  150.0425  132.2225  155.5312 H   0  0  0  0  0  0  0  0  0  0  0  0
  150.1141  133.3468  156.8800 H   0  0  0  0  0  0  0  0  0  0  0  0
  150.7668  133.8070  155.3071 H   0  0  0  0  0  0  0  0  0  0  0  0
  147.8353  133.2098  155.9208 H   0  0  0  0  0  0  0  0  0  0  0  0
  149.0390  134.2626  153.3212 H   0  0  0  0  0  0  0  0  0  0  0  0
  148.3916  132.6589  153.5936 H   0  0  0  0  0  0  0  0  0  0  0  0
  146.0454  134.8545  151.7487 H   0  0  0  0  0  0  0  0  0  0  0  0
  147.4701  133.8920  151.5246 H   0  0  0  0  0  0  0  0  0  0  0  0
  146.3917  132.2733  149.9195 H   0  0  0  0  0  0  0  0  0  0  0  0
  144.9911  133.3374  149.9557 H   0  0  0  0  0  0  0  0  0  0  0  0
  144.7981  131.6177  150.2722 H   0  0  0  0  0  0  0  0  0  0  0  0
  147.2759  131.2480  152.2004 H   0  0  0  0  0  0  0  0  0  0  0  0
  145.6585  130.5925  152.4197 H   0  0  0  0  0  0  0  0  0  0  0  0
  146.3793  131.5816  153.6780 H   0  0  0  0  0  0  0  0  0  0  0  0
  143.9125  133.4971  151.9118 H   0  0  0  0  0  0  0  0  0  0  0  0
  147.3089  136.2659  153.4365 H   0  0  0  0  0  0  0  0  0  0  0  0
  145.6590  135.8528  153.8414 H   0  0  0  0  0  0  0  0  0  0  0  0
  146.9348  136.7794  155.8247 H   0  0  0  0  0  0  0  0  0  0  0  0
  146.2638  135.1932  156.1120 H   0  0  0  0  0  0  0  0  0  0  0  0
  151.9567  136.7279  153.9115 H   0  0  0  0  0  0  0  0  0  0  0  0
  149.1614  139.0741  159.2195 H   0  0  0  0  0  0  0  0  0  0  0  0
  151.9529  139.7862  158.9023 H   0  0  0  0  0  0  0  0  0  0  0  0
  152.3528  139.8349  157.2149 H   0  0  0  0  0  0  0  0  0  0  0  0
  150.0343  141.4018  158.4498 H   0  0  0  0  0  0  0  0  0  0  0  0
  151.1273  142.1098  155.7523 H   0  0  0  0  0  0  0  0  0  0  0  0
  150.1714  140.6446  155.8669 H   0  0  0  0  0  0  0  0  0  0  0  0
  149.4395  143.2501  156.0327 H   0  0  0  0  0  0  0  0  0  0  0  0
  152.7127  142.5100  157.5962 H   0  0  0  0  0  0  0  0  0  0  0  0
  151.2290  144.2689  156.9906 H   0  0  0  0  0  0  0  0  0  0  0  0
  150.3044  144.1025  158.4810 H   0  0  0  0  0  0  0  0  0  0  0  0
  153.1650  145.0196  158.2130 H   0  0  0  0  0  0  0  0  0  0  0  0
  151.8843  145.7092  159.2128 H   0  0  0  0  0  0  0  0  0  0  0  0
  151.4830  142.3910  160.3714 H   0  0  0  0  0  0  0  0  0  0  0  0
  153.0908  141.8736  159.8686 H   0  0  0  0  0  0  0  0  0  0  0  0
  146.2972  133.6148  154.0906 H   0  0  0  0  0  0  0  0  0  0  0  0
  1  2  1  0  0  0  0
  1 31  1  0  0  0  0
  1 32  1  0  0  0  0
  1 33  1  0  0  0  0
  2 12  1  0  0  0  0
  2  3  1  0  0  0  0
  2 34  1  0  0  0  0
  3  4  1  0  0  0  0
  3 35  1  0  0  0  0
  3 36  1  0  0  0  0
  4  5  1  0  0  0  0
  4 10  1  0  0  0  0
  4 65  1  0  0  0  0
  5  6  1  0  0  0  0
  5 37  1  0  0  0  0
  5 38  1  0  0  0  0
  6  7  1  0  0  0  0
  6  8  1  0  0  0  0
  6  9  1  0  0  0  0
  7 39  1  0  0  0  0
  7 40  1  0  0  0  0
  7 41  1  0  0  0  0
  8 42  1  0  0  0  0
  8 43  1  0  0  0  0
  8 44  1  0  0  0  0
  9 45  1  0  0  0  0
 10 11  1  0  0  0  0
 10 46  1  0  0  0  0
 10 47  1  0  0  0  0
 11 12  1  0  0  0  0
 11 48  1  0  0  0  0
 11 49  1  0  0  0  0
 12 13  1  0  0  0  0
 13 18  1  0  0  0  0
 13 14  2  0  0  0  0
 14 15  1  0  0  0  0
 15 16  2  0  0  0  0
 15 50  1  0  0  0  0
 16 17  1  0  0  0  0
 17 21  1  0  0  0  0
 17 18  2  0  0  0  0
 18 19  1  0  0  0  0
 19 20  2  0  0  0  0
 20 21  1  0  0  0  0
 20 51  1  0  0  0  0
 21 22  1  0  0  0  0
 22 23  1  0  0  0  0
 22 52  1  0  0  0  0
 22 53  1  0  0  0  0
 23 24  1  0  0  0  0
 23 26  1  0  0  0  0
 23 54  1  0  0  0  0
 24 25  1  0  0  0  0
 24 55  1  0  0  0  0
 24 56  1  0  0  0  0
 25 57  1  0  0  0  0
 26 30  1  0  0  0  0
 26 27  1  0  0  0  0
 26 58  1  0  0  0  0
 27 28  1  0  0  0  0
 27 59  1  0  0  0  0
 27 60  1  0  0  0  0
 28 29  1  0  0  0  0
 28 61  1  0  0  0  0
 28 62  1  0  0  0  0
 29 30  1  0  0  0  0
 30 63  1  0  0  0  0
 30 64  1  0  0  0  0
M  CHG  1   4   1
M  END
> <s_m_source_file>
AV-unprocessed.smi

> <i_m_source_file_index>
212

> <i_lp_mmshare_version>
43012

> <i_f3d_flags>
0

> <s_epik_input>
W0NIM11bQ0BASF0xW0NIMl1OKFtDSDJdQyhbQ0gzXSkoW0NIM10pW09IXSlbQ0gyXVtDSDJdTjFjKG5bY0hdbjIpYyhjMjMpbltjSF1uM1tDSDJdW0NASF0oW0NIMl1bT0hdKVtDQEBIXTRbQ0gyXVtDSDJdT1tDSDJdNA==

> <s_epik_cmdline>
J2VwaWtfcHl0aG9uJywgJy1waCcsICc3LjAnLCAnLXRuJywgJzgnLCAnLW1hJywgJzIwMCcsICctbWV0YWxfYmluZGluZycsICctaW1hZScsICc8aW5maWxlLm1hZT4nLCAnLW9tYWUnLCAnPG91dGZpbGUubWFlPic=

> <r_lp_tautomer_probability>
1

> <r_epik_Ionization_Penalty>
0.00182193

> <r_epik_Ionization_Penalty_Charging>
0.00173996

> <r_epik_Ionization_Penalty_Neutral>
8.19718e-05

> <r_epik_State_Penalty>
-0

> <r_epik_Charging_Adjusted_Penalty>
0.00173996

> <i_epik_Tot_Q>
1

> <i_epik_Tot_abs_Q>
1

> <r_epik_Metal_State_Penalty>
-0

> <b_epik_Metal_Only>
0

> <s_lp_Force_Field>
OPLS_2005

> <r_lp_Energy>
61.8926

> <b_lp_Chiralities_Consistent>
1

> <s_lp_Variant>
AV-unprocessed.smi:212-9

> <Gold.Version>
5.8.1

> <Gold.Id.Protein>
6NUR|6NUR_protein|mol2

> <Gold.PLP.Fitness>
44.0055

> <Gold.PLP.PLP>
-40.2761

> <Gold.PLP.part.hbond>
-2.0632

> <Gold.PLP.part.metal>
0.0000

> <Gold.PLP.part.buried>
-2.9485

> <Gold.PLP.part.nonpolar>
-36.2453

> <Gold.PLP.part.repulsive>
0.2867

> <Gold.PLP.ligand.clash>
0.0000

> <Gold.PLP.ligand.torsion>
1.6284

> <Gold.PLP.Chemscore.Hbond>
1.0000

> <Gold.PLP.Chemscore.CHOScore>
0.8241

> <Gold.PLP.Chemscore.Metal>
0.0000

> <Gold.Chemscore.Hbonds>
donor molecule, donor type, donor heavy atom, donor atom, acceptor molecule, acceptor atom, score
      L1  H    25    57       P1  8028  0.91
      L1  C    15    50       P1  7949  0.61

> <Gold.PLP.Chemscore.Internal.Correction>
1.5139

> <Gold.Rescore>
     Score         DG    S(hbond)    S(metal)    S(lipo)     H(rot)  DE(clash)    DE(int)     intcor
      9.03     -12.32       0.97        0.00     111.37       3.68       0.53       2.76       ----

> <Gold.Chemscore.Fitness>
9.0289

> <Gold.Chemscore.DG>
-12.3175

> <Gold.Chemscore.ZeroCoef>
-5.4800

> <Gold.Chemscore.Hbond>
0.9673

> <Gold.Chemscore.Metal>
0.0000

> <Gold.Chemscore.Lipo>
111.3737

> <Gold.Chemscore.Internal_Hbond>
0.0000

> <Gold.Chemscore.DEClash>
0.5300

> <Gold.Chemscore.DEInternal>
2.7585

> <Gold.Chemscore.Rot>
3.6812

> <Gold.Chemscore.Internal.Correction>
   9.000000E+99

> <Gold.Chemscore.Hbonds>
donor molecule, donor type, donor heavy atom, donor atom, acceptor molecule, acceptor atom, score
      L1  H    25    57       P1  8028  0.89

> <Gold.Chemscore.Hbond.Weighted>
-3.2307

> <Gold.Chemscore.Metal.Weighted>
-0.0000

> <Gold.Chemscore.Lipo.Weighted>
-13.0307

> <Gold.Chemscore.Internal_Hbond.Weighted>
0.0000

> <Gold.Chemscore.DEClash.Weighted>
0.5300

> <Gold.Chemscore.DEInternal.Weighted>
2.7585

> <Gold.Chemscore.Rot.Weighted>
9.4239

> <Gold.Chemscore.Internal.Correction.Weighted>
   9.000000E+99

> <Gold.Protein.RotatedTorsions>
[ 6907 6896 6895 6894 ] final   95.81 input  -60.11 | X-H torsion
[ 7974 7965 7964 7962 ] final -152.11 input  175.53 | X-H torsion
[ 8008 7997 7996 7995 ] final  -88.25 input   59.86 | X-H torsion
[ 10167 10162 10161 10158 ] final -170.27 input  -65.29 | X-H torsion
[ 10718 10713 10712 10709 ] final  164.02 input   66.30 | X-H torsion
[ 10763 10752 10751 10750 ] final  -78.18 input  -60.55 | X-H torsion
[ 11005 11000 10999 10996 ] final -108.56 input  -57.11 | X-H torsion

> <Gold.Protein.ActiveResidues>
 VAL166  LYS551  ARG553  GLY616  TRP617  ASP618  TYR619  PRO620  LYS621  CYS622 
 ASP623  PHE694  ASN695  SER759  ASP760  ASP761  ALA762  ILE779  LEU786  VAL792 
 PHE793  MET794  SER795  GLU796  ALA797  LYS798  CYS799  TRP800  GLU811  SER814 

> <Gold.Protein.RotatedAtoms>
  152.5440  134.0983  159.8306 H   0  0  0  0  0  0  0  0  0  0  0  0  # atno 6907 bound_to 6896
  151.1064  133.5198  159.2615 H   0  0  0  0  0  0  0  0  0  0  0  0  # atno 6908 bound_to 6896
  151.1933  135.0421  159.8896 H   0  0  0  0  0  0  0  0  0  0  0  0  # atno 6909 bound_to 6896
  144.7812  140.4707  143.5838 H   0  0  0  0  0  0  0  0  0  0  0  0  # atno 7974 bound_to 7965
  154.6727  140.0556  157.0182 H   0  0  0  0  0  0  0  0  0  0  0  0  # atno 8008 bound_to 7997
  155.1066  140.3234  155.4514 H   0  0  0  0  0  0  0  0  0  0  0  0  # atno 8009 bound_to 7997
  156.2663  140.2022  156.6191 H   0  0  0  0  0  0  0  0  0  0  0  0  # atno 8010 bound_to 7997
  139.5872  144.1293  152.1590 H   0  0  0  0  0  0  0  0  0  0  0  0  # atno 10167 bound_to 10162
  157.1002  131.0441  151.2501 H   0  0  0  0  0  0  0  0  0  0  0  0  # atno 10718 bound_to 10713
  154.5226  135.5738  153.6693 H   0  0  0  0  0  0  0  0  0  0  0  0  # atno 10763 bound_to 10752
  152.9920  135.6185  154.2735 H   0  0  0  0  0  0  0  0  0  0  0  0  # atno 10764 bound_to 10752
  154.2656  135.2855  155.2739 H   0  0  0  0  0  0  0  0  0  0  0  0  # atno 10765 bound_to 10752
  141.0895  133.9080  157.2108 H   0  0  0  0  0  0  0  0  0  0  0  0  # atno 11005 bound_to 11000
  145.6045  139.1507  143.3110 LP  0  0  0  0  0  0  0  0  0  0  0  0  # atno 17320 bound_to 7965
  146.2021  140.6164  142.9097 LP  0  0  0  0  0  0  0  0  0  0  0  0  # atno 17321 bound_to 7965
  140.0859  144.5661  150.7089 LP  0  0  0  0  0  0  0  0  0  0  0  0  # atno 17342 bound_to 10162
  140.7141  143.2530  151.4488 LP  0  0  0  0  0  0  0  0  0  0  0  0  # atno 17343 bound_to 10162
  157.4647  130.7673  149.7268 LP  0  0  0  0  0  0  0  0  0  0  0  0  # atno 17370 bound_to 10713
  155.9875  130.3966  150.3160 LP  0  0  0  0  0  0  0  0  0  0  0  0  # atno 17371 bound_to 10713
  139.9719  135.0126  156.9532 LP  0  0  0  0  0  0  0  0  0  0  0  0  # atno 17394 bound_to 11000
  140.5285  134.0837  155.7309 LP  0  0  0  0  0  0  0  0  0  0  0  0  # atno 17395 bound_to 11000

$$$$
