AV-unprocessed.smi:3104|AV-procd|sdf|11817|dock3
  -GOLD-   2272017183D 1   1.00000     0.00000
 Structure written by MMmdl.
 37 38  0  0  0  0  0  0  0  0  2 V2000
  145.5924  143.0479  154.1070 C   0  0  0  0  0  0  0  0  0  0  0  0
  146.7418  142.0821  154.1118 C   0  0  0  0  0  0  0  0  0  0  0  0
  146.9061  140.9156  153.3133 C   0  0  0  0  0  0  0  0  0  0  0  0
  148.0446  140.2863  153.5523 N   0  0  0  0  0  0  0  0  0  0  0  0
  148.6401  141.0129  154.5229 N   0  0  0  0  0  0  0  0  0  0  0  0
  149.9566  140.6173  155.0117 C   0  0  2  0  0  0  0  0  0  0  0  0
  150.1732  139.1107  154.7741 C   0  0  0  0  0  0  0  0  0  0  0  0
  150.1582  141.0426  156.4914 C   0  0  1  0  0  0  0  0  0  0  0  0
  151.1856  140.1648  157.2254 C   0  0  0  0  0  0  0  0  0  0  0  0
  150.6011  142.4548  156.5731 N   0  3  0  0  0  0  0  0  0  0  0  0
  150.8000  142.9656  157.9444 C   0  0  0  0  0  0  0  0  0  0  0  0
  151.3042  144.3929  157.9270 C   0  0  0  0  0  0  0  0  0  0  0  0
  152.7883  144.6728  157.9894 C   0  0  0  0  0  0  0  0  0  0  0  0
  151.9078  145.0171  159.1645 C   0  0  0  0  0  0  0  0  0  0  0  0
  147.8766  142.1096  154.8717 C   0  0  0  0  0  0  0  0  0  0  0  0
  144.7251  142.6441  153.5840 H   0  0  0  0  0  0  0  0  0  0  0  0
  145.8569  143.9839  153.6148 H   0  0  0  0  0  0  0  0  0  0  0  0
  145.2698  143.2950  155.1186 H   0  0  0  0  0  0  0  0  0  0  0  0
  146.2388  140.5149  152.5642 H   0  0  0  0  0  0  0  0  0  0  0  0
  150.6981  141.1429  154.4064 H   0  0  0  0  0  0  0  0  0  0  0  0
  151.2069  138.8189  154.9576 H   0  0  0  0  0  0  0  0  0  0  0  0
  149.9481  138.8422  153.7412 H   0  0  0  0  0  0  0  0  0  0  0  0
  149.5371  138.5056  155.4208 H   0  0  0  0  0  0  0  0  0  0  0  0
  149.2078  140.9383  157.0179 H   0  0  0  0  0  0  0  0  0  0  0  0
  150.8507  139.1308  157.3047 H   0  0  0  0  0  0  0  0  0  0  0  0
  151.3487  140.5225  158.2427 H   0  0  0  0  0  0  0  0  0  0  0  0
  152.1492  140.1670  156.7148 H   0  0  0  0  0  0  0  0  0  0  0  0
  151.4748  142.5463  156.0748 H   0  0  0  0  0  0  0  0  0  0  0  0
  149.8675  142.9176  158.5074 H   0  0  0  0  0  0  0  0  0  0  0  0
  151.5267  142.3382  158.4616 H   0  0  0  0  0  0  0  0  0  0  0  0
  150.7366  145.0550  157.2755 H   0  0  0  0  0  0  0  0  0  0  0  0
  153.4620  143.8254  158.1006 H   0  0  0  0  0  0  0  0  0  0  0  0
  153.1709  145.4965  157.3901 H   0  0  0  0  0  0  0  0  0  0  0  0
  151.7021  146.0697  159.3476 H   0  0  0  0  0  0  0  0  0  0  0  0
  151.9974  144.3984  160.0553 H   0  0  0  0  0  0  0  0  0  0  0  0
  148.2018  142.8170  155.6204 H   0  0  0  0  0  0  0  0  0  0  0  0
  149.9078  143.0281  156.1126 H   0  0  0  0  0  0  0  0  0  0  0  0
  1  2  1  0  0  0  0
  1 16  1  0  0  0  0
  1 17  1  0  0  0  0
  1 18  1  0  0  0  0
  2 15  2  0  0  0  0
  2  3  1  0  0  0  0
  3  4  2  0  0  0  0
  3 19  1  0  0  0  0
  4  5  1  0  0  0  0
  5  6  1  0  0  0  0
  5 15  1  0  0  0  0
  6  7  1  0  0  0  0
  6  8  1  0  0  0  0
  6 20  1  0  0  0  0
  7 21  1  0  0  0  0
  7 22  1  0  0  0  0
  7 23  1  0  0  0  0
  8  9  1  0  0  0  0
  8 10  1  0  0  0  0
  8 24  1  0  0  0  0
  9 25  1  0  0  0  0
  9 26  1  0  0  0  0
  9 27  1  0  0  0  0
 10 11  1  0  0  0  0
 10 28  1  0  0  0  0
 10 37  1  0  0  0  0
 11 12  1  0  0  0  0
 11 29  1  0  0  0  0
 11 30  1  0  0  0  0
 12 14  1  0  0  0  0
 12 13  1  0  0  0  0
 12 31  1  0  0  0  0
 13 14  1  0  0  0  0
 13 32  1  0  0  0  0
 13 33  1  0  0  0  0
 14 34  1  0  0  0  0
 14 35  1  0  0  0  0
 15 36  1  0  0  0  0
M  CHG  1  10   1
M  END
> <s_m_source_file>
AV-unprocessed.smi

> <i_m_source_file_index>
3104

> <i_lp_mmshare_version>
43012

> <i_f3d_flags>
0

> <s_epik_input>
W0NIM11jMVtjSF1ubihbY0hdMSlbQ0BIXShbQ0gzXSlbQ0BIXShbQ0gzXSlbTkhdW0NIMl1bQ0hdMltDSDJdW0NIMl0y

> <s_epik_cmdline>
J2VwaWtfcHl0aG9uJywgJy1waCcsICc3LjAnLCAnLXRuJywgJzgnLCAnLW1hJywgJzIwMCcsICctbWV0YWxfYmluZGluZycsICctaW1hZScsICc8aW5maWxlLm1hZT4nLCAnLW9tYWUnLCAnPG91dGZpbGUubWFlPic=

> <r_lp_tautomer_probability>
1

> <r_epik_Ionization_Penalty>
0.00120445

> <r_epik_Ionization_Penalty_Charging>
0.00118273

> <r_epik_Ionization_Penalty_Neutral>
2.17265e-05

> <r_epik_State_Penalty>
-0

> <r_epik_Charging_Adjusted_Penalty>
0.00118273

> <i_epik_Tot_Q>
1

> <i_epik_Tot_abs_Q>
1

> <r_epik_Metal_State_Penalty>
-0

> <b_epik_Metal_Only>
0

> <s_lp_Force_Field>
OPLS_2005

> <r_lp_Energy>
20.7188

> <b_lp_Chiralities_Consistent>
1

> <s_lp_Variant>
AV-unprocessed.smi:3104-3

> <Gold.Version>
5.8.1

> <Gold.Id.Protein>
6NUR|6NUR_protein|mol2

> <Gold.PLP.Fitness>
46.8815

> <Gold.PLP.PLP>
-37.7970

> <Gold.PLP.part.hbond>
-1.0000

> <Gold.PLP.part.metal>
0.0000

> <Gold.PLP.part.buried>
-2.6171

> <Gold.PLP.part.nonpolar>
-37.2468

> <Gold.PLP.part.repulsive>
1.9890

> <Gold.PLP.ligand.clash>
0.0000

> <Gold.PLP.ligand.torsion>
1.6037

> <Gold.PLP.Chemscore.Hbond>
2.0000

> <Gold.PLP.Chemscore.CHOScore>
1.8905

> <Gold.PLP.Chemscore.Metal>
0.0000

> <Gold.Chemscore.Hbonds>
donor molecule, donor type, donor heavy atom, donor atom, acceptor molecule, acceptor atom, score
      L1  H    10    37       P1  8028  2.00
      L1  C     3    19       P1 10175  0.96
      L1  C    15    36       P1  8028  0.94

> <Gold.PLP.Chemscore.Internal.Correction>
0.6202

> <Gold.Rescore>
     Score         DG    S(hbond)    S(metal)    S(lipo)     H(rot)  DE(clash)    DE(int)     intcor
     13.60     -16.86       0.95        0.00     102.74       1.49       1.52       1.74       ----

> <Gold.Chemscore.Fitness>
13.5983

> <Gold.Chemscore.DG>
-16.8634

> <Gold.Chemscore.ZeroCoef>
-5.4800

> <Gold.Chemscore.Hbond>
0.9530

> <Gold.Chemscore.Metal>
0.0000

> <Gold.Chemscore.Lipo>
102.7404

> <Gold.Chemscore.Internal_Hbond>
0.0000

> <Gold.Chemscore.DEClash>
1.5209

> <Gold.Chemscore.DEInternal>
1.7442

> <Gold.Chemscore.Rot>
1.4923

> <Gold.Chemscore.Internal.Correction>
   9.000000E+99

> <Gold.Chemscore.Hbonds>
donor molecule, donor type, donor heavy atom, donor atom, acceptor molecule, acceptor atom, score
      L1  H    10    37       P1  8028  0.92

> <Gold.Chemscore.Hbond.Weighted>
-3.1832

> <Gold.Chemscore.Metal.Weighted>
-0.0000

> <Gold.Chemscore.Lipo.Weighted>
-12.0206

> <Gold.Chemscore.Internal_Hbond.Weighted>
0.0000

> <Gold.Chemscore.DEClash.Weighted>
1.5209

> <Gold.Chemscore.DEInternal.Weighted>
1.7442

> <Gold.Chemscore.Rot.Weighted>
3.8204

> <Gold.Chemscore.Internal.Correction.Weighted>
   9.000000E+99

> <Gold.Protein.RotatedTorsions>
[ 6907 6896 6895 6894 ] final -122.50 input  -60.11 | X-H torsion
[ 7974 7965 7964 7962 ] final  168.31 input  175.53 | X-H torsion
[ 8008 7997 7996 7995 ] final  -17.76 input   59.86 | X-H torsion
[ 10167 10162 10161 10158 ] final  114.65 input  -65.29 | X-H torsion
[ 10718 10713 10712 10709 ] final  -69.14 input   66.30 | X-H torsion
[ 10763 10752 10751 10750 ] final    6.73 input  -60.55 | X-H torsion
[ 11005 11000 10999 10996 ] final -169.03 input  -57.11 | X-H torsion

> <Gold.Protein.ActiveResidues>
 VAL166  LYS551  ARG553  GLY616  TRP617  ASP618  TYR619  PRO620  LYS621  CYS622 
 ASP623  PHE694  ASN695  SER759  ASP760  ASP761  ALA762  ILE779  LEU786  VAL792 
 PHE793  MET794  SER795  GLU796  ALA797  LYS798  CYS799  TRP800  GLU811  SER814 

> <Gold.Protein.RotatedAtoms>
  150.8581  133.7684  159.3001 H   0  0  0  0  0  0  0  0  0  0  0  0  # atno 6907 bound_to 6896
  151.5335  135.1067  159.9918 H   0  0  0  0  0  0  0  0  0  0  0  0  # atno 6908 bound_to 6896
  152.4606  133.7770  159.6885 H   0  0  0  0  0  0  0  0  0  0  0  0  # atno 6909 bound_to 6896
  144.7393  139.8889  143.6401 H   0  0  0  0  0  0  0  0  0  0  0  0  # atno 7974 bound_to 7965
  154.4955  140.2134  155.9457 H   0  0  0  0  0  0  0  0  0  0  0  0  # atno 8008 bound_to 7997
  156.1364  140.3188  155.8395 H   0  0  0  0  0  0  0  0  0  0  0  0  # atno 8009 bound_to 7997
  155.4202  140.0496  157.3017 H   0  0  0  0  0  0  0  0  0  0  0  0  # atno 8010 bound_to 7997
  139.6373  144.7121  151.2308 H   0  0  0  0  0  0  0  0  0  0  0  0  # atno 10167 bound_to 10162
  156.0470  130.4307  150.2104 H   0  0  0  0  0  0  0  0  0  0  0  0  # atno 10718 bound_to 10713
  153.2443  135.6907  153.7748 H   0  0  0  0  0  0  0  0  0  0  0  0  # atno 10763 bound_to 10752
  153.6866  135.3319  155.3192 H   0  0  0  0  0  0  0  0  0  0  0  0  # atno 10764 bound_to 10752
  154.8368  135.4535  154.1377 H   0  0  0  0  0  0  0  0  0  0  0  0  # atno 10765 bound_to 10752
  140.5353  134.5576  157.5085 H   0  0  0  0  0  0  0  0  0  0  0  0  # atno 11005 bound_to 11000
  146.1156  139.4167  143.0260 LP  0  0  0  0  0  0  0  0  0  0  0  0  # atno 17320 bound_to 7965
  145.7379  141.0019  143.1316 LP  0  0  0  0  0  0  0  0  0  0  0  0  # atno 17321 bound_to 7965
  140.7472  143.6373  150.8367 LP  0  0  0  0  0  0  0  0  0  0  0  0  # atno 17342 bound_to 10162
  140.0006  143.5749  152.2877 LP  0  0  0  0  0  0  0  0  0  0  0  0  # atno 17343 bound_to 10162
  157.0192  130.9974  151.3344 LP  0  0  0  0  0  0  0  0  0  0  0  0  # atno 17370 bound_to 10713
  157.5356  130.8086  149.7968 LP  0  0  0  0  0  0  0  0  0  0  0  0  # atno 17371 bound_to 10713
  139.9532  134.7580  156.0400 LP  0  0  0  0  0  0  0  0  0  0  0  0  # atno 17394 bound_to 11000
  141.1258  133.6599  156.3333 LP  0  0  0  0  0  0  0  0  0  0  0  0  # atno 17395 bound_to 11000

$$$$
