AV-unprocessed.smi:630|AV-procd|sdf|3123|dock2
  -GOLD-   22720 0 43D 1   1.00000     0.00000
 Structure written by MMmdl.
 36 37  0  0  0  0  0  0  0  0  2 V2000
  151.1582  140.1167  158.8266 N   0  0  0  0  0  0  0  0  0  0  0  0
  152.1307  139.4476  158.2010 C   0  0  0  0  0  0  0  0  0  0  0  0
  153.3196  139.6741  158.4204 O   0  0  0  0  0  0  0  0  0  0  0  0
  151.6987  138.3690  157.1838 C   0  0  2  0  0  0  0  0  0  0  0  0
  152.3461  138.6682  155.8061 C   0  0  0  0  0  0  0  0  0  0  0  0
  151.6632  138.0553  154.5725 C   0  0  0  0  0  0  0  0  0  0  0  0
  150.4962  138.9110  154.0519 C   0  0  0  0  0  0  0  0  0  0  0  0
  149.2032  138.7937  154.8697 C   0  0  0  0  0  0  0  0  0  0  0  0
  149.3356  139.1559  156.3588 C   0  0  0  0  0  0  0  0  0  0  0  0
  150.1541  138.1214  157.1638 C   0  0  2  0  0  0  0  0  0  0  0  0
  149.6022  138.0216  158.5201 N   0  0  0  0  0  0  0  0  0  0  0  0
  149.3046  136.8921  159.1808 C   0  0  0  0  0  0  0  0  0  0  0  0
  149.4709  135.7979  158.6369 O   0  0  0  0  0  0  0  0  0  0  0  0
  148.8483  137.1010  160.4365 N   0  5  0  0  0  0  0  0  0  0  0  0
  148.1122  136.1596  161.0490 C   0  0  0  0  0  0  0  0  0  0  0  0
  147.6634  135.0631  160.4276 N   0  0  0  0  0  0  0  0  0  0  0  0
  146.9115  134.2255  161.2535 C   0  0  0  0  0  0  0  0  0  0  0  0
  146.7786  134.6989  162.5318 C   0  0  0  0  0  0  0  0  0  0  0  0
  147.5978  136.2207  162.7373 S   0  0  0  0  0  0  0  0  0  0  0  0
  151.3928  140.8537  159.4751 H   0  0  0  0  0  0  0  0  0  0  0  0
  150.1920  139.9051  158.6232 H   0  0  0  0  0  0  0  0  0  0  0  0
  152.1379  137.4273  157.5185 H   0  0  0  0  0  0  0  0  0  0  0  0
  152.4488  139.7418  155.6412 H   0  0  0  0  0  0  0  0  0  0  0  0
  153.3707  138.2954  155.8418 H   0  0  0  0  0  0  0  0  0  0  0  0
  152.4072  138.0003  153.7769 H   0  0  0  0  0  0  0  0  0  0  0  0
  151.3540  137.0261  154.7574 H   0  0  0  0  0  0  0  0  0  0  0  0
  150.8004  139.9565  153.9891 H   0  0  0  0  0  0  0  0  0  0  0  0
  150.2748  138.6082  153.0279 H   0  0  0  0  0  0  0  0  0  0  0  0
  148.4557  139.4478  154.4197 H   0  0  0  0  0  0  0  0  0  0  0  0
  148.8027  137.7837  154.7748 H   0  0  0  0  0  0  0  0  0  0  0  0
  149.7403  140.1610  156.4759 H   0  0  0  0  0  0  0  0  0  0  0  0
  148.3225  139.2002  156.7617 H   0  0  0  0  0  0  0  0  0  0  0  0
  149.9775  137.1466  156.7061 H   0  0  0  0  0  0  0  0  0  0  0  0
  149.4484  138.8914  159.0091 H   0  0  0  0  0  0  0  0  0  0  0  0
  146.5068  133.3108  160.8471 H   0  0  0  0  0  0  0  0  0  0  0  0
  146.2509  134.2501  163.3595 H   0  0  0  0  0  0  0  0  0  0  0  0
  1  2  1  0  0  0  0
  1 20  1  0  0  0  0
  1 21  1  0  0  0  0
  2  3  2  0  0  0  0
  2  4  1  0  0  0  0
  4 10  1  0  0  0  0
  4  5  1  0  0  0  0
  4 22  1  0  0  0  0
  5  6  1  0  0  0  0
  5 23  1  0  0  0  0
  5 24  1  0  0  0  0
  6  7  1  0  0  0  0
  6 25  1  0  0  0  0
  6 26  1  0  0  0  0
  7  8  1  0  0  0  0
  7 27  1  0  0  0  0
  7 28  1  0  0  0  0
  8  9  1  0  0  0  0
  8 29  1  0  0  0  0
  8 30  1  0  0  0  0
  9 10  1  0  0  0  0
  9 31  1  0  0  0  0
  9 32  1  0  0  0  0
 10 11  1  0  0  0  0
 10 33  1  0  0  0  0
 11 12  1  0  0  0  0
 11 34  1  0  0  0  0
 12 13  2  0  0  0  0
 12 14  1  0  0  0  0
 14 15  1  0  0  0  0
 15 19  1  0  0  0  0
 15 16  2  0  0  0  0
 16 17  1  0  0  0  0
 17 18  2  0  0  0  0
 17 35  1  0  0  0  0
 18 19  1  0  0  0  0
 18 36  1  0  0  0  0
M  CHG  1  14  -1
M  END
> <s_m_source_file>
AV-unprocessed.smi

> <i_m_source_file_index>
630

> <i_lp_mmshare_version>
43012

> <i_f3d_flags>
0

> <s_epik_input>
W05IMl1DKD1PKVtDQEBIXTFbQ0gyXVtDSDJdW0NIMl1bQ0gyXVtDSDJdW0NASF0xW05IXUMoPU8pW05IXWMybltjSF1bY0hdczI=

> <s_epik_cmdline>
J2VwaWtfcHl0aG9uJywgJy1waCcsICc3LjAnLCAnLXRuJywgJzgnLCAnLW1hJywgJzIwMCcsICctbWV0YWxfYmluZGluZycsICctaW1hZScsICc8aW5maWxlLm1hZT4nLCAnLW9tYWUnLCAnPG91dGZpbGUubWFlPic=

> <r_lp_tautomer_probability>
0.999

> <r_epik_Ionization_Penalty>
8.29606

> <r_epik_Ionization_Penalty_Charging>
6.67551

> <r_epik_Ionization_Penalty_Neutral>
1.62055

> <r_epik_State_Penalty>
6.67568

> <r_epik_Charging_Adjusted_Penalty>
13.3512

> <i_epik_Tot_Q>
-1

> <i_epik_Tot_abs_Q>
1

> <r_epik_Metal_State_Penalty>
2.59802

> <b_epik_Metal_Only>
1

> <s_lp_Force_Field>
OPLS_2005

> <r_lp_Energy>
8.77772

> <b_lp_Chiralities_Consistent>
1

> <s_lp_Variant>
AV-unprocessed.smi:630-7

> <Gold.Version>
5.8.1

> <Gold.Id.Protein>
6NUR|6NUR_protein|mol2

> <Gold.PLP.Fitness>
41.4733

> <Gold.PLP.PLP>
-31.8478

> <Gold.PLP.part.hbond>
-3.1926

> <Gold.PLP.part.metal>
0.0000

> <Gold.PLP.part.buried>
-4.7834

> <Gold.PLP.part.nonpolar>
-24.5114

> <Gold.PLP.part.repulsive>
0.3580

> <Gold.PLP.ligand.clash>
0.0000

> <Gold.PLP.ligand.torsion>
0.3874

> <Gold.PLP.Chemscore.Hbond>
3.4080

> <Gold.PLP.Chemscore.CHOScore>
0.0000

> <Gold.PLP.Chemscore.Metal>
0.0000

> <Gold.Chemscore.Hbonds>
donor molecule, donor type, donor heavy atom, donor atom, acceptor molecule, acceptor atom, score
      P1  H  6896  6909       L1    13  1.00
      P1  H  6931  6943       L1    14  1.21
      P1  H  7997  8010       L1     3  0.94

> <Gold.PLP.Chemscore.Internal.Correction>
0.1764

> <Gold.Rescore>
     Score         DG    S(hbond)    S(metal)    S(lipo)     H(rot)  DE(clash)    DE(int)     intcor
     12.68     -16.41       2.17        0.00      64.46       1.50       0.00       3.72       ----

> <Gold.Chemscore.Fitness>
12.6848

> <Gold.Chemscore.DG>
-16.4078

> <Gold.Chemscore.ZeroCoef>
-5.4800

> <Gold.Chemscore.Hbond>
2.1669

> <Gold.Chemscore.Metal>
0.0000

> <Gold.Chemscore.Lipo>
64.4566

> <Gold.Chemscore.Internal_Hbond>
0.0000

> <Gold.Chemscore.DEClash>
0.0048

> <Gold.Chemscore.DEInternal>
3.7182

> <Gold.Chemscore.Rot>
1.5044

> <Gold.Chemscore.Internal.Correction>
   9.000000E+99

> <Gold.Chemscore.Hbonds>
donor molecule, donor type, donor heavy atom, donor atom, acceptor molecule, acceptor atom, score
      P1  H  6896  6909       L1    13  0.93
      P1  H  6931  6943       L1    14  0.12
      P1  H  7997  8010       L1     3  0.88

> <Gold.Chemscore.Hbond.Weighted>
-7.2375

> <Gold.Chemscore.Metal.Weighted>
-0.0000

> <Gold.Chemscore.Lipo.Weighted>
-7.5414

> <Gold.Chemscore.Internal_Hbond.Weighted>
0.0000

> <Gold.Chemscore.DEClash.Weighted>
0.0048

> <Gold.Chemscore.DEInternal.Weighted>
3.7182

> <Gold.Chemscore.Rot.Weighted>
3.8512

> <Gold.Chemscore.Internal.Correction.Weighted>
   9.000000E+99

> <Gold.Protein.RotatedTorsions>
[ 6907 6896 6895 6894 ] final   45.73 input  -60.11 | X-H torsion
[ 7974 7965 7964 7962 ] final   17.87 input  175.53 | X-H torsion
[ 8008 7997 7996 7995 ] final   11.04 input   59.86 | X-H torsion
[ 10167 10162 10161 10158 ] final -121.63 input  -65.29 | X-H torsion
[ 10718 10713 10712 10709 ] final  -34.55 input   66.30 | X-H torsion
[ 10763 10752 10751 10750 ] final  -62.31 input  -60.55 | X-H torsion
[ 11005 11000 10999 10996 ] final  105.56 input  -57.11 | X-H torsion

> <Gold.Protein.ActiveResidues>
 VAL166  LYS551  ARG553  GLY616  TRP617  ASP618  TYR619  PRO620  LYS621  CYS622 
 ASP623  PHE694  ASN695  SER759  ASP760  ASP761  ALA762  ILE779  LEU786  VAL792 
 PHE793  MET794  SER795  GLU796  ALA797  LYS798  CYS799  TRP800  GLU811  SER814 

> <Gold.Protein.RotatedAtoms>
  152.2480  134.8161  160.0450 H   0  0  0  0  0  0  0  0  0  0  0  0  # atno 6907 bound_to 6896
  151.8852  133.3499  159.3788 H   0  0  0  0  0  0  0  0  0  0  0  0  # atno 6908 bound_to 6896
  150.7074  134.4905  159.5557 H   0  0  0  0  0  0  0  0  0  0  0  0  # atno 6909 bound_to 6896
  146.2204  139.8540  142.8617 H   0  0  0  0  0  0  0  0  0  0  0  0  # atno 7974 bound_to 7965
  154.8015  140.2853  155.5918 H   0  0  0  0  0  0  0  0  0  0  0  0  # atno 8008 bound_to 7997
  156.2977  140.2585  156.2813 H   0  0  0  0  0  0  0  0  0  0  0  0  # atno 8009 bound_to 7997
  154.9553  140.0378  157.2153 H   0  0  0  0  0  0  0  0  0  0  0  0  # atno 8010 bound_to 7997
  140.0229  143.5325  152.2212 H   0  0  0  0  0  0  0  0  0  0  0  0  # atno 10167 bound_to 10162
  156.3493  130.4306  149.7718 H   0  0  0  0  0  0  0  0  0  0  0  0  # atno 10718 bound_to 10713
  154.2979  135.6240  153.5412 H   0  0  0  0  0  0  0  0  0  0  0  0  # atno 10763 bound_to 10752
  152.9844  135.5671  154.5317 H   0  0  0  0  0  0  0  0  0  0  0  0  # atno 10764 bound_to 10752
  154.4941  135.2869  155.1449 H   0  0  0  0  0  0  0  0  0  0  0  0  # atno 10765 bound_to 10752
  139.8803  134.9340  156.5533 H   0  0  0  0  0  0  0  0  0  0  0  0  # atno 11005 bound_to 11000
  145.2772  141.0127  143.3738 LP  0  0  0  0  0  0  0  0  0  0  0  0  # atno 17320 bound_to 7965
  144.9177  139.4449  143.6556 LP  0  0  0  0  0  0  0  0  0  0  0  0  # atno 17321 bound_to 7965
  139.6127  144.7612  151.2915 LP  0  0  0  0  0  0  0  0  0  0  0  0  # atno 17342 bound_to 10162
  140.7335  143.6794  150.8014 LP  0  0  0  0  0  0  0  0  0  0  0  0  # atno 17343 bound_to 10162
  156.4925  130.8091  151.3100 LP  0  0  0  0  0  0  0  0  0  0  0  0  # atno 17370 bound_to 10713
  157.7459  130.9971  150.2803 LP  0  0  0  0  0  0  0  0  0  0  0  0  # atno 17371 bound_to 10713
  140.8224  133.8343  155.8907 LP  0  0  0  0  0  0  0  0  0  0  0  0  # atno 17394 bound_to 11000
  140.9406  134.1906  157.4800 LP  0  0  0  0  0  0  0  0  0  0  0  0  # atno 17395 bound_to 11000

$$$$
