AV-unprocessed.smi:498|AV-procd|sdf|2729|dock2
  -GOLD-   2262023173D 1   1.00000     0.00000
 Structure written by MMmdl.
 43 45  0  0  0  0  0  0  0  0  2 V2000
  152.5123  141.6058  159.5276 C   0  0  0  0  0  0  0  0  0  0  0  0
  152.7352  140.1577  159.0873 C   0  0  0  0  0  0  0  0  0  0  0  0
  152.7913  140.1123  157.6716 O   0  0  0  0  0  0  0  0  0  0  0  0
  151.5862  139.6470  157.0904 C   0  0  0  0  0  0  0  0  0  0  0  0
  151.4842  140.1941  155.6598 C   0  0  0  0  0  0  0  0  0  0  0  0
  150.4780  139.4725  154.8705 N   0  0  0  0  0  0  0  0  0  0  0  0
  150.4572  138.1800  154.4286 C   0  0  0  0  0  0  0  0  0  0  0  0
  151.4983  137.1277  154.6499 C   0  0  0  0  0  0  0  0  0  0  0  0
  151.0923  135.8353  154.1084 N   0  0  0  0  0  0  0  0  0  0  0  0
  151.4660  134.6361  154.5830 C   0  0  0  0  0  0  0  0  0  0  0  0
  152.1307  134.4858  155.6074 O   0  0  0  0  0  0  0  0  0  0  0  0
  151.0790  133.4747  153.7610 C   0  0  0  0  0  0  0  0  0  0  0  0
  151.3012  132.1326  153.9255 C   0  0  0  0  0  0  0  0  0  0  0  0
  150.6852  131.4801  152.8220 C   0  0  0  0  0  0  0  0  0  0  0  0
  150.1364  132.4699  152.0588 C   0  0  0  0  0  0  0  0  0  0  0  0
  150.3702  133.6894  152.6147 O   0  0  0  0  0  0  0  0  0  0  0  0
  149.2988  138.0158  153.7284 N   0  3  0  0  0  0  0  0  0  0  0  0
  148.5776  139.2107  153.7172 C   0  0  0  0  0  0  0  0  0  0  0  0
  147.3550  139.5330  153.1358 C   0  0  0  0  0  0  0  0  0  0  0  0
  146.9007  140.8569  153.3103 C   0  0  0  0  0  0  0  0  0  0  0  0
  147.6528  141.8015  154.0387 C   0  0  0  0  0  0  0  0  0  0  0  0
  148.8907  141.4629  154.6242 C   0  0  0  0  0  0  0  0  0  0  0  0
  149.3312  140.1518  154.4478 C   0  0  0  0  0  0  0  0  0  0  0  0
  152.4580  141.6785  160.6139 H   0  0  0  0  0  0  0  0  0  0  0  0
  151.5804  141.9986  159.1197 H   0  0  0  0  0  0  0  0  0  0  0  0
  153.3252  142.2481  159.1885 H   0  0  0  0  0  0  0  0  0  0  0  0
  153.6631  139.7724  159.5122 H   0  0  0  0  0  0  0  0  0  0  0  0
  151.9193  139.5339  159.4549 H   0  0  0  0  0  0  0  0  0  0  0  0
  151.5580  138.5565  157.0880 H   0  0  0  0  0  0  0  0  0  0  0  0
  150.7385  139.9917  157.6843 H   0  0  0  0  0  0  0  0  0  0  0  0
  151.1918  141.2438  155.6762 H   0  0  0  0  0  0  0  0  0  0  0  0
  152.4461  140.1545  155.1477 H   0  0  0  0  0  0  0  0  0  0  0  0
  152.4418  137.4731  154.2247 H   0  0  0  0  0  0  0  0  0  0  0  0
  151.6675  137.0105  155.7206 H   0  0  0  0  0  0  0  0  0  0  0  0
  150.5452  135.8515  153.2601 H   0  0  0  0  0  0  0  0  0  0  0  0
  151.8368  131.6726  154.7429 H   0  0  0  0  0  0  0  0  0  0  0  0
  150.6488  130.4212  152.6130 H   0  0  0  0  0  0  0  0  0  0  0  0
  149.5736  132.4831  151.1369 H   0  0  0  0  0  0  0  0  0  0  0  0
  146.7772  138.8116  152.5764 H   0  0  0  0  0  0  0  0  0  0  0  0
  145.9572  141.1541  152.8756 H   0  0  0  0  0  0  0  0  0  0  0  0
  147.2732  142.8069  154.1509 H   0  0  0  0  0  0  0  0  0  0  0  0
  149.4606  142.1938  155.1790 H   0  0  0  0  0  0  0  0  0  0  0  0
  149.0252  137.1472  153.2875 H   0  0  0  0  0  0  0  0  0  0  0  0
  1  2  1  0  0  0  0
  1 24  1  0  0  0  0
  1 25  1  0  0  0  0
  1 26  1  0  0  0  0
  2  3  1  0  0  0  0
  2 27  1  0  0  0  0
  2 28  1  0  0  0  0
  3  4  1  0  0  0  0
  4  5  1  0  0  0  0
  4 29  1  0  0  0  0
  4 30  1  0  0  0  0
  5  6  1  0  0  0  0
  5 31  1  0  0  0  0
  5 32  1  0  0  0  0
  6 23  1  0  0  0  0
  6  7  1  0  0  0  0
  7  8  1  0  0  0  0
  7 17  2  0  0  0  0
  8  9  1  0  0  0  0
  8 33  1  0  0  0  0
  8 34  1  0  0  0  0
  9 10  1  0  0  0  0
  9 35  1  0  0  0  0
 10 11  2  0  0  0  0
 10 12  1  0  0  0  0
 12 16  1  0  0  0  0
 12 13  2  0  0  0  0
 13 14  1  0  0  0  0
 13 36  1  0  0  0  0
 14 15  2  0  0  0  0
 14 37  1  0  0  0  0
 15 16  1  0  0  0  0
 15 38  1  0  0  0  0
 17 18  1  0  0  0  0
 17 43  1  0  0  0  0
 18 23  2  0  0  0  0
 18 19  1  0  0  0  0
 19 20  2  0  0  0  0
 19 39  1  0  0  0  0
 20 21  1  0  0  0  0
 20 40  1  0  0  0  0
 21 22  2  0  0  0  0
 21 41  1  0  0  0  0
 22 23  1  0  0  0  0
 22 42  1  0  0  0  0
M  CHG  1  17   1
M  END
> <s_m_source_file>
AV-unprocessed.smi

> <i_m_source_file_index>
498

> <i_lp_mmshare_version>
43012

> <i_f3d_flags>
0

> <s_epik_input>
W0NIM11bQ0gyXU9bQ0gyXVtDSDJdbihjKGMxMilbY0hdW2NIXVtjSF1bY0hdMiljKG4xKVtDSDJdW05IXUMoPU8pYzNbY0hdW2NIXVtjSF1vMw==

> <s_epik_cmdline>
J2VwaWtfcHl0aG9uJywgJy1waCcsICc3LjAnLCAnLXRuJywgJzgnLCAnLW1hJywgJzIwMCcsICctbWV0YWxfYmluZGluZycsICctaW1hZScsICc8aW5maWxlLm1hZT4nLCAnLW9tYWUnLCAnPG91dGZpbGUubWFlPic=

> <r_epik_Ionization_Penalty>
1.29911

> <r_epik_Ionization_Penalty_Charging>
1.29908

> <r_epik_Ionization_Penalty_Neutral>
2.77772e-05

> <r_epik_State_Penalty>
1.37286

> <r_epik_Charging_Adjusted_Penalty>
2.67194

> <i_epik_Tot_Q>
1

> <i_epik_Tot_abs_Q>
1

> <r_epik_Metal_State_Penalty>
1.47523

> <b_epik_Metal_Only>
0

> <s_lp_Force_Field>
OPLS_2005

> <r_lp_Energy>
10.1123

> <b_lp_Chiralities_Consistent>
1

> <s_lp_Variant>
AV-unprocessed.smi:498-2

> <Gold.Version>
5.8.1

> <Gold.Id.Protein>
6NUR|6NUR_protein|mol2

> <Gold.PLP.Fitness>
51.3462

> <Gold.PLP.PLP>
-43.8871

> <Gold.PLP.part.hbond>
-2.8860

> <Gold.PLP.part.metal>
0.0000

> <Gold.PLP.part.buried>
-2.3045

> <Gold.PLP.part.nonpolar>
-38.4454

> <Gold.PLP.part.repulsive>
0.2796

> <Gold.PLP.ligand.clash>
0.0000

> <Gold.PLP.ligand.torsion>
0.7419

> <Gold.PLP.Chemscore.Hbond>
2.2691

> <Gold.PLP.Chemscore.CHOScore>
0.6793

> <Gold.PLP.Chemscore.Metal>
0.0000

> <Gold.Chemscore.Hbonds>
donor molecule, donor type, donor heavy atom, donor atom, acceptor molecule, acceptor atom, score
      L1  H     9    35       P1  7949  0.08
      L1  H    17    43       P1  7948  1.86
      P1  H  7997  8010       L1     3  1.00
      L1  C    15    38       P1 10747  0.51

> <Gold.PLP.Chemscore.Internal.Correction>
0.0976

> <Gold.Rescore>
     Score         DG    S(hbond)    S(metal)    S(lipo)     H(rot)  DE(clash)    DE(int)     intcor
     14.04     -15.04       0.92        0.00     100.13       2.04       0.02       0.98       ----

> <Gold.Chemscore.Fitness>
14.0352

> <Gold.Chemscore.DG>
-15.0370

> <Gold.Chemscore.ZeroCoef>
-5.4800

> <Gold.Chemscore.Hbond>
0.9200

> <Gold.Chemscore.Metal>
0.0000

> <Gold.Chemscore.Lipo>
100.1271

> <Gold.Chemscore.Internal_Hbond>
0.0000

> <Gold.Chemscore.DEClash>
0.0174

> <Gold.Chemscore.DEInternal>
0.9843

> <Gold.Chemscore.Rot>
2.0432

> <Gold.Chemscore.Internal.Correction>
   9.000000E+99

> <Gold.Chemscore.Hbonds>
donor molecule, donor type, donor heavy atom, donor atom, acceptor molecule, acceptor atom, score
      L1  H    17    43       P1  7948  0.89
      P1  H  7997  8010       L1     3  0.94

> <Gold.Chemscore.Hbond.Weighted>
-3.0727

> <Gold.Chemscore.Metal.Weighted>
-0.0000

> <Gold.Chemscore.Lipo.Weighted>
-11.7149

> <Gold.Chemscore.Internal_Hbond.Weighted>
0.0000

> <Gold.Chemscore.DEClash.Weighted>
0.0174

> <Gold.Chemscore.DEInternal.Weighted>
0.9843

> <Gold.Chemscore.Rot.Weighted>
5.2306

> <Gold.Chemscore.Internal.Correction.Weighted>
   9.000000E+99

> <Gold.Protein.RotatedTorsions>
[ 6907 6896 6895 6894 ] final   -4.34 input  -60.11 | X-H torsion
[ 7974 7965 7964 7962 ] final   -8.03 input  175.53 | X-H torsion
[ 8008 7997 7996 7995 ] final   50.23 input   59.86 | X-H torsion
[ 10167 10162 10161 10158 ] final   10.98 input  -65.29 | X-H torsion
[ 10718 10713 10712 10709 ] final   48.66 input   66.30 | X-H torsion
[ 10763 10752 10751 10750 ] final   30.21 input  -60.55 | X-H torsion
[ 11005 11000 10999 10996 ] final  171.06 input  -57.11 | X-H torsion

> <Gold.Protein.ActiveResidues>
 VAL166  LYS551  ARG553  GLY616  TRP617  ASP618  TYR619  PRO620  LYS621  CYS622 
 ASP623  PHE694  ASN695  SER759  ASP760  ASP761  ALA762  ILE779  LEU786  VAL792 
 PHE793  MET794  SER795  GLU796  ALA797  LYS798  CYS799  TRP800  GLU811  SER814 

> <Gold.Protein.RotatedAtoms>
  151.4992  135.1061  159.9824 H   0  0  0  0  0  0  0  0  0  0  0  0  # atno 6907 bound_to 6896
  152.4709  133.8023  159.6970 H   0  0  0  0  0  0  0  0  0  0  0  0  # atno 6908 bound_to 6896
  150.8717  133.7433  159.2985 H   0  0  0  0  0  0  0  0  0  0  0  0  # atno 6909 bound_to 6896
  146.2291  140.2408  142.8343 H   0  0  0  0  0  0  0  0  0  0  0  0  # atno 7974 bound_to 7965
  155.4154  140.3444  155.4267 H   0  0  0  0  0  0  0  0  0  0  0  0  # atno 8008 bound_to 7997
  156.1424  140.1546  156.8931 H   0  0  0  0  0  0  0  0  0  0  0  0  # atno 8009 bound_to 7997
  154.4982  140.0822  156.7723 H   0  0  0  0  0  0  0  0  0  0  0  0  # atno 8010 bound_to 7997
  140.6160  143.8306  150.7119 H   0  0  0  0  0  0  0  0  0  0  0  0  # atno 10167 bound_to 10162
  157.4709  130.8254  149.7987 H   0  0  0  0  0  0  0  0  0  0  0  0  # atno 10718 bound_to 10713
  153.0385  135.6470  154.1009 H   0  0  0  0  0  0  0  0  0  0  0  0  # atno 10763 bound_to 10752
  154.0720  135.2880  155.3308 H   0  0  0  0  0  0  0  0  0  0  0  0  # atno 10764 bound_to 10752
  154.6588  135.5399  153.8056 H   0  0  0  0  0  0  0  0  0  0  0  0  # atno 10765 bound_to 10752
  140.3150  134.7485  157.4020 H   0  0  0  0  0  0  0  0  0  0  0  0  # atno 11005 bound_to 11000
  144.9486  140.8154  143.5586 LP  0  0  0  0  0  0  0  0  0  0  0  0  # atno 17320 bound_to 7965
  145.2366  139.2091  143.5014 LP  0  0  0  0  0  0  0  0  0  0  0  0  # atno 17321 bound_to 7965
  140.1885  143.4055  152.1880 LP  0  0  0  0  0  0  0  0  0  0  0  0  # atno 17342 bound_to 10162
  139.5399  144.7246  151.4768 LP  0  0  0  0  0  0  0  0  0  0  0  0  # atno 17343 bound_to 10162
  156.0073  130.3849  150.2387 LP  0  0  0  0  0  0  0  0  0  0  0  0  # atno 17370 bound_to 10713
  157.0569  131.0079  151.3235 LP  0  0  0  0  0  0  0  0  0  0  0  0  # atno 17371 bound_to 10713
  140.0992  134.5496  155.8369 LP  0  0  0  0  0  0  0  0  0  0  0  0  # atno 17394 bound_to 11000
  141.2100  133.6689  156.6476 LP  0  0  0  0  0  0  0  0  0  0  0  0  # atno 17395 bound_to 11000

$$$$
