AV-unprocessed.smi:3244|AV-procd|sdf|12399|dock5
  -GOLD-   2272018273D 1   1.00000     0.00000
 Structure written by MMmdl.
 41 42  0  0  0  0  0  0  0  0  2 V2000
  145.9142  143.4871  153.7428 C   0  0  0  0  0  0  0  0  0  0  0  0
  146.4927  142.0631  153.7802 C   0  0  0  0  0  0  0  0  0  0  0  0
  147.5361  141.9154  154.8068 N   0  0  0  0  0  0  0  0  0  0  0  0
  148.8013  141.5066  154.5342 C   0  0  0  0  0  0  0  0  0  0  0  0
  149.2372  141.4418  153.3832 O   0  0  0  0  0  0  0  0  0  0  0  0
  149.7292  141.1018  155.6942 C   0  0  0  0  0  0  0  0  0  0  0  0
  150.5281  142.2321  156.2225 N   0  3  0  0  0  0  0  0  0  0  0  0
  150.8927  142.1626  157.6591 C   0  0  1  0  0  0  0  0  0  0  0  0
  151.6035  140.8426  158.0029 C   0  0  0  0  0  0  0  0  0  0  0  0
  151.7769  143.3691  158.0386 C   0  0  0  0  0  0  0  0  0  0  0  0
  152.1294  143.4045  159.4491 N   0  0  0  0  0  0  0  0  0  0  0  0
  152.8739  142.4910  160.1663 C   0  0  0  0  0  0  0  0  0  0  0  0
  152.9191  142.9274  161.4593 C   0  0  0  0  0  0  0  0  0  0  0  0
  152.1498  144.1237  161.4401 C   0  0  0  0  0  0  0  0  0  0  0  0
  151.6743  144.4032  160.2372 N   0  0  0  0  0  0  0  0  0  0  0  0
  147.0245  142.0269  156.1479 C   0  0  0  0  0  0  0  0  0  0  0  0
  146.2581  140.8634  156.7409 C   0  0  0  0  0  0  0  0  0  0  0  0
  145.5326  142.1421  156.4101 C   0  0  0  0  0  0  0  0  0  0  0  0
  145.1572  143.5733  152.9629 H   0  0  0  0  0  0  0  0  0  0  0  0
  146.6916  144.2205  153.5273 H   0  0  0  0  0  0  0  0  0  0  0  0
  145.4464  143.7689  154.6849 H   0  0  0  0  0  0  0  0  0  0  0  0
  145.6935  141.3359  153.9180 H   0  0  0  0  0  0  0  0  0  0  0  0
  146.9049  141.8324  152.7967 H   0  0  0  0  0  0  0  0  0  0  0  0
  149.1165  140.7369  156.5170 H   0  0  0  0  0  0  0  0  0  0  0  0
  150.3891  140.2861  155.3983 H   0  0  0  0  0  0  0  0  0  0  0  0
  151.3623  142.3366  155.6623 H   0  0  0  0  0  0  0  0  0  0  0  0
  149.9761  142.2153  158.2484 H   0  0  0  0  0  0  0  0  0  0  0  0
  151.8973  140.8198  159.0527 H   0  0  0  0  0  0  0  0  0  0  0  0
  152.5049  140.7078  157.4039 H   0  0  0  0  0  0  0  0  0  0  0  0
  150.9568  139.9814  157.8349 H   0  0  0  0  0  0  0  0  0  0  0  0
  152.7042  143.3518  157.4643 H   0  0  0  0  0  0  0  0  0  0  0  0
  151.2709  144.3019  157.7849 H   0  0  0  0  0  0  0  0  0  0  0  0
  153.3068  141.6164  159.7035 H   0  0  0  0  0  0  0  0  0  0  0  0
  153.4192  142.4589  162.2941 H   0  0  0  0  0  0  0  0  0  0  0  0
  151.9226  144.7908  162.2585 H   0  0  0  0  0  0  0  0  0  0  0  0
  147.6614  142.5760  156.8393 H   0  0  0  0  0  0  0  0  0  0  0  0
  146.0653  140.0017  156.1044 H   0  0  0  0  0  0  0  0  0  0  0  0
  146.4253  140.6371  157.7920 H   0  0  0  0  0  0  0  0  0  0  0  0
  145.2176  142.7696  157.2411 H   0  0  0  0  0  0  0  0  0  0  0  0
  144.8437  142.1073  155.5683 H   0  0  0  0  0  0  0  0  0  0  0  0
  149.9641  143.0626  156.1118 H   0  0  0  0  0  0  0  0  0  0  0  0
  1  2  1  0  0  0  0
  1 19  1  0  0  0  0
  1 20  1  0  0  0  0
  1 21  1  0  0  0  0
  2  3  1  0  0  0  0
  2 22  1  0  0  0  0
  2 23  1  0  0  0  0
  3  4  1  0  0  0  0
  3 16  1  0  0  0  0
  4  5  2  0  0  0  0
  4  6  1  0  0  0  0
  6  7  1  0  0  0  0
  6 24  1  0  0  0  0
  6 25  1  0  0  0  0
  7  8  1  0  0  0  0
  7 26  1  0  0  0  0
  7 41  1  0  0  0  0
  8  9  1  0  0  0  0
  8 10  1  0  0  0  0
  8 27  1  0  0  0  0
  9 28  1  0  0  0  0
  9 29  1  0  0  0  0
  9 30  1  0  0  0  0
 10 11  1  0  0  0  0
 10 31  1  0  0  0  0
 10 32  1  0  0  0  0
 11 15  1  0  0  0  0
 11 12  1  0  0  0  0
 12 13  2  0  0  0  0
 12 33  1  0  0  0  0
 13 14  1  0  0  0  0
 13 34  1  0  0  0  0
 14 15  2  0  0  0  0
 14 35  1  0  0  0  0
 16 18  1  0  0  0  0
 16 17  1  0  0  0  0
 16 36  1  0  0  0  0
 17 18  1  0  0  0  0
 17 37  1  0  0  0  0
 17 38  1  0  0  0  0
 18 39  1  0  0  0  0
 18 40  1  0  0  0  0
M  CHG  1   7   1
M  END
> <s_m_source_file>
AV-unprocessed.smi

> <i_m_source_file_index>
3244

> <i_lp_mmshare_version>
43012

> <i_f3d_flags>
0

> <s_epik_input>
W0NIMl0xW0NIMl1bQ0hdMU4oW0NIMl1bQ0gzXSlDKD1PKVtDSDJdW05IXVtDQEhdKFtDSDNdKVtDSDJdbjJbY0hdW2NIXVtjSF1uMg==

> <s_epik_cmdline>
J2VwaWtfcHl0aG9uJywgJy1waCcsICc3LjAnLCAnLXRuJywgJzgnLCAnLW1hJywgJzIwMCcsICctbWV0YWxfYmluZGluZycsICctaW1hZScsICc8aW5maWxlLm1hZT4nLCAnLW9tYWUnLCAnPG91dGZpbGUubWFlPic=

> <r_lp_tautomer_probability>
1

> <r_epik_Ionization_Penalty>
0.115625

> <r_epik_Ionization_Penalty_Charging>
0.115622

> <r_epik_Ionization_Penalty_Neutral>
3.43793e-06

> <r_epik_State_Penalty>
0.105255

> <r_epik_Charging_Adjusted_Penalty>
0.220877

> <i_epik_Tot_Q>
1

> <i_epik_Tot_abs_Q>
1

> <r_epik_Metal_State_Penalty>
0.105264

> <b_epik_Metal_Only>
0

> <s_lp_Force_Field>
OPLS_2005

> <r_lp_Energy>
36.1392

> <b_lp_Chiralities_Consistent>
1

> <s_lp_Variant>
AV-unprocessed.smi:3244-2

> <Gold.Version>
5.8.1

> <Gold.Id.Protein>
6NUR|6NUR_protein|mol2

> <Gold.PLP.Fitness>
48.2217

> <Gold.PLP.PLP>
-41.1254

> <Gold.PLP.part.hbond>
-2.7717

> <Gold.PLP.part.metal>
0.0000

> <Gold.PLP.part.buried>
-5.2734

> <Gold.PLP.part.nonpolar>
-35.3410

> <Gold.PLP.part.repulsive>
3.2658

> <Gold.PLP.ligand.clash>
0.0000

> <Gold.PLP.ligand.torsion>
1.0531

> <Gold.PLP.Chemscore.Hbond>
2.9280

> <Gold.PLP.Chemscore.CHOScore>
0.0000

> <Gold.PLP.Chemscore.Metal>
0.0000

> <Gold.Chemscore.Hbonds>
donor molecule, donor type, donor heavy atom, donor atom, acceptor molecule, acceptor atom, score
      L1  H     7    41       P1  8028  2.00
      P1  H  8011  8017       L1     5  0.94

> <Gold.PLP.Chemscore.Internal.Correction>
0.4184

> <Gold.Rescore>
     Score         DG    S(hbond)    S(metal)    S(lipo)     H(rot)  DE(clash)    DE(int)     intcor
     14.17     -16.73       1.92        0.00      86.04       2.04       1.47       1.09       ----

> <Gold.Chemscore.Fitness>
14.1711

> <Gold.Chemscore.DG>
-16.7349

> <Gold.Chemscore.ZeroCoef>
-5.4800

> <Gold.Chemscore.Hbond>
1.9225

> <Gold.Chemscore.Metal>
0.0000

> <Gold.Chemscore.Lipo>
86.0374

> <Gold.Chemscore.Internal_Hbond>
0.0000

> <Gold.Chemscore.DEClash>
1.4696

> <Gold.Chemscore.DEInternal>
1.0942

> <Gold.Chemscore.Rot>
2.0440

> <Gold.Chemscore.Internal.Correction>
   9.000000E+99

> <Gold.Chemscore.Hbonds>
donor molecule, donor type, donor heavy atom, donor atom, acceptor molecule, acceptor atom, score
      L1  H     7    41       P1  8028  0.93
      P1  H  7989  7998       L1     5  0.01
      P1  H  8011  8017       L1     5  0.85

> <Gold.Chemscore.Hbond.Weighted>
-6.4211

> <Gold.Chemscore.Metal.Weighted>
-0.0000

> <Gold.Chemscore.Lipo.Weighted>
-10.0664

> <Gold.Chemscore.Internal_Hbond.Weighted>
0.0000

> <Gold.Chemscore.DEClash.Weighted>
1.4696

> <Gold.Chemscore.DEInternal.Weighted>
1.0942

> <Gold.Chemscore.Rot.Weighted>
5.2325

> <Gold.Chemscore.Internal.Correction.Weighted>
   9.000000E+99

> <Gold.Protein.RotatedTorsions>
[ 6907 6896 6895 6894 ] final   -9.98 input  -60.11 | X-H torsion
[ 7974 7965 7964 7962 ] final  131.23 input  175.53 | X-H torsion
[ 8008 7997 7996 7995 ] final  -59.65 input   59.86 | X-H torsion
[ 10167 10162 10161 10158 ] final -138.72 input  -65.29 | X-H torsion
[ 10718 10713 10712 10709 ] final  -34.53 input   66.30 | X-H torsion
[ 10763 10752 10751 10750 ] final  -52.21 input  -60.55 | X-H torsion
[ 11005 11000 10999 10996 ] final -152.14 input  -57.11 | X-H torsion

> <Gold.Protein.ActiveResidues>
 VAL166  LYS551  ARG553  GLY616  TRP617  ASP618  TYR619  PRO620  LYS621  CYS622 
 ASP623  PHE694  ASN695  SER759  ASP760  ASP761  ALA762  ILE779  LEU786  VAL792 
 PHE793  MET794  SER795  GLU796  ALA797  LYS798  CYS799  TRP800  GLU811  SER814 

> <Gold.Protein.RotatedAtoms>
  151.4093  135.0982  159.9579 H   0  0  0  0  0  0  0  0  0  0  0  0  # atno 6907 bound_to 6896
  152.5025  133.8813  159.7358 H   0  0  0  0  0  0  0  0  0  0  0  0  # atno 6908 bound_to 6896
  150.9304  133.6716  159.2840 H   0  0  0  0  0  0  0  0  0  0  0  0  # atno 6909 bound_to 6896
  145.0094  139.4234  143.5252 H   0  0  0  0  0  0  0  0  0  0  0  0  # atno 7974 bound_to 7965
  154.4362  140.1057  156.6149 H   0  0  0  0  0  0  0  0  0  0  0  0  # atno 8008 bound_to 7997
  155.5770  140.3490  155.4511 H   0  0  0  0  0  0  0  0  0  0  0  0  # atno 8009 bound_to 7997
  156.0347  140.1268  157.0210 H   0  0  0  0  0  0  0  0  0  0  0  0  # atno 8010 bound_to 7997
  139.8450  143.7272  152.2661 H   0  0  0  0  0  0  0  0  0  0  0  0  # atno 10167 bound_to 10162
  156.3494  130.4306  149.7717 H   0  0  0  0  0  0  0  0  0  0  0  0  # atno 10718 bound_to 10713
  154.1390  135.6508  153.4938 H   0  0  0  0  0  0  0  0  0  0  0  0  # atno 10763 bound_to 10752
  153.0172  135.5311  154.6924 H   0  0  0  0  0  0  0  0  0  0  0  0  # atno 10764 bound_to 10752
  154.6180  135.2961  155.0329 H   0  0  0  0  0  0  0  0  0  0  0  0  # atno 10765 bound_to 10752
  140.7221  134.3716  157.5181 H   0  0  0  0  0  0  0  0  0  0  0  0  # atno 11005 bound_to 11000
  146.3467  139.9530  142.8726 LP  0  0  0  0  0  0  0  0  0  0  0  0  # atno 17320 bound_to 7965
  145.2043  140.9868  143.4137 LP  0  0  0  0  0  0  0  0  0  0  0  0  # atno 17321 bound_to 7965
  139.7521  144.7531  151.0491 LP  0  0  0  0  0  0  0  0  0  0  0  0  # atno 17342 bound_to 10162
  140.7794  143.4848  150.9971 LP  0  0  0  0  0  0  0  0  0  0  0  0  # atno 17343 bound_to 10162
  156.4923  130.8091  151.3099 LP  0  0  0  0  0  0  0  0  0  0  0  0  # atno 17370 bound_to 10713
  157.7459  130.9971  150.2805 LP  0  0  0  0  0  0  0  0  0  0  0  0  # atno 17371 bound_to 10713
  139.8846  134.8961  156.2695 LP  0  0  0  0  0  0  0  0  0  0  0  0  # atno 17394 bound_to 11000
  140.9995  133.7160  156.0938 LP  0  0  0  0  0  0  0  0  0  0  0  0  # atno 17395 bound_to 11000

$$$$
