AV-unprocessed.smi:2091|AV-procd|sdf|8538|dock10
  -GOLD-   2272011263D 1   1.00000     0.00000
 Structure written by MMmdl.
 36 37  0  0  0  0  0  0  0  0  1 V2000
  153.0058  139.2795  157.1518 O   0  0  0  0  0  0  0  0  0  0  0  0
  152.2345  139.1192  158.0986 C   0  0  0  0  0  0  0  0  0  0  0  0
  151.8355  137.7079  158.5502 C   0  0  0  0  0  0  0  0  0  0  0  0
  151.0987  136.9697  157.5148 N   0  0  0  0  0  0  0  0  0  0  0  0
  151.5173  137.0079  156.1924 C   0  0  0  0  0  0  0  0  0  0  0  0
  150.8810  136.3567  155.1900 C   0  0  0  0  0  0  0  0  0  0  0  0
  149.6896  135.5611  155.4654 C   0  0  0  0  0  0  0  0  0  0  0  0
  149.0468  134.9335  154.6270 O   0  0  0  0  0  0  0  0  0  0  0  0
  149.2983  135.5504  156.8067 N   0  0  0  0  0  0  0  0  0  0  0  0
  149.9480  136.2208  157.8441 C   0  0  0  0  0  0  0  0  0  0  0  0
  149.5164  136.1471  158.9943 O   0  0  0  0  0  0  0  0  0  0  0  0
  151.7132  140.1361  158.8034 N   0  0  0  0  0  0  0  0  0  0  0  0
  151.9436  141.5592  158.5452 C   0  0  2  0  0  0  0  0  0  0  0  0
  152.0788  142.2631  159.9152 C   0  0  0  0  0  0  0  0  0  0  0  0
  152.8333  143.6024  159.8553 C   0  0  0  0  0  0  0  0  0  0  0  0
  152.1326  144.7061  159.0490 C   0  0  0  0  0  0  0  0  0  0  0  0
  151.9578  144.3656  157.5593 C   0  0  0  0  0  0  0  0  0  0  0  0
  150.8530  143.4431  157.3337 N   0  0  0  0  0  0  0  0  0  0  0  0
  150.7566  142.1773  157.7684 C   0  0  0  0  0  0  0  0  0  0  0  0
  149.7360  141.5235  157.5538 O   0  0  0  0  0  0  0  0  0  0  0  0
  148.4768  135.0143  157.0458 H   0  0  0  0  0  0  0  0  0  0  0  0
  152.7453  137.1723  158.8241 H   0  0  0  0  0  0  0  0  0  0  0  0
  151.2439  137.7576  159.4668 H   0  0  0  0  0  0  0  0  0  0  0  0
  152.3938  137.5883  155.9410 H   0  0  0  0  0  0  0  0  0  0  0  0
  151.2554  136.4251  154.1789 H   0  0  0  0  0  0  0  0  0  0  0  0
  151.0862  139.9102  159.5616 H   0  0  0  0  0  0  0  0  0  0  0  0
  152.8655  141.6710  157.9718 H   0  0  0  0  0  0  0  0  0  0  0  0
  151.1019  142.4007  160.3822 H   0  0  0  0  0  0  0  0  0  0  0  0
  152.6363  141.6155  160.5937 H   0  0  0  0  0  0  0  0  0  0  0  0
  152.9829  143.9613  160.8740 H   0  0  0  0  0  0  0  0  0  0  0  0
  153.8325  143.4368  159.4510 H   0  0  0  0  0  0  0  0  0  0  0  0
  151.1671  144.9467  159.4966 H   0  0  0  0  0  0  0  0  0  0  0  0
  152.7319  145.6137  159.1279 H   0  0  0  0  0  0  0  0  0  0  0  0
  151.7300  145.2783  157.0079 H   0  0  0  0  0  0  0  0  0  0  0  0
  152.8806  143.9714  157.1316 H   0  0  0  0  0  0  0  0  0  0  0  0
  150.0644  143.8113  156.8215 H   0  0  0  0  0  0  0  0  0  0  0  0
  1  2  2  0  0  0  0
  2  3  1  0  0  0  0
  2 12  1  0  0  0  0
  3  4  1  0  0  0  0
  3 22  1  0  0  0  0
  3 23  1  0  0  0  0
  4 10  1  0  0  0  0
  4  5  1  0  0  0  0
  5  6  2  0  0  0  0
  5 24  1  0  0  0  0
  6  7  1  0  0  0  0
  6 25  1  0  0  0  0
  7  8  2  0  0  0  0
  7  9  1  0  0  0  0
  9 21  1  0  0  0  0
  9 10  1  0  0  0  0
 10 11  2  0  0  0  0
 12 13  1  0  0  0  0
 12 26  1  0  0  0  0
 13 19  1  0  0  0  0
 13 14  1  0  0  0  0
 13 27  1  0  0  0  0
 14 15  1  0  0  0  0
 14 28  1  0  0  0  0
 14 29  1  0  0  0  0
 15 16  1  0  0  0  0
 15 30  1  0  0  0  0
 15 31  1  0  0  0  0
 16 17  1  0  0  0  0
 16 32  1  0  0  0  0
 16 33  1  0  0  0  0
 17 18  1  0  0  0  0
 17 34  1  0  0  0  0
 17 35  1  0  0  0  0
 18 19  1  0  0  0  0
 18 36  1  0  0  0  0
 19 20  2  0  0  0  0
M  END
> <s_m_source_file>
AV-unprocessed.smi

> <i_m_source_file_index>
2091

> <i_lp_mmshare_version>
43012

> <i_f3d_flags>
0

> <s_epik_input>
Tz1jMVtuSF1jKD1PKVtjSF1bY0hdbjFbQ0gyXUMoPU8pW05IXVtDQEBIXTJbQ0gyXVtDSDJdW0NIMl1bQ0gyXVtOSF1DMj1P

> <s_epik_cmdline>
J2VwaWtfcHl0aG9uJywgJy1waCcsICc3LjAnLCAnLXRuJywgJzgnLCAnLW1hJywgJzIwMCcsICctbWV0YWxfYmluZGluZycsICctaW1hZScsICc8aW5maWxlLm1hZT4nLCAnLW9tYWUnLCAnPG91dGZpbGUubWFlPic=

> <r_lp_tautomer_probability>
0.999537

> <r_epik_Ionization_Penalty>
0.00356328

> <r_epik_Ionization_Penalty_Charging>
0.00356323

> <r_epik_Ionization_Penalty_Neutral>
5.33217e-08

> <r_epik_State_Penalty>
0.00253125

> <r_epik_Charging_Adjusted_Penalty>
0.00609448

> <i_epik_Tot_Q>
0

> <i_epik_Tot_abs_Q>
0

> <r_epik_Metal_State_Penalty>
0.368636

> <b_epik_Metal_Only>
0

> <s_lp_Force_Field>
OPLS_2005

> <r_lp_Energy>
10.0871

> <b_lp_Chiralities_Consistent>
1

> <s_lp_Variant>
AV-unprocessed.smi:2091-1

> <Gold.Version>
5.8.1

> <Gold.Id.Protein>
6NUR|6NUR_protein|mol2

> <Gold.PLP.Fitness>
40.1931

> <Gold.PLP.PLP>
-32.2191

> <Gold.PLP.part.hbond>
-3.0000

> <Gold.PLP.part.metal>
0.0000

> <Gold.PLP.part.buried>
-6.0813

> <Gold.PLP.part.nonpolar>
-24.2780

> <Gold.PLP.part.repulsive>
0.8748

> <Gold.PLP.ligand.clash>
0.0000

> <Gold.PLP.ligand.torsion>
0.5138

> <Gold.PLP.Chemscore.Hbond>
3.0000

> <Gold.PLP.Chemscore.CHOScore>
0.0000

> <Gold.PLP.Chemscore.Metal>
0.0000

> <Gold.Chemscore.Hbonds>
donor molecule, donor type, donor heavy atom, donor atom, acceptor molecule, acceptor atom, score
      L1  H    18    36       P1  8028  1.00
      P1  H  6896  6909       L1    11  0.90
      P1  H  7997  8008       L1     1  1.00

> <Gold.PLP.Chemscore.Internal.Correction>
0.0015

> <Gold.Rescore>
     Score         DG    S(hbond)    S(metal)    S(lipo)     H(rot)  DE(clash)    DE(int)     intcor
     17.26     -19.11       2.91        0.00      74.64       1.88       0.02       1.83       ----

> <Gold.Chemscore.Fitness>
17.2620

> <Gold.Chemscore.DG>
-19.1115

> <Gold.Chemscore.ZeroCoef>
-5.4800

> <Gold.Chemscore.Hbond>
2.9110

> <Gold.Chemscore.Metal>
0.0000

> <Gold.Chemscore.Lipo>
74.6402

> <Gold.Chemscore.Internal_Hbond>
0.0000

> <Gold.Chemscore.DEClash>
0.0236

> <Gold.Chemscore.DEInternal>
1.8259

> <Gold.Chemscore.Rot>
1.8844

> <Gold.Chemscore.Internal.Correction>
   9.000000E+99

> <Gold.Chemscore.Hbonds>
donor molecule, donor type, donor heavy atom, donor atom, acceptor molecule, acceptor atom, score
      L1  H    18    36       P1  8028  0.99
      P1  H  6896  6909       L1    11  0.18
      P1  H  7997  8008       L1     1  0.98

> <Gold.Chemscore.Hbond.Weighted>
-9.7227

> <Gold.Chemscore.Metal.Weighted>
-0.0000

> <Gold.Chemscore.Lipo.Weighted>
-8.7329

> <Gold.Chemscore.Internal_Hbond.Weighted>
0.0000

> <Gold.Chemscore.DEClash.Weighted>
0.0236

> <Gold.Chemscore.DEInternal.Weighted>
1.8259

> <Gold.Chemscore.Rot.Weighted>
4.8242

> <Gold.Chemscore.Internal.Correction.Weighted>
   9.000000E+99

> <Gold.Protein.RotatedTorsions>
[ 6907 6896 6895 6894 ] final   71.50 input  -60.11 | X-H torsion
[ 7974 7965 7964 7962 ] final -100.94 input  175.53 | X-H torsion
[ 8008 7997 7996 7995 ] final  -46.83 input   59.86 | X-H torsion
[ 10167 10162 10161 10158 ] final -148.31 input  -65.29 | X-H torsion
[ 10718 10713 10712 10709 ] final  159.45 input   66.30 | X-H torsion
[ 10763 10752 10751 10750 ] final   15.34 input  -60.55 | X-H torsion
[ 11005 11000 10999 10996 ] final   10.27 input  -57.11 | X-H torsion

> <Gold.Protein.ActiveResidues>
 VAL166  LYS551  ARG553  GLY616  TRP617  ASP618  TYR619  PRO620  LYS621  CYS622 
 ASP623  PHE694  ASN695  SER759  ASP760  ASP761  ALA762  ILE779  LEU786  VAL792 
 PHE793  MET794  SER795  GLU796  ALA797  LYS798  CYS799  TRP800  GLU811  SER814 

> <Gold.Protein.RotatedAtoms>
  152.4814  134.4710  159.9635 H   0  0  0  0  0  0  0  0  0  0  0  0  # atno 6907 bound_to 6896
  151.4715  133.3562  159.2832 H   0  0  0  0  0  0  0  0  0  0  0  0  # atno 6908 bound_to 6896
  150.8889  134.8316  159.7340 H   0  0  0  0  0  0  0  0  0  0  0  0  # atno 6909 bound_to 6896
  145.2881  140.9345  143.2893 H   0  0  0  0  0  0  0  0  0  0  0  0  # atno 7974 bound_to 7965
  154.4011  140.1362  156.4075 H   0  0  0  0  0  0  0  0  0  0  0  0  # atno 8008 bound_to 7997
  155.7765  140.3482  155.5254 H   0  0  0  0  0  0  0  0  0  0  0  0  # atno 8009 bound_to 7997
  155.8715  140.0972  157.1537 H   0  0  0  0  0  0  0  0  0  0  0  0  # atno 8010 bound_to 7997
  139.7543  143.8471  152.2593 H   0  0  0  0  0  0  0  0  0  0  0  0  # atno 10167 bound_to 10162
  157.1641  131.0594  151.2217 H   0  0  0  0  0  0  0  0  0  0  0  0  # atno 10718 bound_to 10713
  153.1534  135.6783  153.8848 H   0  0  0  0  0  0  0  0  0  0  0  0  # atno 10763 bound_to 10752
  153.8266  135.3123  155.3416 H   0  0  0  0  0  0  0  0  0  0  0  0  # atno 10764 bound_to 10752
  154.7880  135.4851  154.0075 H   0  0  0  0  0  0  0  0  0  0  0  0  # atno 10765 bound_to 10752
  140.5164  134.0602  155.7832 H   0  0  0  0  0  0  0  0  0  0  0  0  # atno 11005 bound_to 11000
  144.9196  139.4428  143.6547 LP  0  0  0  0  0  0  0  0  0  0  0  0  # atno 17320 bound_to 7965
  146.3194  139.8049  142.8958 LP  0  0  0  0  0  0  0  0  0  0  0  0  # atno 17321 bound_to 7965
  139.8459  144.7188  150.9274 LP  0  0  0  0  0  0  0  0  0  0  0  0  # atno 17342 bound_to 10162
  140.7801  143.3942  151.1258 LP  0  0  0  0  0  0  0  0  0  0  0  0  # atno 17343 bound_to 10162
  157.4105  130.7382  149.6835 LP  0  0  0  0  0  0  0  0  0  0  0  0  # atno 17370 bound_to 10713
  155.9749  130.4096  150.3889 LP  0  0  0  0  0  0  0  0  0  0  0  0  # atno 17371 bound_to 10713
  141.1358  133.9224  157.2437 LP  0  0  0  0  0  0  0  0  0  0  0  0  # atno 17394 bound_to 11000
  139.9630  135.0149  156.9312 LP  0  0  0  0  0  0  0  0  0  0  0  0  # atno 17395 bound_to 11000

$$$$
