AV-unprocessed.smi:527|AV-procd|sdf|2826|dock5
  -GOLD-   2262023313D 1   1.00000     0.00000
 Structure written by MMmdl.
 43 44  0  0  0  0  0  0  0  0  2 V2000
  146.7799  141.9049  154.5086 C   0  0  0  0  0  0  0  0  0  0  0  0
  148.0259  141.3412  153.7949 C   0  0  1  0  0  0  0  0  0  0  0  0
  149.2703  141.3864  154.7044 C   0  0  0  0  0  0  0  0  0  0  0  0
  149.2129  140.3302  155.8192 C   0  0  0  0  0  0  0  0  0  0  0  0
  149.0199  138.9219  155.2400 C   0  0  0  0  0  0  0  0  0  0  0  0
  147.7793  138.8388  154.3255 C   0  0  2  0  0  0  0  0  0  0  0  0
  147.6892  137.5026  153.7385 N   0  0  0  0  0  0  0  0  0  0  0  0
  146.7642  136.5807  154.0442 C   0  0  0  0  0  0  0  0  0  0  0  0
  145.9156  136.7387  154.9247 O   0  0  0  0  0  0  0  0  0  0  0  0
  146.8964  135.4869  153.2685 N   0  0  0  0  0  0  0  0  0  0  0  0
  146.1210  134.3834  153.2657 C   0  0  0  0  0  0  0  0  0  0  0  0
  145.1425  134.2062  153.9961 O   0  0  0  0  0  0  0  0  0  0  0  0
  146.5392  133.3043  152.2584 C   0  0  0  0  0  0  0  0  0  0  0  0
  145.5601  133.1126  151.1804 N   0  0  0  0  0  0  0  0  0  0  0  0
  145.6765  132.2922  150.0870 C   0  0  0  0  0  0  0  0  0  0  0  0
  144.5285  132.4517  149.3544 C   0  0  0  0  0  0  0  0  0  0  0  0
  143.7601  133.3611  150.0308 N   0  3  0  0  0  0  0  0  0  0  0  0
  144.3888  133.7620  151.1406 C   0  0  0  0  0  0  0  0  0  0  0  0
  147.8344  139.9158  153.2108 C   0  0  1  0  0  0  0  0  0  0  0  0
  146.6422  139.8358  152.2366 C   0  0  0  0  0  0  0  0  0  0  0  0
  146.4603  141.2772  155.3397 H   0  0  0  0  0  0  0  0  0  0  0  0
  145.9366  142.0034  153.8255 H   0  0  0  0  0  0  0  0  0  0  0  0
  146.9794  142.8994  154.9085 H   0  0  0  0  0  0  0  0  0  0  0  0
  148.2252  142.0115  152.9578 H   0  0  0  0  0  0  0  0  0  0  0  0
  150.1624  141.2159  154.1001 H   0  0  0  0  0  0  0  0  0  0  0  0
  149.3868  142.3802  155.1380 H   0  0  0  0  0  0  0  0  0  0  0  0
  150.1304  140.3641  156.4072 H   0  0  0  0  0  0  0  0  0  0  0  0
  148.4009  140.5584  156.5100 H   0  0  0  0  0  0  0  0  0  0  0  0
  149.9114  138.6417  154.6767 H   0  0  0  0  0  0  0  0  0  0  0  0
  148.9355  138.2037  156.0566 H   0  0  0  0  0  0  0  0  0  0  0  0
  146.8868  139.0148  154.9282 H   0  0  0  0  0  0  0  0  0  0  0  0
  148.3787  137.2720  153.0383 H   0  0  0  0  0  0  0  0  0  0  0  0
  147.6650  135.4948  152.6142 H   0  0  0  0  0  0  0  0  0  0  0  0
  147.4928  133.5752  151.8029 H   0  0  0  0  0  0  0  0  0  0  0  0
  146.6787  132.3510  152.7707 H   0  0  0  0  0  0  0  0  0  0  0  0
  146.5464  131.6750  149.9138 H   0  0  0  0  0  0  0  0  0  0  0  0
  144.2099  131.9996  148.4263 H   0  0  0  0  0  0  0  0  0  0  0  0
  144.0238  134.4741  151.8591 H   0  0  0  0  0  0  0  0  0  0  0  0
  148.7249  139.7094  152.6142 H   0  0  0  0  0  0  0  0  0  0  0  0
  145.6892  139.9018  152.7616 H   0  0  0  0  0  0  0  0  0  0  0  0
  146.6428  138.8989  151.6796 H   0  0  0  0  0  0  0  0  0  0  0  0
  146.6786  140.6436  151.5050 H   0  0  0  0  0  0  0  0  0  0  0  0
  142.8489  133.6877  149.7342 H   0  0  0  0  0  0  0  0  0  0  0  0
  1  2  1  0  0  0  0
  1 21  1  0  0  0  0
  1 22  1  0  0  0  0
  1 23  1  0  0  0  0
  2 19  1  0  0  0  0
  2  3  1  0  0  0  0
  2 24  1  0  0  0  0
  3  4  1  0  0  0  0
  3 25  1  0  0  0  0
  3 26  1  0  0  0  0
  4  5  1  0  0  0  0
  4 27  1  0  0  0  0
  4 28  1  0  0  0  0
  5  6  1  0  0  0  0
  5 29  1  0  0  0  0
  5 30  1  0  0  0  0
  6  7  1  0  0  0  0
  6 19  1  0  0  0  0
  6 31  1  0  0  0  0
  7  8  1  0  0  0  0
  7 32  1  0  0  0  0
  8  9  2  0  0  0  0
  8 10  1  0  0  0  0
 10 11  1  0  0  0  0
 10 33  1  0  0  0  0
 11 12  2  0  0  0  0
 11 13  1  0  0  0  0
 13 14  1  0  0  0  0
 13 34  1  0  0  0  0
 13 35  1  0  0  0  0
 14 18  1  0  0  0  0
 14 15  1  0  0  0  0
 15 16  2  0  0  0  0
 15 36  1  0  0  0  0
 16 17  1  0  0  0  0
 16 37  1  0  0  0  0
 17 18  2  0  0  0  0
 17 43  1  0  0  0  0
 18 38  1  0  0  0  0
 19 20  1  0  0  0  0
 19 39  1  0  0  0  0
 20 40  1  0  0  0  0
 20 41  1  0  0  0  0
 20 42  1  0  0  0  0
M  CHG  1  17   1
M  END
> <s_m_source_file>
AV-unprocessed.smi

> <i_m_source_file_index>
527

> <i_lp_mmshare_version>
43012

> <i_f3d_flags>
0

> <s_epik_input>
W0NIM11bQ0BASF0xW0NIMl1bQ0gyXVtDSDJdW0NASF0oW0NASF0xW0NIM10pW05IXUMoPU8pW05IXUMoPU8pW0NIMl1uMltjSF1bY0hdbltjSF0y

> <s_epik_cmdline>
J2VwaWtfcHl0aG9uJywgJy1waCcsICc3LjAnLCAnLXRuJywgJzgnLCAnLW1hJywgJzIwMCcsICctbWV0YWxfYmluZGluZycsICctaW1hZScsICc8aW5maWxlLm1hZT4nLCAnLW9tYWUnLCAnPG91dGZpbGUubWFlPic=

> <r_lp_tautomer_probability>
1

> <r_epik_Ionization_Penalty>
0.816441

> <r_epik_Ionization_Penalty_Charging>
0

> <r_epik_Ionization_Penalty_Neutral>
0.816441

> <r_epik_State_Penalty>
0.849034

> <r_epik_Charging_Adjusted_Penalty>
0.849034

> <i_epik_Tot_Q>
1

> <i_epik_Tot_abs_Q>
1

> <r_epik_Metal_State_Penalty>
0.984327

> <b_epik_Metal_Only>
0

> <s_lp_Force_Field>
OPLS_2005

> <r_lp_Energy>
18.63

> <b_lp_Chiralities_Consistent>
1

> <s_lp_Variant>
AV-unprocessed.smi:527-12

> <Gold.Version>
5.8.1

> <Gold.Id.Protein>
6NUR|6NUR_protein|mol2

> <Gold.PLP.Fitness>
45.3479

> <Gold.PLP.PLP>
-30.6489

> <Gold.PLP.part.hbond>
-3.0000

> <Gold.PLP.part.metal>
0.0000

> <Gold.PLP.part.buried>
0.6138

> <Gold.PLP.part.nonpolar>
-29.2494

> <Gold.PLP.part.repulsive>
0.1717

> <Gold.PLP.ligand.clash>
0.0000

> <Gold.PLP.ligand.torsion>
0.1434

> <Gold.PLP.Chemscore.Hbond>
4.0000

> <Gold.PLP.Chemscore.CHOScore>
0.9896

> <Gold.PLP.Chemscore.Metal>
0.0000

> <Gold.Chemscore.Hbonds>
donor molecule, donor type, donor heavy atom, donor atom, acceptor molecule, acceptor atom, score
      L1  H     7    32       P1  7948  1.00
      L1  H    10    33       P1  7948  1.00
      L1  H    17    43       P1 10186  2.00
      L1  C    15    36       P1 10747  0.89

> <Gold.PLP.Chemscore.Internal.Correction>
0.0171

> <Gold.Rescore>
     Score         DG    S(hbond)    S(metal)    S(lipo)     H(rot)  DE(clash)    DE(int)     intcor
     16.42     -19.24       2.90        0.00      72.07       1.71       1.18       1.65       ----

> <Gold.Chemscore.Fitness>
16.4190

> <Gold.Chemscore.DG>
-19.2406

> <Gold.Chemscore.ZeroCoef>
-5.4800

> <Gold.Chemscore.Hbond>
2.9024

> <Gold.Chemscore.Metal>
0.0000

> <Gold.Chemscore.Lipo>
72.0670

> <Gold.Chemscore.Internal_Hbond>
0.0000

> <Gold.Chemscore.DEClash>
1.1765

> <Gold.Chemscore.DEInternal>
1.6452

> <Gold.Chemscore.Rot>
1.7052

> <Gold.Chemscore.Internal.Correction>
   9.000000E+99

> <Gold.Chemscore.Hbonds>
donor molecule, donor type, donor heavy atom, donor atom, acceptor molecule, acceptor atom, score
      L1  H     7    32       P1  7948  0.95
      L1  H    10    33       P1  7948  0.97
      L1  H    17    43       P1 10186  0.97

> <Gold.Chemscore.Hbond.Weighted>
-9.6941

> <Gold.Chemscore.Metal.Weighted>
-0.0000

> <Gold.Chemscore.Lipo.Weighted>
-8.4318

> <Gold.Chemscore.Internal_Hbond.Weighted>
0.0000

> <Gold.Chemscore.DEClash.Weighted>
1.1765

> <Gold.Chemscore.DEInternal.Weighted>
1.6452

> <Gold.Chemscore.Rot.Weighted>
4.3653

> <Gold.Chemscore.Internal.Correction.Weighted>
   9.000000E+99

> <Gold.Protein.RotatedTorsions>
[ 6907 6896 6895 6894 ] final -132.31 input  -60.11 | X-H torsion
[ 7974 7965 7964 7962 ] final   22.17 input  175.53 | X-H torsion
[ 8008 7997 7996 7995 ] final  -16.40 input   59.86 | X-H torsion
[ 10167 10162 10161 10158 ] final  124.12 input  -65.29 | X-H torsion
[ 10718 10713 10712 10709 ] final  -20.75 input   66.30 | X-H torsion
[ 10763 10752 10751 10750 ] final -139.08 input  -60.55 | X-H torsion
[ 11005 11000 10999 10996 ] final  -82.30 input  -57.11 | X-H torsion

> <Gold.Protein.ActiveResidues>
 VAL166  LYS551  ARG553  GLY616  TRP617  ASP618  TYR619  PRO620  LYS621  CYS622 
 ASP623  PHE694  ASN695  SER759  ASP760  ASP761  ALA762  ILE779  LEU786  VAL792 
 PHE793  MET794  SER795  GLU796  ALA797  LYS798  CYS799  TRP800  GLU811  SER814 

> <Gold.Protein.RotatedAtoms>
  150.9609  133.6446  159.2754 H   0  0  0  0  0  0  0  0  0  0  0  0  # atno 6907 bound_to 6896
  151.3769  135.0931  159.9493 H   0  0  0  0  0  0  0  0  0  0  0  0  # atno 6908 bound_to 6896
  152.5147  133.9152  159.7562 H   0  0  0  0  0  0  0  0  0  0  0  0  # atno 6909 bound_to 6896
  146.2040  139.7924  142.8740 H   0  0  0  0  0  0  0  0  0  0  0  0  # atno 7974 bound_to 7965
  154.5056  140.2170  155.9258 H   0  0  0  0  0  0  0  0  0  0  0  0  # atno 8008 bound_to 7997
  156.1489  140.3165  155.8582 H   0  0  0  0  0  0  0  0  0  0  0  0  # atno 8009 bound_to 7997
  155.3977  140.0482  157.3029 H   0  0  0  0  0  0  0  0  0  0  0  0  # atno 8010 bound_to 7997
  139.5760  144.6963  151.3652 H   0  0  0  0  0  0  0  0  0  0  0  0  # atno 10167 bound_to 10162
  156.5275  130.4647  149.6564 H   0  0  0  0  0  0  0  0  0  0  0  0  # atno 10718 bound_to 10713
  154.8619  135.3593  154.5489 H   0  0  0  0  0  0  0  0  0  0  0  0  # atno 10763 bound_to 10752
  153.6107  135.7009  153.5352 H   0  0  0  0  0  0  0  0  0  0  0  0  # atno 10764 bound_to 10752
  153.3211  135.4151  155.1378 H   0  0  0  0  0  0  0  0  0  0  0  0  # atno 10765 bound_to 10752
  141.1663  133.7238  156.8551 H   0  0  0  0  0  0  0  0  0  0  0  0  # atno 11005 bound_to 11000
  145.3384  141.0282  143.3406 LP  0  0  0  0  0  0  0  0  0  0  0  0  # atno 17320 bound_to 7965
  144.8749  139.4985  143.6750 LP  0  0  0  0  0  0  0  0  0  0  0  0  # atno 17321 bound_to 7965
  140.7042  143.7555  150.7454 LP  0  0  0  0  0  0  0  0  0  0  0  0  # atno 17342 bound_to 10162
  140.1075  143.4730  152.2390 LP  0  0  0  0  0  0  0  0  0  0  0  0  # atno 17343 bound_to 10162
  156.3091  130.7219  151.2108 LP  0  0  0  0  0  0  0  0  0  0  0  0  # atno 17370 bound_to 10713
  157.7427  131.0486  150.5004 LP  0  0  0  0  0  0  0  0  0  0  0  0  # atno 17371 bound_to 10713
  140.1888  134.8980  157.3036 LP  0  0  0  0  0  0  0  0  0  0  0  0  # atno 17394 bound_to 11000
  140.2313  134.3906  155.7520 LP  0  0  0  0  0  0  0  0  0  0  0  0  # atno 17395 bound_to 11000

$$$$
