AV-unprocessed.smi:1060|AV-procd|sdf|4658|dock4
  -GOLD-   22720 3163D 1   1.00000     0.00000
 Structure written by MMmdl.
 36 37  0  0  0  0  0  0  0  0  2 V2000
  150.8468  137.0206  159.7361 O   0  0  0  0  0  0  0  0  0  0  0  0
  150.1704  137.4966  158.8247 C   0  0  0  0  0  0  0  0  0  0  0  0
  149.0335  136.6741  158.2150 C   0  0  0  0  0  0  0  0  0  0  0  0
  148.9367  135.4256  158.8838 O   0  0  0  0  0  0  0  0  0  0  0  0
  147.6248  135.1467  159.3412 C   0  0  0  0  0  0  0  0  0  0  0  0
  147.2330  136.1980  160.3866 C   0  0  2  0  0  0  0  0  0  0  0  0
  147.9461  136.0334  161.7255 C   0  0  0  0  0  0  0  0  0  0  0  0
  147.0270  136.7623  162.6901 C   0  0  0  0  0  0  0  0  0  0  0  0
  145.6695  136.7578  161.9794 C   0  0  0  0  0  0  0  0  0  0  0  0
  145.8728  136.0499  160.7623 O   0  0  0  0  0  0  0  0  0  0  0  0
  150.3342  138.7196  158.2826 N   0  0  0  0  0  0  0  0  0  0  0  0
  151.2682  139.7290  158.5789 C   0  0  0  0  0  0  0  0  0  0  0  0
  150.9675  141.0364  158.8175 C   0  0  0  0  0  0  0  0  0  0  0  0
  151.9893  142.0298  159.1231 C   0  0  0  0  0  0  0  0  0  0  0  0
  151.7001  143.5094  159.3057 C   0  0  0  0  0  0  0  0  0  0  0  0
  152.1037  143.9055  160.5119 F   0  0  0  0  0  0  0  0  0  0  0  0
  152.3426  144.2385  158.3929 F   0  0  0  0  0  0  0  0  0  0  0  0
  150.3950  143.7595  159.2005 F   0  0  0  0  0  0  0  0  0  0  0  0
  153.2612  141.4920  159.1218 C   0  0  0  0  0  0  0  0  0  0  0  0
  153.6430  140.2127  158.9166 N   0  5  0  0  0  0  0  0  0  0  0  0
  152.6792  139.2913  158.6351 C   0  0  0  0  0  0  0  0  0  0  0  0
  152.9600  138.1099  158.4298 O   0  0  0  0  0  0  0  0  0  0  0  0
  148.0948  137.2232  158.3060 H   0  0  0  0  0  0  0  0  0  0  0  0
  149.2346  136.5225  157.1534 H   0  0  0  0  0  0  0  0  0  0  0  0
  146.9136  135.1422  158.5137 H   0  0  0  0  0  0  0  0  0  0  0  0
  147.6101  134.1545  159.7948 H   0  0  0  0  0  0  0  0  0  0  0  0
  147.4002  137.2058  160.0012 H   0  0  0  0  0  0  0  0  0  0  0  0
  147.9998  134.9780  161.9962 H   0  0  0  0  0  0  0  0  0  0  0  0
  148.9603  136.4338  161.7184 H   0  0  0  0  0  0  0  0  0  0  0  0
  146.9887  136.2682  163.6614 H   0  0  0  0  0  0  0  0  0  0  0  0
  147.3658  137.7869  162.8468 H   0  0  0  0  0  0  0  0  0  0  0  0
  144.8924  136.2766  162.5731 H   0  0  0  0  0  0  0  0  0  0  0  0
  145.3475  137.7762  161.7593 H   0  0  0  0  0  0  0  0  0  0  0  0
  149.6861  138.9663  157.5486 H   0  0  0  0  0  0  0  0  0  0  0  0
  149.9513  141.3901  158.7955 H   0  0  0  0  0  0  0  0  0  0  0  0
  154.0986  142.1974  159.3104 H   0  0  0  0  0  0  0  0  0  0  0  0
  1  2  2  0  0  0  0
  2  3  1  0  0  0  0
  2 11  1  0  0  0  0
  3  4  1  0  0  0  0
  3 23  1  0  0  0  0
  3 24  1  0  0  0  0
  4  5  1  0  0  0  0
  5  6  1  0  0  0  0
  5 25  1  0  0  0  0
  5 26  1  0  0  0  0
  6 10  1  0  0  0  0
  6  7  1  0  0  0  0
  6 27  1  0  0  0  0
  7  8  1  0  0  0  0
  7 28  1  0  0  0  0
  7 29  1  0  0  0  0
  8  9  1  0  0  0  0
  8 30  1  0  0  0  0
  8 31  1  0  0  0  0
  9 10  1  0  0  0  0
  9 32  1  0  0  0  0
  9 33  1  0  0  0  0
 11 12  1  0  0  0  0
 11 34  1  0  0  0  0
 12 21  1  0  0  0  0
 12 13  2  0  0  0  0
 13 14  1  0  0  0  0
 13 35  1  0  0  0  0
 14 15  1  0  0  0  0
 14 19  2  0  0  0  0
 15 16  1  0  0  0  0
 15 17  1  0  0  0  0
 15 18  1  0  0  0  0
 19 20  1  0  0  0  0
 19 36  1  0  0  0  0
 20 21  1  0  0  0  0
 21 22  2  0  0  0  0
M  CHG  1  20  -1
M  END
> <s_m_source_file>
AV-unprocessed.smi

> <i_m_source_file_index>
1060

> <i_lp_mmshare_version>
43012

> <i_f3d_flags>
0

> <s_epik_input>
Tz1jMVtuSF1bY0hdYyhDKEYpKEYpRilbY0hdYzFbTkhdQyg9TylbQ0gyXU9bQ0gyXVtDQEBIXTJbQ0gyXVtDSDJdW0NIMl1PMg==

> <s_epik_cmdline>
J2VwaWtfcHl0aG9uJywgJy1waCcsICc3LjAnLCAnLXRuJywgJzgnLCAnLW1hJywgJzIwMCcsICctbWV0YWxfYmluZGluZycsICctaW1hZScsICc8aW5maWxlLm1hZT4nLCAnLW9tYWUnLCAnPG91dGZpbGUubWFlPic=

> <r_epik_Ionization_Penalty>
2.50578

> <r_epik_Ionization_Penalty_Charging>
0.0523173

> <r_epik_Ionization_Penalty_Neutral>
2.45346

> <r_epik_State_Penalty>
2.61512

> <r_epik_Charging_Adjusted_Penalty>
2.66744

> <i_epik_Tot_Q>
-1

> <i_epik_Tot_abs_Q>
1

> <r_epik_Metal_State_Penalty>
0.513209

> <b_epik_Metal_Only>
0

> <s_lp_Force_Field>
OPLS_2005

> <r_lp_Energy>
34.3401

> <b_lp_Chiralities_Consistent>
1

> <s_lp_Variant>
AV-unprocessed.smi:1060-3

> <Gold.Version>
5.8.1

> <Gold.Id.Protein>
6NUR|6NUR_protein|mol2

> <Gold.PLP.Fitness>
47.5817

> <Gold.PLP.PLP>
-40.6793

> <Gold.PLP.part.hbond>
-3.0289

> <Gold.PLP.part.metal>
0.0000

> <Gold.PLP.part.buried>
-5.1676

> <Gold.PLP.part.nonpolar>
-32.5771

> <Gold.PLP.part.repulsive>
0.1276

> <Gold.PLP.ligand.clash>
0.0000

> <Gold.PLP.ligand.torsion>
0.8763

> <Gold.PLP.Chemscore.Hbond>
2.8240

> <Gold.PLP.Chemscore.CHOScore>
0.0000

> <Gold.PLP.Chemscore.Metal>
0.0000

> <Gold.Chemscore.Hbonds>
donor molecule, donor type, donor heavy atom, donor atom, acceptor molecule, acceptor atom, score
      P1  H  6896  6909       L1     4  0.86
      P1  H  7997  8008       L1    20  1.60

> <Gold.PLP.Chemscore.Internal.Correction>
0.1829

> <Gold.Rescore>
     Score         DG    S(hbond)    S(metal)    S(lipo)     H(rot)  DE(clash)    DE(int)     intcor
      9.70     -13.27       1.09        0.00      77.60       1.92       0.02       3.55       ----

> <Gold.Chemscore.Fitness>
9.7013

> <Gold.Chemscore.DG>
-13.2719

> <Gold.Chemscore.ZeroCoef>
-5.4800

> <Gold.Chemscore.Hbond>
1.0855

> <Gold.Chemscore.Metal>
0.0000

> <Gold.Chemscore.Lipo>
77.5972

> <Gold.Chemscore.Internal_Hbond>
0.0000

> <Gold.Chemscore.DEClash>
0.0162

> <Gold.Chemscore.DEInternal>
3.5544

> <Gold.Chemscore.Rot>
1.9190

> <Gold.Chemscore.Internal.Correction>
   9.000000E+99

> <Gold.Chemscore.Hbonds>
donor molecule, donor type, donor heavy atom, donor atom, acceptor molecule, acceptor atom, score
      P1  H  6896  6909       L1     4  0.71
      P1  H  7997  8008       L1    20  0.21

> <Gold.Chemscore.Hbond.Weighted>
-3.6257

> <Gold.Chemscore.Metal.Weighted>
-0.0000

> <Gold.Chemscore.Lipo.Weighted>
-9.0789

> <Gold.Chemscore.Internal_Hbond.Weighted>
0.0000

> <Gold.Chemscore.DEClash.Weighted>
0.0162

> <Gold.Chemscore.DEInternal.Weighted>
3.5544

> <Gold.Chemscore.Rot.Weighted>
4.9126

> <Gold.Chemscore.Internal.Correction.Weighted>
   9.000000E+99

> <Gold.Protein.RotatedTorsions>
[ 6907 6896 6895 6894 ] final   63.60 input  -60.11 | X-H torsion
[ 7974 7965 7964 7962 ] final  115.49 input  175.53 | X-H torsion
[ 8008 7997 7996 7995 ] final -106.79 input   59.86 | X-H torsion
[ 10167 10162 10161 10158 ] final  -45.95 input  -65.29 | X-H torsion
[ 10718 10713 10712 10709 ] final   76.66 input   66.30 | X-H torsion
[ 10763 10752 10751 10750 ] final -102.40 input  -60.55 | X-H torsion
[ 11005 11000 10999 10996 ] final   36.77 input  -57.11 | X-H torsion

> <Gold.Protein.ActiveResidues>
 VAL166  LYS551  ARG553  GLY616  TRP617  ASP618  TYR619  PRO620  LYS621  CYS622 
 ASP623  PHE694  ASN695  SER759  ASP760  ASP761  ALA762  ILE779  LEU786  VAL792 
 PHE793  MET794  SER795  GLU796  ALA797  LYS798  CYS799  TRP800  GLU811  SER814 

> <Gold.Protein.RotatedAtoms>
  152.4266  134.5857  159.9960 H   0  0  0  0  0  0  0  0  0  0  0  0  # atno 6907 bound_to 6896
  151.5992  133.3352  159.3052 H   0  0  0  0  0  0  0  0  0  0  0  0  # atno 6908 bound_to 6896
  150.8156  134.7372  159.6792 H   0  0  0  0  0  0  0  0  0  0  0  0  # atno 6909 bound_to 6896
  145.1914  139.2998  143.4366 H   0  0  0  0  0  0  0  0  0  0  0  0  # atno 7974 bound_to 7965
  154.9197  140.0407  157.1991 H   0  0  0  0  0  0  0  0  0  0  0  0  # atno 8008 bound_to 7997
  154.8266  140.2892  155.5729 H   0  0  0  0  0  0  0  0  0  0  0  0  # atno 8009 bound_to 7997
  156.2984  140.2508  156.3183 H   0  0  0  0  0  0  0  0  0  0  0  0  # atno 8010 bound_to 7997
  140.6837  143.2854  151.3713 H   0  0  0  0  0  0  0  0  0  0  0  0  # atno 10167 bound_to 10162
  157.6682  130.9785  150.1529 H   0  0  0  0  0  0  0  0  0  0  0  0  # atno 10718 bound_to 10713
  154.7731  135.4862  153.9688 H   0  0  0  0  0  0  0  0  0  0  0  0  # atno 10763 bound_to 10752
  153.1393  135.6769  153.9060 H   0  0  0  0  0  0  0  0  0  0  0  0  # atno 10764 bound_to 10752
  153.8740  135.3140  155.3421 H   0  0  0  0  0  0  0  0  0  0  0  0  # atno 10765 bound_to 10752
  140.2292  134.3547  155.7971 H   0  0  0  0  0  0  0  0  0  0  0  0  # atno 11005 bound_to 11000
  146.3435  140.2127  142.8590 LP  0  0  0  0  0  0  0  0  0  0  0  0  # atno 17320 bound_to 7965
  145.0038  140.8655  143.5266 LP  0  0  0  0  0  0  0  0  0  0  0  0  # atno 17321 bound_to 7965
  139.6179  144.0966  152.2363 LP  0  0  0  0  0  0  0  0  0  0  0  0  # atno 17342 bound_to 10162
  140.0401  144.6014  150.7418 LP  0  0  0  0  0  0  0  0  0  0  0  0  # atno 17343 bound_to 10162
  156.2324  130.3683  149.8430 LP  0  0  0  0  0  0  0  0  0  0  0  0  # atno 17370 bound_to 10713
  156.6253  130.8643  151.3484 LP  0  0  0  0  0  0  0  0  0  0  0  0  # atno 17371 bound_to 10713
  141.2219  133.7236  156.8704 LP  0  0  0  0  0  0  0  0  0  0  0  0  # atno 17394 bound_to 11000
  140.1768  134.9061  157.2900 LP  0  0  0  0  0  0  0  0  0  0  0  0  # atno 17395 bound_to 11000

$$$$
