AV-unprocessed.smi:2741|AV-procd|sdf|10560|dock9
  -GOLD-   2272015 13D 1   1.00000     0.00000
 Structure written by MMmdl.
 39 40  0  0  0  0  0  0  0  0  1 V2000
  152.9164  139.5444  156.4537 O   0  0  0  0  0  0  0  0  0  0  0  0
  151.8067  139.3674  156.9583 C   0  0  0  0  0  0  0  0  0  0  0  0
  151.6220  139.3761  158.4828 C   0  0  0  0  0  0  0  0  0  0  0  0
  152.1345  140.5979  159.1259 N   0  0  0  0  0  0  0  0  0  0  0  0
  151.5325  141.8175  158.7581 C   0  0  0  0  0  0  0  0  0  0  0  0
  151.9221  143.0067  159.2559 C   0  0  0  0  0  0  0  0  0  0  0  0
  151.2183  144.2998  158.8747 C   0  0  0  0  0  0  0  0  0  0  0  0
  151.3172  144.5351  157.5662 F   0  0  0  0  0  0  0  0  0  0  0  0
  149.9256  144.2207  159.1864 F   0  0  0  0  0  0  0  0  0  0  0  0
  151.7393  145.3393  159.5278 F   0  0  0  0  0  0  0  0  0  0  0  0
  152.9905  142.9775  160.2353 C   0  0  0  0  0  0  0  0  0  0  0  0
  153.5725  141.8191  160.6031 C   0  0  0  0  0  0  0  0  0  0  0  0
  153.1536  140.5360  160.0346 C   0  0  0  0  0  0  0  0  0  0  0  0
  153.6847  139.4723  160.3551 O   0  0  0  0  0  0  0  0  0  0  0  0
  150.6939  139.1759  156.2339 N   0  0  0  0  0  0  0  0  0  0  0  0
  150.6378  139.1381  154.7765 C   0  0  0  0  0  0  0  0  0  0  0  0
  149.2934  139.6590  154.2329 C   0  0  2  0  0  0  0  0  0  0  0  0
  149.0563  141.1668  154.4438 C   0  0  0  0  0  0  0  0  0  0  0  0
  147.5605  141.3371  154.7557 C   0  0  0  0  0  0  0  0  0  0  0  0
  146.9356  139.9524  154.5617 C   0  0  2  0  0  0  0  0  0  0  0  0
  145.8205  139.7466  155.4030 O   0  0  0  0  0  0  0  0  0  0  0  0
  148.0747  138.9817  154.8648 C   0  0  0  0  0  0  0  0  0  0  0  0
  150.5600  139.2481  158.6964 H   0  0  0  0  0  0  0  0  0  0  0  0
  152.1059  138.4955  158.9096 H   0  0  0  0  0  0  0  0  0  0  0  0
  150.7330  141.7252  158.0374 H   0  0  0  0  0  0  0  0  0  0  0  0
  153.3348  143.9001  160.6786 H   0  0  0  0  0  0  0  0  0  0  0  0
  154.3681  141.8352  161.3334 H   0  0  0  0  0  0  0  0  0  0  0  0
  149.8227  139.0430  156.7271 H   0  0  0  0  0  0  0  0  0  0  0  0
  151.4643  139.7153  154.3584 H   0  0  0  0  0  0  0  0  0  0  0  0
  150.7941  138.1062  154.4604 H   0  0  0  0  0  0  0  0  0  0  0  0
  149.2479  139.4634  153.1602 H   0  0  0  0  0  0  0  0  0  0  0  0
  149.6486  141.5476  155.2767 H   0  0  0  0  0  0  0  0  0  0  0  0
  149.3474  141.7307  153.5569 H   0  0  0  0  0  0  0  0  0  0  0  0
  147.4478  141.6617  155.7913 H   0  0  0  0  0  0  0  0  0  0  0  0
  147.0865  142.0900  154.1252 H   0  0  0  0  0  0  0  0  0  0  0  0
  146.6252  139.8351  153.5224 H   0  0  0  0  0  0  0  0  0  0  0  0
  145.9767  138.9748  155.9255 H   0  0  0  0  0  0  0  0  0  0  0  0
  147.8947  137.9837  154.4644 H   0  0  0  0  0  0  0  0  0  0  0  0
  148.2148  138.8905  155.9435 H   0  0  0  0  0  0  0  0  0  0  0  0
  1  2  2  0  0  0  0
  2  3  1  0  0  0  0
  2 15  1  0  0  0  0
  3  4  1  0  0  0  0
  3 23  1  0  0  0  0
  3 24  1  0  0  0  0
  4 13  1  0  0  0  0
  4  5  1  0  0  0  0
  5  6  2  0  0  0  0
  5 25  1  0  0  0  0
  6  7  1  0  0  0  0
  6 11  1  0  0  0  0
  7  8  1  0  0  0  0
  7  9  1  0  0  0  0
  7 10  1  0  0  0  0
 11 12  2  0  0  0  0
 11 26  1  0  0  0  0
 12 13  1  0  0  0  0
 12 27  1  0  0  0  0
 13 14  2  0  0  0  0
 15 16  1  0  0  0  0
 15 28  1  0  0  0  0
 16 17  1  0  0  0  0
 16 29  1  0  0  0  0
 16 30  1  0  0  0  0
 17 22  1  0  0  0  0
 17 18  1  0  0  0  0
 17 31  1  0  0  0  0
 18 19  1  0  0  0  0
 18 32  1  0  0  0  0
 18 33  1  0  0  0  0
 19 20  1  0  0  0  0
 19 34  1  0  0  0  0
 19 35  1  0  0  0  0
 20 21  1  0  0  0  0
 20 22  1  0  0  0  0
 20 36  1  0  0  0  0
 21 37  1  0  0  0  0
 22 38  1  0  0  0  0
 22 39  1  0  0  0  0
M  END
> <s_m_source_file>
AV-unprocessed.smi

> <i_m_source_file_index>
2741

> <i_lp_mmshare_version>
43012

> <i_f3d_flags>
0

> <s_epik_input>
W09IXVtDQEBIXShbQ0gyXTEpW0NIMl1bQ0gyXVtDQEhdMVtDSDJdW05IXUMoPU8pW0NIMl1uMltjSF1jKEMoRikoRilGKVtjSF1bY0hdYzI9Tw==

> <s_epik_cmdline>
J2VwaWtfcHl0aG9uJywgJy1waCcsICc3LjAnLCAnLXRuJywgJzgnLCAnLW1hJywgJzIwMCcsICctbWV0YWxfYmluZGluZycsICctaW1hZScsICc8aW5maWxlLm1hZT4nLCAnLW9tYWUnLCAnPG91dGZpbGUubWFlPic=

> <r_lp_tautomer_probability>
1

> <r_epik_Ionization_Penalty>
1.17551e-06

> <r_epik_Ionization_Penalty_Charging>
1.78841e-08

> <r_epik_Ionization_Penalty_Neutral>
1.15762e-06

> <r_epik_State_Penalty>
-0

> <r_epik_Charging_Adjusted_Penalty>
1.78841e-08

> <i_epik_Tot_Q>
0

> <i_epik_Tot_abs_Q>
0

> <r_epik_Metal_State_Penalty>
-0

> <b_epik_Metal_Only>
0

> <s_lp_Force_Field>
OPLS_2005

> <r_lp_Energy>
33.0279

> <b_lp_Chiralities_Consistent>
1

> <s_lp_Variant>
AV-unprocessed.smi:2741-3

> <Gold.Version>
5.8.1

> <Gold.Id.Protein>
6NUR|6NUR_protein|mol2

> <Gold.PLP.Fitness>
50.7559

> <Gold.PLP.PLP>
-48.2175

> <Gold.PLP.part.hbond>
-0.9854

> <Gold.PLP.part.metal>
0.0000

> <Gold.PLP.part.buried>
-4.4953

> <Gold.PLP.part.nonpolar>
-42.1838

> <Gold.PLP.part.repulsive>
0.0484

> <Gold.PLP.ligand.clash>
0.0000

> <Gold.PLP.ligand.torsion>
0.2618

> <Gold.PLP.Chemscore.Hbond>
1.0000

> <Gold.PLP.Chemscore.CHOScore>
0.0000

> <Gold.PLP.Chemscore.Metal>
0.0000

> <Gold.Chemscore.Hbonds>
donor molecule, donor type, donor heavy atom, donor atom, acceptor molecule, acceptor atom, score
      P1  H  7997  8010       L1     1  1.00

> <Gold.PLP.Chemscore.Internal.Correction>
0.0620

> <Gold.Rescore>
     Score         DG    S(hbond)    S(metal)    S(lipo)     H(rot)  DE(clash)    DE(int)     intcor
     13.08     -13.43       0.99        0.00      93.83       2.48       0.16       0.20       ----

> <Gold.Chemscore.Fitness>
13.0765

> <Gold.Chemscore.DG>
-13.4297

> <Gold.Chemscore.ZeroCoef>
-5.4800

> <Gold.Chemscore.Hbond>
0.9947

> <Gold.Chemscore.Metal>
0.0000

> <Gold.Chemscore.Lipo>
93.8290

> <Gold.Chemscore.Internal_Hbond>
0.0000

> <Gold.Chemscore.DEClash>
0.1579

> <Gold.Chemscore.DEInternal>
0.1954

> <Gold.Chemscore.Rot>
2.4807

> <Gold.Chemscore.Internal.Correction>
   9.000000E+99

> <Gold.Chemscore.Hbonds>
donor molecule, donor type, donor heavy atom, donor atom, acceptor molecule, acceptor atom, score
      P1  H  7997  8010       L1     1  0.96

> <Gold.Chemscore.Hbond.Weighted>
-3.3224

> <Gold.Chemscore.Metal.Weighted>
-0.0000

> <Gold.Chemscore.Lipo.Weighted>
-10.9780

> <Gold.Chemscore.Internal_Hbond.Weighted>
0.0000

> <Gold.Chemscore.DEClash.Weighted>
0.1579

> <Gold.Chemscore.DEInternal.Weighted>
0.1954

> <Gold.Chemscore.Rot.Weighted>
6.3507

> <Gold.Chemscore.Internal.Correction.Weighted>
   9.000000E+99

> <Gold.Protein.RotatedTorsions>
[ 6907 6896 6895 6894 ] final  152.19 input  -60.11 | X-H torsion
[ 7974 7965 7964 7962 ] final  163.31 input  175.53 | X-H torsion
[ 8008 7997 7996 7995 ] final   59.16 input   59.86 | X-H torsion
[ 10167 10162 10161 10158 ] final  101.21 input  -65.29 | X-H torsion
[ 10718 10713 10712 10709 ] final   70.05 input   66.30 | X-H torsion
[ 10763 10752 10751 10750 ] final  140.83 input  -60.55 | X-H torsion
[ 11005 11000 10999 10996 ] final   71.13 input  -57.11 | X-H torsion

> <Gold.Protein.ActiveResidues>
 VAL166  LYS551  ARG553  GLY616  TRP617  ASP618  TYR619  PRO620  LYS621  CYS622 
 ASP623  PHE694  ASN695  SER759  ASP760  ASP761  ALA762  ILE779  LEU786  VAL792 
 PHE793  MET794  SER795  GLU796  ALA797  LYS798  CYS799  TRP800  GLU811  SER814 

> <Gold.Protein.RotatedAtoms>
  152.0902  133.4196  159.4539 H   0  0  0  0  0  0  0  0  0  0  0  0  # atno 6907 bound_to 6896
  150.6862  134.2881  159.4664 H   0  0  0  0  0  0  0  0  0  0  0  0  # atno 6908 bound_to 6896
  152.0731  134.9520  160.0625 H   0  0  0  0  0  0  0  0  0  0  0  0  # atno 6909 bound_to 6896
  144.7595  139.8165  143.6337 H   0  0  0  0  0  0  0  0  0  0  0  0  # atno 7974 bound_to 7965
  155.5618  140.3488  155.4493 H   0  0  0  0  0  0  0  0  0  0  0  0  # atno 8008 bound_to 7997
  156.0509  140.1317  157.0077 H   0  0  0  0  0  0  0  0  0  0  0  0  # atno 8009 bound_to 7997
  154.4434  140.1005  156.6359 H   0  0  0  0  0  0  0  0  0  0  0  0  # atno 8010 bound_to 7997
  139.7458  144.6998  151.0507 H   0  0  0  0  0  0  0  0  0  0  0  0  # atno 10167 bound_to 10162
  157.6379  130.9457  150.0597 H   0  0  0  0  0  0  0  0  0  0  0  0  # atno 10718 bound_to 10713
  153.9291  135.2992  155.3446 H   0  0  0  0  0  0  0  0  0  0  0  0  # atno 10763 bound_to 10752
  154.7536  135.4968  153.9336 H   0  0  0  0  0  0  0  0  0  0  0  0  # atno 10764 bound_to 10752
  153.1101  135.6757  153.9620 H   0  0  0  0  0  0  0  0  0  0  0  0  # atno 10765 bound_to 10752
  139.9560  134.7143  156.0752 H   0  0  0  0  0  0  0  0  0  0  0  0  # atno 11005 bound_to 11000
  146.1643  139.4769  142.9968 LP  0  0  0  0  0  0  0  0  0  0  0  0  # atno 17320 bound_to 7965
  145.6665  141.0227  143.1680 LP  0  0  0  0  0  0  0  0  0  0  0  0  # atno 17321 bound_to 7965
  140.7792  143.4869  150.9944 LP  0  0  0  0  0  0  0  0  0  0  0  0  # atno 17342 bound_to 10162
  139.8557  143.7380  152.3176 LP  0  0  0  0  0  0  0  0  0  0  0  0  # atno 17343 bound_to 10162
  156.1634  130.3644  149.9267 LP  0  0  0  0  0  0  0  0  0  0  0  0  # atno 17370 bound_to 10713
  156.7260  130.9025  151.3622 LP  0  0  0  0  0  0  0  0  0  0  0  0  # atno 17371 bound_to 10713
  141.1231  133.6607  156.3267 LP  0  0  0  0  0  0  0  0  0  0  0  0  # atno 17394 bound_to 11000
  140.5608  134.5936  157.5433 LP  0  0  0  0  0  0  0  0  0  0  0  0  # atno 17395 bound_to 11000

$$$$
