AV-unprocessed.smi:72|AV-procd|sdf|676|dock7
  -GOLD-   2262016583D 1   1.00000     0.00000
 Structure written by MMmdl.
 29 30  0  0  0  0  0  0  0  0  1 V2000
  150.3003  144.0630  158.1660 N   0  0  0  0  0  0  0  0  0  0  0  0
  150.6381  142.8544  157.8885 C   0  0  0  0  0  0  0  0  0  0  0  0
  151.2866  141.9723  158.7653 N   0  0  0  0  0  0  0  0  0  0  0  0
  151.5546  140.7707  158.3562 C   0  0  0  0  0  0  0  0  0  0  0  0
  151.1883  140.3017  157.0253 N   0  0  0  0  0  0  0  0  0  0  0  0
  151.5053  138.9003  156.5284 C   0  0  1  0  0  0  0  0  0  0  0  0
  150.3265  138.1547  156.4166 O   0  0  0  0  0  0  0  0  0  0  0  0
  149.8824  138.1526  155.0629 C   0  0  2  0  0  0  0  0  0  0  0  0
  148.8645  137.0271  154.8101 C   0  0  0  0  0  0  0  0  0  0  0  0
  148.0081  137.3855  153.7468 O   0  0  0  0  0  0  0  0  0  0  0  0
  151.2049  138.0414  154.2987 C   0  0  2  0  0  0  0  0  0  0  0  0
  151.6465  136.6936  154.2672 O   0  0  0  0  0  0  0  0  0  0  0  0
  152.1294  138.9440  155.1156 C   0  0  2  0  0  0  0  0  0  0  0  0
  153.4768  138.5114  155.0810 O   0  0  0  0  0  0  0  0  0  0  0  0
  150.5683  141.1957  156.1170 C   0  0  0  0  0  0  0  0  0  0  0  0
  150.2754  140.8692  154.9669 O   0  0  0  0  0  0  0  0  0  0  0  0
  150.3128  142.4334  156.5927 N   0  0  0  0  0  0  0  0  0  0  0  0
  152.1455  138.4602  157.2954 H   0  0  0  0  0  0  0  0  0  0  0  0
  149.4342  139.1190  154.8242 H   0  0  0  0  0  0  0  0  0  0  0  0
  151.1092  138.3910  153.2702 H   0  0  0  0  0  0  0  0  0  0  0  0
  152.0701  139.9608  154.7241 H   0  0  0  0  0  0  0  0  0  0  0  0
  149.8496  144.4966  157.3737 H   0  0  0  0  0  0  0  0  0  0  0  0
  152.0707  140.0477  158.9878 H   0  0  0  0  0  0  0  0  0  0  0  0
  149.3815  136.1120  154.5198 H   0  0  0  0  0  0  0  0  0  0  0  0
  148.2820  136.8045  155.7046 H   0  0  0  0  0  0  0  0  0  0  0  0
  148.1979  136.8259  153.0091 H   0  0  0  0  0  0  0  0  0  0  0  0
  151.3445  136.3027  153.4614 H   0  0  0  0  0  0  0  0  0  0  0  0
  153.5506  137.8180  154.4423 H   0  0  0  0  0  0  0  0  0  0  0  0
  149.8641  143.0880  155.9688 H   0  0  0  0  0  0  0  0  0  0  0  0
  1  2  2  0  0  0  0
  1 22  1  0  0  0  0
  2 17  1  0  0  0  0
  2  3  1  0  0  0  0
  3  4  2  0  0  0  0
  4  5  1  0  0  0  0
  4 23  1  0  0  0  0
  5  6  1  0  0  0  0
  5 15  1  0  0  0  0
  6 18  1  0  0  0  0
  6 13  1  0  0  0  0
  6  7  1  0  0  0  0
  7  8  1  0  0  0  0
  8 19  1  0  0  0  0
  8  9  1  0  0  0  0
  8 11  1  0  0  0  0
  9 10  1  0  0  0  0
  9 24  1  0  0  0  0
  9 25  1  0  0  0  0
 10 26  1  0  0  0  0
 11 20  1  0  0  0  0
 11 12  1  0  0  0  0
 11 13  1  0  0  0  0
 12 27  1  0  0  0  0
 13 21  1  0  0  0  0
 13 14  1  0  0  0  0
 14 28  1  0  0  0  0
 15 16  2  0  0  0  0
 15 17  1  0  0  0  0
 17 29  1  0  0  0  0
M  END
> <s_m_source_file>
AV-unprocessed.smi

> <i_m_source_file_index>
72

> <i_lp_mmshare_version>
43012

> <i_f3d_flags>
0

> <s_epik_input>
W05IMl1jMW5bY0hdbihjKD1PKW4xKVtDQEBIXTJPW0NASF0oW0NIMl1bT0hdKVtDQEBIXShbT0hdKVtDQEhdMltPSF0=

> <s_epik_cmdline>
J2VwaWtfcHl0aG9uJywgJy1waCcsICc3LjAnLCAnLXRuJywgJzgnLCAnLW1hJywgJzIwMCcsICctbWV0YWxfYmluZGluZycsICctaW1hZScsICc8aW5maWxlLm1hZT4nLCAnLW9tYWUnLCAnPG91dGZpbGUubWFlPic=

> <r_lp_tautomer_probability>
7.17554e-07

> <r_epik_Ionization_Penalty>
0.0066451

> <r_epik_Ionization_Penalty_Charging>
0.00663793

> <r_epik_Ionization_Penalty_Neutral>
7.17052e-06

> <r_epik_State_Penalty>
0.419231

> <r_epik_Charging_Adjusted_Penalty>
0.425868

> <i_epik_Tot_Q>
0

> <i_epik_Tot_abs_Q>
0

> <r_epik_Metal_State_Penalty>
1.44144

> <b_epik_Metal_Only>
0

> <s_epik_Chemistry_Notes>
This compound contains an acetal/aminal-like group ( X-CH(R)-Y where X, Y are N, S, or O) that may be acid/base labile, releasing an aldehyde.

> <s_lp_Force_Field>
OPLS_2005

> <r_lp_Energy>
42.8821

> <b_lp_Chiralities_Consistent>
1

> <s_lp_Variant>
AV-unprocessed.smi:72-14

> <Gold.Version>
5.8.1

> <Gold.Id.Protein>
6NUR|6NUR_protein|mol2

> <Gold.PLP.Fitness>
42.0677

> <Gold.PLP.PLP>
-26.9008

> <Gold.PLP.part.hbond>
-7.3296

> <Gold.PLP.part.metal>
0.0000

> <Gold.PLP.part.buried>
-5.1017

> <Gold.PLP.part.nonpolar>
-16.0668

> <Gold.PLP.part.repulsive>
0.1686

> <Gold.PLP.ligand.clash>
2.7504

> <Gold.PLP.ligand.torsion>
0.6464

> <Gold.PLP.Chemscore.Hbond>
6.3961

> <Gold.PLP.Chemscore.CHOScore>
0.0000

> <Gold.PLP.Chemscore.Metal>
0.0000

> <Gold.Chemscore.Hbonds>
donor molecule, donor type, donor heavy atom, donor atom, acceptor molecule, acceptor atom, score
      L1  H     1    22       P1  8028  0.95
      L1  H    10    26       P1  7948  0.91
      L1  H    12    27       P1  7949  1.00
      L1  H    17    29       P1  8028  1.00
      P1  H  7989  7998       L1    16  0.78
      P1  H  7997  8010       L1    14  0.76
      P1  H 10752 10765       L1    12  0.88

> <Gold.PLP.Chemscore.Internal.Correction>
0.0219

> <Gold.Rescore>
     Score         DG    S(hbond)    S(metal)    S(lipo)     H(rot)  DE(clash)    DE(int)     intcor
      7.60     -13.02       4.46        0.00      26.05       4.06       0.59       4.84       ----

> <Gold.Chemscore.Fitness>
7.5960

> <Gold.Chemscore.DG>
-13.0224

> <Gold.Chemscore.ZeroCoef>
-5.4800

> <Gold.Chemscore.Hbond>
4.4576

> <Gold.Chemscore.Metal>
0.0000

> <Gold.Chemscore.Lipo>
26.0494

> <Gold.Chemscore.Internal_Hbond>
0.0000

> <Gold.Chemscore.DEClash>
0.5878

> <Gold.Chemscore.DEInternal>
4.8386

> <Gold.Chemscore.Rot>
4.0600

> <Gold.Chemscore.Internal.Correction>
   9.000000E+99

> <Gold.Chemscore.Hbonds>
donor molecule, donor type, donor heavy atom, donor atom, acceptor molecule, acceptor atom, score
      L1  H     1    22       P1  8028  0.21
      L1  H    10    26       P1  7948  0.87
      L1  H    12    27       P1  7949  0.67
      L1  H    17    29       P1  8028  0.95
      P1  H  7989  7998       L1    16  0.74
      P1  H  7997  8010       L1    14  0.22
      P1  H 10752 10765       L1    12  0.20

> <Gold.Chemscore.Hbond.Weighted>
-14.8882

> <Gold.Chemscore.Metal.Weighted>
-0.0000

> <Gold.Chemscore.Lipo.Weighted>
-3.0478

> <Gold.Chemscore.Internal_Hbond.Weighted>
0.0000

> <Gold.Chemscore.DEClash.Weighted>
0.5878

> <Gold.Chemscore.DEInternal.Weighted>
4.8386

> <Gold.Chemscore.Rot.Weighted>
10.3936

> <Gold.Chemscore.Internal.Correction.Weighted>
   9.000000E+99

> <Gold.Protein.RotatedTorsions>
[ 6907 6896 6895 6894 ] final  -57.22 input  -60.11 | X-H torsion
[ 7974 7965 7964 7962 ] final   89.70 input  175.53 | X-H torsion
[ 8008 7997 7996 7995 ] final   99.27 input   59.86 | X-H torsion
[ 10167 10162 10161 10158 ] final  -57.98 input  -65.29 | X-H torsion
[ 10718 10713 10712 10709 ] final   83.33 input   66.30 | X-H torsion
[ 10763 10752 10751 10750 ] final -175.90 input  -60.55 | X-H torsion
[ 11005 11000 10999 10996 ] final -179.91 input  -57.11 | X-H torsion

> <Gold.Protein.ActiveResidues>
 VAL166  LYS551  ARG553  GLY616  TRP617  ASP618  TYR619  PRO620  LYS621  CYS622 
 ASP623  PHE694  ASN695  SER759  ASP760  ASP761  ALA762  ILE779  LEU786  VAL792 
 PHE793  MET794  SER795  GLU796  ALA797  LYS798  CYS799  TRP800  GLU811  SER814 

> <Gold.Protein.RotatedAtoms>
  150.8104  134.7255  159.6682 H   0  0  0  0  0  0  0  0  0  0  0  0  # atno 6907 bound_to 6896
  152.4224  134.5928  159.9988 H   0  0  0  0  0  0  0  0  0  0  0  0  # atno 6908 bound_to 6896
  151.6140  133.3307  159.3109 H   0  0  0  0  0  0  0  0  0  0  0  0  # atno 6909 bound_to 6896
  145.5288  139.2282  143.2630 H   0  0  0  0  0  0  0  0  0  0  0  0  # atno 7974 bound_to 7965
  156.1089  140.3231  155.8044 H   0  0  0  0  0  0  0  0  0  0  0  0  # atno 8008 bound_to 7997
  155.4708  140.0546  157.2997 H   0  0  0  0  0  0  0  0  0  0  0  0  # atno 8009 bound_to 7997
  154.4746  140.2026  155.9924 H   0  0  0  0  0  0  0  0  0  0  0  0  # atno 8010 bound_to 7997
  140.6225  143.2425  151.5445 H   0  0  0  0  0  0  0  0  0  0  0  0  # atno 10167 bound_to 10162
  157.6876  131.0086  150.2507 H   0  0  0  0  0  0  0  0  0  0  0  0  # atno 10718 bound_to 10713
  154.5788  135.2834  155.0753 H   0  0  0  0  0  0  0  0  0  0  0  0  # atno 10763 bound_to 10752
  154.2098  135.6410  153.5115 H   0  0  0  0  0  0  0  0  0  0  0  0  # atno 10764 bound_to 10752
  153.0081  135.5489  154.6435 H   0  0  0  0  0  0  0  0  0  0  0  0  # atno 10765 bound_to 10752
  140.4134  134.6671  157.4626 H   0  0  0  0  0  0  0  0  0  0  0  0  # atno 11005 bound_to 11000
  146.2058  140.6103  142.9082 LP  0  0  0  0  0  0  0  0  0  0  0  0  # atno 17320 bound_to 7965
  144.7637  140.5481  143.6718 LP  0  0  0  0  0  0  0  0  0  0  0  0  # atno 17321 bound_to 7965
  139.5451  144.2543  152.1426 LP  0  0  0  0  0  0  0  0  0  0  0  0  # atno 17342 bound_to 10162
  140.1767  144.4884  150.6550 LP  0  0  0  0  0  0  0  0  0  0  0  0  # atno 17343 bound_to 10162
  156.3104  130.3771  149.7667 LP  0  0  0  0  0  0  0  0  0  0  0  0  # atno 17370 bound_to 10713
  156.5269  130.8240  151.3223 LP  0  0  0  0  0  0  0  0  0  0  0  0  # atno 17371 bound_to 10713
  140.0251  134.6489  155.9184 LP  0  0  0  0  0  0  0  0  0  0  0  0  # atno 17394 bound_to 11000
  141.1812  133.6547  156.5028 LP  0  0  0  0  0  0  0  0  0  0  0  0  # atno 17395 bound_to 11000

$$$$
