AV-unprocessed.smi:66|AV-procd|sdf|620|dock7
  -GOLD-   2262016513D 1   1.00000     0.00000
 Structure written by MMmdl.
 28 30  0  0  0  0  0  0  0  0  2 V2000
  153.4132  138.6536  157.8854 O   0  0  0  0  0  0  0  0  0  0  0  0
  152.3994  139.3593  158.0784 C   0  0  0  0  0  0  0  0  0  0  0  0
  151.5368  139.1592  158.9629 O   0  5  0  0  0  0  0  0  0  0  0  0
  152.2067  140.5638  157.1425 C   0  0  1  0  0  0  0  0  0  0  0  0
  151.9426  140.1421  155.6858 C   0  0  0  0  0  0  0  0  0  0  0  0
  150.4190  140.1129  155.5770 C   0  0  2  0  0  0  0  0  0  0  0  0
  149.9648  140.2671  154.2486 O   0  0  0  0  0  0  0  0  0  0  0  0
  149.9926  141.2720  156.4772 C   0  0  0  0  0  0  0  0  0  0  0  0
  151.0224  141.3495  157.5051 N   0  0  0  0  0  0  0  0  0  0  0  0
  151.0470  142.3300  158.4500 C   0  0  0  0  0  0  0  0  0  0  0  0
  150.1695  143.3632  158.3352 N   0  0  0  0  0  0  0  0  0  0  0  0
  150.1516  144.3522  159.2324 C   0  0  0  0  0  0  0  0  0  0  0  0
  150.9136  144.5093  160.3156 N   0  0  0  0  0  0  0  0  0  0  0  0
  151.7973  143.4814  160.4402 C   0  0  0  0  0  0  0  0  0  0  0  0
  152.7430  143.2987  161.4262 N   0  0  0  0  0  0  0  0  0  0  0  0
  153.3876  142.1271  161.1198 C   0  0  0  0  0  0  0  0  0  0  0  0
  152.9552  141.5357  160.0395 N   0  0  0  0  0  0  0  0  0  0  0  0
  151.9363  142.3621  159.5676 C   0  0  0  0  0  0  0  0  0  0  0  0
  152.8855  143.9376  162.1949 H   0  0  0  0  0  0  0  0  0  0  0  0
  153.1056  141.1813  157.1728 H   0  0  0  0  0  0  0  0  0  0  0  0
  152.3513  140.9005  155.0161 H   0  0  0  0  0  0  0  0  0  0  0  0
  152.4001  139.1888  155.4167 H   0  0  0  0  0  0  0  0  0  0  0  0
  150.0401  139.1726  155.9796 H   0  0  0  0  0  0  0  0  0  0  0  0
  149.3528  140.9867  154.2247 H   0  0  0  0  0  0  0  0  0  0  0  0
  149.9697  142.2124  155.9241 H   0  0  0  0  0  0  0  0  0  0  0  0
  149.0048  141.0888  156.9004 H   0  0  0  0  0  0  0  0  0  0  0  0
  149.4215  145.1281  159.0556 H   0  0  0  0  0  0  0  0  0  0  0  0
  154.1890  141.7259  161.7228 H   0  0  0  0  0  0  0  0  0  0  0  0
  1  2  2  0  0  0  0
  2  3  1  0  0  0  0
  2  4  1  0  0  0  0
  4  5  1  0  0  0  0
  4 20  1  0  0  0  0
  4  9  1  0  0  0  0
  5  6  1  0  0  0  0
  5 21  1  0  0  0  0
  5 22  1  0  0  0  0
  6  7  1  0  0  0  0
  6  8  1  0  0  0  0
  6 23  1  0  0  0  0
  7 24  1  0  0  0  0
  8 25  1  0  0  0  0
  8 26  1  0  0  0  0
  8  9  1  0  0  0  0
  9 10  1  0  0  0  0
 10 11  1  0  0  0  0
 10 18  2  0  0  0  0
 11 12  2  0  0  0  0
 12 27  1  0  0  0  0
 12 13  1  0  0  0  0
 13 14  2  0  0  0  0
 14 15  1  0  0  0  0
 14 18  1  0  0  0  0
 15 16  1  0  0  0  0
 15 19  1  0  0  0  0
 16 17  2  0  0  0  0
 16 28  1  0  0  0  0
 17 18  1  0  0  0  0
M  CHG  1   3  -1
M  END
> <s_m_source_file>
AV-unprocessed.smi

> <i_m_source_file_index>
66

> <i_lp_mmshare_version>
43012

> <i_f3d_flags>
0

> <s_epik_input>
Tz1DKFtPSF0pW0NAQEhdMVtDSDJdW0NAQEhdKFtPSF0pW0NIMl1OMWMobltjSF1uMiljKGMyMylbbkhdW2NIXW4z

> <s_epik_cmdline>
J2VwaWtfcHl0aG9uJywgJy1waCcsICc3LjAnLCAnLXRuJywgJzgnLCAnLW1hJywgJzIwMCcsICctbWV0YWxfYmluZGluZycsICctaW1hZScsICc8aW5maWxlLm1hZT4nLCAnLW9tYWUnLCAnPG91dGZpbGUubWFlPic=

> <r_lp_tautomer_probability>
0.955585

> <r_epik_Ionization_Penalty>
0.00455415

> <r_epik_Ionization_Penalty_Charging>
0.000248217

> <r_epik_Ionization_Penalty_Neutral>
0.00430593

> <r_epik_State_Penalty>
0.0207074

> <r_epik_Charging_Adjusted_Penalty>
0.0209557

> <i_epik_Tot_Q>
-1

> <i_epik_Tot_abs_Q>
1

> <r_epik_Metal_State_Penalty>
0.337372

> <b_epik_Metal_Only>
0

> <s_lp_Force_Field>
OPLS_2005

> <r_lp_Energy>
24.8219

> <b_lp_Chiralities_Consistent>
1

> <s_lp_Variant>
AV-unprocessed.smi:66-4

> <Gold.Version>
5.8.1

> <Gold.Id.Protein>
6NUR|6NUR_protein|mol2

> <Gold.PLP.Fitness>
39.6184

> <Gold.PLP.PLP>
-28.5582

> <Gold.PLP.part.hbond>
-2.7304

> <Gold.PLP.part.metal>
0.0000

> <Gold.PLP.part.buried>
-4.3935

> <Gold.PLP.part.nonpolar>
-21.3065

> <Gold.PLP.part.repulsive>
0.3572

> <Gold.PLP.ligand.clash>
0.0000

> <Gold.PLP.ligand.torsion>
0.2342

> <Gold.PLP.Chemscore.Hbond>
2.8064

> <Gold.PLP.Chemscore.CHOScore>
1.0000

> <Gold.PLP.Chemscore.Metal>
0.0000

> <Gold.Chemscore.Hbonds>
donor molecule, donor type, donor heavy atom, donor atom, acceptor molecule, acceptor atom, score
      P1  H  7989  7998       L1     7  0.81
      P1  H  7997  8010       L1     1  2.00
      L1  C    12    27       P1  8029  1.00

> <Gold.PLP.Chemscore.Internal.Correction>
0.1094

> <Gold.Rescore>
     Score         DG    S(hbond)    S(metal)    S(lipo)     H(rot)  DE(clash)    DE(int)     intcor
      8.29      -9.81       1.48        0.00      33.87       1.78       0.40       1.11       ----

> <Gold.Chemscore.Fitness>
8.2929

> <Gold.Chemscore.DG>
-9.8065

> <Gold.Chemscore.ZeroCoef>
-5.4800

> <Gold.Chemscore.Hbond>
1.4766

> <Gold.Chemscore.Metal>
0.0000

> <Gold.Chemscore.Lipo>
33.8660

> <Gold.Chemscore.Internal_Hbond>
0.0000

> <Gold.Chemscore.DEClash>
0.4015

> <Gold.Chemscore.DEInternal>
1.1121

> <Gold.Chemscore.Rot>
1.7842

> <Gold.Chemscore.Internal.Correction>
   9.000000E+99

> <Gold.Chemscore.Hbonds>
donor molecule, donor type, donor heavy atom, donor atom, acceptor molecule, acceptor atom, score
      P1  H  7989  7998       L1     7  0.09
      P1  H  7997  8010       L1     1  0.29

> <Gold.Chemscore.Hbond.Weighted>
-4.9318

> <Gold.Chemscore.Metal.Weighted>
-0.0000

> <Gold.Chemscore.Lipo.Weighted>
-3.9623

> <Gold.Chemscore.Internal_Hbond.Weighted>
0.0000

> <Gold.Chemscore.DEClash.Weighted>
0.4015

> <Gold.Chemscore.DEInternal.Weighted>
1.1121

> <Gold.Chemscore.Rot.Weighted>
4.5676

> <Gold.Chemscore.Internal.Correction.Weighted>
   9.000000E+99

> <Gold.Protein.RotatedTorsions>
[ 6907 6896 6895 6894 ] final -127.81 input  -60.11 | X-H torsion
[ 7974 7965 7964 7962 ] final  -23.42 input  175.53 | X-H torsion
[ 8008 7997 7996 7995 ] final   28.35 input   59.86 | X-H torsion
[ 10167 10162 10161 10158 ] final  149.24 input  -65.29 | X-H torsion
[ 10718 10713 10712 10709 ] final  120.96 input   66.30 | X-H torsion
[ 10763 10752 10751 10750 ] final  -12.90 input  -60.55 | X-H torsion
[ 11005 11000 10999 10996 ] final   81.39 input  -57.11 | X-H torsion

> <Gold.Protein.ActiveResidues>
 VAL166  LYS551  ARG553  GLY616  TRP617  ASP618  TYR619  PRO620  LYS621  CYS622 
 ASP623  PHE694  ASN695  SER759  ASP760  ASP761  ALA762  ILE779  LEU786  VAL792 
 PHE793  MET794  SER795  GLU796  ALA797  LYS798  CYS799  TRP800  GLU811  SER814 

> <Gold.Protein.RotatedAtoms>
  150.9112  133.6995  159.2854 H   0  0  0  0  0  0  0  0  0  0  0  0  # atno 6907 bound_to 6896
  151.4481  135.1026  159.9699 H   0  0  0  0  0  0  0  0  0  0  0  0  # atno 6908 bound_to 6896
  152.4931  133.8504  159.7254 H   0  0  0  0  0  0  0  0  0  0  0  0  # atno 6909 bound_to 6896
  146.1617  140.4614  142.8569 H   0  0  0  0  0  0  0  0  0  0  0  0  # atno 7974 bound_to 7965
  155.0572  140.3186  155.4672 H   0  0  0  0  0  0  0  0  0  0  0  0  # atno 8008 bound_to 7997
  156.2821  140.2135  156.5643 H   0  0  0  0  0  0  0  0  0  0  0  0  # atno 8009 bound_to 7997
  154.7161  140.0493  157.0584 H   0  0  0  0  0  0  0  0  0  0  0  0  # atno 8010 bound_to 7997
  139.4864  144.5617  151.7219 H   0  0  0  0  0  0  0  0  0  0  0  0  # atno 10167 bound_to 10162
  157.5853  131.1070  150.8107 H   0  0  0  0  0  0  0  0  0  0  0  0  # atno 10718 bound_to 10713
  153.5053  135.7017  153.5810 H   0  0  0  0  0  0  0  0  0  0  0  0  # atno 10763 bound_to 10752
  153.3924  135.3892  155.1932 H   0  0  0  0  0  0  0  0  0  0  0  0  # atno 10764 bound_to 10752
  154.8707  135.3861  154.4528 H   0  0  0  0  0  0  0  0  0  0  0  0  # atno 10765 bound_to 10752
  139.9100  134.7993  156.2035 H   0  0  0  0  0  0  0  0  0  0  0  0  # atno 11005 bound_to 11000
  144.8036  140.6258  143.6462 LP  0  0  0  0  0  0  0  0  0  0  0  0  # atno 17320 bound_to 7965
  145.4572  139.1517  143.3886 LP  0  0  0  0  0  0  0  0  0  0  0  0  # atno 17321 bound_to 7965
  140.5188  144.0912  150.6016 LP  0  0  0  0  0  0  0  0  0  0  0  0  # atno 17342 bound_to 10162
  140.3863  143.2776  152.0113 LP  0  0  0  0  0  0  0  0  0  0  0  0  # atno 17343 bound_to 10162
  156.8543  130.5091  149.5309 LP  0  0  0  0  0  0  0  0  0  0  0  0  # atno 17370 bound_to 10713
  156.0901  130.5889  150.9718 LP  0  0  0  0  0  0  0  0  0  0  0  0  # atno 17371 bound_to 10713
  141.0510  133.6889  156.1772 LP  0  0  0  0  0  0  0  0  0  0  0  0  # atno 17394 bound_to 11000
  140.6810  134.4767  157.5589 LP  0  0  0  0  0  0  0  0  0  0  0  0  # atno 17395 bound_to 11000

$$$$
