AV-unprocessed.smi:1897|AV-procd|sdf|7686|dock4
  -GOLD-   22720 9423D 1   1.00000     0.00000
 Structure written by MMmdl.
 39 41  0  0  0  0  0  0  0  0  2 V2000
  151.4173  141.1663  156.2444 C   0  0  0  0  0  0  0  0  0  0  0  0
  151.5379  139.7902  155.6845 C   0  0  0  0  0  0  0  0  0  0  0  0
  152.7157  139.2414  155.3645 N   0  0  0  0  0  0  0  0  0  0  0  0
  152.5773  137.9554  154.8631 N   0  0  0  0  0  0  0  0  0  0  0  0
  151.2951  137.5643  154.8240 C   0  0  0  0  0  0  0  0  0  0  0  0
  150.8475  136.2966  154.3486 N   0  0  0  0  0  0  0  0  0  0  0  0
  149.9678  135.4058  154.8546 C   0  0  0  0  0  0  0  0  0  0  0  0
  149.3860  135.6232  155.9159 O   0  0  0  0  0  0  0  0  0  0  0  0
  149.7719  134.2866  154.1385 N   0  0  0  0  0  0  0  0  0  0  0  0
  148.8621  133.2007  154.4882 C   0  0  2  0  0  0  0  0  0  0  0  0
  149.5997  131.9228  154.9260 C   0  0  0  0  0  0  0  0  0  0  0  0
  148.7807  130.7563  154.3389 C   0  0  0  0  0  0  0  0  0  0  0  0
  147.6040  131.3834  153.7070 N   0  3  2  0  0  0  0  0  0  0  0  0
  146.9386  130.6290  152.6225 C   0  0  0  0  0  0  0  0  0  0  0  0
  145.6913  131.4051  152.1542 C   0  0  0  0  0  0  0  0  0  0  0  0
  146.0332  132.8602  151.7742 C   0  0  0  0  0  0  0  0  0  0  0  0
  146.8068  133.5646  152.9056 C   0  0  0  0  0  0  0  0  0  0  0  0
  148.0375  132.7254  153.2892 C   0  0  1  0  0  0  0  0  0  0  0  0
  150.1422  138.7584  155.3972 S   0  0  0  0  0  0  0  0  0  0  0  0
  152.1315  141.8354  155.7636 H   0  0  0  0  0  0  0  0  0  0  0  0
  151.6162  141.1514  157.3161 H   0  0  0  0  0  0  0  0  0  0  0  0
  150.4122  141.5555  156.0797 H   0  0  0  0  0  0  0  0  0  0  0  0
  151.2857  136.0017  153.4878 H   0  0  0  0  0  0  0  0  0  0  0  0
  150.2928  134.1859  153.2786 H   0  0  0  0  0  0  0  0  0  0  0  0
  148.1921  133.5043  155.2955 H   0  0  0  0  0  0  0  0  0  0  0  0
  150.6163  131.8938  154.5303 H   0  0  0  0  0  0  0  0  0  0  0  0
  149.6703  131.8630  156.0127 H   0  0  0  0  0  0  0  0  0  0  0  0
  149.3711  130.2252  153.5905 H   0  0  0  0  0  0  0  0  0  0  0  0
  148.4740  130.0388  155.1003 H   0  0  0  0  0  0  0  0  0  0  0  0
  147.6311  130.4818  151.7921 H   0  0  0  0  0  0  0  0  0  0  0  0
  146.6529  129.6411  152.9852 H   0  0  0  0  0  0  0  0  0  0  0  0
  145.2301  130.8963  151.3071 H   0  0  0  0  0  0  0  0  0  0  0  0
  144.9480  131.4080  152.9527 H   0  0  0  0  0  0  0  0  0  0  0  0
  146.6369  132.8645  150.8656 H   0  0  0  0  0  0  0  0  0  0  0  0
  145.1218  133.4121  151.5418 H   0  0  0  0  0  0  0  0  0  0  0  0
  147.1105  134.5602  152.5817 H   0  0  0  0  0  0  0  0  0  0  0  0
  146.1581  133.7003  153.7720 H   0  0  0  0  0  0  0  0  0  0  0  0
  148.6932  132.6244  152.4208 H   0  0  0  0  0  0  0  0  0  0  0  0
  146.9232  131.5202  154.4405 H   0  0  0  0  0  0  0  0  0  0  0  0
  1  2  1  0  0  0  0
  1 20  1  0  0  0  0
  1 21  1  0  0  0  0
  1 22  1  0  0  0  0
  2 19  1  0  0  0  0
  2  3  2  0  0  0  0
  3  4  1  0  0  0  0
  4  5  2  0  0  0  0
  5  6  1  0  0  0  0
  5 19  1  0  0  0  0
  6  7  1  0  0  0  0
  6 23  1  0  0  0  0
  7  8  2  0  0  0  0
  7  9  1  0  0  0  0
  9 10  1  0  0  0  0
  9 24  1  0  0  0  0
 10 18  1  0  0  0  0
 10 11  1  0  0  0  0
 10 25  1  0  0  0  0
 11 12  1  0  0  0  0
 11 26  1  0  0  0  0
 11 27  1  0  0  0  0
 12 13  1  0  0  0  0
 12 28  1  0  0  0  0
 12 29  1  0  0  0  0
 13 18  1  0  0  0  0
 13 14  1  0  0  0  0
 13 39  1  0  0  0  0
 14 15  1  0  0  0  0
 14 30  1  0  0  0  0
 14 31  1  0  0  0  0
 15 16  1  0  0  0  0
 15 32  1  0  0  0  0
 15 33  1  0  0  0  0
 16 17  1  0  0  0  0
 16 34  1  0  0  0  0
 16 35  1  0  0  0  0
 17 18  1  0  0  0  0
 17 36  1  0  0  0  0
 17 37  1  0  0  0  0
 18 38  1  0  0  0  0
M  CHG  1  13   1
M  END
> <s_m_source_file>
AV-unprocessed.smi

> <i_m_source_file_index>
1897

> <i_lp_mmshare_version>
43012

> <i_f3d_flags>
0

> <s_epik_input>
W0NIM11jMW5uYyhzMSlbTkhdQyg9TylbTkhdW0NASF0oW0NIMl1bQ0gyXTIpW0NAQEhdKE4yMylbQ0gyXVtDSDJdW0NIMl1bQ0gyXTM=

> <s_epik_cmdline>
J2VwaWtfcHl0aG9uJywgJy1waCcsICc3LjAnLCAnLXRuJywgJzgnLCAnLW1hJywgJzIwMCcsICctbWV0YWxfYmluZGluZycsICctaW1hZScsICc8aW5maWxlLm1hZT4nLCAnLW9tYWUnLCAnPG91dGZpbGUubWFlPic=

> <r_lp_tautomer_probability>
1

> <r_epik_Ionization_Penalty>
0.00228891

> <r_epik_Ionization_Penalty_Charging>
0.00107044

> <r_epik_Ionization_Penalty_Neutral>
0.00121847

> <r_epik_State_Penalty>
-0

> <r_epik_Charging_Adjusted_Penalty>
0.00107044

> <i_epik_Tot_Q>
1

> <i_epik_Tot_abs_Q>
1

> <r_epik_Metal_State_Penalty>
0.304057

> <b_epik_Metal_Only>
0

> <s_lp_Force_Field>
OPLS_2005

> <r_lp_Energy>
35.6377

> <b_lp_Chiralities_Consistent>
1

> <s_lp_Variant>
AV-unprocessed.smi:1897-3

> <Gold.Version>
5.8.1

> <Gold.Id.Protein>
6NUR|6NUR_protein|mol2

> <Gold.PLP.Fitness>
36.4435

> <Gold.PLP.PLP>
-31.6682

> <Gold.PLP.part.hbond>
-4.8873

> <Gold.PLP.part.metal>
0.0000

> <Gold.PLP.part.buried>
-2.7484

> <Gold.PLP.part.nonpolar>
-24.2995

> <Gold.PLP.part.repulsive>
0.2478

> <Gold.PLP.ligand.clash>
0.0000

> <Gold.PLP.ligand.torsion>
0.5463

> <Gold.PLP.Chemscore.Hbond>
1.9528

> <Gold.PLP.Chemscore.CHOScore>
0.0000

> <Gold.PLP.Chemscore.Metal>
0.0000

> <Gold.Chemscore.Hbonds>
donor molecule, donor type, donor heavy atom, donor atom, acceptor molecule, acceptor atom, score
      L1  H     6    23       P1  7949  0.93
      P1  H  7997  8009       L1     3  1.00

> <Gold.PLP.Chemscore.Internal.Correction>
0.0097

> <Gold.Rescore>
     Score         DG    S(hbond)    S(metal)    S(lipo)     H(rot)  DE(clash)    DE(int)     intcor
     14.17     -15.46       1.50        0.00      64.36       1.00       0.73       0.56       ----

> <Gold.Chemscore.Fitness>
14.1710

> <Gold.Chemscore.DG>
-15.4623

> <Gold.Chemscore.ZeroCoef>
-5.4800

> <Gold.Chemscore.Hbond>
1.5006

> <Gold.Chemscore.Metal>
0.0000

> <Gold.Chemscore.Lipo>
64.3619

> <Gold.Chemscore.Internal_Hbond>
0.0000

> <Gold.Chemscore.DEClash>
0.7317

> <Gold.Chemscore.DEInternal>
0.5596

> <Gold.Chemscore.Rot>
1.0000

> <Gold.Chemscore.Internal.Correction>
   9.000000E+99

> <Gold.Chemscore.Hbonds>
donor molecule, donor type, donor heavy atom, donor atom, acceptor molecule, acceptor atom, score
      L1  H     6    23       P1  7949  0.48
      P1  H  7997  8009       L1     3  0.89

> <Gold.Chemscore.Hbond.Weighted>
-5.0119

> <Gold.Chemscore.Metal.Weighted>
-0.0000

> <Gold.Chemscore.Lipo.Weighted>
-7.5303

> <Gold.Chemscore.Internal_Hbond.Weighted>
0.0000

> <Gold.Chemscore.DEClash.Weighted>
0.7317

> <Gold.Chemscore.DEInternal.Weighted>
0.5596

> <Gold.Chemscore.Rot.Weighted>
2.5600

> <Gold.Chemscore.Internal.Correction.Weighted>
   9.000000E+99

> <Gold.Protein.RotatedTorsions>
[ 6907 6896 6895 6894 ] final  145.07 input  -60.11 | X-H torsion
[ 7974 7965 7964 7962 ] final  172.27 input  175.53 | X-H torsion
[ 8008 7997 7996 7995 ] final -143.99 input   59.86 | X-H torsion
[ 10167 10162 10161 10158 ] final  174.73 input  -65.29 | X-H torsion
[ 10718 10713 10712 10709 ] final  -85.54 input   66.30 | X-H torsion
[ 10763 10752 10751 10750 ] final  145.31 input  -60.55 | X-H torsion
[ 11005 11000 10999 10996 ] final  179.05 input  -57.11 | X-H torsion

> <Gold.Protein.ActiveResidues>
 VAL166  LYS551  ARG553  GLY616  TRP617  ASP618  TYR619  PRO620  LYS621  CYS622 
 ASP623  PHE694  ASN695  SER759  ASP760  ASP761  ALA762  ILE779  LEU786  VAL792 
 PHE793  MET794  SER795  GLU796  ALA797  LYS798  CYS799  TRP800  GLU811  SER814 

> <Gold.Protein.RotatedAtoms>
  152.1855  133.4737  159.4980 H   0  0  0  0  0  0  0  0  0  0  0  0  # atno 6907 bound_to 6896
  150.6942  134.1779  159.4246 H   0  0  0  0  0  0  0  0  0  0  0  0  # atno 6908 bound_to 6896
  151.9691  135.0085  160.0602 H   0  0  0  0  0  0  0  0  0  0  0  0  # atno 6909 bound_to 6896
  144.7272  139.9474  143.6431 H   0  0  0  0  0  0  0  0  0  0  0  0  # atno 7974 bound_to 7965
  155.5196  140.0590  157.2909 H   0  0  0  0  0  0  0  0  0  0  0  0  # atno 8008 bound_to 7997
  154.4522  140.1955  156.0430 H   0  0  0  0  0  0  0  0  0  0  0  0  # atno 8009 bound_to 7997
  156.0728  140.3257  155.7601 H   0  0  0  0  0  0  0  0  0  0  0  0  # atno 8010 bound_to 7997
  139.5152  144.3113  152.0289 H   0  0  0  0  0  0  0  0  0  0  0  0  # atno 10167 bound_to 10162
  155.9996  130.4734  150.4577 H   0  0  0  0  0  0  0  0  0  0  0  0  # atno 10718 bound_to 10713
  154.0033  135.2921  155.3400 H   0  0  0  0  0  0  0  0  0  0  0  0  # atno 10763 bound_to 10752
  154.7146  135.5135  153.8722 H   0  0  0  0  0  0  0  0  0  0  0  0  # atno 10764 bound_to 10752
  153.0756  135.6662  154.0273 H   0  0  0  0  0  0  0  0  0  0  0  0  # atno 10765 bound_to 10752
  140.4019  134.6770  157.4566 H   0  0  0  0  0  0  0  0  0  0  0  0  # atno 11005 bound_to 11000
  146.0738  139.3726  143.0507 LP  0  0  0  0  0  0  0  0  0  0  0  0  # atno 17320 bound_to 7965
  145.7933  140.9804  143.1037 LP  0  0  0  0  0  0  0  0  0  0  0  0  # atno 17321 bound_to 7965
  140.2557  144.4121  150.6204 LP  0  0  0  0  0  0  0  0  0  0  0  0  # atno 17342 bound_to 10162
  140.6193  143.2175  151.6727 LP  0  0  0  0  0  0  0  0  0  0  0  0  # atno 17343 bound_to 10162
  157.2604  131.0566  151.2324 LP  0  0  0  0  0  0  0  0  0  0  0  0  # atno 17370 bound_to 10713
  157.3440  130.7048  149.6399 LP  0  0  0  0  0  0  0  0  0  0  0  0  # atno 17371 bound_to 10713
  140.0330  134.6378  155.9081 LP  0  0  0  0  0  0  0  0  0  0  0  0  # atno 17394 bound_to 11000
  141.1853  133.6555  156.5194 LP  0  0  0  0  0  0  0  0  0  0  0  0  # atno 17395 bound_to 11000

$$$$
