AV-unprocessed.smi:3300|AV-procd|sdf|12651|dock6
  -GOLD-   2272018583D 1   1.00000     0.00000
 Structure written by MMmdl.
 36 37  0  0  0  0  0  0  0  0  1 V2000
  153.1352  142.5841  162.1686 C   0  0  0  0  0  0  0  0  0  0  0  0
  153.5049  141.9967  160.8016 C   0  0  0  0  0  0  0  0  0  0  0  0
  152.6180  142.5248  159.6895 C   0  0  0  0  0  0  0  0  0  0  0  0
  152.7036  143.8469  159.4205 N   0  0  0  0  0  0  0  0  0  0  0  0
  151.9288  144.3123  158.4382 C   0  0  0  0  0  0  0  0  0  0  0  0
  151.0779  143.6066  157.6895 N   0  0  0  0  0  0  0  0  0  0  0  0
  150.9890  142.2762  157.9359 C   0  0  0  0  0  0  0  0  0  0  0  0
  150.0907  141.4974  157.1822 N   0  0  0  0  0  0  0  0  0  0  0  0
  148.7365  142.0092  157.3664 C   0  0  0  0  0  0  0  0  0  0  0  0
  147.7130  141.0948  156.6824 C   0  0  0  0  0  0  0  0  0  0  0  0
  148.0507  140.9782  155.3080 O   0  0  0  0  0  0  0  0  0  0  0  0
  149.3243  140.3705  155.1308 C   0  0  0  0  0  0  0  0  0  0  0  0
  150.4408  141.2253  155.7796 C   0  0  2  0  0  0  0  0  0  0  0  0
  151.8159  140.5186  155.6492 C   0  0  0  0  0  0  0  0  0  0  0  0
  151.8665  139.1251  156.2964 C   0  0  0  0  0  0  0  0  0  0  0  0
  153.2017  138.6708  156.3489 O   0  0  0  0  0  0  0  0  0  0  0  0
  151.7562  141.6766  158.9605 C   0  0  0  0  0  0  0  0  0  0  0  0
  151.6742  140.3494  159.2246 F   0  0  0  0  0  0  0  0  0  0  0  0
  153.7862  142.1904  162.9493 H   0  0  0  0  0  0  0  0  0  0  0  0
  152.1073  142.3403  162.4382 H   0  0  0  0  0  0  0  0  0  0  0  0
  153.2332  143.6701  162.1683 H   0  0  0  0  0  0  0  0  0  0  0  0
  154.5481  142.2174  160.5740 H   0  0  0  0  0  0  0  0  0  0  0  0
  153.4244  140.9095  160.8342 H   0  0  0  0  0  0  0  0  0  0  0  0
  151.9955  145.3697  158.2285 H   0  0  0  0  0  0  0  0  0  0  0  0
  148.5027  142.0858  158.4294 H   0  0  0  0  0  0  0  0  0  0  0  0
  148.6705  143.0157  156.9500 H   0  0  0  0  0  0  0  0  0  0  0  0
  147.6862  140.1109  157.1540 H   0  0  0  0  0  0  0  0  0  0  0  0
  146.7126  141.5190  156.7685 H   0  0  0  0  0  0  0  0  0  0  0  0
  149.3120  139.3614  155.5465 H   0  0  0  0  0  0  0  0  0  0  0  0
  149.4900  140.2683  154.0589 H   0  0  0  0  0  0  0  0  0  0  0  0
  150.4839  142.1801  155.2535 H   0  0  0  0  0  0  0  0  0  0  0  0
  152.0808  140.3960  154.5992 H   0  0  0  0  0  0  0  0  0  0  0  0
  152.5933  141.1521  156.0787 H   0  0  0  0  0  0  0  0  0  0  0  0
  151.4700  139.1401  157.3112 H   0  0  0  0  0  0  0  0  0  0  0  0
  151.2737  138.4131  155.7212 H   0  0  0  0  0  0  0  0  0  0  0  0
  153.2027  137.7702  156.6354 H   0  0  0  0  0  0  0  0  0  0  0  0
  1  2  1  0  0  0  0
  1 19  1  0  0  0  0
  1 20  1  0  0  0  0
  1 21  1  0  0  0  0
  2  3  1  0  0  0  0
  2 22  1  0  0  0  0
  2 23  1  0  0  0  0
  3 17  1  0  0  0  0
  3  4  2  0  0  0  0
  4  5  1  0  0  0  0
  5  6  2  0  0  0  0
  5 24  1  0  0  0  0
  6  7  1  0  0  0  0
  7  8  1  0  0  0  0
  7 17  2  0  0  0  0
  8 13  1  0  0  0  0
  8  9  1  0  0  0  0
  9 10  1  0  0  0  0
  9 25  1  0  0  0  0
  9 26  1  0  0  0  0
 10 11  1  0  0  0  0
 10 27  1  0  0  0  0
 10 28  1  0  0  0  0
 11 12  1  0  0  0  0
 12 13  1  0  0  0  0
 12 29  1  0  0  0  0
 12 30  1  0  0  0  0
 13 14  1  0  0  0  0
 13 31  1  0  0  0  0
 14 15  1  0  0  0  0
 14 32  1  0  0  0  0
 14 33  1  0  0  0  0
 15 16  1  0  0  0  0
 15 34  1  0  0  0  0
 15 35  1  0  0  0  0
 16 36  1  0  0  0  0
 17 18  1  0  0  0  0
M  END
> <s_m_source_file>
AV-unprocessed.smi

> <i_m_source_file_index>
3300

> <i_lp_mmshare_version>
43012

> <i_f3d_flags>
0

> <s_epik_input>
W0NIM11bQ0gyXWMxbltjSF1uYyhjMUYpTjJbQ0gyXVtDSDJdT1tDSDJdW0NASF0yW0NIMl1bQ0gyXVtPSF0=

> <s_epik_cmdline>
J2VwaWtfcHl0aG9uJywgJy1waCcsICc3LjAnLCAnLXRuJywgJzgnLCAnLW1hJywgJzIwMCcsICctbWV0YWxfYmluZGluZycsICctaW1hZScsICc8aW5maWxlLm1hZT4nLCAnLW9tYWUnLCAnPG91dGZpbGUubWFlPic=

> <r_lp_tautomer_probability>
1

> <r_epik_Ionization_Penalty>
2.51351e-05

> <r_epik_Ionization_Penalty_Charging>
0

> <r_epik_Ionization_Penalty_Neutral>
2.51351e-05

> <r_epik_State_Penalty>
-0

> <r_epik_Charging_Adjusted_Penalty>
0

> <i_epik_Tot_Q>
0

> <i_epik_Tot_abs_Q>
0

> <r_epik_Metal_State_Penalty>
-0

> <b_epik_Metal_Only>
0

> <s_lp_Force_Field>
OPLS_2005

> <r_lp_Energy>
16.3992

> <b_lp_Chiralities_Consistent>
1

> <s_lp_Variant>
AV-unprocessed.smi:3300-2

> <Gold.Version>
5.8.1

> <Gold.Id.Protein>
6NUR|6NUR_protein|mol2

> <Gold.PLP.Fitness>
37.7788

> <Gold.PLP.PLP>
-34.9892

> <Gold.PLP.part.hbond>
-1.0000

> <Gold.PLP.part.metal>
0.0000

> <Gold.PLP.part.buried>
-4.2331

> <Gold.PLP.part.nonpolar>
-29.4939

> <Gold.PLP.part.repulsive>
0.2986

> <Gold.PLP.ligand.clash>
0.0000

> <Gold.PLP.ligand.torsion>
0.1781

> <Gold.PLP.Chemscore.Hbond>
1.0000

> <Gold.PLP.Chemscore.CHOScore>
0.0000

> <Gold.PLP.Chemscore.Metal>
0.0000

> <Gold.Chemscore.Hbonds>
donor molecule, donor type, donor heavy atom, donor atom, acceptor molecule, acceptor atom, score
      P1  H  7997  8010       L1    16  1.00

> <Gold.PLP.Chemscore.Internal.Correction>
0.1458

> <Gold.Rescore>
     Score         DG    S(hbond)    S(metal)    S(lipo)     H(rot)  DE(clash)    DE(int)     intcor
     10.69     -10.97       0.98        0.00      70.17       2.35       0.12       0.16       ----

> <Gold.Chemscore.Fitness>
10.6922

> <Gold.Chemscore.DG>
-10.9727

> <Gold.Chemscore.ZeroCoef>
-5.4800

> <Gold.Chemscore.Hbond>
0.9844

> <Gold.Chemscore.Metal>
0.0000

> <Gold.Chemscore.Lipo>
70.1708

> <Gold.Chemscore.Internal_Hbond>
0.0000

> <Gold.Chemscore.DEClash>
0.1214

> <Gold.Chemscore.DEInternal>
0.1590

> <Gold.Chemscore.Rot>
2.3458

> <Gold.Chemscore.Internal.Correction>
   9.000000E+99

> <Gold.Chemscore.Hbonds>
donor molecule, donor type, donor heavy atom, donor atom, acceptor molecule, acceptor atom, score
      P1  H  7997  8010       L1    16  0.75

> <Gold.Chemscore.Hbond.Weighted>
-3.2878

> <Gold.Chemscore.Metal.Weighted>
-0.0000

> <Gold.Chemscore.Lipo.Weighted>
-8.2100

> <Gold.Chemscore.Internal_Hbond.Weighted>
0.0000

> <Gold.Chemscore.DEClash.Weighted>
0.1214

> <Gold.Chemscore.DEInternal.Weighted>
0.1590

> <Gold.Chemscore.Rot.Weighted>
6.0051

> <Gold.Chemscore.Internal.Correction.Weighted>
   9.000000E+99

> <Gold.Protein.RotatedTorsions>
[ 6907 6896 6895 6894 ] final  102.13 input  -60.11 | X-H torsion
[ 7974 7965 7964 7962 ] final    8.53 input  175.53 | X-H torsion
[ 8008 7997 7996 7995 ] final   71.88 input   59.86 | X-H torsion
[ 10167 10162 10161 10158 ] final  101.62 input  -65.29 | X-H torsion
[ 10718 10713 10712 10709 ] final  -67.67 input   66.30 | X-H torsion
[ 10763 10752 10751 10750 ] final  116.75 input  -60.55 | X-H torsion
[ 11005 11000 10999 10996 ] final    3.21 input  -57.11 | X-H torsion

> <Gold.Protein.ActiveResidues>
 VAL166  LYS551  ARG553  GLY616  TRP617  ASP618  TYR619  PRO620  LYS621  CYS622 
 ASP623  PHE694  ASN695  SER759  ASP760  ASP761  ALA762  ILE779  LEU786  VAL792 
 PHE793  MET794  SER795  GLU796  ALA797  LYS798  CYS799  TRP800  GLU811  SER814 

> <Gold.Protein.RotatedAtoms>
  152.5332  134.0021  159.7899 H   0  0  0  0  0  0  0  0  0  0  0  0  # atno 6907 bound_to 6896
  151.0238  133.5844  159.2675 H   0  0  0  0  0  0  0  0  0  0  0  0  # atno 6908 bound_to 6896
  151.2874  135.0739  159.9245 H   0  0  0  0  0  0  0  0  0  0  0  0  # atno 6909 bound_to 6896
  146.2415  139.9919  142.8425 H   0  0  0  0  0  0  0  0  0  0  0  0  # atno 7974 bound_to 7965
  155.7605  140.3486  155.5196 H   0  0  0  0  0  0  0  0  0  0  0  0  # atno 8008 bound_to 7997
  155.8918  140.1019  157.1434 H   0  0  0  0  0  0  0  0  0  0  0  0  # atno 8009 bound_to 7997
  154.4034  140.1303  156.4312 H   0  0  0  0  0  0  0  0  0  0  0  0  # atno 8010 bound_to 7997
  139.7422  144.7008  151.0559 H   0  0  0  0  0  0  0  0  0  0  0  0  # atno 10167 bound_to 10162
  156.0545  130.4282  150.1889 H   0  0  0  0  0  0  0  0  0  0  0  0  # atno 10718 bound_to 10713
  153.5419  135.3557  155.2722 H   0  0  0  0  0  0  0  0  0  0  0  0  # atno 10763 bound_to 10752
  154.8716  135.4093  154.3034 H   0  0  0  0  0  0  0  0  0  0  0  0  # atno 10764 bound_to 10752
  153.3743  135.7065  153.6682 H   0  0  0  0  0  0  0  0  0  0  0  0  # atno 10765 bound_to 10752
  140.5956  133.9883  155.8108 H   0  0  0  0  0  0  0  0  0  0  0  0  # atno 11005 bound_to 11000
  145.1495  140.9615  143.4441 LP  0  0  0  0  0  0  0  0  0  0  0  0  # atno 17320 bound_to 7965
  145.0218  139.3417  143.6068 LP  0  0  0  0  0  0  0  0  0  0  0  0  # atno 17321 bound_to 7965
  140.7787  143.4911  150.9892 LP  0  0  0  0  0  0  0  0  0  0  0  0  # atno 17342 bound_to 10162
  139.8599  143.7328  152.3174 LP  0  0  0  0  0  0  0  0  0  0  0  0  # atno 17343 bound_to 10162
  156.9967  130.9910  151.3401 LP  0  0  0  0  0  0  0  0  0  0  0  0  # atno 17370 bound_to 10713
  157.5502  130.8177  149.8136 LP  0  0  0  0  0  0  0  0  0  0  0  0  # atno 17371 bound_to 10713
  141.0906  133.9923  157.3243 LP  0  0  0  0  0  0  0  0  0  0  0  0  # atno 17394 bound_to 11000
  139.9255  135.0201  156.8217 LP  0  0  0  0  0  0  0  0  0  0  0  0  # atno 17395 bound_to 11000

$$$$
