AV-unprocessed.smi:155|AV-procd|sdf|1274|dock1
  -GOLD-   2262018533D 1   1.00000     0.00000
 Structure written by MMmdl.
 63 66  0  0  0  0  0  0  0  0  2 V2000
  151.3912  144.7921  159.3679 C   0  0  0  0  0  0  0  0  0  0  0  0
  152.0579  143.5166  159.1313 N   0  0  0  0  0  0  0  0  0  0  0  0
  152.4527  142.9699  160.4235 C   0  0  0  0  0  0  0  0  0  0  0  0
  151.1845  142.5555  158.4554 C   0  0  0  0  0  0  0  0  0  0  0  0
  151.9522  141.3519  157.8624 C   0  0  0  0  0  0  0  0  0  0  0  0
  151.2043  140.6470  156.7881 N   0  3  1  0  0  0  0  0  0  0  0  0
  150.2710  141.5258  156.0348 C   0  0  0  0  0  0  0  0  0  0  0  0
  148.9077  140.8335  155.8636 C   0  0  0  0  0  0  0  0  0  0  0  0
  148.9168  139.6421  154.8862 C   0  0  0  0  0  0  0  0  0  0  0  0
  149.9505  138.6526  155.1899 N   0  0  0  0  0  0  0  0  0  0  0  0
  149.7718  137.6879  156.1433 C   0  0  0  0  0  0  0  0  0  0  0  0
  150.8232  136.8664  156.4120 N   0  0  0  0  0  0  0  0  0  0  0  0
  150.7382  135.9132  157.3421 C   0  0  0  0  0  0  0  0  0  0  0  0
  149.7063  135.6086  158.1261 N   0  0  0  0  0  0  0  0  0  0  0  0
  148.6400  136.4171  157.8704 C   0  0  0  0  0  0  0  0  0  0  0  0
  148.5796  137.4663  156.9045 C   0  0  0  0  0  0  0  0  0  0  0  0
  147.3186  138.0540  156.9549 N   0  0  0  0  0  0  0  0  0  0  0  0
  146.6813  137.4009  157.8864 C   0  0  0  0  0  0  0  0  0  0  0  0
  147.4038  136.4011  158.4903 N   0  0  0  0  0  0  0  0  0  0  0  0
  146.9489  135.5213  159.5526 C   0  0  0  0  0  0  0  0  0  0  0  0
  147.8214  135.6288  160.8179 C   0  0  1  0  0  0  0  0  0  0  0  0
  147.5780  136.8460  161.4982 O   0  0  0  0  0  0  0  0  0  0  0  0
  147.6359  134.4358  161.7771 C   0  0  1  0  0  0  0  0  0  0  0  0
  146.2940  134.3794  162.5275 C   0  0  0  0  0  0  0  0  0  0  0  0
  145.7327  133.0158  162.1640 C   0  0  0  0  0  0  0  0  0  0  0  0
  146.9759  132.2327  161.7617 C   0  0  0  0  0  0  0  0  0  0  0  0
  147.7546  133.2002  161.0777 O   0  0  0  0  0  0  0  0  0  0  0  0
  151.3152  139.0350  154.8122 C   0  0  0  0  0  0  0  0  0  0  0  0
  152.0744  139.8161  155.9095 C   0  0  0  0  0  0  0  0  0  0  0  0
  151.1693  145.3019  158.4325 H   0  0  0  0  0  0  0  0  0  0  0  0
  152.0332  145.4592  159.9444 H   0  0  0  0  0  0  0  0  0  0  0  0
  150.4598  144.6585  159.9195 H   0  0  0  0  0  0  0  0  0  0  0  0
  152.9898  142.0291  160.2974 H   0  0  0  0  0  0  0  0  0  0  0  0
  151.5858  142.7859  161.0603 H   0  0  0  0  0  0  0  0  0  0  0  0
  153.1190  143.6580  160.9452 H   0  0  0  0  0  0  0  0  0  0  0  0
  150.5082  142.1492  159.2089 H   0  0  0  0  0  0  0  0  0  0  0  0
  150.5470  143.0546  157.7261 H   0  0  0  0  0  0  0  0  0  0  0  0
  152.9141  141.7138  157.4963 H   0  0  0  0  0  0  0  0  0  0  0  0
  152.1838  140.6344  158.6507 H   0  0  0  0  0  0  0  0  0  0  0  0
  150.0970  142.4550  156.5778 H   0  0  0  0  0  0  0  0  0  0  0  0
  150.6952  141.8213  155.0739 H   0  0  0  0  0  0  0  0  0  0  0  0
  148.5415  140.5208  156.8410 H   0  0  0  0  0  0  0  0  0  0  0  0
  148.1845  141.5643  155.5004 H   0  0  0  0  0  0  0  0  0  0  0  0
  147.9360  139.1734  154.8269 H   0  0  0  0  0  0  0  0  0  0  0  0
  149.0972  140.0199  153.8794 H   0  0  0  0  0  0  0  0  0  0  0  0
  151.6248  135.3121  157.4806 H   0  0  0  0  0  0  0  0  0  0  0  0
  145.6617  137.6313  158.1602 H   0  0  0  0  0  0  0  0  0  0  0  0
  145.9091  135.7587  159.7805 H   0  0  0  0  0  0  0  0  0  0  0  0
  146.9574  134.4978  159.1755 H   0  0  0  0  0  0  0  0  0  0  0  0
  148.8677  135.6515  160.5111 H   0  0  0  0  0  0  0  0  0  0  0  0
  146.9738  136.6765  162.2050 H   0  0  0  0  0  0  0  0  0  0  0  0
  148.4377  134.4565  162.5169 H   0  0  0  0  0  0  0  0  0  0  0  0
  146.4671  134.4449  163.6023 H   0  0  0  0  0  0  0  0  0  0  0  0
  145.6072  135.1823  162.2580 H   0  0  0  0  0  0  0  0  0  0  0  0
  145.1801  132.5492  162.9799 H   0  0  0  0  0  0  0  0  0  0  0  0
  145.0630  133.1084  161.3078 H   0  0  0  0  0  0  0  0  0  0  0  0
  147.5180  131.8795  162.6404 H   0  0  0  0  0  0  0  0  0  0  0  0
  146.7488  131.3760  161.1266 H   0  0  0  0  0  0  0  0  0  0  0  0
  151.8911  138.1658  154.4924 H   0  0  0  0  0  0  0  0  0  0  0  0
  151.2533  139.6648  153.9242 H   0  0  0  0  0  0  0  0  0  0  0  0
  152.8446  140.4359  155.4486 H   0  0  0  0  0  0  0  0  0  0  0  0
  152.6001  139.0901  156.5276 H   0  0  0  0  0  0  0  0  0  0  0  0
  150.6026  140.0009  157.2786 H   0  0  0  0  0  0  0  0  0  0  0  0
  1  2  1  0  0  0  0
  1 30  1  0  0  0  0
  1 31  1  0  0  0  0
  1 32  1  0  0  0  0
  2  3  1  0  0  0  0
  2  4  1  0  0  0  0
  3 33  1  0  0  0  0
  3 34  1  0  0  0  0
  3 35  1  0  0  0  0
  4  5  1  0  0  0  0
  4 36  1  0  0  0  0
  4 37  1  0  0  0  0
  5  6  1  0  0  0  0
  5 38  1  0  0  0  0
  5 39  1  0  0  0  0
  6 29  1  0  0  0  0
  6  7  1  0  0  0  0
  6 63  1  0  0  0  0
  7  8  1  0  0  0  0
  7 40  1  0  0  0  0
  7 41  1  0  0  0  0
  8  9  1  0  0  0  0
  8 42  1  0  0  0  0
  8 43  1  0  0  0  0
  9 10  1  0  0  0  0
  9 44  1  0  0  0  0
  9 45  1  0  0  0  0
 10 11  1  0  0  0  0
 10 28  1  0  0  0  0
 11 16  1  0  0  0  0
 11 12  2  0  0  0  0
 12 13  1  0  0  0  0
 13 14  2  0  0  0  0
 13 46  1  0  0  0  0
 14 15  1  0  0  0  0
 15 19  1  0  0  0  0
 15 16  2  0  0  0  0
 16 17  1  0  0  0  0
 17 18  2  0  0  0  0
 18 19  1  0  0  0  0
 18 47  1  0  0  0  0
 19 20  1  0  0  0  0
 20 21  1  0  0  0  0
 20 48  1  0  0  0  0
 20 49  1  0  0  0  0
 21 22  1  0  0  0  0
 21 23  1  0  0  0  0
 21 50  1  0  0  0  0
 22 51  1  0  0  0  0
 23 27  1  0  0  0  0
 23 24  1  0  0  0  0
 23 52  1  0  0  0  0
 24 25  1  0  0  0  0
 24 53  1  0  0  0  0
 24 54  1  0  0  0  0
 25 26  1  0  0  0  0
 25 55  1  0  0  0  0
 25 56  1  0  0  0  0
 26 27  1  0  0  0  0
 26 57  1  0  0  0  0
 26 58  1  0  0  0  0
 28 29  1  0  0  0  0
 28 59  1  0  0  0  0
 28 60  1  0  0  0  0
 29 61  1  0  0  0  0
 29 62  1  0  0  0  0
M  CHG  1   6   1
M  END
> <s_m_source_file>
AV-unprocessed.smi

> <i_m_source_file_index>
155

> <i_lp_mmshare_version>
43012

> <i_f3d_flags>
0

> <s_epik_input>
W0NIM11OKFtDSDNdKVtDSDJdW0NIMl1OMVtDSDJdW0NIMl1bQ0gyXU4oW0NIMl1bQ0gyXTEpYyhuW2NIXW4yKWMoYzIzKW5bY0hdbjNbQ0gyXVtDQEhdKFtPSF0pW0NAQEhdNFtDSDJdW0NIMl1bQ0gyXU80

> <s_epik_cmdline>
J2VwaWtfcHl0aG9uJywgJy1waCcsICc3LjAnLCAnLXRuJywgJzgnLCAnLW1hJywgJzIwMCcsICctbWV0YWxfYmluZGluZycsICctaW1hZScsICc8aW5maWxlLm1hZT4nLCAnLW9tYWUnLCAnPG91dGZpbGUubWFlPic=

> <r_epik_Ionization_Penalty>
0.0619615

> <r_epik_Ionization_Penalty_Charging>
0.0161638

> <r_epik_Ionization_Penalty_Neutral>
0.0457976

> <r_epik_State_Penalty>
0.403408

> <r_epik_Charging_Adjusted_Penalty>
0.419572

> <i_epik_Tot_Q>
1

> <i_epik_Tot_abs_Q>
1

> <r_epik_Metal_State_Penalty>
0.404222

> <b_epik_Metal_Only>
0

> <s_lp_Force_Field>
OPLS_2005

> <r_lp_Energy>
52.3262

> <b_lp_Chiralities_Consistent>
1

> <s_lp_Variant>
AV-unprocessed.smi:155-8

> <Gold.Version>
5.8.1

> <Gold.Id.Protein>
6NUR|6NUR_protein|mol2

> <Gold.PLP.Fitness>
51.5343

> <Gold.PLP.PLP>
-44.4643

> <Gold.PLP.part.hbond>
-3.0000

> <Gold.PLP.part.metal>
0.0000

> <Gold.PLP.part.buried>
-6.1274

> <Gold.PLP.part.nonpolar>
-34.9760

> <Gold.PLP.part.repulsive>
0.1285

> <Gold.PLP.ligand.clash>
0.0000

> <Gold.PLP.ligand.torsion>
0.7812

> <Gold.PLP.Chemscore.Hbond>
2.7497

> <Gold.PLP.Chemscore.CHOScore>
0.0000

> <Gold.PLP.Chemscore.Metal>
0.0000

> <Gold.Chemscore.Hbonds>
donor molecule, donor type, donor heavy atom, donor atom, acceptor molecule, acceptor atom, score
      P1  H  6896  6908       L1    14  0.95
      P1  H  6931  6943       L1    22  0.93
      P1  H  6934  6947       L1    22  0.33

> <Gold.PLP.Chemscore.Internal.Correction>
0.3834

> <Gold.Rescore>
     Score         DG    S(hbond)    S(metal)    S(lipo)     H(rot)  DE(clash)    DE(int)     intcor
     16.10     -17.72       1.64        0.00     115.45       2.63       0.26       1.37       ----

> <Gold.Chemscore.Fitness>
16.1029

> <Gold.Chemscore.DG>
-17.7249

> <Gold.Chemscore.ZeroCoef>
-5.4800

> <Gold.Chemscore.Hbond>
1.6395

> <Gold.Chemscore.Metal>
0.0000

> <Gold.Chemscore.Lipo>
115.4514

> <Gold.Chemscore.Internal_Hbond>
0.0000

> <Gold.Chemscore.DEClash>
0.2562

> <Gold.Chemscore.DEInternal>
1.3659

> <Gold.Chemscore.Rot>
2.6324

> <Gold.Chemscore.Internal.Correction>
   9.000000E+99

> <Gold.Chemscore.Hbonds>
donor molecule, donor type, donor heavy atom, donor atom, acceptor molecule, acceptor atom, score
      P1  H  6896  6908       L1    14  0.20
      P1  H  6931  6943       L1    22  0.79
      P1  H  6934  6947       L1    22  0.14

> <Gold.Chemscore.Hbond.Weighted>
-5.4760

> <Gold.Chemscore.Metal.Weighted>
-0.0000

> <Gold.Chemscore.Lipo.Weighted>
-13.5078

> <Gold.Chemscore.Internal_Hbond.Weighted>
0.0000

> <Gold.Chemscore.DEClash.Weighted>
0.2562

> <Gold.Chemscore.DEInternal.Weighted>
1.3659

> <Gold.Chemscore.Rot.Weighted>
6.7389

> <Gold.Chemscore.Internal.Correction.Weighted>
   9.000000E+99

> <Gold.Protein.RotatedTorsions>
[ 6907 6896 6895 6894 ] final  169.65 input  -60.11 | X-H torsion
[ 7974 7965 7964 7962 ] final -159.89 input  175.53 | X-H torsion
[ 8008 7997 7996 7995 ] final  113.14 input   59.86 | X-H torsion
[ 10167 10162 10161 10158 ] final  -63.13 input  -65.29 | X-H torsion
[ 10718 10713 10712 10709 ] final -121.48 input   66.30 | X-H torsion
[ 10763 10752 10751 10750 ] final -169.96 input  -60.55 | X-H torsion
[ 11005 11000 10999 10996 ] final -147.21 input  -57.11 | X-H torsion

> <Gold.Protein.ActiveResidues>
 VAL166  LYS551  ARG553  GLY616  TRP617  ASP618  TYR619  PRO620  LYS621  CYS622 
 ASP623  PHE694  ASN695  SER759  ASP760  ASP761  ALA762  ILE779  LEU786  VAL792 
 PHE793  MET794  SER795  GLU796  ALA797  LYS798  CYS799  TRP800  GLU811  SER814 

> <Gold.Protein.RotatedAtoms>
  151.8285  133.3405  159.3605 H   0  0  0  0  0  0  0  0  0  0  0  0  # atno 6907 bound_to 6896
  150.7272  134.5505  159.5802 H   0  0  0  0  0  0  0  0  0  0  0  0  # atno 6908 bound_to 6896
  152.2953  134.7675  160.0420 H   0  0  0  0  0  0  0  0  0  0  0  0  # atno 6909 bound_to 6896
  144.7448  140.3621  143.6094 H   0  0  0  0  0  0  0  0  0  0  0  0  # atno 7974 bound_to 7965
  156.2238  140.2985  156.0018 H   0  0  0  0  0  0  0  0  0  0  0  0  # atno 8008 bound_to 7997
  155.2410  140.0422  157.2992 H   0  0  0  0  0  0  0  0  0  0  0  0  # atno 8009 bound_to 7997
  154.5883  140.2394  155.7964 H   0  0  0  0  0  0  0  0  0  0  0  0  # atno 8010 bound_to 7997
  140.5891  143.2338  151.6177 H   0  0  0  0  0  0  0  0  0  0  0  0  # atno 10167 bound_to 10162
  156.1340  130.6417  150.9667 H   0  0  0  0  0  0  0  0  0  0  0  0  # atno 10718 bound_to 10713
  154.6466  135.2906  155.0038 H   0  0  0  0  0  0  0  0  0  0  0  0  # atno 10763 bound_to 10752
  154.1146  135.6557  153.4895 H   0  0  0  0  0  0  0  0  0  0  0  0  # atno 10764 bound_to 10752
  153.0354  135.5273  154.7356 H   0  0  0  0  0  0  0  0  0  0  0  0  # atno 10765 bound_to 10752
  140.7740  134.3156  157.5066 H   0  0  0  0  0  0  0  0  0  0  0  0  # atno 11005 bound_to 11000
  145.7167  139.1699  143.2508 LP  0  0  0  0  0  0  0  0  0  0  0  0  # atno 17320 bound_to 7965
  146.1307  140.7188  142.9413 LP  0  0  0  0  0  0  0  0  0  0  0  0  # atno 17321 bound_to 7965
  139.5216  144.3187  152.0930 LP  0  0  0  0  0  0  0  0  0  0  0  0  # atno 17342 bound_to 10162
  140.2348  144.4330  150.6284 LP  0  0  0  0  0  0  0  0  0  0  0  0  # atno 17343 bound_to 10162
  157.6515  131.0896  150.8040 LP  0  0  0  0  0  0  0  0  0  0  0  0  # atno 17370 bound_to 10713
  156.8122  130.4956  149.5354 LP  0  0  0  0  0  0  0  0  0  0  0  0  # atno 17371 bound_to 10713
  139.8752  134.9278  156.3434 LP  0  0  0  0  0  0  0  0  0  0  0  0  # atno 17394 bound_to 11000
  140.9547  133.7428  156.0319 LP  0  0  0  0  0  0  0  0  0  0  0  0  # atno 17395 bound_to 11000

$$$$
