AV-unprocessed.smi:3145|AV-procd|sdf|11983|dock8
  -GOLD-   2272017383D 1   1.00000     0.00000
 Structure written by MMmdl.
 34 34  0  0  0  0  0  0  0  0  3 V2000
  144.0464  136.2034  153.0779 C   0  0  0  0  0  0  0  0  0  0  0  0
  145.3734  136.3140  152.3080 C   0  0  2  0  0  0  0  0  0  0  0  0
  145.2908  135.7098  150.8870 C   0  0  0  0  0  0  0  0  0  0  0  0
  145.2483  134.2586  150.8854 N   0  0  0  0  0  0  0  0  0  0  0  0
  144.2329  133.4307  150.4544 C   0  0  0  0  0  0  0  0  0  0  0  0
  144.6440  132.1445  150.6572 C   0  0  0  0  0  0  0  0  0  0  0  0
  145.9385  132.2897  151.2301 C   0  0  0  0  0  0  0  0  0  0  0  0
  146.2960  133.5565  151.3685 N   0  0  0  0  0  0  0  0  0  0  0  0
  146.4470  135.6715  153.0960 N   0  3  0  0  0  0  0  0  0  0  0  0
  146.5201  136.0655  154.5189 C   0  0  0  0  0  0  0  0  0  0  0  0
  147.2535  137.4036  154.6307 C   0  0  0  0  0  0  0  0  0  0  0  0
  146.5818  138.4355  154.7250 O   0  0  0  0  0  0  0  0  0  0  0  0
  148.6025  137.2220  154.5986 N   0  5  0  0  0  0  0  0  0  0  0  0
  149.5677  138.3179  154.5731 C   0  0  0  0  0  0  0  0  0  0  0  0
  150.9888  137.7592  154.4048 C   0  0  0  0  0  0  0  0  0  0  0  0
  152.0540  138.7592  154.5983 C   0  0  0  0  0  0  0  0  0  0  0  0
  152.8923  139.5452  154.7474 N   0  0  0  0  0  0  0  0  0  0  0  0
  143.2486  136.7614  152.5871 H   0  0  0  0  0  0  0  0  0  0  0  0
  144.1451  136.6060  154.0868 H   0  0  0  0  0  0  0  0  0  0  0  0
  143.7232  135.1656  153.1646 H   0  0  0  0  0  0  0  0  0  0  0  0
  145.6121  137.3757  152.2276 H   0  0  0  0  0  0  0  0  0  0  0  0
  144.4052  136.0691  150.3622 H   0  0  0  0  0  0  0  0  0  0  0  0
  146.1517  136.0258  150.2960 H   0  0  0  0  0  0  0  0  0  0  0  0
  143.3142  133.8210  150.0418 H   0  0  0  0  0  0  0  0  0  0  0  0
  144.1016  131.2381  150.4327 H   0  0  0  0  0  0  0  0  0  0  0  0
  146.6232  131.5175  151.5487 H   0  0  0  0  0  0  0  0  0  0  0  0
  146.2832  134.6742  153.0915 H   0  0  0  0  0  0  0  0  0  0  0  0
  145.5184  136.1605  154.9386 H   0  0  0  0  0  0  0  0  0  0  0  0
  147.0474  135.3056  155.0981 H   0  0  0  0  0  0  0  0  0  0  0  0
  149.3686  139.0235  153.7653 H   0  0  0  0  0  0  0  0  0  0  0  0
  149.5281  138.9006  155.4939 H   0  0  0  0  0  0  0  0  0  0  0  0
  151.1591  136.9624  155.1291 H   0  0  0  0  0  0  0  0  0  0  0  0
  151.1135  137.3193  153.4147 H   0  0  0  0  0  0  0  0  0  0  0  0
  147.3402  135.8460  152.6591 H   0  0  0  0  0  0  0  0  0  0  0  0
  1  2  1  0  0  0  0
  1 18  1  0  0  0  0
  1 19  1  0  0  0  0
  1 20  1  0  0  0  0
  2  3  1  0  0  0  0
  2  9  1  0  0  0  0
  2 21  1  0  0  0  0
  3  4  1  0  0  0  0
  3 22  1  0  0  0  0
  3 23  1  0  0  0  0
  4  8  1  0  0  0  0
  4  5  1  0  0  0  0
  5  6  2  0  0  0  0
  5 24  1  0  0  0  0
  6  7  1  0  0  0  0
  6 25  1  0  0  0  0
  7  8  2  0  0  0  0
  7 26  1  0  0  0  0
  9 10  1  0  0  0  0
  9 27  1  0  0  0  0
  9 34  1  0  0  0  0
 10 11  1  0  0  0  0
 10 28  1  0  0  0  0
 10 29  1  0  0  0  0
 11 12  2  0  0  0  0
 11 13  1  0  0  0  0
 13 14  1  0  0  0  0
 14 15  1  0  0  0  0
 14 30  1  0  0  0  0
 14 31  1  0  0  0  0
 15 16  1  0  0  0  0
 15 32  1  0  0  0  0
 15 33  1  0  0  0  0
 16 17  3  0  0  0  0
M  CHG  1   9   1
M  CHG  1  13  -1
M  END
> <s_m_source_file>
AV-unprocessed.smi

> <i_m_source_file_index>
3145

> <i_lp_mmshare_version>
43012

> <i_f3d_flags>
0

> <s_epik_input>
bjFbY0hdW2NIXVtjSF1uMVtDSDJdW0NAQEhdKFtDSDNdKVtOSF1bQ0gyXUMoPU8pW05IXVtDSDJdW0NIMl1DI04=

> <s_epik_cmdline>
J2VwaWtfcHl0aG9uJywgJy1waCcsICc3LjAnLCAnLXRuJywgJzgnLCAnLW1hJywgJzIwMCcsICctbWV0YWxfYmluZGluZycsICctaW1hZScsICc8aW5maWxlLm1hZT4nLCAnLW9tYWUnLCAnPG91dGZpbGUubWFlPic=

> <r_lp_tautomer_probability>
1

> <r_epik_Ionization_Penalty>
6.20835

> <r_epik_Ionization_Penalty_Charging>
6.20835

> <r_epik_Ionization_Penalty_Neutral>
3.57231e-06

> <r_epik_State_Penalty>
6.38139

> <r_epik_Charging_Adjusted_Penalty>
12.5897

> <i_epik_Tot_Q>
0

> <i_epik_Tot_abs_Q>
2

> <r_epik_Metal_State_Penalty>
2.31725

> <b_epik_Metal_Only>
1

> <s_lp_Force_Field>
OPLS_2005

> <r_lp_Energy>
-0.295423

> <b_lp_Chiralities_Consistent>
1

> <s_lp_Variant>
AV-unprocessed.smi:3145-5

> <Gold.Version>
5.8.1

> <Gold.Id.Protein>
6NUR|6NUR_protein|mol2

> <Gold.PLP.Fitness>
43.0998

> <Gold.PLP.PLP>
-28.7901

> <Gold.PLP.part.hbond>
-3.0000

> <Gold.PLP.part.metal>
0.0000

> <Gold.PLP.part.buried>
-6.2443

> <Gold.PLP.part.nonpolar>
-22.0385

> <Gold.PLP.part.repulsive>
1.4933

> <Gold.PLP.ligand.clash>
0.0000

> <Gold.PLP.ligand.torsion>
0.5844

> <Gold.PLP.Chemscore.Hbond>
3.0774

> <Gold.PLP.Chemscore.CHOScore>
2.0000

> <Gold.PLP.Chemscore.Metal>
0.0000

> <Gold.Chemscore.Hbonds>
donor molecule, donor type, donor heavy atom, donor atom, acceptor molecule, acceptor atom, score
      L1  H     9    34       P1  7948  2.00
      P1  H  7989  7998       L1    17  0.10
      P1  H  7997  8008       L1    17  0.99
      L1  C     5    24       P1 10186  1.00
      L1  C     7    26       P1 10747  0.39

> <Gold.PLP.Chemscore.Internal.Correction>
0.2465

> <Gold.Rescore>
     Score         DG    S(hbond)    S(metal)    S(lipo)     H(rot)  DE(clash)    DE(int)     intcor
     10.53     -11.16       1.99        0.00      53.00       2.79       0.00       0.63       ----

> <Gold.Chemscore.Fitness>
10.5323

> <Gold.Chemscore.DG>
-11.1612

> <Gold.Chemscore.ZeroCoef>
-5.4800

> <Gold.Chemscore.Hbond>
1.9865

> <Gold.Chemscore.Metal>
0.0000

> <Gold.Chemscore.Lipo>
53.0026

> <Gold.Chemscore.Internal_Hbond>
0.0000

> <Gold.Chemscore.DEClash>
0.0004

> <Gold.Chemscore.DEInternal>
0.6285

> <Gold.Chemscore.Rot>
2.7949

> <Gold.Chemscore.Internal.Correction>
   9.000000E+99

> <Gold.Chemscore.Hbonds>
donor molecule, donor type, donor heavy atom, donor atom, acceptor molecule, acceptor atom, score
      L1  H     9    34       P1  7948  1.00
      P1  H  7997  8008       L1    17  0.92

> <Gold.Chemscore.Hbond.Weighted>
-6.6349

> <Gold.Chemscore.Metal.Weighted>
-0.0000

> <Gold.Chemscore.Lipo.Weighted>
-6.2013

> <Gold.Chemscore.Internal_Hbond.Weighted>
0.0000

> <Gold.Chemscore.DEClash.Weighted>
0.0004

> <Gold.Chemscore.DEInternal.Weighted>
0.6285

> <Gold.Chemscore.Rot.Weighted>
7.1551

> <Gold.Chemscore.Internal.Correction.Weighted>
   9.000000E+99

> <Gold.Protein.RotatedTorsions>
[ 6907 6896 6895 6894 ] final -161.23 input  -60.11 | X-H torsion
[ 7974 7965 7964 7962 ] final   -7.97 input  175.53 | X-H torsion
[ 8008 7997 7996 7995 ] final  -15.31 input   59.86 | X-H torsion
[ 10167 10162 10161 10158 ] final   54.04 input  -65.29 | X-H torsion
[ 10718 10713 10712 10709 ] final -154.22 input   66.30 | X-H torsion
[ 10763 10752 10751 10750 ] final   54.05 input  -60.55 | X-H torsion
[ 11005 11000 10999 10996 ] final -158.47 input  -57.11 | X-H torsion

> <Gold.Protein.ActiveResidues>
 VAL166  LYS551  ARG553  GLY616  TRP617  ASP618  TYR619  PRO620  LYS621  CYS622 
 ASP623  PHE694  ASN695  SER759  ASP760  ASP761  ALA762  ILE779  LEU786  VAL792 
 PHE793  MET794  SER795  GLU796  ALA797  LYS798  CYS799  TRP800  GLU811  SER814 

> <Gold.Protein.RotatedAtoms>
  151.3614  133.3888  159.2689 H   0  0  0  0  0  0  0  0  0  0  0  0  # atno 6907 bound_to 6896
  150.9723  134.9094  159.7805 H   0  0  0  0  0  0  0  0  0  0  0  0  # atno 6908 bound_to 6896
  152.5189  134.3576  159.9325 H   0  0  0  0  0  0  0  0  0  0  0  0  # atno 6909 bound_to 6896
  146.2293  140.2398  142.8343 H   0  0  0  0  0  0  0  0  0  0  0  0  # atno 7974 bound_to 7965
  154.5140  140.2199  155.9101 H   0  0  0  0  0  0  0  0  0  0  0  0  # atno 8008 bound_to 7997
  156.1586  140.3147  155.8734 H   0  0  0  0  0  0  0  0  0  0  0  0  # atno 8009 bound_to 7997
  155.3797  140.0471  157.3034 H   0  0  0  0  0  0  0  0  0  0  0  0  # atno 8010 bound_to 7997
  140.2343  144.3653  150.6403 H   0  0  0  0  0  0  0  0  0  0  0  0  # atno 10167 bound_to 10162
  156.4964  130.8371  151.2591 H   0  0  0  0  0  0  0  0  0  0  0  0  # atno 10718 bound_to 10713
  152.9801  135.5758  154.4841 H   0  0  0  0  0  0  0  0  0  0  0  0  # atno 10763 bound_to 10752
  154.4386  135.2775  155.1865 H   0  0  0  0  0  0  0  0  0  0  0  0  # atno 10764 bound_to 10752
  154.3543  135.6202  153.5712 H   0  0  0  0  0  0  0  0  0  0  0  0  # atno 10765 bound_to 10752
  140.6532  134.4428  157.5235 H   0  0  0  0  0  0  0  0  0  0  0  0  # atno 11005 bound_to 11000
  144.9493  140.8161  143.5582 LP  0  0  0  0  0  0  0  0  0  0  0  0  # atno 17320 bound_to 7965
  145.2357  139.2095  143.5019 LP  0  0  0  0  0  0  0  0  0  0  0  0  # atno 17321 bound_to 7965
  140.6161  143.2172  151.6788 LP  0  0  0  0  0  0  0  0  0  0  0  0  # atno 17342 bound_to 10162
  139.5099  144.3561  152.0606 LP  0  0  0  0  0  0  0  0  0  0  0  0  # atno 17343 bound_to 10162
  157.7468  130.9996  150.2896 LP  0  0  0  0  0  0  0  0  0  0  0  0  # atno 17370 bound_to 10713
  156.3376  130.3810  149.7437 LP  0  0  0  0  0  0  0  0  0  0  0  0  # atno 17371 bound_to 10713
  139.9038  134.8494  156.1786 LP  0  0  0  0  0  0  0  0  0  0  0  0  # atno 17394 bound_to 11000
  141.0521  133.6883  156.1791 LP  0  0  0  0  0  0  0  0  0  0  0  0  # atno 17395 bound_to 11000

$$$$
