AV-unprocessed.smi:1898|AV-procd|sdf|7700|dock1
  -GOLD-   22720 9433D 1   1.00000     0.00000
 Structure written by MMmdl.
 46 47  0  0  0  0  0  0  0  0  1 V2000
  143.3375  136.6481  152.9959 C   0  0  0  0  0  0  0  0  0  0  0  0
  144.2709  137.7045  152.6373 N   0  0  0  0  0  0  0  0  0  0  0  0
  145.6052  137.5775  152.6752 C   0  0  0  0  0  0  0  0  0  0  0  0
  146.1769  136.5398  153.0085 O   0  0  0  0  0  0  0  0  0  0  0  0
  146.4241  138.8091  152.2706 C   0  0  0  0  0  0  0  0  0  0  0  0
  147.0610  139.5316  153.3972 N   0  0  0  0  0  0  0  0  0  0  0  0
  147.6314  140.7885  152.9004 C   0  0  0  0  0  0  0  0  0  0  0  0
  148.1984  141.6276  154.0594 C   0  0  0  0  0  0  0  0  0  0  0  0
  149.2689  140.8482  154.8355 C   0  0  0  0  0  0  0  0  0  0  0  0
  149.7083  141.6211  155.9937 N   0  0  0  0  0  0  0  0  0  0  0  0
  150.6132  141.2143  156.8953 C   0  0  0  0  0  0  0  0  0  0  0  0
  151.1844  140.1254  156.8395 O   0  0  0  0  0  0  0  0  0  0  0  0
  150.7870  142.1363  157.8572 N   0  0  0  0  0  0  0  0  0  0  0  0
  151.6293  142.0790  159.0021 C   0  0  0  0  0  0  0  0  0  0  0  0
  152.4755  140.9838  159.3023 C   0  0  0  0  0  0  0  0  0  0  0  0
  153.2814  141.0388  160.4544 C   0  0  0  0  0  0  0  0  0  0  0  0
  153.2202  142.1897  161.2608 C   0  0  0  0  0  0  0  0  0  0  0  0
  152.4306  143.2466  160.9804 N   0  0  0  0  0  0  0  0  0  0  0  0
  151.6521  143.1958  159.8702 C   0  0  0  0  0  0  0  0  0  0  0  0
  150.8473  144.2818  159.5822 O   0  0  0  0  0  0  0  0  0  0  0  0
  151.0463  145.4880  160.3112 C   0  0  0  0  0  0  0  0  0  0  0  0
  148.6814  139.4946  155.2669 C   0  0  0  0  0  0  0  0  0  0  0  0
  148.0981  138.7310  154.0653 C   0  0  0  0  0  0  0  0  0  0  0  0
  142.3129  137.0030  152.8867 H   0  0  0  0  0  0  0  0  0  0  0  0
  143.4823  136.3395  154.0319 H   0  0  0  0  0  0  0  0  0  0  0  0
  143.4684  135.7778  152.3517 H   0  0  0  0  0  0  0  0  0  0  0  0
  143.8821  138.5927  152.3540 H   0  0  0  0  0  0  0  0  0  0  0  0
  147.1869  138.5046  151.5515 H   0  0  0  0  0  0  0  0  0  0  0  0
  145.7512  139.4846  151.7401 H   0  0  0  0  0  0  0  0  0  0  0  0
  148.4120  140.5871  152.1642 H   0  0  0  0  0  0  0  0  0  0  0  0
  146.8593  141.3680  152.3923 H   0  0  0  0  0  0  0  0  0  0  0  0
  148.6213  142.5543  153.6695 H   0  0  0  0  0  0  0  0  0  0  0  0
  147.3863  141.9160  154.7286 H   0  0  0  0  0  0  0  0  0  0  0  0
  150.1197  140.6763  154.1731 H   0  0  0  0  0  0  0  0  0  0  0  0
  149.2862  142.5293  156.1204 H   0  0  0  0  0  0  0  0  0  0  0  0
  150.1886  142.9479  157.8065 H   0  0  0  0  0  0  0  0  0  0  0  0
  152.5344  140.1124  158.6692 H   0  0  0  0  0  0  0  0  0  0  0  0
  153.9361  140.2188  160.7102 H   0  0  0  0  0  0  0  0  0  0  0  0
  153.8262  142.2663  162.1513 H   0  0  0  0  0  0  0  0  0  0  0  0
  150.3435  146.2424  159.9578 H   0  0  0  0  0  0  0  0  0  0  0  0
  152.0534  145.8814  160.1653 H   0  0  0  0  0  0  0  0  0  0  0  0
  150.8683  145.3438  161.3777 H   0  0  0  0  0  0  0  0  0  0  0  0
  149.4487  138.8863  155.7469 H   0  0  0  0  0  0  0  0  0  0  0  0
  147.8991  139.6478  156.0120 H   0  0  0  0  0  0  0  0  0  0  0  0
  147.6894  137.7902  154.4337 H   0  0  0  0  0  0  0  0  0  0  0  0
  148.8895  138.4751  153.3585 H   0  0  0  0  0  0  0  0  0  0  0  0
  1  2  1  0  0  0  0
  1 24  1  0  0  0  0
  1 25  1  0  0  0  0
  1 26  1  0  0  0  0
  2  3  1  0  0  0  0
  2 27  1  0  0  0  0
  3  4  2  0  0  0  0
  3  5  1  0  0  0  0
  5  6  1  0  0  0  0
  5 28  1  0  0  0  0
  5 29  1  0  0  0  0
  6 23  1  0  0  0  0
  6  7  1  0  0  0  0
  7  8  1  0  0  0  0
  7 30  1  0  0  0  0
  7 31  1  0  0  0  0
  8  9  1  0  0  0  0
  8 32  1  0  0  0  0
  8 33  1  0  0  0  0
  9 10  1  0  0  0  0
  9 22  1  0  0  0  0
  9 34  1  0  0  0  0
 10 11  1  0  0  0  0
 10 35  1  0  0  0  0
 11 12  2  0  0  0  0
 11 13  1  0  0  0  0
 13 14  1  0  0  0  0
 13 36  1  0  0  0  0
 14 19  1  0  0  0  0
 14 15  2  0  0  0  0
 15 16  1  0  0  0  0
 15 37  1  0  0  0  0
 16 17  2  0  0  0  0
 16 38  1  0  0  0  0
 17 18  1  0  0  0  0
 17 39  1  0  0  0  0
 18 19  2  0  0  0  0
 19 20  1  0  0  0  0
 20 21  1  0  0  0  0
 21 40  1  0  0  0  0
 21 41  1  0  0  0  0
 21 42  1  0  0  0  0
 22 23  1  0  0  0  0
 22 43  1  0  0  0  0
 22 44  1  0  0  0  0
 23 45  1  0  0  0  0
 23 46  1  0  0  0  0
M  END
> <s_m_source_file>
AV-unprocessed.smi

> <i_m_source_file_index>
1898

> <i_lp_mmshare_version>
43012

> <i_f3d_flags>
0

> <s_epik_input>
W0NIM11bTkhdQyg9TylbQ0gyXU4xW0NIMl1bQ0gyXVtDSF0oW0NIMl1bQ0gyXTEpW05IXUMoPU8pW05IXWMyW2NIXVtjSF1bY0hdbmMyT1tDSDNd

> <s_epik_cmdline>
J2VwaWtfcHl0aG9uJywgJy1waCcsICc3LjAnLCAnLXRuJywgJzgnLCAnLW1hJywgJzIwMCcsICctbWV0YWxfYmluZGluZycsICctaW1hZScsICc8aW5maWxlLm1hZT4nLCAnLW9tYWUnLCAnPG91dGZpbGUubWFlPic=

> <r_lp_tautomer_probability>
1

> <r_epik_Ionization_Penalty>
0.16483

> <r_epik_Ionization_Penalty_Charging>
0

> <r_epik_Ionization_Penalty_Neutral>
0.16483

> <r_epik_State_Penalty>
0.154069

> <r_epik_Charging_Adjusted_Penalty>
0.154069

> <i_epik_Tot_Q>
0

> <i_epik_Tot_abs_Q>
0

> <r_epik_Metal_State_Penalty>
0.158584

> <b_epik_Metal_Only>
0

> <s_lp_Force_Field>
OPLS_2005

> <r_lp_Energy>
15.9116

> <b_lp_Chiralities_Consistent>
1

> <s_lp_Variant>
AV-unprocessed.smi:1898-1

> <Gold.Version>
5.8.1

> <Gold.Id.Protein>
6NUR|6NUR_protein|mol2

> <Gold.PLP.Fitness>
43.3598

> <Gold.PLP.PLP>
-39.2893

> <Gold.PLP.part.hbond>
-2.4833

> <Gold.PLP.part.metal>
0.0000

> <Gold.PLP.part.buried>
-2.3349

> <Gold.PLP.part.nonpolar>
-35.7253

> <Gold.PLP.part.repulsive>
1.5966

> <Gold.PLP.ligand.clash>
0.0000

> <Gold.PLP.ligand.torsion>
0.3279

> <Gold.PLP.Chemscore.Hbond>
1.5688

> <Gold.PLP.Chemscore.CHOScore>
0.0000

> <Gold.PLP.Chemscore.Metal>
0.0000

> <Gold.Chemscore.Hbonds>
donor molecule, donor type, donor heavy atom, donor atom, acceptor molecule, acceptor atom, score
      L1  H     2    27       P1 10175  1.00
      L1  H    10    35       P1  8028  0.39

> <Gold.PLP.Chemscore.Internal.Correction>
0.0200

> <Gold.Rescore>
     Score         DG    S(hbond)    S(metal)    S(lipo)     H(rot)  DE(clash)    DE(int)     intcor
     13.98     -17.62       1.89        0.00      92.71       1.96       1.04       2.61       ----

> <Gold.Chemscore.Fitness>
13.9787

> <Gold.Chemscore.DG>
-17.6238

> <Gold.Chemscore.ZeroCoef>
-5.4800

> <Gold.Chemscore.Hbond>
1.8938

> <Gold.Chemscore.Metal>
0.0000

> <Gold.Chemscore.Lipo>
92.7135

> <Gold.Chemscore.Internal_Hbond>
0.0000

> <Gold.Chemscore.DEClash>
1.0366

> <Gold.Chemscore.DEInternal>
2.6086

> <Gold.Chemscore.Rot>
1.9645

> <Gold.Chemscore.Internal.Correction>
   9.000000E+99

> <Gold.Chemscore.Hbonds>
donor molecule, donor type, donor heavy atom, donor atom, acceptor molecule, acceptor atom, score
      L1  H     2    27       P1 10175  0.98
      L1  H    10    35       P1  8028  0.39

> <Gold.Chemscore.Hbond.Weighted>
-6.3254

> <Gold.Chemscore.Metal.Weighted>
-0.0000

> <Gold.Chemscore.Lipo.Weighted>
-10.8475

> <Gold.Chemscore.Internal_Hbond.Weighted>
0.0000

> <Gold.Chemscore.DEClash.Weighted>
1.0366

> <Gold.Chemscore.DEInternal.Weighted>
2.6086

> <Gold.Chemscore.Rot.Weighted>
5.0290

> <Gold.Chemscore.Internal.Correction.Weighted>
   9.000000E+99

> <Gold.Protein.RotatedTorsions>
[ 6907 6896 6895 6894 ] final   89.76 input  -60.11 | X-H torsion
[ 7974 7965 7964 7962 ] final   94.04 input  175.53 | X-H torsion
[ 8008 7997 7996 7995 ] final -103.40 input   59.86 | X-H torsion
[ 10167 10162 10161 10158 ] final  -55.66 input  -65.29 | X-H torsion
[ 10718 10713 10712 10709 ] final  -11.06 input   66.30 | X-H torsion
[ 10763 10752 10751 10750 ] final   10.33 input  -60.55 | X-H torsion
[ 11005 11000 10999 10996 ] final  -10.85 input  -57.11 | X-H torsion

> <Gold.Protein.ActiveResidues>
 VAL166  LYS551  ARG553  GLY616  TRP617  ASP618  TYR619  PRO620  LYS621  CYS622 
 ASP623  PHE694  ASN695  SER759  ASP760  ASP761  ALA762  ILE779  LEU786  VAL792 
 PHE793  MET794  SER795  GLU796  ALA797  LYS798  CYS799  TRP800  GLU811  SER814 

> <Gold.Protein.RotatedAtoms>
  152.5439  134.1916  159.8675 H   0  0  0  0  0  0  0  0  0  0  0  0  # atno 6907 bound_to 6896
  151.1911  133.4660  159.2602 H   0  0  0  0  0  0  0  0  0  0  0  0  # atno 6908 bound_to 6896
  151.1082  135.0023  159.8537 H   0  0  0  0  0  0  0  0  0  0  0  0  # atno 6909 bound_to 6896
  145.4708  139.2282  143.2936 H   0  0  0  0  0  0  0  0  0  0  0  0  # atno 7974 bound_to 7965
  154.8704  140.0423  157.1721 H   0  0  0  0  0  0  0  0  0  0  0  0  # atno 8008 bound_to 7997
  154.8745  140.2963  155.5441 H   0  0  0  0  0  0  0  0  0  0  0  0  # atno 8009 bound_to 7997
  156.2999  140.2423  156.3739 H   0  0  0  0  0  0  0  0  0  0  0  0  # atno 8010 bound_to 7997
  140.6362  143.2483  151.5112 H   0  0  0  0  0  0  0  0  0  0  0  0  # atno 10167 bound_to 10162
  156.6645  130.4991  149.6020 H   0  0  0  0  0  0  0  0  0  0  0  0  # atno 10718 bound_to 10713
  153.2044  135.6860  153.8191 H   0  0  0  0  0  0  0  0  0  0  0  0  # atno 10763 bound_to 10752
  153.7446  135.3233  155.3311 H   0  0  0  0  0  0  0  0  0  0  0  0  # atno 10764 bound_to 10752
  154.8189  135.4666  154.0824 H   0  0  0  0  0  0  0  0  0  0  0  0  # atno 10765 bound_to 10752
  140.7490  133.8607  155.9030 H   0  0  0  0  0  0  0  0  0  0  0  0  # atno 11005 bound_to 11000
  146.2397  140.5486  142.8939 LP  0  0  0  0  0  0  0  0  0  0  0  0  # atno 17320 bound_to 7965
  144.7946  140.6098  143.6518 LP  0  0  0  0  0  0  0  0  0  0  0  0  # atno 17321 bound_to 7965
  139.5572  144.2246  152.1632 LP  0  0  0  0  0  0  0  0  0  0  0  0  # atno 17342 bound_to 10162
  140.1503  144.5121  150.6691 LP  0  0  0  0  0  0  0  0  0  0  0  0  # atno 17343 bound_to 10162
  156.1985  130.6605  151.1141 LP  0  0  0  0  0  0  0  0  0  0  0  0  # atno 17370 bound_to 10713
  157.7098  131.0739  150.6540 LP  0  0  0  0  0  0  0  0  0  0  0  0  # atno 17371 bound_to 10713
  140.9768  134.1459  157.4529 LP  0  0  0  0  0  0  0  0  0  0  0  0  # atno 17394 bound_to 11000
  139.8791  134.9997  156.5969 LP  0  0  0  0  0  0  0  0  0  0  0  0  # atno 17395 bound_to 11000

$$$$
