AV-unprocessed.smi:1291|AV-procd|sdf|5393|dock4
  -GOLD-   22720 4543D 1   1.00000     0.00000
 Structure written by MMmdl.
 44 46  0  0  0  0  0  0  0  0  2 V2000
  150.1952  140.2123  154.0631 O   0  0  0  0  0  0  0  0  0  0  0  0
  149.5324  141.2031  154.8204 C   0  0  0  0  0  0  0  0  0  0  0  0
  150.3357  141.6966  155.9820 C   0  0  0  0  0  0  0  0  0  0  0  0
  150.5970  142.9991  156.2915 N   0  3  0  0  0  0  0  0  0  0  0  0
  151.3703  143.0654  157.4507 C   0  0  0  0  0  0  0  0  0  0  0  0
  151.8753  144.1592  158.1472 C   0  0  0  0  0  0  0  0  0  0  0  0
  152.6248  143.8788  159.3084 C   0  0  0  0  0  0  0  0  0  0  0  0
  152.8487  142.5537  159.7351 C   0  0  0  0  0  0  0  0  0  0  0  0
  152.3360  141.4531  159.0174 C   0  0  0  0  0  0  0  0  0  0  0  0
  151.5951  141.7382  157.8702 C   0  0  0  0  0  0  0  0  0  0  0  0
  150.9432  140.9284  156.9314 N   0  0  0  0  0  0  0  0  0  0  0  0
  150.9877  139.4637  157.0741 C   0  0  0  0  0  0  0  0  0  0  0  0
  150.4252  138.9722  158.4229 C   0  0  2  0  0  0  0  0  0  0  0  0
  151.3567  138.0985  159.0295 O   0  0  0  0  0  0  0  0  0  0  0  0
  149.1002  138.2154  158.2457 C   0  0  0  0  0  0  0  0  0  0  0  0
  148.6526  137.7686  159.5146 O   0  0  0  0  0  0  0  0  0  0  0  0
  148.3800  136.3776  159.5432 C   0  0  0  0  0  0  0  0  0  0  0  0
  147.6454  135.9852  160.8101 C   0  0  0  0  0  0  0  0  0  0  0  0
  147.4645  136.9255  161.8464 C   0  0  0  0  0  0  0  0  0  0  0  0
  146.7819  136.5598  163.0231 C   0  0  0  0  0  0  0  0  0  0  0  0
  146.2763  135.2533  163.1674 C   0  0  0  0  0  0  0  0  0  0  0  0
  146.4528  134.3129  162.1341 C   0  0  0  0  0  0  0  0  0  0  0  0
  147.1358  134.6768  160.9570 C   0  0  0  0  0  0  0  0  0  0  0  0
  147.3019  133.7647  159.9690 F   0  0  0  0  0  0  0  0  0  0  0  0
  149.6819  140.0307  153.2903 H   0  0  0  0  0  0  0  0  0  0  0  0
  149.2940  142.0431  154.1677 H   0  0  0  0  0  0  0  0  0  0  0  0
  148.5886  140.7968  155.1842 H   0  0  0  0  0  0  0  0  0  0  0  0
  151.7031  145.1750  157.8231 H   0  0  0  0  0  0  0  0  0  0  0  0
  153.0339  144.6960  159.8846 H   0  0  0  0  0  0  0  0  0  0  0  0
  153.4236  142.3765  160.6327 H   0  0  0  0  0  0  0  0  0  0  0  0
  152.5083  140.4430  159.3585 H   0  0  0  0  0  0  0  0  0  0  0  0
  150.4030  139.0444  156.2545 H   0  0  0  0  0  0  0  0  0  0  0  0
  152.0096  139.1161  156.9206 H   0  0  0  0  0  0  0  0  0  0  0  0
  150.2705  139.8310  159.0773 H   0  0  0  0  0  0  0  0  0  0  0  0
  152.2017  138.5227  159.0352 H   0  0  0  0  0  0  0  0  0  0  0  0
  148.3448  138.8867  157.8336 H   0  0  0  0  0  0  0  0  0  0  0  0
  149.2120  137.3852  157.5458 H   0  0  0  0  0  0  0  0  0  0  0  0
  147.7883  136.0978  158.6702 H   0  0  0  0  0  0  0  0  0  0  0  0
  149.3120  135.8124  159.4930 H   0  0  0  0  0  0  0  0  0  0  0  0
  147.8505  137.9291  161.7446 H   0  0  0  0  0  0  0  0  0  0  0  0
  146.6467  137.2818  163.8151 H   0  0  0  0  0  0  0  0  0  0  0  0
  145.7538  134.9724  164.0700 H   0  0  0  0  0  0  0  0  0  0  0  0
  146.0643  133.3112  162.2448 H   0  0  0  0  0  0  0  0  0  0  0  0
  150.2628  143.7823  155.7448 H   0  0  0  0  0  0  0  0  0  0  0  0
  1  2  1  0  0  0  0
  1 25  1  0  0  0  0
  2  3  1  0  0  0  0
  2 26  1  0  0  0  0
  2 27  1  0  0  0  0
  3 11  1  0  0  0  0
  3  4  2  0  0  0  0
  4  5  1  0  0  0  0
  4 44  1  0  0  0  0
  5 10  2  0  0  0  0
  5  6  1  0  0  0  0
  6  7  2  0  0  0  0
  6 28  1  0  0  0  0
  7  8  1  0  0  0  0
  7 29  1  0  0  0  0
  8  9  2  0  0  0  0
  8 30  1  0  0  0  0
  9 10  1  0  0  0  0
  9 31  1  0  0  0  0
 10 11  1  0  0  0  0
 11 12  1  0  0  0  0
 12 13  1  0  0  0  0
 12 32  1  0  0  0  0
 12 33  1  0  0  0  0
 13 14  1  0  0  0  0
 13 15  1  0  0  0  0
 13 34  1  0  0  0  0
 14 35  1  0  0  0  0
 15 16  1  0  0  0  0
 15 36  1  0  0  0  0
 15 37  1  0  0  0  0
 16 17  1  0  0  0  0
 17 18  1  0  0  0  0
 17 38  1  0  0  0  0
 17 39  1  0  0  0  0
 18 23  1  0  0  0  0
 18 19  2  0  0  0  0
 19 20  1  0  0  0  0
 19 40  1  0  0  0  0
 20 21  2  0  0  0  0
 20 41  1  0  0  0  0
 21 22  1  0  0  0  0
 21 42  1  0  0  0  0
 22 23  2  0  0  0  0
 22 43  1  0  0  0  0
 23 24  1  0  0  0  0
M  CHG  1   4   1
M  END
> <s_m_source_file>
AV-unprocessed.smi

> <i_m_source_file_index>
1291

> <i_lp_mmshare_version>
43012

> <i_f3d_flags>
0

> <s_epik_input>
W2NIXTFbY0hdW2NIXVtjSF1jKGMxMiluKGMobjIpW0NIMl1bT0hdKVtDSDJdW0NASF0oW09IXSlbQ0gyXU9bQ0gyXWMzW2NIXVtjSF1bY0hdW2NIXWMzRg==

> <s_epik_cmdline>
J2VwaWtfcHl0aG9uJywgJy1waCcsICc3LjAnLCAnLXRuJywgJzgnLCAnLW1hJywgJzIwMCcsICctbWV0YWxfYmluZGluZycsICctaW1hZScsICc8aW5maWxlLm1hZT4nLCAnLW9tYWUnLCAnPG91dGZpbGUubWFlPic=

> <r_epik_Ionization_Penalty>
1.34314

> <r_epik_Ionization_Penalty_Charging>
1.34228

> <r_epik_Ionization_Penalty_Neutral>
0.000856861

> <r_epik_State_Penalty>
1.41963

> <r_epik_Charging_Adjusted_Penalty>
2.76191

> <i_epik_Tot_Q>
1

> <i_epik_Tot_abs_Q>
1

> <r_epik_Metal_State_Penalty>
5.45585

> <b_epik_Metal_Only>
0

> <s_lp_Force_Field>
OPLS_2005

> <r_lp_Energy>
17.9638

> <b_lp_Chiralities_Consistent>
1

> <s_lp_Variant>
AV-unprocessed.smi:1291-3

> <Gold.Version>
5.8.1

> <Gold.Id.Protein>
6NUR|6NUR_protein|mol2

> <Gold.PLP.Fitness>
63.3996

> <Gold.PLP.PLP>
-54.4028

> <Gold.PLP.part.hbond>
-3.0795

> <Gold.PLP.part.metal>
0.0000

> <Gold.PLP.part.buried>
-5.6891

> <Gold.PLP.part.nonpolar>
-46.8208

> <Gold.PLP.part.repulsive>
0.0979

> <Gold.PLP.ligand.clash>
0.0000

> <Gold.PLP.ligand.torsion>
1.2521

> <Gold.PLP.Chemscore.Hbond>
3.7848

> <Gold.PLP.Chemscore.CHOScore>
0.0000

> <Gold.PLP.Chemscore.Metal>
0.0000

> <Gold.Chemscore.Hbonds>
donor molecule, donor type, donor heavy atom, donor atom, acceptor molecule, acceptor atom, score
      L1  H     1    25       P1  7957  0.69
      L1  H     4    44       P1  8028  1.54
      P1  H  6934  6947       L1    16  0.04
      P1  H  7989  7998       L1     1  0.93

> <Gold.PLP.Chemscore.Internal.Correction>
0.1465

> <Gold.Rescore>
     Score         DG    S(hbond)    S(metal)    S(lipo)     H(rot)  DE(clash)    DE(int)     intcor
     18.83     -20.06       2.41        0.00     130.88       3.44       0.06       1.16       ----

> <Gold.Chemscore.Fitness>
18.8316

> <Gold.Chemscore.DG>
-20.0551

> <Gold.Chemscore.ZeroCoef>
-5.4800

> <Gold.Chemscore.Hbond>
2.4122

> <Gold.Chemscore.Metal>
0.0000

> <Gold.Chemscore.Lipo>
130.8775

> <Gold.Chemscore.Internal_Hbond>
0.0000

> <Gold.Chemscore.DEClash>
0.0594

> <Gold.Chemscore.DEInternal>
1.1642

> <Gold.Chemscore.Rot>
3.4353

> <Gold.Chemscore.Internal.Correction>
   9.000000E+99

> <Gold.Chemscore.Hbonds>
donor molecule, donor type, donor heavy atom, donor atom, acceptor molecule, acceptor atom, score
      L1  H     1    25       P1  7957  0.67
      L1  H     4    44       P1  8028  0.77
      P1  H  6931  6943       L1    16  0.01
      P1  H  6934  6947       L1    16  0.04
      P1  H  7989  7998       L1     1  0.26

> <Gold.Chemscore.Hbond.Weighted>
-8.0569

> <Gold.Chemscore.Metal.Weighted>
-0.0000

> <Gold.Chemscore.Lipo.Weighted>
-15.3127

> <Gold.Chemscore.Internal_Hbond.Weighted>
0.0000

> <Gold.Chemscore.DEClash.Weighted>
0.0594

> <Gold.Chemscore.DEInternal.Weighted>
1.1642

> <Gold.Chemscore.Rot.Weighted>
8.7944

> <Gold.Chemscore.Internal.Correction.Weighted>
   9.000000E+99

> <Gold.Protein.RotatedTorsions>
[ 6907 6896 6895 6894 ] final  -10.38 input  -60.11 | X-H torsion
[ 7974 7965 7964 7962 ] final   58.18 input  175.53 | X-H torsion
[ 8008 7997 7996 7995 ] final -141.46 input   59.86 | X-H torsion
[ 10167 10162 10161 10158 ] final  -92.81 input  -65.29 | X-H torsion
[ 10718 10713 10712 10709 ] final  -73.98 input   66.30 | X-H torsion
[ 10763 10752 10751 10750 ] final  -36.70 input  -60.55 | X-H torsion
[ 11005 11000 10999 10996 ] final  -20.42 input  -57.11 | X-H torsion

> <Gold.Protein.ActiveResidues>
 VAL166  LYS551  ARG553  GLY616  TRP617  ASP618  TYR619  PRO620  LYS621  CYS622 
 ASP623  PHE694  ASN695  SER759  ASP760  ASP761  ALA762  ILE779  LEU786  VAL792 
 PHE793  MET794  SER795  GLU796  ALA797  LYS798  CYS799  TRP800  GLU811  SER814 

> <Gold.Protein.RotatedAtoms>
  151.4029  135.0974  159.9561 H   0  0  0  0  0  0  0  0  0  0  0  0  # atno 6907 bound_to 6896
  152.5044  133.8871  159.7386 H   0  0  0  0  0  0  0  0  0  0  0  0  # atno 6908 bound_to 6896
  150.9349  133.6667  159.2831 H   0  0  0  0  0  0  0  0  0  0  0  0  # atno 6909 bound_to 6896
  145.9210  139.3729  143.0478 H   0  0  0  0  0  0  0  0  0  0  0  0  # atno 7974 bound_to 7965
  155.4781  140.0558  157.2971 H   0  0  0  0  0  0  0  0  0  0  0  0  # atno 8008 bound_to 7997
  154.4671  140.2023  156.0043 H   0  0  0  0  0  0  0  0  0  0  0  0  # atno 8009 bound_to 7997
  156.0993  140.3221  155.7925 H   0  0  0  0  0  0  0  0  0  0  0  0  # atno 8010 bound_to 7997
  140.3311  143.2994  151.9941 H   0  0  0  0  0  0  0  0  0  0  0  0  # atno 10167 bound_to 10162
  156.0259  130.4406  150.2824 H   0  0  0  0  0  0  0  0  0  0  0  0  # atno 10718 bound_to 10713
  153.8841  135.6818  153.4765 H   0  0  0  0  0  0  0  0  0  0  0  0  # atno 10763 bound_to 10752
  153.1217  135.4737  154.9204 H   0  0  0  0  0  0  0  0  0  0  0  0  # atno 10764 bound_to 10752
  154.7654  135.3223  154.8248 H   0  0  0  0  0  0  0  0  0  0  0  0  # atno 10765 bound_to 10752
  140.8462  133.7890  155.9915 H   0  0  0  0  0  0  0  0  0  0  0  0  # atno 11005 bound_to 11000
  145.8550  140.9507  143.0730 LP  0  0  0  0  0  0  0  0  0  0  0  0  # atno 17320 bound_to 7965
  144.6753  140.0456  143.7480 LP  0  0  0  0  0  0  0  0  0  0  0  0  # atno 17321 bound_to 7965
  139.4856  144.6234  151.7211 LP  0  0  0  0  0  0  0  0  0  0  0  0  # atno 17342 bound_to 10162
  140.5397  144.0600  150.6083 LP  0  0  0  0  0  0  0  0  0  0  0  0  # atno 17343 bound_to 10162
  157.0927  131.0174  151.3115 LP  0  0  0  0  0  0  0  0  0  0  0  0  # atno 17370 bound_to 10713
  157.4841  130.7783  149.7443 LP  0  0  0  0  0  0  0  0  0  0  0  0  # atno 17371 bound_to 10713
  140.8840  134.2576  157.5129 LP  0  0  0  0  0  0  0  0  0  0  0  0  # atno 17394 bound_to 11000
  139.8703  134.9629  156.4444 LP  0  0  0  0  0  0  0  0  0  0  0  0  # atno 17395 bound_to 11000

$$$$
