AV-unprocessed.smi:480|AV-procd|sdf|2676|dock3
  -GOLD-   2262023 93D 1   1.00000     0.00000
 Structure written by MMmdl.
 46 48  0  0  0  0  0  0  0  0  1 V2000
  151.0797  138.9577  154.5426 C   0  0  0  0  0  0  0  0  0  0  0  0
  150.1535  139.9112  155.3078 C   0  0  0  0  0  0  0  0  0  0  0  0
  150.8220  140.5504  156.4917 C   0  0  0  0  0  0  0  0  0  0  0  0
  150.8208  141.8772  156.6341 N   0  0  0  0  0  0  0  0  0  0  0  0
  151.5189  142.0636  157.8094 C   0  0  0  0  0  0  0  0  0  0  0  0
  151.8592  143.2502  158.4977 C   0  0  0  0  0  0  0  0  0  0  0  0
  152.5893  143.1918  159.7029 C   0  0  0  0  0  0  0  0  0  0  0  0
  152.9876  141.9488  160.2360 C   0  0  0  0  0  0  0  0  0  0  0  0
  152.6569  140.7550  159.5662 C   0  0  0  0  0  0  0  0  0  0  0  0
  151.9285  140.8188  158.3626 C   0  0  0  0  0  0  0  0  0  0  0  0
  151.4515  139.8549  157.4784 N   0  0  0  0  0  0  0  0  0  0  0  0
  151.6186  138.4153  157.6501 C   0  0  0  0  0  0  0  0  0  0  0  0
  151.2085  137.9247  159.0526 C   0  0  2  0  0  0  0  0  0  0  0  0
  152.1513  136.9748  159.5055 O   0  0  0  0  0  0  0  0  0  0  0  0
  149.8196  137.2663  159.0396 C   0  0  0  0  0  0  0  0  0  0  0  0
  149.2651  137.3243  160.3475 O   0  0  0  0  0  0  0  0  0  0  0  0
  148.4002  136.3224  160.7336 C   0  0  0  0  0  0  0  0  0  0  0  0
  147.9793  135.2628  159.8902 C   0  0  0  0  0  0  0  0  0  0  0  0
  147.0887  134.2813  160.3670 C   0  0  0  0  0  0  0  0  0  0  0  0
  146.6063  134.3427  161.6889 C   0  0  0  0  0  0  0  0  0  0  0  0
  145.6509  133.2855  162.2015 C   0  0  0  0  0  0  0  0  0  0  0  0
  144.3900  133.8709  162.6813 C   0  0  0  0  0  0  0  0  0  0  0  0
  143.3982  134.3318  163.0590 N   0  0  0  0  0  0  0  0  0  0  0  0
  147.0214  135.3907  162.5331 C   0  0  0  0  0  0  0  0  0  0  0  0
  147.9123  136.3712  162.0557 C   0  0  0  0  0  0  0  0  0  0  0  0
  150.5645  138.5199  153.6876 H   0  0  0  0  0  0  0  0  0  0  0  0
  151.4237  138.1415  155.1762 H   0  0  0  0  0  0  0  0  0  0  0  0
  151.9593  139.4810  154.1666 H   0  0  0  0  0  0  0  0  0  0  0  0
  149.8247  140.7052  154.6365 H   0  0  0  0  0  0  0  0  0  0  0  0
  149.2493  139.3829  155.5982 H   0  0  0  0  0  0  0  0  0  0  0  0
  151.5574  144.2065  158.0974 H   0  0  0  0  0  0  0  0  0  0  0  0
  152.8442  144.1047  160.2209 H   0  0  0  0  0  0  0  0  0  0  0  0
  153.5465  141.9119  161.1597 H   0  0  0  0  0  0  0  0  0  0  0  0
  152.9599  139.8016  159.9726 H   0  0  0  0  0  0  0  0  0  0  0  0
  150.9954  137.9258  156.9009 H   0  0  0  0  0  0  0  0  0  0  0  0
  152.6366  138.1131  157.4147 H   0  0  0  0  0  0  0  0  0  0  0  0
  151.2033  138.7724  159.7391 H   0  0  0  0  0  0  0  0  0  0  0  0
  152.8186  136.8769  158.8433 H   0  0  0  0  0  0  0  0  0  0  0  0
  149.1664  137.8243  158.3669 H   0  0  0  0  0  0  0  0  0  0  0  0
  149.8783  136.2402  158.6717 H   0  0  0  0  0  0  0  0  0  0  0  0
  148.3255  135.1790  158.8714 H   0  0  0  0  0  0  0  0  0  0  0  0
  146.7769  133.4796  159.7137 H   0  0  0  0  0  0  0  0  0  0  0  0
  145.4218  132.5727  161.4087 H   0  0  0  0  0  0  0  0  0  0  0  0
  146.1077  132.7297  163.0205 H   0  0  0  0  0  0  0  0  0  0  0  0
  146.6587  135.4443  163.5491 H   0  0  0  0  0  0  0  0  0  0  0  0
  148.2235  137.1709  162.7118 H   0  0  0  0  0  0  0  0  0  0  0  0
  1  2  1  0  0  0  0
  1 26  1  0  0  0  0
  1 27  1  0  0  0  0
  1 28  1  0  0  0  0
  2  3  1  0  0  0  0
  2 29  1  0  0  0  0
  2 30  1  0  0  0  0
  3 11  1  0  0  0  0
  3  4  2  0  0  0  0
  4  5  1  0  0  0  0
  5 10  2  0  0  0  0
  5  6  1  0  0  0  0
  6  7  2  0  0  0  0
  6 31  1  0  0  0  0
  7  8  1  0  0  0  0
  7 32  1  0  0  0  0
  8  9  2  0  0  0  0
  8 33  1  0  0  0  0
  9 10  1  0  0  0  0
  9 34  1  0  0  0  0
 10 11  1  0  0  0  0
 11 12  1  0  0  0  0
 12 13  1  0  0  0  0
 12 35  1  0  0  0  0
 12 36  1  0  0  0  0
 13 14  1  0  0  0  0
 13 15  1  0  0  0  0
 13 37  1  0  0  0  0
 14 38  1  0  0  0  0
 15 16  1  0  0  0  0
 15 39  1  0  0  0  0
 15 40  1  0  0  0  0
 16 17  1  0  0  0  0
 17 25  1  0  0  0  0
 17 18  2  0  0  0  0
 18 19  1  0  0  0  0
 18 41  1  0  0  0  0
 19 20  2  0  0  0  0
 19 42  1  0  0  0  0
 20 21  1  0  0  0  0
 20 24  1  0  0  0  0
 21 22  1  0  0  0  0
 21 43  1  0  0  0  0
 21 44  1  0  0  0  0
 22 23  3  0  0  0  0
 24 25  2  0  0  0  0
 24 45  1  0  0  0  0
 25 46  1  0  0  0  0
M  END
> <s_m_source_file>
AV-unprocessed.smi

> <i_m_source_file_index>
480

> <i_lp_mmshare_version>
43012

> <i_f3d_flags>
0

> <s_epik_input>
W2NIXTFbY0hdW2NIXVtjSF1jKGMxMiluKGMobjIpW0NIMl1bQ0gzXSlbQ0gyXVtDQEhdKFtPSF0pW0NIMl1PYzNbY0hdW2NIXWMoW0NIMl1DI04pW2NIXVtjSF0z

> <s_epik_cmdline>
J2VwaWtfcHl0aG9uJywgJy1waCcsICc3LjAnLCAnLXRuJywgJzgnLCAnLW1hJywgJzIwMCcsICctbWV0YWxfYmluZGluZycsICctaW1hZScsICc8aW5maWxlLm1hZT4nLCAnLW9tYWUnLCAnPG91dGZpbGUubWFlPic=

> <r_lp_tautomer_probability>
1

> <r_epik_Ionization_Penalty>
0.114213

> <r_epik_Ionization_Penalty_Charging>
0

> <r_epik_Ionization_Penalty_Neutral>
0.114213

> <r_epik_State_Penalty>
0.103875

> <r_epik_Charging_Adjusted_Penalty>
0.103875

> <i_epik_Tot_Q>
0

> <i_epik_Tot_abs_Q>
0

> <r_epik_Metal_State_Penalty>
0.000113526

> <b_epik_Metal_Only>
0

> <s_lp_Force_Field>
OPLS_2005

> <r_lp_Energy>
17.1637

> <b_lp_Chiralities_Consistent>
1

> <s_lp_Variant>
AV-unprocessed.smi:480-1

> <Gold.Version>
5.8.1

> <Gold.Id.Protein>
6NUR|6NUR_protein|mol2

> <Gold.PLP.Fitness>
56.2054

> <Gold.PLP.PLP>
-54.0894

> <Gold.PLP.part.hbond>
-1.8066

> <Gold.PLP.part.metal>
0.0000

> <Gold.PLP.part.buried>
-5.6215

> <Gold.PLP.part.nonpolar>
-46.1293

> <Gold.PLP.part.repulsive>
0.1897

> <Gold.PLP.ligand.clash>
0.0000

> <Gold.PLP.ligand.torsion>
1.1659

> <Gold.PLP.Chemscore.Hbond>
1.3712

> <Gold.PLP.Chemscore.CHOScore>
0.0000

> <Gold.PLP.Chemscore.Metal>
0.0000

> <Gold.Chemscore.Hbonds>
donor molecule, donor type, donor heavy atom, donor atom, acceptor molecule, acceptor atom, score
      P1  H  6896  6908       L1    14  1.00
      P1  H  6931  6943       L1    16  0.32

> <Gold.PLP.Chemscore.Internal.Correction>
0.3342

> <Gold.Rescore>
     Score         DG    S(hbond)    S(metal)    S(lipo)     H(rot)  DE(clash)    DE(int)     intcor
     17.01     -18.04       1.01        0.00     134.90       2.58       0.07       0.96       ----

> <Gold.Chemscore.Fitness>
17.0068

> <Gold.Chemscore.DG>
-18.0382

> <Gold.Chemscore.ZeroCoef>
-5.4800

> <Gold.Chemscore.Hbond>
1.0088

> <Gold.Chemscore.Metal>
0.0000

> <Gold.Chemscore.Lipo>
134.9003

> <Gold.Chemscore.Internal_Hbond>
0.0000

> <Gold.Chemscore.DEClash>
0.0739

> <Gold.Chemscore.DEInternal>
0.9575

> <Gold.Chemscore.Rot>
2.5759

> <Gold.Chemscore.Internal.Correction>
   9.000000E+99

> <Gold.Chemscore.Hbonds>
donor molecule, donor type, donor heavy atom, donor atom, acceptor molecule, acceptor atom, score
      P1  H  6896  6908       L1    14  0.39
      P1  H  6931  6943       L1    16  0.04

> <Gold.Chemscore.Hbond.Weighted>
-3.3693

> <Gold.Chemscore.Metal.Weighted>
-0.0000

> <Gold.Chemscore.Lipo.Weighted>
-15.7833

> <Gold.Chemscore.Internal_Hbond.Weighted>
0.0000

> <Gold.Chemscore.DEClash.Weighted>
0.0739

> <Gold.Chemscore.DEInternal.Weighted>
0.9575

> <Gold.Chemscore.Rot.Weighted>
6.5943

> <Gold.Chemscore.Internal.Correction.Weighted>
   9.000000E+99

> <Gold.Protein.RotatedTorsions>
[ 6907 6896 6895 6894 ] final -108.18 input  -60.11 | X-H torsion
[ 7974 7965 7964 7962 ] final  -43.08 input  175.53 | X-H torsion
[ 8008 7997 7996 7995 ] final   61.46 input   59.86 | X-H torsion
[ 10167 10162 10161 10158 ] final   65.56 input  -65.29 | X-H torsion
[ 10718 10713 10712 10709 ] final  -25.79 input   66.30 | X-H torsion
[ 10763 10752 10751 10750 ] final   49.96 input  -60.55 | X-H torsion
[ 11005 11000 10999 10996 ] final  -45.54 input  -57.11 | X-H torsion

> <Gold.Protein.ActiveResidues>
 VAL166  LYS551  ARG553  GLY616  TRP617  ASP618  TYR619  PRO620  LYS621  CYS622 
 ASP623  PHE694  ASN695  SER759  ASP760  ASP761  ALA762  ILE779  LEU786  VAL792 
 PHE793  MET794  SER795  GLU796  ALA797  LYS798  CYS799  TRP800  GLU811  SER814 

> <Gold.Protein.RotatedAtoms>
  150.7486  133.9716  159.3547 H   0  0  0  0  0  0  0  0  0  0  0  0  # atno 6907 bound_to 6896
  151.7650  135.0798  160.0361 H   0  0  0  0  0  0  0  0  0  0  0  0  # atno 6908 bound_to 6896
  152.3377  133.5994  159.5890 H   0  0  0  0  0  0  0  0  0  0  0  0  # atno 6909 bound_to 6896
  146.0053  140.7027  142.9250 H   0  0  0  0  0  0  0  0  0  0  0  0  # atno 7974 bound_to 7965
  155.5987  140.3493  155.4587 H   0  0  0  0  0  0  0  0  0  0  0  0  # atno 8008 bound_to 7997
  156.0245  140.1261  157.0347 H   0  0  0  0  0  0  0  0  0  0  0  0  # atno 8009 bound_to 7997
  154.4328  140.1056  156.5997 H   0  0  0  0  0  0  0  0  0  0  0  0  # atno 8010 bound_to 7997
  140.1100  144.4827  150.6984 H   0  0  0  0  0  0  0  0  0  0  0  0  # atno 10167 bound_to 10162
  156.4597  130.4501  149.6937 H   0  0  0  0  0  0  0  0  0  0  0  0  # atno 10718 bound_to 10713
  152.9785  135.5894  154.4174 H   0  0  0  0  0  0  0  0  0  0  0  0  # atno 10763 bound_to 10752
  154.3802  135.2767  155.2217 H   0  0  0  0  0  0  0  0  0  0  0  0  # atno 10764 bound_to 10752
  154.4134  135.6076  153.6021 H   0  0  0  0  0  0  0  0  0  0  0  0  # atno 10765 bound_to 10752
  141.0522  133.6739  156.3027 H   0  0  0  0  0  0  0  0  0  0  0  0  # atno 11005 bound_to 11000
  144.6933  140.3305  143.7217 LP  0  0  0  0  0  0  0  0  0  0  0  0  # atno 17320 bound_to 7965
  145.7425  139.1768  143.2368 LP  0  0  0  0  0  0  0  0  0  0  0  0  # atno 17321 bound_to 7965
  140.6931  143.2387  151.5076 LP  0  0  0  0  0  0  0  0  0  0  0  0  # atno 17342 bound_to 10162
  139.5624  144.2123  152.1713 LP  0  0  0  0  0  0  0  0  0  0  0  0  # atno 17343 bound_to 10162
  156.3730  130.7540  151.2525 LP  0  0  0  0  0  0  0  0  0  0  0  0  # atno 17370 bound_to 10713
  157.7498  131.0318  150.4196 LP  0  0  0  0  0  0  0  0  0  0  0  0  # atno 17371 bound_to 10713
  140.6033  134.5532  157.5521 LP  0  0  0  0  0  0  0  0  0  0  0  0  # atno 17394 bound_to 11000
  139.9360  134.7875  156.0803 LP  0  0  0  0  0  0  0  0  0  0  0  0  # atno 17395 bound_to 11000

$$$$
