AV-unprocessed.smi:352|AV-procd|sdf|2401|dock5
  -GOLD-   2262022333D 1   1.00000     0.00000
 Structure written by MMmdl.
 45 46  0  0  0  0  0  0  0  0  2 V2000
  143.7092  132.0444  150.2899 C   0  0  0  0  0  0  0  0  0  0  0  0
  144.2654  133.1398  151.1334 C   0  0  0  0  0  0  0  0  0  0  0  0
  145.5147  133.6809  151.2487 C   0  0  0  0  0  0  0  0  0  0  0  0
  145.3356  134.6885  152.2409 C   0  0  0  0  0  0  0  0  0  0  0  0
  146.3337  135.5645  152.7405 N   0  0  0  0  0  0  0  0  0  0  0  0
  146.2707  136.3800  153.8064 C   0  0  0  0  0  0  0  0  0  0  0  0
  145.2899  136.5283  154.5339 O   0  0  0  0  0  0  0  0  0  0  0  0
  147.4325  137.0235  153.9918 N   0  0  0  0  0  0  0  0  0  0  0  0
  147.7161  137.9855  155.0580 C   0  0  0  0  0  0  0  0  0  0  0  0
  149.2009  138.4794  155.0832 C   0  0  0  0  0  0  0  0  0  0  0  0
  150.1041  137.3008  154.7977 N   0  3  0  0  0  0  0  0  0  0  0  0
  149.9043  136.0908  155.6375 C   0  0  0  0  0  0  0  0  0  0  0  0
  151.5524  137.6213  154.6959 C   0  0  0  0  0  0  0  0  0  0  0  0
  149.3935  139.6018  154.0186 C   0  0  0  0  0  0  0  0  0  0  0  0
  148.6115  140.8931  154.3280 C   0  0  0  0  0  0  0  0  0  0  0  0
  148.9517  141.4442  155.7187 C   0  0  0  0  0  0  0  0  0  0  0  0
  148.7365  140.3826  156.8051 C   0  0  0  0  0  0  0  0  0  0  0  0
  149.5252  139.0997  156.4827 C   0  0  0  0  0  0  0  0  0  0  0  0
  144.0936  134.7515  152.6838 N   0  0  0  0  0  0  0  0  0  0  0  0
  143.4000  133.7607  151.9794 O   0  0  0  0  0  0  0  0  0  0  0  0
  144.4017  131.7791  149.4908 H   0  0  0  0  0  0  0  0  0  0  0  0
  142.7669  132.3469  149.8329 H   0  0  0  0  0  0  0  0  0  0  0  0
  143.5254  131.1523  150.8886 H   0  0  0  0  0  0  0  0  0  0  0  0
  146.3998  133.3890  150.7037 H   0  0  0  0  0  0  0  0  0  0  0  0
  147.2044  135.5563  152.2301 H   0  0  0  0  0  0  0  0  0  0  0  0
  148.1750  136.8502  153.3299 H   0  0  0  0  0  0  0  0  0  0  0  0
  147.0430  138.8280  154.9042 H   0  0  0  0  0  0  0  0  0  0  0  0
  147.4017  137.5784  156.0177 H   0  0  0  0  0  0  0  0  0  0  0  0
  149.9945  136.3167  156.7000 H   0  0  0  0  0  0  0  0  0  0  0  0
  150.6471  135.3284  155.3995 H   0  0  0  0  0  0  0  0  0  0  0  0
  148.9355  135.6275  155.4541 H   0  0  0  0  0  0  0  0  0  0  0  0
  151.9764  137.8681  155.6695 H   0  0  0  0  0  0  0  0  0  0  0  0
  151.7535  138.4448  154.0134 H   0  0  0  0  0  0  0  0  0  0  0  0
  152.1017  136.7615  154.3111 H   0  0  0  0  0  0  0  0  0  0  0  0
  150.4499  139.8578  153.9355 H   0  0  0  0  0  0  0  0  0  0  0  0
  149.0907  139.2533  153.0312 H   0  0  0  0  0  0  0  0  0  0  0  0
  148.8383  141.6463  153.5729 H   0  0  0  0  0  0  0  0  0  0  0  0
  147.5391  140.7115  154.2558 H   0  0  0  0  0  0  0  0  0  0  0  0
  149.9909  141.7753  155.7337 H   0  0  0  0  0  0  0  0  0  0  0  0
  148.3442  142.3244  155.9310 H   0  0  0  0  0  0  0  0  0  0  0  0
  149.0642  140.7783  157.7669 H   0  0  0  0  0  0  0  0  0  0  0  0
  147.6742  140.1733  156.9216 H   0  0  0  0  0  0  0  0  0  0  0  0
  149.3811  138.3665  157.2760 H   0  0  0  0  0  0  0  0  0  0  0  0
  150.5727  139.3935  156.5367 H   0  0  0  0  0  0  0  0  0  0  0  0
  149.8389  137.0044  153.8693 H   0  0  0  0  0  0  0  0  0  0  0  0
  1  2  1  0  0  0  0
  1 21  1  0  0  0  0
  1 22  1  0  0  0  0
  1 23  1  0  0  0  0
  2 20  1  0  0  0  0
  2  3  2  0  0  0  0
  3  4  1  0  0  0  0
  3 24  1  0  0  0  0
  4  5  1  0  0  0  0
  4 19  2  0  0  0  0
  5  6  1  0  0  0  0
  5 25  1  0  0  0  0
  6  7  2  0  0  0  0
  6  8  1  0  0  0  0
  8  9  1  0  0  0  0
  8 26  1  0  0  0  0
  9 10  1  0  0  0  0
  9 27  1  0  0  0  0
  9 28  1  0  0  0  0
 10 18  1  0  0  0  0
 10 11  1  0  0  0  0
 10 14  1  0  0  0  0
 11 12  1  0  0  0  0
 11 13  1  0  0  0  0
 11 45  1  0  0  0  0
 12 29  1  0  0  0  0
 12 30  1  0  0  0  0
 12 31  1  0  0  0  0
 13 32  1  0  0  0  0
 13 33  1  0  0  0  0
 13 34  1  0  0  0  0
 14 15  1  0  0  0  0
 14 35  1  0  0  0  0
 14 36  1  0  0  0  0
 15 16  1  0  0  0  0
 15 37  1  0  0  0  0
 15 38  1  0  0  0  0
 16 17  1  0  0  0  0
 16 39  1  0  0  0  0
 16 40  1  0  0  0  0
 17 18  1  0  0  0  0
 17 41  1  0  0  0  0
 17 42  1  0  0  0  0
 18 43  1  0  0  0  0
 18 44  1  0  0  0  0
 19 20  1  0  0  0  0
M  CHG  1  11   1
M  END
> <s_m_source_file>
AV-unprocessed.smi

> <i_m_source_file_index>
352

> <i_lp_mmshare_version>
43012

> <i_f3d_flags>
0

> <s_epik_input>
W0NIM11jMVtjSF1jKG5vMSlbTkhdQyg9TylbTkhdW0NIMl1DMihOKFtDSDNdKVtDSDNdKVtDSDJdW0NIMl1bQ0gyXVtDSDJdW0NIMl0y

> <s_epik_cmdline>
J2VwaWtfcHl0aG9uJywgJy1waCcsICc3LjAnLCAnLXRuJywgJzgnLCAnLW1hJywgJzIwMCcsICctbWV0YWxfYmluZGluZycsICctaW1hZScsICc8aW5maWxlLm1hZT4nLCAnLW9tYWUnLCAnPG91dGZpbGUubWFlPic=

> <r_epik_Ionization_Penalty>
0.00254175

> <r_epik_Ionization_Penalty_Charging>
0.00251809

> <r_epik_Ionization_Penalty_Neutral>
2.36624e-05

> <r_epik_State_Penalty>
0.00174714

> <r_epik_Charging_Adjusted_Penalty>
0.00426523

> <i_epik_Tot_Q>
1

> <i_epik_Tot_abs_Q>
1

> <r_epik_Metal_State_Penalty>
-0

> <b_epik_Metal_Only>
0

> <s_lp_Force_Field>
OPLS_2005

> <r_lp_Energy>
33.762

> <b_lp_Chiralities_Consistent>
1

> <s_lp_Variant>
AV-unprocessed.smi:352-1

> <Gold.Version>
5.8.1

> <Gold.Id.Protein>
6NUR|6NUR_protein|mol2

> <Gold.PLP.Fitness>
37.4167

> <Gold.PLP.PLP>
-26.2285

> <Gold.PLP.part.hbond>
-3.0000

> <Gold.PLP.part.metal>
0.0000

> <Gold.PLP.part.buried>
-2.2769

> <Gold.PLP.part.nonpolar>
-22.4717

> <Gold.PLP.part.repulsive>
0.3886

> <Gold.PLP.ligand.clash>
0.0000

> <Gold.PLP.ligand.torsion>
0.3757

> <Gold.PLP.Chemscore.Hbond>
3.9440

> <Gold.PLP.Chemscore.CHOScore>
0.0000

> <Gold.PLP.Chemscore.Metal>
0.0000

> <Gold.Chemscore.Hbonds>
donor molecule, donor type, donor heavy atom, donor atom, acceptor molecule, acceptor atom, score
      L1  H     5    25       P1  7948  1.00
      L1  H     8    26       P1  7948  1.00
      L1  H    11    45       P1  7948  0.68

> <Gold.PLP.Chemscore.Internal.Correction>
0.1076

> <Gold.Rescore>
     Score         DG    S(hbond)    S(metal)    S(lipo)     H(rot)  DE(clash)    DE(int)     intcor
     15.03     -18.34       2.61        0.00      69.24       1.55       1.54       1.77       ----

> <Gold.Chemscore.Fitness>
15.0335

> <Gold.Chemscore.DG>
-18.3445

> <Gold.Chemscore.ZeroCoef>
-5.4800

> <Gold.Chemscore.Hbond>
2.6115

> <Gold.Chemscore.Metal>
0.0000

> <Gold.Chemscore.Lipo>
69.2382

> <Gold.Chemscore.Internal_Hbond>
0.0000

> <Gold.Chemscore.DEClash>
1.5402

> <Gold.Chemscore.DEInternal>
1.7707

> <Gold.Chemscore.Rot>
1.5464

> <Gold.Chemscore.Internal.Correction>
   9.000000E+99

> <Gold.Chemscore.Hbonds>
donor molecule, donor type, donor heavy atom, donor atom, acceptor molecule, acceptor atom, score
      L1  H     5    25       P1  7948  0.97
      L1  H     8    26       P1  7948  0.99
      L1  H    11    45       P1  7948  0.21

> <Gold.Chemscore.Hbond.Weighted>
-8.7224

> <Gold.Chemscore.Metal.Weighted>
-0.0000

> <Gold.Chemscore.Lipo.Weighted>
-8.1009

> <Gold.Chemscore.Internal_Hbond.Weighted>
0.0000

> <Gold.Chemscore.DEClash.Weighted>
1.5402

> <Gold.Chemscore.DEInternal.Weighted>
1.7707

> <Gold.Chemscore.Rot.Weighted>
3.9588

> <Gold.Chemscore.Internal.Correction.Weighted>
   9.000000E+99

> <Gold.Protein.RotatedTorsions>
[ 6907 6896 6895 6894 ] final   54.48 input  -60.11 | X-H torsion
[ 7974 7965 7964 7962 ] final   45.88 input  175.53 | X-H torsion
[ 8008 7997 7996 7995 ] final  -37.91 input   59.86 | X-H torsion
[ 10167 10162 10161 10158 ] final -102.60 input  -65.29 | X-H torsion
[ 10718 10713 10712 10709 ] final  135.07 input   66.30 | X-H torsion
[ 10763 10752 10751 10750 ] final -135.17 input  -60.55 | X-H torsion
[ 11005 11000 10999 10996 ] final   98.37 input  -57.11 | X-H torsion

> <Gold.Protein.ActiveResidues>
 VAL166  LYS551  ARG553  GLY616  TRP617  ASP618  TYR619  PRO620  LYS621  CYS622 
 ASP623  PHE694  ASN695  SER759  ASP760  ASP761  ALA762  ILE779  LEU786  VAL792 
 PHE793  MET794  SER795  GLU796  ALA797  LYS798  CYS799  TRP800  GLU811  SER814 

> <Gold.Protein.RotatedAtoms>
  152.3443  134.7092  160.0254 H   0  0  0  0  0  0  0  0  0  0  0  0  # atno 6907 bound_to 6896
  151.7466  133.3319  159.3388 H   0  0  0  0  0  0  0  0  0  0  0  0  # atno 6908 bound_to 6896
  150.7499  134.6162  159.6157 H   0  0  0  0  0  0  0  0  0  0  0  0  # atno 6909 bound_to 6896
  146.0440  139.4916  142.9760 H   0  0  0  0  0  0  0  0  0  0  0  0  # atno 7974 bound_to 7965
  154.4045  140.1592  156.2614 H   0  0  0  0  0  0  0  0  0  0  0  0  # atno 8008 bound_to 7997
  155.9033  140.3432  155.6021 H   0  0  0  0  0  0  0  0  0  0  0  0  # atno 8009 bound_to 7997
  155.7422  140.0794  157.2231 H   0  0  0  0  0  0  0  0  0  0  0  0  # atno 8010 bound_to 7997
  140.2289  143.3621  152.0904 H   0  0  0  0  0  0  0  0  0  0  0  0  # atno 10167 bound_to 10162
  157.4608  131.1073  150.9922 H   0  0  0  0  0  0  0  0  0  0  0  0  # atno 10718 bound_to 10713
  154.8707  135.3712  154.4854 H   0  0  0  0  0  0  0  0  0  0  0  0  # atno 10763 bound_to 10752
  153.5504  135.7025  153.5599 H   0  0  0  0  0  0  0  0  0  0  0  0  # atno 10764 bound_to 10752
  153.3720  135.4019  155.1759 H   0  0  0  0  0  0  0  0  0  0  0  0  # atno 10765 bound_to 10752
  139.8772  134.9046  156.4446 H   0  0  0  0  0  0  0  0  0  0  0  0  # atno 11005 bound_to 11000
  145.6836  141.0184  143.1593 LP  0  0  0  0  0  0  0  0  0  0  0  0  # atno 17320 bound_to 7965
  144.7089  139.8450  143.7421 LP  0  0  0  0  0  0  0  0  0  0  0  0  # atno 17321 bound_to 7965
  139.5117  144.6905  151.5773 LP  0  0  0  0  0  0  0  0  0  0  0  0  # atno 17342 bound_to 10162
  140.6200  143.9277  150.6518 LP  0  0  0  0  0  0  0  0  0  0  0  0  # atno 17343 bound_to 10162
  157.0720  130.5868  149.5404 LP  0  0  0  0  0  0  0  0  0  0  0  0  # atno 17370 bound_to 10713
  156.0028  130.5110  150.7723 LP  0  0  0  0  0  0  0  0  0  0  0  0  # atno 17371 bound_to 10713
  140.8975  133.7803  155.9642 LP  0  0  0  0  0  0  0  0  0  0  0  0  # atno 17394 bound_to 11000
  140.8687  134.2753  157.5201 LP  0  0  0  0  0  0  0  0  0  0  0  0  # atno 17395 bound_to 11000

$$$$
