AV-unprocessed.smi:3067|AV-procd|sdf|11697|dock10
  -GOLD-   2272017103D 1   1.00000     0.00000
 Structure written by MMmdl.
 34 35  0  0  0  0  0  0  0  0  1 V2000
  145.6239  129.2804  152.2941 C   0  0  0  0  0  0  0  0  0  0  0  0
  146.2168  130.5449  152.5456 O   0  0  0  0  0  0  0  0  0  0  0  0
  145.9366  131.5311  151.5581 C   0  0  1  0  0  0  0  0  0  0  0  0
  144.4084  131.7178  151.4390 C   0  0  0  0  0  0  0  0  0  0  0  0
  144.0479  132.8783  150.5003 C   0  0  0  0  0  0  0  0  0  0  0  0
  144.7244  134.1800  150.9503 C   0  0  0  0  0  0  0  0  0  0  0  0
  146.2456  134.0006  151.0526 C   0  0  0  0  0  0  0  0  0  0  0  0
  146.6202  132.8431  152.0037 C   0  0  2  0  0  0  0  0  0  0  0  0
  148.0673  132.6663  152.0505 N   0  0  0  0  0  0  0  0  0  0  0  0
  148.7823  132.6178  153.2572 C   0  0  0  0  0  0  0  0  0  0  0  0
  149.2015  131.4171  153.8766 C   0  0  0  0  0  0  0  0  0  0  0  0
  149.9186  131.4855  155.0865 C   0  0  0  0  0  0  0  0  0  0  0  0
  150.1956  132.7532  155.6393 C   0  0  0  0  0  0  0  0  0  0  0  0
  150.9361  132.8453  156.8859 C   0  0  0  0  0  0  0  0  0  0  0  0
  151.5256  132.9192  157.8791 N   0  0  0  0  0  0  0  0  0  0  0  0
  149.8000  133.9053  155.0563 N   0  0  0  0  0  0  0  0  0  0  0  0
  149.1126  133.8312  153.8969 C   0  0  0  0  0  0  0  0  0  0  0  0
  145.9142  128.5828  153.0794 H   0  0  0  0  0  0  0  0  0  0  0  0
  145.9610  128.8692  151.3420 H   0  0  0  0  0  0  0  0  0  0  0  0
  144.5356  129.3352  152.2864 H   0  0  0  0  0  0  0  0  0  0  0  0
  146.3478  131.2306  150.5920 H   0  0  0  0  0  0  0  0  0  0  0  0
  143.9365  130.8058  151.0747 H   0  0  0  0  0  0  0  0  0  0  0  0
  143.9874  131.9090  152.4269 H   0  0  0  0  0  0  0  0  0  0  0  0
  144.3568  132.6365  149.4825 H   0  0  0  0  0  0  0  0  0  0  0  0
  142.9661  133.0119  150.4728 H   0  0  0  0  0  0  0  0  0  0  0  0
  144.4905  134.9819  150.2496 H   0  0  0  0  0  0  0  0  0  0  0  0
  144.3254  134.4866  151.9180 H   0  0  0  0  0  0  0  0  0  0  0  0
  146.6529  133.8069  150.0592 H   0  0  0  0  0  0  0  0  0  0  0  0
  146.6955  134.9351  151.3881 H   0  0  0  0  0  0  0  0  0  0  0  0
  146.2587  133.0744  153.0061 H   0  0  0  0  0  0  0  0  0  0  0  0
  148.5489  132.4670  151.1853 H   0  0  0  0  0  0  0  0  0  0  0  0
  148.9867  130.4493  153.4496 H   0  0  0  0  0  0  0  0  0  0  0  0
  150.2475  130.5798  155.5755 H   0  0  0  0  0  0  0  0  0  0  0  0
  148.8174  134.7765  153.4650 H   0  0  0  0  0  0  0  0  0  0  0  0
  1  2  1  0  0  0  0
  1 18  1  0  0  0  0
  1 19  1  0  0  0  0
  1 20  1  0  0  0  0
  2  3  1  0  0  0  0
  3  8  1  0  0  0  0
  3  4  1  0  0  0  0
  3 21  1  0  0  0  0
  4  5  1  0  0  0  0
  4 22  1  0  0  0  0
  4 23  1  0  0  0  0
  5  6  1  0  0  0  0
  5 24  1  0  0  0  0
  5 25  1  0  0  0  0
  6  7  1  0  0  0  0
  6 26  1  0  0  0  0
  6 27  1  0  0  0  0
  7  8  1  0  0  0  0
  7 28  1  0  0  0  0
  7 29  1  0  0  0  0
  8  9  1  0  0  0  0
  8 30  1  0  0  0  0
  9 10  1  0  0  0  0
  9 31  1  0  0  0  0
 10 17  1  0  0  0  0
 10 11  2  0  0  0  0
 11 12  1  0  0  0  0
 11 32  1  0  0  0  0
 12 13  2  0  0  0  0
 12 33  1  0  0  0  0
 13 14  1  0  0  0  0
 13 16  1  0  0  0  0
 14 15  3  0  0  0  0
 16 17  2  0  0  0  0
 17 34  1  0  0  0  0
M  END
> <s_m_source_file>
AV-unprocessed.smi

> <i_m_source_file_index>
3067

> <i_lp_mmshare_version>
43012

> <i_f3d_flags>
0

> <s_epik_input>
W0NIM11PW0NAQEhdMVtDSDJdW0NIMl1bQ0gyXVtDSDJdW0NASF0xW05IXWMyW2NIXVtjSF1jKEMjTiluW2NIXTI=

> <s_epik_cmdline>
J2VwaWtfcHl0aG9uJywgJy1waCcsICc3LjAnLCAnLXRuJywgJzgnLCAnLW1hJywgJzIwMCcsICctbWV0YWxfYmluZGluZycsICctaW1hZScsICc8aW5maWxlLm1hZT4nLCAnLW9tYWUnLCAnPG91dGZpbGUubWFlPic=

> <r_lp_tautomer_probability>
1

> <r_epik_Ionization_Penalty>
2.01011e-07

> <r_epik_Ionization_Penalty_Charging>
0

> <r_epik_Ionization_Penalty_Neutral>
2.01011e-07

> <r_epik_State_Penalty>
-0

> <r_epik_Charging_Adjusted_Penalty>
0

> <i_epik_Tot_Q>
0

> <i_epik_Tot_abs_Q>
0

> <r_epik_Metal_State_Penalty>
-0

> <b_epik_Metal_Only>
0

> <s_lp_Force_Field>
OPLS_2005

> <r_lp_Energy>
16.9027

> <b_lp_Chiralities_Consistent>
1

> <s_lp_Variant>
AV-unprocessed.smi:3067-4

> <Gold.Version>
5.8.1

> <Gold.Id.Protein>
6NUR|6NUR_protein|mol2

> <Gold.PLP.Fitness>
41.7600

> <Gold.PLP.PLP>
-35.5263

> <Gold.PLP.part.hbond>
-2.0000

> <Gold.PLP.part.metal>
0.0000

> <Gold.PLP.part.buried>
-6.1107

> <Gold.PLP.part.nonpolar>
-28.2422

> <Gold.PLP.part.repulsive>
0.2607

> <Gold.PLP.ligand.clash>
0.0000

> <Gold.PLP.ligand.torsion>
0.8211

> <Gold.PLP.Chemscore.Hbond>
1.6240

> <Gold.PLP.Chemscore.CHOScore>
1.0000

> <Gold.PLP.Chemscore.Metal>
0.0000

> <Gold.Chemscore.Hbonds>
donor molecule, donor type, donor heavy atom, donor atom, acceptor molecule, acceptor atom, score
      L1  H     9    31       P1 10747  0.69
      P1  H  6896  6907       L1    15  0.66
      L1  C    17    34       P1  7948  1.00

> <Gold.PLP.Chemscore.Internal.Correction>
0.0039

> <Gold.Rescore>
     Score         DG    S(hbond)    S(metal)    S(lipo)     H(rot)  DE(clash)    DE(int)     intcor
     17.48     -18.24       1.93        0.00      80.29       1.20       0.00       0.76       ----

> <Gold.Chemscore.Fitness>
17.4770

> <Gold.Chemscore.DG>
-18.2351

> <Gold.Chemscore.ZeroCoef>
-5.4800

> <Gold.Chemscore.Hbond>
1.9269

> <Gold.Chemscore.Metal>
0.0000

> <Gold.Chemscore.Lipo>
80.2930

> <Gold.Chemscore.Internal_Hbond>
0.0000

> <Gold.Chemscore.DEClash>
0.0015

> <Gold.Chemscore.DEInternal>
0.7565

> <Gold.Chemscore.Rot>
1.2012

> <Gold.Chemscore.Internal.Correction>
   9.000000E+99

> <Gold.Chemscore.Hbonds>
donor molecule, donor type, donor heavy atom, donor atom, acceptor molecule, acceptor atom, score
      L1  H     9    31       P1 10747  0.68
      P1  H  6896  6907       L1    15  0.64

> <Gold.Chemscore.Hbond.Weighted>
-6.4357

> <Gold.Chemscore.Metal.Weighted>
-0.0000

> <Gold.Chemscore.Lipo.Weighted>
-9.3943

> <Gold.Chemscore.Internal_Hbond.Weighted>
0.0000

> <Gold.Chemscore.DEClash.Weighted>
0.0015

> <Gold.Chemscore.DEInternal.Weighted>
0.7565

> <Gold.Chemscore.Rot.Weighted>
3.0750

> <Gold.Chemscore.Internal.Correction.Weighted>
   9.000000E+99

> <Gold.Protein.RotatedTorsions>
[ 6907 6896 6895 6894 ] final  173.88 input  -60.11 | X-H torsion
[ 7974 7965 7964 7962 ] final -171.58 input  175.53 | X-H torsion
[ 8008 7997 7996 7995 ] final  160.24 input   59.86 | X-H torsion
[ 10167 10162 10161 10158 ] final  166.42 input  -65.29 | X-H torsion
[ 10718 10713 10712 10709 ] final   52.33 input   66.30 | X-H torsion
[ 10763 10752 10751 10750 ] final  -93.23 input  -60.55 | X-H torsion
[ 11005 11000 10999 10996 ] final  102.72 input  -57.11 | X-H torsion

> <Gold.Protein.ActiveResidues>
 VAL166  LYS551  ARG553  GLY616  TRP617  ASP618  TYR619  PRO620  LYS621  CYS622 
 ASP623  PHE694  ASN695  SER759  ASP760  ASP761  ALA762  ILE779  LEU786  VAL792 
 PHE793  MET794  SER795  GLU796  ALA797  LYS798  CYS799  TRP800  GLU811  SER814 

> <Gold.Protein.RotatedAtoms>
  151.7612  133.3334  159.3418 H   0  0  0  0  0  0  0  0  0  0  0  0  # atno 6907 bound_to 6896
  150.7497  134.6104  159.6092 H   0  0  0  0  0  0  0  0  0  0  0  0  # atno 6908 bound_to 6896
  152.3404  134.7144  160.0317 H   0  0  0  0  0  0  0  0  0  0  0  0  # atno 6909 bound_to 6896
  144.7155  140.1900  143.6349 H   0  0  0  0  0  0  0  0  0  0  0  0  # atno 7974 bound_to 7965
  156.2186  140.1809  156.7531 H   0  0  0  0  0  0  0  0  0  0  0  0  # atno 8008 bound_to 7997
  154.5829  140.0663  156.9159 H   0  0  0  0  0  0  0  0  0  0  0  0  # atno 8009 bound_to 7997
  155.2470  140.3326  155.4288 H   0  0  0  0  0  0  0  0  0  0  0  0  # atno 8010 bound_to 7997
  139.4924  144.4029  151.9389 H   0  0  0  0  0  0  0  0  0  0  0  0  # atno 10167 bound_to 10162
  157.5064  130.8472  149.8380 H   0  0  0  0  0  0  0  0  0  0  0  0  # atno 10718 bound_to 10713
  154.6939  135.5202  153.8431 H   0  0  0  0  0  0  0  0  0  0  0  0  # atno 10763 bound_to 10752
  153.0652  135.6582  154.0379 H   0  0  0  0  0  0  0  0  0  0  0  0  # atno 10764 bound_to 10752
  154.0249  135.2990  155.3356 H   0  0  0  0  0  0  0  0  0  0  0  0  # atno 10765 bound_to 10752
  139.8779  134.9235  156.5101 H   0  0  0  0  0  0  0  0  0  0  0  0  # atno 11005 bound_to 11000
  145.8777  139.2306  143.1624 LP  0  0  0  0  0  0  0  0  0  0  0  0  # atno 17320 bound_to 7965
  146.0025  140.8508  143.0011 LP  0  0  0  0  0  0  0  0  0  0  0  0  # atno 17321 bound_to 7965
  140.3469  144.3136  150.5956 LP  0  0  0  0  0  0  0  0  0  0  0  0  # atno 17342 bound_to 10162
  140.5519  143.2205  151.7913 LP  0  0  0  0  0  0  0  0  0  0  0  0  # atno 17343 bound_to 10162
  156.0261  130.3779  150.1819 LP  0  0  0  0  0  0  0  0  0  0  0  0  # atno 17370 bound_to 10713
  157.0009  130.9922  151.3391 LP  0  0  0  0  0  0  0  0  0  0  0  0  # atno 17371 bound_to 10713
  140.8526  133.8120  155.9184 LP  0  0  0  0  0  0  0  0  0  0  0  0  # atno 17394 bound_to 11000
  140.9129  134.2238  157.4975 LP  0  0  0  0  0  0  0  0  0  0  0  0  # atno 17395 bound_to 11000

$$$$
