AV-unprocessed.smi:3018|AV-procd|sdf|11483|dock5
  -GOLD-   2272016423D 1   1.00000     0.00000
 Structure written by MMmdl.
 44 45  0  0  0  0  0  0  0  0  2 V2000
  152.2177  139.1088  155.0393 C   0  0  0  0  0  0  0  0  0  0  0  0
  152.3064  139.6122  156.4854 C   0  0  0  0  0  0  0  0  0  0  0  0
  150.9411  140.0458  157.0497 C   0  0  2  0  0  0  0  0  0  0  0  0
  151.1681  140.6595  158.3178 O   0  0  0  0  0  0  0  0  0  0  0  0
  151.8474  141.9130  158.3127 C   0  0  0  0  0  0  0  0  0  0  0  0
  152.0349  142.4329  159.7528 C   0  0  0  0  0  0  0  0  0  0  0  0
  152.6388  143.8470  159.7612 C   0  0  0  0  0  0  0  0  0  0  0  0
  151.7912  144.8225  158.9288 C   0  0  0  0  0  0  0  0  0  0  0  0
  151.5960  144.3056  157.4947 C   0  0  0  0  0  0  0  0  0  0  0  0
  150.9906  142.8928  157.4925 C   0  0  0  0  0  0  0  0  0  0  0  0
  150.0082  138.8365  157.2148 C   0  0  0  0  0  0  0  0  0  0  0  0
  148.9369  138.7954  156.6096 O   0  0  0  0  0  0  0  0  0  0  0  0
  150.4363  137.8625  158.0334 N   0  0  0  0  0  0  0  0  0  0  0  0
  149.6942  136.6507  158.3744 C   0  0  0  0  0  0  0  0  0  0  0  0
  148.3315  136.9650  159.0255 C   0  0  0  0  0  0  0  0  0  0  0  0
  148.1408  136.2641  160.3460 C   0  0  0  0  0  0  0  0  0  0  0  0
  148.2076  135.0008  160.5475 N   0  0  0  0  0  0  0  0  0  0  0  0
  147.9931  134.8946  161.8689 N   0  0  0  0  0  0  0  0  0  0  0  0
  147.7976  136.0866  162.4376 C   0  0  0  0  0  0  0  0  0  0  0  0
  147.5822  136.2396  163.6379 O   0  0  0  0  0  0  0  0  0  0  0  0
  147.8844  137.0035  161.4577 N   0  5  0  0  0  0  0  0  0  0  0  0
  147.9951  133.9887  162.3138 H   0  0  0  0  0  0  0  0  0  0  0  0
  153.1973  138.7958  154.6772 H   0  0  0  0  0  0  0  0  0  0  0  0
  151.8499  139.8882  154.3714 H   0  0  0  0  0  0  0  0  0  0  0  0
  151.5450  138.2545  154.9602 H   0  0  0  0  0  0  0  0  0  0  0  0
  152.7246  138.8175  157.1055 H   0  0  0  0  0  0  0  0  0  0  0  0
  153.0127  140.4423  156.5354 H   0  0  0  0  0  0  0  0  0  0  0  0
  150.4922  140.7591  156.3570 H   0  0  0  0  0  0  0  0  0  0  0  0
  152.8206  141.8312  157.8274 H   0  0  0  0  0  0  0  0  0  0  0  0
  151.0726  142.4446  160.2662 H   0  0  0  0  0  0  0  0  0  0  0  0
  152.6799  141.7644  160.3222 H   0  0  0  0  0  0  0  0  0  0  0  0
  152.7223  144.2098  160.7861 H   0  0  0  0  0  0  0  0  0  0  0  0
  153.6533  143.8125  159.3620 H   0  0  0  0  0  0  0  0  0  0  0  0
  150.8185  144.9571  159.4039 H   0  0  0  0  0  0  0  0  0  0  0  0
  152.2645  145.8046  158.9095 H   0  0  0  0  0  0  0  0  0  0  0  0
  150.9518  144.9870  156.9384 H   0  0  0  0  0  0  0  0  0  0  0  0
  152.5550  144.2933  156.9753 H   0  0  0  0  0  0  0  0  0  0  0  0
  150.8959  142.5322  156.4678 H   0  0  0  0  0  0  0  0  0  0  0  0
  149.9800  142.9295  157.9016 H   0  0  0  0  0  0  0  0  0  0  0  0
  151.3325  137.9851  158.4813 H   0  0  0  0  0  0  0  0  0  0  0  0
  149.5691  135.9973  157.5087 H   0  0  0  0  0  0  0  0  0  0  0  0
  150.3040  136.0911  159.0836 H   0  0  0  0  0  0  0  0  0  0  0  0
  148.2478  138.0425  159.1739 H   0  0  0  0  0  0  0  0  0  0  0  0
  147.5236  136.6969  158.3436 H   0  0  0  0  0  0  0  0  0  0  0  0
  1  2  1  0  0  0  0
  1 23  1  0  0  0  0
  1 24  1  0  0  0  0
  1 25  1  0  0  0  0
  2  3  1  0  0  0  0
  2 26  1  0  0  0  0
  2 27  1  0  0  0  0
  3  4  1  0  0  0  0
  3 11  1  0  0  0  0
  3 28  1  0  0  0  0
  4  5  1  0  0  0  0
  5 10  1  0  0  0  0
  5  6  1  0  0  0  0
  5 29  1  0  0  0  0
  6  7  1  0  0  0  0
  6 30  1  0  0  0  0
  6 31  1  0  0  0  0
  7  8  1  0  0  0  0
  7 32  1  0  0  0  0
  7 33  1  0  0  0  0
  8  9  1  0  0  0  0
  8 34  1  0  0  0  0
  8 35  1  0  0  0  0
  9 10  1  0  0  0  0
  9 36  1  0  0  0  0
  9 37  1  0  0  0  0
 10 38  1  0  0  0  0
 10 39  1  0  0  0  0
 11 12  2  0  0  0  0
 11 13  1  0  0  0  0
 13 14  1  0  0  0  0
 13 40  1  0  0  0  0
 14 15  1  0  0  0  0
 14 41  1  0  0  0  0
 14 42  1  0  0  0  0
 15 16  1  0  0  0  0
 15 43  1  0  0  0  0
 15 44  1  0  0  0  0
 16 21  1  0  0  0  0
 16 17  2  0  0  0  0
 17 18  1  0  0  0  0
 18 22  1  0  0  0  0
 18 19  1  0  0  0  0
 19 20  2  0  0  0  0
 19 21  1  0  0  0  0
M  CHG  1  21  -1
M  END
> <s_m_source_file>
AV-unprocessed.smi

> <i_m_source_file_index>
3018

> <i_lp_mmshare_version>
43012

> <i_f3d_flags>
0

> <s_epik_input>
W0NIMl0xW0NIMl1bQ0gyXVtDSDJdW0NIMl1bQ0hdMU9bQ0BASF0oW0NIMl1bQ0gzXSlDKD1PKVtOSF1bQ0gyXVtDSDJdYzJuW25IXWMoPU8pW25IXTI=

> <s_epik_cmdline>
J2VwaWtfcHl0aG9uJywgJy1waCcsICc3LjAnLCAnLXRuJywgJzgnLCAnLW1hJywgJzIwMCcsICctbWV0YWxfYmluZGluZycsICctaW1hZScsICc8aW5maWxlLm1hZT4nLCAnLW9tYWUnLCAnPG91dGZpbGUubWFlPic=

> <r_lp_tautomer_probability>
1

> <r_epik_Ionization_Penalty>
13.7173

> <r_epik_Ionization_Penalty_Charging>
13.7173

> <r_epik_Ionization_Penalty_Neutral>
5.37575e-06

> <r_epik_State_Penalty>
4.05785

> <r_epik_Charging_Adjusted_Penalty>
17.7751

> <i_epik_Tot_Q>
-1

> <i_epik_Tot_abs_Q>
1

> <r_epik_Metal_State_Penalty>
0.460256

> <b_epik_Metal_Only>
1

> <s_lp_Force_Field>
OPLS_2005

> <r_lp_Energy>
25.0633

> <b_lp_Chiralities_Consistent>
1

> <s_lp_Variant>
AV-unprocessed.smi:3018-5

> <Gold.Version>
5.8.1

> <Gold.Id.Protein>
6NUR|6NUR_protein|mol2

> <Gold.PLP.Fitness>
48.0197

> <Gold.PLP.PLP>
-38.1497

> <Gold.PLP.part.hbond>
-2.0000

> <Gold.PLP.part.metal>
0.0000

> <Gold.PLP.part.buried>
-2.5530

> <Gold.PLP.part.nonpolar>
-33.5574

> <Gold.PLP.part.repulsive>
0.2289

> <Gold.PLP.ligand.clash>
0.0000

> <Gold.PLP.ligand.torsion>
0.4436

> <Gold.PLP.Chemscore.Hbond>
3.5680

> <Gold.PLP.Chemscore.CHOScore>
0.0000

> <Gold.PLP.Chemscore.Metal>
0.0000

> <Gold.Chemscore.Hbonds>
donor molecule, donor type, donor heavy atom, donor atom, acceptor molecule, acceptor atom, score
      P1  H  6931  6943       L1    21  2.00
      P1  H  6934  6947       L1    21  0.86

> <Gold.PLP.Chemscore.Internal.Correction>
0.0533

> <Gold.Rescore>
     Score         DG    S(hbond)    S(metal)    S(lipo)     H(rot)  DE(clash)    DE(int)     intcor
     12.30     -12.77       1.21        0.00      92.83       2.98       0.02       0.44       ----

> <Gold.Chemscore.Fitness>
12.3033

> <Gold.Chemscore.DG>
-12.7701

> <Gold.Chemscore.ZeroCoef>
-5.4800

> <Gold.Chemscore.Hbond>
1.2128

> <Gold.Chemscore.Metal>
0.0000

> <Gold.Chemscore.Lipo>
92.8271

> <Gold.Chemscore.Internal_Hbond>
0.0000

> <Gold.Chemscore.DEClash>
0.0234

> <Gold.Chemscore.DEInternal>
0.4434

> <Gold.Chemscore.Rot>
2.9772

> <Gold.Chemscore.Internal.Correction>
   9.000000E+99

> <Gold.Chemscore.Hbonds>
donor molecule, donor type, donor heavy atom, donor atom, acceptor molecule, acceptor atom, score
      P1  H  6931  6943       L1    21  0.71
      P1  H  6934  6947       L1    21  0.35

> <Gold.Chemscore.Hbond.Weighted>
-4.0509

> <Gold.Chemscore.Metal.Weighted>
-0.0000

> <Gold.Chemscore.Lipo.Weighted>
-10.8608

> <Gold.Chemscore.Internal_Hbond.Weighted>
0.0000

> <Gold.Chemscore.DEClash.Weighted>
0.0234

> <Gold.Chemscore.DEInternal.Weighted>
0.4434

> <Gold.Chemscore.Rot.Weighted>
7.6216

> <Gold.Chemscore.Internal.Correction.Weighted>
   9.000000E+99

> <Gold.Protein.RotatedTorsions>
[ 6907 6896 6895 6894 ] final -101.08 input  -60.11 | X-H torsion
[ 7974 7965 7964 7962 ] final   97.52 input  175.53 | X-H torsion
[ 8008 7997 7996 7995 ] final   85.77 input   59.86 | X-H torsion
[ 10167 10162 10161 10158 ] final -105.72 input  -65.29 | X-H torsion
[ 10718 10713 10712 10709 ] final    5.54 input   66.30 | X-H torsion
[ 10763 10752 10751 10750 ] final  134.95 input  -60.55 | X-H torsion
[ 11005 11000 10999 10996 ] final  149.81 input  -57.11 | X-H torsion

> <Gold.Protein.ActiveResidues>
 VAL166  LYS551  ARG553  GLY616  TRP617  ASP618  TYR619  PRO620  LYS621  CYS622 
 ASP623  PHE694  ASN695  SER759  ASP760  ASP761  ALA762  ILE779  LEU786  VAL792 
 PHE793  MET794  SER795  GLU796  ALA797  LYS798  CYS799  TRP800  GLU811  SER814 

> <Gold.Protein.RotatedAtoms>
  150.7141  134.0788  159.3890 H   0  0  0  0  0  0  0  0  0  0  0  0  # atno 6907 bound_to 6896
  151.8772  135.0465  160.0494 H   0  0  0  0  0  0  0  0  0  0  0  0  # atno 6908 bound_to 6896
  152.2597  133.5250  159.5410 H   0  0  0  0  0  0  0  0  0  0  0  0  # atno 6909 bound_to 6896
  145.4244  139.2317  143.3178 H   0  0  0  0  0  0  0  0  0  0  0  0  # atno 7974 bound_to 7965
  155.9543  140.3398  155.6435 H   0  0  0  0  0  0  0  0  0  0  0  0  # atno 8008 bound_to 7997
  155.6880  140.0745  157.2477 H   0  0  0  0  0  0  0  0  0  0  0  0  # atno 8009 bound_to 7997
  154.4129  140.1662  156.2042 H   0  0  0  0  0  0  0  0  0  0  0  0  # atno 8010 bound_to 7997
  140.1955  143.3859  152.1172 H   0  0  0  0  0  0  0  0  0  0  0  0  # atno 10167 bound_to 10162
  156.9089  130.5749  149.5647 H   0  0  0  0  0  0  0  0  0  0  0  0  # atno 10718 bound_to 10713
  153.8320  135.3102  155.3419 H   0  0  0  0  0  0  0  0  0  0  0  0  # atno 10763 bound_to 10752
  154.7969  135.4750  154.0186 H   0  0  0  0  0  0  0  0  0  0  0  0  # atno 10764 bound_to 10752
  153.1628  135.6864  153.8808 H   0  0  0  0  0  0  0  0  0  0  0  0  # atno 10765 bound_to 10752
  140.1077  134.8944  157.1890 H   0  0  0  0  0  0  0  0  0  0  0  0  # atno 11005 bound_to 11000
  146.2640  140.4973  142.8842 LP  0  0  0  0  0  0  0  0  0  0  0  0  # atno 17320 bound_to 7965
  144.8224  140.6572  143.6344 LP  0  0  0  0  0  0  0  0  0  0  0  0  # atno 17321 bound_to 7965
  139.5238  144.7076  151.5305 LP  0  0  0  0  0  0  0  0  0  0  0  0  # atno 17342 bound_to 10162
  140.6427  143.8857  150.6707 LP  0  0  0  0  0  0  0  0  0  0  0  0  # atno 17343 bound_to 10162
  156.0546  130.5609  150.9063 LP  0  0  0  0  0  0  0  0  0  0  0  0  # atno 17370 bound_to 10713
  157.5980  131.0942  150.9008 LP  0  0  0  0  0  0  0  0  0  0  0  0  # atno 17371 bound_to 10713
  140.3133  134.2999  155.7262 LP  0  0  0  0  0  0  0  0  0  0  0  0  # atno 17394 bound_to 11000
  141.2122  133.7664  156.9808 LP  0  0  0  0  0  0  0  0  0  0  0  0  # atno 17395 bound_to 11000

$$$$
