AV-unprocessed.smi:157|AV-procd|sdf|1299|dock10
  -GOLD-   2262018583D 1   1.00000     0.00000
 Structure written by MMmdl.
 35 37  0  0  0  0  0  0  0  0  1 V2000
  150.8343  135.6217  155.6648 O   0  0  0  0  0  0  0  0  0  0  0  0
  150.4326  136.7498  156.4127 C   0  0  0  0  0  0  0  0  0  0  0  0
  150.0985  137.9192  155.4609 C   0  0  1  0  0  0  0  0  0  0  0  0
  149.9794  139.1035  156.2557 O   0  0  0  0  0  0  0  0  0  0  0  0
  151.0706  139.9553  156.0559 C   0  0  1  0  0  0  0  0  0  0  0  0
  151.6253  140.3649  157.3849 N   0  0  0  0  0  0  0  0  0  0  0  0
  152.0890  139.5537  158.3455 C   0  0  0  0  0  0  0  0  0  0  0  0
  152.5377  140.1773  159.4216 N   0  0  0  0  0  0  0  0  0  0  0  0
  152.3409  141.5269  159.1350 C   0  0  0  0  0  0  0  0  0  0  0  0
  151.7720  141.6649  157.8771 C   0  0  0  0  0  0  0  0  0  0  0  0
  151.3718  142.7169  157.0754 N   0  0  0  0  0  0  0  0  0  0  0  0
  151.1734  143.8678  157.6370 C   0  0  0  0  0  0  0  0  0  0  0  0
  151.3890  144.2747  158.9461 N   0  0  0  0  0  0  0  0  0  0  0  0
  152.6243  144.0181  159.6666 C   0  0  0  0  0  0  0  0  0  0  0  0
  152.7711  142.5641  160.1315 C   0  0  1  0  0  0  0  0  0  0  0  0
  151.9927  142.3671  161.2940 O   0  0  0  0  0  0  0  0  0  0  0  0
  152.1100  139.1689  155.2646 C   0  0  0  0  0  0  0  0  0  0  0  0
  151.2043  138.2741  154.4505 C   0  0  1  0  0  0  0  0  0  0  0  0
  151.8979  137.1656  153.9142 O   0  0  0  0  0  0  0  0  0  0  0  0
  149.1655  137.7154  154.9331 H   0  0  0  0  0  0  0  0  0  0  0  0
  150.7443  140.8748  155.5682 H   0  0  0  0  0  0  0  0  0  0  0  0
  153.8104  142.3959  160.4154 H   0  0  0  0  0  0  0  0  0  0  0  0
  150.7746  138.8494  153.6291 H   0  0  0  0  0  0  0  0  0  0  0  0
  150.0625  135.1396  155.4101 H   0  0  0  0  0  0  0  0  0  0  0  0
  149.5901  136.4964  157.0559 H   0  0  0  0  0  0  0  0  0  0  0  0
  151.2686  137.0029  157.0643 H   0  0  0  0  0  0  0  0  0  0  0  0
  152.1033  138.4776  158.2564 H   0  0  0  0  0  0  0  0  0  0  0  0
  150.7822  144.6820  157.0253 H   0  0  0  0  0  0  0  0  0  0  0  0
  150.9513  145.1276  159.2635 H   0  0  0  0  0  0  0  0  0  0  0  0
  153.4475  144.2561  158.9913 H   0  0  0  0  0  0  0  0  0  0  0  0
  152.7130  144.7054  160.5083 H   0  0  0  0  0  0  0  0  0  0  0  0
  152.4912  142.6713  162.0372 H   0  0  0  0  0  0  0  0  0  0  0  0
  152.7406  139.8294  154.6687 H   0  0  0  0  0  0  0  0  0  0  0  0
  152.7351  138.5871  155.9446 H   0  0  0  0  0  0  0  0  0  0  0  0
  151.4295  136.8581  153.1530 H   0  0  0  0  0  0  0  0  0  0  0  0
  1  2  1  0  0  0  0
  1 24  1  0  0  0  0
  2  3  1  0  0  0  0
  2 25  1  0  0  0  0
  2 26  1  0  0  0  0
  3 20  1  0  0  0  0
  3 18  1  0  0  0  0
  3  4  1  0  0  0  0
  4  5  1  0  0  0  0
  5 21  1  0  0  0  0
  5  6  1  0  0  0  0
  5 17  1  0  0  0  0
  6 10  1  0  0  0  0
  6  7  1  0  0  0  0
  7  8  2  0  0  0  0
  7 27  1  0  0  0  0
  8  9  1  0  0  0  0
  9 15  1  0  0  0  0
  9 10  2  0  0  0  0
 10 11  1  0  0  0  0
 11 12  2  0  0  0  0
 12 13  1  0  0  0  0
 12 28  1  0  0  0  0
 13 14  1  0  0  0  0
 13 29  1  0  0  0  0
 14 15  1  0  0  0  0
 14 30  1  0  0  0  0
 14 31  1  0  0  0  0
 15 22  1  0  0  0  0
 15 16  1  0  0  0  0
 16 32  1  0  0  0  0
 17 18  1  0  0  0  0
 17 33  1  0  0  0  0
 17 34  1  0  0  0  0
 18 23  1  0  0  0  0
 18 19  1  0  0  0  0
 19 35  1  0  0  0  0
M  END
> <s_m_source_file>
AV-unprocessed.smi

> <i_m_source_file_index>
157

> <i_lp_mmshare_version>
43012

> <i_f3d_flags>
0

> <s_epik_input>
W09IXVtDSDJdW0NASF0xT1tDQEhdKFtDSDJdW0NAQEhdMVtPSF0pbihbY0hdbjIpYyhjMjMpTj1bQ0hdW05IXVtDSDJdW0NASF0zW09IXQ==

> <s_epik_cmdline>
J2VwaWtfcHl0aG9uJywgJy1waCcsICc3LjAnLCAnLXRuJywgJzgnLCAnLW1hJywgJzIwMCcsICctbWV0YWxfYmluZGluZycsICctaW1hZScsICc8aW5maWxlLm1hZT4nLCAnLW9tYWUnLCAnPG91dGZpbGUubWFlPic=

> <r_lp_tautomer_probability>
1

> <r_epik_Ionization_Penalty>
0.0357149

> <r_epik_Ionization_Penalty_Charging>
0.0355056

> <r_epik_Ionization_Penalty_Neutral>
0.000209255

> <r_epik_State_Penalty>
0.0296046

> <r_epik_Charging_Adjusted_Penalty>
0.0651102

> <i_epik_Tot_Q>
0

> <i_epik_Tot_abs_Q>
0

> <r_epik_Metal_State_Penalty>
3.03559e-05

> <b_epik_Metal_Only>
0

> <s_epik_Chemistry_Notes>
This compound has an imine and may undergo hydrolysis. This compound contains an acetal/aminal-like group ( X-CH(R)-Y where X, Y are N, S, or O) that may be acid/base labile, releasing an aldehyde.

> <s_lp_Force_Field>
OPLS_2005

> <r_lp_Energy>
47.2619

> <b_lp_Chiralities_Consistent>
1

> <s_lp_Variant>
AV-unprocessed.smi:157-9

> <Gold.Version>
5.8.1

> <Gold.Id.Protein>
6NUR|6NUR_protein|mol2

> <Gold.PLP.Fitness>
42.7710

> <Gold.PLP.PLP>
-32.8773

> <Gold.PLP.part.hbond>
-3.6486

> <Gold.PLP.part.metal>
0.0000

> <Gold.PLP.part.buried>
-4.5626

> <Gold.PLP.part.nonpolar>
-26.0096

> <Gold.PLP.part.repulsive>
0.1792

> <Gold.PLP.ligand.clash>
0.0000

> <Gold.PLP.ligand.torsion>
0.0538

> <Gold.PLP.Chemscore.Hbond>
2.3290

> <Gold.PLP.Chemscore.CHOScore>
1.0000

> <Gold.PLP.Chemscore.Metal>
0.0000

> <Gold.Chemscore.Hbonds>
donor molecule, donor type, donor heavy atom, donor atom, acceptor molecule, acceptor atom, score
      L1  H    19    35       P1  7949  1.00
      P1  H  6933  6945       L1    16  0.26
      P1  H 10752 10765       L1    19  1.00
      L1  C    12    28       P1  8028  1.00

> <Gold.PLP.Chemscore.Internal.Correction>
0.0144

> <Gold.Rescore>
     Score         DG    S(hbond)    S(metal)    S(lipo)     H(rot)  DE(clash)    DE(int)     intcor
     10.09     -10.13       2.22        0.00      56.02       3.64       0.00       0.04       ----

> <Gold.Chemscore.Fitness>
10.0862

> <Gold.Chemscore.DG>
-10.1290

> <Gold.Chemscore.ZeroCoef>
-5.4800

> <Gold.Chemscore.Hbond>
2.2167

> <Gold.Chemscore.Metal>
0.0000

> <Gold.Chemscore.Lipo>
56.0181

> <Gold.Chemscore.Internal_Hbond>
0.0000

> <Gold.Chemscore.DEClash>
0.0029

> <Gold.Chemscore.DEInternal>
0.0399

> <Gold.Chemscore.Rot>
3.6362

> <Gold.Chemscore.Internal.Correction>
   9.000000E+99

> <Gold.Chemscore.Hbonds>
donor molecule, donor type, donor heavy atom, donor atom, acceptor molecule, acceptor atom, score
      L1  H    19    35       P1  7949  0.84
      P1  H  6933  6945       L1    16  0.11
      P1  H 10752 10765       L1    19  0.25

> <Gold.Chemscore.Hbond.Weighted>
-7.4036

> <Gold.Chemscore.Metal.Weighted>
-0.0000

> <Gold.Chemscore.Lipo.Weighted>
-6.5541

> <Gold.Chemscore.Internal_Hbond.Weighted>
0.0000

> <Gold.Chemscore.DEClash.Weighted>
0.0029

> <Gold.Chemscore.DEInternal.Weighted>
0.0399

> <Gold.Chemscore.Rot.Weighted>
9.3087

> <Gold.Chemscore.Internal.Correction.Weighted>
   9.000000E+99

> <Gold.Protein.RotatedTorsions>
[ 6907 6896 6895 6894 ] final  -97.90 input  -60.11 | X-H torsion
[ 7974 7965 7964 7962 ] final  151.68 input  175.53 | X-H torsion
[ 8008 7997 7996 7995 ] final  -64.49 input   59.86 | X-H torsion
[ 10167 10162 10161 10158 ] final  -98.85 input  -65.29 | X-H torsion
[ 10718 10713 10712 10709 ] final -101.44 input   66.30 | X-H torsion
[ 10763 10752 10751 10750 ] final  160.43 input  -60.55 | X-H torsion
[ 11005 11000 10999 10996 ] final -156.65 input  -57.11 | X-H torsion

> <Gold.Protein.ActiveResidues>
 VAL166  LYS551  ARG553  GLY616  TRP617  ASP618  TYR619  PRO620  LYS621  CYS622 
 ASP623  PHE694  ASN695  SER759  ASP760  ASP761  ALA762  ILE779  LEU786  VAL792 
 PHE793  MET794  SER795  GLU796  ALA797  LYS798  CYS799  TRP800  GLU811  SER814 

> <Gold.Protein.RotatedAtoms>
  150.7030  134.1276  159.4057 H   0  0  0  0  0  0  0  0  0  0  0  0  # atno 6907 bound_to 6896
  151.9262  135.0274  160.0535 H   0  0  0  0  0  0  0  0  0  0  0  0  # atno 6908 bound_to 6896
  152.2214  133.4951  159.5201 H   0  0  0  0  0  0  0  0  0  0  0  0  # atno 6909 bound_to 6896
  144.8275  139.6569  143.6073 H   0  0  0  0  0  0  0  0  0  0  0  0  # atno 7974 bound_to 7965
  154.4615  140.0952  156.6905 H   0  0  0  0  0  0  0  0  0  0  0  0  # atno 8008 bound_to 7997
  155.4981  140.3473  155.4348 H   0  0  0  0  0  0  0  0  0  0  0  0  # atno 8009 bound_to 7997
  156.0879  140.1389  156.9619 H   0  0  0  0  0  0  0  0  0  0  0  0  # atno 8010 bound_to 7997
  140.2686  143.3359  152.0557 H   0  0  0  0  0  0  0  0  0  0  0  0  # atno 10167 bound_to 10162
  156.0195  130.5374  150.6964 H   0  0  0  0  0  0  0  0  0  0  0  0  # atno 10718 bound_to 10713
  154.2473  135.2772  155.2830 H   0  0  0  0  0  0  0  0  0  0  0  0  # atno 10763 bound_to 10752
  154.5495  135.5679  153.6912 H   0  0  0  0  0  0  0  0  0  0  0  0  # atno 10764 bound_to 10752
  152.9987  135.6271  154.2619 H   0  0  0  0  0  0  0  0  0  0  0  0  # atno 10765 bound_to 10752
  140.6732  134.4224  157.5230 H   0  0  0  0  0  0  0  0  0  0  0  0  # atno 11005 bound_to 11000
  146.2580  139.6346  142.9381 LP  0  0  0  0  0  0  0  0  0  0  0  0  # atno 17320 bound_to 7965
  145.4967  141.0438  143.2563 LP  0  0  0  0  0  0  0  0  0  0  0  0  # atno 17321 bound_to 7965
  139.4995  144.6671  151.6330 LP  0  0  0  0  0  0  0  0  0  0  0  0  # atno 17342 bound_to 10162
  140.5908  143.9783  150.6323 LP  0  0  0  0  0  0  0  0  0  0  0  0  # atno 17343 bound_to 10162
  157.4634  131.0885  151.0721 LP  0  0  0  0  0  0  0  0  0  0  0  0  # atno 17370 bound_to 10713
  157.1202  130.6058  149.5503 LP  0  0  0  0  0  0  0  0  0  0  0  0  # atno 17371 bound_to 10713
  139.8975  134.8635  156.2042 LP  0  0  0  0  0  0  0  0  0  0  0  0  # atno 17394 bound_to 11000
  141.0376  133.6955  156.1539 LP  0  0  0  0  0  0  0  0  0  0  0  0  # atno 17395 bound_to 11000

$$$$
