AV-unprocessed.smi:392|AV-procd|sdf|2481|dock8
  -GOLD-   2262022423D 1   1.00000     0.00000
 Structure written by MMmdl.
 32 34  0  0  0  0  0  0  0  0  1 V2000
  150.9223  144.5623  157.6816 O   0  0  0  0  0  0  0  0  0  0  0  0
  151.0594  143.1828  157.9571 C   0  0  1  0  0  0  0  0  0  0  0  0
  151.6815  142.5048  156.7200 C   0  0  0  0  0  0  0  0  0  0  0  0
  150.7975  141.5142  156.1316 N   0  0  0  0  0  0  0  0  0  0  0  0
  149.4568  141.5886  156.0258 C   0  0  0  0  0  0  0  0  0  0  0  0
  148.8316  140.5609  155.4586 N   0  0  0  0  0  0  0  0  0  0  0  0
  149.8899  139.7191  155.1629 C   0  0  0  0  0  0  0  0  0  0  0  0
  149.9043  138.4445  154.5522 C   0  0  0  0  0  0  0  0  0  0  0  0
  151.1219  137.7601  154.3559 C   0  0  0  0  0  0  0  0  0  0  0  0
  152.3413  138.3388  154.7638 C   0  0  0  0  0  0  0  0  0  0  0  0
  152.3524  139.6089  155.3709 C   0  0  0  0  0  0  0  0  0  0  0  0
  151.1351  140.2877  155.5681 C   0  0  0  0  0  0  0  0  0  0  0  0
  151.8673  142.9246  159.2243 C   0  0  0  0  0  0  0  0  0  0  0  0
  152.8211  141.8826  159.2604 C   0  0  0  0  0  0  0  0  0  0  0  0
  153.5450  141.6198  160.4391 C   0  0  0  0  0  0  0  0  0  0  0  0
  153.3209  142.3969  161.5909 C   0  0  0  0  0  0  0  0  0  0  0  0
  152.3729  143.4370  161.5627 C   0  0  0  0  0  0  0  0  0  0  0  0
  151.6466  143.7012  160.3852 C   0  0  0  0  0  0  0  0  0  0  0  0
  150.7270  144.6961  160.3819 F   0  0  0  0  0  0  0  0  0  0  0  0
  150.4906  144.6588  156.8464 H   0  0  0  0  0  0  0  0  0  0  0  0
  150.0464  142.8034  158.0954 H   0  0  0  0  0  0  0  0  0  0  0  0
  151.9003  143.2509  155.9545 H   0  0  0  0  0  0  0  0  0  0  0  0
  152.6310  142.0299  156.9709 H   0  0  0  0  0  0  0  0  0  0  0  0
  148.9085  142.4453  156.3895 H   0  0  0  0  0  0  0  0  0  0  0  0
  148.9763  137.9912  154.2367 H   0  0  0  0  0  0  0  0  0  0  0  0
  151.1201  136.7857  153.8900 H   0  0  0  0  0  0  0  0  0  0  0  0
  153.2688  137.8067  154.6112 H   0  0  0  0  0  0  0  0  0  0  0  0
  153.2845  140.0527  155.6870 H   0  0  0  0  0  0  0  0  0  0  0  0
  152.9933  141.2722  158.3860 H   0  0  0  0  0  0  0  0  0  0  0  0
  154.2694  140.8189  160.4604 H   0  0  0  0  0  0  0  0  0  0  0  0
  153.8737  142.1937  162.4963 H   0  0  0  0  0  0  0  0  0  0  0  0
  152.1979  144.0305  162.4478 H   0  0  0  0  0  0  0  0  0  0  0  0
  1  2  1  0  0  0  0
  1 20  1  0  0  0  0
  2  3  1  0  0  0  0
  2 13  1  0  0  0  0
  2 21  1  0  0  0  0
  3  4  1  0  0  0  0
  3 22  1  0  0  0  0
  3 23  1  0  0  0  0
  4 12  1  0  0  0  0
  4  5  1  0  0  0  0
  5  6  2  0  0  0  0
  5 24  1  0  0  0  0
  6  7  1  0  0  0  0
  7 12  2  0  0  0  0
  7  8  1  0  0  0  0
  8  9  2  0  0  0  0
  8 25  1  0  0  0  0
  9 10  1  0  0  0  0
  9 26  1  0  0  0  0
 10 11  2  0  0  0  0
 10 27  1  0  0  0  0
 11 12  1  0  0  0  0
 11 28  1  0  0  0  0
 13 18  1  0  0  0  0
 13 14  2  0  0  0  0
 14 15  1  0  0  0  0
 14 29  1  0  0  0  0
 15 16  2  0  0  0  0
 15 30  1  0  0  0  0
 16 17  1  0  0  0  0
 16 31  1  0  0  0  0
 17 18  2  0  0  0  0
 17 32  1  0  0  0  0
 18 19  1  0  0  0  0
M  END
> <s_m_source_file>
AV-unprocessed.smi

> <i_m_source_file_index>
392

> <i_lp_mmshare_version>
43012

> <i_f3d_flags>
0

> <s_epik_input>
RmMxW2NIXVtjSF1bY0hdW2NIXWMxW0NASF0oW09IXSlbQ0gyXW4oW2NIXW4yKWMoYzIzKVtjSF1bY0hdW2NIXVtjSF0z

> <s_epik_cmdline>
J2VwaWtfcHl0aG9uJywgJy1waCcsICc3LjAnLCAnLXRuJywgJzgnLCAnLW1hJywgJzIwMCcsICctbWV0YWxfYmluZGluZycsICctaW1hZScsICc8aW5maWxlLm1hZT4nLCAnLW9tYWUnLCAnPG91dGZpbGUubWFlPic=

> <r_epik_Ionization_Penalty>
0.0696512

> <r_epik_Ionization_Penalty_Charging>
0

> <r_epik_Ionization_Penalty_Neutral>
0.0696512

> <r_epik_State_Penalty>
0.0610247

> <r_epik_Charging_Adjusted_Penalty>
0.0610247

> <i_epik_Tot_Q>
0

> <i_epik_Tot_abs_Q>
0

> <r_epik_Metal_State_Penalty>
6.42746e-05

> <b_epik_Metal_Only>
0

> <s_lp_Force_Field>
OPLS_2005

> <r_lp_Energy>
12.4864

> <b_lp_Chiralities_Consistent>
1

> <s_lp_Variant>
AV-unprocessed.smi:392-2

> <Gold.Version>
5.8.1

> <Gold.Id.Protein>
6NUR|6NUR_protein|mol2

> <Gold.PLP.Fitness>
49.3296

> <Gold.PLP.PLP>
-46.3562

> <Gold.PLP.part.hbond>
-1.1560

> <Gold.PLP.part.metal>
0.0000

> <Gold.PLP.part.buried>
-3.1225

> <Gold.PLP.part.nonpolar>
-41.6782

> <Gold.PLP.part.repulsive>
0.0697

> <Gold.PLP.ligand.clash>
0.0000

> <Gold.PLP.ligand.torsion>
1.5138

> <Gold.PLP.Chemscore.Hbond>
1.0000

> <Gold.PLP.Chemscore.CHOScore>
0.9954

> <Gold.PLP.Chemscore.Metal>
0.0000

> <Gold.Chemscore.Hbonds>
donor molecule, donor type, donor heavy atom, donor atom, acceptor molecule, acceptor atom, score
      L1  H     1    20       P1  8028  1.00
      L1  C     5    24       P1  8028  1.00

> <Gold.PLP.Chemscore.Internal.Correction>
0.0148

> <Gold.Rescore>
     Score         DG    S(hbond)    S(metal)    S(lipo)     H(rot)  DE(clash)    DE(int)     intcor
     14.55     -18.57       0.88        0.00     128.50       1.91       1.52       2.50       ----

> <Gold.Chemscore.Fitness>
14.5528

> <Gold.Chemscore.DG>
-18.5726

> <Gold.Chemscore.ZeroCoef>
-5.4800

> <Gold.Chemscore.Hbond>
0.8839

> <Gold.Chemscore.Metal>
0.0000

> <Gold.Chemscore.Lipo>
128.4981

> <Gold.Chemscore.Internal_Hbond>
0.0000

> <Gold.Chemscore.DEClash>
1.5169

> <Gold.Chemscore.DEInternal>
2.5030

> <Gold.Chemscore.Rot>
1.9116

> <Gold.Chemscore.Internal.Correction>
   9.000000E+99

> <Gold.Chemscore.Hbonds>
donor molecule, donor type, donor heavy atom, donor atom, acceptor molecule, acceptor atom, score
      L1  H     1    20       P1  8028  0.79

> <Gold.Chemscore.Hbond.Weighted>
-2.9521

> <Gold.Chemscore.Metal.Weighted>
-0.0000

> <Gold.Chemscore.Lipo.Weighted>
-15.0343

> <Gold.Chemscore.Internal_Hbond.Weighted>
0.0000

> <Gold.Chemscore.DEClash.Weighted>
1.5169

> <Gold.Chemscore.DEInternal.Weighted>
2.5030

> <Gold.Chemscore.Rot.Weighted>
4.8937

> <Gold.Chemscore.Internal.Correction.Weighted>
   9.000000E+99

> <Gold.Protein.RotatedTorsions>
[ 6907 6896 6895 6894 ] final   18.97 input  -60.11 | X-H torsion
[ 7974 7965 7964 7962 ] final -101.97 input  175.53 | X-H torsion
[ 8008 7997 7996 7995 ] final   18.91 input   59.86 | X-H torsion
[ 10167 10162 10161 10158 ] final  140.94 input  -65.29 | X-H torsion
[ 10718 10713 10712 10709 ] final  -10.90 input   66.30 | X-H torsion
[ 10763 10752 10751 10750 ] final   33.82 input  -60.55 | X-H torsion
[ 11005 11000 10999 10996 ] final   81.83 input  -57.11 | X-H torsion

> <Gold.Protein.ActiveResidues>
 VAL166  LYS551  ARG553  GLY616  TRP617  ASP618  TYR619  PRO620  LYS621  CYS622 
 ASP623  PHE694  ASN695  SER759  ASP760  ASP761  ALA762  ILE779  LEU786  VAL792 
 PHE793  MET794  SER795  GLU796  ALA797  LYS798  CYS799  TRP800  GLU811  SER814 

> <Gold.Protein.RotatedAtoms>
  151.8736  135.0480  160.0481 H   0  0  0  0  0  0  0  0  0  0  0  0  # atno 6907 bound_to 6896
  152.2569  133.5258  159.5366 H   0  0  0  0  0  0  0  0  0  0  0  0  # atno 6908 bound_to 6896
  150.7103  134.0800  159.3937 H   0  0  0  0  0  0  0  0  0  0  0  0  # atno 6909 bound_to 6896
  145.2748  140.9309  143.2966 H   0  0  0  0  0  0  0  0  0  0  0  0  # atno 7974 bound_to 7965
  154.9129  140.3016  155.5256 H   0  0  0  0  0  0  0  0  0  0  0  0  # atno 8008 bound_to 7997
  156.3014  140.2385  156.4106 H   0  0  0  0  0  0  0  0  0  0  0  0  # atno 8009 bound_to 7997
  154.8407  140.0414  157.1528 H   0  0  0  0  0  0  0  0  0  0  0  0  # atno 8010 bound_to 7997
  139.5034  144.6202  151.6068 H   0  0  0  0  0  0  0  0  0  0  0  0  # atno 10167 bound_to 10162
  156.6669  130.4998  149.6012 H   0  0  0  0  0  0  0  0  0  0  0  0  # atno 10718 bound_to 10713
  153.0193  135.6377  154.1571 H   0  0  0  0  0  0  0  0  0  0  0  0  # atno 10763 bound_to 10752
  154.1307  135.2840  155.3187 H   0  0  0  0  0  0  0  0  0  0  0  0  # atno 10764 bound_to 10752
  154.6196  135.5529  153.7623 H   0  0  0  0  0  0  0  0  0  0  0  0  # atno 10765 bound_to 10752
  139.9084  134.8026  156.2093 H   0  0  0  0  0  0  0  0  0  0  0  0  # atno 11005 bound_to 11000
  144.9304  139.4305  143.6498 LP  0  0  0  0  0  0  0  0  0  0  0  0  # atno 17320 bound_to 7965
  146.3235  139.8212  142.8926 LP  0  0  0  0  0  0  0  0  0  0  0  0  # atno 17321 bound_to 7965
  140.5902  143.9792  150.6320 LP  0  0  0  0  0  0  0  0  0  0  0  0  # atno 17342 bound_to 10162
  140.2970  143.3286  152.1008 LP  0  0  0  0  0  0  0  0  0  0  0  0  # atno 17343 bound_to 10162
  156.1968  130.6595  151.1123 LP  0  0  0  0  0  0  0  0  0  0  0  0  # atno 17370 bound_to 10713
  157.7091  131.0743  150.6565 LP  0  0  0  0  0  0  0  0  0  0  0  0  # atno 17371 bound_to 10713
  141.0475  133.6905  156.1711 LP  0  0  0  0  0  0  0  0  0  0  0  0  # atno 17394 bound_to 11000
  140.6861  134.4715  157.5589 LP  0  0  0  0  0  0  0  0  0  0  0  0  # atno 17395 bound_to 11000

$$$$
