AV-unprocessed.smi:2159|AV-procd|sdf|8792|dock8
  -GOLD-   2272011573D 1   1.00000     0.00000
 Structure written by MMmdl.
 47 49  0  0  0  0  0  0  0  0  1 V2000
  151.6939  136.9057  154.6059 O   0  0  0  0  0  0  0  0  0  0  0  0
  151.0316  137.0420  155.6349 C   0  0  0  0  0  0  0  0  0  0  0  0
  151.4070  138.1065  156.6701 C   0  0  0  0  0  0  0  0  0  0  0  0
  151.8996  139.4227  156.0358 C   0  0  0  0  0  0  0  0  0  0  0  0
  151.6904  140.5582  156.9407 N   0  0  0  0  0  0  0  0  0  0  0  0
  152.0795  140.5754  158.2233 C   0  0  0  0  0  0  0  0  0  0  0  0
  152.6672  139.6704  158.8158 O   0  0  0  0  0  0  0  0  0  0  0  0
  151.6893  141.8868  158.9004 C   0  0  1  0  0  0  0  0  0  0  0  0
  152.9114  142.6235  159.4883 C   0  0  0  0  0  0  0  0  0  0  0  0
  152.5656  144.0764  159.8588 C   0  0  0  0  0  0  0  0  0  0  0  0
  151.8649  144.8544  158.7224 C   0  0  0  0  0  0  0  0  0  0  0  0
  151.6502  144.0210  157.4468 C   0  0  0  0  0  0  0  0  0  0  0  0
  150.9885  142.6638  157.7654 C   0  0  1  0  0  0  0  0  0  0  0  0
  151.0718  141.6942  156.5890 C   0  0  0  0  0  0  0  0  0  0  0  0
  150.6100  141.9554  155.4781 O   0  0  0  0  0  0  0  0  0  0  0  0
  149.9631  136.2852  155.9274 N   0  0  0  0  0  0  0  0  0  0  0  0
  149.4431  135.2046  155.0970 C   0  0  0  0  0  0  0  0  0  0  0  0
  150.2028  133.8880  155.3292 C   0  0  0  0  0  0  0  0  0  0  0  0
  149.5861  132.7293  154.5678 C   0  0  0  0  0  0  0  0  0  0  0  0
  148.5295  132.9482  153.6581 C   0  0  0  0  0  0  0  0  0  0  0  0
  147.9833  131.8390  152.9841 C   0  0  0  0  0  0  0  0  0  0  0  0
  148.5111  130.5597  153.2447 C   0  0  0  0  0  0  0  0  0  0  0  0
  149.5667  130.4463  154.1715 C   0  0  0  0  0  0  0  0  0  0  0  0
  150.0974  131.5037  154.8232 N   0  0  0  0  0  0  0  0  0  0  0  0
  150.5404  138.3083  157.3017 H   0  0  0  0  0  0  0  0  0  0  0  0
  152.1784  137.6932  157.3206 H   0  0  0  0  0  0  0  0  0  0  0  0
  152.9579  139.3466  155.7793 H   0  0  0  0  0  0  0  0  0  0  0  0
  151.3829  139.5998  155.0904 H   0  0  0  0  0  0  0  0  0  0  0  0
  150.9731  141.6723  159.6950 H   0  0  0  0  0  0  0  0  0  0  0  0
  153.2779  142.0969  160.3704 H   0  0  0  0  0  0  0  0  0  0  0  0
  153.7344  142.6219  158.7713 H   0  0  0  0  0  0  0  0  0  0  0  0
  151.9166  144.0730  160.7354 H   0  0  0  0  0  0  0  0  0  0  0  0
  153.4726  144.6000  160.1626 H   0  0  0  0  0  0  0  0  0  0  0  0
  150.8974  145.2072  159.0816 H   0  0  0  0  0  0  0  0  0  0  0  0
  152.4364  145.7507  158.4790 H   0  0  0  0  0  0  0  0  0  0  0  0
  151.0352  144.5814  156.7415 H   0  0  0  0  0  0  0  0  0  0  0  0
  152.6115  143.8660  156.9534 H   0  0  0  0  0  0  0  0  0  0  0  0
  149.9391  142.8183  158.0206 H   0  0  0  0  0  0  0  0  0  0  0  0
  149.4796  136.4646  156.7957 H   0  0  0  0  0  0  0  0  0  0  0  0
  148.3756  135.0708  155.2812 H   0  0  0  0  0  0  0  0  0  0  0  0
  149.5427  135.5079  154.0544 H   0  0  0  0  0  0  0  0  0  0  0  0
  151.2445  134.0007  155.0253 H   0  0  0  0  0  0  0  0  0  0  0  0
  150.2189  133.6424  156.3921 H   0  0  0  0  0  0  0  0  0  0  0  0
  148.1451  133.9421  153.4811 H   0  0  0  0  0  0  0  0  0  0  0  0
  147.1734  131.9674  152.2813 H   0  0  0  0  0  0  0  0  0  0  0  0
  148.1168  129.6866  152.7464 H   0  0  0  0  0  0  0  0  0  0  0  0
  149.9957  129.4808  154.3958 H   0  0  0  0  0  0  0  0  0  0  0  0
  1  2  2  0  0  0  0
  2  3  1  0  0  0  0
  2 16  1  0  0  0  0
  3  4  1  0  0  0  0
  3 25  1  0  0  0  0
  3 26  1  0  0  0  0
  4  5  1  0  0  0  0
  4 27  1  0  0  0  0
  4 28  1  0  0  0  0
  5 14  1  0  0  0  0
  5  6  1  0  0  0  0
  6  7  2  0  0  0  0
  6  8  1  0  0  0  0
  8 13  1  0  0  0  0
  8  9  1  0  0  0  0
  8 29  1  0  0  0  0
  9 10  1  0  0  0  0
  9 30  1  0  0  0  0
  9 31  1  0  0  0  0
 10 11  1  0  0  0  0
 10 32  1  0  0  0  0
 10 33  1  0  0  0  0
 11 12  1  0  0  0  0
 11 34  1  0  0  0  0
 11 35  1  0  0  0  0
 12 13  1  0  0  0  0
 12 36  1  0  0  0  0
 12 37  1  0  0  0  0
 13 14  1  0  0  0  0
 13 38  1  0  0  0  0
 14 15  2  0  0  0  0
 16 17  1  0  0  0  0
 16 39  1  0  0  0  0
 17 18  1  0  0  0  0
 17 40  1  0  0  0  0
 17 41  1  0  0  0  0
 18 19  1  0  0  0  0
 18 42  1  0  0  0  0
 18 43  1  0  0  0  0
 19 24  1  0  0  0  0
 19 20  2  0  0  0  0
 20 21  1  0  0  0  0
 20 44  1  0  0  0  0
 21 22  2  0  0  0  0
 21 45  1  0  0  0  0
 22 23  1  0  0  0  0
 22 46  1  0  0  0  0
 23 24  2  0  0  0  0
 23 47  1  0  0  0  0
M  END
> <s_m_source_file>
AV-unprocessed.smi

> <i_m_source_file_index>
2159

> <i_lp_mmshare_version>
43012

> <i_f3d_flags>
0

> <s_epik_input>
bjFbY0hdW2NIXVtjSF1bY0hdYzFbQ0gyXVtDSDJdW05IXUMoPU8pW0NIMl1bQ0gyXU4oQzI9TylDKD1PKVtDQEhdKFtDQEBIXTIzKVtDSDJdW0NIMl1bQ0gyXVtDSDJdMw==

> <s_epik_cmdline>
J2VwaWtfcHl0aG9uJywgJy1waCcsICc3LjAnLCAnLXRuJywgJzgnLCAnLW1hJywgJzIwMCcsICctbWV0YWxfYmluZGluZycsICctaW1hZScsICc8aW5maWxlLm1hZT4nLCAnLW9tYWUnLCAnPG91dGZpbGUubWFlPic=

> <r_lp_tautomer_probability>
1

> <r_epik_Ionization_Penalty>
0.026624

> <r_epik_Ionization_Penalty_Charging>
0

> <r_epik_Ionization_Penalty_Neutral>
0.026624

> <r_epik_State_Penalty>
0.0217444

> <r_epik_Charging_Adjusted_Penalty>
0.0217444

> <i_epik_Tot_Q>
0

> <i_epik_Tot_abs_Q>
0

> <r_epik_Metal_State_Penalty>
0.0208054

> <b_epik_Metal_Only>
0

> <s_lp_Force_Field>
OPLS_2005

> <r_lp_Energy>
25.0147

> <b_lp_Chiralities_Consistent>
1

> <s_lp_Variant>
AV-unprocessed.smi:2159-2

> <Gold.Version>
5.8.1

> <Gold.Id.Protein>
6NUR|6NUR_protein|mol2

> <Gold.PLP.Fitness>
48.5323

> <Gold.PLP.PLP>
-46.9521

> <Gold.PLP.part.hbond>
-1.7604

> <Gold.PLP.part.metal>
0.0000

> <Gold.PLP.part.buried>
-3.2099

> <Gold.PLP.part.nonpolar>
-42.4360

> <Gold.PLP.part.repulsive>
0.3227

> <Gold.PLP.ligand.clash>
0.0000

> <Gold.PLP.ligand.torsion>
0.7407

> <Gold.PLP.Chemscore.Hbond>
1.0000

> <Gold.PLP.Chemscore.CHOScore>
0.0000

> <Gold.PLP.Chemscore.Metal>
0.0000

> <Gold.Chemscore.Hbonds>
donor molecule, donor type, donor heavy atom, donor atom, acceptor molecule, acceptor atom, score
      P1  H 10752 10764       L1     1  1.00

> <Gold.PLP.Chemscore.Internal.Correction>
0.0616

> <Gold.Rescore>
     Score         DG    S(hbond)    S(metal)    S(lipo)     H(rot)  DE(clash)    DE(int)     intcor
     18.24     -19.47       1.69        0.00     114.57       1.97       0.63       0.61       ----

> <Gold.Chemscore.Fitness>
18.2374

> <Gold.Chemscore.DG>
-19.4692

> <Gold.Chemscore.ZeroCoef>
-5.4800

> <Gold.Chemscore.Hbond>
1.6853

> <Gold.Chemscore.Metal>
0.0000

> <Gold.Chemscore.Lipo>
114.5690

> <Gold.Chemscore.Internal_Hbond>
0.0000

> <Gold.Chemscore.DEClash>
0.6267

> <Gold.Chemscore.DEInternal>
0.6051

> <Gold.Chemscore.Rot>
1.9704

> <Gold.Chemscore.Internal.Correction>
   9.000000E+99

> <Gold.Chemscore.Hbonds>
donor molecule, donor type, donor heavy atom, donor atom, acceptor molecule, acceptor atom, score
      P1  H  7989  7998       L1    15  0.01
      P1  H 10752 10764       L1     1  0.98

> <Gold.Chemscore.Hbond.Weighted>
-5.6289

> <Gold.Chemscore.Metal.Weighted>
-0.0000

> <Gold.Chemscore.Lipo.Weighted>
-13.4046

> <Gold.Chemscore.Internal_Hbond.Weighted>
0.0000

> <Gold.Chemscore.DEClash.Weighted>
0.6267

> <Gold.Chemscore.DEInternal.Weighted>
0.6051

> <Gold.Chemscore.Rot.Weighted>
5.0443

> <Gold.Chemscore.Internal.Correction.Weighted>
   9.000000E+99

> <Gold.Protein.RotatedTorsions>
[ 6907 6896 6895 6894 ] final    8.16 input  -60.11 | X-H torsion
[ 7974 7965 7964 7962 ] final  150.45 input  175.53 | X-H torsion
[ 8008 7997 7996 7995 ] final  132.88 input   59.86 | X-H torsion
[ 10167 10162 10161 10158 ] final -171.35 input  -65.29 | X-H torsion
[ 10718 10713 10712 10709 ] final -140.60 input   66.30 | X-H torsion
[ 10763 10752 10751 10750 ] final  -80.20 input  -60.55 | X-H torsion
[ 11005 11000 10999 10996 ] final -105.38 input  -57.11 | X-H torsion

> <Gold.Protein.ActiveResidues>
 VAL166  LYS551  ARG553  GLY616  TRP617  ASP618  TYR619  PRO620  LYS621  CYS622 
 ASP623  PHE694  ASN695  SER759  ASP760  ASP761  ALA762  ILE779  LEU786  VAL792 
 PHE793  MET794  SER795  GLU796  ALA797  LYS798  CYS799  TRP800  GLU811  SER814 

> <Gold.Protein.RotatedAtoms>
  151.7015  135.0929  160.0251 H   0  0  0  0  0  0  0  0  0  0  0  0  # atno 6907 bound_to 6896
  152.3718  133.6424  159.6101 H   0  0  0  0  0  0  0  0  0  0  0  0  # atno 6908 bound_to 6896
  150.7679  133.9175  159.3429 H   0  0  0  0  0  0  0  0  0  0  0  0  # atno 6909 bound_to 6896
  144.8363  139.6411  143.6036 H   0  0  0  0  0  0  0  0  0  0  0  0  # atno 7974 bound_to 7965
  156.2987  140.2535  156.3161 H   0  0  0  0  0  0  0  0  0  0  0  0  # atno 8008 bound_to 7997
  154.9280  140.0399  157.2052 H   0  0  0  0  0  0  0  0  0  0  0  0  # atno 8009 bound_to 7997
  154.8246  140.2865  155.5768 H   0  0  0  0  0  0  0  0  0  0  0  0  # atno 8010 bound_to 7997
  139.5808  144.1429  152.1512 H   0  0  0  0  0  0  0  0  0  0  0  0  # atno 10167 bound_to 10162
  156.3242  130.7551  151.1655 H   0  0  0  0  0  0  0  0  0  0  0  0  # atno 10718 bound_to 10713
  154.5483  135.5669  153.6899 H   0  0  0  0  0  0  0  0  0  0  0  0  # atno 10763 bound_to 10752
  152.9982  135.6244  154.2409 H   0  0  0  0  0  0  0  0  0  0  0  0  # atno 10764 bound_to 10752
  154.2343  135.2864  155.2858 H   0  0  0  0  0  0  0  0  0  0  0  0  # atno 10765 bound_to 10752
  141.1056  133.8803  157.1727 H   0  0  0  0  0  0  0  0  0  0  0  0  # atno 11005 bound_to 11000
  146.2661  139.6524  142.9328 LP  0  0  0  0  0  0  0  0  0  0  0  0  # atno 17320 bound_to 7965
  145.4788  141.0437  143.2657 LP  0  0  0  0  0  0  0  0  0  0  0  0  # atno 17321 bound_to 7965
  140.0981  144.5563  150.7007 LP  0  0  0  0  0  0  0  0  0  0  0  0  # atno 17342 bound_to 10162
  140.7086  143.2487  151.4651 LP  0  0  0  0  0  0  0  0  0  0  0  0  # atno 17343 bound_to 10162
  157.7418  131.0499  150.5071 LP  0  0  0  0  0  0  0  0  0  0  0  0  # atno 17370 bound_to 10713
  156.5228  130.4166  149.6242 LP  0  0  0  0  0  0  0  0  0  0  0  0  # atno 17371 bound_to 10713
  139.9925  135.0059  157.0007 LP  0  0  0  0  0  0  0  0  0  0  0  0  # atno 17394 bound_to 11000
  140.4910  134.1193  155.7233 LP  0  0  0  0  0  0  0  0  0  0  0  0  # atno 17395 bound_to 11000

$$$$
