AV-unprocessed.smi:1207|AV-procd|sdf|5057|dock4
  -GOLD-   22720 4 93D 1   1.00000     0.00000
 Structure written by MMmdl.
 53 55  0  0  0  0  0  0  0  0  3 V2000
  153.1267  142.4579  161.3429 C   0  0  0  0  0  0  0  0  0  0  0  0
  152.4437  142.1174  160.0290 C   0  0  0  0  0  0  0  0  0  0  0  0
  152.7051  140.8600  159.4392 C   0  0  0  0  0  0  0  0  0  0  0  0
  152.0657  140.5774  158.2379 C   0  0  0  0  0  0  0  0  0  0  0  0
  152.1134  139.4475  157.4181 N   0  3  0  0  0  0  0  0  0  0  0  0
  151.3100  139.6369  156.3348 C   0  0  0  0  0  0  0  0  0  0  0  0
  150.7451  140.8697  156.4541 N   0  0  0  0  0  0  0  0  0  0  0  0
  149.8089  141.5712  155.5656 C   0  0  0  0  0  0  0  0  0  0  0  0
  149.1075  140.6295  154.5669 C   0  0  2  0  0  0  0  0  0  0  0  0
  150.0464  140.1927  153.6034 O   0  0  0  0  0  0  0  0  0  0  0  0
  147.9436  141.3339  153.8409 C   0  0  0  0  0  0  0  0  0  0  0  0
  147.0885  142.1287  154.7623 N   0  3  1  0  0  0  0  0  0  0  0  0
  146.0023  142.8516  154.0544 C   0  0  0  0  0  0  0  0  0  0  0  0
  146.5898  141.3198  155.9053 C   0  0  0  0  0  0  0  0  0  0  0  0
  145.7004  142.1245  156.8187 C   0  0  0  0  0  0  0  0  0  0  0  0
  144.3388  142.4988  156.6249 C   0  0  0  0  0  0  0  0  0  0  0  0
  143.4347  142.1924  155.4651 C   0  0  0  0  0  0  0  0  0  0  0  0
  143.8729  143.2054  157.6406 N   0  0  0  0  0  0  0  0  0  0  0  0
  144.9288  143.3137  158.5503 O   0  0  0  0  0  0  0  0  0  0  0  0
  146.0032  142.6609  158.0400 C   0  0  0  0  0  0  0  0  0  0  0  0
  147.2416  142.6569  158.8711 C   0  0  0  0  0  0  0  0  0  0  0  0
  151.1917  141.4950  157.6234 C   0  0  0  0  0  0  0  0  0  0  0  0
  150.9240  142.7388  158.1896 C   0  0  0  0  0  0  0  0  0  0  0  0
  151.5645  143.0449  159.4118 C   0  0  0  0  0  0  0  0  0  0  0  0
  151.2915  144.3939  160.0549 C   0  0  0  0  0  0  0  0  0  0  0  0
  153.7765  141.6482  161.6764 H   0  0  0  0  0  0  0  0  0  0  0  0
  152.3876  142.6352  162.1246 H   0  0  0  0  0  0  0  0  0  0  0  0
  153.7398  143.3532  161.2360 H   0  0  0  0  0  0  0  0  0  0  0  0
  153.3743  140.1498  159.9027 H   0  0  0  0  0  0  0  0  0  0  0  0
  151.1495  138.9355  155.5284 H   0  0  0  0  0  0  0  0  0  0  0  0
  149.0807  142.0985  156.1833 H   0  0  0  0  0  0  0  0  0  0  0  0
  150.3748  142.3374  155.0334 H   0  0  0  0  0  0  0  0  0  0  0  0
  148.7481  139.7554  155.1076 H   0  0  0  0  0  0  0  0  0  0  0  0
  149.7130  140.4006  152.7435 H   0  0  0  0  0  0  0  0  0  0  0  0
  148.3219  141.9864  153.0525 H   0  0  0  0  0  0  0  0  0  0  0  0
  147.3485  140.5697  153.3385 H   0  0  0  0  0  0  0  0  0  0  0  0
  145.2855  142.1513  153.6242 H   0  0  0  0  0  0  0  0  0  0  0  0
  146.3893  143.4735  153.2489 H   0  0  0  0  0  0  0  0  0  0  0  0
  145.4636  143.5166  154.7292 H   0  0  0  0  0  0  0  0  0  0  0  0
  146.0782  140.4355  155.5233 H   0  0  0  0  0  0  0  0  0  0  0  0
  147.4391  140.9455  156.4779 H   0  0  0  0  0  0  0  0  0  0  0  0
  143.9923  142.1405  154.5305 H   0  0  0  0  0  0  0  0  0  0  0  0
  142.6656  142.9561  155.3445 H   0  0  0  0  0  0  0  0  0  0  0  0
  142.9326  141.2351  155.6057 H   0  0  0  0  0  0  0  0  0  0  0  0
  148.1311  142.7196  158.2440 H   0  0  0  0  0  0  0  0  0  0  0  0
  147.3063  141.7420  159.4600 H   0  0  0  0  0  0  0  0  0  0  0  0
  147.2550  143.5034  159.5581 H   0  0  0  0  0  0  0  0  0  0  0  0
  150.2569  143.4457  157.7193 H   0  0  0  0  0  0  0  0  0  0  0  0
  150.6042  144.9914  159.4549 H   0  0  0  0  0  0  0  0  0  0  0  0
  152.2165  144.9606  160.1635 H   0  0  0  0  0  0  0  0  0  0  0  0
  150.8460  144.2647  161.0417 H   0  0  0  0  0  0  0  0  0  0  0  0
  147.6969  142.8275  155.1650 H   0  0  0  0  0  0  0  0  0  0  0  0
  152.6563  138.6092  157.5818 H   0  0  0  0  0  0  0  0  0  0  0  0
  1  2  1  0  0  0  0
  1 26  1  0  0  0  0
  1 27  1  0  0  0  0
  1 28  1  0  0  0  0
  2 24  1  0  0  0  0
  2  3  2  0  0  0  0
  3  4  1  0  0  0  0
  3 29  1  0  0  0  0
  4 22  2  0  0  0  0
  4  5  1  0  0  0  0
  5  6  2  0  0  0  0
  5 53  1  0  0  0  0
  6  7  1  0  0  0  0
  6 30  1  0  0  0  0
  7  8  1  0  0  0  0
  7 22  1  0  0  0  0
  8  9  1  0  0  0  0
  8 31  1  0  0  0  0
  8 32  1  0  0  0  0
  9 10  1  0  0  0  0
  9 11  1  0  0  0  0
  9 33  1  0  0  0  0
 10 34  1  0  0  0  0
 11 12  1  0  0  0  0
 11 35  1  0  0  0  0
 11 36  1  0  0  0  0
 12 13  1  0  0  0  0
 12 14  1  0  0  0  0
 12 52  1  0  0  0  0
 13 37  1  0  0  0  0
 13 38  1  0  0  0  0
 13 39  1  0  0  0  0
 14 15  1  0  0  0  0
 14 40  1  0  0  0  0
 14 41  1  0  0  0  0
 15 20  2  0  0  0  0
 15 16  1  0  0  0  0
 16 17  1  0  0  0  0
 16 18  2  0  0  0  0
 17 42  1  0  0  0  0
 17 43  1  0  0  0  0
 17 44  1  0  0  0  0
 18 19  1  0  0  0  0
 19 20  1  0  0  0  0
 20 21  1  0  0  0  0
 21 45  1  0  0  0  0
 21 46  1  0  0  0  0
 21 47  1  0  0  0  0
 22 23  1  0  0  0  0
 23 24  2  0  0  0  0
 23 48  1  0  0  0  0
 24 25  1  0  0  0  0
 25 49  1  0  0  0  0
 25 50  1  0  0  0  0
 25 51  1  0  0  0  0
M  CHG  1   5   1
M  CHG  1  12   1
M  END
> <s_m_source_file>
AV-unprocessed.smi

> <i_m_source_file_index>
1207

> <i_lp_mmshare_version>
43012

> <i_f3d_flags>
0

> <s_epik_input>
W0NIM11jKFtjSF0xKWMoW0NIM10pW2NIXWMoYzEyKW4oW2NIXW4yKVtDSDJdW0NASF0oW09IXSlbQ0gyXU4oW0NIM10pW0NIMl1jM2MoW0NIM10pbm9jM1tDSDNd

> <s_epik_cmdline>
J2VwaWtfcHl0aG9uJywgJy1waCcsICc3LjAnLCAnLXRuJywgJzgnLCAnLW1hJywgJzIwMCcsICctbWV0YWxfYmluZGluZycsICctaW1hZScsICc8aW5maWxlLm1hZT4nLCAnLW9tYWUnLCAnPG91dGZpbGUubWFlPic=

> <r_epik_Ionization_Penalty>
1.77463

> <r_epik_Ionization_Penalty_Charging>
1.77463

> <r_epik_Ionization_Penalty_Neutral>
3.70885e-06

> <r_epik_State_Penalty>
1.85225

> <r_epik_Charging_Adjusted_Penalty>
3.62688

> <i_epik_Tot_Q>
2

> <i_epik_Tot_abs_Q>
2

> <r_epik_Metal_State_Penalty>
1.92674

> <b_epik_Metal_Only>
0

> <s_lp_Force_Field>
OPLS_2005

> <r_lp_Energy>
17.578

> <b_lp_Chiralities_Consistent>
1

> <s_lp_Variant>
AV-unprocessed.smi:1207-9

> <Gold.Version>
5.8.1

> <Gold.Id.Protein>
6NUR|6NUR_protein|mol2

> <Gold.PLP.Fitness>
58.4676

> <Gold.PLP.PLP>
-48.6387

> <Gold.PLP.part.hbond>
-2.7752

> <Gold.PLP.part.metal>
0.0000

> <Gold.PLP.part.buried>
-4.9502

> <Gold.PLP.part.nonpolar>
-39.6973

> <Gold.PLP.part.repulsive>
0.3397

> <Gold.PLP.ligand.clash>
0.0000

> <Gold.PLP.ligand.torsion>
0.6546

> <Gold.PLP.Chemscore.Hbond>
3.6720

> <Gold.PLP.Chemscore.CHOScore>
0.0000

> <Gold.PLP.Chemscore.Metal>
0.0000

> <Gold.Chemscore.Hbonds>
donor molecule, donor type, donor heavy atom, donor atom, acceptor molecule, acceptor atom, score
      L1  H    10    34       P1  7957  0.99
      L1  H    12    52       P1  8028  0.88
      P1  H  7989  7998       L1    10  0.64

> <Gold.PLP.Chemscore.Internal.Correction>
0.1221

> <Gold.Rescore>
     Score         DG    S(hbond)    S(metal)    S(lipo)     H(rot)  DE(clash)    DE(int)     intcor
     19.04     -20.03       2.13        0.00     119.12       2.54       0.10       0.89       ----

> <Gold.Chemscore.Fitness>
19.0372

> <Gold.Chemscore.DG>
-20.0300

> <Gold.Chemscore.ZeroCoef>
-5.4800

> <Gold.Chemscore.Hbond>
2.1268

> <Gold.Chemscore.Metal>
0.0000

> <Gold.Chemscore.Lipo>
119.1159

> <Gold.Chemscore.Internal_Hbond>
0.0000

> <Gold.Chemscore.DEClash>
0.1028

> <Gold.Chemscore.DEInternal>
0.8900

> <Gold.Chemscore.Rot>
2.5351

> <Gold.Chemscore.Internal.Correction>
   9.000000E+99

> <Gold.Chemscore.Hbonds>
donor molecule, donor type, donor heavy atom, donor atom, acceptor molecule, acceptor atom, score
      L1  H    10    34       P1  7957  0.93
      L1  H    12    52       P1  8028  0.30
      P1  H  7989  7998       L1    10  0.15

> <Gold.Chemscore.Hbond.Weighted>
-7.1034

> <Gold.Chemscore.Metal.Weighted>
-0.0000

> <Gold.Chemscore.Lipo.Weighted>
-13.9366

> <Gold.Chemscore.Internal_Hbond.Weighted>
0.0000

> <Gold.Chemscore.DEClash.Weighted>
0.1028

> <Gold.Chemscore.DEInternal.Weighted>
0.8900

> <Gold.Chemscore.Rot.Weighted>
6.4900

> <Gold.Chemscore.Internal.Correction.Weighted>
   9.000000E+99

> <Gold.Protein.RotatedTorsions>
[ 6907 6896 6895 6894 ] final  -88.71 input  -60.11 | X-H torsion
[ 7974 7965 7964 7962 ] final   75.02 input  175.53 | X-H torsion
[ 8008 7997 7996 7995 ] final  -31.35 input   59.86 | X-H torsion
[ 10167 10162 10161 10158 ] final  173.76 input  -65.29 | X-H torsion
[ 10718 10713 10712 10709 ] final  164.66 input   66.30 | X-H torsion
[ 10763 10752 10751 10750 ] final  -78.78 input  -60.55 | X-H torsion
[ 11005 11000 10999 10996 ] final    6.41 input  -57.11 | X-H torsion

> <Gold.Protein.ActiveResidues>
 VAL166  LYS551  ARG553  GLY616  TRP617  ASP618  TYR619  PRO620  LYS621  CYS622 
 ASP623  PHE694  ASN695  SER759  ASP760  ASP761  ALA762  ILE779  LEU786  VAL792 
 PHE793  MET794  SER795  GLU796  ALA797  LYS798  CYS799  TRP800  GLU811  SER814 

> <Gold.Protein.RotatedAtoms>
  150.6870  134.2700  159.4583 H   0  0  0  0  0  0  0  0  0  0  0  0  # atno 6907 bound_to 6896
  152.0623  134.9584  160.0584 H   0  0  0  0  0  0  0  0  0  0  0  0  # atno 6908 bound_to 6896
  152.1006  133.4213  159.4622 H   0  0  0  0  0  0  0  0  0  0  0  0  # atno 6909 bound_to 6896
  145.7209  139.2648  143.1596 H   0  0  0  0  0  0  0  0  0  0  0  0  # atno 7974 bound_to 7965
  154.4217  140.1766  156.1553 H   0  0  0  0  0  0  0  0  0  0  0  0  # atno 8008 bound_to 7997
  155.9882  140.3371  155.6703 H   0  0  0  0  0  0  0  0  0  0  0  0  # atno 8009 bound_to 7997
  155.6409  140.0680  157.2609 H   0  0  0  0  0  0  0  0  0  0  0  0  # atno 8010 bound_to 7997
  139.5119  144.3224  152.0189 H   0  0  0  0  0  0  0  0  0  0  0  0  # atno 10167 bound_to 10162
  157.0912  131.0418  151.2536 H   0  0  0  0  0  0  0  0  0  0  0  0  # atno 10718 bound_to 10713
  154.5302  135.5718  153.6753 H   0  0  0  0  0  0  0  0  0  0  0  0  # atno 10763 bound_to 10752
  152.9937  135.6203  154.2638 H   0  0  0  0  0  0  0  0  0  0  0  0  # atno 10764 bound_to 10752
  154.2564  135.2857  155.2775 H   0  0  0  0  0  0  0  0  0  0  0  0  # atno 10765 bound_to 10752
  140.5598  134.0203  155.7967 H   0  0  0  0  0  0  0  0  0  0  0  0  # atno 11005 bound_to 11000
  146.0626  140.7954  142.9727 LP  0  0  0  0  0  0  0  0  0  0  0  0  # atno 17320 bound_to 7965
  144.6917  140.3220  143.7230 LP  0  0  0  0  0  0  0  0  0  0  0  0  # atno 17321 bound_to 7965
  140.2666  144.4010  150.6166 LP  0  0  0  0  0  0  0  0  0  0  0  0  # atno 17342 bound_to 10162
  140.6119  143.2170  151.6869 LP  0  0  0  0  0  0  0  0  0  0  0  0  # atno 17343 bound_to 10162
  157.4719  130.7714  149.7332 LP  0  0  0  0  0  0  0  0  0  0  0  0  # atno 17370 bound_to 10713
  155.9897  130.3949  150.3059 LP  0  0  0  0  0  0  0  0  0  0  0  0  # atno 17371 bound_to 10713
  141.1121  133.9599  157.2890 LP  0  0  0  0  0  0  0  0  0  0  0  0  # atno 17394 bound_to 11000
  139.9413  135.0190  156.8718 LP  0  0  0  0  0  0  0  0  0  0  0  0  # atno 17395 bound_to 11000

$$$$
