AV-unprocessed.smi:63|AV-procd|sdf|608|dock4
  -GOLD-   2262016503D 1   1.00000     0.00000
 Structure written by MMmdl.
 29 30  0  0  0  0  0  0  0  0  1 V2000
  152.8108  142.3948  160.2238 C   0  0  0  0  0  0  0  0  0  0  0  0
  152.3794  141.7685  158.9144 C   0  0  0  0  0  0  0  0  0  0  0  0
  151.4151  142.3924  158.1020 C   0  0  0  0  0  0  0  0  0  0  0  0
  151.0698  141.7481  156.9018 C   0  0  0  0  0  0  0  0  0  0  0  0
  151.7111  140.5262  156.5958 C   0  0  0  0  0  0  0  0  0  0  0  0
  151.4005  139.8440  155.4007 N   0  0  0  0  0  0  0  0  0  0  0  0
  152.2904  138.7546  155.0111 C   0  0  0  0  0  0  0  0  0  0  0  0
  151.3978  137.6578  154.4193 C   0  0  0  0  0  0  0  0  0  0  0  0
  150.1438  138.4067  153.9788 C   0  0  0  0  0  0  0  0  0  0  0  0
  150.0241  139.5020  155.0441 C   0  0  2  0  0  0  0  0  0  0  0  0
  149.1555  140.7160  154.6434 C   0  0  0  0  0  0  0  0  0  0  0  0
  149.4761  141.1909  153.3513 O   0  0  0  0  0  0  0  0  0  0  0  0
  152.6340  139.9885  157.4342 N   0  0  0  0  0  0  0  0  0  0  0  0
  152.9658  140.5979  158.5772 N   0  0  0  0  0  0  0  0  0  0  0  0
  151.9390  142.6678  160.8188 H   0  0  0  0  0  0  0  0  0  0  0  0
  153.3940  143.2963  160.0345 H   0  0  0  0  0  0  0  0  0  0  0  0
  153.4218  141.7093  160.8126 H   0  0  0  0  0  0  0  0  0  0  0  0
  150.9564  143.3275  158.3873 H   0  0  0  0  0  0  0  0  0  0  0  0
  150.3299  142.1801  156.2440 H   0  0  0  0  0  0  0  0  0  0  0  0
  152.9843  139.1290  154.2579 H   0  0  0  0  0  0  0  0  0  0  0  0
  152.8754  138.3693  155.8477 H   0  0  0  0  0  0  0  0  0  0  0  0
  151.8780  137.1141  153.6056 H   0  0  0  0  0  0  0  0  0  0  0  0
  151.1380  136.9382  155.1968 H   0  0  0  0  0  0  0  0  0  0  0  0
  150.3096  138.8319  152.9883 H   0  0  0  0  0  0  0  0  0  0  0  0
  149.2623  137.7671  153.9284 H   0  0  0  0  0  0  0  0  0  0  0  0
  149.5722  139.0444  155.9256 H   0  0  0  0  0  0  0  0  0  0  0  0
  148.1047  140.4261  154.6426 H   0  0  0  0  0  0  0  0  0  0  0  0
  149.2505  141.5350  155.3553 H   0  0  0  0  0  0  0  0  0  0  0  0
  149.2798  140.5113  152.7249 H   0  0  0  0  0  0  0  0  0  0  0  0
  1  2  1  0  0  0  0
  1 15  1  0  0  0  0
  1 16  1  0  0  0  0
  1 17  1  0  0  0  0
  2 14  1  0  0  0  0
  2  3  2  0  0  0  0
  3  4  1  0  0  0  0
  3 18  1  0  0  0  0
  4  5  2  0  0  0  0
  4 19  1  0  0  0  0
  5  6  1  0  0  0  0
  5 13  1  0  0  0  0
  6 10  1  0  0  0  0
  6  7  1  0  0  0  0
  7  8  1  0  0  0  0
  7 20  1  0  0  0  0
  7 21  1  0  0  0  0
  8  9  1  0  0  0  0
  8 22  1  0  0  0  0
  8 23  1  0  0  0  0
  9 10  1  0  0  0  0
  9 24  1  0  0  0  0
  9 25  1  0  0  0  0
 10 11  1  0  0  0  0
 10 26  1  0  0  0  0
 11 12  1  0  0  0  0
 11 27  1  0  0  0  0
 11 28  1  0  0  0  0
 12 29  1  0  0  0  0
 13 14  2  0  0  0  0
M  END
> <s_m_source_file>
AV-unprocessed.smi

> <i_m_source_file_index>
63

> <i_lp_mmshare_version>
43012

> <i_f3d_flags>
0

> <s_epik_input>
W0NIM11jMVtjSF1bY0hdYyhubjEpTjJbQ0gyXVtDSDJdW0NIMl1bQ0BIXTJbQ0gyXVtPSF0=

> <s_epik_cmdline>
J2VwaWtfcHl0aG9uJywgJy1waCcsICc3LjAnLCAnLXRuJywgJzgnLCAnLW1hJywgJzIwMCcsICctbWV0YWxfYmluZGluZycsICctaW1hZScsICc8aW5maWxlLm1hZT4nLCAnLW9tYWUnLCAnPG91dGZpbGUubWFlPic=

> <r_lp_tautomer_probability>
1

> <r_epik_Ionization_Penalty>
4.30639e-05

> <r_epik_Ionization_Penalty_Charging>
0

> <r_epik_Ionization_Penalty_Neutral>
4.30639e-05

> <r_epik_State_Penalty>
-0

> <r_epik_Charging_Adjusted_Penalty>
0

> <i_epik_Tot_Q>
0

> <i_epik_Tot_abs_Q>
0

> <r_epik_Metal_State_Penalty>
-0

> <b_epik_Metal_Only>
0

> <s_lp_Force_Field>
OPLS_2005

> <r_lp_Energy>
38.8504

> <b_lp_Chiralities_Consistent>
1

> <s_lp_Variant>
AV-unprocessed.smi:63-2

> <Gold.Version>
5.8.1

> <Gold.Id.Protein>
6NUR|6NUR_protein|mol2

> <Gold.PLP.Fitness>
40.4017

> <Gold.PLP.PLP>
-31.5665

> <Gold.PLP.part.hbond>
-5.3882

> <Gold.PLP.part.metal>
0.0000

> <Gold.PLP.part.buried>
-2.1395

> <Gold.PLP.part.nonpolar>
-24.9202

> <Gold.PLP.part.repulsive>
0.0191

> <Gold.PLP.ligand.clash>
0.0000

> <Gold.PLP.ligand.torsion>
0.2764

> <Gold.PLP.Chemscore.Hbond>
3.0140

> <Gold.PLP.Chemscore.CHOScore>
0.0000

> <Gold.PLP.Chemscore.Metal>
0.0000

> <Gold.Chemscore.Hbonds>
donor molecule, donor type, donor heavy atom, donor atom, acceptor molecule, acceptor atom, score
      L1  H    12    29       P1  7957  0.82
      P1  H  7989  7998       L1     6  0.23
      P1  H  7997  8009       L1    13  0.94
      P1  H  8011  8017       L1    12  0.95

> <Gold.PLP.Chemscore.Internal.Correction>
0.3459

> <Gold.Rescore>
     Score         DG    S(hbond)    S(metal)    S(lipo)     H(rot)  DE(clash)    DE(int)     intcor
     15.29     -15.56       1.77        0.00      73.05       1.71       0.00       0.27       ----

> <Gold.Chemscore.Fitness>
15.2908

> <Gold.Chemscore.DG>
-15.5629

> <Gold.Chemscore.ZeroCoef>
-5.4800

> <Gold.Chemscore.Hbond>
1.7733

> <Gold.Chemscore.Metal>
0.0000

> <Gold.Chemscore.Lipo>
73.0549

> <Gold.Chemscore.Internal_Hbond>
0.0000

> <Gold.Chemscore.DEClash>
0.0015

> <Gold.Chemscore.DEInternal>
0.2706

> <Gold.Chemscore.Rot>
1.7138

> <Gold.Chemscore.Internal.Correction>
   9.000000E+99

> <Gold.Chemscore.Hbonds>
donor molecule, donor type, donor heavy atom, donor atom, acceptor molecule, acceptor atom, score
      L1  H    12    29       P1  7957  0.81
      P1  H  7997  8009       L1    13  0.11
      P1  H  8011  8017       L1    12  0.21

> <Gold.Chemscore.Hbond.Weighted>
-5.9227

> <Gold.Chemscore.Metal.Weighted>
-0.0000

> <Gold.Chemscore.Lipo.Weighted>
-8.5474

> <Gold.Chemscore.Internal_Hbond.Weighted>
0.0000

> <Gold.Chemscore.DEClash.Weighted>
0.0015

> <Gold.Chemscore.DEInternal.Weighted>
0.2706

> <Gold.Chemscore.Rot.Weighted>
4.3872

> <Gold.Chemscore.Internal.Correction.Weighted>
   9.000000E+99

> <Gold.Protein.RotatedTorsions>
[ 6907 6896 6895 6894 ] final   18.16 input  -60.11 | X-H torsion
[ 7974 7965 7964 7962 ] final   36.88 input  175.53 | X-H torsion
[ 8008 7997 7996 7995 ] final -171.48 input   59.86 | X-H torsion
[ 10167 10162 10161 10158 ] final  147.29 input  -65.29 | X-H torsion
[ 10718 10713 10712 10709 ] final  -68.12 input   66.30 | X-H torsion
[ 10763 10752 10751 10750 ] final   64.00 input  -60.55 | X-H torsion
[ 11005 11000 10999 10996 ] final -173.62 input  -57.11 | X-H torsion

> <Gold.Protein.ActiveResidues>
 VAL166  LYS551  ARG553  GLY616  TRP617  ASP618  TYR619  PRO620  LYS621  CYS622 
 ASP623  PHE694  ASN695  SER759  ASP760  ASP761  ALA762  ILE779  LEU786  VAL792 
 PHE793  MET794  SER795  GLU796  ALA797  LYS798  CYS799  TRP800  GLU811  SER814 

> <Gold.Protein.RotatedAtoms>
  151.8609  135.0524  160.0468 H   0  0  0  0  0  0  0  0  0  0  0  0  # atno 6907 bound_to 6896
  152.2663  133.5338  159.5420 H   0  0  0  0  0  0  0  0  0  0  0  0  # atno 6908 bound_to 6896
  150.7135  134.0676  159.3895 H   0  0  0  0  0  0  0  0  0  0  0  0  # atno 6909 bound_to 6896
  146.1178  139.5962  142.9309 H   0  0  0  0  0  0  0  0  0  0  0  0  # atno 7974 bound_to 7965
  155.9321  140.1093  157.1124 H   0  0  0  0  0  0  0  0  0  0  0  0  # atno 8008 bound_to 7997
  154.4073  140.1235  156.4882 H   0  0  0  0  0  0  0  0  0  0  0  0  # atno 8009 bound_to 7997
  155.7066  140.3471  155.4958 H   0  0  0  0  0  0  0  0  0  0  0  0  # atno 8010 bound_to 7997
  139.4892  144.5766  151.6953 H   0  0  0  0  0  0  0  0  0  0  0  0  # atno 10167 bound_to 10162
  156.0521  130.4289  150.1955 H   0  0  0  0  0  0  0  0  0  0  0  0  # atno 10718 bound_to 10713
  153.0039  135.5409  154.6440 H   0  0  0  0  0  0  0  0  0  0  0  0  # atno 10763 bound_to 10752
  154.5688  135.2840  155.0849 H   0  0  0  0  0  0  0  0  0  0  0  0  # atno 10764 bound_to 10752
  154.2023  135.6482  153.5143 H   0  0  0  0  0  0  0  0  0  0  0  0  # atno 10765 bound_to 10752
  140.4837  134.6050  157.4929 H   0  0  0  0  0  0  0  0  0  0  0  0  # atno 11005 bound_to 11000
  145.5529  141.0411  143.2268 LP  0  0  0  0  0  0  0  0  0  0  0  0  # atno 17320 bound_to 7965
  144.7569  139.7052  143.7250 LP  0  0  0  0  0  0  0  0  0  0  0  0  # atno 17321 bound_to 7965
  140.5364  144.0650  150.6072 LP  0  0  0  0  0  0  0  0  0  0  0  0  # atno 17342 bound_to 10162
  140.3657  143.2883  152.0334 LP  0  0  0  0  0  0  0  0  0  0  0  0  # atno 17343 bound_to 10162
  157.0036  130.9930  151.3384 LP  0  0  0  0  0  0  0  0  0  0  0  0  # atno 17370 bound_to 10713
  157.5458  130.8149  149.8084 LP  0  0  0  0  0  0  0  0  0  0  0  0  # atno 17371 bound_to 10713
  139.9811  134.7136  155.9859 LP  0  0  0  0  0  0  0  0  0  0  0  0  # atno 17394 bound_to 11000
  141.1518  133.6547  156.4038 LP  0  0  0  0  0  0  0  0  0  0  0  0  # atno 17395 bound_to 11000

$$$$
