AV-unprocessed.smi:663|AV-procd|sdf|3249|dock5
  -GOLD-   22720 0203D 1   1.00000     0.00000
 Structure written by MMmdl.
 29 30  0  0  0  0  0  0  0  0  2 V2000
  145.0655  133.3836  153.8364 N   0  0  0  0  0  0  0  0  0  0  0  0
  146.0498  133.3986  154.7384 C   0  0  0  0  0  0  0  0  0  0  0  0
  146.0634  132.6373  155.7036 O   0  0  0  0  0  0  0  0  0  0  0  0
  147.1713  134.4220  154.5275 C   0  0  0  0  0  0  0  0  0  0  0  0
  148.5936  133.8098  154.4962 C   0  0  2  0  0  0  0  0  0  0  0  0
  149.5736  134.8785  154.3114 N   0  0  0  0  0  0  0  0  0  0  0  0
  150.6176  135.1530  155.1077 C   0  0  0  0  0  0  0  0  0  0  0  0
  150.8215  134.4727  156.1157 O   0  0  0  0  0  0  0  0  0  0  0  0
  151.3597  136.2023  154.6856 N   0  5  0  0  0  0  0  0  0  0  0  0
  150.8526  137.4454  154.7271 C   0  0  0  0  0  0  0  0  0  0  0  0
  151.6156  138.5380  154.5613 N   0  0  0  0  0  0  0  0  0  0  0  0
  150.8982  139.7235  154.6488 N   0  0  0  0  0  0  0  0  0  0  0  0
  149.6074  139.4936  154.8875 C   0  0  0  0  0  0  0  0  0  0  0  0
  149.1512  137.8090  155.0294 S   0  0  0  0  0  0  0  0  0  0  0  0
  148.7323  132.7337  153.4295 C   0  0  0  0  0  0  0  0  0  0  0  0
  147.9953  131.4166  153.5163 C   0  0  0  0  0  0  0  0  0  0  0  0
  149.4935  131.4605  153.7111 C   0  0  0  0  0  0  0  0  0  0  0  0
  144.3057  132.7261  153.9355 H   0  0  0  0  0  0  0  0  0  0  0  0
  145.0843  134.0287  153.0600 H   0  0  0  0  0  0  0  0  0  0  0  0
  146.9929  134.9860  153.6105 H   0  0  0  0  0  0  0  0  0  0  0  0
  147.0960  135.1421  155.3435 H   0  0  0  0  0  0  0  0  0  0  0  0
  148.7948  133.3344  155.4585 H   0  0  0  0  0  0  0  0  0  0  0  0
  149.4519  135.4655  153.4994 H   0  0  0  0  0  0  0  0  0  0  0  0
  148.9202  140.3211  154.9833 H   0  0  0  0  0  0  0  0  0  0  0  0
  148.8573  133.1372  152.4261 H   0  0  0  0  0  0  0  0  0  0  0  0
  147.3853  131.2270  154.3971 H   0  0  0  0  0  0  0  0  0  0  0  0
  147.6190  130.9914  152.5883 H   0  0  0  0  0  0  0  0  0  0  0  0
  150.1179  131.0629  152.9137 H   0  0  0  0  0  0  0  0  0  0  0  0
  149.8732  131.3112  154.7200 H   0  0  0  0  0  0  0  0  0  0  0  0
  1  2  1  0  0  0  0
  1 18  1  0  0  0  0
  1 19  1  0  0  0  0
  2  3  2  0  0  0  0
  2  4  1  0  0  0  0
  4  5  1  0  0  0  0
  4 20  1  0  0  0  0
  4 21  1  0  0  0  0
  5  6  1  0  0  0  0
  5 15  1  0  0  0  0
  5 22  1  0  0  0  0
  6  7  1  0  0  0  0
  6 23  1  0  0  0  0
  7  8  2  0  0  0  0
  7  9  1  0  0  0  0
  9 10  1  0  0  0  0
 10 14  1  0  0  0  0
 10 11  2  0  0  0  0
 11 12  1  0  0  0  0
 12 13  2  0  0  0  0
 13 14  1  0  0  0  0
 13 24  1  0  0  0  0
 15 17  1  0  0  0  0
 15 16  1  0  0  0  0
 15 25  1  0  0  0  0
 16 17  1  0  0  0  0
 16 26  1  0  0  0  0
 16 27  1  0  0  0  0
 17 28  1  0  0  0  0
 17 29  1  0  0  0  0
M  CHG  1   9  -1
M  END
> <s_m_source_file>
AV-unprocessed.smi

> <i_m_source_file_index>
663

> <i_lp_mmshare_version>
43012

> <i_f3d_flags>
0

> <s_epik_input>
W05IMl1DKD1PKVtDSDJdW0NAQEhdKFtDSF0xW0NIMl1bQ0gyXTEpW05IXUMoPU8pW05IXWMybm5bY0hdczI=

> <s_epik_cmdline>
J2VwaWtfcHl0aG9uJywgJy1waCcsICc3LjAnLCAnLXRuJywgJzgnLCAnLW1hJywgJzIwMCcsICctbWV0YWxfYmluZGluZycsICctaW1hZScsICc8aW5maWxlLm1hZT4nLCAnLW9tYWUnLCAnPG91dGZpbGUubWFlPic=

> <r_lp_tautomer_probability>
1

> <r_epik_Ionization_Penalty>
4.41895

> <r_epik_Ionization_Penalty_Charging>
4.37725

> <r_epik_Ionization_Penalty_Neutral>
0.0416999

> <r_epik_State_Penalty>
4.37688

> <r_epik_Charging_Adjusted_Penalty>
8.75413

> <i_epik_Tot_Q>
-1

> <i_epik_Tot_abs_Q>
1

> <r_epik_Metal_State_Penalty>
0.761195

> <b_epik_Metal_Only>
1

> <s_lp_Force_Field>
OPLS_2005

> <r_lp_Energy>
9.70165

> <b_lp_Chiralities_Consistent>
1

> <s_lp_Variant>
AV-unprocessed.smi:663-3

> <Gold.Version>
5.8.1

> <Gold.Id.Protein>
6NUR|6NUR_protein|mol2

> <Gold.PLP.Fitness>
36.4589

> <Gold.PLP.PLP>
-23.1954

> <Gold.PLP.part.hbond>
-4.0000

> <Gold.PLP.part.metal>
0.0000

> <Gold.PLP.part.buried>
-5.2416

> <Gold.PLP.part.nonpolar>
-15.6964

> <Gold.PLP.part.repulsive>
0.5569

> <Gold.PLP.ligand.clash>
0.0000

> <Gold.PLP.ligand.torsion>
1.3538

> <Gold.PLP.Chemscore.Hbond>
4.9500

> <Gold.PLP.Chemscore.CHOScore>
0.0000

> <Gold.PLP.Chemscore.Metal>
0.0000

> <Gold.Chemscore.Hbonds>
donor molecule, donor type, donor heavy atom, donor atom, acceptor molecule, acceptor atom, score
      L1  H     1    18       P1 10957  0.89
      L1  H     6    23       P1  7948  0.90
      P1  H  7989  7998       L1    12  1.00
      P1  H 10752 10764       L1     9  2.00

> <Gold.PLP.Chemscore.Internal.Correction>
1.1212

> <Gold.Rescore>
     Score         DG    S(hbond)    S(metal)    S(lipo)     H(rot)  DE(clash)    DE(int)     intcor
     12.23     -13.96       3.46        0.00      28.25       2.49       0.15       1.58       ----

> <Gold.Chemscore.Fitness>
12.2327

> <Gold.Chemscore.DG>
-13.9619

> <Gold.Chemscore.ZeroCoef>
-5.4800

> <Gold.Chemscore.Hbond>
3.4557

> <Gold.Chemscore.Metal>
0.0000

> <Gold.Chemscore.Lipo>
28.2464

> <Gold.Chemscore.Internal_Hbond>
0.0000

> <Gold.Chemscore.DEClash>
0.1461

> <Gold.Chemscore.DEInternal>
1.5832

> <Gold.Chemscore.Rot>
2.4863

> <Gold.Chemscore.Internal.Correction>
   9.000000E+99

> <Gold.Chemscore.Hbonds>
donor molecule, donor type, donor heavy atom, donor atom, acceptor molecule, acceptor atom, score
      L1  H     1    18       P1 10957  0.68
      L1  H     6    23       P1  7948  0.18
      P1  H  7989  7998       L1    12  0.60
      P1  H 10752 10764       L1     9  0.55

> <Gold.Chemscore.Hbond.Weighted>
-11.5420

> <Gold.Chemscore.Metal.Weighted>
-0.0000

> <Gold.Chemscore.Lipo.Weighted>
-3.3048

> <Gold.Chemscore.Internal_Hbond.Weighted>
0.0000

> <Gold.Chemscore.DEClash.Weighted>
0.1461

> <Gold.Chemscore.DEInternal.Weighted>
1.5832

> <Gold.Chemscore.Rot.Weighted>
6.3648

> <Gold.Chemscore.Internal.Correction.Weighted>
   9.000000E+99

> <Gold.Protein.RotatedTorsions>
[ 6907 6896 6895 6894 ] final  137.48 input  -60.11 | X-H torsion
[ 7974 7965 7964 7962 ] final  177.49 input  175.53 | X-H torsion
[ 8008 7997 7996 7995 ] final -137.01 input   59.86 | X-H torsion
[ 10167 10162 10161 10158 ] final  -62.91 input  -65.29 | X-H torsion
[ 10718 10713 10712 10709 ] final  156.78 input   66.30 | X-H torsion
[ 10763 10752 10751 10750 ] final  -68.98 input  -60.55 | X-H torsion
[ 11005 11000 10999 10996 ] final  -71.65 input  -57.11 | X-H torsion

> <Gold.Protein.ActiveResidues>
 VAL166  LYS551  ARG553  GLY616  TRP617  ASP618  TYR619  PRO620  LYS621  CYS622 
 ASP623  PHE694  ASN695  SER759  ASP760  ASP761  ALA762  ILE779  LEU786  VAL792 
 PHE793  MET794  SER795  GLU796  ALA797  LYS798  CYS799  TRP800  GLU811  SER814 

> <Gold.Protein.RotatedAtoms>
  152.2776  133.5440  159.5477 H   0  0  0  0  0  0  0  0  0  0  0  0  # atno 6907 bound_to 6896
  150.7183  134.0609  159.3840 H   0  0  0  0  0  0  0  0  0  0  0  0  # atno 6908 bound_to 6896
  151.8522  135.0554  160.0511 H   0  0  0  0  0  0  0  0  0  0  0  0  # atno 6909 bound_to 6896
  144.7168  140.0255  143.6439 H   0  0  0  0  0  0  0  0  0  0  0  0  # atno 7974 bound_to 7965
  155.4047  140.0508  157.3035 H   0  0  0  0  0  0  0  0  0  0  0  0  # atno 8008 bound_to 7997
  154.4974  140.2144  155.9378 H   0  0  0  0  0  0  0  0  0  0  0  0  # atno 8009 bound_to 7997
  156.1423  140.3152  155.8520 H   0  0  0  0  0  0  0  0  0  0  0  0  # atno 8010 bound_to 7997
  140.5907  143.2341  151.6145 H   0  0  0  0  0  0  0  0  0  0  0  0  # atno 10167 bound_to 10162
  157.2003  131.0675  151.2029 H   0  0  0  0  0  0  0  0  0  0  0  0  # atno 10718 bound_to 10713
  154.3968  135.6040  153.5874 H   0  0  0  0  0  0  0  0  0  0  0  0  # atno 10763 bound_to 10752
  152.9788  135.5897  154.4232 H   0  0  0  0  0  0  0  0  0  0  0  0  # atno 10764 bound_to 10752
  154.4024  135.2843  155.2066 H   0  0  0  0  0  0  0  0  0  0  0  0  # atno 10765 bound_to 10752
  141.1596  133.6823  156.6938 H   0  0  0  0  0  0  0  0  0  0  0  0  # atno 11005 bound_to 11000
  146.0146  139.3198  143.0850 LP  0  0  0  0  0  0  0  0  0  0  0  0  # atno 17320 bound_to 7965
  145.8641  140.9458  143.0684 LP  0  0  0  0  0  0  0  0  0  0  0  0  # atno 17321 bound_to 7965
  139.5226  144.3159  152.0953 LP  0  0  0  0  0  0  0  0  0  0  0  0  # atno 17342 bound_to 10162
  140.2323  144.4355  150.6295 LP  0  0  0  0  0  0  0  0  0  0  0  0  # atno 17343 bound_to 10162
  157.3774  130.7213  149.6606 LP  0  0  0  0  0  0  0  0  0  0  0  0  # atno 17370 bound_to 10713
  155.9701  130.4182  150.4316 LP  0  0  0  0  0  0  0  0  0  0  0  0  # atno 17371 bound_to 10713
  140.3010  134.8164  157.4098 LP  0  0  0  0  0  0  0  0  0  0  0  0  # atno 17394 bound_to 11000
  140.1262  134.5155  155.8143 LP  0  0  0  0  0  0  0  0  0  0  0  0  # atno 17395 bound_to 11000

$$$$
