AV-unprocessed.smi:816|AV-procd|sdf|3826|dock5
  -GOLD-   22720 1263D 1   1.00000     0.00000
 Structure written by MMmdl.
 40 41  0  0  0  0  0  0  0  0  1 V2000
  146.6996  137.3421  162.5029 C   0  0  0  0  0  0  0  0  0  0  0  0
  147.2849  136.3565  161.5278 C   0  0  0  0  0  0  0  0  0  0  0  0
  147.8201  136.8471  160.4585 N   0  0  0  0  0  0  0  0  0  0  0  0
  148.3859  136.0316  159.4980 N   0  0  0  0  0  0  0  0  0  0  0  0
  148.9323  136.7567  158.3456 C   0  0  0  0  0  0  0  0  0  0  0  0
  150.2376  137.5019  158.7061 C   0  0  2  0  0  0  0  0  0  0  0  0
  150.5756  137.2158  160.0483 O   0  0  0  0  0  0  0  0  0  0  0  0
  150.0888  139.0269  158.5955 C   0  0  0  0  0  0  0  0  0  0  0  0
  151.3374  139.6305  158.9092 O   0  0  0  0  0  0  0  0  0  0  0  0
  151.3817  140.9991  159.0642 C   0  0  0  0  0  0  0  0  0  0  0  0
  152.3954  141.5157  159.8969 C   0  0  0  0  0  0  0  0  0  0  0  0
  152.5185  142.9024  160.1095 C   0  0  0  0  0  0  0  0  0  0  0  0
  151.6212  143.7928  159.4877 C   0  0  0  0  0  0  0  0  0  0  0  0
  151.7449  145.2247  159.7038 C   0  0  0  0  0  0  0  0  0  0  0  0
  151.8437  146.3646  159.8759 N   0  0  0  0  0  0  0  0  0  0  0  0
  150.6021  143.2887  158.6555 C   0  0  0  0  0  0  0  0  0  0  0  0
  150.4808  141.9014  158.4441 C   0  0  0  0  0  0  0  0  0  0  0  0
  148.4264  134.6707  159.5602 C   0  0  0  0  0  0  0  0  0  0  0  0
  148.9199  133.9808  158.6668 O   0  0  0  0  0  0  0  0  0  0  0  0
  147.8255  134.1212  160.7777 C   0  0  0  0  0  0  0  0  0  0  0  0
  147.8560  132.6983  160.8888 C   0  0  0  0  0  0  0  0  0  0  0  0
  147.8903  131.5461  160.9962 N   0  0  0  0  0  0  0  0  0  0  0  0
  147.2754  134.9116  161.7333 C   0  0  0  0  0  0  0  0  0  0  0  0
  146.6360  134.3908  163.0132 C   0  0  0  0  0  0  0  0  0  0  0  0
  147.2488  137.3257  163.4441 H   0  0  0  0  0  0  0  0  0  0  0  0
  145.6564  137.1074  162.7145 H   0  0  0  0  0  0  0  0  0  0  0  0
  146.7330  138.3628  162.1189 H   0  0  0  0  0  0  0  0  0  0  0  0
  149.1346  136.0276  157.5584 H   0  0  0  0  0  0  0  0  0  0  0  0
  148.1963  137.4319  157.9043 H   0  0  0  0  0  0  0  0  0  0  0  0
  151.0601  137.1808  158.0650 H   0  0  0  0  0  0  0  0  0  0  0  0
  150.4472  137.9980  160.5637 H   0  0  0  0  0  0  0  0  0  0  0  0
  149.7648  139.3000  157.5895 H   0  0  0  0  0  0  0  0  0  0  0  0
  149.3343  139.3766  159.3026 H   0  0  0  0  0  0  0  0  0  0  0  0
  153.0885  140.8406  160.3775 H   0  0  0  0  0  0  0  0  0  0  0  0
  153.3043  143.2757  160.7506 H   0  0  0  0  0  0  0  0  0  0  0  0
  149.9073  143.9620  158.1741 H   0  0  0  0  0  0  0  0  0  0  0  0
  149.6861  141.5545  157.8015 H   0  0  0  0  0  0  0  0  0  0  0  0
  146.7407  133.3112  163.1173 H   0  0  0  0  0  0  0  0  0  0  0  0
  145.5702  134.6211  163.0271 H   0  0  0  0  0  0  0  0  0  0  0  0
  147.0989  134.8475  163.8886 H   0  0  0  0  0  0  0  0  0  0  0  0
  1  2  1  0  0  0  0
  1 25  1  0  0  0  0
  1 26  1  0  0  0  0
  1 27  1  0  0  0  0
  2 23  1  0  0  0  0
  2  3  2  0  0  0  0
  3  4  1  0  0  0  0
  4  5  1  0  0  0  0
  4 18  1  0  0  0  0
  5  6  1  0  0  0  0
  5 28  1  0  0  0  0
  5 29  1  0  0  0  0
  6  7  1  0  0  0  0
  6  8  1  0  0  0  0
  6 30  1  0  0  0  0
  7 31  1  0  0  0  0
  8  9  1  0  0  0  0
  8 32  1  0  0  0  0
  8 33  1  0  0  0  0
  9 10  1  0  0  0  0
 10 17  1  0  0  0  0
 10 11  2  0  0  0  0
 11 12  1  0  0  0  0
 11 34  1  0  0  0  0
 12 13  2  0  0  0  0
 12 35  1  0  0  0  0
 13 14  1  0  0  0  0
 13 16  1  0  0  0  0
 14 15  3  0  0  0  0
 16 17  2  0  0  0  0
 16 36  1  0  0  0  0
 17 37  1  0  0  0  0
 18 19  2  0  0  0  0
 18 20  1  0  0  0  0
 20 21  1  0  0  0  0
 20 23  2  0  0  0  0
 21 22  3  0  0  0  0
 23 24  1  0  0  0  0
 24 38  1  0  0  0  0
 24 39  1  0  0  0  0
 24 40  1  0  0  0  0
M  END
> <s_m_source_file>
AV-unprocessed.smi

> <i_m_source_file_index>
816

> <i_lp_mmshare_version>
43012

> <i_f3d_flags>
0

> <s_epik_input>
TiNDYyhjMVtDSDNdKWMoPU8pbihuYzFbQ0gzXSlbQ0gyXVtDQEhdKFtPSF0pW0NIMl1PYzJbY0hdW2NIXWMoQyNOKVtjSF1bY0hdMg==

> <s_epik_cmdline>
J2VwaWtfcHl0aG9uJywgJy1waCcsICc3LjAnLCAnLXRuJywgJzgnLCAnLW1hJywgJzIwMCcsICctbWV0YWxfYmluZGluZycsICctaW1hZScsICc8aW5maWxlLm1hZT4nLCAnLW9tYWUnLCAnPG91dGZpbGUubWFlPic=

> <r_lp_tautomer_probability>
1

> <r_epik_Ionization_Penalty>
1.1732e-07

> <r_epik_Ionization_Penalty_Charging>
1.4567e-10

> <r_epik_Ionization_Penalty_Neutral>
1.17174e-07

> <r_epik_State_Penalty>
-0

> <r_epik_Charging_Adjusted_Penalty>
1.4567e-10

> <i_epik_Tot_Q>
0

> <i_epik_Tot_abs_Q>
0

> <r_epik_Metal_State_Penalty>
-0

> <b_epik_Metal_Only>
0

> <s_lp_Force_Field>
OPLS_2005

> <r_lp_Energy>
30.0039

> <b_lp_Chiralities_Consistent>
1

> <s_lp_Variant>
AV-unprocessed.smi:816-1

> <Gold.Version>
5.8.1

> <Gold.Id.Protein>
6NUR|6NUR_protein|mol2

> <Gold.PLP.Fitness>
46.9305

> <Gold.PLP.PLP>
-44.4635

> <Gold.PLP.part.hbond>
-4.9300

> <Gold.PLP.part.metal>
0.0000

> <Gold.PLP.part.buried>
-2.0283

> <Gold.PLP.part.nonpolar>
-38.4076

> <Gold.PLP.part.repulsive>
0.2119

> <Gold.PLP.ligand.clash>
0.0000

> <Gold.PLP.ligand.torsion>
1.2604

> <Gold.PLP.Chemscore.Hbond>
1.6567

> <Gold.PLP.Chemscore.CHOScore>
0.0000

> <Gold.PLP.Chemscore.Metal>
0.0000

> <Gold.Chemscore.Hbonds>
donor molecule, donor type, donor heavy atom, donor atom, acceptor molecule, acceptor atom, score
      P1  H  6896  6907       L1     7  0.46
      P1  H  6896  6909       L1    19  0.90
      P1  H  6931  6943       L1     3  0.07
      P1  H  6934  6947       L1     3  0.20

> <Gold.PLP.Chemscore.Internal.Correction>
0.0176

> <Gold.Rescore>
     Score         DG    S(hbond)    S(metal)    S(lipo)     H(rot)  DE(clash)    DE(int)     intcor
     11.63     -13.07       0.85        0.00      97.95       2.62       0.28       1.16       ----

> <Gold.Chemscore.Fitness>
11.6267

> <Gold.Chemscore.DG>
-13.0692

> <Gold.Chemscore.ZeroCoef>
-5.4800

> <Gold.Chemscore.Hbond>
0.8508

> <Gold.Chemscore.Metal>
0.0000

> <Gold.Chemscore.Lipo>
97.9496

> <Gold.Chemscore.Internal_Hbond>
0.0000

> <Gold.Chemscore.DEClash>
0.2841

> <Gold.Chemscore.DEInternal>
1.1584

> <Gold.Chemscore.Rot>
2.6222

> <Gold.Chemscore.Internal.Correction>
   9.000000E+99

> <Gold.Chemscore.Hbonds>
donor molecule, donor type, donor heavy atom, donor atom, acceptor molecule, acceptor atom, score
      P1  H  6896  6907       L1     7  0.22
      P1  H  6896  6909       L1    19  0.30
      P1  H  6934  6947       L1     3  0.03

> <Gold.Chemscore.Hbond.Weighted>
-2.8418

> <Gold.Chemscore.Metal.Weighted>
-0.0000

> <Gold.Chemscore.Lipo.Weighted>
-11.4601

> <Gold.Chemscore.Internal_Hbond.Weighted>
0.0000

> <Gold.Chemscore.DEClash.Weighted>
0.2841

> <Gold.Chemscore.DEInternal.Weighted>
1.1584

> <Gold.Chemscore.Rot.Weighted>
6.7127

> <Gold.Chemscore.Internal.Correction.Weighted>
   9.000000E+99

> <Gold.Protein.RotatedTorsions>
[ 6907 6896 6895 6894 ] final   -1.96 input  -60.11 | X-H torsion
[ 7974 7965 7964 7962 ] final   -6.20 input  175.53 | X-H torsion
[ 8008 7997 7996 7995 ] final  -24.91 input   59.86 | X-H torsion
[ 10167 10162 10161 10158 ] final  140.20 input  -65.29 | X-H torsion
[ 10718 10713 10712 10709 ] final  -63.60 input   66.30 | X-H torsion
[ 10763 10752 10751 10750 ] final -126.64 input  -60.55 | X-H torsion
[ 11005 11000 10999 10996 ] final   -3.27 input  -57.11 | X-H torsion

> <Gold.Protein.ActiveResidues>
 VAL166  LYS551  ARG553  GLY616  TRP617  ASP618  TYR619  PRO620  LYS621  CYS622 
 ASP623  PHE694  ASN695  SER759  ASP760  ASP761  ALA762  ILE779  LEU786  VAL792 
 PHE793  MET794  SER795  GLU796  ALA797  LYS798  CYS799  TRP800  GLU811  SER814 

> <Gold.Protein.RotatedAtoms>
  151.5377  135.1068  159.9918 H   0  0  0  0  0  0  0  0  0  0  0  0  # atno 6907 bound_to 6896
  152.4550  133.7700  159.6804 H   0  0  0  0  0  0  0  0  0  0  0  0  # atno 6908 bound_to 6896
  150.8490  133.7750  159.3057 H   0  0  0  0  0  0  0  0  0  0  0  0  # atno 6909 bound_to 6896
  146.2336  140.2134  142.8336 H   0  0  0  0  0  0  0  0  0  0  0  0  # atno 7974 bound_to 7965
  154.4504  140.1941  156.0537 H   0  0  0  0  0  0  0  0  0  0  0  0  # atno 8008 bound_to 7997
  156.0635  140.3294  155.7462 H   0  0  0  0  0  0  0  0  0  0  0  0  # atno 8009 bound_to 7997
  155.5375  140.0583  157.2867 H   0  0  0  0  0  0  0  0  0  0  0  0  # atno 8010 bound_to 7997
  139.5056  144.6248  151.5963 H   0  0  0  0  0  0  0  0  0  0  0  0  # atno 10167 bound_to 10162
  156.0781  130.4223  150.1300 H   0  0  0  0  0  0  0  0  0  0  0  0  # atno 10718 bound_to 10713
  154.8747  135.3989  154.3463 H   0  0  0  0  0  0  0  0  0  0  0  0  # atno 10763 bound_to 10752
  153.4255  135.7024  153.6270 H   0  0  0  0  0  0  0  0  0  0  0  0  # atno 10764 bound_to 10752
  153.4914  135.3747  155.2463 H   0  0  0  0  0  0  0  0  0  0  0  0  # atno 10765 bound_to 10752
  140.6674  133.9266  155.8473 H   0  0  0  0  0  0  0  0  0  0  0  0  # atno 11005 bound_to 11000
  144.9688  140.8348  143.5468 LP  0  0  0  0  0  0  0  0  0  0  0  0  # atno 17320 bound_to 7965
  145.2113  139.2203  143.5141 LP  0  0  0  0  0  0  0  0  0  0  0  0  # atno 17321 bound_to 7965
  140.5962  143.9692  150.6356 LP  0  0  0  0  0  0  0  0  0  0  0  0  # atno 17342 bound_to 10162
  140.2888  143.3338  152.1082 LP  0  0  0  0  0  0  0  0  0  0  0  0  # atno 17343 bound_to 10162
  156.9337  130.9722  151.3528 LP  0  0  0  0  0  0  0  0  0  0  0  0  # atno 17370 bound_to 10713
  157.5886  130.8427  149.8625 LP  0  0  0  0  0  0  0  0  0  0  0  0  # atno 17371 bound_to 10713
  141.0418  134.0610  157.3892 LP  0  0  0  0  0  0  0  0  0  0  0  0  # atno 17394 bound_to 11000
  139.8992  135.0158  156.7187 LP  0  0  0  0  0  0  0  0  0  0  0  0  # atno 17395 bound_to 11000

$$$$
