AV-unprocessed.smi:630|AV-procd|sdf|3117|dock4
  -GOLD-   22720 0 43D 1   1.00000     0.00000
 Structure written by MMmdl.
 37 38  0  0  0  0  0  0  0  0  1 V2000
  149.6851  136.6279  154.4795 N   0  0  0  0  0  0  0  0  0  0  0  0
  149.7541  137.8206  155.0771 C   0  0  0  0  0  0  0  0  0  0  0  0
  150.3496  137.9833  156.1404 O   0  0  0  0  0  0  0  0  0  0  0  0
  149.0513  139.0024  154.3814 C   0  0  2  0  0  0  0  0  0  0  0  0
  149.3059  140.2912  155.2003 C   0  0  0  0  0  0  0  0  0  0  0  0
  149.0660  141.5793  154.3958 C   0  0  0  0  0  0  0  0  0  0  0  0
  147.6234  142.1094  154.4294 C   0  0  0  0  0  0  0  0  0  0  0  0
  146.5111  141.0481  154.4010 C   0  0  0  0  0  0  0  0  0  0  0  0
  146.7628  139.8552  153.4646 C   0  0  0  0  0  0  0  0  0  0  0  0
  147.5454  138.6998  154.1325 C   0  0  1  0  0  0  0  0  0  0  0  0
  147.4145  137.5008  153.2995 N   0  0  0  0  0  0  0  0  0  0  0  0
  146.2735  136.8389  153.0554 C   0  0  0  0  0  0  0  0  0  0  0  0
  145.1748  137.1955  153.4819 O   0  0  0  0  0  0  0  0  0  0  0  0
  146.4970  135.7529  152.2952 N   0  0  0  0  0  0  0  0  0  0  0  0
  145.5579  134.7897  151.8421 C   0  0  0  0  0  0  0  0  0  0  0  0
  144.2298  134.9372  151.9148 N   0  0  0  0  0  0  0  0  0  0  0  0
  143.5501  133.8323  151.3964 C   0  0  0  0  0  0  0  0  0  0  0  0
  144.3822  132.8457  150.9287 C   0  0  0  0  0  0  0  0  0  0  0  0
  146.0628  133.2678  151.1224 S   0  0  0  0  0  0  0  0  0  0  0  0
  150.1369  135.8304  154.9034 H   0  0  0  0  0  0  0  0  0  0  0  0
  149.1873  136.5269  153.6072 H   0  0  0  0  0  0  0  0  0  0  0  0
  149.5302  139.1287  153.4084 H   0  0  0  0  0  0  0  0  0  0  0  0
  148.7200  140.2958  156.1206 H   0  0  0  0  0  0  0  0  0  0  0  0
  150.3496  140.3034  155.5196 H   0  0  0  0  0  0  0  0  0  0  0  0
  149.7188  142.3643  154.7790 H   0  0  0  0  0  0  0  0  0  0  0  0
  149.3785  141.4295  153.3619 H   0  0  0  0  0  0  0  0  0  0  0  0
  147.4872  142.7181  155.3242 H   0  0  0  0  0  0  0  0  0  0  0  0
  147.4910  142.7919  153.5891 H   0  0  0  0  0  0  0  0  0  0  0  0
  146.3235  140.6835  155.4117 H   0  0  0  0  0  0  0  0  0  0  0  0
  145.5865  141.5434  154.1022 H   0  0  0  0  0  0  0  0  0  0  0  0
  145.7846  139.4773  153.1630 H   0  0  0  0  0  0  0  0  0  0  0  0
  147.2486  140.1788  152.5431 H   0  0  0  0  0  0  0  0  0  0  0  0
  147.0814  138.4941  155.0995 H   0  0  0  0  0  0  0  0  0  0  0  0
  148.2661  137.1353  152.8999 H   0  0  0  0  0  0  0  0  0  0  0  0
  147.4534  135.5886  152.0184 H   0  0  0  0  0  0  0  0  0  0  0  0
  142.4701  133.8318  151.3997 H   0  0  0  0  0  0  0  0  0  0  0  0
  144.1095  131.9002  150.4841 H   0  0  0  0  0  0  0  0  0  0  0  0
  1  2  1  0  0  0  0
  1 20  1  0  0  0  0
  1 21  1  0  0  0  0
  2  3  2  0  0  0  0
  2  4  1  0  0  0  0
  4 10  1  0  0  0  0
  4  5  1  0  0  0  0
  4 22  1  0  0  0  0
  5  6  1  0  0  0  0
  5 23  1  0  0  0  0
  5 24  1  0  0  0  0
  6  7  1  0  0  0  0
  6 25  1  0  0  0  0
  6 26  1  0  0  0  0
  7  8  1  0  0  0  0
  7 27  1  0  0  0  0
  7 28  1  0  0  0  0
  8  9  1  0  0  0  0
  8 29  1  0  0  0  0
  8 30  1  0  0  0  0
  9 10  1  0  0  0  0
  9 31  1  0  0  0  0
  9 32  1  0  0  0  0
 10 11  1  0  0  0  0
 10 33  1  0  0  0  0
 11 12  1  0  0  0  0
 11 34  1  0  0  0  0
 12 13  2  0  0  0  0
 12 14  1  0  0  0  0
 14 15  1  0  0  0  0
 14 35  1  0  0  0  0
 15 19  1  0  0  0  0
 15 16  2  0  0  0  0
 16 17  1  0  0  0  0
 17 18  2  0  0  0  0
 17 36  1  0  0  0  0
 18 19  1  0  0  0  0
 18 37  1  0  0  0  0
M  END
> <s_m_source_file>
AV-unprocessed.smi

> <i_m_source_file_index>
630

> <i_lp_mmshare_version>
43012

> <i_f3d_flags>
0

> <s_epik_input>
W05IMl1DKD1PKVtDQEBIXTFbQ0gyXVtDSDJdW0NIMl1bQ0gyXVtDSDJdW0NASF0xW05IXUMoPU8pW05IXWMybltjSF1bY0hdczI=

> <s_epik_cmdline>
J2VwaWtfcHl0aG9uJywgJy1waCcsICc3LjAnLCAnLXRuJywgJzgnLCAnLW1hJywgJzIwMCcsICctbWV0YWxfYmluZGluZycsICctaW1hZScsICc8aW5maWxlLm1hZT4nLCAnLW9tYWUnLCAnPG91dGZpbGUubWFlPic=

> <r_lp_tautomer_probability>
0.999

> <r_epik_Ionization_Penalty>
0.000342689

> <r_epik_Ionization_Penalty_Charging>
0

> <r_epik_Ionization_Penalty_Neutral>
0.000342689

> <r_epik_State_Penalty>
0.000177984

> <r_epik_Charging_Adjusted_Penalty>
0.000177984

> <i_epik_Tot_Q>
0

> <i_epik_Tot_abs_Q>
0

> <r_epik_Metal_State_Penalty>
0.00743087

> <b_epik_Metal_Only>
0

> <s_lp_Force_Field>
OPLS_2005

> <r_lp_Energy>
11.5687

> <b_lp_Chiralities_Consistent>
1

> <s_lp_Variant>
AV-unprocessed.smi:630-1

> <Gold.Version>
5.8.1

> <Gold.Id.Protein>
6NUR|6NUR_protein|mol2

> <Gold.PLP.Fitness>
37.1196

> <Gold.PLP.PLP>
-25.5607

> <Gold.PLP.part.hbond>
-2.7004

> <Gold.PLP.part.metal>
0.0000

> <Gold.PLP.part.buried>
-0.8710

> <Gold.PLP.part.nonpolar>
-22.6373

> <Gold.PLP.part.repulsive>
0.3734

> <Gold.PLP.ligand.clash>
0.0000

> <Gold.PLP.ligand.torsion>
0.1196

> <Gold.PLP.Chemscore.Hbond>
2.9520

> <Gold.PLP.Chemscore.CHOScore>
0.9607

> <Gold.PLP.Chemscore.Metal>
0.0000

> <Gold.Chemscore.Hbonds>
donor molecule, donor type, donor heavy atom, donor atom, acceptor molecule, acceptor atom, score
      L1  H     1    21       P1  7948  1.00
      L1  H    11    34       P1  7948  0.99
      L1  H    14    35       P1  7948  0.96
      L1  C    17    36       P1 10186  0.95

> <Gold.PLP.Chemscore.Internal.Correction>
0.0601

> <Gold.Rescore>
     Score         DG    S(hbond)    S(metal)    S(lipo)     H(rot)  DE(clash)    DE(int)     intcor
     15.05     -18.25       2.87        0.00      60.47       1.52       0.29       2.91       ----

> <Gold.Chemscore.Fitness>
15.0547

> <Gold.Chemscore.DG>
-18.2517

> <Gold.Chemscore.ZeroCoef>
-5.4800

> <Gold.Chemscore.Hbond>
2.8693

> <Gold.Chemscore.Metal>
0.0000

> <Gold.Chemscore.Lipo>
60.4737

> <Gold.Chemscore.Internal_Hbond>
0.0000

> <Gold.Chemscore.DEClash>
0.2891

> <Gold.Chemscore.DEInternal>
2.9079

> <Gold.Chemscore.Rot>
1.5184

> <Gold.Chemscore.Internal.Correction>
   9.000000E+99

> <Gold.Chemscore.Hbonds>
donor molecule, donor type, donor heavy atom, donor atom, acceptor molecule, acceptor atom, score
      L1  H     1    21       P1  7948  0.95
      L1  H    11    34       P1  7948  0.88
      L1  H    14    35       P1  7948  0.91

> <Gold.Chemscore.Hbond.Weighted>
-9.5835

> <Gold.Chemscore.Metal.Weighted>
-0.0000

> <Gold.Chemscore.Lipo.Weighted>
-7.0754

> <Gold.Chemscore.Internal_Hbond.Weighted>
0.0000

> <Gold.Chemscore.DEClash.Weighted>
0.2891

> <Gold.Chemscore.DEInternal.Weighted>
2.9079

> <Gold.Chemscore.Rot.Weighted>
3.8872

> <Gold.Chemscore.Internal.Correction.Weighted>
   9.000000E+99

> <Gold.Protein.RotatedTorsions>
[ 6907 6896 6895 6894 ] final   15.85 input  -60.11 | X-H torsion
[ 7974 7965 7964 7962 ] final  143.79 input  175.53 | X-H torsion
[ 8008 7997 7996 7995 ] final -117.69 input   59.86 | X-H torsion
[ 10167 10162 10161 10158 ] final  118.21 input  -65.29 | X-H torsion
[ 10718 10713 10712 10709 ] final  106.10 input   66.30 | X-H torsion
[ 10763 10752 10751 10750 ] final   86.36 input  -60.55 | X-H torsion
[ 11005 11000 10999 10996 ] final   74.96 input  -57.11 | X-H torsion

> <Gold.Protein.ActiveResidues>
 VAL166  LYS551  ARG553  GLY616  TRP617  ASP618  TYR619  PRO620  LYS621  CYS622 
 ASP623  PHE694  ASN695  SER759  ASP760  ASP761  ALA762  ILE779  LEU786  VAL792 
 PHE793  MET794  SER795  GLU796  ALA797  LYS798  CYS799  TRP800  GLU811  SER814 

> <Gold.Protein.RotatedAtoms>
  151.8246  135.0641  160.0429 H   0  0  0  0  0  0  0  0  0  0  0  0  # atno 6907 bound_to 6896
  152.2925  133.5571  159.5575 H   0  0  0  0  0  0  0  0  0  0  0  0  # atno 6908 bound_to 6896
  150.7236  134.0324  159.3780 H   0  0  0  0  0  0  0  0  0  0  0  0  # atno 6909 bound_to 6896
  144.8890  139.5585  143.5807 H   0  0  0  0  0  0  0  0  0  0  0  0  # atno 7974 bound_to 7965
  155.0878  140.0394  157.2659 H   0  0  0  0  0  0  0  0  0  0  0  0  # atno 8008 bound_to 7997
  154.6856  140.2642  155.6839 H   0  0  0  0  0  0  0  0  0  0  0  0  # atno 8009 bound_to 7997
  156.2710  140.2770  156.1416 H   0  0  0  0  0  0  0  0  0  0  0  0  # atno 8010 bound_to 7997
  139.6127  144.7085  151.2808 H   0  0  0  0  0  0  0  0  0  0  0  0  # atno 10167 bound_to 10162
  157.6681  131.0843  150.5956 H   0  0  0  0  0  0  0  0  0  0  0  0  # atno 10718 bound_to 10713
  153.1563  135.4583  154.9708 H   0  0  0  0  0  0  0  0  0  0  0  0  # atno 10763 bound_to 10752
  154.7864  135.3205  154.7880 H   0  0  0  0  0  0  0  0  0  0  0  0  # atno 10764 bound_to 10752
  153.8377  135.6933  153.4861 H   0  0  0  0  0  0  0  0  0  0  0  0  # atno 10765 bound_to 10752
  139.9366  134.7477  156.1211 H   0  0  0  0  0  0  0  0  0  0  0  0  # atno 11005 bound_to 11000
  146.3042  139.7526  142.9068 LP  0  0  0  0  0  0  0  0  0  0  0  0  # atno 17320 bound_to 7965
  145.3816  141.0359  143.3174 LP  0  0  0  0  0  0  0  0  0  0  0  0  # atno 17321 bound_to 7965
  140.7330  143.6808  150.8003 LP  0  0  0  0  0  0  0  0  0  0  0  0  # atno 17342 bound_to 10162
  140.0405  143.5351  152.2720 LP  0  0  0  0  0  0  0  0  0  0  0  0  # atno 17343 bound_to 10162
  156.6257  130.4418  149.5805 LP  0  0  0  0  0  0  0  0  0  0  0  0  # atno 17370 bound_to 10713
  156.2321  130.6801  151.1473 LP  0  0  0  0  0  0  0  0  0  0  0  0  # atno 17371 bound_to 10713
  141.0983  133.6687  156.2695 LP  0  0  0  0  0  0  0  0  0  0  0  0  # atno 17394 bound_to 11000
  140.6059  134.5507  157.5525 LP  0  0  0  0  0  0  0  0  0  0  0  0  # atno 17395 bound_to 11000

$$$$
