AV-unprocessed.smi:2655|AV-procd|sdf|10303|dock8
  -GOLD-   2272014313D 1   1.00000     0.00000
 Structure written by MMmdl.
 33 34  0  0  0  0  0  0  0  0  2 V2000
  144.8034  134.7035  150.6491 C   0  0  0  0  0  0  0  0  0  0  0  0
  145.1398  135.7907  151.6467 C   0  0  0  0  0  0  0  0  0  0  0  0
  144.6208  137.0479  151.5334 N   0  0  0  0  0  0  0  0  0  0  0  0
  145.1481  137.8281  152.5311 N   0  0  0  0  0  0  0  0  0  0  0  0
  145.9687  137.0927  153.2991 C   0  0  0  0  0  0  0  0  0  0  0  0
  146.5870  137.4947  154.2823 O   0  0  0  0  0  0  0  0  0  0  0  0
  145.9540  135.7580  152.7101 C   0  0  0  0  0  0  0  0  0  0  0  0
  146.7883  134.5976  153.2187 C   0  0  0  0  0  0  0  0  0  0  0  0
  147.4406  134.9051  154.5765 C   0  0  0  0  0  0  0  0  0  0  0  0
  148.7771  135.4660  154.4136 N   0  0  0  0  0  0  0  0  0  0  0  0
  149.8041  135.3052  155.2606 C   0  0  0  0  0  0  0  0  0  0  0  0
  149.6588  134.6292  156.2819 O   0  0  0  0  0  0  0  0  0  0  0  0
  150.9347  135.9401  154.8731 N   0  5  0  0  0  0  0  0  0  0  0  0
  150.9565  137.2780  154.7725 C   0  0  0  0  0  0  0  0  0  0  0  0
  149.8973  138.1604  155.1204 C   0  0  0  0  0  0  0  0  0  0  0  0
  150.4073  139.3926  154.8246 C   0  0  0  0  0  0  0  0  0  0  0  0
  149.8537  140.7716  154.9416 C   0  0  0  0  0  0  0  0  0  0  0  0
  151.6677  139.2745  154.3265 O   0  0  0  0  0  0  0  0  0  0  0  0
  152.0094  137.9173  154.2908 N   0  0  0  0  0  0  0  0  0  0  0  0
  144.3641  133.8468  151.1607 H   0  0  0  0  0  0  0  0  0  0  0  0
  145.7048  134.3721  150.1335 H   0  0  0  0  0  0  0  0  0  0  0  0
  144.0922  135.0608  149.9038 H   0  0  0  0  0  0  0  0  0  0  0  0
  144.8832  138.7995  152.6063 H   0  0  0  0  0  0  0  0  0  0  0  0
  147.5475  134.3587  152.4728 H   0  0  0  0  0  0  0  0  0  0  0  0
  146.1546  133.7147  153.3076 H   0  0  0  0  0  0  0  0  0  0  0  0
  146.8178  135.5847  155.1610 H   0  0  0  0  0  0  0  0  0  0  0  0
  147.5301  133.9882  155.1597 H   0  0  0  0  0  0  0  0  0  0  0  0
  148.9403  136.0251  153.5891 H   0  0  0  0  0  0  0  0  0  0  0  0
  148.9245  137.9260  155.5257 H   0  0  0  0  0  0  0  0  0  0  0  0
  149.0000  140.9012  154.2767 H   0  0  0  0  0  0  0  0  0  0  0  0
  150.6022  141.5199  154.6804 H   0  0  0  0  0  0  0  0  0  0  0  0
  149.5221  140.9679  155.9612 H   0  0  0  0  0  0  0  0  0  0  0  0
  144.1000  137.4316  150.7577 H   0  0  0  0  0  0  0  0  0  0  0  0
  1 20  1  0  0  0  0
  1 21  1  0  0  0  0
  1 22  1  0  0  0  0
  1  2  1  0  0  0  0
  2  7  2  0  0  0  0
  2  3  1  0  0  0  0
  3  4  1  0  0  0  0
  3 33  1  0  0  0  0
  4 23  1  0  0  0  0
  4  5  1  0  0  0  0
  5  7  1  0  0  0  0
  5  6  2  0  0  0  0
  7  8  1  0  0  0  0
  8  9  1  0  0  0  0
  8 24  1  0  0  0  0
  8 25  1  0  0  0  0
  9 10  1  0  0  0  0
  9 26  1  0  0  0  0
  9 27  1  0  0  0  0
 10 11  1  0  0  0  0
 10 28  1  0  0  0  0
 11 12  2  0  0  0  0
 11 13  1  0  0  0  0
 13 14  1  0  0  0  0
 14 19  2  0  0  0  0
 14 15  1  0  0  0  0
 15 16  2  0  0  0  0
 15 29  1  0  0  0  0
 16 17  1  0  0  0  0
 16 18  1  0  0  0  0
 17 30  1  0  0  0  0
 17 31  1  0  0  0  0
 17 32  1  0  0  0  0
 18 19  1  0  0  0  0
M  CHG  1  13  -1
M  END
> <s_m_source_file>
AV-unprocessed.smi

> <i_m_source_file_index>
2655

> <i_lp_mmshare_version>
43012

> <i_f3d_flags>
0

> <s_epik_input>
W0NIM11DMT1OW05IXUMoPU8pW0NASF0xW0NIMl1bQ0gyXVtOSF1DKD1PKVtOSF1jMltjSF1jKFtDSDNdKW9uMg==

> <s_epik_cmdline>
J2VwaWtfcHl0aG9uJywgJy1waCcsICc3LjAnLCAnLXRuJywgJzgnLCAnLW1hJywgJzIwMCcsICctbWV0YWxfYmluZGluZycsICctaW1hZScsICc8aW5maWxlLm1hZT4nLCAnLW9tYWUnLCAnPG91dGZpbGUubWFlPic=

> <r_lp_tautomer_probability>
0.00220696

> <r_epik_Ionization_Penalty>
6.47655

> <r_epik_Ionization_Penalty_Charging>
6.44485

> <r_epik_Ionization_Penalty_Neutral>
0.0316949

> <r_epik_State_Penalty>
7.07162

> <r_epik_Charging_Adjusted_Penalty>
13.5165

> <i_epik_Tot_Q>
-1

> <i_epik_Tot_abs_Q>
1

> <r_epik_Metal_State_Penalty>
4.39363

> <b_epik_Metal_Only>
1

> <s_lp_Force_Field>
OPLS_2005

> <r_lp_Energy>
11.561

> <b_lp_Chiralities_Consistent>
1

> <s_lp_Variant>
AV-unprocessed.smi:2655-6

> <Gold.Version>
5.8.1

> <Gold.Id.Protein>
6NUR|6NUR_protein|mol2

> <Gold.PLP.Fitness>
39.7742

> <Gold.PLP.PLP>
-24.3050

> <Gold.PLP.part.hbond>
-5.2726

> <Gold.PLP.part.metal>
0.0000

> <Gold.PLP.part.buried>
-2.0902

> <Gold.PLP.part.nonpolar>
-17.0915

> <Gold.PLP.part.repulsive>
0.5766

> <Gold.PLP.ligand.clash>
0.2701

> <Gold.PLP.ligand.torsion>
1.0845

> <Gold.PLP.Chemscore.Hbond>
5.9520

> <Gold.PLP.Chemscore.CHOScore>
0.0000

> <Gold.PLP.Chemscore.Metal>
0.0000

> <Gold.Chemscore.Hbonds>
donor molecule, donor type, donor heavy atom, donor atom, acceptor molecule, acceptor atom, score
      L1  H     3    33       P1 10171  0.92
      L1  H     4    23       P1 10175  0.94
      L1  H    10    28       P1  7948  1.00
      P1  H  7989  7998       L1    18  0.75
      P1  H 10752 10763       L1    13  1.85

> <Gold.PLP.Chemscore.Internal.Correction>
0.0523

> <Gold.Rescore>
     Score         DG    S(hbond)    S(metal)    S(lipo)     H(rot)  DE(clash)    DE(int)     intcor
     15.79     -19.24       4.24        0.00      37.33       1.86       0.88       2.57       ----

> <Gold.Chemscore.Fitness>
15.7910

> <Gold.Chemscore.DG>
-19.2419

> <Gold.Chemscore.ZeroCoef>
-5.4800

> <Gold.Chemscore.Hbond>
4.2416

> <Gold.Chemscore.Metal>
0.0000

> <Gold.Chemscore.Lipo>
37.3250

> <Gold.Chemscore.Internal_Hbond>
0.0000

> <Gold.Chemscore.DEClash>
0.8836

> <Gold.Chemscore.DEInternal>
2.5674

> <Gold.Chemscore.Rot>
1.8640

> <Gold.Chemscore.Internal.Correction>
   9.000000E+99

> <Gold.Chemscore.Hbonds>
donor molecule, donor type, donor heavy atom, donor atom, acceptor molecule, acceptor atom, score
      L1  H     3    33       P1 10171  0.84
      L1  H     4    23       P1 10175  0.89
      L1  H    10    28       P1  7948  0.93
      P1  H  7989  7998       L1    18  0.09
      P1  H 10752 10763       L1    13  0.20

> <Gold.Chemscore.Hbond.Weighted>
-14.1668

> <Gold.Chemscore.Metal.Weighted>
-0.0000

> <Gold.Chemscore.Lipo.Weighted>
-4.3670

> <Gold.Chemscore.Internal_Hbond.Weighted>
0.0000

> <Gold.Chemscore.DEClash.Weighted>
0.8836

> <Gold.Chemscore.DEInternal.Weighted>
2.5674

> <Gold.Chemscore.Rot.Weighted>
4.7719

> <Gold.Chemscore.Internal.Correction.Weighted>
   9.000000E+99

> <Gold.Protein.RotatedTorsions>
[ 6907 6896 6895 6894 ] final   53.44 input  -60.11 | X-H torsion
[ 7974 7965 7964 7962 ] final -122.25 input  175.53 | X-H torsion
[ 8008 7997 7996 7995 ] final   24.84 input   59.86 | X-H torsion
[ 10167 10162 10161 10158 ] final   57.62 input  -65.29 | X-H torsion
[ 10718 10713 10712 10709 ] final  -48.23 input   66.30 | X-H torsion
[ 10763 10752 10751 10750 ] final   58.84 input  -60.55 | X-H torsion
[ 11005 11000 10999 10996 ] final  -93.47 input  -57.11 | X-H torsion

> <Gold.Protein.ActiveResidues>
 VAL166  LYS551  ARG553  GLY616  TRP617  ASP618  TYR619  PRO620  LYS621  CYS622 
 ASP623  PHE694  ASN695  SER759  ASP760  ASP761  ALA762  ILE779  LEU786  VAL792 
 PHE793  MET794  SER795  GLU796  ALA797  LYS798  CYS799  TRP800  GLU811  SER814 

> <Gold.Protein.RotatedAtoms>
  152.3337  134.7226  160.0282 H   0  0  0  0  0  0  0  0  0  0  0  0  # atno 6907 bound_to 6896
  151.7634  133.3330  159.3432 H   0  0  0  0  0  0  0  0  0  0  0  0  # atno 6908 bound_to 6896
  150.7438  134.6017  159.6084 H   0  0  0  0  0  0  0  0  0  0  0  0  # atno 6909 bound_to 6896
  145.0315  140.8071  143.4320 H   0  0  0  0  0  0  0  0  0  0  0  0  # atno 7974 bound_to 7965
  155.0024  140.3127  155.4862 H   0  0  0  0  0  0  0  0  0  0  0  0  # atno 8008 bound_to 7997
  156.2923  140.2229  156.5076 H   0  0  0  0  0  0  0  0  0  0  0  0  # atno 8009 bound_to 7997
  154.7606  140.0459  157.0958 H   0  0  0  0  0  0  0  0  0  0  0  0  # atno 8010 bound_to 7997
  140.1960  144.4037  150.6550 H   0  0  0  0  0  0  0  0  0  0  0  0  # atno 10167 bound_to 10162
  156.2007  130.4156  149.9244 H   0  0  0  0  0  0  0  0  0  0  0  0  # atno 10718 bound_to 10713
  152.9880  135.5592  154.5617 H   0  0  0  0  0  0  0  0  0  0  0  0  # atno 10763 bound_to 10752
  154.5035  135.2798  155.1403 H   0  0  0  0  0  0  0  0  0  0  0  0  # atno 10764 bound_to 10752
  154.2824  135.6342  153.5405 H   0  0  0  0  0  0  0  0  0  0  0  0  # atno 10765 bound_to 10752
  141.1496  133.7889  157.0163 H   0  0  0  0  0  0  0  0  0  0  0  0  # atno 11005 bound_to 11000
  145.1764  139.2375  143.5315 LP  0  0  0  0  0  0  0  0  0  0  0  0  # atno 17320 bound_to 7965
  146.3499  140.1528  142.8592 LP  0  0  0  0  0  0  0  0  0  0  0  0  # atno 17321 bound_to 7965
  140.6423  143.2206  151.6263 LP  0  0  0  0  0  0  0  0  0  0  0  0  # atno 17342 bound_to 10162
  139.5236  144.3127  152.0978 LP  0  0  0  0  0  0  0  0  0  0  0  0  # atno 17343 bound_to 10162
  156.6954  130.8912  151.3593 LP  0  0  0  0  0  0  0  0  0  0  0  0  # atno 17370 bound_to 10713
  157.6984  130.9307  150.0712 LP  0  0  0  0  0  0  0  0  0  0  0  0  # atno 17371 bound_to 10713
  140.0845  134.9629  157.1677 LP  0  0  0  0  0  0  0  0  0  0  0  0  # atno 17394 bound_to 11000
  140.3531  134.2576  155.7196 LP  0  0  0  0  0  0  0  0  0  0  0  0  # atno 17395 bound_to 11000

$$$$
