AV-unprocessed.smi:2518|AV-procd|sdf|9902|dock3
  -GOLD-   2272013543D 1   1.00000     0.00000
 Structure written by MMmdl.
 41 43  0  0  0  0  0  0  0  0  1 V2000
  143.2004  145.1223  154.6412 C   0  0  0  0  0  0  0  0  0  0  0  0
  144.3636  144.1526  154.6060 C   0  0  0  0  0  0  0  0  0  0  0  0
  145.1842  144.0667  153.4640 C   0  0  0  0  0  0  0  0  0  0  0  0
  146.2626  143.1619  153.4358 C   0  0  0  0  0  0  0  0  0  0  0  0
  146.5386  142.3312  154.5411 C   0  0  0  0  0  0  0  0  0  0  0  0
  147.6135  141.4757  154.4271 O   0  0  0  0  0  0  0  0  0  0  0  0
  147.8904  140.5979  155.5098 C   0  0  0  0  0  0  0  0  0  0  0  0
  149.4096  140.5710  155.7595 C   0  0  1  0  0  0  0  0  0  0  0  0
  150.0681  140.5732  154.5089 O   0  0  0  0  0  0  0  0  0  0  0  0
  149.9346  141.7871  156.5499 C   0  0  0  0  0  0  0  0  0  0  0  0
  150.9573  141.4362  157.5241 N   0  0  0  0  0  0  0  0  0  0  0  0
  151.4491  140.1709  157.5476 N   0  0  0  0  0  0  0  0  0  0  0  0
  152.3556  140.1510  158.5227 C   0  0  0  0  0  0  0  0  0  0  0  0
  152.4754  141.4141  159.1644 C   0  0  0  0  0  0  0  0  0  0  0  0
  153.2819  141.9459  160.2586 C   0  0  0  0  0  0  0  0  0  0  0  0
  153.1193  143.1877  160.5929 N   0  0  0  0  0  0  0  0  0  0  0  0
  152.1964  144.0048  159.9298 N   0  0  0  0  0  0  0  0  0  0  0  0
  152.1234  145.3758  160.4293 C   0  0  0  0  0  0  0  0  0  0  0  0
  151.3905  143.6037  158.9010 C   0  0  0  0  0  0  0  0  0  0  0  0
  150.5689  144.3325  158.3452 O   0  0  0  0  0  0  0  0  0  0  0  0
  151.5777  142.1869  158.5043 C   0  0  0  0  0  0  0  0  0  0  0  0
  145.7075  142.4213  155.6869 C   0  0  0  0  0  0  0  0  0  0  0  0
  144.6283  143.3259  155.7157 C   0  0  0  0  0  0  0  0  0  0  0  0
  143.3348  145.9244  153.9148 H   0  0  0  0  0  0  0  0  0  0  0  0
  143.1066  145.5743  155.6291 H   0  0  0  0  0  0  0  0  0  0  0  0
  142.2702  144.6027  154.4107 H   0  0  0  0  0  0  0  0  0  0  0  0
  144.9903  144.6932  152.6057 H   0  0  0  0  0  0  0  0  0  0  0  0
  146.8853  143.1043  152.5550 H   0  0  0  0  0  0  0  0  0  0  0  0
  147.3554  140.8914  156.4147 H   0  0  0  0  0  0  0  0  0  0  0  0
  147.5432  139.6056  155.2234 H   0  0  0  0  0  0  0  0  0  0  0  0
  149.6769  139.6588  156.2948 H   0  0  0  0  0  0  0  0  0  0  0  0
  149.5019  140.1673  153.8705 H   0  0  0  0  0  0  0  0  0  0  0  0
  150.3632  142.5176  155.8616 H   0  0  0  0  0  0  0  0  0  0  0  0
  149.1178  142.2998  157.0569 H   0  0  0  0  0  0  0  0  0  0  0  0
  152.8865  139.2333  158.7286 H   0  0  0  0  0  0  0  0  0  0  0  0
  154.0003  141.3110  160.7768 H   0  0  0  0  0  0  0  0  0  0  0  0
  152.3187  146.0895  159.6274 H   0  0  0  0  0  0  0  0  0  0  0  0
  152.8517  145.5628  161.2203 H   0  0  0  0  0  0  0  0  0  0  0  0
  151.1324  145.5814  160.8365 H   0  0  0  0  0  0  0  0  0  0  0  0
  145.8755  141.8064  156.5580 H   0  0  0  0  0  0  0  0  0  0  0  0
  144.0031  143.3829  156.5948 H   0  0  0  0  0  0  0  0  0  0  0  0
  1  2  1  0  0  0  0
  1 24  1  0  0  0  0
  1 25  1  0  0  0  0
  1 26  1  0  0  0  0
  2 23  1  0  0  0  0
  2  3  2  0  0  0  0
  3  4  1  0  0  0  0
  3 27  1  0  0  0  0
  4  5  2  0  0  0  0
  4 28  1  0  0  0  0
  5  6  1  0  0  0  0
  5 22  1  0  0  0  0
  6  7  1  0  0  0  0
  7  8  1  0  0  0  0
  7 29  1  0  0  0  0
  7 30  1  0  0  0  0
  8  9  1  0  0  0  0
  8 10  1  0  0  0  0
  8 31  1  0  0  0  0
  9 32  1  0  0  0  0
 10 11  1  0  0  0  0
 10 33  1  0  0  0  0
 10 34  1  0  0  0  0
 11 21  1  0  0  0  0
 11 12  1  0  0  0  0
 12 13  2  0  0  0  0
 13 14  1  0  0  0  0
 13 35  1  0  0  0  0
 14 21  2  0  0  0  0
 14 15  1  0  0  0  0
 15 16  2  0  0  0  0
 15 36  1  0  0  0  0
 16 17  1  0  0  0  0
 17 18  1  0  0  0  0
 17 19  1  0  0  0  0
 18 37  1  0  0  0  0
 18 38  1  0  0  0  0
 18 39  1  0  0  0  0
 19 20  2  0  0  0  0
 19 21  1  0  0  0  0
 22 23  2  0  0  0  0
 22 40  1  0  0  0  0
 23 41  1  0  0  0  0
M  END
> <s_m_source_file>
AV-unprocessed.smi

> <i_m_source_file_index>
2518

> <i_lp_mmshare_version>
43012

> <i_f3d_flags>
0

> <s_epik_input>
W0NIM11jMVtjSF1bY0hdYyhbY0hdW2NIXTEpT1tDSDJdW0NASF0oW09IXSlbQ0gyXW4obltjSF0yKWMoYzIzKWMoPU8pbihbQ0gzXSluW2NIXTM=

> <s_epik_cmdline>
J2VwaWtfcHl0aG9uJywgJy1waCcsICc3LjAnLCAnLXRuJywgJzgnLCAnLW1hJywgJzIwMCcsICctbWV0YWxfYmluZGluZycsICctaW1hZScsICc8aW5maWxlLm1hZT4nLCAnLW9tYWUnLCAnPG91dGZpbGUubWFlPic=

> <r_lp_tautomer_probability>
1

> <r_epik_Ionization_Penalty>
2.246e-06

> <r_epik_Ionization_Penalty_Charging>
1.41975e-10

> <r_epik_Ionization_Penalty_Neutral>
2.24586e-06

> <r_epik_State_Penalty>
-0

> <r_epik_Charging_Adjusted_Penalty>
1.41975e-10

> <i_epik_Tot_Q>
0

> <i_epik_Tot_abs_Q>
0

> <r_epik_Metal_State_Penalty>
-0

> <b_epik_Metal_Only>
0

> <s_lp_Force_Field>
OPLS_2005

> <r_lp_Energy>
31.8709

> <b_lp_Chiralities_Consistent>
1

> <s_lp_Variant>
AV-unprocessed.smi:2518-2

> <Gold.Version>
5.8.1

> <Gold.Id.Protein>
6NUR|6NUR_protein|mol2

> <Gold.PLP.Fitness>
43.7935

> <Gold.PLP.PLP>
-43.3149

> <Gold.PLP.part.hbond>
-1.0000

> <Gold.PLP.part.metal>
0.0000

> <Gold.PLP.part.buried>
-8.1171

> <Gold.PLP.part.nonpolar>
-35.1978

> <Gold.PLP.part.repulsive>
0.3418

> <Gold.PLP.ligand.clash>
0.0000

> <Gold.PLP.ligand.torsion>
1.0985

> <Gold.PLP.Chemscore.Hbond>
0.8800

> <Gold.PLP.Chemscore.CHOScore>
0.0000

> <Gold.PLP.Chemscore.Metal>
0.0000

> <Gold.Chemscore.Hbonds>
donor molecule, donor type, donor heavy atom, donor atom, acceptor molecule, acceptor atom, score
      P1  H  7989  7998       L1     9  0.85

> <Gold.PLP.Chemscore.Internal.Correction>
0.0357

> <Gold.Rescore>
     Score         DG    S(hbond)    S(metal)    S(lipo)     H(rot)  DE(clash)    DE(int)     intcor
     10.82     -12.21       0.32        0.00      99.86       2.35       0.34       1.05       ----

> <Gold.Chemscore.Fitness>
10.8161

> <Gold.Chemscore.DG>
-12.2087

> <Gold.Chemscore.ZeroCoef>
-5.4800

> <Gold.Chemscore.Hbond>
0.3168

> <Gold.Chemscore.Metal>
0.0000

> <Gold.Chemscore.Lipo>
99.8631

> <Gold.Chemscore.Internal_Hbond>
0.0000

> <Gold.Chemscore.DEClash>
0.3428

> <Gold.Chemscore.DEInternal>
1.0498

> <Gold.Chemscore.Rot>
2.3490

> <Gold.Chemscore.Internal.Correction>
   9.000000E+99

> <Gold.Chemscore.Hbonds>
donor molecule, donor type, donor heavy atom, donor atom, acceptor molecule, acceptor atom, score
      P1  H  7989  7998       L1     9  0.25

> <Gold.Chemscore.Hbond.Weighted>
-1.0582

> <Gold.Chemscore.Metal.Weighted>
-0.0000

> <Gold.Chemscore.Lipo.Weighted>
-11.6840

> <Gold.Chemscore.Internal_Hbond.Weighted>
0.0000

> <Gold.Chemscore.DEClash.Weighted>
0.3428

> <Gold.Chemscore.DEInternal.Weighted>
1.0498

> <Gold.Chemscore.Rot.Weighted>
6.0136

> <Gold.Chemscore.Internal.Correction.Weighted>
   9.000000E+99

> <Gold.Protein.RotatedTorsions>
[ 6907 6896 6895 6894 ] final  -57.78 input  -60.11 | X-H torsion
[ 7974 7965 7964 7962 ] final -172.78 input  175.53 | X-H torsion
[ 8008 7997 7996 7995 ] final   55.70 input   59.86 | X-H torsion
[ 10167 10162 10161 10158 ] final  122.74 input  -65.29 | X-H torsion
[ 10718 10713 10712 10709 ] final  175.34 input   66.30 | X-H torsion
[ 10763 10752 10751 10750 ] final  -62.97 input  -60.55 | X-H torsion
[ 11005 11000 10999 10996 ] final  105.66 input  -57.11 | X-H torsion

> <Gold.Protein.ActiveResidues>
 VAL166  LYS551  ARG553  GLY616  TRP617  ASP618  TYR619  PRO620  LYS621  CYS622 
 ASP623  PHE694  ASN695  SER759  ASP760  ASP761  ALA762  ILE779  LEU786  VAL792 
 PHE793  MET794  SER795  GLU796  ALA797  LYS798  CYS799  TRP800  GLU811  SER814 

> <Gold.Protein.RotatedAtoms>
  150.8059  134.7183  159.6643 H   0  0  0  0  0  0  0  0  0  0  0  0  # atno 6907 bound_to 6896
  152.4178  134.6006  160.0009 H   0  0  0  0  0  0  0  0  0  0  0  0  # atno 6908 bound_to 6896
  151.6231  133.3300  159.3128 H   0  0  0  0  0  0  0  0  0  0  0  0  # atno 6909 bound_to 6896
  144.7143  140.1720  143.6366 H   0  0  0  0  0  0  0  0  0  0  0  0  # atno 7974 bound_to 7965
  155.5054  140.3475  155.4378 H   0  0  0  0  0  0  0  0  0  0  0  0  # atno 8008 bound_to 7997
  156.0885  140.1404  156.9650 H   0  0  0  0  0  0  0  0  0  0  0  0  # atno 8009 bound_to 7997
  154.4621  140.0931  156.6898 H   0  0  0  0  0  0  0  0  0  0  0  0  # atno 8010 bound_to 7997
  139.5841  144.6999  151.3454 H   0  0  0  0  0  0  0  0  0  0  0  0  # atno 10167 bound_to 10162
  156.9363  130.9987  151.2977 H   0  0  0  0  0  0  0  0  0  0  0  0  # atno 10718 bound_to 10713
  154.3080  135.6221  153.5453 H   0  0  0  0  0  0  0  0  0  0  0  0  # atno 10763 bound_to 10752
  152.9833  135.5694  154.5210 H   0  0  0  0  0  0  0  0  0  0  0  0  # atno 10764 bound_to 10752
  154.4853  135.2865  155.1515 H   0  0  0  0  0  0  0  0  0  0  0  0  # atno 10765 bound_to 10752
  139.8804  134.9343  156.5548 H   0  0  0  0  0  0  0  0  0  0  0  0  # atno 11005 bound_to 11000
  145.8935  139.2389  143.1536 LP  0  0  0  0  0  0  0  0  0  0  0  0  # atno 17320 bound_to 7965
  145.9880  140.8626  143.0080 LP  0  0  0  0  0  0  0  0  0  0  0  0  # atno 17321 bound_to 7965
  140.7115  143.7378  150.7576 LP  0  0  0  0  0  0  0  0  0  0  0  0  # atno 17342 bound_to 10162
  140.0918  143.4871  152.2474 LP  0  0  0  0  0  0  0  0  0  0  0  0  # atno 17343 bound_to 10162
  157.5814  130.8379  149.8528 LP  0  0  0  0  0  0  0  0  0  0  0  0  # atno 17370 bound_to 10713
  156.0424  130.3736  150.1401 LP  0  0  0  0  0  0  0  0  0  0  0  0  # atno 17371 bound_to 10713
  140.8213  133.8351  155.8898 LP  0  0  0  0  0  0  0  0  0  0  0  0  # atno 17394 bound_to 11000
  140.9415  134.1894  157.4794 LP  0  0  0  0  0  0  0  0  0  0  0  0  # atno 17395 bound_to 11000

$$$$
