AV-unprocessed.smi:2766|AV-procd|sdf|10646|dock1
  -GOLD-   2272015 93D 1   1.00000     0.00000
 Structure written by MMmdl.
 32 33  0  0  0  0  0  0  0  0  1 V2000
  147.1893  141.4694  153.5711 C   0  0  0  0  0  0  0  0  0  0  0  0
  148.0698  141.8178  154.6253 O   0  0  0  0  0  0  0  0  0  0  0  0
  147.8403  141.0551  155.7990 C   0  0  0  0  0  0  0  0  0  0  0  0
  148.9351  141.3678  156.8343 C   0  0  2  0  0  0  0  0  0  0  0  0
  148.6726  142.6543  157.3668 O   0  0  0  0  0  0  0  0  0  0  0  0
  150.3635  141.2605  156.2303 C   0  0  0  0  0  0  0  0  0  0  0  0
  151.4213  140.9739  157.1935 N   0  0  0  0  0  0  0  0  0  0  0  0
  152.2305  139.8855  157.2638 C   0  0  0  0  0  0  0  0  0  0  0  0
  152.1378  138.7559  156.2767 C   0  0  0  0  0  0  0  0  0  0  0  0
  152.3601  139.1885  155.0348 F   0  0  0  0  0  0  0  0  0  0  0  0
  153.0419  137.8138  156.5459 F   0  0  0  0  0  0  0  0  0  0  0  0
  150.9236  138.2071  156.3086 F   0  0  0  0  0  0  0  0  0  0  0  0
  153.1250  139.8981  158.2552 N   0  0  0  0  0  0  0  0  0  0  0  0
  152.8639  141.0962  158.8906 C   0  0  0  0  0  0  0  0  0  0  0  0
  153.4707  141.6889  160.0210 C   0  0  0  0  0  0  0  0  0  0  0  0
  153.0266  142.9406  160.4955 C   0  0  0  0  0  0  0  0  0  0  0  0
  151.9713  143.6159  159.8484 C   0  0  0  0  0  0  0  0  0  0  0  0
  151.3540  143.0431  158.7200 C   0  0  0  0  0  0  0  0  0  0  0  0
  151.8023  141.7941  158.2503 C   0  0  0  0  0  0  0  0  0  0  0  0
  148.8620  140.6505  157.6526 H   0  0  0  0  0  0  0  0  0  0  0  0
  147.4014  142.0858  152.6977 H   0  0  0  0  0  0  0  0  0  0  0  0
  146.1485  141.6325  153.8540 H   0  0  0  0  0  0  0  0  0  0  0  0
  147.3138  140.4245  153.2836 H   0  0  0  0  0  0  0  0  0  0  0  0
  146.8633  141.3396  156.1930 H   0  0  0  0  0  0  0  0  0  0  0  0
  147.8023  139.9861  155.5809 H   0  0  0  0  0  0  0  0  0  0  0  0
  148.5352  143.2540  156.6497 H   0  0  0  0  0  0  0  0  0  0  0  0
  150.3753  140.4968  155.4531 H   0  0  0  0  0  0  0  0  0  0  0  0
  150.6346  142.1830  155.7155 H   0  0  0  0  0  0  0  0  0  0  0  0
  154.2790  141.1794  160.5245 H   0  0  0  0  0  0  0  0  0  0  0  0
  153.4973  143.3846  161.3605 H   0  0  0  0  0  0  0  0  0  0  0  0
  151.6357  144.5735  160.2189 H   0  0  0  0  0  0  0  0  0  0  0  0
  150.5441  143.5556  158.2228 H   0  0  0  0  0  0  0  0  0  0  0  0
  1  2  1  0  0  0  0
  1 21  1  0  0  0  0
  1 22  1  0  0  0  0
  1 23  1  0  0  0  0
  2  3  1  0  0  0  0
  3  4  1  0  0  0  0
  3 24  1  0  0  0  0
  3 25  1  0  0  0  0
  4 20  1  0  0  0  0
  4  5  1  0  0  0  0
  4  6  1  0  0  0  0
  5 26  1  0  0  0  0
  6  7  1  0  0  0  0
  6 27  1  0  0  0  0
  6 28  1  0  0  0  0
  7 19  1  0  0  0  0
  7  8  1  0  0  0  0
  8  9  1  0  0  0  0
  8 13  2  0  0  0  0
  9 10  1  0  0  0  0
  9 11  1  0  0  0  0
  9 12  1  0  0  0  0
 13 14  1  0  0  0  0
 14 19  2  0  0  0  0
 14 15  1  0  0  0  0
 15 16  2  0  0  0  0
 15 29  1  0  0  0  0
 16 17  1  0  0  0  0
 16 30  1  0  0  0  0
 17 18  2  0  0  0  0
 17 31  1  0  0  0  0
 18 19  1  0  0  0  0
 18 32  1  0  0  0  0
M  END
> <s_m_source_file>
AV-unprocessed.smi

> <i_m_source_file_index>
2766

> <i_lp_mmshare_version>
43012

> <i_f3d_flags>
0

> <s_epik_input>
W0NIM11PW0NIMl1bQ0BASF0oW09IXSlbQ0gyXW4oYyhuMSlDKEYpKEYpRiljKGMxMilbY0hdW2NIXVtjSF1bY0hdMg==

> <s_epik_cmdline>
J2VwaWtfcHl0aG9uJywgJy1waCcsICc3LjAnLCAnLXRuJywgJzgnLCAnLW1hJywgJzIwMCcsICctbWV0YWxfYmluZGluZycsICctaW1hZScsICc8aW5maWxlLm1hZT4nLCAnLW9tYWUnLCAnPG91dGZpbGUubWFlPic=

> <r_epik_Ionization_Penalty>
0.00044827

> <r_epik_Ionization_Penalty_Charging>
0

> <r_epik_Ionization_Penalty_Neutral>
0.00044827

> <r_epik_State_Penalty>
0.000276591

> <r_epik_Charging_Adjusted_Penalty>
0.000276591

> <i_epik_Tot_Q>
0

> <i_epik_Tot_abs_Q>
0

> <r_epik_Metal_State_Penalty>
-0

> <b_epik_Metal_Only>
0

> <s_lp_Force_Field>
OPLS_2005

> <r_lp_Energy>
17.0941

> <b_lp_Chiralities_Consistent>
1

> <s_lp_Variant>
AV-unprocessed.smi:2766-2

> <Gold.Version>
5.8.1

> <Gold.Id.Protein>
6NUR|6NUR_protein|mol2

> <Gold.PLP.Fitness>
40.9598

> <Gold.PLP.PLP>
-35.6761

> <Gold.PLP.part.hbond>
-2.0528

> <Gold.PLP.part.metal>
0.0000

> <Gold.PLP.part.buried>
-3.6853

> <Gold.PLP.part.nonpolar>
-29.5840

> <Gold.PLP.part.repulsive>
0.3651

> <Gold.PLP.ligand.clash>
0.0000

> <Gold.PLP.ligand.torsion>
0.3600

> <Gold.PLP.Chemscore.Hbond>
1.9760

> <Gold.PLP.Chemscore.CHOScore>
0.0000

> <Gold.PLP.Chemscore.Metal>
0.0000

> <Gold.Chemscore.Hbonds>
donor molecule, donor type, donor heavy atom, donor atom, acceptor molecule, acceptor atom, score
      L1  H     5    26       P1  8028  1.00
      P1  H  7997  8009       L1    13  0.88

> <Gold.PLP.Chemscore.Internal.Correction>
0.0756

> <Gold.Rescore>
     Score         DG    S(hbond)    S(metal)    S(lipo)     H(rot)  DE(clash)    DE(int)     intcor
     12.92     -13.46       0.99        0.00      90.76       2.32       0.07       0.47       ----

> <Gold.Chemscore.Fitness>
12.9187

> <Gold.Chemscore.DG>
-13.4608

> <Gold.Chemscore.ZeroCoef>
-5.4800

> <Gold.Chemscore.Hbond>
0.9855

> <Gold.Chemscore.Metal>
0.0000

> <Gold.Chemscore.Lipo>
90.7608

> <Gold.Chemscore.Internal_Hbond>
0.0000

> <Gold.Chemscore.DEClash>
0.0731

> <Gold.Chemscore.DEInternal>
0.4689

> <Gold.Chemscore.Rot>
2.3164

> <Gold.Chemscore.Internal.Correction>
   9.000000E+99

> <Gold.Chemscore.Hbonds>
donor molecule, donor type, donor heavy atom, donor atom, acceptor molecule, acceptor atom, score
      L1  H     5    26       P1  8028  0.59
      P1  H  7997  8009       L1    13  0.12

> <Gold.Chemscore.Hbond.Weighted>
-3.2916

> <Gold.Chemscore.Metal.Weighted>
-0.0000

> <Gold.Chemscore.Lipo.Weighted>
-10.6190

> <Gold.Chemscore.Internal_Hbond.Weighted>
0.0000

> <Gold.Chemscore.DEClash.Weighted>
0.0731

> <Gold.Chemscore.DEInternal.Weighted>
0.4689

> <Gold.Chemscore.Rot.Weighted>
5.9299

> <Gold.Chemscore.Internal.Correction.Weighted>
   9.000000E+99

> <Gold.Protein.RotatedTorsions>
[ 6907 6896 6895 6894 ] final  -54.51 input  -60.11 | X-H torsion
[ 7974 7965 7964 7962 ] final  134.68 input  175.53 | X-H torsion
[ 8008 7997 7996 7995 ] final  141.44 input   59.86 | X-H torsion
[ 10167 10162 10161 10158 ] final  -53.25 input  -65.29 | X-H torsion
[ 10718 10713 10712 10709 ] final   79.72 input   66.30 | X-H torsion
[ 10763 10752 10751 10750 ] final  -87.02 input  -60.55 | X-H torsion
[ 11005 11000 10999 10996 ] final   40.15 input  -57.11 | X-H torsion

> <Gold.Protein.ActiveResidues>
 VAL166  LYS551  ARG553  GLY616  TRP617  ASP618  TYR619  PRO620  LYS621  CYS622 
 ASP623  PHE694  ASN695  SER759  ASP760  ASP761  ALA762  ILE779  LEU786  VAL792 
 PHE793  MET794  SER795  GLU796  ALA797  LYS798  CYS799  TRP800  GLU811  SER814 

> <Gold.Protein.RotatedAtoms>
  150.8331  134.7593  159.6870 H   0  0  0  0  0  0  0  0  0  0  0  0  # atno 6907 bound_to 6896
  152.4432  134.5544  159.9886 H   0  0  0  0  0  0  0  0  0  0  0  0  # atno 6908 bound_to 6896
  151.5700  133.3353  159.3023 H   0  0  0  0  0  0  0  0  0  0  0  0  # atno 6909 bound_to 6896
  144.9739  139.4576  143.5419 H   0  0  0  0  0  0  0  0  0  0  0  0  # atno 7974 bound_to 7965
  156.2965  140.2315  156.4565 H   0  0  0  0  0  0  0  0  0  0  0  0  # atno 8008 bound_to 7997
  154.8055  140.0446  157.1325 H   0  0  0  0  0  0  0  0  0  0  0  0  # atno 8009 bound_to 7997
  154.9483  140.3038  155.5091 H   0  0  0  0  0  0  0  0  0  0  0  0  # atno 8010 bound_to 7997
  140.6495  143.2556  151.4765 H   0  0  0  0  0  0  0  0  0  0  0  0  # atno 10167 bound_to 10162
  157.6785  130.9927  150.1974 H   0  0  0  0  0  0  0  0  0  0  0  0  # atno 10718 bound_to 10713
  154.6289  135.5428  153.7659 H   0  0  0  0  0  0  0  0  0  0  0  0  # atno 10763 bound_to 10752
  153.0275  135.6431  154.1330 H   0  0  0  0  0  0  0  0  0  0  0  0  # atno 10764 bound_to 10752
  154.1261  135.2917  155.3177 H   0  0  0  0  0  0  0  0  0  0  0  0  # atno 10765 bound_to 10752
  140.1958  134.3930  155.8122 H   0  0  0  0  0  0  0  0  0  0  0  0  # atno 11005 bound_to 11000
  146.3390  139.8969  142.8800 LP  0  0  0  0  0  0  0  0  0  0  0  0  # atno 17320 bound_to 7965
  145.2519  141.0047  143.3876 LP  0  0  0  0  0  0  0  0  0  0  0  0  # atno 17321 bound_to 7965
  139.5708  144.1933  152.1833 LP  0  0  0  0  0  0  0  0  0  0  0  0  # atno 17342 bound_to 10162
  140.1228  144.5358  150.6852 LP  0  0  0  0  0  0  0  0  0  0  0  0  # atno 17343 bound_to 10162
  156.2672  130.3717  149.8069 LP  0  0  0  0  0  0  0  0  0  0  0  0  # atno 17370 bound_to 10713
  156.5797  130.8460  151.3379 LP  0  0  0  0  0  0  0  0  0  0  0  0  # atno 17371 bound_to 10713
  141.2227  133.7069  156.8174 LP  0  0  0  0  0  0  0  0  0  0  0  0  # atno 17394 bound_to 11000
  140.2108  134.8828  157.3273 LP  0  0  0  0  0  0  0  0  0  0  0  0  # atno 17395 bound_to 11000

$$$$
