AV-unprocessed.smi:1145|AV-procd|sdf|4883|dock9
  -GOLD-   22720 3453D 1   1.00000     0.00000
 Structure written by MMmdl.
 36 37  0  0  0  0  0  0  0  0  1 V2000
  151.5380  144.4090  157.2739 C   0  0  0  0  0  0  0  0  0  0  0  0
  151.3970  142.8873  157.4148 C   0  0  1  0  0  0  0  0  0  0  0  0
  150.7453  142.5063  158.7616 C   0  0  0  0  0  0  0  0  0  0  0  0
  151.6719  142.5809  159.8775 N   0  0  0  0  0  0  0  0  0  0  0  0
  152.8663  141.9121  160.0457 C   0  0  0  0  0  0  0  0  0  0  0  0
  153.3933  142.3154  161.2388 C   0  0  0  0  0  0  0  0  0  0  0  0
  152.4332  143.2406  161.7362 C   0  0  0  0  0  0  0  0  0  0  0  0
  151.4019  143.3941  160.9213 N   0  0  0  0  0  0  0  0  0  0  0  0
  150.6069  142.3782  156.2942 N   0  0  0  0  0  0  0  0  0  0  0  0
  150.5893  141.1078  155.8593 C   0  0  0  0  0  0  0  0  0  0  0  0
  151.2805  140.2143  156.3493 O   0  0  0  0  0  0  0  0  0  0  0  0
  149.6255  140.7956  154.7073 C   0  0  2  0  0  0  0  0  0  0  0  0
  148.1750  141.1025  155.1135 C   0  0  0  0  0  0  0  0  0  0  0  0
  147.2095  140.8510  153.9442 C   0  0  0  0  0  0  0  0  0  0  0  0
  147.4592  139.5187  153.2216 C   0  0  0  0  0  0  0  0  0  0  0  0
  146.5838  139.0512  152.4970 O   0  0  0  0  0  0  0  0  0  0  0  0
  148.6488  138.9095  153.3690 N   0  0  0  0  0  0  0  0  0  0  0  0
  149.7299  139.3201  154.2653 C   0  0  0  0  0  0  0  0  0  0  0  0
  152.1482  144.8223  158.0776 H   0  0  0  0  0  0  0  0  0  0  0  0
  150.5667  144.9039  157.3063 H   0  0  0  0  0  0  0  0  0  0  0  0
  152.0161  144.6733  156.3301 H   0  0  0  0  0  0  0  0  0  0  0  0
  152.4042  142.4677  157.3804 H   0  0  0  0  0  0  0  0  0  0  0  0
  149.9077  143.1721  158.9751 H   0  0  0  0  0  0  0  0  0  0  0  0
  150.3348  141.4966  158.7157 H   0  0  0  0  0  0  0  0  0  0  0  0
  153.2412  141.2195  159.3066 H   0  0  0  0  0  0  0  0  0  0  0  0
  154.3234  141.9995  161.6875 H   0  0  0  0  0  0  0  0  0  0  0  0
  152.4546  143.8012  162.6591 H   0  0  0  0  0  0  0  0  0  0  0  0
  150.0052  143.0418  155.8282 H   0  0  0  0  0  0  0  0  0  0  0  0
  149.8816  141.4292  153.8558 H   0  0  0  0  0  0  0  0  0  0  0  0
  147.8822  140.4844  155.9640 H   0  0  0  0  0  0  0  0  0  0  0  0
  148.0843  142.1388  155.4421 H   0  0  0  0  0  0  0  0  0  0  0  0
  146.1783  140.8866  154.2971 H   0  0  0  0  0  0  0  0  0  0  0  0
  147.3148  141.6484  153.2082 H   0  0  0  0  0  0  0  0  0  0  0  0
  148.7939  138.0514  152.8567 H   0  0  0  0  0  0  0  0  0  0  0  0
  150.6825  139.1443  153.7647 H   0  0  0  0  0  0  0  0  0  0  0  0
  149.7038  138.6535  155.1287 H   0  0  0  0  0  0  0  0  0  0  0  0
  1  2  1  0  0  0  0
  1 19  1  0  0  0  0
  1 20  1  0  0  0  0
  1 21  1  0  0  0  0
  2  3  1  0  0  0  0
  2  9  1  0  0  0  0
  2 22  1  0  0  0  0
  3  4  1  0  0  0  0
  3 23  1  0  0  0  0
  3 24  1  0  0  0  0
  4  8  1  0  0  0  0
  4  5  1  0  0  0  0
  5  6  2  0  0  0  0
  5 25  1  0  0  0  0
  6  7  1  0  0  0  0
  6 26  1  0  0  0  0
  7  8  2  0  0  0  0
  7 27  1  0  0  0  0
  9 10  1  0  0  0  0
  9 28  1  0  0  0  0
 10 11  2  0  0  0  0
 10 12  1  0  0  0  0
 12 18  1  0  0  0  0
 12 13  1  0  0  0  0
 12 29  1  0  0  0  0
 13 14  1  0  0  0  0
 13 30  1  0  0  0  0
 13 31  1  0  0  0  0
 14 15  1  0  0  0  0
 14 32  1  0  0  0  0
 14 33  1  0  0  0  0
 15 16  2  0  0  0  0
 15 17  1  0  0  0  0
 17 18  1  0  0  0  0
 17 34  1  0  0  0  0
 18 35  1  0  0  0  0
 18 36  1  0  0  0  0
M  END
> <s_m_source_file>
AV-unprocessed.smi

> <i_m_source_file_index>
1145

> <i_lp_mmshare_version>
43012

> <i_f3d_flags>
0

> <s_epik_input>
bjFbY0hdW2NIXVtjSF1uMVtDSDJdW0NAQEhdKFtDSDNdKVtOSF1DKD1PKVtDQEBIXTJbQ0gyXVtDSDJdQyg9TylbTkhdW0NIMl0y

> <s_epik_cmdline>
J2VwaWtfcHl0aG9uJywgJy1waCcsICc3LjAnLCAnLXRuJywgJzgnLCAnLW1hJywgJzIwMCcsICctbWV0YWxfYmluZGluZycsICctaW1hZScsICc8aW5maWxlLm1hZT4nLCAnLW9tYWUnLCAnPG91dGZpbGUubWFlPic=

> <r_lp_tautomer_probability>
1

> <r_epik_Ionization_Penalty>
0.000314064

> <r_epik_Ionization_Penalty_Charging>
0

> <r_epik_Ionization_Penalty_Neutral>
0.000314064

> <r_epik_State_Penalty>
-0

> <r_epik_Charging_Adjusted_Penalty>
0

> <i_epik_Tot_Q>
0

> <i_epik_Tot_abs_Q>
0

> <r_epik_Metal_State_Penalty>
-0

> <b_epik_Metal_Only>
0

> <s_lp_Force_Field>
OPLS_2005

> <r_lp_Energy>
11.8785

> <b_lp_Chiralities_Consistent>
1

> <s_lp_Variant>
AV-unprocessed.smi:1145-2

> <Gold.Version>
5.8.1

> <Gold.Id.Protein>
6NUR|6NUR_protein|mol2

> <Gold.PLP.Fitness>
44.0548

> <Gold.PLP.PLP>
-39.1096

> <Gold.PLP.part.hbond>
-3.8205

> <Gold.PLP.part.metal>
0.0000

> <Gold.PLP.part.buried>
-3.1874

> <Gold.PLP.part.nonpolar>
-33.3237

> <Gold.PLP.part.repulsive>
0.5905

> <Gold.PLP.ligand.clash>
0.0000

> <Gold.PLP.ligand.torsion>
0.4349

> <Gold.PLP.Chemscore.Hbond>
1.9338

> <Gold.PLP.Chemscore.CHOScore>
0.0000

> <Gold.PLP.Chemscore.Metal>
0.0000

> <Gold.Chemscore.Hbonds>
donor molecule, donor type, donor heavy atom, donor atom, acceptor molecule, acceptor atom, score
      L1  H     9    28       P1  8028  1.00
      L1  H    17    34       P1  7948  0.94

> <Gold.PLP.Chemscore.Internal.Correction>
0.0137

> <Gold.Rescore>
     Score         DG    S(hbond)    S(metal)    S(lipo)     H(rot)  DE(clash)    DE(int)     intcor
     17.30     -17.73       1.83        0.00      91.76       1.80       0.03       0.39       ----

> <Gold.Chemscore.Fitness>
17.2998

> <Gold.Chemscore.DG>
-17.7264

> <Gold.Chemscore.ZeroCoef>
-5.4800

> <Gold.Chemscore.Hbond>
1.8306

> <Gold.Chemscore.Metal>
0.0000

> <Gold.Chemscore.Lipo>
91.7569

> <Gold.Chemscore.Internal_Hbond>
0.0000

> <Gold.Chemscore.DEClash>
0.0346

> <Gold.Chemscore.DEInternal>
0.3920

> <Gold.Chemscore.Rot>
1.7982

> <Gold.Chemscore.Internal.Correction>
   9.000000E+99

> <Gold.Chemscore.Hbonds>
donor molecule, donor type, donor heavy atom, donor atom, acceptor molecule, acceptor atom, score
      L1  H     9    28       P1  8028  0.93
      L1  H    17    34       P1  7948  0.90

> <Gold.Chemscore.Hbond.Weighted>
-6.1143

> <Gold.Chemscore.Metal.Weighted>
-0.0000

> <Gold.Chemscore.Lipo.Weighted>
-10.7356

> <Gold.Chemscore.Internal_Hbond.Weighted>
0.0000

> <Gold.Chemscore.DEClash.Weighted>
0.0346

> <Gold.Chemscore.DEInternal.Weighted>
0.3920

> <Gold.Chemscore.Rot.Weighted>
4.6035

> <Gold.Chemscore.Internal.Correction.Weighted>
   9.000000E+99

> <Gold.Protein.RotatedTorsions>
[ 6907 6896 6895 6894 ] final  147.03 input  -60.11 | X-H torsion
[ 7974 7965 7964 7962 ] final   75.02 input  175.53 | X-H torsion
[ 8008 7997 7996 7995 ] final -148.44 input   59.86 | X-H torsion
[ 10167 10162 10161 10158 ] final  -56.47 input  -65.29 | X-H torsion
[ 10718 10713 10712 10709 ] final  119.43 input   66.30 | X-H torsion
[ 10763 10752 10751 10750 ] final  168.34 input  -60.55 | X-H torsion
[ 11005 11000 10999 10996 ] final   45.71 input  -57.11 | X-H torsion

> <Gold.Protein.ActiveResidues>
 VAL166  LYS551  ARG553  GLY616  TRP617  ASP618  TYR619  PRO620  LYS621  CYS622 
 ASP623  PHE694  ASN695  SER759  ASP760  ASP761  ALA762  ILE779  LEU786  VAL792 
 PHE793  MET794  SER795  GLU796  ALA797  LYS798  CYS799  TRP800  GLU811  SER814 

> <Gold.Protein.RotatedAtoms>
  152.1601  133.4576  159.4856 H   0  0  0  0  0  0  0  0  0  0  0  0  # atno 6907 bound_to 6896
  150.6906  134.2082  159.4358 H   0  0  0  0  0  0  0  0  0  0  0  0  # atno 6908 bound_to 6896
  151.9984  134.9941  160.0615 H   0  0  0  0  0  0  0  0  0  0  0  0  # atno 6909 bound_to 6896
  145.7209  139.2648  143.1597 H   0  0  0  0  0  0  0  0  0  0  0  0  # atno 7974 bound_to 7965
  155.5916  140.0653  157.2757 H   0  0  0  0  0  0  0  0  0  0  0  0  # atno 8008 bound_to 7997
  154.4303  140.1834  156.1127 H   0  0  0  0  0  0  0  0  0  0  0  0  # atno 8009 bound_to 7997
  156.0228  140.3315  155.7060 H   0  0  0  0  0  0  0  0  0  0  0  0  # atno 8010 bound_to 7997
  140.6315  143.2462  151.5228 H   0  0  0  0  0  0  0  0  0  0  0  0  # atno 10167 bound_to 10162
  157.5962  131.1057  150.7895 H   0  0  0  0  0  0  0  0  0  0  0  0  # atno 10718 bound_to 10713
  154.3672  135.2753  155.2287 H   0  0  0  0  0  0  0  0  0  0  0  0  # atno 10763 bound_to 10752
  154.4450  135.5945  153.6157 H   0  0  0  0  0  0  0  0  0  0  0  0  # atno 10764 bound_to 10752
  152.9840  135.6028  154.3899 H   0  0  0  0  0  0  0  0  0  0  0  0  # atno 10765 bound_to 10752
  140.1435  134.4553  155.8433 H   0  0  0  0  0  0  0  0  0  0  0  0  # atno 11005 bound_to 11000
  146.0627  140.7954  142.9727 LP  0  0  0  0  0  0  0  0  0  0  0  0  # atno 17320 bound_to 7965
  144.6917  140.3221  143.7230 LP  0  0  0  0  0  0  0  0  0  0  0  0  # atno 17321 bound_to 7965
  139.5529  144.2350  152.1562 LP  0  0  0  0  0  0  0  0  0  0  0  0  # atno 17342 bound_to 10162
  140.1595  144.5039  150.6641 LP  0  0  0  0  0  0  0  0  0  0  0  0  # atno 17343 bound_to 10162
  156.8305  130.5014  149.5332 LP  0  0  0  0  0  0  0  0  0  0  0  0  # atno 17370 bound_to 10713
  156.1025  130.5980  150.9918 LP  0  0  0  0  0  0  0  0  0  0  0  0  # atno 17371 bound_to 10713
  141.2189  133.6842  156.7290 LP  0  0  0  0  0  0  0  0  0  0  0  0  # atno 17394 bound_to 11000
  140.2693  134.8405  157.3832 LP  0  0  0  0  0  0  0  0  0  0  0  0  # atno 17395 bound_to 11000

$$$$
