AV-unprocessed.smi:2060|AV-procd|sdf|8358|dock10
  -GOLD-   2272011 33D 1   1.00000     0.00000
 Structure written by MMmdl.
 45 46  0  0  0  0  0  0  0  0  3 V2000
  149.1396  134.2267  157.1879 C   0  0  0  0  0  0  0  0  0  0  0  0
  148.6104  135.6181  156.7626 C   0  0  0  0  0  0  0  0  0  0  0  0
  148.7949  136.0934  155.2667 C   0  0  1  0  0  0  0  0  0  0  0  0
  148.0663  137.4638  155.1324 C   0  0  0  0  0  0  0  0  0  0  0  0
  150.3222  136.2557  154.9241 C   0  0  0  0  0  0  0  0  0  0  0  0
  150.8120  137.5777  155.3291 N   0  5  0  0  0  0  0  0  0  0  0  0
  151.7999  137.7890  156.2404 C   0  0  0  0  0  0  0  0  0  0  0  0
  152.7515  137.0452  156.5053 O   0  0  0  0  0  0  0  0  0  0  0  0
  151.6516  138.9608  156.8852 N   0  0  0  0  0  0  0  0  0  0  0  0
  152.4774  139.5354  157.8869 C   0  0  0  0  0  0  0  0  0  0  0  0
  151.9797  140.5611  158.7343 C   0  0  0  0  0  0  0  0  0  0  0  0
  153.0488  140.8449  159.5367 C   0  0  0  0  0  0  0  0  0  0  0  0
  153.2526  141.8134  160.6507 C   0  0  0  0  0  0  0  0  0  0  0  0
  154.1093  140.0578  159.2094 O   0  0  0  0  0  0  0  0  0  0  0  0
  153.7368  139.2206  158.1513 N   0  0  0  0  0  0  0  0  0  0  0  0
  148.2135  135.0894  154.2822 N   0  3  0  0  0  0  0  0  0  0  0  0
  148.8700  133.7535  154.1840 C   0  0  0  0  0  0  0  0  0  0  0  0
  148.3148  132.9580  152.9886 C   0  0  0  0  0  0  0  0  0  0  0  0
  146.9042  132.8312  153.0888 O   0  0  0  0  0  0  0  0  0  0  0  0
  146.2663  134.0994  153.0837 C   0  0  0  0  0  0  0  0  0  0  0  0
  146.7297  134.8973  154.3106 C   0  0  0  0  0  0  0  0  0  0  0  0
  148.9630  134.0721  158.2525 H   0  0  0  0  0  0  0  0  0  0  0  0
  150.2124  134.1257  157.0307 H   0  0  0  0  0  0  0  0  0  0  0  0
  148.6397  133.4093  156.6687 H   0  0  0  0  0  0  0  0  0  0  0  0
  147.5586  135.6664  157.0521 H   0  0  0  0  0  0  0  0  0  0  0  0
  149.1257  136.3190  157.4196 H   0  0  0  0  0  0  0  0  0  0  0  0
  148.4478  138.2146  155.8253 H   0  0  0  0  0  0  0  0  0  0  0  0
  147.0015  137.3562  155.3421 H   0  0  0  0  0  0  0  0  0  0  0  0
  148.1527  137.9125  154.1416 H   0  0  0  0  0  0  0  0  0  0  0  0
  150.8840  135.4685  155.4274 H   0  0  0  0  0  0  0  0  0  0  0  0
  150.4744  136.0703  153.8608 H   0  0  0  0  0  0  0  0  0  0  0  0
  150.8499  139.5105  156.6154 H   0  0  0  0  0  0  0  0  0  0  0  0
  151.0006  141.0161  158.7516 H   0  0  0  0  0  0  0  0  0  0  0  0
  152.3746  142.4460  160.7826 H   0  0  0  0  0  0  0  0  0  0  0  0
  154.1074  142.4592  160.4499 H   0  0  0  0  0  0  0  0  0  0  0  0
  153.4363  141.2895  161.5887 H   0  0  0  0  0  0  0  0  0  0  0  0
  149.9423  133.8381  154.0184 H   0  0  0  0  0  0  0  0  0  0  0  0
  148.7209  133.2009  155.1126 H   0  0  0  0  0  0  0  0  0  0  0  0
  148.5795  133.4420  152.0469 H   0  0  0  0  0  0  0  0  0  0  0  0
  148.7557  131.9613  152.9658 H   0  0  0  0  0  0  0  0  0  0  0  0
  146.4863  134.6370  152.1597 H   0  0  0  0  0  0  0  0  0  0  0  0
  145.1871  133.9506  153.1181 H   0  0  0  0  0  0  0  0  0  0  0  0
  146.4381  134.3613  155.2150 H   0  0  0  0  0  0  0  0  0  0  0  0
  146.2005  135.8496  154.3197 H   0  0  0  0  0  0  0  0  0  0  0  0
  148.4071  135.5267  153.3909 H   0  0  0  0  0  0  0  0  0  0  0  0
  1  2  1  0  0  0  0
  1 22  1  0  0  0  0
  1 23  1  0  0  0  0
  1 24  1  0  0  0  0
  2  3  1  0  0  0  0
  2 25  1  0  0  0  0
  2 26  1  0  0  0  0
  3  4  1  0  0  0  0
  3  5  1  0  0  0  0
  3 16  1  0  0  0  0
  4 27  1  0  0  0  0
  4 28  1  0  0  0  0
  4 29  1  0  0  0  0
  5  6  1  0  0  0  0
  5 30  1  0  0  0  0
  5 31  1  0  0  0  0
  6  7  1  0  0  0  0
  7  8  2  0  0  0  0
  7  9  1  0  0  0  0
  9 10  1  0  0  0  0
  9 32  1  0  0  0  0
 10 15  2  0  0  0  0
 10 11  1  0  0  0  0
 11 12  2  0  0  0  0
 11 33  1  0  0  0  0
 12 13  1  0  0  0  0
 12 14  1  0  0  0  0
 13 34  1  0  0  0  0
 13 35  1  0  0  0  0
 13 36  1  0  0  0  0
 14 15  1  0  0  0  0
 16 21  1  0  0  0  0
 16 17  1  0  0  0  0
 16 45  1  0  0  0  0
 17 18  1  0  0  0  0
 17 37  1  0  0  0  0
 17 38  1  0  0  0  0
 18 19  1  0  0  0  0
 18 39  1  0  0  0  0
 18 40  1  0  0  0  0
 19 20  1  0  0  0  0
 20 21  1  0  0  0  0
 20 41  1  0  0  0  0
 20 42  1  0  0  0  0
 21 43  1  0  0  0  0
 21 44  1  0  0  0  0
M  CHG  1   6  -1
M  CHG  1  16   1
M  END
> <s_m_source_file>
AV-unprocessed.smi

> <i_m_source_file_index>
2060

> <i_lp_mmshare_version>
43012

> <i_f3d_flags>
0

> <s_epik_input>
W0NIMl0xW0NIMl1PW0NIMl1bQ0gyXU4xW0NAQF0oW0NIM10pKFtDSDJdW0NIM10pW0NIMl1bTkhdQyg9TylbTkhdYzJbY0hdYyhbQ0gzXSlvbjI=

> <s_epik_cmdline>
J2VwaWtfcHl0aG9uJywgJy1waCcsICc3LjAnLCAnLXRuJywgJzgnLCAnLW1hJywgJzIwMCcsICctbWV0YWxfYmluZGluZycsICctaW1hZScsICc8aW5maWxlLm1hZT4nLCAnLW9tYWUnLCAnPG91dGZpbGUubWFlPic=

> <r_epik_Ionization_Penalty>
6.79469

> <r_epik_Ionization_Penalty_Charging>
6.79469

> <r_epik_Ionization_Penalty_Neutral>
5.68576e-06

> <r_epik_State_Penalty>
7.33145

> <r_epik_Charging_Adjusted_Penalty>
14.1261

> <i_epik_Tot_Q>
0

> <i_epik_Tot_abs_Q>
2

> <r_epik_Metal_State_Penalty>
3.24803

> <b_epik_Metal_Only>
1

> <s_lp_Force_Field>
OPLS_2005

> <r_lp_Energy>
29.3309

> <b_lp_Chiralities_Consistent>
1

> <s_lp_Variant>
AV-unprocessed.smi:2060-5

> <Gold.Version>
5.8.1

> <Gold.Id.Protein>
6NUR|6NUR_protein|mol2

> <Gold.PLP.Fitness>
35.6062

> <Gold.PLP.PLP>
-25.8012

> <Gold.PLP.part.hbond>
-4.0000

> <Gold.PLP.part.metal>
0.0000

> <Gold.PLP.part.buried>
-4.2036

> <Gold.PLP.part.nonpolar>
-19.0900

> <Gold.PLP.part.repulsive>
0.2633

> <Gold.PLP.ligand.clash>
0.0000

> <Gold.PLP.ligand.torsion>
0.7882

> <Gold.PLP.Chemscore.Hbond>
3.7160

> <Gold.PLP.Chemscore.CHOScore>
0.0000

> <Gold.PLP.Chemscore.Metal>
0.0000

> <Gold.Chemscore.Hbonds>
donor molecule, donor type, donor heavy atom, donor atom, acceptor molecule, acceptor atom, score
      L1  H    16    45       P1  7948  2.00
      P1  H  7997  8008       L1    15  0.90
      P1  H 10752 10764       L1     8  0.62

> <Gold.PLP.Chemscore.Internal.Correction>
0.2332

> <Gold.Rescore>
     Score         DG    S(hbond)    S(metal)    S(lipo)     H(rot)  DE(clash)    DE(int)     intcor
     13.36     -15.49       2.37        0.00      55.83       1.73       0.18       1.95       ----

> <Gold.Chemscore.Fitness>
13.3571

> <Gold.Chemscore.DG>
-15.4874

> <Gold.Chemscore.ZeroCoef>
-5.4800

> <Gold.Chemscore.Hbond>
2.3659

> <Gold.Chemscore.Metal>
0.0000

> <Gold.Chemscore.Lipo>
55.8329

> <Gold.Chemscore.Internal_Hbond>
0.0000

> <Gold.Chemscore.DEClash>
0.1799

> <Gold.Chemscore.DEInternal>
1.9505

> <Gold.Chemscore.Rot>
1.7294

> <Gold.Chemscore.Internal.Correction>
   9.000000E+99

> <Gold.Chemscore.Hbonds>
donor molecule, donor type, donor heavy atom, donor atom, acceptor molecule, acceptor atom, score
      L1  H    16    45       P1  7948  1.00
      P1  H  7997  8008       L1    15  0.04
      P1  H 10752 10764       L1     8  0.58

> <Gold.Chemscore.Hbond.Weighted>
-7.9022

> <Gold.Chemscore.Metal.Weighted>
-0.0000

> <Gold.Chemscore.Lipo.Weighted>
-6.5324

> <Gold.Chemscore.Internal_Hbond.Weighted>
0.0000

> <Gold.Chemscore.DEClash.Weighted>
0.1799

> <Gold.Chemscore.DEInternal.Weighted>
1.9505

> <Gold.Chemscore.Rot.Weighted>
4.4272

> <Gold.Chemscore.Internal.Correction.Weighted>
   9.000000E+99

> <Gold.Protein.RotatedTorsions>
[ 6907 6896 6895 6894 ] final   37.96 input  -60.11 | X-H torsion
[ 7974 7965 7964 7962 ] final  151.72 input  175.53 | X-H torsion
[ 8008 7997 7996 7995 ] final  -73.89 input   59.86 | X-H torsion
[ 10167 10162 10161 10158 ] final  -88.78 input  -65.29 | X-H torsion
[ 10718 10713 10712 10709 ] final -110.14 input   66.30 | X-H torsion
[ 10763 10752 10751 10750 ] final  -24.34 input  -60.55 | X-H torsion
[ 11005 11000 10999 10996 ] final  -35.98 input  -57.11 | X-H torsion

> <Gold.Protein.ActiveResidues>
 VAL166  LYS551  ARG553  GLY616  TRP617  ASP618  TYR619  PRO620  LYS621  CYS622 
 ASP623  PHE694  ASN695  SER759  ASP760  ASP761  ALA762  ILE779  LEU786  VAL792 
 PHE793  MET794  SER795  GLU796  ALA797  LYS798  CYS799  TRP800  GLU811  SER814 

> <Gold.Protein.RotatedAtoms>
  152.1501  134.8995  160.0548 H   0  0  0  0  0  0  0  0  0  0  0  0  # atno 6907 bound_to 6896
  152.0030  133.3828  159.4197 H   0  0  0  0  0  0  0  0  0  0  0  0  # atno 6908 bound_to 6896
  150.6874  134.3735  159.5046 H   0  0  0  0  0  0  0  0  0  0  0  0  # atno 6909 bound_to 6896
  144.8272  139.6575  143.6074 H   0  0  0  0  0  0  0  0  0  0  0  0  # atno 7974 bound_to 7965
  154.5284  140.0771  156.8301 H   0  0  0  0  0  0  0  0  0  0  0  0  # atno 8008 bound_to 7997
  155.3426  140.3408  155.4221 H   0  0  0  0  0  0  0  0  0  0  0  0  # atno 8009 bound_to 7997
  156.1756  140.1634  156.8355 H   0  0  0  0  0  0  0  0  0  0  0  0  # atno 8010 bound_to 7997
  140.3713  143.2793  151.9497 H   0  0  0  0  0  0  0  0  0  0  0  0  # atno 10167 bound_to 10162
  156.0575  130.5800  150.8197 H   0  0  0  0  0  0  0  0  0  0  0  0  # atno 10718 bound_to 10713
  153.6822  135.6966  153.5114 H   0  0  0  0  0  0  0  0  0  0  0  0  # atno 10763 bound_to 10752
  153.2476  135.4285  155.0763 H   0  0  0  0  0  0  0  0  0  0  0  0  # atno 10764 bound_to 10752
  154.8397  135.3523  154.6365 H   0  0  0  0  0  0  0  0  0  0  0  0  # atno 10765 bound_to 10752
  140.9839  133.7041  156.1731 H   0  0  0  0  0  0  0  0  0  0  0  0  # atno 11005 bound_to 11000
  146.2577  139.6339  142.9383 LP  0  0  0  0  0  0  0  0  0  0  0  0  # atno 17320 bound_to 7965
  145.4974  141.0438  143.2559 LP  0  0  0  0  0  0  0  0  0  0  0  0  # atno 17321 bound_to 7965
  139.4803  144.5904  151.7781 LP  0  0  0  0  0  0  0  0  0  0  0  0  # atno 17342 bound_to 10162
  140.5031  144.1139  150.5976 LP  0  0  0  0  0  0  0  0  0  0  0  0  # atno 17343 bound_to 10162
  157.5556  131.0945  150.9633 LP  0  0  0  0  0  0  0  0  0  0  0  0  # atno 17370 bound_to 10713
  156.9882  130.5553  149.5301 LP  0  0  0  0  0  0  0  0  0  0  0  0  # atno 17371 bound_to 10713
  140.7144  134.4426  157.5579 LP  0  0  0  0  0  0  0  0  0  0  0  0  # atno 17394 bound_to 11000
  139.8962  134.8665  156.2098 LP  0  0  0  0  0  0  0  0  0  0  0  0  # atno 17395 bound_to 11000

$$$$
