AV-unprocessed.smi:852|AV-procd|sdf|3952|dock6
  -GOLD-   22720 1423D 1   1.00000     0.00000
 Structure written by MMmdl.
 30 31  0  0  0  0  0  0  0  0  1 V2000
  147.8202  140.0130  156.1394 C   0  0  0  0  0  0  0  0  0  0  0  0
  148.8372  140.9912  155.5192 C   0  0  2  0  0  0  0  0  0  0  0  0
  150.0204  140.2335  155.0597 C   0  0  0  0  0  0  0  0  0  0  0  0
  150.9468  139.6397  154.7004 N   0  0  0  0  0  0  0  0  0  0  0  0
  149.2209  141.9880  156.5205 N   0  0  0  0  0  0  0  0  0  0  0  0
  149.6541  141.7657  157.7741 C   0  0  0  0  0  0  0  0  0  0  0  0
  149.7438  140.6461  158.2752 O   0  0  0  0  0  0  0  0  0  0  0  0
  150.0401  142.9991  158.5950 C   0  0  0  0  0  0  0  0  0  0  0  0
  151.4163  142.9297  159.0556 N   0  0  0  0  0  0  0  0  0  0  0  0
  152.5059  143.5823  158.6372 C   0  0  0  0  0  0  0  0  0  0  0  0
  153.6157  143.2510  159.2848 N   0  0  0  0  0  0  0  0  0  0  0  0
  153.0913  142.3310  160.1458 C   0  0  0  0  0  0  0  0  0  0  0  0
  153.9238  141.6348  161.1119 C   0  0  0  0  0  0  0  0  0  0  0  0
  154.5867  141.0800  161.8812 N   0  0  0  0  0  0  0  0  0  0  0  0
  151.7837  142.0963  160.0594 N   0  0  0  0  0  0  0  0  0  0  0  0
  148.1804  141.6819  154.3259 C   0  0  0  0  0  0  0  0  0  0  0  0
  146.7768  142.2437  154.3791 C   0  0  0  0  0  0  0  0  0  0  0  0
  147.0779  141.0382  153.5153 C   0  0  0  0  0  0  0  0  0  0  0  0
  147.4708  139.2918  155.3998 H   0  0  0  0  0  0  0  0  0  0  0  0
  146.9456  140.5387  156.5244 H   0  0  0  0  0  0  0  0  0  0  0  0
  148.2526  139.4432  156.9621 H   0  0  0  0  0  0  0  0  0  0  0  0
  149.1814  142.9495  156.2155 H   0  0  0  0  0  0  0  0  0  0  0  0
  149.9136  143.8959  157.9875 H   0  0  0  0  0  0  0  0  0  0  0  0
  149.3813  143.0994  159.4593 H   0  0  0  0  0  0  0  0  0  0  0  0
  152.4873  144.3092  157.8383 H   0  0  0  0  0  0  0  0  0  0  0  0
  148.8862  142.2751  153.7466 H   0  0  0  0  0  0  0  0  0  0  0  0
  146.1880  142.0821  155.2798 H   0  0  0  0  0  0  0  0  0  0  0  0
  146.5971  143.1904  153.8736 H   0  0  0  0  0  0  0  0  0  0  0  0
  147.1004  141.1854  152.4376 H   0  0  0  0  0  0  0  0  0  0  0  0
  146.6904  140.0754  153.8416 H   0  0  0  0  0  0  0  0  0  0  0  0
  1  2  1  0  0  0  0
  1 19  1  0  0  0  0
  1 20  1  0  0  0  0
  1 21  1  0  0  0  0
  2  3  1  0  0  0  0
  2  5  1  0  0  0  0
  2 16  1  0  0  0  0
  3  4  3  0  0  0  0
  5  6  1  0  0  0  0
  5 22  1  0  0  0  0
  6  7  2  0  0  0  0
  6  8  1  0  0  0  0
  8  9  1  0  0  0  0
  8 23  1  0  0  0  0
  8 24  1  0  0  0  0
  9 15  1  0  0  0  0
  9 10  1  0  0  0  0
 10 11  2  0  0  0  0
 10 25  1  0  0  0  0
 11 12  1  0  0  0  0
 12 13  1  0  0  0  0
 12 15  2  0  0  0  0
 13 14  3  0  0  0  0
 16 18  1  0  0  0  0
 16 17  1  0  0  0  0
 16 26  1  0  0  0  0
 17 18  1  0  0  0  0
 17 27  1  0  0  0  0
 17 28  1  0  0  0  0
 18 29  1  0  0  0  0
 18 30  1  0  0  0  0
M  END
> <s_m_source_file>
AV-unprocessed.smi

> <i_m_source_file_index>
852

> <i_lp_mmshare_version>
43012

> <i_f3d_flags>
0

> <s_epik_input>
W0NIMl0xW0NIMl1bQ0hdMVtDQF0oW0NIM10pKEMjTilbTkhdQyg9TylbQ0gyXW4yW2NIXW5jKG4yKUMjTg==

> <s_epik_cmdline>
J2VwaWtfcHl0aG9uJywgJy1waCcsICc3LjAnLCAnLXRuJywgJzgnLCAnLW1hJywgJzIwMCcsICctbWV0YWxfYmluZGluZycsICctaW1hZScsICc8aW5maWxlLm1hZT4nLCAnLW9tYWUnLCAnPG91dGZpbGUubWFlPic=

> <r_lp_tautomer_probability>
1

> <r_epik_Ionization_Penalty>
2.64294e-06

> <r_epik_Ionization_Penalty_Charging>
0

> <r_epik_Ionization_Penalty_Neutral>
2.64294e-06

> <r_epik_State_Penalty>
-0

> <r_epik_Charging_Adjusted_Penalty>
0

> <i_epik_Tot_Q>
0

> <i_epik_Tot_abs_Q>
0

> <r_epik_Metal_State_Penalty>
-0

> <b_epik_Metal_Only>
0

> <s_lp_Force_Field>
OPLS_2005

> <r_lp_Energy>
16.3367

> <b_lp_Chiralities_Consistent>
1

> <s_lp_Variant>
AV-unprocessed.smi:852-2

> <Gold.Version>
5.8.1

> <Gold.Id.Protein>
6NUR|6NUR_protein|mol2

> <Gold.PLP.Fitness>
41.4495

> <Gold.PLP.PLP>
-36.0986

> <Gold.PLP.part.hbond>
-3.4860

> <Gold.PLP.part.metal>
0.0000

> <Gold.PLP.part.buried>
-5.1320

> <Gold.PLP.part.nonpolar>
-27.5392

> <Gold.PLP.part.repulsive>
0.1240

> <Gold.PLP.ligand.clash>
0.0000

> <Gold.PLP.ligand.torsion>
1.0812

> <Gold.PLP.Chemscore.Hbond>
2.0000

> <Gold.PLP.Chemscore.CHOScore>
0.0000

> <Gold.PLP.Chemscore.Metal>
0.0000

> <Gold.Chemscore.Hbonds>
donor molecule, donor type, donor heavy atom, donor atom, acceptor molecule, acceptor atom, score
      L1  H     5    22       P1  8028  1.00
      P1  H  7989  7998       L1     4  0.95

> <Gold.PLP.Chemscore.Internal.Correction>
1.5134

> <Gold.Rescore>
     Score         DG    S(hbond)    S(metal)    S(lipo)     H(rot)  DE(clash)    DE(int)     intcor
      6.42      -8.96       1.82        0.00      31.52       2.46       0.07       2.47       ----

> <Gold.Chemscore.Fitness>
6.4161

> <Gold.Chemscore.DG>
-8.9580

> <Gold.Chemscore.ZeroCoef>
-5.4800

> <Gold.Chemscore.Hbond>
1.8204

> <Gold.Chemscore.Metal>
0.0000

> <Gold.Chemscore.Lipo>
31.5196

> <Gold.Chemscore.Internal_Hbond>
0.0000

> <Gold.Chemscore.DEClash>
0.0672

> <Gold.Chemscore.DEInternal>
2.4747

> <Gold.Chemscore.Rot>
2.4571

> <Gold.Chemscore.Internal.Correction>
   9.000000E+99

> <Gold.Chemscore.Hbonds>
donor molecule, donor type, donor heavy atom, donor atom, acceptor molecule, acceptor atom, score
      L1  H     5    22       P1  8028  1.00
      P1  H  7989  7998       L1     4  0.22

> <Gold.Chemscore.Hbond.Weighted>
-6.0803

> <Gold.Chemscore.Metal.Weighted>
-0.0000

> <Gold.Chemscore.Lipo.Weighted>
-3.6878

> <Gold.Chemscore.Internal_Hbond.Weighted>
0.0000

> <Gold.Chemscore.DEClash.Weighted>
0.0672

> <Gold.Chemscore.DEInternal.Weighted>
2.4747

> <Gold.Chemscore.Rot.Weighted>
6.2901

> <Gold.Chemscore.Internal.Correction.Weighted>
   9.000000E+99

> <Gold.Protein.RotatedTorsions>
[ 6907 6896 6895 6894 ] final  -21.65 input  -60.11 | X-H torsion
[ 7974 7965 7964 7962 ] final   26.52 input  175.53 | X-H torsion
[ 8008 7997 7996 7995 ] final    4.10 input   59.86 | X-H torsion
[ 10167 10162 10161 10158 ] final  -40.11 input  -65.29 | X-H torsion
[ 10718 10713 10712 10709 ] final  -43.17 input   66.30 | X-H torsion
[ 10763 10752 10751 10750 ] final -177.76 input  -60.55 | X-H torsion
[ 11005 11000 10999 10996 ] final   25.49 input  -57.11 | X-H torsion

> <Gold.Protein.ActiveResidues>
 VAL166  LYS551  ARG553  GLY616  TRP617  ASP618  TYR619  PRO620  LYS621  CYS622 
 ASP623  PHE694  ASN695  SER759  ASP760  ASP761  ALA762  ILE779  LEU786  VAL792 
 PHE793  MET794  SER795  GLU796  ALA797  LYS798  CYS799  TRP800  GLU811  SER814 

> <Gold.Protein.RotatedAtoms>
  151.2301  135.0551  159.8984 H   0  0  0  0  0  0  0  0  0  0  0  0  # atno 6907 bound_to 6896
  152.5406  134.0546  159.8135 H   0  0  0  0  0  0  0  0  0  0  0  0  # atno 6908 bound_to 6896
  151.0724  133.5406  159.2657 H   0  0  0  0  0  0  0  0  0  0  0  0  # atno 6909 bound_to 6896
  146.1833  139.7316  142.8885 H   0  0  0  0  0  0  0  0  0  0  0  0  # atno 7974 bound_to 7965
  154.7118  140.2694  155.6622 H   0  0  0  0  0  0  0  0  0  0  0  0  # atno 8008 bound_to 7997
  156.2798  140.2752  156.1687 H   0  0  0  0  0  0  0  0  0  0  0  0  # atno 8009 bound_to 7997
  155.0624  140.0371  157.2571 H   0  0  0  0  0  0  0  0  0  0  0  0  # atno 8010 bound_to 7997
  140.7044  143.3173  151.2878 H   0  0  0  0  0  0  0  0  0  0  0  0  # atno 10167 bound_to 10162
  156.2518  130.4189  149.8641 H   0  0  0  0  0  0  0  0  0  0  0  0  # atno 10718 bound_to 10713
  154.5561  135.2816  155.0963 H   0  0  0  0  0  0  0  0  0  0  0  0  # atno 10763 bound_to 10752
  154.2390  135.6360  153.5204 H   0  0  0  0  0  0  0  0  0  0  0  0  # atno 10764 bound_to 10752
  153.0016  135.5555  154.6142 H   0  0  0  0  0  0  0  0  0  0  0  0  # atno 10765 bound_to 10752
  140.3472  134.2268  155.7683 H   0  0  0  0  0  0  0  0  0  0  0  0  # atno 11005 bound_to 11000
  145.4013  141.0385  143.3069 LP  0  0  0  0  0  0  0  0  0  0  0  0  # atno 17320 bound_to 7965
  144.8352  139.5561  143.6925 LP  0  0  0  0  0  0  0  0  0  0  0  0  # atno 17321 bound_to 7965
  139.6615  144.0180  152.2696 LP  0  0  0  0  0  0  0  0  0  0  0  0  # atno 17342 bound_to 10162
  139.9749  144.6468  150.7954 LP  0  0  0  0  0  0  0  0  0  0  0  0  # atno 17343 bound_to 10162
  156.6186  130.8617  151.3470 LP  0  0  0  0  0  0  0  0  0  0  0  0  # atno 17370 bound_to 10713
  157.7217  130.9568  150.1467 LP  0  0  0  0  0  0  0  0  0  0  0  0  # atno 17371 bound_to 10713
  141.2022  133.7943  157.0402 LP  0  0  0  0  0  0  0  0  0  0  0  0  # atno 17394 bound_to 11000
  140.0732  134.9690  157.1502 LP  0  0  0  0  0  0  0  0  0  0  0  0  # atno 17395 bound_to 11000

$$$$
