AV-unprocessed.smi:3010|AV-procd|sdf|11456|dock7
  -GOLD-   2272016393D 1   1.00000     0.00000
 Structure written by MMmdl.
 38 40  0  0  0  0  0  0  0  0  1 V2000
  154.5880  139.7077  160.5188 C   0  0  0  0  0  0  0  0  0  0  0  0
  153.7114  140.8726  160.2936 N   0  0  0  0  0  0  0  0  0  0  0  0
  153.0037  140.9342  159.1217 C   0  0  0  0  0  0  0  0  0  0  0  0
  153.0524  140.0902  158.2261 O   0  0  0  0  0  0  0  0  0  0  0  0
  152.1503  142.1214  159.0055 C   0  0  0  0  0  0  0  0  0  0  0  0
  152.0849  143.0775  159.9635 C   0  0  0  0  0  0  0  0  0  0  0  0
  151.2094  144.0964  159.6052 N   0  0  0  0  0  0  0  0  0  0  0  0
  150.7799  143.6855  158.4114 C   0  0  0  0  0  0  0  0  0  0  0  0
  151.2926  142.5157  157.9787 N   0  0  0  0  0  0  0  0  0  0  0  0
  150.9850  141.8619  156.7150 C   0  0  0  0  0  0  0  0  0  0  0  0
  150.0898  140.6183  156.8881 C   0  0  1  0  0  0  0  0  0  0  0  0
  149.4146  140.6613  158.1308 O   0  0  0  0  0  0  0  0  0  0  0  0
  149.1313  140.4666  155.7172 C   0  0  0  0  0  0  0  0  0  0  0  0
  148.2814  141.5307  155.3410 C   0  0  0  0  0  0  0  0  0  0  0  0
  147.4030  141.3860  154.2497 C   0  0  0  0  0  0  0  0  0  0  0  0
  147.3713  140.1786  153.5262 C   0  0  0  0  0  0  0  0  0  0  0  0
  148.2195  139.1164  153.8936 C   0  0  0  0  0  0  0  0  0  0  0  0
  149.0978  139.2602  154.9855 C   0  0  0  0  0  0  0  0  0  0  0  0
  152.8696  142.9237  161.1331 N   0  0  0  0  0  0  0  0  0  0  0  0
  152.7807  143.9833  162.1424 C   0  0  0  0  0  0  0  0  0  0  0  0
  153.6764  141.8239  161.2994 C   0  0  0  0  0  0  0  0  0  0  0  0
  154.3538  141.6888  162.3222 O   0  0  0  0  0  0  0  0  0  0  0  0
  154.5833  138.9665  159.7189 H   0  0  0  0  0  0  0  0  0  0  0  0
  154.2936  139.1804  161.4278 H   0  0  0  0  0  0  0  0  0  0  0  0
  155.6238  140.0292  160.6384 H   0  0  0  0  0  0  0  0  0  0  0  0
  150.0695  144.2551  157.8302 H   0  0  0  0  0  0  0  0  0  0  0  0
  150.5305  142.5807  156.0348 H   0  0  0  0  0  0  0  0  0  0  0  0
  151.9275  141.5705  156.2496 H   0  0  0  0  0  0  0  0  0  0  0  0
  150.7289  139.7346  156.9200 H   0  0  0  0  0  0  0  0  0  0  0  0
  148.5290  140.3584  158.0004 H   0  0  0  0  0  0  0  0  0  0  0  0
  148.3022  142.4630  155.8867 H   0  0  0  0  0  0  0  0  0  0  0  0
  146.7546  142.2024  153.9669 H   0  0  0  0  0  0  0  0  0  0  0  0
  146.6982  140.0678  152.6887 H   0  0  0  0  0  0  0  0  0  0  0  0
  148.1977  138.1909  153.3371 H   0  0  0  0  0  0  0  0  0  0  0  0
  149.7469  138.4406  155.2571 H   0  0  0  0  0  0  0  0  0  0  0  0
  153.3766  143.8050  163.0378 H   0  0  0  0  0  0  0  0  0  0  0  0
  151.7460  144.1060  162.4637 H   0  0  0  0  0  0  0  0  0  0  0  0
  153.1122  144.9302  161.7151 H   0  0  0  0  0  0  0  0  0  0  0  0
  1  2  1  0  0  0  0
  1 23  1  0  0  0  0
  1 24  1  0  0  0  0
  1 25  1  0  0  0  0
  2 21  1  0  0  0  0
  2  3  1  0  0  0  0
  3  4  2  0  0  0  0
  3  5  1  0  0  0  0
  5  9  1  0  0  0  0
  5  6  2  0  0  0  0
  6  7  1  0  0  0  0
  6 19  1  0  0  0  0
  7  8  2  0  0  0  0
  8  9  1  0  0  0  0
  8 26  1  0  0  0  0
  9 10  1  0  0  0  0
 10 11  1  0  0  0  0
 10 27  1  0  0  0  0
 10 28  1  0  0  0  0
 11 12  1  0  0  0  0
 11 13  1  0  0  0  0
 11 29  1  0  0  0  0
 12 30  1  0  0  0  0
 13 18  1  0  0  0  0
 13 14  2  0  0  0  0
 14 15  1  0  0  0  0
 14 31  1  0  0  0  0
 15 16  2  0  0  0  0
 15 32  1  0  0  0  0
 16 17  1  0  0  0  0
 16 33  1  0  0  0  0
 17 18  2  0  0  0  0
 17 34  1  0  0  0  0
 18 35  1  0  0  0  0
 19 20  1  0  0  0  0
 19 21  1  0  0  0  0
 20 36  1  0  0  0  0
 20 37  1  0  0  0  0
 20 38  1  0  0  0  0
 21 22  2  0  0  0  0
M  END
> <s_m_source_file>
AV-unprocessed.smi

> <i_m_source_file_index>
3010

> <i_lp_mmshare_version>
43012

> <i_f3d_flags>
0

> <s_epik_input>
Tz1jMW4oW0NIM10pYyg9TyluKFtDSDNdKWMoYzEyKW5bY0hdbjJbQ0gyXVtDQEhdKFtPSF0pYzNbY0hdW2NIXVtjSF1bY0hdW2NIXTM=

> <s_epik_cmdline>
J2VwaWtfcHl0aG9uJywgJy1waCcsICc3LjAnLCAnLXRuJywgJzgnLCAnLW1hJywgJzIwMCcsICctbWV0YWxfYmluZGluZycsICctaW1hZScsICc8aW5maWxlLm1hZT4nLCAnLW9tYWUnLCAnPG91dGZpbGUubWFlPic=

> <r_lp_tautomer_probability>
1

> <r_epik_Ionization_Penalty>
1.43747e-06

> <r_epik_Ionization_Penalty_Charging>
3.74189e-09

> <r_epik_Ionization_Penalty_Neutral>
1.43373e-06

> <r_epik_State_Penalty>
-0

> <r_epik_Charging_Adjusted_Penalty>
3.74189e-09

> <i_epik_Tot_Q>
0

> <i_epik_Tot_abs_Q>
0

> <r_epik_Metal_State_Penalty>
-0

> <b_epik_Metal_Only>
0

> <s_lp_Force_Field>
OPLS_2005

> <r_lp_Energy>
36.4427

> <b_lp_Chiralities_Consistent>
1

> <s_lp_Variant>
AV-unprocessed.smi:3010-2

> <Gold.Version>
5.8.1

> <Gold.Id.Protein>
6NUR|6NUR_protein|mol2

> <Gold.PLP.Fitness>
49.1994

> <Gold.PLP.PLP>
-44.4410

> <Gold.PLP.part.hbond>
-2.0000

> <Gold.PLP.part.metal>
0.0000

> <Gold.PLP.part.buried>
-3.0361

> <Gold.PLP.part.nonpolar>
-38.8746

> <Gold.PLP.part.repulsive>
0.0737

> <Gold.PLP.ligand.clash>
0.0000

> <Gold.PLP.ligand.torsion>
0.7906

> <Gold.PLP.Chemscore.Hbond>
1.0000

> <Gold.PLP.Chemscore.CHOScore>
1.1027

> <Gold.PLP.Chemscore.Metal>
0.0000

> <Gold.Chemscore.Hbonds>
donor molecule, donor type, donor heavy atom, donor atom, acceptor molecule, acceptor atom, score
      P1  H  7997  8010       L1     4  1.00
      L1  C     8    26       P1  8028  1.00
      L1  C     8    26       P1  8029  0.10

> <Gold.PLP.Chemscore.Internal.Correction>
0.0315

> <Gold.Rescore>
     Score         DG    S(hbond)    S(metal)    S(lipo)     H(rot)  DE(clash)    DE(int)     intcor
     10.61     -12.16       0.93        0.00      77.62       2.15       0.89       0.66       ----

> <Gold.Chemscore.Fitness>
10.6058

> <Gold.Chemscore.DG>
-12.1583

> <Gold.Chemscore.ZeroCoef>
-5.4800

> <Gold.Chemscore.Hbond>
0.9264

> <Gold.Chemscore.Metal>
0.0000

> <Gold.Chemscore.Lipo>
77.6186

> <Gold.Chemscore.Internal_Hbond>
0.0000

> <Gold.Chemscore.DEClash>
0.8940

> <Gold.Chemscore.DEInternal>
0.6585

> <Gold.Chemscore.Rot>
2.1474

> <Gold.Chemscore.Internal.Correction>
   9.000000E+99

> <Gold.Chemscore.Hbonds>
donor molecule, donor type, donor heavy atom, donor atom, acceptor molecule, acceptor atom, score
      P1  H  7997  8010       L1     4  0.93

> <Gold.Chemscore.Hbond.Weighted>
-3.0943

> <Gold.Chemscore.Metal.Weighted>
-0.0000

> <Gold.Chemscore.Lipo.Weighted>
-9.0814

> <Gold.Chemscore.Internal_Hbond.Weighted>
0.0000

> <Gold.Chemscore.DEClash.Weighted>
0.8940

> <Gold.Chemscore.DEInternal.Weighted>
0.6585

> <Gold.Chemscore.Rot.Weighted>
5.4974

> <Gold.Chemscore.Internal.Correction.Weighted>
   9.000000E+99

> <Gold.Protein.RotatedTorsions>
[ 6907 6896 6895 6894 ] final  147.23 input  -60.11 | X-H torsion
[ 7974 7965 7964 7962 ] final  -10.29 input  175.53 | X-H torsion
[ 8008 7997 7996 7995 ] final   39.42 input   59.86 | X-H torsion
[ 10167 10162 10161 10158 ] final   99.22 input  -65.29 | X-H torsion
[ 10718 10713 10712 10709 ] final  174.05 input   66.30 | X-H torsion
[ 10763 10752 10751 10750 ] final   26.53 input  -60.55 | X-H torsion
[ 11005 11000 10999 10996 ] final  121.23 input  -57.11 | X-H torsion

> <Gold.Protein.ActiveResidues>
 VAL166  LYS551  ARG553  GLY616  TRP617  ASP618  TYR619  PRO620  LYS621  CYS622 
 ASP623  PHE694  ASN695  SER759  ASP760  ASP761  ALA762  ILE779  LEU786  VAL792 
 PHE793  MET794  SER795  GLU796  ALA797  LYS798  CYS799  TRP800  GLU811  SER814 

> <Gold.Protein.RotatedAtoms>
  152.1575  133.4560  159.4843 H   0  0  0  0  0  0  0  0  0  0  0  0  # atno 6907 bound_to 6896
  150.6902  134.2113  159.4369 H   0  0  0  0  0  0  0  0  0  0  0  0  # atno 6908 bound_to 6896
  152.0013  134.9926  160.0616 H   0  0  0  0  0  0  0  0  0  0  0  0  # atno 6909 bound_to 6896
  146.2225  140.2742  142.8358 H   0  0  0  0  0  0  0  0  0  0  0  0  # atno 7974 bound_to 7965
  155.2364  140.3342  155.4297 H   0  0  0  0  0  0  0  0  0  0  0  0  # atno 8008 bound_to 7997
  156.2274  140.1835  156.7375 H   0  0  0  0  0  0  0  0  0  0  0  0  # atno 8009 bound_to 7997
  154.5921  140.0636  156.9238 H   0  0  0  0  0  0  0  0  0  0  0  0  # atno 8010 bound_to 7997
  139.7637  144.6946  151.0255 H   0  0  0  0  0  0  0  0  0  0  0  0  # atno 10167 bound_to 10162
  156.9553  131.0044  151.2939 H   0  0  0  0  0  0  0  0  0  0  0  0  # atno 10718 bound_to 10713
  153.0616  135.6558  154.0449 H   0  0  0  0  0  0  0  0  0  0  0  0  # atno 10763 bound_to 10752
  154.0115  135.2928  155.3393 H   0  0  0  0  0  0  0  0  0  0  0  0  # atno 10764 bound_to 10752
  154.6957  135.5265  153.8523 H   0  0  0  0  0  0  0  0  0  0  0  0  # atno 10765 bound_to 10752
  139.9217  134.9638  156.7927 H   0  0  0  0  0  0  0  0  0  0  0  0  # atno 11005 bound_to 11000
  144.9245  140.7906  143.5727 LP  0  0  0  0  0  0  0  0  0  0  0  0  # atno 17320 bound_to 7965
  145.2681  139.1965  143.4856 LP  0  0  0  0  0  0  0  0  0  0  0  0  # atno 17321 bound_to 7965
  140.7809  143.4667  151.0202 LP  0  0  0  0  0  0  0  0  0  0  0  0  # atno 17342 bound_to 10162
  139.8353  143.7636  152.3180 LP  0  0  0  0  0  0  0  0  0  0  0  0  # atno 17343 bound_to 10162
  157.5694  130.8300  149.8371 LP  0  0  0  0  0  0  0  0  0  0  0  0  # atno 17370 bound_to 10713
  156.0345  130.3755  150.1597 LP  0  0  0  0  0  0  0  0  0  0  0  0  # atno 17371 bound_to 10713
  140.6454  133.9780  155.7728 LP  0  0  0  0  0  0  0  0  0  0  0  0  # atno 17394 bound_to 11000
  141.0743  134.0158  157.3480 LP  0  0  0  0  0  0  0  0  0  0  0  0  # atno 17395 bound_to 11000

$$$$
