AV-unprocessed.smi:2739|AV-procd|sdf|10551|dock4
  -GOLD-   2272015 03D 1   1.00000     0.00000
 Structure written by MMmdl.
 35 35  0  0  0  0  0  0  0  0  1 V2000
  152.5784  142.9952  161.8422 C   0  0  0  0  0  0  0  0  0  0  0  0
  152.8857  142.4353  160.4458 C   0  0  0  0  0  0  0  0  0  0  0  0
  151.8447  142.8242  159.3727 C   0  0  1  0  0  0  0  0  0  0  0  0
  151.8027  144.3414  159.1181 C   0  0  0  0  0  0  0  0  0  0  0  0
  152.0025  142.0748  158.1236 N   0  0  0  0  0  0  0  0  0  0  0  0
  151.0533  141.7889  157.2153 C   0  0  0  0  0  0  0  0  0  0  0  0
  149.8816  142.1532  157.3072 O   0  0  0  0  0  0  0  0  0  0  0  0
  151.4975  140.9548  156.0137 C   0  0  0  0  0  0  0  0  0  0  0  0
  150.3511  140.4471  155.2819 N   0  0  0  0  0  0  0  0  0  0  0  0
  150.0649  139.1442  154.9353 C   0  0  0  0  0  0  0  0  0  0  0  0
  148.8868  139.1582  154.2458 C   0  0  0  0  0  0  0  0  0  0  0  0
  148.5190  140.5351  154.2152 C   0  0  0  0  0  0  0  0  0  0  0  0
  147.3032  141.1699  153.5917 C   0  0  2  0  0  0  0  0  0  0  0  0
  146.5045  141.9832  154.6193 C   0  0  0  0  0  0  0  0  0  0  0  0
  146.4385  140.2128  153.0156 O   0  0  0  0  0  0  0  0  0  0  0  0
  149.4019  141.3006  154.8406 N   0  0  0  0  0  0  0  0  0  0  0  0
  153.3709  142.7345  162.5441 H   0  0  0  0  0  0  0  0  0  0  0  0
  151.6448  142.5953  162.2385 H   0  0  0  0  0  0  0  0  0  0  0  0
  152.4970  144.0822  161.8214 H   0  0  0  0  0  0  0  0  0  0  0  0
  153.8647  142.8018  160.1353 H   0  0  0  0  0  0  0  0  0  0  0  0
  152.9824  141.3509  160.5054 H   0  0  0  0  0  0  0  0  0  0  0  0
  150.8637  142.5407  159.7558 H   0  0  0  0  0  0  0  0  0  0  0  0
  151.5527  144.8821  160.0311 H   0  0  0  0  0  0  0  0  0  0  0  0
  151.0491  144.5936  158.3714 H   0  0  0  0  0  0  0  0  0  0  0  0
  152.7619  144.7214  158.7658 H   0  0  0  0  0  0  0  0  0  0  0  0
  152.9296  141.7192  157.9386 H   0  0  0  0  0  0  0  0  0  0  0  0
  152.1017  141.5631  155.3393 H   0  0  0  0  0  0  0  0  0  0  0  0
  152.1222  140.1226  156.3425 H   0  0  0  0  0  0  0  0  0  0  0  0
  150.7172  138.3261  155.2038 H   0  0  0  0  0  0  0  0  0  0  0  0
  148.3649  138.3113  153.8254 H   0  0  0  0  0  0  0  0  0  0  0  0
  147.6152  141.8376  152.7875 H   0  0  0  0  0  0  0  0  0  0  0  0
  147.1157  142.7751  155.0534 H   0  0  0  0  0  0  0  0  0  0  0  0
  146.1498  141.3523  155.4353 H   0  0  0  0  0  0  0  0  0  0  0  0
  145.6352  142.4545  154.1595 H   0  0  0  0  0  0  0  0  0  0  0  0
  145.5660  140.5754  152.9923 H   0  0  0  0  0  0  0  0  0  0  0  0
  1  2  1  0  0  0  0
  1 17  1  0  0  0  0
  1 18  1  0  0  0  0
  1 19  1  0  0  0  0
  2  3  1  0  0  0  0
  2 20  1  0  0  0  0
  2 21  1  0  0  0  0
  3  4  1  0  0  0  0
  3  5  1  0  0  0  0
  3 22  1  0  0  0  0
  4 23  1  0  0  0  0
  4 24  1  0  0  0  0
  4 25  1  0  0  0  0
  5  6  1  0  0  0  0
  5 26  1  0  0  0  0
  6  7  2  0  0  0  0
  6  8  1  0  0  0  0
  8  9  1  0  0  0  0
  8 27  1  0  0  0  0
  8 28  1  0  0  0  0
  9 16  1  0  0  0  0
  9 10  1  0  0  0  0
 10 11  2  0  0  0  0
 10 29  1  0  0  0  0
 11 12  1  0  0  0  0
 11 30  1  0  0  0  0
 12 13  1  0  0  0  0
 12 16  2  0  0  0  0
 13 14  1  0  0  0  0
 13 15  1  0  0  0  0
 13 31  1  0  0  0  0
 14 32  1  0  0  0  0
 14 33  1  0  0  0  0
 14 34  1  0  0  0  0
 15 35  1  0  0  0  0
M  END
> <s_m_source_file>
AV-unprocessed.smi

> <i_m_source_file_index>
2739

> <i_lp_mmshare_version>
43012

> <i_f3d_flags>
0

> <s_epik_input>
W0NIM11bQ0gyXVtDQEhdKFtDSDNdKVtOSF1DKD1PKVtDSDJdbjFbY0hdW2NIXWMobjEpW0NASF0oW0NIM10pW09IXQ==

> <s_epik_cmdline>
J2VwaWtfcHl0aG9uJywgJy1waCcsICc3LjAnLCAnLXRuJywgJzgnLCAnLW1hJywgJzIwMCcsICctbWV0YWxfYmluZGluZycsICctaW1hZScsICc8aW5maWxlLm1hZT4nLCAnLW9tYWUnLCAnPG91dGZpbGUubWFlPic=

> <r_lp_tautomer_probability>
1

> <r_epik_Ionization_Penalty>
5.22246e-06

> <r_epik_Ionization_Penalty_Charging>
0

> <r_epik_Ionization_Penalty_Neutral>
5.22246e-06

> <r_epik_State_Penalty>
-0

> <r_epik_Charging_Adjusted_Penalty>
0

> <i_epik_Tot_Q>
0

> <i_epik_Tot_abs_Q>
0

> <r_epik_Metal_State_Penalty>
-0

> <b_epik_Metal_Only>
0

> <s_lp_Force_Field>
OPLS_2005

> <r_lp_Energy>
1.58762

> <b_lp_Chiralities_Consistent>
1

> <s_lp_Variant>
AV-unprocessed.smi:2739-2

> <Gold.Version>
5.8.1

> <Gold.Id.Protein>
6NUR|6NUR_protein|mol2

> <Gold.PLP.Fitness>
39.4791

> <Gold.PLP.PLP>
-37.5683

> <Gold.PLP.part.hbond>
-1.3781

> <Gold.PLP.part.metal>
0.0000

> <Gold.PLP.part.buried>
-4.2222

> <Gold.PLP.part.nonpolar>
-32.1883

> <Gold.PLP.part.repulsive>
0.3431

> <Gold.PLP.ligand.clash>
0.0000

> <Gold.PLP.ligand.torsion>
0.5566

> <Gold.PLP.Chemscore.Hbond>
0.9600

> <Gold.PLP.Chemscore.CHOScore>
0.0000

> <Gold.PLP.Chemscore.Metal>
0.0000

> <Gold.Chemscore.Hbonds>
donor molecule, donor type, donor heavy atom, donor atom, acceptor molecule, acceptor atom, score
      L1  H    15    35       P1 10175  1.00

> <Gold.PLP.Chemscore.Internal.Correction>
0.1440

> <Gold.Rescore>
     Score         DG    S(hbond)    S(metal)    S(lipo)     H(rot)  DE(clash)    DE(int)     intcor
     10.23     -12.63       0.94        0.00      85.52       2.34       0.19       2.21       ----

> <Gold.Chemscore.Fitness>
10.2323

> <Gold.Chemscore.DG>
-12.6341

> <Gold.Chemscore.ZeroCoef>
-5.4800

> <Gold.Chemscore.Hbond>
0.9435

> <Gold.Chemscore.Metal>
0.0000

> <Gold.Chemscore.Lipo>
85.5173

> <Gold.Chemscore.Internal_Hbond>
0.0000

> <Gold.Chemscore.DEClash>
0.1872

> <Gold.Chemscore.DEInternal>
2.2146

> <Gold.Chemscore.Rot>
2.3448

> <Gold.Chemscore.Internal.Correction>
   9.000000E+99

> <Gold.Chemscore.Hbonds>
donor molecule, donor type, donor heavy atom, donor atom, acceptor molecule, acceptor atom, score
      L1  H    15    35       P1 10175  0.75

> <Gold.Chemscore.Hbond.Weighted>
-3.1513

> <Gold.Chemscore.Metal.Weighted>
-0.0000

> <Gold.Chemscore.Lipo.Weighted>
-10.0055

> <Gold.Chemscore.Internal_Hbond.Weighted>
0.0000

> <Gold.Chemscore.DEClash.Weighted>
0.1872

> <Gold.Chemscore.DEInternal.Weighted>
2.2146

> <Gold.Chemscore.Rot.Weighted>
6.0027

> <Gold.Chemscore.Internal.Correction.Weighted>
   9.000000E+99

> <Gold.Protein.RotatedTorsions>
[ 6907 6896 6895 6894 ] final -162.20 input  -60.11 | X-H torsion
[ 7974 7965 7964 7962 ] final  -49.16 input  175.53 | X-H torsion
[ 8008 7997 7996 7995 ] final -161.74 input   59.86 | X-H torsion
[ 10167 10162 10161 10158 ] final -103.98 input  -65.29 | X-H torsion
[ 10718 10713 10712 10709 ] final   30.06 input   66.30 | X-H torsion
[ 10763 10752 10751 10750 ] final  140.60 input  -60.55 | X-H torsion
[ 11005 11000 10999 10996 ] final  147.45 input  -57.11 | X-H torsion

> <Gold.Protein.ActiveResidues>
 VAL166  LYS551  ARG553  GLY616  TRP617  ASP618  TYR619  PRO620  LYS621  CYS622 
 ASP623  PHE694  ASN695  SER759  ASP760  ASP761  ALA762  ILE779  LEU786  VAL792 
 PHE793  MET794  SER795  GLU796  ALA797  LYS798  CYS799  TRP800  GLU811  SER814 

> <Gold.Protein.RotatedAtoms>
  151.3767  133.3836  159.2705 H   0  0  0  0  0  0  0  0  0  0  0  0  # atno 6907 bound_to 6896
  150.9609  134.8998  159.7740 H   0  0  0  0  0  0  0  0  0  0  0  0  # atno 6908 bound_to 6896
  152.5149  134.3726  159.9375 H   0  0  0  0  0  0  0  0  0  0  0  0  # atno 6909 bound_to 6896
  145.9436  140.7639  142.9540 H   0  0  0  0  0  0  0  0  0  0  0  0  # atno 7974 bound_to 7965
  155.7966  140.0886  157.1980 H   0  0  0  0  0  0  0  0  0  0  0  0  # atno 8008 bound_to 7997
  154.3983  140.1480  156.3284 H   0  0  0  0  0  0  0  0  0  0  0  0  # atno 8009 bound_to 7997
  155.8505  140.3435  155.5692 H   0  0  0  0  0  0  0  0  0  0  0  0  # atno 8010 bound_to 7997
  140.2141  143.3724  152.1025 H   0  0  0  0  0  0  0  0  0  0  0  0  # atno 10167 bound_to 10162
  157.2546  130.7132  149.6423 H   0  0  0  0  0  0  0  0  0  0  0  0  # atno 10718 bound_to 10713
  153.9254  135.2996  155.3447 H   0  0  0  0  0  0  0  0  0  0  0  0  # atno 10763 bound_to 10752
  154.7554  135.4960  153.9368 H   0  0  0  0  0  0  0  0  0  0  0  0  # atno 10764 bound_to 10752
  153.1119  135.6761  153.9588 H   0  0  0  0  0  0  0  0  0  0  0  0  # atno 10765 bound_to 10752
  140.0877  134.9060  157.1601 H   0  0  0  0  0  0  0  0  0  0  0  0  # atno 11005 bound_to 11000
  144.6783  140.2319  143.7354 LP  0  0  0  0  0  0  0  0  0  0  0  0  # atno 17320 bound_to 7965
  145.8267  139.2067  143.1906 LP  0  0  0  0  0  0  0  0  0  0  0  0  # atno 17321 bound_to 7965
  139.5168  144.6983  151.5566 LP  0  0  0  0  0  0  0  0  0  0  0  0  # atno 17342 bound_to 10162
  140.6302  143.9090  150.6599 LP  0  0  0  0  0  0  0  0  0  0  0  0  # atno 17343 bound_to 10162
  155.9665  130.4416  150.5349 LP  0  0  0  0  0  0  0  0  0  0  0  0  # atno 17370 bound_to 10713
  157.3241  131.0687  151.1910 LP  0  0  0  0  0  0  0  0  0  0  0  0  # atno 17371 bound_to 10713
  140.3397  134.2717  155.7214 LP  0  0  0  0  0  0  0  0  0  0  0  0  # atno 17394 bound_to 11000
  141.2068  133.7824  157.0158 LP  0  0  0  0  0  0  0  0  0  0  0  0  # atno 17395 bound_to 11000

$$$$
