AV-unprocessed.smi:2822|AV-procd|sdf|10868|dock2
  -GOLD-   2272015313D 1   1.00000     0.00000
 Structure written by MMmdl.
 40 42  0  0  0  0  0  0  0  0  2 V2000
  142.1047  133.8258  152.3923 Cl  0  0  0  0  0  0  0  0  0  0  0  0
  143.3906  133.3428  151.3415 C   0  0  0  0  0  0  0  0  0  0  0  0
  143.2227  132.2247  150.4993 C   0  0  0  0  0  0  0  0  0  0  0  0
  144.1754  131.7819  149.6524 N   0  0  0  0  0  0  0  0  0  0  0  0
  145.3457  132.4520  149.6178 C   0  0  0  0  0  0  0  0  0  0  0  0
  145.6179  133.5808  150.4164 C   0  0  0  0  0  0  0  0  0  0  0  0
  144.6180  134.0438  151.3040 C   0  0  0  0  0  0  0  0  0  0  0  0
  144.8009  135.1607  152.1334 N   0  0  0  0  0  0  0  0  0  0  0  0
  145.6758  136.2539  151.7386 C   0  0  0  0  0  0  0  0  0  0  0  0
  145.4086  137.5155  152.5712 C   0  0  2  0  0  0  0  0  0  0  0  0
  146.4829  138.5933  152.3368 C   0  0  0  0  0  0  0  0  0  0  0  0
  146.2377  139.7703  153.2024 N   0  3  2  0  0  0  0  0  0  0  0  0
  147.2282  140.8541  152.9802 C   0  0  0  0  0  0  0  0  0  0  0  0
  146.8896  142.0944  153.8230 C   0  0  0  0  0  0  0  0  0  0  0  0
  146.7904  141.7336  155.3108 C   0  0  0  0  0  0  0  0  0  0  0  0
  145.7826  140.5933  155.5092 C   0  0  0  0  0  0  0  0  0  0  0  0
  146.1372  139.3748  154.6338 C   0  0  1  0  0  0  0  0  0  0  0  0
  145.0996  138.2470  154.7967 C   0  0  0  0  0  0  0  0  0  0  0  0
  145.4331  137.1559  153.9484 O   0  0  0  0  0  0  0  0  0  0  0  0
  142.2964  131.6692  150.5061 H   0  0  0  0  0  0  0  0  0  0  0  0
  146.0901  132.0772  148.9309 H   0  0  0  0  0  0  0  0  0  0  0  0
  146.5786  134.0659  150.3325 H   0  0  0  0  0  0  0  0  0  0  0  0
  144.4994  135.1067  153.0963 H   0  0  0  0  0  0  0  0  0  0  0  0
  146.7182  135.9488  151.8388 H   0  0  0  0  0  0  0  0  0  0  0  0
  145.4999  136.4727  150.6847 H   0  0  0  0  0  0  0  0  0  0  0  0
  144.4273  137.9173  152.3093 H   0  0  0  0  0  0  0  0  0  0  0  0
  147.4749  138.1879  152.5435 H   0  0  0  0  0  0  0  0  0  0  0  0
  146.4754  138.9039  151.2911 H   0  0  0  0  0  0  0  0  0  0  0  0
  148.2272  140.4934  153.2302 H   0  0  0  0  0  0  0  0  0  0  0  0
  147.2433  141.1245  151.9236 H   0  0  0  0  0  0  0  0  0  0  0  0
  147.6482  142.8640  153.6764 H   0  0  0  0  0  0  0  0  0  0  0  0
  145.9448  142.5220  153.4850 H   0  0  0  0  0  0  0  0  0  0  0  0
  147.7697  141.4303  155.6836 H   0  0  0  0  0  0  0  0  0  0  0  0
  146.4913  142.6065  155.8921 H   0  0  0  0  0  0  0  0  0  0  0  0
  145.7575  140.3046  156.5607 H   0  0  0  0  0  0  0  0  0  0  0  0
  144.7806  140.9476  155.2624 H   0  0  0  0  0  0  0  0  0  0  0  0
  147.1103  138.9918  154.9468 H   0  0  0  0  0  0  0  0  0  0  0  0
  145.0868  137.8939  155.8282 H   0  0  0  0  0  0  0  0  0  0  0  0
  144.0923  138.6009  154.5703 H   0  0  0  0  0  0  0  0  0  0  0  0
  145.3359  140.1422  152.9400 H   0  0  0  0  0  0  0  0  0  0  0  0
  1  2  1  0  0  0  0
  2  7  1  0  0  0  0
  2  3  2  0  0  0  0
  3  4  1  0  0  0  0
  3 20  1  0  0  0  0
  4  5  2  0  0  0  0
  5  6  1  0  0  0  0
  5 21  1  0  0  0  0
  6  7  2  0  0  0  0
  6 22  1  0  0  0  0
  7  8  1  0  0  0  0
  8  9  1  0  0  0  0
  8 23  1  0  0  0  0
  9 10  1  0  0  0  0
  9 24  1  0  0  0  0
  9 25  1  0  0  0  0
 10 19  1  0  0  0  0
 10 11  1  0  0  0  0
 10 26  1  0  0  0  0
 11 12  1  0  0  0  0
 11 27  1  0  0  0  0
 11 28  1  0  0  0  0
 12 17  1  0  0  0  0
 12 13  1  0  0  0  0
 12 40  1  0  0  0  0
 13 14  1  0  0  0  0
 13 29  1  0  0  0  0
 13 30  1  0  0  0  0
 14 15  1  0  0  0  0
 14 31  1  0  0  0  0
 14 32  1  0  0  0  0
 15 16  1  0  0  0  0
 15 33  1  0  0  0  0
 15 34  1  0  0  0  0
 16 17  1  0  0  0  0
 16 35  1  0  0  0  0
 16 36  1  0  0  0  0
 17 18  1  0  0  0  0
 17 37  1  0  0  0  0
 18 19  1  0  0  0  0
 18 38  1  0  0  0  0
 18 39  1  0  0  0  0
M  CHG  1  12   1
M  END
> <s_m_source_file>
AV-unprocessed.smi

> <i_m_source_file_index>
2822

> <i_lp_mmshare_version>
43012

> <i_f3d_flags>
0

> <s_epik_input>
Q2xjMVtjSF1uW2NIXVtjSF1jMVtOSF1bQ0gyXVtDQEhdKFtDSDJdMilPW0NIMl1bQ0BASF0oTjIzKVtDSDJdW0NIMl1bQ0gyXVtDSDJdMw==

> <s_epik_cmdline>
J2VwaWtfcHl0aG9uJywgJy1waCcsICc3LjAnLCAnLXRuJywgJzgnLCAnLW1hJywgJzIwMCcsICctbWV0YWxfYmluZGluZycsICctaW1hZScsICc8aW5maWxlLm1hZT4nLCAnLW9tYWUnLCAnPG91dGZpbGUubWFlPic=

> <r_lp_tautomer_probability>
0.999999

> <r_epik_Ionization_Penalty>
0.88937

> <r_epik_Ionization_Penalty_Charging>
0.0803403

> <r_epik_Ionization_Penalty_Neutral>
0.80903

> <r_epik_State_Penalty>
0.931884

> <r_epik_Charging_Adjusted_Penalty>
1.01222

> <i_epik_Tot_Q>
1

> <i_epik_Tot_abs_Q>
1

> <r_epik_Metal_State_Penalty>
0.0782275

> <b_epik_Metal_Only>
0

> <s_lp_Force_Field>
OPLS_2005

> <r_lp_Energy>
28.742

> <b_lp_Chiralities_Consistent>
1

> <s_lp_Variant>
AV-unprocessed.smi:2822-9

> <Gold.Version>
5.8.1

> <Gold.Id.Protein>
6NUR|6NUR_protein|mol2

> <Gold.PLP.Fitness>
40.0304

> <Gold.PLP.PLP>
-30.4023

> <Gold.PLP.part.hbond>
-2.0000

> <Gold.PLP.part.metal>
0.0000

> <Gold.PLP.part.buried>
-0.3199

> <Gold.PLP.part.nonpolar>
-28.2068

> <Gold.PLP.part.repulsive>
0.2595

> <Gold.PLP.ligand.clash>
0.0000

> <Gold.PLP.ligand.torsion>
0.3387

> <Gold.PLP.Chemscore.Hbond>
2.4347

> <Gold.PLP.Chemscore.CHOScore>
1.0000

> <Gold.PLP.Chemscore.Metal>
0.0000

> <Gold.Chemscore.Hbonds>
donor molecule, donor type, donor heavy atom, donor atom, acceptor molecule, acceptor atom, score
      L1  H    12    40       P1 10175  2.00
      P1  H 10785 10796       L1     4  0.53
      L1  C     3    20       P1 10952  1.00

> <Gold.PLP.Chemscore.Internal.Correction>
0.0014

> <Gold.Rescore>
     Score         DG    S(hbond)    S(metal)    S(lipo)     H(rot)  DE(clash)    DE(int)     intcor
     17.08     -18.08       1.40        0.00      93.33       1.17       0.66       0.33       ----

> <Gold.Chemscore.Fitness>
17.0802

> <Gold.Chemscore.DG>
-18.0793

> <Gold.Chemscore.ZeroCoef>
-5.4800

> <Gold.Chemscore.Hbond>
1.3993

> <Gold.Chemscore.Metal>
0.0000

> <Gold.Chemscore.Lipo>
93.3256

> <Gold.Chemscore.Internal_Hbond>
0.0000

> <Gold.Chemscore.DEClash>
0.6648

> <Gold.Chemscore.DEInternal>
0.3344

> <Gold.Chemscore.Rot>
1.1693

> <Gold.Chemscore.Internal.Correction>
   9.000000E+99

> <Gold.Chemscore.Hbonds>
donor molecule, donor type, donor heavy atom, donor atom, acceptor molecule, acceptor atom, score
      L1  H    12    40       P1 10175  0.99
      P1  H 10785 10796       L1     4  0.18

> <Gold.Chemscore.Hbond.Weighted>
-4.6736

> <Gold.Chemscore.Metal.Weighted>
-0.0000

> <Gold.Chemscore.Lipo.Weighted>
-10.9191

> <Gold.Chemscore.Internal_Hbond.Weighted>
0.0000

> <Gold.Chemscore.DEClash.Weighted>
0.6648

> <Gold.Chemscore.DEInternal.Weighted>
0.3344

> <Gold.Chemscore.Rot.Weighted>
2.9934

> <Gold.Chemscore.Internal.Correction.Weighted>
   9.000000E+99

> <Gold.Protein.RotatedTorsions>
[ 6907 6896 6895 6894 ] final   55.41 input  -60.11 | X-H torsion
[ 7974 7965 7964 7962 ] final  -43.37 input  175.53 | X-H torsion
[ 8008 7997 7996 7995 ] final -164.47 input   59.86 | X-H torsion
[ 10167 10162 10161 10158 ] final   66.92 input  -65.29 | X-H torsion
[ 10718 10713 10712 10709 ] final  -33.36 input   66.30 | X-H torsion
[ 10763 10752 10751 10750 ] final   71.73 input  -60.55 | X-H torsion
[ 11005 11000 10999 10996 ] final  -48.45 input  -57.11 | X-H torsion

> <Gold.Protein.ActiveResidues>
 VAL166  LYS551  ARG553  GLY616  TRP617  ASP618  TYR619  PRO620  LYS621  CYS622 
 ASP623  PHE694  ASN695  SER759  ASP760  ASP761  ALA762  ILE779  LEU786  VAL792 
 PHE793  MET794  SER795  GLU796  ALA797  LYS798  CYS799  TRP800  GLU811  SER814 

> <Gold.Protein.RotatedAtoms>
  152.3536  134.6971  160.0228 H   0  0  0  0  0  0  0  0  0  0  0  0  # atno 6907 bound_to 6896
  151.7317  133.3312  159.3350 H   0  0  0  0  0  0  0  0  0  0  0  0  # atno 6908 bound_to 6896
  150.7556  134.6291  159.6221 H   0  0  0  0  0  0  0  0  0  0  0  0  # atno 6909 bound_to 6896
  146.0026  140.7057  142.9263 H   0  0  0  0  0  0  0  0  0  0  0  0  # atno 7974 bound_to 7965
  155.8361  140.0941  157.1763 H   0  0  0  0  0  0  0  0  0  0  0  0  # atno 8008 bound_to 7997
  154.3981  140.1410  156.3733 H   0  0  0  0  0  0  0  0  0  0  0  0  # atno 8009 bound_to 7997
  155.8114  140.3449  155.5462 H   0  0  0  0  0  0  0  0  0  0  0  0  # atno 8010 bound_to 7997
  140.0952  144.4952  150.7073 H   0  0  0  0  0  0  0  0  0  0  0  0  # atno 10167 bound_to 10162
  156.3636  130.4328  149.7603 H   0  0  0  0  0  0  0  0  0  0  0  0  # atno 10718 bound_to 10713
  153.0416  135.5126  154.7637 H   0  0  0  0  0  0  0  0  0  0  0  0  # atno 10763 bound_to 10752
  154.6570  135.2933  154.9917 H   0  0  0  0  0  0  0  0  0  0  0  0  # atno 10764 bound_to 10752
  154.0781  135.6668  153.4886 H   0  0  0  0  0  0  0  0  0  0  0  0  # atno 10765 bound_to 10752
  141.0701  133.6681  156.3442 H   0  0  0  0  0  0  0  0  0  0  0  0  # atno 11005 bound_to 11000
  144.6924  140.3259  143.7224 LP  0  0  0  0  0  0  0  0  0  0  0  0  # atno 17320 bound_to 7965
  145.7465  139.1780  143.2346 LP  0  0  0  0  0  0  0  0  0  0  0  0  # atno 17321 bound_to 7965
  140.7007  143.2433  151.4872 LP  0  0  0  0  0  0  0  0  0  0  0  0  # atno 17342 bound_to 10162
  139.5702  144.1947  152.1825 LP  0  0  0  0  0  0  0  0  0  0  0  0  # atno 17343 bound_to 10162
  156.4758  130.8018  151.3034 LP  0  0  0  0  0  0  0  0  0  0  0  0  # atno 17370 bound_to 10713
  157.7476  131.0021  150.2989 LP  0  0  0  0  0  0  0  0  0  0  0  0  # atno 17371 bound_to 10713
  140.5691  134.5858  157.5453 LP  0  0  0  0  0  0  0  0  0  0  0  0  # atno 17394 bound_to 11000
  139.9515  134.7609  156.0438 LP  0  0  0  0  0  0  0  0  0  0  0  0  # atno 17395 bound_to 11000

$$$$
