AV-unprocessed.smi:906|AV-procd|sdf|4102|dock7
  -GOLD-   22720 1593D 1   1.00000     0.00000
 Structure written by MMmdl.
 48 49  0  0  0  0  0  0  0  0  2 V2000
  150.9661  143.8279  158.6006 C   0  0  0  0  0  0  0  0  0  0  0  0
  151.0364  142.6201  157.6908 C   0  0  0  0  0  0  0  0  0  0  0  0
  151.7659  141.4608  158.0309 C   0  0  0  0  0  0  0  0  0  0  0  0
  151.7917  140.3753  157.1312 C   0  0  0  0  0  0  0  0  0  0  0  0
  151.0886  140.4704  155.9099 C   0  0  0  0  0  0  0  0  0  0  0  0
  151.1255  139.3354  154.9013 C   0  0  0  0  0  0  0  0  0  0  0  0
  151.6754  138.0156  155.4769 C   0  0  0  0  0  0  0  0  0  0  0  0
  150.6815  136.9446  155.4631 N   0  0  0  0  0  0  0  0  0  0  0  0
  150.8978  135.6641  155.8121 C   0  0  0  0  0  0  0  0  0  0  0  0
  151.9974  135.2656  156.1992 O   0  0  0  0  0  0  0  0  0  0  0  0
  149.7950  134.8771  155.7773 N   0  0  0  0  0  0  0  0  0  0  0  0
  148.4485  135.2751  155.3421 C   0  0  0  0  0  0  0  0  0  0  0  0
  148.1543  134.6234  153.9770 C   0  0  0  0  0  0  0  0  0  0  0  0
  148.2532  133.1610  154.0835 N   0  0  0  0  0  0  0  0  0  0  0  0
  147.8707  132.4183  152.8704 C   0  0  2  0  0  0  0  0  0  0  0  0
  146.9730  133.2214  151.9033 C   0  0  0  0  0  0  0  0  0  0  0  0
  147.2790  131.0282  153.2066 C   0  0  0  0  0  0  0  0  0  0  0  0
  146.7416  130.4790  152.1165 F   0  0  0  0  0  0  0  0  0  0  0  0
  148.1937  130.1967  153.7054 F   0  0  0  0  0  0  0  0  0  0  0  0
  146.3127  131.1738  154.1131 F   0  0  0  0  0  0  0  0  0  0  0  0
  149.5794  132.7615  154.5699 C   0  0  0  0  0  0  0  0  0  0  0  0
  149.8615  133.4217  155.9325 C   0  0  0  0  0  0  0  0  0  0  0  0
  150.3702  141.6521  155.6274 C   0  0  0  0  0  0  0  0  0  0  0  0
  150.3719  142.6705  156.5145 N   0  3  0  0  0  0  0  0  0  0  0  0
  151.5822  143.6866  159.4893 H   0  0  0  0  0  0  0  0  0  0  0  0
  149.9389  144.0022  158.9221 H   0  0  0  0  0  0  0  0  0  0  0  0
  151.3207  144.7177  158.0797 H   0  0  0  0  0  0  0  0  0  0  0  0
  152.3041  141.4032  158.9658 H   0  0  0  0  0  0  0  0  0  0  0  0
  152.3557  139.4861  157.3729 H   0  0  0  0  0  0  0  0  0  0  0  0
  150.1217  139.1728  154.5062 H   0  0  0  0  0  0  0  0  0  0  0  0
  151.7367  139.6458  154.0531 H   0  0  0  0  0  0  0  0  0  0  0  0
  152.5285  137.6888  154.8821 H   0  0  0  0  0  0  0  0  0  0  0  0
  152.0561  138.1732  156.4874 H   0  0  0  0  0  0  0  0  0  0  0  0
  149.7477  137.1975  155.1733 H   0  0  0  0  0  0  0  0  0  0  0  0
  147.7179  134.9437  156.0818 H   0  0  0  0  0  0  0  0  0  0  0  0
  148.3128  136.3532  155.2610 H   0  0  0  0  0  0  0  0  0  0  0  0
  147.1566  134.9175  153.6579 H   0  0  0  0  0  0  0  0  0  0  0  0
  148.8573  135.0008  153.2338 H   0  0  0  0  0  0  0  0  0  0  0  0
  148.8025  132.2114  152.3421 H   0  0  0  0  0  0  0  0  0  0  0  0
  146.8169  132.6670  150.9778 H   0  0  0  0  0  0  0  0  0  0  0  0
  147.4169  134.1775  151.6283 H   0  0  0  0  0  0  0  0  0  0  0  0
  145.9883  133.4167  152.3278 H   0  0  0  0  0  0  0  0  0  0  0  0
  149.6223  131.6775  154.6804 H   0  0  0  0  0  0  0  0  0  0  0  0
  150.3525  133.0441  153.8549 H   0  0  0  0  0  0  0  0  0  0  0  0
  150.8256  133.0848  156.3155 H   0  0  0  0  0  0  0  0  0  0  0  0
  149.1231  133.1004  156.6688 H   0  0  0  0  0  0  0  0  0  0  0  0
  149.8110  141.8185  154.7183 H   0  0  0  0  0  0  0  0  0  0  0  0
  149.8524  143.5176  156.2837 H   0  0  0  0  0  0  0  0  0  0  0  0
  1  2  1  0  0  0  0
  1 25  1  0  0  0  0
  1 26  1  0  0  0  0
  1 27  1  0  0  0  0
  2 24  1  0  0  0  0
  2  3  2  0  0  0  0
  3  4  1  0  0  0  0
  3 28  1  0  0  0  0
  4  5  2  0  0  0  0
  4 29  1  0  0  0  0
  5  6  1  0  0  0  0
  5 23  1  0  0  0  0
  6  7  1  0  0  0  0
  6 30  1  0  0  0  0
  6 31  1  0  0  0  0
  7  8  1  0  0  0  0
  7 32  1  0  0  0  0
  7 33  1  0  0  0  0
  8  9  1  0  0  0  0
  8 34  1  0  0  0  0
  9 10  2  0  0  0  0
  9 11  1  0  0  0  0
 11 22  1  0  0  0  0
 11 12  1  0  0  0  0
 12 13  1  0  0  0  0
 12 35  1  0  0  0  0
 12 36  1  0  0  0  0
 13 14  1  0  0  0  0
 13 37  1  0  0  0  0
 13 38  1  0  0  0  0
 14 15  1  0  0  0  0
 14 21  1  0  0  0  0
 15 16  1  0  0  0  0
 15 17  1  0  0  0  0
 15 39  1  0  0  0  0
 16 40  1  0  0  0  0
 16 41  1  0  0  0  0
 16 42  1  0  0  0  0
 17 18  1  0  0  0  0
 17 19  1  0  0  0  0
 17 20  1  0  0  0  0
 21 22  1  0  0  0  0
 21 43  1  0  0  0  0
 21 44  1  0  0  0  0
 22 45  1  0  0  0  0
 22 46  1  0  0  0  0
 23 24  2  0  0  0  0
 23 47  1  0  0  0  0
 24 48  1  0  0  0  0
M  CHG  1  24   1
M  END
> <s_m_source_file>
AV-unprocessed.smi

> <i_m_source_file_index>
906

> <i_lp_mmshare_version>
43012

> <i_f3d_flags>
0

> <s_epik_input>
W0NIM11jMVtjSF1bY0hdYyhbY0hdbjEpW0NIMl1bQ0gyXVtOSF1DKD1PKU4yW0NIMl1bQ0gyXU4oW0NASF0oW0NIM10pQyhGKShGKUYpW0NIMl1bQ0gyXTI=

> <s_epik_cmdline>
J2VwaWtfcHl0aG9uJywgJy1waCcsICc3LjAnLCAnLXRuJywgJzgnLCAnLW1hJywgJzIwMCcsICctbWV0YWxfYmluZGluZycsICctaW1hZScsICc8aW5maWxlLm1hZT4nLCAnLW9tYWUnLCAnPG91dGZpbGUubWFlPic=

> <r_epik_Ionization_Penalty>
1.4413

> <r_epik_Ionization_Penalty_Charging>
1.42075

> <r_epik_Ionization_Penalty_Neutral>
0.0205507

> <r_epik_State_Penalty>
1.52216

> <r_epik_Charging_Adjusted_Penalty>
2.94291

> <i_epik_Tot_Q>
1

> <i_epik_Tot_abs_Q>
1

> <r_epik_Metal_State_Penalty>
1.57308

> <b_epik_Metal_Only>
0

> <s_lp_Force_Field>
OPLS_2005

> <r_lp_Energy>
52.9553

> <b_lp_Chiralities_Consistent>
1

> <s_lp_Variant>
AV-unprocessed.smi:906-3

> <Gold.Version>
5.8.1

> <Gold.Id.Protein>
6NUR|6NUR_protein|mol2

> <Gold.PLP.Fitness>
43.7763

> <Gold.PLP.PLP>
-37.4232

> <Gold.PLP.part.hbond>
-2.0000

> <Gold.PLP.part.metal>
0.0000

> <Gold.PLP.part.buried>
-0.2023

> <Gold.PLP.part.nonpolar>
-34.6134

> <Gold.PLP.part.repulsive>
0.2167

> <Gold.PLP.ligand.clash>
0.0000

> <Gold.PLP.ligand.torsion>
1.6738

> <Gold.PLP.Chemscore.Hbond>
3.0000

> <Gold.PLP.Chemscore.CHOScore>
0.0000

> <Gold.PLP.Chemscore.Metal>
0.0000

> <Gold.Chemscore.Hbonds>
donor molecule, donor type, donor heavy atom, donor atom, acceptor molecule, acceptor atom, score
      L1  H    24    48       P1  8028  2.00
      P1  H 10752 10764       L1    10  1.00

> <Gold.PLP.Chemscore.Internal.Correction>
0.7007

> <Gold.Rescore>
     Score         DG    S(hbond)    S(metal)    S(lipo)     H(rot)  DE(clash)    DE(int)     intcor
     16.64     -18.53       1.92        0.00      92.82       1.66       0.07       1.82       ----

> <Gold.Chemscore.Fitness>
16.6438

> <Gold.Chemscore.DG>
-18.5271

> <Gold.Chemscore.ZeroCoef>
-5.4800

> <Gold.Chemscore.Hbond>
1.9236

> <Gold.Chemscore.Metal>
0.0000

> <Gold.Chemscore.Lipo>
92.8191

> <Gold.Chemscore.Internal_Hbond>
0.0000

> <Gold.Chemscore.DEClash>
0.0665

> <Gold.Chemscore.DEInternal>
1.8169

> <Gold.Chemscore.Rot>
1.6553

> <Gold.Chemscore.Internal.Correction>
   9.000000E+99

> <Gold.Chemscore.Hbonds>
donor molecule, donor type, donor heavy atom, donor atom, acceptor molecule, acceptor atom, score
      L1  H    24    48       P1  8028  1.00
      P1  H 10752 10764       L1    10  0.84

> <Gold.Chemscore.Hbond.Weighted>
-6.4249

> <Gold.Chemscore.Metal.Weighted>
-0.0000

> <Gold.Chemscore.Lipo.Weighted>
-10.8598

> <Gold.Chemscore.Internal_Hbond.Weighted>
0.0000

> <Gold.Chemscore.DEClash.Weighted>
0.0665

> <Gold.Chemscore.DEInternal.Weighted>
1.8169

> <Gold.Chemscore.Rot.Weighted>
4.2376

> <Gold.Chemscore.Internal.Correction.Weighted>
   9.000000E+99

> <Gold.Protein.RotatedTorsions>
[ 6907 6896 6895 6894 ] final  143.68 input  -60.11 | X-H torsion
[ 7974 7965 7964 7962 ] final   13.04 input  175.53 | X-H torsion
[ 8008 7997 7996 7995 ] final  -63.32 input   59.86 | X-H torsion
[ 10167 10162 10161 10158 ] final   28.91 input  -65.29 | X-H torsion
[ 10718 10713 10712 10709 ] final   -9.46 input   66.30 | X-H torsion
[ 10763 10752 10751 10750 ] final  -28.12 input  -60.55 | X-H torsion
[ 11005 11000 10999 10996 ] final -104.27 input  -57.11 | X-H torsion

> <Gold.Protein.ActiveResidues>
 VAL166  LYS551  ARG553  GLY616  TRP617  ASP618  TYR619  PRO620  LYS621  CYS622 
 ASP623  PHE694  ASN695  SER759  ASP760  ASP761  ALA762  ILE779  LEU786  VAL792 
 PHE793  MET794  SER795  GLU796  ALA797  LYS798  CYS799  TRP800  GLU811  SER814 

> <Gold.Protein.RotatedAtoms>
  152.2032  133.4856  159.5069 H   0  0  0  0  0  0  0  0  0  0  0  0  # atno 6907 bound_to 6896
  150.6974  134.1564  159.4168 H   0  0  0  0  0  0  0  0  0  0  0  0  # atno 6908 bound_to 6896
  151.9481  135.0181  160.0591 H   0  0  0  0  0  0  0  0  0  0  0  0  # atno 6909 bound_to 6896
  146.2338  139.9247  142.8505 H   0  0  0  0  0  0  0  0  0  0  0  0  # atno 7974 bound_to 7965
  154.4548  140.0977  156.6724 H   0  0  0  0  0  0  0  0  0  0  0  0  # atno 8008 bound_to 7997
  155.5173  140.3478  155.4381 H   0  0  0  0  0  0  0  0  0  0  0  0  # atno 8009 bound_to 7997
  156.0755  140.1360  156.9766 H   0  0  0  0  0  0  0  0  0  0  0  0  # atno 8010 bound_to 7997
  140.4812  144.0614  150.6266 H   0  0  0  0  0  0  0  0  0  0  0  0  # atno 10167 bound_to 10162
  156.6877  130.5055  149.5953 H   0  0  0  0  0  0  0  0  0  0  0  0  # atno 10718 bound_to 10713
  153.7433  135.6931  153.4962 H   0  0  0  0  0  0  0  0  0  0  0  0  # atno 10763 bound_to 10752
  153.2054  135.4421  155.0315 H   0  0  0  0  0  0  0  0  0  0  0  0  # atno 10764 bound_to 10752
  154.8213  135.3423  154.6957 H   0  0  0  0  0  0  0  0  0  0  0  0  # atno 10765 bound_to 10752
  141.1108  133.8709  157.1590 H   0  0  0  0  0  0  0  0  0  0  0  0  # atno 11005 bound_to 11000
  145.2102  140.9892  143.4105 LP  0  0  0  0  0  0  0  0  0  0  0  0  # atno 17320 bound_to 7965
  144.9697  139.3893  143.6315 LP  0  0  0  0  0  0  0  0  0  0  0  0  # atno 17321 bound_to 7965
  140.3856  143.2779  152.0120 LP  0  0  0  0  0  0  0  0  0  0  0  0  # atno 17342 bound_to 10162
  139.4834  144.6119  151.7417 LP  0  0  0  0  0  0  0  0  0  0  0  0  # atno 17343 bound_to 10162
  156.1821  130.6505  151.0963 LP  0  0  0  0  0  0  0  0  0  0  0  0  # atno 17370 bound_to 10713
  157.7020  131.0772  150.6788 LP  0  0  0  0  0  0  0  0  0  0  0  0  # atno 17371 bound_to 10713
  140.0001  135.0031  157.0171 LP  0  0  0  0  0  0  0  0  0  0  0  0  # atno 17394 bound_to 11000
  140.4780  134.1318  155.7212 LP  0  0  0  0  0  0  0  0  0  0  0  0  # atno 17395 bound_to 11000

$$$$
