AV-unprocessed.smi:1809|AV-procd|sdf|7316|dock6
  -GOLD-   22720 8573D 1   1.00000     0.00000
 Structure written by MMmdl.
 40 42  0  0  0  0  0  0  0  0  2 V2000
  150.9408  141.7555  156.7481 C   0  0  0  0  0  0  0  0  0  0  0  0
  151.0162  140.4093  156.1124 C   0  0  0  0  0  0  0  0  0  0  0  0
  152.1701  139.8526  155.7242 N   0  0  0  0  0  0  0  0  0  0  0  0
  151.9860  138.5965  155.1632 N   0  0  0  0  0  0  0  0  0  0  0  0
  150.6937  138.2420  155.1456 C   0  0  0  0  0  0  0  0  0  0  0  0
  150.2212  137.0071  154.6281 N   0  0  0  0  0  0  0  0  0  0  0  0
  150.1222  135.8237  155.2585 C   0  0  0  0  0  0  0  0  0  0  0  0
  150.4386  135.6094  156.4291 O   0  0  0  0  0  0  0  0  0  0  0  0
  149.6321  134.8778  154.4446 N   0  0  0  0  0  0  0  0  0  0  0  0
  149.4030  133.4877  154.8241 C   0  0  0  0  0  0  0  0  0  0  0  0
  148.7967  132.6689  153.6706 C   0  0  1  0  0  0  0  0  0  0  0  0
  148.5653  131.1933  154.0715 C   0  0  0  0  0  0  0  0  0  0  0  0
  147.8827  130.5141  152.9553 N   0  3  1  0  0  0  0  0  0  0  0  0
  147.5681  129.0817  153.0934 C   0  0  0  0  0  0  0  0  0  0  0  0
  146.3888  128.8427  152.1282 C   0  0  0  0  0  0  0  0  0  0  0  0
  145.9894  130.2341  151.6029 C   0  0  0  0  0  0  0  0  0  0  0  0
  146.6205  131.1777  152.6213 C   0  0  2  0  0  0  0  0  0  0  0  0
  146.9113  132.6216  152.1927 C   0  0  0  0  0  0  0  0  0  0  0  0
  147.5548  133.2730  153.2892 O   0  0  0  0  0  0  0  0  0  0  0  0
  149.5869  139.4265  155.8187 S   0  0  0  0  0  0  0  0  0  0  0  0
  151.9009  142.2681  156.6795 H   0  0  0  0  0  0  0  0  0  0  0  0
  150.6717  141.6552  157.7997 H   0  0  0  0  0  0  0  0  0  0  0  0
  150.1854  142.3625  156.2489 H   0  0  0  0  0  0  0  0  0  0  0  0
  149.9224  137.0288  153.6644 H   0  0  0  0  0  0  0  0  0  0  0  0
  149.4008  135.1352  153.4961 H   0  0  0  0  0  0  0  0  0  0  0  0
  150.3423  133.0411  155.1545 H   0  0  0  0  0  0  0  0  0  0  0  0
  148.7342  133.4727  155.6851 H   0  0  0  0  0  0  0  0  0  0  0  0
  149.4733  132.6954  152.8145 H   0  0  0  0  0  0  0  0  0  0  0  0
  149.5147  130.6979  154.2778 H   0  0  0  0  0  0  0  0  0  0  0  0
  147.9577  131.1275  154.9755 H   0  0  0  0  0  0  0  0  0  0  0  0
  148.4363  128.4661  152.8560 H   0  0  0  0  0  0  0  0  0  0  0  0
  147.2646  128.8626  154.1184 H   0  0  0  0  0  0  0  0  0  0  0  0
  146.6660  128.1805  151.3074 H   0  0  0  0  0  0  0  0  0  0  0  0
  145.5584  128.3767  152.6597 H   0  0  0  0  0  0  0  0  0  0  0  0
  146.4246  130.3978  150.6160 H   0  0  0  0  0  0  0  0  0  0  0  0
  144.9096  130.3629  151.5206 H   0  0  0  0  0  0  0  0  0  0  0  0
  145.9879  131.1924  153.5117 H   0  0  0  0  0  0  0  0  0  0  0  0
  147.5434  132.6579  151.3042 H   0  0  0  0  0  0  0  0  0  0  0  0
  145.9845  133.1452  151.9574 H   0  0  0  0  0  0  0  0  0  0  0  0
  148.4760  130.6002  152.1423 H   0  0  0  0  0  0  0  0  0  0  0  0
  1  2  1  0  0  0  0
  1 21  1  0  0  0  0
  1 22  1  0  0  0  0
  1 23  1  0  0  0  0
  2 20  1  0  0  0  0
  2  3  2  0  0  0  0
  3  4  1  0  0  0  0
  4  5  2  0  0  0  0
  5  6  1  0  0  0  0
  5 20  1  0  0  0  0
  6  7  1  0  0  0  0
  6 24  1  0  0  0  0
  7  8  2  0  0  0  0
  7  9  1  0  0  0  0
  9 10  1  0  0  0  0
  9 25  1  0  0  0  0
 10 11  1  0  0  0  0
 10 26  1  0  0  0  0
 10 27  1  0  0  0  0
 11 19  1  0  0  0  0
 11 12  1  0  0  0  0
 11 28  1  0  0  0  0
 12 13  1  0  0  0  0
 12 29  1  0  0  0  0
 12 30  1  0  0  0  0
 13 17  1  0  0  0  0
 13 14  1  0  0  0  0
 13 40  1  0  0  0  0
 14 15  1  0  0  0  0
 14 31  1  0  0  0  0
 14 32  1  0  0  0  0
 15 16  1  0  0  0  0
 15 33  1  0  0  0  0
 15 34  1  0  0  0  0
 16 17  1  0  0  0  0
 16 35  1  0  0  0  0
 16 36  1  0  0  0  0
 17 18  1  0  0  0  0
 17 37  1  0  0  0  0
 18 19  1  0  0  0  0
 18 38  1  0  0  0  0
 18 39  1  0  0  0  0
M  CHG  1  13   1
M  END
> <s_m_source_file>
AV-unprocessed.smi

> <i_m_source_file_index>
1809

> <i_lp_mmshare_version>
43012

> <i_f3d_flags>
0

> <s_epik_input>
W0NIM11jMW5uYyhzMSlbTkhdQyg9TylbTkhdW0NIMl1bQ0BIXShbQ0gyXTIpT1tDSDJdW0NAQEhdKE4yMylbQ0gyXVtDSDJdW0NIMl0z

> <s_epik_cmdline>
J2VwaWtfcHl0aG9uJywgJy1waCcsICc3LjAnLCAnLXRuJywgJzgnLCAnLW1hJywgJzIwMCcsICctbWV0YWxfYmluZGluZycsICctaW1hZScsICc8aW5maWxlLm1hZT4nLCAnLW9tYWUnLCAnPG91dGZpbGUubWFlPic=

> <r_lp_tautomer_probability>
1

> <r_epik_Ionization_Penalty>
0.112474

> <r_epik_Ionization_Penalty_Charging>
0.108916

> <r_epik_Ionization_Penalty_Neutral>
0.00355844

> <r_epik_State_Penalty>
0.0565397

> <r_epik_Charging_Adjusted_Penalty>
0.165456

> <i_epik_Tot_Q>
1

> <i_epik_Tot_abs_Q>
1

> <r_epik_Metal_State_Penalty>
0.422831

> <b_epik_Metal_Only>
0

> <s_lp_Force_Field>
OPLS_2005

> <r_lp_Energy>
33.8042

> <b_lp_Chiralities_Consistent>
1

> <s_lp_Variant>
AV-unprocessed.smi:1809-8

> <Gold.Version>
5.8.1

> <Gold.Id.Protein>
6NUR|6NUR_protein|mol2

> <Gold.PLP.Fitness>
44.7178

> <Gold.PLP.PLP>
-35.9808

> <Gold.PLP.part.hbond>
-5.6667

> <Gold.PLP.part.metal>
0.0000

> <Gold.PLP.part.buried>
-5.6044

> <Gold.PLP.part.nonpolar>
-25.5277

> <Gold.PLP.part.repulsive>
0.3471

> <Gold.PLP.ligand.clash>
0.0000

> <Gold.PLP.ligand.torsion>
0.7478

> <Gold.PLP.Chemscore.Hbond>
3.4106

> <Gold.PLP.Chemscore.CHOScore>
0.0000

> <Gold.PLP.Chemscore.Metal>
0.0000

> <Gold.Chemscore.Hbonds>
donor molecule, donor type, donor heavy atom, donor atom, acceptor molecule, acceptor atom, score
      L1  H     6    24       P1  7948  0.68
      L1  H     9    25       P1  7948  0.75
      L1  H    13    40       P1 10747  1.00
      P1  H  7997  8009       L1     3  0.41

> <Gold.PLP.Chemscore.Internal.Correction>
0.0008

> <Gold.Rescore>
     Score         DG    S(hbond)    S(metal)    S(lipo)     H(rot)  DE(clash)    DE(int)     intcor
     16.61     -17.53       2.03        0.00      74.24       1.34       0.12       0.79       ----

> <Gold.Chemscore.Fitness>
16.6149

> <Gold.Chemscore.DG>
-17.5257

> <Gold.Chemscore.ZeroCoef>
-5.4800

> <Gold.Chemscore.Hbond>
2.0323

> <Gold.Chemscore.Metal>
0.0000

> <Gold.Chemscore.Lipo>
74.2373

> <Gold.Chemscore.Internal_Hbond>
0.0000

> <Gold.Chemscore.DEClash>
0.1171

> <Gold.Chemscore.DEInternal>
0.7938

> <Gold.Chemscore.Rot>
1.3391

> <Gold.Chemscore.Internal.Correction>
   9.000000E+99

> <Gold.Chemscore.Hbonds>
donor molecule, donor type, donor heavy atom, donor atom, acceptor molecule, acceptor atom, score
      L1  H     6    24       P1  7948  0.30
      L1  H     9    25       P1  7948  0.09
      L1  H    13    40       P1 10747  0.87
      P1  H  7997  8009       L1     3  0.27

> <Gold.Chemscore.Hbond.Weighted>
-6.7880

> <Gold.Chemscore.Metal.Weighted>
-0.0000

> <Gold.Chemscore.Lipo.Weighted>
-8.6858

> <Gold.Chemscore.Internal_Hbond.Weighted>
0.0000

> <Gold.Chemscore.DEClash.Weighted>
0.1171

> <Gold.Chemscore.DEInternal.Weighted>
0.7938

> <Gold.Chemscore.Rot.Weighted>
3.4281

> <Gold.Chemscore.Internal.Correction.Weighted>
   9.000000E+99

> <Gold.Protein.RotatedTorsions>
[ 6907 6896 6895 6894 ] final  100.91 input  -60.11 | X-H torsion
[ 7974 7965 7964 7962 ] final -148.00 input  175.53 | X-H torsion
[ 8008 7997 7996 7995 ] final -141.83 input   59.86 | X-H torsion
[ 10167 10162 10161 10158 ] final  -17.48 input  -65.29 | X-H torsion
[ 10718 10713 10712 10709 ] final -106.53 input   66.30 | X-H torsion
[ 10763 10752 10751 10750 ] final   68.42 input  -60.55 | X-H torsion
[ 11005 11000 10999 10996 ] final  136.81 input  -57.11 | X-H torsion

> <Gold.Protein.ActiveResidues>
 VAL166  LYS551  ARG553  GLY616  TRP617  ASP618  TYR619  PRO620  LYS621  CYS622 
 ASP623  PHE694  ASN695  SER759  ASP760  ASP761  ALA762  ILE779  LEU786  VAL792 
 PHE793  MET794  SER795  GLU796  ALA797  LYS798  CYS799  TRP800  GLU811  SER814 

> <Gold.Protein.RotatedAtoms>
  152.5361  134.0205  159.7979 H   0  0  0  0  0  0  0  0  0  0  0  0  # atno 6907 bound_to 6896
  151.0392  133.5713  159.2660 H   0  0  0  0  0  0  0  0  0  0  0  0  # atno 6908 bound_to 6896
  151.2689  135.0685  159.9180 H   0  0  0  0  0  0  0  0  0  0  0  0  # atno 6909 bound_to 6896
  144.8057  140.5254  143.5676 H   0  0  0  0  0  0  0  0  0  0  0  0  # atno 7974 bound_to 7965
  155.4842  140.0562  157.2963 H   0  0  0  0  0  0  0  0  0  0  0  0  # atno 8008 bound_to 7997
  154.4648  140.2013  156.0099 H   0  0  0  0  0  0  0  0  0  0  0  0  # atno 8009 bound_to 7997
  156.0955  140.3227  155.7876 H   0  0  0  0  0  0  0  0  0  0  0  0  # atno 8010 bound_to 7997
  140.7247  143.5011  150.9868 H   0  0  0  0  0  0  0  0  0  0  0  0  # atno 10167 bound_to 10162
  156.0394  130.5617  150.7694 H   0  0  0  0  0  0  0  0  0  0  0  0  # atno 10718 bound_to 10713
  153.0235  135.5248  154.7132 H   0  0  0  0  0  0  0  0  0  0  0  0  # atno 10763 bound_to 10752
  154.6208  135.2889  155.0330 H   0  0  0  0  0  0  0  0  0  0  0  0  # atno 10764 bound_to 10752
  154.1317  135.6592  153.4976 H   0  0  0  0  0  0  0  0  0  0  0  0  # atno 10765 bound_to 10752
  140.0071  134.9454  157.0199 H   0  0  0  0  0  0  0  0  0  0  0  0  # atno 11005 bound_to 11000
  145.5443  139.1475  143.3429 LP  0  0  0  0  0  0  0  0  0  0  0  0  # atno 17320 bound_to 7965
  146.2348  140.5583  142.8959 LP  0  0  0  0  0  0  0  0  0  0  0  0  # atno 17321 bound_to 7965
  139.8721  143.7180  152.3165 LP  0  0  0  0  0  0  0  0  0  0  0  0  # atno 17342 bound_to 10162
  139.7432  144.7554  151.0620 LP  0  0  0  0  0  0  0  0  0  0  0  0  # atno 17343 bound_to 10162
  157.5192  131.0930  151.0100 LP  0  0  0  0  0  0  0  0  0  0  0  0  # atno 17370 bound_to 10713
  157.0435  130.5758  149.5359 LP  0  0  0  0  0  0  0  0  0  0  0  0  # atno 17371 bound_to 10713
  140.4621  134.1473  155.7192 LP  0  0  0  0  0  0  0  0  0  0  0  0  # atno 17394 bound_to 11000
  141.1685  133.8656  157.1643 LP  0  0  0  0  0  0  0  0  0  0  0  0  # atno 17395 bound_to 11000

$$$$
