AV-unprocessed.smi:3270|AV-procd|sdf|12513|dock5
  -GOLD-   2272018423D 1   1.00000     0.00000
 Structure written by MMmdl.
 38 39  0  0  0  0  0  0  0  0  1 V2000
  152.2006  144.1974  157.8938 C   0  0  0  0  0  0  0  0  0  0  0  0
  151.3695  143.3212  158.8531 C   0  0  1  0  0  0  0  0  0  0  0  0
  150.7041  142.1215  158.1491 C   0  0  0  0  0  0  0  0  0  0  0  0
  150.8983  140.9724  158.5478 O   0  0  0  0  0  0  0  0  0  0  0  0
  149.9320  142.3974  157.0859 N   0  0  0  0  0  0  0  0  0  0  0  0
  149.2154  141.4023  156.3014 C   0  0  0  0  0  0  0  0  0  0  0  0
  150.0512  140.9832  155.0813 C   0  0  0  0  0  0  0  0  0  0  0  0
  150.7689  139.7187  155.2321 N   0  0  0  0  0  0  0  0  0  0  0  0
  152.2195  139.8951  155.2644 C   0  0  0  0  0  0  0  0  0  0  0  0
  152.9588  138.5516  155.3947 C   0  0  0  0  0  0  0  0  0  0  0  0
  152.5738  137.6864  154.3315 O   0  0  0  0  0  0  0  0  0  0  0  0
  151.1698  137.4516  154.2972 C   0  0  0  0  0  0  0  0  0  0  0  0
  150.4285  138.7924  154.1573 C   0  0  0  0  0  0  0  0  0  0  0  0
  152.1629  142.8967  160.0029 N   0  0  0  0  0  0  0  0  0  0  0  0
  153.3137  142.1344  160.0058 C   0  0  0  0  0  0  0  0  0  0  0  0
  153.7181  142.0064  161.3036 C   0  0  0  0  0  0  0  0  0  0  0  0
  152.7422  142.7380  162.0354 C   0  0  0  0  0  0  0  0  0  0  0  0
  151.8157  143.2715  161.2565 N   0  0  0  0  0  0  0  0  0  0  0  0
  151.5825  144.6069  157.0940 H   0  0  0  0  0  0  0  0  0  0  0  0
  153.0125  143.6346  157.4311 H   0  0  0  0  0  0  0  0  0  0  0  0
  152.6442  145.0405  158.4241 H   0  0  0  0  0  0  0  0  0  0  0  0
  150.5569  143.9400  159.2367 H   0  0  0  0  0  0  0  0  0  0  0  0
  149.8203  143.3637  156.8153 H   0  0  0  0  0  0  0  0  0  0  0  0
  149.0017  140.5492  156.9453 H   0  0  0  0  0  0  0  0  0  0  0  0
  148.2584  141.8087  155.9692 H   0  0  0  0  0  0  0  0  0  0  0  0
  149.3731  140.9000  154.2305 H   0  0  0  0  0  0  0  0  0  0  0  0
  150.7544  141.7779  154.8274 H   0  0  0  0  0  0  0  0  0  0  0  0
  152.5514  140.4024  154.3571 H   0  0  0  0  0  0  0  0  0  0  0  0
  152.5061  140.5307  156.1015 H   0  0  0  0  0  0  0  0  0  0  0  0
  154.0372  138.7066  155.3557 H   0  0  0  0  0  0  0  0  0  0  0  0
  152.7370  138.0806  156.3537 H   0  0  0  0  0  0  0  0  0  0  0  0
  150.9377  136.7995  153.4552 H   0  0  0  0  0  0  0  0  0  0  0  0
  150.8583  136.9295  155.2031 H   0  0  0  0  0  0  0  0  0  0  0  0
  149.3535  138.6091  154.1528 H   0  0  0  0  0  0  0  0  0  0  0  0
  150.6726  139.2396  153.1922 H   0  0  0  0  0  0  0  0  0  0  0  0
  153.7447  141.7497  159.0929 H   0  0  0  0  0  0  0  0  0  0  0  0
  154.5805  141.4723  161.6739 H   0  0  0  0  0  0  0  0  0  0  0  0
  152.6809  142.8975  163.1020 H   0  0  0  0  0  0  0  0  0  0  0  0
  1  2  1  0  0  0  0
  1 19  1  0  0  0  0
  1 20  1  0  0  0  0
  1 21  1  0  0  0  0
  2  3  1  0  0  0  0
  2 14  1  0  0  0  0
  2 22  1  0  0  0  0
  3  4  2  0  0  0  0
  3  5  1  0  0  0  0
  5  6  1  0  0  0  0
  5 23  1  0  0  0  0
  6  7  1  0  0  0  0
  6 24  1  0  0  0  0
  6 25  1  0  0  0  0
  7  8  1  0  0  0  0
  7 26  1  0  0  0  0
  7 27  1  0  0  0  0
  8 13  1  0  0  0  0
  8  9  1  0  0  0  0
  9 10  1  0  0  0  0
  9 28  1  0  0  0  0
  9 29  1  0  0  0  0
 10 11  1  0  0  0  0
 10 30  1  0  0  0  0
 10 31  1  0  0  0  0
 11 12  1  0  0  0  0
 12 13  1  0  0  0  0
 12 32  1  0  0  0  0
 12 33  1  0  0  0  0
 13 34  1  0  0  0  0
 13 35  1  0  0  0  0
 14 18  1  0  0  0  0
 14 15  1  0  0  0  0
 15 16  2  0  0  0  0
 15 36  1  0  0  0  0
 16 17  1  0  0  0  0
 16 37  1  0  0  0  0
 17 18  2  0  0  0  0
 17 38  1  0  0  0  0
M  END
> <s_m_source_file>
AV-unprocessed.smi

> <i_m_source_file_index>
3270

> <i_lp_mmshare_version>
43012

> <i_f3d_flags>
0

> <s_epik_input>
bjFbY0hdW2NIXVtjSF1uMVtDQEhdKFtDSDNdKUMoPU8pW05IXVtDSDJdW0NIMl1OMltDSDJdW0NIMl1PW0NIMl1bQ0gyXTI=

> <s_epik_cmdline>
J2VwaWtfcHl0aG9uJywgJy1waCcsICc3LjAnLCAnLXRuJywgJzgnLCAnLW1hJywgJzIwMCcsICctbWV0YWxfYmluZGluZycsICctaW1hZScsICc8aW5maWxlLm1hZT4nLCAnLW9tYWUnLCAnPG91dGZpbGUubWFlPic=

> <r_lp_tautomer_probability>
1

> <r_epik_Ionization_Penalty>
0.203323

> <r_epik_Ionization_Penalty_Charging>
0

> <r_epik_Ionization_Penalty_Neutral>
0.203323

> <r_epik_State_Penalty>
0.193192

> <r_epik_Charging_Adjusted_Penalty>
0.193192

> <i_epik_Tot_Q>
0

> <i_epik_Tot_abs_Q>
0

> <r_epik_Metal_State_Penalty>
0.193187

> <b_epik_Metal_Only>
0

> <s_lp_Force_Field>
OPLS_2005

> <r_lp_Energy>
25.3567

> <b_lp_Chiralities_Consistent>
1

> <s_lp_Variant>
AV-unprocessed.smi:3270-2

> <Gold.Version>
5.8.1

> <Gold.Id.Protein>
6NUR|6NUR_protein|mol2

> <Gold.PLP.Fitness>
46.4864

> <Gold.PLP.PLP>
-43.9388

> <Gold.PLP.part.hbond>
-2.3970

> <Gold.PLP.part.metal>
0.0000

> <Gold.PLP.part.buried>
-3.6809

> <Gold.PLP.part.nonpolar>
-37.6892

> <Gold.PLP.part.repulsive>
0.2868

> <Gold.PLP.ligand.clash>
0.0000

> <Gold.PLP.ligand.torsion>
1.2514

> <Gold.PLP.Chemscore.Hbond>
1.6480

> <Gold.PLP.Chemscore.CHOScore>
0.0000

> <Gold.PLP.Chemscore.Metal>
0.0000

> <Gold.Chemscore.Hbonds>
donor molecule, donor type, donor heavy atom, donor atom, acceptor molecule, acceptor atom, score
      L1  H     5    23       P1  8028  0.98
      P1  H 10752 10764       L1    11  0.37

> <Gold.PLP.Chemscore.Internal.Correction>
0.1065

> <Gold.Rescore>
     Score         DG    S(hbond)    S(metal)    S(lipo)     H(rot)  DE(clash)    DE(int)     intcor
     16.91     -18.30       1.82        0.00      97.70       1.83       0.05       1.34       ----

> <Gold.Chemscore.Fitness>
16.9099

> <Gold.Chemscore.DG>
-18.2968

> <Gold.Chemscore.ZeroCoef>
-5.4800

> <Gold.Chemscore.Hbond>
1.8169

> <Gold.Chemscore.Metal>
0.0000

> <Gold.Chemscore.Lipo>
97.6957

> <Gold.Chemscore.Internal_Hbond>
0.0000

> <Gold.Chemscore.DEClash>
0.0491

> <Gold.Chemscore.DEInternal>
1.3378

> <Gold.Chemscore.Rot>
1.8290

> <Gold.Chemscore.Internal.Correction>
   9.000000E+99

> <Gold.Chemscore.Hbonds>
donor molecule, donor type, donor heavy atom, donor atom, acceptor molecule, acceptor atom, score
      L1  H     5    23       P1  8028  0.89
      P1  H 10752 10764       L1    11  0.03

> <Gold.Chemscore.Hbond.Weighted>
-6.0685

> <Gold.Chemscore.Metal.Weighted>
-0.0000

> <Gold.Chemscore.Lipo.Weighted>
-11.4304

> <Gold.Chemscore.Internal_Hbond.Weighted>
0.0000

> <Gold.Chemscore.DEClash.Weighted>
0.0491

> <Gold.Chemscore.DEInternal.Weighted>
1.3378

> <Gold.Chemscore.Rot.Weighted>
4.6821

> <Gold.Chemscore.Internal.Correction.Weighted>
   9.000000E+99

> <Gold.Protein.RotatedTorsions>
[ 6907 6896 6895 6894 ] final -178.06 input  -60.11 | X-H torsion
[ 7974 7965 7964 7962 ] final   74.41 input  175.53 | X-H torsion
[ 8008 7997 7996 7995 ] final  117.16 input   59.86 | X-H torsion
[ 10167 10162 10161 10158 ] final   45.17 input  -65.29 | X-H torsion
[ 10718 10713 10712 10709 ] final   49.43 input   66.30 | X-H torsion
[ 10763 10752 10751 10750 ] final  -85.66 input  -60.55 | X-H torsion
[ 11005 11000 10999 10996 ] final  135.35 input  -57.11 | X-H torsion

> <Gold.Protein.ActiveResidues>
 VAL166  LYS551  ARG553  GLY616  TRP617  ASP618  TYR619  PRO620  LYS621  CYS622 
 ASP623  PHE694  ASN695  SER759  ASP760  ASP761  ALA762  ILE779  LEU786  VAL792 
 PHE793  MET794  SER795  GLU796  ALA797  LYS798  CYS799  TRP800  GLU811  SER814 

> <Gold.Protein.RotatedAtoms>
  151.6310  133.3332  159.3108 H   0  0  0  0  0  0  0  0  0  0  0  0  # atno 6907 bound_to 6896
  150.8056  134.7183  159.6653 H   0  0  0  0  0  0  0  0  0  0  0  0  # atno 6908 bound_to 6896
  152.4151  134.6060  160.0064 H   0  0  0  0  0  0  0  0  0  0  0  0  # atno 6909 bound_to 6896
  145.7286  139.2675  143.1554 H   0  0  0  0  0  0  0  0  0  0  0  0  # atno 7974 bound_to 7965
  156.2479  140.2902  156.0636 H   0  0  0  0  0  0  0  0  0  0  0  0  # atno 8008 bound_to 7997
  155.1749  140.0402  157.2888 H   0  0  0  0  0  0  0  0  0  0  0  0  # atno 8009 bound_to 7997
  154.6300  140.2497  155.7452 H   0  0  0  0  0  0  0  0  0  0  0  0  # atno 8010 bound_to 7997
  140.3269  144.2636  150.6174 H   0  0  0  0  0  0  0  0  0  0  0  0  # atno 10167 bound_to 10162
  157.4786  130.8300  149.8067 H   0  0  0  0  0  0  0  0  0  0  0  0  # atno 10718 bound_to 10713
  154.6136  135.5477  153.7500 H   0  0  0  0  0  0  0  0  0  0  0  0  # atno 10763 bound_to 10752
  153.0206  135.6395  154.1542 H   0  0  0  0  0  0  0  0  0  0  0  0  # atno 10764 bound_to 10752
  154.1479  135.2904  155.3123 H   0  0  0  0  0  0  0  0  0  0  0  0  # atno 10765 bound_to 10752
  139.9974  134.9492  156.9995 H   0  0  0  0  0  0  0  0  0  0  0  0  # atno 11005 bound_to 11000
  146.0559  140.8021  142.9759 LP  0  0  0  0  0  0  0  0  0  0  0  0  # atno 17320 bound_to 7965
  144.6898  140.3123  143.7246 LP  0  0  0  0  0  0  0  0  0  0  0  0  # atno 17321 bound_to 7965
  140.5433  143.2219  151.8049 LP  0  0  0  0  0  0  0  0  0  0  0  0  # atno 17342 bound_to 10162
  139.4863  144.4572  151.9584 LP  0  0  0  0  0  0  0  0  0  0  0  0  # atno 17343 bound_to 10162
  156.0109  130.3833  150.2267 LP  0  0  0  0  0  0  0  0  0  0  0  0  # atno 17370 bound_to 10713
  157.0452  131.0047  151.3271 LP  0  0  0  0  0  0  0  0  0  0  0  0  # atno 17371 bound_to 10713
  140.4792  134.1306  155.7214 LP  0  0  0  0  0  0  0  0  0  0  0  0  # atno 17394 bound_to 11000
  141.1615  133.8784  157.1834 LP  0  0  0  0  0  0  0  0  0  0  0  0  # atno 17395 bound_to 11000

$$$$
