AV-unprocessed.smi:2432|AV-procd|sdf|9588|dock1
  -GOLD-   2272013223D 1   1.00000     0.00000
 Structure written by MMmdl.
 33 34  0  0  0  0  0  0  0  0  1 V2000
  147.4250  139.3506  153.4090 C   0  0  0  0  0  0  0  0  0  0  0  0
  148.6220  139.5691  154.2059 N   0  0  0  0  0  0  0  0  0  0  0  0
  149.1646  140.7725  154.4440 C   0  0  0  0  0  0  0  0  0  0  0  0
  148.6906  141.8186  153.9989 O   0  0  0  0  0  0  0  0  0  0  0  0
  150.4444  140.7888  155.2921 C   0  0  1  0  0  0  0  0  0  0  0  0
  150.3736  141.7989  156.4597 C   0  0  0  0  0  0  0  0  0  0  0  0
  151.5728  141.7114  157.2831 N   0  0  0  0  0  0  0  0  0  0  0  0
  151.7790  142.7303  158.1939 C   0  0  0  0  0  0  0  0  0  0  0  0
  151.5603  143.9843  157.7800 N   0  0  0  0  0  0  0  0  0  0  0  0
  151.7667  144.9697  158.6805 C   0  0  0  0  0  0  0  0  0  0  0  0
  152.1925  144.6964  159.9961 C   0  0  0  0  0  0  0  0  0  0  0  0
  152.3898  143.3367  160.3161 C   0  0  0  0  0  0  0  0  0  0  0  0
  152.8477  142.9047  161.6930 C   0  0  0  0  0  0  0  0  0  0  0  0
  152.1802  142.3551  159.4116 N   0  0  0  0  0  0  0  0  0  0  0  0
  151.8322  140.3562  157.7488 C   0  0  0  0  0  0  0  0  0  0  0  0
  151.8750  139.3857  156.5578 C   0  0  0  0  0  0  0  0  0  0  0  0
  150.6592  139.4801  155.8226 O   0  0  0  0  0  0  0  0  0  0  0  0
  147.2426  138.2820  153.2970 H   0  0  0  0  0  0  0  0  0  0  0  0
  147.5347  139.7833  152.4137 H   0  0  0  0  0  0  0  0  0  0  0  0
  146.5539  139.7978  153.8893 H   0  0  0  0  0  0  0  0  0  0  0  0
  149.0681  138.7567  154.6070 H   0  0  0  0  0  0  0  0  0  0  0  0
  151.2731  141.0481  154.6305 H   0  0  0  0  0  0  0  0  0  0  0  0
  150.2768  142.8149  156.0739 H   0  0  0  0  0  0  0  0  0  0  0  0
  149.4967  141.6048  157.0795 H   0  0  0  0  0  0  0  0  0  0  0  0
  151.5909  145.9826  158.3498 H   0  0  0  0  0  0  0  0  0  0  0  0
  152.3576  145.4867  160.7135 H   0  0  0  0  0  0  0  0  0  0  0  0
  153.0257  143.7661  162.3373 H   0  0  0  0  0  0  0  0  0  0  0  0
  153.7746  142.3346  161.6233 H   0  0  0  0  0  0  0  0  0  0  0  0
  152.0915  142.2765  162.1644 H   0  0  0  0  0  0  0  0  0  0  0  0
  152.7780  140.3267  158.2909 H   0  0  0  0  0  0  0  0  0  0  0  0
  151.0499  140.0581  158.4481 H   0  0  0  0  0  0  0  0  0  0  0  0
  152.7240  139.6033  155.9075 H   0  0  0  0  0  0  0  0  0  0  0  0
  151.9977  138.3618  156.9111 H   0  0  0  0  0  0  0  0  0  0  0  0
  1  2  1  0  0  0  0
  1 18  1  0  0  0  0
  1 19  1  0  0  0  0
  1 20  1  0  0  0  0
  2  3  1  0  0  0  0
  2 21  1  0  0  0  0
  3  4  2  0  0  0  0
  3  5  1  0  0  0  0
  5 17  1  0  0  0  0
  5  6  1  0  0  0  0
  5 22  1  0  0  0  0
  6  7  1  0  0  0  0
  6 23  1  0  0  0  0
  6 24  1  0  0  0  0
  7  8  1  0  0  0  0
  7 15  1  0  0  0  0
  8 14  1  0  0  0  0
  8  9  2  0  0  0  0
  9 10  1  0  0  0  0
 10 11  2  0  0  0  0
 10 25  1  0  0  0  0
 11 12  1  0  0  0  0
 11 26  1  0  0  0  0
 12 13  1  0  0  0  0
 12 14  2  0  0  0  0
 13 27  1  0  0  0  0
 13 28  1  0  0  0  0
 13 29  1  0  0  0  0
 15 16  1  0  0  0  0
 15 30  1  0  0  0  0
 15 31  1  0  0  0  0
 16 17  1  0  0  0  0
 16 32  1  0  0  0  0
 16 33  1  0  0  0  0
M  END
> <s_m_source_file>
AV-unprocessed.smi

> <i_m_source_file_index>
2432

> <i_lp_mmshare_version>
43012

> <i_f3d_flags>
0

> <s_epik_input>
W0NIM11bTkhdQyg9TylbQ0BASF0xW0NIMl1OKFtDSDJdW0NIMl1PMSljMm5bY0hdW2NIXWMobjIpW0NIM10=

> <s_epik_cmdline>
J2VwaWtfcHl0aG9uJywgJy1waCcsICc3LjAnLCAnLXRuJywgJzgnLCAnLW1hJywgJzIwMCcsICctbWV0YWxfYmluZGluZycsICctaW1hZScsICc8aW5maWxlLm1hZT4nLCAnLW9tYWUnLCAnPG91dGZpbGUubWFlPic=

> <r_lp_tautomer_probability>
1

> <r_epik_Ionization_Penalty>
3.16085e-05

> <r_epik_Ionization_Penalty_Charging>
0

> <r_epik_Ionization_Penalty_Neutral>
3.16085e-05

> <r_epik_State_Penalty>
-0

> <r_epik_Charging_Adjusted_Penalty>
0

> <i_epik_Tot_Q>
0

> <i_epik_Tot_abs_Q>
0

> <r_epik_Metal_State_Penalty>
-0

> <b_epik_Metal_Only>
0

> <s_lp_Force_Field>
OPLS_2005

> <r_lp_Energy>
12.5177

> <b_lp_Chiralities_Consistent>
1

> <s_lp_Variant>
AV-unprocessed.smi:2432-2

> <Gold.Version>
5.8.1

> <Gold.Id.Protein>
6NUR|6NUR_protein|mol2

> <Gold.PLP.Fitness>
36.4184

> <Gold.PLP.PLP>
-35.2790

> <Gold.PLP.part.hbond>
-1.3321

> <Gold.PLP.part.metal>
0.0000

> <Gold.PLP.part.buried>
-4.0303

> <Gold.PLP.part.nonpolar>
-29.3952

> <Gold.PLP.part.repulsive>
0.4125

> <Gold.PLP.ligand.clash>
0.0000

> <Gold.PLP.ligand.torsion>
0.3657

> <Gold.PLP.Chemscore.Hbond>
0.5280

> <Gold.PLP.Chemscore.CHOScore>
0.0000

> <Gold.PLP.Chemscore.Metal>
0.0000

> <Gold.Chemscore.Hbonds>
donor molecule, donor type, donor heavy atom, donor atom, acceptor molecule, acceptor atom, score
      P1  H  8011  8017       L1     4  0.45

> <Gold.PLP.Chemscore.Internal.Correction>
0.2870

> <Gold.Rescore>
     Score         DG    S(hbond)    S(metal)    S(lipo)     H(rot)  DE(clash)    DE(int)     intcor
     13.21     -13.88       0.70        0.00      80.55       1.31       0.36       0.31       ----

> <Gold.Chemscore.Fitness>
13.2064

> <Gold.Chemscore.DG>
-13.8777

> <Gold.Chemscore.ZeroCoef>
-5.4800

> <Gold.Chemscore.Hbond>
0.6959

> <Gold.Chemscore.Metal>
0.0000

> <Gold.Chemscore.Lipo>
80.5482

> <Gold.Chemscore.Internal_Hbond>
0.0000

> <Gold.Chemscore.DEClash>
0.3601

> <Gold.Chemscore.DEInternal>
0.3112

> <Gold.Chemscore.Rot>
1.3089

> <Gold.Chemscore.Internal.Correction>
   9.000000E+99

> <Gold.Chemscore.Hbonds>
donor molecule, donor type, donor heavy atom, donor atom, acceptor molecule, acceptor atom, score
      P1  H  8011  8017       L1     4  0.33

> <Gold.Chemscore.Hbond.Weighted>
-2.3244

> <Gold.Chemscore.Metal.Weighted>
-0.0000

> <Gold.Chemscore.Lipo.Weighted>
-9.4241

> <Gold.Chemscore.Internal_Hbond.Weighted>
0.0000

> <Gold.Chemscore.DEClash.Weighted>
0.3601

> <Gold.Chemscore.DEInternal.Weighted>
0.3112

> <Gold.Chemscore.Rot.Weighted>
3.3509

> <Gold.Chemscore.Internal.Correction.Weighted>
   9.000000E+99

> <Gold.Protein.RotatedTorsions>
[ 6907 6896 6895 6894 ] final -121.54 input  -60.11 | X-H torsion
[ 7974 7965 7964 7962 ] final   40.27 input  175.53 | X-H torsion
[ 8008 7997 7996 7995 ] final  163.53 input   59.86 | X-H torsion
[ 10167 10162 10161 10158 ] final   23.02 input  -65.29 | X-H torsion
[ 10718 10713 10712 10709 ] final  101.69 input   66.30 | X-H torsion
[ 10763 10752 10751 10750 ] final  107.00 input  -60.55 | X-H torsion
[ 11005 11000 10999 10996 ] final  -89.34 input  -57.11 | X-H torsion

> <Gold.Protein.ActiveResidues>
 VAL166  LYS551  ARG553  GLY616  TRP617  ASP618  TYR619  PRO620  LYS621  CYS622 
 ASP623  PHE694  ASN695  SER759  ASP760  ASP761  ALA762  ILE779  LEU786  VAL792 
 PHE793  MET794  SER795  GLU796  ALA797  LYS798  CYS799  TRP800  GLU811  SER814 

> <Gold.Protein.RotatedAtoms>
  150.8493  133.7812  159.3031 H   0  0  0  0  0  0  0  0  0  0  0  0  # atno 6907 bound_to 6896
  151.5490  135.1066  159.9954 H   0  0  0  0  0  0  0  0  0  0  0  0  # atno 6908 bound_to 6896
  152.4539  133.7641  159.6819 H   0  0  0  0  0  0  0  0  0  0  0  0  # atno 6909 bound_to 6896
  146.0918  139.5553  142.9470 H   0  0  0  0  0  0  0  0  0  0  0  0  # atno 7974 bound_to 7965
  156.1950  140.1721  156.8016 H   0  0  0  0  0  0  0  0  0  0  0  0  # atno 8008 bound_to 7997
  154.5518  140.0716  156.8712 H   0  0  0  0  0  0  0  0  0  0  0  0  # atno 8009 bound_to 7997
  155.3013  140.3361  155.4250 H   0  0  0  0  0  0  0  0  0  0  0  0  # atno 8010 bound_to 7997
  140.5302  143.9854  150.6462 H   0  0  0  0  0  0  0  0  0  0  0  0  # atno 10167 bound_to 10162
  157.6823  131.0733  150.5290 H   0  0  0  0  0  0  0  0  0  0  0  0  # atno 10718 bound_to 10713
  153.4006  135.3859  155.1985 H   0  0  0  0  0  0  0  0  0  0  0  0  # atno 10763 bound_to 10752
  154.8729  135.3770  154.4623 H   0  0  0  0  0  0  0  0  0  0  0  0  # atno 10764 bound_to 10752
  153.5120  135.7087  153.5838 H   0  0  0  0  0  0  0  0  0  0  0  0  # atno 10765 bound_to 10752
  141.1586  133.7624  156.9581 H   0  0  0  0  0  0  0  0  0  0  0  0  # atno 11005 bound_to 11000
  145.6023  141.0353  143.2011 LP  0  0  0  0  0  0  0  0  0  0  0  0  # atno 17320 bound_to 7965
  144.7366  139.7568  143.7327 LP  0  0  0  0  0  0  0  0  0  0  0  0  # atno 17321 bound_to 7965
  140.3227  143.3127  152.0768 LP  0  0  0  0  0  0  0  0  0  0  0  0  # atno 17342 bound_to 10162
  139.4952  144.6563  151.6565 LP  0  0  0  0  0  0  0  0  0  0  0  0  # atno 17343 bound_to 10162
  156.5601  130.4253  149.6067 LP  0  0  0  0  0  0  0  0  0  0  0  0  # atno 17370 bound_to 10713
  156.2829  130.7081  151.1909 LP  0  0  0  0  0  0  0  0  0  0  0  0  # atno 17371 bound_to 10713
  140.1212  134.9416  157.2205 LP  0  0  0  0  0  0  0  0  0  0  0  0  # atno 17394 bound_to 11000
  140.3070  134.3067  155.7276 LP  0  0  0  0  0  0  0  0  0  0  0  0  # atno 17395 bound_to 11000

$$$$
