AV-unprocessed.smi:2902|AV-procd|sdf|11154|dock8
  -GOLD-   2272016 33D 1   1.00000     0.00000
 Structure written by MMmdl.
 47 48  0  0  0  0  0  0  0  0  1 V2000
  149.5717  141.4300  154.8120 C   0  0  0  0  0  0  0  0  0  0  0  0
  149.9084  141.6177  156.2966 C   0  0  0  0  0  0  0  0  0  0  0  0
  151.4002  141.3918  156.6038 C   0  0  1  0  0  0  0  0  0  0  0  0
  151.6047  141.6586  157.9914 O   0  0  0  0  0  0  0  0  0  0  0  0
  151.2560  142.9614  158.4512 C   0  0  0  0  0  0  0  0  0  0  0  0
  152.0270  144.0552  157.6981 C   0  0  0  0  0  0  0  0  0  0  0  0
  152.3262  145.1589  158.7248 C   0  0  0  0  0  0  0  0  0  0  0  0
  151.7781  144.6589  160.0660 C   0  0  0  0  0  0  0  0  0  0  0  0
  151.6776  143.1433  159.9075 C   0  0  0  0  0  0  0  0  0  0  0  0
  151.8293  139.9573  156.2537 C   0  0  0  0  0  0  0  0  0  0  0  0
  152.2920  139.6979  155.1426 O   0  0  0  0  0  0  0  0  0  0  0  0
  151.6456  139.0362  157.2116 N   0  0  0  0  0  0  0  0  0  0  0  0
  151.9155  137.6044  157.0888 C   0  0  1  0  0  0  0  0  0  0  0  0
  152.5970  137.1112  158.3792 C   0  0  0  0  0  0  0  0  0  0  0  0
  150.5958  136.8522  156.7731 C   0  0  2  0  0  0  0  0  0  0  0  0
  149.9560  137.2753  155.4376 C   0  0  0  0  0  0  0  0  0  0  0  0
  149.6282  137.0128  157.8527 N   0  0  0  0  0  0  0  0  0  0  0  0
  148.8895  138.0643  158.2161 C   0  0  0  0  0  0  0  0  0  0  0  0
  148.1246  137.8427  159.2755 N   0  0  0  0  0  0  0  0  0  0  0  0
  148.4750  136.5503  159.5437 C   0  0  0  0  0  0  0  0  0  0  0  0
  149.3749  136.0069  158.7242 N   0  0  0  0  0  0  0  0  0  0  0  0
  148.5071  141.5821  154.6336 H   0  0  0  0  0  0  0  0  0  0  0  0
  149.8252  140.4249  154.4745 H   0  0  0  0  0  0  0  0  0  0  0  0
  150.1169  142.1404  154.1902 H   0  0  0  0  0  0  0  0  0  0  0  0
  149.6118  142.6204  156.6079 H   0  0  0  0  0  0  0  0  0  0  0  0
  149.3024  140.9237  156.8811 H   0  0  0  0  0  0  0  0  0  0  0  0
  151.9901  142.0987  156.0164 H   0  0  0  0  0  0  0  0  0  0  0  0
  150.1820  143.1462  158.3851 H   0  0  0  0  0  0  0  0  0  0  0  0
  152.9665  143.6544  157.3151 H   0  0  0  0  0  0  0  0  0  0  0  0
  151.4639  144.4288  156.8429 H   0  0  0  0  0  0  0  0  0  0  0  0
  153.4033  145.3163  158.7928 H   0  0  0  0  0  0  0  0  0  0  0  0
  151.8774  146.1116  158.4435 H   0  0  0  0  0  0  0  0  0  0  0  0
  152.4036  144.9516  160.9096 H   0  0  0  0  0  0  0  0  0  0  0  0
  150.7831  145.0743  160.2314 H   0  0  0  0  0  0  0  0  0  0  0  0
  150.9755  142.6898  160.6078 H   0  0  0  0  0  0  0  0  0  0  0  0
  152.6566  142.6913  160.0736 H   0  0  0  0  0  0  0  0  0  0  0  0
  151.2524  139.3464  158.0886 H   0  0  0  0  0  0  0  0  0  0  0  0
  152.6046  137.4470  156.2566 H   0  0  0  0  0  0  0  0  0  0  0  0
  152.9229  136.0752  158.2910 H   0  0  0  0  0  0  0  0  0  0  0  0
  151.9243  137.1803  159.2346 H   0  0  0  0  0  0  0  0  0  0  0  0
  153.4848  137.7016  158.6084 H   0  0  0  0  0  0  0  0  0  0  0  0
  150.8231  135.7871  156.6956 H   0  0  0  0  0  0  0  0  0  0  0  0
  150.5853  137.0109  154.5884 H   0  0  0  0  0  0  0  0  0  0  0  0
  149.7800  138.3508  155.4010 H   0  0  0  0  0  0  0  0  0  0  0  0
  148.9977  136.7761  155.2890 H   0  0  0  0  0  0  0  0  0  0  0  0
  148.9128  139.0112  157.6969 H   0  0  0  0  0  0  0  0  0  0  0  0
  148.0579  135.9945  160.3706 H   0  0  0  0  0  0  0  0  0  0  0  0
  1  2  1  0  0  0  0
  1 22  1  0  0  0  0
  1 23  1  0  0  0  0
  1 24  1  0  0  0  0
  2  3  1  0  0  0  0
  2 25  1  0  0  0  0
  2 26  1  0  0  0  0
  3  4  1  0  0  0  0
  3 10  1  0  0  0  0
  3 27  1  0  0  0  0
  4  5  1  0  0  0  0
  5  9  1  0  0  0  0
  5  6  1  0  0  0  0
  5 28  1  0  0  0  0
  6  7  1  0  0  0  0
  6 29  1  0  0  0  0
  6 30  1  0  0  0  0
  7  8  1  0  0  0  0
  7 31  1  0  0  0  0
  7 32  1  0  0  0  0
  8  9  1  0  0  0  0
  8 33  1  0  0  0  0
  8 34  1  0  0  0  0
  9 35  1  0  0  0  0
  9 36  1  0  0  0  0
 10 11  2  0  0  0  0
 10 12  1  0  0  0  0
 12 13  1  0  0  0  0
 12 37  1  0  0  0  0
 13 14  1  0  0  0  0
 13 15  1  0  0  0  0
 13 38  1  0  0  0  0
 14 39  1  0  0  0  0
 14 40  1  0  0  0  0
 14 41  1  0  0  0  0
 15 16  1  0  0  0  0
 15 17  1  0  0  0  0
 15 42  1  0  0  0  0
 16 43  1  0  0  0  0
 16 44  1  0  0  0  0
 16 45  1  0  0  0  0
 17 21  1  0  0  0  0
 17 18  1  0  0  0  0
 18 19  2  0  0  0  0
 18 46  1  0  0  0  0
 19 20  1  0  0  0  0
 20 21  2  0  0  0  0
 20 47  1  0  0  0  0
M  END
> <s_m_source_file>
AV-unprocessed.smi

> <i_m_source_file_index>
2902

> <i_lp_mmshare_version>
43012

> <i_f3d_flags>
0

> <s_epik_input>
W0NIMl0xW0NIMl1bQ0gyXVtDSDJdW0NIXTFPW0NAQEhdKFtDSDJdW0NIM10pQyg9TylbTkhdW0NASF0oW0NIM10pW0NASF0oW0NIM10pbjJbY0hdbltjSF1uMg==

> <s_epik_cmdline>
J2VwaWtfcHl0aG9uJywgJy1waCcsICc3LjAnLCAnLXRuJywgJzgnLCAnLW1hJywgJzIwMCcsICctbWV0YWxfYmluZGluZycsICctaW1hZScsICc8aW5maWxlLm1hZT4nLCAnLW9tYWUnLCAnPG91dGZpbGUubWFlPic=

> <r_lp_tautomer_probability>
1

> <r_epik_Ionization_Penalty>
6.95617e-05

> <r_epik_Ionization_Penalty_Charging>
0

> <r_epik_Ionization_Penalty_Neutral>
6.95617e-05

> <r_epik_State_Penalty>
-0

> <r_epik_Charging_Adjusted_Penalty>
0

> <i_epik_Tot_Q>
0

> <i_epik_Tot_abs_Q>
0

> <r_epik_Metal_State_Penalty>
-0

> <b_epik_Metal_Only>
0

> <s_lp_Force_Field>
OPLS_2005

> <r_lp_Energy>
29.0587

> <b_lp_Chiralities_Consistent>
1

> <s_lp_Variant>
AV-unprocessed.smi:2902-4

> <Gold.Version>
5.8.1

> <Gold.Id.Protein>
6NUR|6NUR_protein|mol2

> <Gold.PLP.Fitness>
42.4169

> <Gold.PLP.PLP>
-38.5276

> <Gold.PLP.part.hbond>
-4.0000

> <Gold.PLP.part.metal>
0.0000

> <Gold.PLP.part.buried>
-6.4015

> <Gold.PLP.part.nonpolar>
-28.5169

> <Gold.PLP.part.repulsive>
0.1016

> <Gold.PLP.ligand.clash>
0.0000

> <Gold.PLP.ligand.torsion>
1.2664

> <Gold.PLP.Chemscore.Hbond>
2.0731

> <Gold.PLP.Chemscore.CHOScore>
0.0000

> <Gold.PLP.Chemscore.Metal>
0.0000

> <Gold.Chemscore.Hbonds>
donor molecule, donor type, donor heavy atom, donor atom, acceptor molecule, acceptor atom, score
      P1  H  6896  6907       L1    21  0.89
      P1  H  6934  6947       L1    19  0.20
      P1  H  7989  7998       L1    11  0.61

> <Gold.PLP.Chemscore.Internal.Correction>
0.2028

> <Gold.Rescore>
     Score         DG    S(hbond)    S(metal)    S(lipo)     H(rot)  DE(clash)    DE(int)     intcor
     14.90     -16.72       2.30        0.00      89.27       2.69       0.03       1.79       ----

> <Gold.Chemscore.Fitness>
14.9007

> <Gold.Chemscore.DG>
-16.7201

> <Gold.Chemscore.ZeroCoef>
-5.4800

> <Gold.Chemscore.Hbond>
2.3025

> <Gold.Chemscore.Metal>
0.0000

> <Gold.Chemscore.Lipo>
89.2734

> <Gold.Chemscore.Internal_Hbond>
0.0000

> <Gold.Chemscore.DEClash>
0.0308

> <Gold.Chemscore.DEInternal>
1.7887

> <Gold.Chemscore.Rot>
2.6935

> <Gold.Chemscore.Internal.Correction>
   9.000000E+99

> <Gold.Chemscore.Hbonds>
donor molecule, donor type, donor heavy atom, donor atom, acceptor molecule, acceptor atom, score
      P1  H  6896  6907       L1    21  0.79
      P1  H  6934  6947       L1    19  0.20
      P1  H  7989  7998       L1    11  0.59

> <Gold.Chemscore.Hbond.Weighted>
-7.6905

> <Gold.Chemscore.Metal.Weighted>
-0.0000

> <Gold.Chemscore.Lipo.Weighted>
-10.4450

> <Gold.Chemscore.Internal_Hbond.Weighted>
0.0000

> <Gold.Chemscore.DEClash.Weighted>
0.0308

> <Gold.Chemscore.DEInternal.Weighted>
1.7887

> <Gold.Chemscore.Rot.Weighted>
6.8954

> <Gold.Chemscore.Internal.Correction.Weighted>
   9.000000E+99

> <Gold.Protein.RotatedTorsions>
[ 6907 6896 6895 6894 ] final  -59.17 input  -60.11 | X-H torsion
[ 7974 7965 7964 7962 ] final  127.53 input  175.53 | X-H torsion
[ 8008 7997 7996 7995 ] final  -84.19 input   59.86 | X-H torsion
[ 10167 10162 10161 10158 ] final   82.76 input  -65.29 | X-H torsion
[ 10718 10713 10712 10709 ] final   69.24 input   66.30 | X-H torsion
[ 10763 10752 10751 10750 ] final -144.40 input  -60.55 | X-H torsion
[ 11005 11000 10999 10996 ] final -128.20 input  -57.11 | X-H torsion

> <Gold.Protein.ActiveResidues>
 VAL166  LYS551  ARG553  GLY616  TRP617  ASP618  TYR619  PRO620  LYS621  CYS622 
 ASP623  PHE694  ASN695  SER759  ASP760  ASP761  ALA762  ILE779  LEU786  VAL792 
 PHE793  MET794  SER795  GLU796  ALA797  LYS798  CYS799  TRP800  GLU811  SER814 

> <Gold.Protein.RotatedAtoms>
  150.7950  134.7003  159.6545 H   0  0  0  0  0  0  0  0  0  0  0  0  # atno 6907 bound_to 6896
  152.4061  134.6201  160.0058 H   0  0  0  0  0  0  0  0  0  0  0  0  # atno 6908 bound_to 6896
  151.6458  133.3286  159.3176 H   0  0  0  0  0  0  0  0  0  0  0  0  # atno 6909 bound_to 6896
  145.0496  139.3894  143.5061 H   0  0  0  0  0  0  0  0  0  0  0  0  # atno 7974 bound_to 7965
  154.6271  140.0608  156.9687 H   0  0  0  0  0  0  0  0  0  0  0  0  # atno 8008 bound_to 7997
  155.1725  140.3292  155.4371 H   0  0  0  0  0  0  0  0  0  0  0  0  # atno 8009 bound_to 7997
  156.2463  140.1912  156.6826 H   0  0  0  0  0  0  0  0  0  0  0  0  # atno 8010 bound_to 7997
  139.9255  144.6186  150.8397 H   0  0  0  0  0  0  0  0  0  0  0  0  # atno 10167 bound_to 10162
  157.6335  130.9415  150.0487 H   0  0  0  0  0  0  0  0  0  0  0  0  # atno 10718 bound_to 10713
  154.8430  135.3441  154.6340 H   0  0  0  0  0  0  0  0  0  0  0  0  # atno 10763 bound_to 10752
  153.6950  135.6973  153.5084 H   0  0  0  0  0  0  0  0  0  0  0  0  # atno 10764 bound_to 10752
  153.2566  135.4336  155.0807 H   0  0  0  0  0  0  0  0  0  0  0  0  # atno 10765 bound_to 10752
  140.9536  134.1032  157.4038 H   0  0  0  0  0  0  0  0  0  0  0  0  # atno 11005 bound_to 11000
  146.3517  140.0139  142.8664 LP  0  0  0  0  0  0  0  0  0  0  0  0  # atno 17320 bound_to 7965
  145.1544  140.9640  143.4414 LP  0  0  0  0  0  0  0  0  0  0  0  0  # atno 17321 bound_to 7965
  140.7651  143.3267  151.2500 LP  0  0  0  0  0  0  0  0  0  0  0  0  # atno 17342 bound_to 10162
  139.6826  143.9828  152.2817 LP  0  0  0  0  0  0  0  0  0  0  0  0  # atno 17343 bound_to 10162
  156.1556  130.3643  149.9374 LP  0  0  0  0  0  0  0  0  0  0  0  0  # atno 17370 bound_to 10713
  156.7384  130.9070  151.3630 LP  0  0  0  0  0  0  0  0  0  0  0  0  # atno 17371 bound_to 10713
  139.8855  135.0073  156.6439 LP  0  0  0  0  0  0  0  0  0  0  0  0  # atno 17394 bound_to 11000
  140.7567  133.8851  155.8387 LP  0  0  0  0  0  0  0  0  0  0  0  0  # atno 17395 bound_to 11000

$$$$
