AV-unprocessed.smi:100|AV-procd|sdf|898|dock4
  -GOLD-   2262017393D 1   1.00000     0.00000
 Structure written by MMmdl.
 31 33  0  0  0  0  0  0  0  0  1 V2000
  153.9609  141.4736  160.5322 N   0  0  0  0  0  0  0  0  0  0  0  0
  152.9679  141.9981  159.8007 C   0  0  0  0  0  0  0  0  0  0  0  0
  152.4324  143.1770  160.1951 N   0  0  0  0  0  0  0  0  0  0  0  0
  151.4407  143.7203  159.4820 C   0  0  0  0  0  0  0  0  0  0  0  0
  150.8582  143.2567  158.3732 N   0  0  0  0  0  0  0  0  0  0  0  0
  151.3980  142.0671  157.9767 C   0  0  0  0  0  0  0  0  0  0  0  0
  152.4539  141.3766  158.6345 C   0  0  0  0  0  0  0  0  0  0  0  0
  152.7506  140.2047  157.9526 N   0  0  0  0  0  0  0  0  0  0  0  0
  151.9147  140.2057  156.9492 C   0  0  0  0  0  0  0  0  0  0  0  0
  151.0652  141.2886  156.8849 N   0  0  0  0  0  0  0  0  0  0  0  0
  150.0143  141.5546  155.8507 C   0  0  1  0  0  0  0  0  0  0  0  0
  150.1833  140.6936  154.7691 O   0  0  0  0  0  0  0  0  0  0  0  0
  148.9186  140.3147  154.2183 C   0  0  1  0  0  0  0  0  0  0  0  0
  148.8021  138.7815  154.2696 C   0  0  0  0  0  0  0  0  0  0  0  0
  149.7474  138.1931  153.4019 O   0  0  0  0  0  0  0  0  0  0  0  0
  147.8596  141.0161  155.0859 C   0  0  2  0  0  0  0  0  0  0  0  0
  147.4821  142.1504  154.4930 F   0  0  0  0  0  0  0  0  0  0  0  0
  148.5894  141.3522  156.3719 C   0  0  1  0  0  0  0  0  0  0  0  0
  148.4621  140.3168  157.3292 O   0  0  0  0  0  0  0  0  0  0  0  0
  154.3771  140.5951  160.2581 H   0  0  0  0  0  0  0  0  0  0  0  0
  154.2884  141.9555  161.3567 H   0  0  0  0  0  0  0  0  0  0  0  0
  151.0589  144.6605  159.8516 H   0  0  0  0  0  0  0  0  0  0  0  0
  151.8957  139.4092  156.2196 H   0  0  0  0  0  0  0  0  0  0  0  0
  150.1957  142.5778  155.5173 H   0  0  0  0  0  0  0  0  0  0  0  0
  148.8380  140.6591  153.1859 H   0  0  0  0  0  0  0  0  0  0  0  0
  148.9246  138.4002  155.2827 H   0  0  0  0  0  0  0  0  0  0  0  0
  147.8155  138.4673  153.9282 H   0  0  0  0  0  0  0  0  0  0  0  0
  149.9989  138.8331  152.7539 H   0  0  0  0  0  0  0  0  0  0  0  0
  146.9523  140.4305  155.2397 H   0  0  0  0  0  0  0  0  0  0  0  0
  148.2289  142.2770  156.8242 H   0  0  0  0  0  0  0  0  0  0  0  0
  148.2470  140.7066  158.1630 H   0  0  0  0  0  0  0  0  0  0  0  0
  1  2  1  0  0  0  0
  1 20  1  0  0  0  0
  1 21  1  0  0  0  0
  2  7  1  0  0  0  0
  2  3  2  0  0  0  0
  3  4  1  0  0  0  0
  4  5  2  0  0  0  0
  4 22  1  0  0  0  0
  5  6  1  0  0  0  0
  6 10  1  0  0  0  0
  6  7  2  0  0  0  0
  7  8  1  0  0  0  0
  8  9  2  0  0  0  0
  9 10  1  0  0  0  0
  9 23  1  0  0  0  0
 10 11  1  0  0  0  0
 11 18  1  0  0  0  0
 11 12  1  0  0  0  0
 11 24  1  0  0  0  0
 12 13  1  0  0  0  0
 13 14  1  0  0  0  0
 13 16  1  0  0  0  0
 13 25  1  0  0  0  0
 14 15  1  0  0  0  0
 14 26  1  0  0  0  0
 14 27  1  0  0  0  0
 15 28  1  0  0  0  0
 16 17  1  0  0  0  0
 16 18  1  0  0  0  0
 16 29  1  0  0  0  0
 18 19  1  0  0  0  0
 18 30  1  0  0  0  0
 19 31  1  0  0  0  0
M  END
> <s_m_source_file>
AV-unprocessed.smi

> <i_m_source_file_index>
100

> <i_lp_mmshare_version>
43012

> <i_f3d_flags>
0

> <s_epik_input>
bjFbY0hdbmMoW05IMl0pYyhjMTIpbltjSF1uMltDQEBIXTNPW0NAQEhdKFtDSDJdW09IXSlbQ0BIXShGKVtDQEhdM1tPSF0=

> <s_epik_cmdline>
J2VwaWtfcHl0aG9uJywgJy1waCcsICc3LjAnLCAnLXRuJywgJzgnLCAnLW1hJywgJzIwMCcsICctbWV0YWxfYmluZGluZycsICctaW1hZScsICc8aW5maWxlLm1hZT4nLCAnLW9tYWUnLCAnPG91dGZpbGUubWFlPic=

> <r_lp_tautomer_probability>
1

> <r_epik_Ionization_Penalty>
0.000750324

> <r_epik_Ionization_Penalty_Charging>
0

> <r_epik_Ionization_Penalty_Neutral>
0.000750324

> <r_epik_State_Penalty>
-0

> <r_epik_Charging_Adjusted_Penalty>
0

> <i_epik_Tot_Q>
0

> <i_epik_Tot_abs_Q>
0

> <r_epik_Metal_State_Penalty>
-0

> <b_epik_Metal_Only>
0

> <s_epik_Chemistry_Notes>
This compound contains an acetal/aminal-like group ( X-CH(R)-Y where X, Y are N, S, or O) that may be acid/base labile, releasing an aldehyde.

> <s_lp_Force_Field>
OPLS_2005

> <r_lp_Energy>
37.0589

> <b_lp_Chiralities_Consistent>
1

> <s_lp_Variant>
AV-unprocessed.smi:100-2

> <Gold.Version>
5.8.1

> <Gold.Id.Protein>
6NUR|6NUR_protein|mol2

> <Gold.PLP.Fitness>
40.3751

> <Gold.PLP.PLP>
-32.4577

> <Gold.PLP.part.hbond>
-4.5427

> <Gold.PLP.part.metal>
0.0000

> <Gold.PLP.part.buried>
-2.9180

> <Gold.PLP.part.nonpolar>
-25.4011

> <Gold.PLP.part.repulsive>
0.2645

> <Gold.PLP.ligand.clash>
0.0000

> <Gold.PLP.ligand.torsion>
0.3028

> <Gold.PLP.Chemscore.Hbond>
2.8400

> <Gold.PLP.Chemscore.CHOScore>
0.0000

> <Gold.PLP.Chemscore.Metal>
0.0000

> <Gold.Chemscore.Hbonds>
donor molecule, donor type, donor heavy atom, donor atom, acceptor molecule, acceptor atom, score
      L1  H    15    28       P1  7957  1.00
      P1  H  7989  7998       L1    12  0.85
      P1  H  7997  8009       L1     8  0.93

> <Gold.PLP.Chemscore.Internal.Correction>
0.0029

> <Gold.Rescore>
     Score         DG    S(hbond)    S(metal)    S(lipo)     H(rot)  DE(clash)    DE(int)     intcor
      8.16      -8.78       2.42        0.00      28.92       3.19       0.56       0.06       ----

> <Gold.Chemscore.Fitness>
8.1623

> <Gold.Chemscore.DG>
-8.7760

> <Gold.Chemscore.ZeroCoef>
-5.4800

> <Gold.Chemscore.Hbond>
2.4188

> <Gold.Chemscore.Metal>
0.0000

> <Gold.Chemscore.Lipo>
28.9228

> <Gold.Chemscore.Internal_Hbond>
0.0000

> <Gold.Chemscore.DEClash>
0.5582

> <Gold.Chemscore.DEInternal>
0.0556

> <Gold.Chemscore.Rot>
3.1901

> <Gold.Chemscore.Internal.Correction>
   9.000000E+99

> <Gold.Chemscore.Hbonds>
donor molecule, donor type, donor heavy atom, donor atom, acceptor molecule, acceptor atom, score
      L1  H    15    28       P1  7957  0.60
      P1  H  7989  7998       L1    12  0.74
      P1  H  7997  8009       L1     8  0.18

> <Gold.Chemscore.Hbond.Weighted>
-8.0787

> <Gold.Chemscore.Metal.Weighted>
-0.0000

> <Gold.Chemscore.Lipo.Weighted>
-3.3840

> <Gold.Chemscore.Internal_Hbond.Weighted>
0.0000

> <Gold.Chemscore.DEClash.Weighted>
0.5582

> <Gold.Chemscore.DEInternal.Weighted>
0.0556

> <Gold.Chemscore.Rot.Weighted>
8.1667

> <Gold.Chemscore.Internal.Correction.Weighted>
   9.000000E+99

> <Gold.Protein.RotatedTorsions>
[ 6907 6896 6895 6894 ] final -112.29 input  -60.11 | X-H torsion
[ 7974 7965 7964 7962 ] final  -31.81 input  175.53 | X-H torsion
[ 8008 7997 7996 7995 ] final  162.68 input   59.86 | X-H torsion
[ 10167 10162 10161 10158 ] final -162.57 input  -65.29 | X-H torsion
[ 10718 10713 10712 10709 ] final   -3.96 input   66.30 | X-H torsion
[ 10763 10752 10751 10750 ] final   54.06 input  -60.55 | X-H torsion
[ 11005 11000 10999 10996 ] final  140.79 input  -57.11 | X-H torsion

> <Gold.Protein.ActiveResidues>
 VAL166  LYS551  ARG553  GLY616  TRP617  ASP618  TYR619  PRO620  LYS621  CYS622 
 ASP623  PHE694  ASN695  SER759  ASP760  ASP761  ALA762  ILE779  LEU786  VAL792 
 PHE793  MET794  SER795  GLU796  ALA797  LYS798  CYS799  TRP800  GLU811  SER814 

> <Gold.Protein.RotatedAtoms>
  150.7748  133.9111  159.3369 H   0  0  0  0  0  0  0  0  0  0  0  0  # atno 6907 bound_to 6896
  151.6988  135.0932  160.0256 H   0  0  0  0  0  0  0  0  0  0  0  0  # atno 6908 bound_to 6896
  152.3780  133.6469  159.6174 H   0  0  0  0  0  0  0  0  0  0  0  0  # atno 6909 bound_to 6896
  146.1039  140.5713  142.8808 H   0  0  0  0  0  0  0  0  0  0  0  0  # atno 7974 bound_to 7965
  156.2013  140.1744  156.7893 H   0  0  0  0  0  0  0  0  0  0  0  0  # atno 8008 bound_to 7997
  154.5596  140.0702  156.8828 H   0  0  0  0  0  0  0  0  0  0  0  0  # atno 8009 bound_to 7997
  155.2874  140.3353  155.4257 H   0  0  0  0  0  0  0  0  0  0  0  0  # atno 8010 bound_to 7997
  139.6382  144.0309  152.2071 H   0  0  0  0  0  0  0  0  0  0  0  0  # atno 10167 bound_to 10162
  156.7683  130.5292  149.5772 H   0  0  0  0  0  0  0  0  0  0  0  0  # atno 10718 bound_to 10713
  152.9801  135.5757  154.4843 H   0  0  0  0  0  0  0  0  0  0  0  0  # atno 10763 bound_to 10752
  154.4387  135.2775  155.1864 H   0  0  0  0  0  0  0  0  0  0  0  0  # atno 10764 bound_to 10752
  154.3542  135.6202  153.5711 H   0  0  0  0  0  0  0  0  0  0  0  0  # atno 10765 bound_to 10752
  140.0353  134.9332  157.0741 H   0  0  0  0  0  0  0  0  0  0  0  0  # atno 11005 bound_to 11000
  144.7455  140.5056  143.6839 LP  0  0  0  0  0  0  0  0  0  0  0  0  # atno 17320 bound_to 7965
  145.5800  139.1488  143.3241 LP  0  0  0  0  0  0  0  0  0  0  0  0  # atno 17321 bound_to 7965
  139.9992  144.6306  150.7745 LP  0  0  0  0  0  0  0  0  0  0  0  0  # atno 17342 bound_to 10162
  140.7477  143.2910  151.3330 LP  0  0  0  0  0  0  0  0  0  0  0  0  # atno 17343 bound_to 10162
  156.1294  130.6167  151.0311 LP  0  0  0  0  0  0  0  0  0  0  0  0  # atno 17370 bound_to 10713
  157.6703  131.0863  150.7629 LP  0  0  0  0  0  0  0  0  0  0  0  0  # atno 17371 bound_to 10713
  140.4158  134.1933  155.7163 LP  0  0  0  0  0  0  0  0  0  0  0  0  # atno 17394 bound_to 11000
  141.1854  133.8324  157.1106 LP  0  0  0  0  0  0  0  0  0  0  0  0  # atno 17395 bound_to 11000

$$$$
