AV-unprocessed.smi:53|AV-procd|sdf|518|dock6
  -GOLD-   2262016393D 1   1.00000     0.00000
 Structure written by MMmdl.
 30 31  0  0  0  0  0  0  0  0  1 V2000
  152.2972  143.4864  158.6338 N   0  0  0  0  0  0  0  0  0  0  0  0
  151.3386  142.8431  157.9523 C   0  0  0  0  0  0  0  0  0  0  0  0
  149.9498  143.0075  158.3146 C   0  0  0  0  0  0  0  0  0  0  0  0
  149.0415  142.3288  157.5795 C   0  0  0  0  0  0  0  0  0  0  0  0
  149.4064  141.5202  156.5078 N   0  0  0  0  0  0  0  0  0  0  0  0
  148.3927  140.7278  155.6964 C   0  0  1  0  0  0  0  0  0  0  0  0
  147.1076  141.2138  155.9510 O   0  0  0  0  0  0  0  0  0  0  0  0
  146.7502  142.1626  154.9513 C   0  0  2  0  0  0  0  0  0  0  0  0
  145.2373  142.4408  154.9594 C   0  0  0  0  0  0  0  0  0  0  0  0
  144.5270  141.2294  155.1035 O   0  0  0  0  0  0  0  0  0  0  0  0
  147.3034  141.5019  153.6854 C   0  0  2  0  0  0  0  0  0  0  0  0
  146.4015  140.5200  153.1984 O   0  0  0  0  0  0  0  0  0  0  0  0
  148.6240  140.9052  154.1762 C   0  0  2  0  0  0  0  0  0  0  0  0
  148.9500  139.6985  153.5108 O   0  0  0  0  0  0  0  0  0  0  0  0
  150.7797  141.3580  156.2003 C   0  0  0  0  0  0  0  0  0  0  0  0
  151.1565  140.6157  155.2946 O   0  0  0  0  0  0  0  0  0  0  0  0
  151.6853  142.0560  156.9532 N   0  0  0  0  0  0  0  0  0  0  0  0
  148.4771  139.7006  156.0566 H   0  0  0  0  0  0  0  0  0  0  0  0
  147.2995  143.0917  155.1146 H   0  0  0  0  0  0  0  0  0  0  0  0
  147.4654  142.2317  152.8916 H   0  0  0  0  0  0  0  0  0  0  0  0
  149.4237  141.6286  154.0113 H   0  0  0  0  0  0  0  0  0  0  0  0
  153.2672  143.3661  158.3813 H   0  0  0  0  0  0  0  0  0  0  0  0
  152.0449  144.0958  159.3986 H   0  0  0  0  0  0  0  0  0  0  0  0
  149.6189  143.6346  159.1301 H   0  0  0  0  0  0  0  0  0  0  0  0
  148.0064  142.4443  157.8631 H   0  0  0  0  0  0  0  0  0  0  0  0
  144.9760  143.0757  155.8063 H   0  0  0  0  0  0  0  0  0  0  0  0
  144.9211  142.9580  154.0529 H   0  0  0  0  0  0  0  0  0  0  0  0
  144.1261  141.0164  154.2746 H   0  0  0  0  0  0  0  0  0  0  0  0
  145.5436  140.9117  153.1338 H   0  0  0  0  0  0  0  0  0  0  0  0
  149.0970  139.8929  152.5977 H   0  0  0  0  0  0  0  0  0  0  0  0
  1  2  1  0  0  0  0
  1 22  1  0  0  0  0
  1 23  1  0  0  0  0
  2 17  2  0  0  0  0
  2  3  1  0  0  0  0
  3  4  2  0  0  0  0
  3 24  1  0  0  0  0
  4  5  1  0  0  0  0
  4 25  1  0  0  0  0
  5  6  1  0  0  0  0
  5 15  1  0  0  0  0
  6 18  1  0  0  0  0
  6 13  1  0  0  0  0
  6  7  1  0  0  0  0
  7  8  1  0  0  0  0
  8 19  1  0  0  0  0
  8  9  1  0  0  0  0
  8 11  1  0  0  0  0
  9 10  1  0  0  0  0
  9 26  1  0  0  0  0
  9 27  1  0  0  0  0
 10 28  1  0  0  0  0
 11 20  1  0  0  0  0
 11 12  1  0  0  0  0
 11 13  1  0  0  0  0
 12 29  1  0  0  0  0
 13 21  1  0  0  0  0
 13 14  1  0  0  0  0
 14 30  1  0  0  0  0
 15 16  2  0  0  0  0
 15 17  1  0  0  0  0
M  END
> <s_m_source_file>
AV-unprocessed.smi

> <i_m_source_file_index>
53

> <i_lp_mmshare_version>
43012

> <i_f3d_flags>
0

> <s_epik_input>
W05IMl1jMVtjSF1bY0hdbihjKD1PKW4xKVtDQEBIXTJPW0NASF0oW0NIMl1bT0hdKVtDQEBIXShbT0hdKVtDQEBIXTJbT0hd

> <s_epik_cmdline>
J2VwaWtfcHl0aG9uJywgJy1waCcsICc3LjAnLCAnLXRuJywgJzgnLCAnLW1hJywgJzIwMCcsICctbWV0YWxfYmluZGluZycsICctaW1hZScsICc8aW5maWxlLm1hZT4nLCAnLW9tYWUnLCAnPG91dGZpbGUubWFlPic=

> <r_lp_tautomer_probability>
0.99996

> <r_epik_Ionization_Penalty>
0.00069087

> <r_epik_Ionization_Penalty_Charging>
2.61959e-08

> <r_epik_Ionization_Penalty_Neutral>
0.000690844

> <r_epik_State_Penalty>
1.15523e-05

> <r_epik_Charging_Adjusted_Penalty>
1.15785e-05

> <i_epik_Tot_Q>
0

> <i_epik_Tot_abs_Q>
0

> <r_epik_Metal_State_Penalty>
-0

> <b_epik_Metal_Only>
0

> <s_epik_Chemistry_Notes>
This compound contains an acetal/aminal-like group ( X-CH(R)-Y where X, Y are N, S, or O) that may be acid/base labile, releasing an aldehyde.

> <s_lp_Force_Field>
OPLS_2005

> <r_lp_Energy>
34.5248

> <b_lp_Chiralities_Consistent>
1

> <s_lp_Variant>
AV-unprocessed.smi:53-6

> <Gold.Version>
5.8.1

> <Gold.Id.Protein>
6NUR|6NUR_protein|mol2

> <Gold.PLP.Fitness>
35.0502

> <Gold.PLP.PLP>
-24.8090

> <Gold.PLP.part.hbond>
-3.8186

> <Gold.PLP.part.metal>
0.0000

> <Gold.PLP.part.buried>
-3.7572

> <Gold.PLP.part.nonpolar>
-17.3581

> <Gold.PLP.part.repulsive>
0.1672

> <Gold.PLP.ligand.clash>
0.0000

> <Gold.PLP.ligand.torsion>
0.3864

> <Gold.PLP.Chemscore.Hbond>
3.6616

> <Gold.PLP.Chemscore.CHOScore>
0.0000

> <Gold.PLP.Chemscore.Metal>
0.0000

> <Gold.Chemscore.Hbonds>
donor molecule, donor type, donor heavy atom, donor atom, acceptor molecule, acceptor atom, score
      L1  H    10    28       P1 10175  1.00
      L1  H    12    29       P1 10175  0.82
      L1  H    14    30       P1  7957  1.00
      P1  H  7989  7998       L1    16  0.88

> <Gold.PLP.Chemscore.Internal.Correction>
0.0293

> <Gold.Rescore>
     Score         DG    S(hbond)    S(metal)    S(lipo)     H(rot)  DE(clash)    DE(int)     intcor
      8.60     -11.79       3.66        0.00      30.70       3.71       0.14       3.05       ----

> <Gold.Chemscore.Fitness>
8.5975

> <Gold.Chemscore.DG>
-11.7918

> <Gold.Chemscore.ZeroCoef>
-5.4800

> <Gold.Chemscore.Hbond>
3.6575

> <Gold.Chemscore.Metal>
0.0000

> <Gold.Chemscore.Lipo>
30.7014

> <Gold.Chemscore.Internal_Hbond>
0.0000

> <Gold.Chemscore.DEClash>
0.1448

> <Gold.Chemscore.DEInternal>
3.0494

> <Gold.Chemscore.Rot>
3.7095

> <Gold.Chemscore.Internal.Correction>
   9.000000E+99

> <Gold.Chemscore.Hbonds>
donor molecule, donor type, donor heavy atom, donor atom, acceptor molecule, acceptor atom, score
      L1  H    10    28       P1 10175  0.85
      L1  H    12    29       P1 10175  0.39
      L1  H    14    30       P1  7957  0.93
      P1  H  7989  7998       L1    16  0.86

> <Gold.Chemscore.Hbond.Weighted>
-12.2161

> <Gold.Chemscore.Metal.Weighted>
-0.0000

> <Gold.Chemscore.Lipo.Weighted>
-3.5921

> <Gold.Chemscore.Internal_Hbond.Weighted>
0.0000

> <Gold.Chemscore.DEClash.Weighted>
0.1448

> <Gold.Chemscore.DEInternal.Weighted>
3.0494

> <Gold.Chemscore.Rot.Weighted>
9.4964

> <Gold.Chemscore.Internal.Correction.Weighted>
   9.000000E+99

> <Gold.Protein.RotatedTorsions>
[ 6907 6896 6895 6894 ] final   63.14 input  -60.11 | X-H torsion
[ 7974 7965 7964 7962 ] final   37.47 input  175.53 | X-H torsion
[ 8008 7997 7996 7995 ] final -176.54 input   59.86 | X-H torsion
[ 10167 10162 10161 10158 ] final   14.73 input  -65.29 | X-H torsion
[ 10718 10713 10712 10709 ] final  -84.63 input   66.30 | X-H torsion
[ 10763 10752 10751 10750 ] final   33.31 input  -60.55 | X-H torsion
[ 11005 11000 10999 10996 ] final  -66.04 input  -57.11 | X-H torsion

> <Gold.Protein.ActiveResidues>
 VAL166  LYS551  ARG553  GLY616  TRP617  ASP618  TYR619  PRO620  LYS621  CYS622 
 ASP623  PHE694  ASN695  SER759  ASP760  ASP761  ALA762  ILE779  LEU786  VAL792 
 PHE793  MET794  SER795  GLU796  ALA797  LYS798  CYS799  TRP800  GLU811  SER814 

> <Gold.Protein.RotatedAtoms>
  152.4229  134.5922  159.9976 H   0  0  0  0  0  0  0  0  0  0  0  0  # atno 6907 bound_to 6896
  151.6066  133.3345  159.3066 H   0  0  0  0  0  0  0  0  0  0  0  0  # atno 6908 bound_to 6896
  150.8118  134.7314  159.6760 H   0  0  0  0  0  0  0  0  0  0  0  0  # atno 6909 bound_to 6896
  146.1135  139.5890  142.9336 H   0  0  0  0  0  0  0  0  0  0  0  0  # atno 7974 bound_to 7965
  155.9961  140.1211  157.0592 H   0  0  0  0  0  0  0  0  0  0  0  0  # atno 8008 bound_to 7997
  154.4227  140.1116  156.5700 H   0  0  0  0  0  0  0  0  0  0  0  0  # atno 8009 bound_to 7997
  155.6277  140.3472  155.4675 H   0  0  0  0  0  0  0  0  0  0  0  0  # atno 8010 bound_to 7997
  140.5915  143.8785  150.6878 H   0  0  0  0  0  0  0  0  0  0  0  0  # atno 10167 bound_to 10162
  156.0004  130.4704  150.4440 H   0  0  0  0  0  0  0  0  0  0  0  0  # atno 10718 bound_to 10713
  153.0218  135.6390  154.1491 H   0  0  0  0  0  0  0  0  0  0  0  0  # atno 10763 bound_to 10752
  154.1225  135.2846  155.3206 H   0  0  0  0  0  0  0  0  0  0  0  0  # atno 10764 bound_to 10752
  154.6253  135.5511  153.7682 H   0  0  0  0  0  0  0  0  0  0  0  0  # atno 10765 bound_to 10752
  141.1471  133.6692  156.6078 H   0  0  0  0  0  0  0  0  0  0  0  0  # atno 11005 bound_to 11000
  145.5614  141.0404  143.2224 LP  0  0  0  0  0  0  0  0  0  0  0  0  # atno 17320 bound_to 7965
  144.7532  139.7140  143.7264 LP  0  0  0  0  0  0  0  0  0  0  0  0  # atno 17321 bound_to 7965
  140.2309  143.3736  152.1566 LP  0  0  0  0  0  0  0  0  0  0  0  0  # atno 17342 bound_to 10162
  139.5231  144.7067  151.5333 LP  0  0  0  0  0  0  0  0  0  0  0  0  # atno 17343 bound_to 10162
  157.2478  131.0540  151.2397 LP  0  0  0  0  0  0  0  0  0  0  0  0  # atno 17370 bound_to 10713
  157.3557  130.7105  149.6469 LP  0  0  0  0  0  0  0  0  0  0  0  0  # atno 17371 bound_to 10713
  140.3638  134.7665  157.4552 LP  0  0  0  0  0  0  0  0  0  0  0  0  # atno 17394 bound_to 11000
  140.0764  134.5791  155.8586 LP  0  0  0  0  0  0  0  0  0  0  0  0  # atno 17395 bound_to 11000

$$$$
