AV-unprocessed.smi:203|AV-procd|sdf|1586|dock4
  -GOLD-   2262019483D 1   1.00000     0.00000
 Structure written by MMmdl.
 57 61  0  0  0  0  0  0  0  0  1 V2000
  148.2857  136.7736  162.4265 O   0  0  0  0  0  0  0  0  0  0  0  0
  147.6706  136.2774  161.4856 C   0  0  0  0  0  0  0  0  0  0  0  0
  148.3424  135.5470  160.3358 C   0  0  0  0  0  0  0  0  0  0  0  0
  147.1631  134.9167  159.5665 C   0  0  1  0  0  0  0  0  0  0  0  0
  147.0849  133.3597  159.6635 C   0  0  2  0  0  0  0  0  0  0  0  0
  146.9518  132.8544  161.1250 C   0  0  0  0  0  0  0  0  0  0  0  0
  146.8753  131.3237  161.1937 C   0  0  0  0  0  0  0  0  0  0  0  0
  148.0923  130.7089  160.4946 C   0  0  0  0  0  0  0  0  0  0  0  0
  148.1932  131.2209  159.0518 C   0  0  0  0  0  0  0  0  0  0  0  0
  148.2168  132.6828  159.0050 N   0  0  0  0  0  0  0  0  0  0  0  0
  148.5258  133.1093  157.7599 C   0  0  0  0  0  0  0  0  0  0  0  0
  149.7822  133.5769  157.5606 N   0  0  0  0  0  0  0  0  0  0  0  0
  150.1436  134.0234  156.3539 C   0  0  0  0  0  0  0  0  0  0  0  0
  149.4199  134.0827  155.2333 N   0  0  0  0  0  0  0  0  0  0  0  0
  148.1575  133.6056  155.4319 C   0  0  0  0  0  0  0  0  0  0  0  0
  147.6294  133.1035  156.6539 C   0  0  0  0  0  0  0  0  0  0  0  0
  146.3084  132.7101  156.4746 N   0  0  0  0  0  0  0  0  0  0  0  0
  146.0696  132.9648  155.2168 C   0  0  0  0  0  0  0  0  0  0  0  0
  147.1250  133.5032  154.5168 N   0  0  0  0  0  0  0  0  0  0  0  0
  147.1343  133.8770  153.1138 C   0  0  0  0  0  0  0  0  0  0  0  0
  146.9829  132.6570  152.1805 C   0  0  1  0  0  0  0  0  0  0  0  0
  147.6383  131.5293  152.7256 O   0  0  0  0  0  0  0  0  0  0  0  0
  145.5218  132.2749  151.8659 C   0  0  2  0  0  0  0  0  0  0  0  0
  145.3213  131.6132  150.4967 C   0  0  0  0  0  0  0  0  0  0  0  0
  143.9480  132.0902  150.0421 C   0  0  0  0  0  0  0  0  0  0  0  0
  143.4787  133.0095  151.1681 C   0  0  0  0  0  0  0  0  0  0  0  0
  144.6812  133.4181  151.7982 O   0  0  0  0  0  0  0  0  0  0  0  0
  145.9071  135.6278  160.1149 C   0  0  0  0  0  0  0  0  0  0  0  0
  146.3494  136.2983  161.3221 N   0  0  0  0  0  0  0  0  0  0  0  0
  148.8741  136.2684  159.7145 H   0  0  0  0  0  0  0  0  0  0  0  0
  149.0654  134.8149  160.6962 H   0  0  0  0  0  0  0  0  0  0  0  0
  147.2428  135.2019  158.5170 H   0  0  0  0  0  0  0  0  0  0  0  0
  146.1819  133.0481  159.1372 H   0  0  0  0  0  0  0  0  0  0  0  0
  147.8027  133.1872  161.7197 H   0  0  0  0  0  0  0  0  0  0  0  0
  146.0660  133.2721  161.6020 H   0  0  0  0  0  0  0  0  0  0  0  0
  146.8319  130.9948  162.2324 H   0  0  0  0  0  0  0  0  0  0  0  0
  145.9585  130.9775  160.7153 H   0  0  0  0  0  0  0  0  0  0  0  0
  149.0011  130.9655  161.0408 H   0  0  0  0  0  0  0  0  0  0  0  0
  148.0199  129.6211  160.5014 H   0  0  0  0  0  0  0  0  0  0  0  0
  149.0946  130.8187  158.5864 H   0  0  0  0  0  0  0  0  0  0  0  0
  147.3452  130.8528  158.4725 H   0  0  0  0  0  0  0  0  0  0  0  0
  151.1577  134.3864  156.2748 H   0  0  0  0  0  0  0  0  0  0  0  0
  145.1101  132.7671  154.7612 H   0  0  0  0  0  0  0  0  0  0  0  0
  146.3323  134.5957  152.9414 H   0  0  0  0  0  0  0  0  0  0  0  0
  148.0677  134.4021  152.9116 H   0  0  0  0  0  0  0  0  0  0  0  0
  147.4881  132.8688  151.2372 H   0  0  0  0  0  0  0  0  0  0  0  0
  148.1785  131.1450  152.0517 H   0  0  0  0  0  0  0  0  0  0  0  0
  145.1341  131.6004  152.6326 H   0  0  0  0  0  0  0  0  0  0  0  0
  146.0758  131.9387  149.7804 H   0  0  0  0  0  0  0  0  0  0  0  0
  145.3817  130.5265  150.5646 H   0  0  0  0  0  0  0  0  0  0  0  0
  144.0382  132.6468  149.1086 H   0  0  0  0  0  0  0  0  0  0  0  0
  143.2519  131.2674  149.8761 H   0  0  0  0  0  0  0  0  0  0  0  0
  142.9053  133.8624  150.8045 H   0  0  0  0  0  0  0  0  0  0  0  0
  142.8632  132.4624  151.8841 H   0  0  0  0  0  0  0  0  0  0  0  0
  145.5492  136.3795  159.4101 H   0  0  0  0  0  0  0  0  0  0  0  0
  145.0791  134.9484  160.3174 H   0  0  0  0  0  0  0  0  0  0  0  0
  145.7071  136.7333  161.9685 H   0  0  0  0  0  0  0  0  0  0  0  0
  1  2  2  0  0  0  0
  2 29  1  0  0  0  0
  2  3  1  0  0  0  0
  3  4  1  0  0  0  0
  3 30  1  0  0  0  0
  3 31  1  0  0  0  0
  4  5  1  0  0  0  0
  4 28  1  0  0  0  0
  4 32  1  0  0  0  0
  5 10  1  0  0  0  0
  5  6  1  0  0  0  0
  5 33  1  0  0  0  0
  6  7  1  0  0  0  0
  6 34  1  0  0  0  0
  6 35  1  0  0  0  0
  7  8  1  0  0  0  0
  7 36  1  0  0  0  0
  7 37  1  0  0  0  0
  8  9  1  0  0  0  0
  8 38  1  0  0  0  0
  8 39  1  0  0  0  0
  9 10  1  0  0  0  0
  9 40  1  0  0  0  0
  9 41  1  0  0  0  0
 10 11  1  0  0  0  0
 11 16  1  0  0  0  0
 11 12  2  0  0  0  0
 12 13  1  0  0  0  0
 13 14  2  0  0  0  0
 13 42  1  0  0  0  0
 14 15  1  0  0  0  0
 15 19  1  0  0  0  0
 15 16  2  0  0  0  0
 16 17  1  0  0  0  0
 17 18  2  0  0  0  0
 18 19  1  0  0  0  0
 18 43  1  0  0  0  0
 19 20  1  0  0  0  0
 20 21  1  0  0  0  0
 20 44  1  0  0  0  0
 20 45  1  0  0  0  0
 21 22  1  0  0  0  0
 21 23  1  0  0  0  0
 21 46  1  0  0  0  0
 22 47  1  0  0  0  0
 23 27  1  0  0  0  0
 23 24  1  0  0  0  0
 23 48  1  0  0  0  0
 24 25  1  0  0  0  0
 24 49  1  0  0  0  0
 24 50  1  0  0  0  0
 25 26  1  0  0  0  0
 25 51  1  0  0  0  0
 25 52  1  0  0  0  0
 26 27  1  0  0  0  0
 26 53  1  0  0  0  0
 26 54  1  0  0  0  0
 28 29  1  0  0  0  0
 28 55  1  0  0  0  0
 28 56  1  0  0  0  0
 29 57  1  0  0  0  0
M  END
> <s_m_source_file>
AV-unprocessed.smi

> <i_m_source_file_index>
203

> <i_lp_mmshare_version>
43012

> <i_f3d_flags>
0

> <s_epik_input>
Tz1DMVtDSDJdW0NASF0oW0NIMl1bTkhdMSlbQ0BASF0yW0NIMl1bQ0gyXVtDSDJdW0NIMl1OMmMobltjSF1uMyljKGMzNCluW2NIXW40W0NIMl1bQ0BIXShbT0hdKVtDQEBIXTVbQ0gyXVtDSDJdW0NIMl1PNQ==

> <s_epik_cmdline>
J2VwaWtfcHl0aG9uJywgJy1waCcsICc3LjAnLCAnLXRuJywgJzgnLCAnLW1hJywgJzIwMCcsICctbWV0YWxfYmluZGluZycsICctaW1hZScsICc8aW5maWxlLm1hZT4nLCAnLW9tYWUnLCAnPG91dGZpbGUubWFlPic=

> <r_lp_tautomer_probability>
1

> <r_epik_Ionization_Penalty>
0.00175146

> <r_epik_Ionization_Penalty_Charging>
0

> <r_epik_Ionization_Penalty_Neutral>
0.00175146

> <r_epik_State_Penalty>
0.00109045

> <r_epik_Charging_Adjusted_Penalty>
0.00109045

> <i_epik_Tot_Q>
0

> <i_epik_Tot_abs_Q>
0

> <r_epik_Metal_State_Penalty>
-0

> <b_epik_Metal_Only>
0

> <s_lp_Force_Field>
OPLS_2005

> <r_lp_Energy>
58.3664

> <b_lp_Chiralities_Consistent>
1

> <s_lp_Variant>
AV-unprocessed.smi:203-5

> <Gold.Version>
5.8.1

> <Gold.Id.Protein>
6NUR|6NUR_protein|mol2

> <Gold.PLP.Fitness>
43.7297

> <Gold.PLP.PLP>
-34.3559

> <Gold.PLP.part.hbond>
-3.0000

> <Gold.PLP.part.metal>
0.0000

> <Gold.PLP.part.buried>
-6.3402

> <Gold.PLP.part.nonpolar>
-26.1739

> <Gold.PLP.part.repulsive>
0.3390

> <Gold.PLP.ligand.clash>
0.0000

> <Gold.PLP.ligand.torsion>
1.1500

> <Gold.PLP.Chemscore.Hbond>
3.0000

> <Gold.PLP.Chemscore.CHOScore>
0.7736

> <Gold.PLP.Chemscore.Metal>
0.0000

> <Gold.Chemscore.Hbonds>
donor molecule, donor type, donor heavy atom, donor atom, acceptor molecule, acceptor atom, score
      L1  H    22    47       P1 10747  1.00
      P1  H  6896  6908       L1    12  1.00
      P1  H  6931  6943       L1     1  1.00
      L1  C    18    43       P1 10957  0.76

> <Gold.PLP.Chemscore.Internal.Correction>
0.3529

> <Gold.Rescore>
     Score         DG    S(hbond)    S(metal)    S(lipo)     H(rot)  DE(clash)    DE(int)     intcor
     15.72     -16.82       2.78        0.00      76.99       2.72       0.21       0.89       ----

> <Gold.Chemscore.Fitness>
15.7201

> <Gold.Chemscore.DG>
-16.8206

> <Gold.Chemscore.ZeroCoef>
-5.4800

> <Gold.Chemscore.Hbond>
2.7808

> <Gold.Chemscore.Metal>
0.0000

> <Gold.Chemscore.Lipo>
76.9946

> <Gold.Chemscore.Internal_Hbond>
0.0000

> <Gold.Chemscore.DEClash>
0.2056

> <Gold.Chemscore.DEInternal>
0.8948

> <Gold.Chemscore.Rot>
2.7171

> <Gold.Chemscore.Internal.Correction>
   9.000000E+99

> <Gold.Chemscore.Hbonds>
donor molecule, donor type, donor heavy atom, donor atom, acceptor molecule, acceptor atom, score
      L1  H    22    47       P1 10747  0.98
      P1  H  6896  6908       L1    12  0.80
      P1  H  6931  6943       L1     1  0.78

> <Gold.Chemscore.Hbond.Weighted>
-9.2879

> <Gold.Chemscore.Metal.Weighted>
-0.0000

> <Gold.Chemscore.Lipo.Weighted>
-9.0084

> <Gold.Chemscore.Internal_Hbond.Weighted>
0.0000

> <Gold.Chemscore.DEClash.Weighted>
0.2056

> <Gold.Chemscore.DEInternal.Weighted>
0.8948

> <Gold.Chemscore.Rot.Weighted>
6.9557

> <Gold.Chemscore.Internal.Correction.Weighted>
   9.000000E+99

> <Gold.Protein.RotatedTorsions>
[ 6907 6896 6895 6894 ] final  123.09 input  -60.11 | X-H torsion
[ 7974 7965 7964 7962 ] final -174.69 input  175.53 | X-H torsion
[ 8008 7997 7996 7995 ] final   82.80 input   59.86 | X-H torsion
[ 10167 10162 10161 10158 ] final   81.65 input  -65.29 | X-H torsion
[ 10718 10713 10712 10709 ] final   66.89 input   66.30 | X-H torsion
[ 10763 10752 10751 10750 ] final -133.95 input  -60.55 | X-H torsion
[ 11005 11000 10999 10996 ] final -114.59 input  -57.11 | X-H torsion

> <Gold.Protein.ActiveResidues>
 VAL166  LYS551  ARG553  GLY616  TRP617  ASP618  TYR619  PRO620  LYS621  CYS622 
 ASP623  PHE694  ASN695  SER759  ASP760  ASP761  ALA762  ILE779  LEU786  VAL792 
 PHE793  MET794  SER795  GLU796  ALA797  LYS798  CYS799  TRP800  GLU811  SER814 

> <Gold.Protein.RotatedAtoms>
  152.4190  133.7085  159.6464 H   0  0  0  0  0  0  0  0  0  0  0  0  # atno 6907 bound_to 6896
  150.8066  133.8488  159.3208 H   0  0  0  0  0  0  0  0  0  0  0  0  # atno 6908 bound_to 6896
  151.6210  135.1034  160.0153 H   0  0  0  0  0  0  0  0  0  0  0  0  # atno 6909 bound_to 6896
  144.7131  140.1433  143.6390 H   0  0  0  0  0  0  0  0  0  0  0  0  # atno 7974 bound_to 7965
  155.9154  140.3425  155.6131 H   0  0  0  0  0  0  0  0  0  0  0  0  # atno 8008 bound_to 7997
  155.7337  140.0799  157.2296 H   0  0  0  0  0  0  0  0  0  0  0  0  # atno 8009 bound_to 7997
  154.4061  140.1583  156.2525 H   0  0  0  0  0  0  0  0  0  0  0  0  # atno 8010 bound_to 7997
  139.9370  144.6114  150.8289 H   0  0  0  0  0  0  0  0  0  0  0  0  # atno 10167 bound_to 10162
  157.6197  130.9292  150.0169 H   0  0  0  0  0  0  0  0  0  0  0  0  # atno 10718 bound_to 10713
  154.8726  135.3750  154.4656 H   0  0  0  0  0  0  0  0  0  0  0  0  # atno 10763 bound_to 10752
  153.5321  135.7027  153.5683 H   0  0  0  0  0  0  0  0  0  0  0  0  # atno 10764 bound_to 10752
  153.3883  135.3979  155.1870 H   0  0  0  0  0  0  0  0  0  0  0  0  # atno 10765 bound_to 10752
  141.0542  133.9639  157.2783 H   0  0  0  0  0  0  0  0  0  0  0  0  # atno 11005 bound_to 11000
  145.9182  139.2529  143.1397 LP  0  0  0  0  0  0  0  0  0  0  0  0  # atno 17320 bound_to 7965
  145.9647  140.8808  143.0193 LP  0  0  0  0  0  0  0  0  0  0  0  0  # atno 17321 bound_to 7965
  140.7621  143.3191  151.2663 LP  0  0  0  0  0  0  0  0  0  0  0  0  # atno 17342 bound_to 10162
  139.6735  143.9978  152.2767 LP  0  0  0  0  0  0  0  0  0  0  0  0  # atno 17343 bound_to 10162
  156.1336  130.3643  149.9692 LP  0  0  0  0  0  0  0  0  0  0  0  0  # atno 17370 bound_to 10713
  156.7748  130.9199  151.3645 LP  0  0  0  0  0  0  0  0  0  0  0  0  # atno 17371 bound_to 10713
  139.9376  135.0195  156.8605 LP  0  0  0  0  0  0  0  0  0  0  0  0  # atno 17394 bound_to 11000
  140.5997  134.0184  155.7532 LP  0  0  0  0  0  0  0  0  0  0  0  0  # atno 17395 bound_to 11000

$$$$
