AV-unprocessed.smi:2336|AV-procd|sdf|9327|dock2
  -GOLD-   2272012543D 1   1.00000     0.00000
 Structure written by MMmdl.
 50 51  0  0  0  0  0  0  0  0  2 V2000
  146.1188  140.6785  155.9580 C   0  0  0  0  0  0  0  0  0  0  0  0
  147.2980  141.5001  155.4067 C   0  0  0  0  0  0  0  0  0  0  0  0
  146.8825  142.2893  154.1522 C   0  0  0  0  0  0  0  0  0  0  0  0
  148.6159  140.6712  155.2141 C   0  0  2  0  0  0  0  0  0  0  0  0
  149.8990  141.5600  155.1343 C   0  0  0  0  0  0  0  0  0  0  0  0
  150.1172  142.3706  156.3263 N   0  0  0  0  0  0  0  0  0  0  0  0
  150.9787  142.0660  157.3080 C   0  0  0  0  0  0  0  0  0  0  0  0
  151.6849  141.0574  157.2957 O   0  0  0  0  0  0  0  0  0  0  0  0
  150.9411  142.9852  158.2877 N   0  0  0  0  0  0  0  0  0  0  0  0
  151.6597  143.0203  159.5146 C   0  0  0  0  0  0  0  0  0  0  0  0
  152.5872  142.0332  159.9288 C   0  0  0  0  0  0  0  0  0  0  0  0
  153.2389  142.1971  161.1676 C   0  0  0  0  0  0  0  0  0  0  0  0
  153.0341  143.2529  161.9831 N   0  0  0  0  0  0  0  0  0  0  0  0
  152.1599  144.1984  161.5794 C   0  0  0  0  0  0  0  0  0  0  0  0
  151.4545  144.1304  160.3614 C   0  0  0  0  0  0  0  0  0  0  0  0
  150.5931  145.1175  160.0148 F   0  0  0  0  0  0  0  0  0  0  0  0
  148.4632  139.7675  154.0475 N   0  0  0  0  0  0  0  0  0  0  0  0
  149.6875  139.2204  153.4436 C   0  0  0  0  0  0  0  0  0  0  0  0
  150.3842  138.2073  154.3769 C   0  0  0  0  0  0  0  0  0  0  0  0
  149.4802  137.0687  154.6522 N   0  3  0  0  0  0  0  0  0  0  0  0
  150.1092  136.0289  155.4941 C   0  0  0  0  0  0  0  0  0  0  0  0
  148.1928  137.5497  155.2024 C   0  0  0  0  0  0  0  0  0  0  0  0
  147.5682  138.6178  154.2757 C   0  0  0  0  0  0  0  0  0  0  0  0
  145.7520  139.9532  155.2318 H   0  0  0  0  0  0  0  0  0  0  0  0
  145.2815  141.3274  156.2165 H   0  0  0  0  0  0  0  0  0  0  0  0
  146.4032  140.1377  156.8610 H   0  0  0  0  0  0  0  0  0  0  0  0
  147.4685  142.2745  156.1494 H   0  0  0  0  0  0  0  0  0  0  0  0
  146.4838  141.6478  153.3684 H   0  0  0  0  0  0  0  0  0  0  0  0
  147.7232  142.8463  153.7378 H   0  0  0  0  0  0  0  0  0  0  0  0
  146.1026  143.0119  154.3940 H   0  0  0  0  0  0  0  0  0  0  0  0
  148.7414  140.0371  156.0897 H   0  0  0  0  0  0  0  0  0  0  0  0
  150.8025  140.9641  155.0129 H   0  0  0  0  0  0  0  0  0  0  0  0
  149.8636  142.2188  154.2666 H   0  0  0  0  0  0  0  0  0  0  0  0
  149.5697  143.2148  156.4120 H   0  0  0  0  0  0  0  0  0  0  0  0
  150.2637  143.7249  158.1718 H   0  0  0  0  0  0  0  0  0  0  0  0
  152.8211  141.1683  159.3286 H   0  0  0  0  0  0  0  0  0  0  0  0
  153.9509  141.4605  161.5096 H   0  0  0  0  0  0  0  0  0  0  0  0
  152.0188  145.0361  162.2465 H   0  0  0  0  0  0  0  0  0  0  0  0
  149.4189  138.7209  152.5116 H   0  0  0  0  0  0  0  0  0  0  0  0
  150.3692  140.0146  153.1422 H   0  0  0  0  0  0  0  0  0  0  0  0
  151.2911  137.8372  153.8978 H   0  0  0  0  0  0  0  0  0  0  0  0
  150.6899  138.6729  155.3147 H   0  0  0  0  0  0  0  0  0  0  0  0
  150.3622  136.4229  156.4794 H   0  0  0  0  0  0  0  0  0  0  0  0
  151.0230  135.6581  155.0286 H   0  0  0  0  0  0  0  0  0  0  0  0
  149.4352  135.1821  155.6265 H   0  0  0  0  0  0  0  0  0  0  0  0
  147.5079  136.7056  155.2886 H   0  0  0  0  0  0  0  0  0  0  0  0
  148.3352  137.9324  156.2133 H   0  0  0  0  0  0  0  0  0  0  0  0
  146.6035  138.9182  154.6770 H   0  0  0  0  0  0  0  0  0  0  0  0
  147.3440  138.1629  153.3097 H   0  0  0  0  0  0  0  0  0  0  0  0
  149.2739  136.6412  153.7606 H   0  0  0  0  0  0  0  0  0  0  0  0
  1  2  1  0  0  0  0
  1 24  1  0  0  0  0
  1 25  1  0  0  0  0
  1 26  1  0  0  0  0
  2  3  1  0  0  0  0
  2  4  1  0  0  0  0
  2 27  1  0  0  0  0
  3 28  1  0  0  0  0
  3 29  1  0  0  0  0
  3 30  1  0  0  0  0
  4  5  1  0  0  0  0
  4 17  1  0  0  0  0
  4 31  1  0  0  0  0
  5  6  1  0  0  0  0
  5 32  1  0  0  0  0
  5 33  1  0  0  0  0
  6  7  1  0  0  0  0
  6 34  1  0  0  0  0
  7  8  2  0  0  0  0
  7  9  1  0  0  0  0
  9 10  1  0  0  0  0
  9 35  1  0  0  0  0
 10 15  1  0  0  0  0
 10 11  2  0  0  0  0
 11 12  1  0  0  0  0
 11 36  1  0  0  0  0
 12 13  2  0  0  0  0
 12 37  1  0  0  0  0
 13 14  1  0  0  0  0
 14 15  2  0  0  0  0
 14 38  1  0  0  0  0
 15 16  1  0  0  0  0
 17 23  1  0  0  0  0
 17 18  1  0  0  0  0
 18 19  1  0  0  0  0
 18 39  1  0  0  0  0
 18 40  1  0  0  0  0
 19 20  1  0  0  0  0
 19 41  1  0  0  0  0
 19 42  1  0  0  0  0
 20 21  1  0  0  0  0
 20 22  1  0  0  0  0
 20 50  1  0  0  0  0
 21 43  1  0  0  0  0
 21 44  1  0  0  0  0
 21 45  1  0  0  0  0
 22 23  1  0  0  0  0
 22 46  1  0  0  0  0
 22 47  1  0  0  0  0
 23 48  1  0  0  0  0
 23 49  1  0  0  0  0
M  CHG  1  20   1
M  END
> <s_m_source_file>
AV-unprocessed.smi

> <i_m_source_file_index>
2336

> <i_lp_mmshare_version>
43012

> <i_f3d_flags>
0

> <s_epik_input>
W0NIMl0xW0NIMl1OKFtDSDNdKVtDSDJdW0NIMl1OMVtDQEhdKFtDSF0oW0NIM10pW0NIM10pW0NIMl1bTkhdQyg9TylbTkhdYzJbY0hdW2NIXW5bY0hdYzJG

> <s_epik_cmdline>
J2VwaWtfcHl0aG9uJywgJy1waCcsICc3LjAnLCAnLXRuJywgJzgnLCAnLW1hJywgJzIwMCcsICctbWV0YWxfYmluZGluZycsICctaW1hZScsICc8aW5maWxlLm1hZT4nLCAnLW9tYWUnLCAnPG91dGZpbGUubWFlPic=

> <r_epik_Ionization_Penalty>
0.0313013

> <r_epik_Ionization_Penalty_Charging>
0.0272987

> <r_epik_Ionization_Penalty_Neutral>
0.00400259

> <r_epik_State_Penalty>
0.0776825

> <r_epik_Charging_Adjusted_Penalty>
0.104981

> <i_epik_Tot_Q>
1

> <i_epik_Tot_abs_Q>
1

> <r_epik_Metal_State_Penalty>
0.0776139

> <b_epik_Metal_Only>
0

> <s_lp_Force_Field>
OPLS_2005

> <r_lp_Energy>
31.6665

> <b_lp_Chiralities_Consistent>
1

> <s_lp_Variant>
AV-unprocessed.smi:2336-1

> <Gold.Version>
5.8.1

> <Gold.Id.Protein>
6NUR|6NUR_protein|mol2

> <Gold.PLP.Fitness>
46.2780

> <Gold.PLP.PLP>
-38.4757

> <Gold.PLP.part.hbond>
-2.0000

> <Gold.PLP.part.metal>
0.0000

> <Gold.PLP.part.buried>
-1.9187

> <Gold.PLP.part.nonpolar>
-35.3942

> <Gold.PLP.part.repulsive>
0.3639

> <Gold.PLP.ligand.clash>
0.0000

> <Gold.PLP.ligand.torsion>
0.6770

> <Gold.PLP.Chemscore.Hbond>
3.0000

> <Gold.PLP.Chemscore.CHOScore>
0.0000

> <Gold.PLP.Chemscore.Metal>
0.0000

> <Gold.Chemscore.Hbonds>
donor molecule, donor type, donor heavy atom, donor atom, acceptor molecule, acceptor atom, score
      L1  H     6    34       P1  8028  0.99
      L1  H    20    50       P1  7948  2.00

> <Gold.PLP.Chemscore.Internal.Correction>
0.1562

> <Gold.Rescore>
     Score         DG    S(hbond)    S(metal)    S(lipo)     H(rot)  DE(clash)    DE(int)     intcor
     15.43     -20.11       1.92        0.00     106.78       1.67       2.10       2.57       ----

> <Gold.Chemscore.Fitness>
15.4278

> <Gold.Chemscore.DG>
-20.1055

> <Gold.Chemscore.ZeroCoef>
-5.4800

> <Gold.Chemscore.Hbond>
1.9213

> <Gold.Chemscore.Metal>
0.0000

> <Gold.Chemscore.Lipo>
106.7825

> <Gold.Chemscore.Internal_Hbond>
0.0000

> <Gold.Chemscore.DEClash>
2.1032

> <Gold.Chemscore.DEInternal>
2.5745

> <Gold.Chemscore.Rot>
1.6739

> <Gold.Chemscore.Internal.Correction>
   9.000000E+99

> <Gold.Chemscore.Hbonds>
donor molecule, donor type, donor heavy atom, donor atom, acceptor molecule, acceptor atom, score
      L1  H     6    34       P1  8028  0.94
      L1  H    20    50       P1  7948  0.95

> <Gold.Chemscore.Hbond.Weighted>
-6.4171

> <Gold.Chemscore.Metal.Weighted>
-0.0000

> <Gold.Chemscore.Lipo.Weighted>
-12.4936

> <Gold.Chemscore.Internal_Hbond.Weighted>
0.0000

> <Gold.Chemscore.DEClash.Weighted>
2.1032

> <Gold.Chemscore.DEInternal.Weighted>
2.5745

> <Gold.Chemscore.Rot.Weighted>
4.2851

> <Gold.Chemscore.Internal.Correction.Weighted>
   9.000000E+99

> <Gold.Protein.RotatedTorsions>
[ 6907 6896 6895 6894 ] final  111.31 input  -60.11 | X-H torsion
[ 7974 7965 7964 7962 ] final  159.23 input  175.53 | X-H torsion
[ 8008 7997 7996 7995 ] final -109.38 input   59.86 | X-H torsion
[ 10167 10162 10161 10158 ] final   27.37 input  -65.29 | X-H torsion
[ 10718 10713 10712 10709 ] final   84.08 input   66.30 | X-H torsion
[ 10763 10752 10751 10750 ] final   91.68 input  -60.55 | X-H torsion
[ 11005 11000 10999 10996 ] final   60.64 input  -57.11 | X-H torsion

> <Gold.Protein.ActiveResidues>
 VAL166  LYS551  ARG553  GLY616  TRP617  ASP618  TYR619  PRO620  LYS621  CYS622 
 ASP623  PHE694  ASN695  SER759  ASP760  ASP761  ALA762  ILE779  LEU786  VAL792 
 PHE793  MET794  SER795  GLU796  ALA797  LYS798  CYS799  TRP800  GLU811  SER814 

> <Gold.Protein.RotatedAtoms>
  152.4976  133.8676  159.7281 H   0  0  0  0  0  0  0  0  0  0  0  0  # atno 6907 bound_to 6896
  150.9171  133.6916  159.2847 H   0  0  0  0  0  0  0  0  0  0  0  0  # atno 6908 bound_to 6896
  151.4306  135.1013  159.9693 H   0  0  0  0  0  0  0  0  0  0  0  0  # atno 6909 bound_to 6896
  144.7801  139.7589  143.6263 H   0  0  0  0  0  0  0  0  0  0  0  0  # atno 7974 bound_to 7965
  154.9584  140.0399  157.2178 H   0  0  0  0  0  0  0  0  0  0  0  0  # atno 8008 bound_to 7997
  154.7912  140.2836  155.5968 H   0  0  0  0  0  0  0  0  0  0  0  0  # atno 8009 bound_to 7997
  156.2950  140.2573  156.2760 H   0  0  0  0  0  0  0  0  0  0  0  0  # atno 8010 bound_to 7997
  140.4944  144.0415  150.6309 H   0  0  0  0  0  0  0  0  0  0  0  0  # atno 10167 bound_to 10162
  157.6891  131.0118  150.2619 H   0  0  0  0  0  0  0  0  0  0  0  0  # atno 10718 bound_to 10713
  153.2109  135.4389  155.0378 H   0  0  0  0  0  0  0  0  0  0  0  0  # atno 10763 bound_to 10752
  154.8199  135.3333  154.7070 H   0  0  0  0  0  0  0  0  0  0  0  0  # atno 10764 bound_to 10752
  153.7508  135.6998  153.5002 H   0  0  0  0  0  0  0  0  0  0  0  0  # atno 10765 bound_to 10752
  140.0218  134.6142  155.9629 H   0  0  0  0  0  0  0  0  0  0  0  0  # atno 11005 bound_to 11000
  146.2005  139.5296  142.9746 LP  0  0  0  0  0  0  0  0  0  0  0  0  # atno 17320 bound_to 7965
  145.6073  141.0345  143.1985 LP  0  0  0  0  0  0  0  0  0  0  0  0  # atno 17321 bound_to 7965
  140.3693  143.2863  152.0296 LP  0  0  0  0  0  0  0  0  0  0  0  0  # atno 17342 bound_to 10162
  139.4858  144.6242  151.7196 LP  0  0  0  0  0  0  0  0  0  0  0  0  # atno 17343 bound_to 10162
  156.3197  130.3784  149.7586 LP  0  0  0  0  0  0  0  0  0  0  0  0  # atno 17370 bound_to 10713
  156.5160  130.8193  151.3186 LP  0  0  0  0  0  0  0  0  0  0  0  0  # atno 17371 bound_to 10713
  141.1778  133.6542  156.4898 LP  0  0  0  0  0  0  0  0  0  0  0  0  # atno 17394 bound_to 11000
  140.4375  134.7046  157.4974 LP  0  0  0  0  0  0  0  0  0  0  0  0  # atno 17395 bound_to 11000

$$$$
