AV-unprocessed.smi:2483|AV-procd|sdf|9785|dock1
  -GOLD-   2272013423D 1   1.00000     0.00000
 Structure written by MMmdl.
 37 38  0  0  0  0  0  0  0  0  1 V2000
  146.1986  141.6311  156.0853 C   0  0  0  0  0  0  0  0  0  0  0  0
  147.2223  141.9271  155.0909 N   0  0  0  0  0  0  0  0  0  0  0  0
  146.7535  142.5211  153.8465 C   0  0  0  0  0  0  0  0  0  0  0  0
  148.2117  140.9415  154.8994 C   0  0  0  0  0  0  0  0  0  0  0  0
  147.8507  139.7920  154.2787 N   0  0  0  0  0  0  0  0  0  0  0  0
  148.7963  138.8720  154.0835 C   0  0  0  0  0  0  0  0  0  0  0  0
  150.0769  138.9571  154.4432 N   0  0  0  0  0  0  0  0  0  0  0  0
  150.4587  140.0920  155.0651 C   0  0  0  0  0  0  0  0  0  0  0  0
  149.5515  141.1504  155.3206 C   0  0  0  0  0  0  0  0  0  0  0  0
  149.9087  142.3385  156.0177 N   0  0  0  0  0  0  0  0  0  0  0  0
  150.8551  142.4965  156.9571 C   0  0  0  0  0  0  0  0  0  0  0  0
  151.5852  141.6027  157.3845 O   0  0  0  0  0  0  0  0  0  0  0  0
  150.9220  143.7743  157.3631 N   0  0  0  0  0  0  0  0  0  0  0  0
  151.8435  144.3383  158.3592 C   0  0  0  0  0  0  0  0  0  0  0  0
  153.1555  144.7522  157.6905 C   0  0  0  0  0  0  0  0  0  0  0  0
  151.1266  145.3338  159.2999 C   0  0  0  0  0  0  0  0  0  0  0  0
  150.7783  144.1714  160.2324 C   0  0  0  0  0  0  0  0  0  0  0  0
  151.9171  143.3896  159.5725 C   0  0  0  0  0  0  0  0  0  0  0  0
  146.6447  141.2332  156.9975 H   0  0  0  0  0  0  0  0  0  0  0  0
  145.4823  140.9035  155.7024 H   0  0  0  0  0  0  0  0  0  0  0  0
  145.6544  142.5387  156.3474 H   0  0  0  0  0  0  0  0  0  0  0  0
  147.5747  142.9293  153.2580 H   0  0  0  0  0  0  0  0  0  0  0  0
  146.0568  143.3341  154.0525 H   0  0  0  0  0  0  0  0  0  0  0  0
  146.2365  141.7763  153.2404 H   0  0  0  0  0  0  0  0  0  0  0  0
  148.4919  137.9628  153.5865 H   0  0  0  0  0  0  0  0  0  0  0  0
  151.4909  140.1246  155.3778 H   0  0  0  0  0  0  0  0  0  0  0  0
  149.4471  143.1791  155.7020 H   0  0  0  0  0  0  0  0  0  0  0  0
  150.2773  144.4263  156.9408 H   0  0  0  0  0  0  0  0  0  0  0  0
  153.8907  145.0718  158.4292 H   0  0  0  0  0  0  0  0  0  0  0  0
  153.0156  145.5840  157.0000 H   0  0  0  0  0  0  0  0  0  0  0  0
  153.5962  143.9267  157.1308 H   0  0  0  0  0  0  0  0  0  0  0  0
  151.8173  146.0404  159.7632 H   0  0  0  0  0  0  0  0  0  0  0  0
  150.2619  145.8521  158.8842 H   0  0  0  0  0  0  0  0  0  0  0  0
  150.9204  144.3785  161.2934 H   0  0  0  0  0  0  0  0  0  0  0  0
  149.7954  143.7440  160.0287 H   0  0  0  0  0  0  0  0  0  0  0  0
  151.6897  142.3433  159.3642 H   0  0  0  0  0  0  0  0  0  0  0  0
  152.8540  143.4838  160.1241 H   0  0  0  0  0  0  0  0  0  0  0  0
  1  2  1  0  0  0  0
  1 19  1  0  0  0  0
  1 20  1  0  0  0  0
  1 21  1  0  0  0  0
  2  3  1  0  0  0  0
  2  4  1  0  0  0  0
  3 22  1  0  0  0  0
  3 23  1  0  0  0  0
  3 24  1  0  0  0  0
  4  9  1  0  0  0  0
  4  5  2  0  0  0  0
  5  6  1  0  0  0  0
  6  7  2  0  0  0  0
  6 25  1  0  0  0  0
  7  8  1  0  0  0  0
  8  9  2  0  0  0  0
  8 26  1  0  0  0  0
  9 10  1  0  0  0  0
 10 11  1  0  0  0  0
 10 27  1  0  0  0  0
 11 12  2  0  0  0  0
 11 13  1  0  0  0  0
 13 14  1  0  0  0  0
 13 28  1  0  0  0  0
 14 18  1  0  0  0  0
 14 15  1  0  0  0  0
 14 16  1  0  0  0  0
 15 29  1  0  0  0  0
 15 30  1  0  0  0  0
 15 31  1  0  0  0  0
 16 17  1  0  0  0  0
 16 32  1  0  0  0  0
 16 33  1  0  0  0  0
 17 18  1  0  0  0  0
 17 34  1  0  0  0  0
 17 35  1  0  0  0  0
 18 36  1  0  0  0  0
 18 37  1  0  0  0  0
M  END
> <s_m_source_file>
AV-unprocessed.smi

> <i_m_source_file_index>
2483

> <i_lp_mmshare_version>
43012

> <i_f3d_flags>
0

> <s_epik_input>
W0NIM11OKFtDSDNdKWMxbltjSF1uW2NIXWMxW05IXUMoPU8pW05IXUMyKFtDSDNdKVtDSDJdW0NIMl1bQ0gyXTI=

> <s_epik_cmdline>
J2VwaWtfcHl0aG9uJywgJy1waCcsICc3LjAnLCAnLXRuJywgJzgnLCAnLW1hJywgJzIwMCcsICctbWV0YWxfYmluZGluZycsICctaW1hZScsICc8aW5maWxlLm1hZT4nLCAnLW9tYWUnLCAnPG91dGZpbGUubWFlPic=

> <r_lp_tautomer_probability>
1

> <r_epik_Ionization_Penalty>
0.0189547

> <r_epik_Ionization_Penalty_Charging>
0

> <r_epik_Ionization_Penalty_Neutral>
0.0189547

> <r_epik_State_Penalty>
0.0144869

> <r_epik_Charging_Adjusted_Penalty>
0.0144869

> <i_epik_Tot_Q>
0

> <i_epik_Tot_abs_Q>
0

> <r_epik_Metal_State_Penalty>
0.0140538

> <b_epik_Metal_Only>
0

> <s_lp_Force_Field>
OPLS_2005

> <r_lp_Energy>
16.2772

> <b_lp_Chiralities_Consistent>
1

> <s_lp_Variant>
AV-unprocessed.smi:2483-1

> <Gold.Version>
5.8.1

> <Gold.Id.Protein>
6NUR|6NUR_protein|mol2

> <Gold.PLP.Fitness>
43.0779

> <Gold.PLP.PLP>
-34.9937

> <Gold.PLP.part.hbond>
-2.0000

> <Gold.PLP.part.metal>
0.0000

> <Gold.PLP.part.buried>
-5.2607

> <Gold.PLP.part.nonpolar>
-28.6923

> <Gold.PLP.part.repulsive>
0.5690

> <Gold.PLP.ligand.clash>
0.0000

> <Gold.PLP.ligand.torsion>
0.7578

> <Gold.PLP.Chemscore.Hbond>
1.9920

> <Gold.PLP.Chemscore.CHOScore>
1.0000

> <Gold.PLP.Chemscore.Metal>
0.0000

> <Gold.Chemscore.Hbonds>
donor molecule, donor type, donor heavy atom, donor atom, acceptor molecule, acceptor atom, score
      L1  H    10    27       P1  8028  1.00
      L1  H    13    28       P1  8028  0.99
      L1  C     6    25       P1  7948  1.00

> <Gold.PLP.Chemscore.Internal.Correction>
0.6237

> <Gold.Rescore>
     Score         DG    S(hbond)    S(metal)    S(lipo)     H(rot)  DE(clash)    DE(int)     intcor
     14.65     -17.82       1.81        0.00      81.38       1.26       0.22       2.95       ----

> <Gold.Chemscore.Fitness>
14.6470

> <Gold.Chemscore.DG>
-17.8167

> <Gold.Chemscore.ZeroCoef>
-5.4800

> <Gold.Chemscore.Hbond>
1.8061

> <Gold.Chemscore.Metal>
0.0000

> <Gold.Chemscore.Lipo>
81.3752

> <Gold.Chemscore.Internal_Hbond>
0.0000

> <Gold.Chemscore.DEClash>
0.2236

> <Gold.Chemscore.DEInternal>
2.9462

> <Gold.Chemscore.Rot>
1.2564

> <Gold.Chemscore.Internal.Correction>
   9.000000E+99

> <Gold.Chemscore.Hbonds>
donor molecule, donor type, donor heavy atom, donor atom, acceptor molecule, acceptor atom, score
      L1  H    10    27       P1  8028  0.99
      L1  H    13    28       P1  8028  0.80

> <Gold.Chemscore.Hbond.Weighted>
-6.0322

> <Gold.Chemscore.Metal.Weighted>
-0.0000

> <Gold.Chemscore.Lipo.Weighted>
-9.5209

> <Gold.Chemscore.Internal_Hbond.Weighted>
0.0000

> <Gold.Chemscore.DEClash.Weighted>
0.2236

> <Gold.Chemscore.DEInternal.Weighted>
2.9462

> <Gold.Chemscore.Rot.Weighted>
3.2165

> <Gold.Chemscore.Internal.Correction.Weighted>
   9.000000E+99

> <Gold.Protein.RotatedTorsions>
[ 6907 6896 6895 6894 ] final  128.26 input  -60.11 | X-H torsion
[ 7974 7965 7964 7962 ] final  -50.57 input  175.53 | X-H torsion
[ 8008 7997 7996 7995 ] final -147.81 input   59.86 | X-H torsion
[ 10167 10162 10161 10158 ] final  -70.31 input  -65.29 | X-H torsion
[ 10718 10713 10712 10709 ] final  151.95 input   66.30 | X-H torsion
[ 10763 10752 10751 10750 ] final  174.22 input  -60.55 | X-H torsion
[ 11005 11000 10999 10996 ] final  143.94 input  -57.11 | X-H torsion

> <Gold.Protein.ActiveResidues>
 VAL166  LYS551  ARG553  GLY616  TRP617  ASP618  TYR619  PRO620  LYS621  CYS622 
 ASP623  PHE694  ASN695  SER759  ASP760  ASP761  ALA762  ILE779  LEU786  VAL792 
 PHE793  MET794  SER795  GLU796  ALA797  LYS798  CYS799  TRP800  GLU811  SER814 

> <Gold.Protein.RotatedAtoms>
  152.3736  133.6451  159.6105 H   0  0  0  0  0  0  0  0  0  0  0  0  # atno 6907 bound_to 6896
  150.7687  133.9230  159.3412 H   0  0  0  0  0  0  0  0  0  0  0  0  # atno 6908 bound_to 6896
  151.7048  135.0925  160.0308 H   0  0  0  0  0  0  0  0  0  0  0  0  # atno 6909 bound_to 6896
  145.9284  140.7772  142.9612 H   0  0  0  0  0  0  0  0  0  0  0  0  # atno 7974 bound_to 7965
  155.5815  140.0644  157.2782 H   0  0  0  0  0  0  0  0  0  0  0  0  # atno 8008 bound_to 7997
  154.4331  140.1851  156.1028 H   0  0  0  0  0  0  0  0  0  0  0  0  # atno 8009 bound_to 7997
  156.0301  140.3307  155.7134 H   0  0  0  0  0  0  0  0  0  0  0  0  # atno 8010 bound_to 7997
  140.5362  143.2318  151.7172 H   0  0  0  0  0  0  0  0  0  0  0  0  # atno 10167 bound_to 10162
  157.2640  131.0804  151.1646 H   0  0  0  0  0  0  0  0  0  0  0  0  # atno 10718 bound_to 10713
  154.4509  135.2764  155.1782 H   0  0  0  0  0  0  0  0  0  0  0  0  # atno 10763 bound_to 10752
  154.3609  135.6129  153.5694 H   0  0  0  0  0  0  0  0  0  0  0  0  # atno 10764 bound_to 10752
  152.9847  135.5834  154.4853 H   0  0  0  0  0  0  0  0  0  0  0  0  # atno 10765 bound_to 10752
  140.0593  134.9213  157.1155 H   0  0  0  0  0  0  0  0  0  0  0  0  # atno 11005 bound_to 11000
  144.6761  140.2087  143.7379 LP  0  0  0  0  0  0  0  0  0  0  0  0  # atno 17320 bound_to 7965
  145.8459  139.2152  143.1800 LP  0  0  0  0  0  0  0  0  0  0  0  0  # atno 17321 bound_to 7965
  139.4972  144.4039  152.0152 LP  0  0  0  0  0  0  0  0  0  0  0  0  # atno 17342 bound_to 10162
  140.3144  144.3500  150.6025 LP  0  0  0  0  0  0  0  0  0  0  0  0  # atno 17343 bound_to 10162
  157.3144  130.6906  149.6233 LP  0  0  0  0  0  0  0  0  0  0  0  0  # atno 17370 bound_to 10713
  155.9663  130.4354  150.5090 LP  0  0  0  0  0  0  0  0  0  0  0  0  # atno 17371 bound_to 10713
  140.3795  134.2302  155.7172 LP  0  0  0  0  0  0  0  0  0  0  0  0  # atno 17394 bound_to 11000
  141.1966  133.8079  157.0665 LP  0  0  0  0  0  0  0  0  0  0  0  0  # atno 17395 bound_to 11000

$$$$
