AV-unprocessed.smi:658|AV-procd|sdf|3235|dock7
  -GOLD-   22720 0183D 1   1.00000     0.00000
 Structure written by MMmdl.
 37 37  0  0  0  0  0  0  0  0  3 V2000
  145.3994  133.4947  153.6601 C   0  0  0  0  0  0  0  0  0  0  0  0
  146.1758  134.6389  152.9835 C   0  0  1  0  0  0  0  0  0  0  0  0
  147.5995  134.2523  152.8717 N   0  3  0  0  0  0  0  0  0  0  0  0
  148.2338  133.8422  154.1408 C   0  0  0  0  0  0  0  0  0  0  0  0
  149.7388  133.6194  153.9566 C   0  0  0  0  0  0  0  0  0  0  0  0
  150.3612  132.8132  155.1084 C   0  0  0  0  0  0  0  0  0  0  0  0
  151.3159  133.8897  156.2608 S   0  0  0  0  0  0  0  0  0  0  0  0
  150.2589  134.0488  157.4693 N   0  5  0  0  0  0  0  0  0  0  0  0
  152.5074  133.1219  156.6546 O   0  0  0  0  0  0  0  0  0  0  0  0
  151.5224  135.1557  155.5425 O   0  0  0  0  0  0  0  0  0  0  0  0
  145.6106  135.0182  151.5884 C   0  0  2  0  0  0  0  0  0  0  0  0
  144.2809  135.7925  151.6732 C   0  0  0  0  0  0  0  0  0  0  0  0
  145.4538  133.8524  150.7280 N   0  0  0  0  0  0  0  0  0  0  0  0
  144.3042  133.3780  150.1296 C   0  0  0  0  0  0  0  0  0  0  0  0
  144.6444  132.2645  149.4163 C   0  0  0  0  0  0  0  0  0  0  0  0
  146.0420  132.1300  149.6453 C   0  0  0  0  0  0  0  0  0  0  0  0
  146.5232  133.0799  150.4305 N   0  0  0  0  0  0  0  0  0  0  0  0
  144.3634  133.7695  153.8593 H   0  0  0  0  0  0  0  0  0  0  0  0
  145.8475  133.2315  154.6187 H   0  0  0  0  0  0  0  0  0  0  0  0
  145.3927  132.5989  153.0382 H   0  0  0  0  0  0  0  0  0  0  0  0
  146.0948  135.5100  153.6366 H   0  0  0  0  0  0  0  0  0  0  0  0
  147.6777  133.4877  152.2166 H   0  0  0  0  0  0  0  0  0  0  0  0
  148.0608  134.5988  154.9076 H   0  0  0  0  0  0  0  0  0  0  0  0
  147.7627  132.9211  154.4860 H   0  0  0  0  0  0  0  0  0  0  0  0
  149.9016  133.0837  153.0208 H   0  0  0  0  0  0  0  0  0  0  0  0
  150.2430  134.5806  153.8494 H   0  0  0  0  0  0  0  0  0  0  0  0
  149.5809  132.3312  155.6967 H   0  0  0  0  0  0  0  0  0  0  0  0
  151.0255  132.0295  154.7433 H   0  0  0  0  0  0  0  0  0  0  0  0
  149.4989  133.3742  157.3211 H   0  0  0  0  0  0  0  0  0  0  0  0
  146.3370  135.6693  151.0992 H   0  0  0  0  0  0  0  0  0  0  0  0
  144.4024  136.7437  152.1915 H   0  0  0  0  0  0  0  0  0  0  0  0
  143.5180  135.2217  152.2038 H   0  0  0  0  0  0  0  0  0  0  0  0
  143.8951  136.0158  150.6777 H   0  0  0  0  0  0  0  0  0  0  0  0
  143.3494  133.8665  150.2572 H   0  0  0  0  0  0  0  0  0  0  0  0
  143.9939  131.6399  148.8222 H   0  0  0  0  0  0  0  0  0  0  0  0
  146.7165  131.3761  149.2669 H   0  0  0  0  0  0  0  0  0  0  0  0
  148.1127  135.0407  152.5037 H   0  0  0  0  0  0  0  0  0  0  0  0
  1  2  1  0  0  0  0
  1 18  1  0  0  0  0
  1 19  1  0  0  0  0
  1 20  1  0  0  0  0
  2  3  1  0  0  0  0
  2 11  1  0  0  0  0
  2 21  1  0  0  0  0
  3  4  1  0  0  0  0
  3 22  1  0  0  0  0
  3 37  1  0  0  0  0
  4  5  1  0  0  0  0
  4 23  1  0  0  0  0
  4 24  1  0  0  0  0
  5  6  1  0  0  0  0
  5 25  1  0  0  0  0
  5 26  1  0  0  0  0
  6  7  1  0  0  0  0
  6 27  1  0  0  0  0
  6 28  1  0  0  0  0
  7  8  1  0  0  0  0
  7  9  2  0  0  0  0
  7 10  2  0  0  0  0
  8 29  1  0  0  0  0
 11 12  1  0  0  0  0
 11 13  1  0  0  0  0
 11 30  1  0  0  0  0
 12 31  1  0  0  0  0
 12 32  1  0  0  0  0
 12 33  1  0  0  0  0
 13 17  1  0  0  0  0
 13 14  1  0  0  0  0
 14 15  2  0  0  0  0
 14 34  1  0  0  0  0
 15 16  1  0  0  0  0
 15 35  1  0  0  0  0
 16 17  2  0  0  0  0
 16 36  1  0  0  0  0
M  CHG  1   3   1
M  CHG  1   8  -1
M  END
> <s_m_source_file>
AV-unprocessed.smi

> <i_m_source_file_index>
658

> <i_lp_mmshare_version>
43012

> <i_f3d_flags>
0

> <s_epik_input>
bjFbY0hdW2NIXVtjSF1uMVtDQEBIXShbQ0gzXSlbQ0BIXShbQ0gzXSlbTkhdW0NIMl1bQ0gyXVtDSDJdUyg9TykoPU8pW05IMl0=

> <s_epik_cmdline>
J2VwaWtfcHl0aG9uJywgJy1waCcsICc3LjAnLCAnLXRuJywgJzgnLCAnLW1hJywgJzIwMCcsICctbWV0YWxfYmluZGluZycsICctaW1hZScsICc8aW5maWxlLm1hZT4nLCAnLW9tYWUnLCAnPG91dGZpbGUubWFlPic=

> <r_lp_tautomer_probability>
1

> <r_epik_Ionization_Penalty>
4.63642

> <r_epik_Ionization_Penalty_Charging>
4.63641

> <r_epik_Ionization_Penalty_Neutral>
1.08396e-05

> <r_epik_State_Penalty>
4.63466

> <r_epik_Charging_Adjusted_Penalty>
9.27106

> <i_epik_Tot_Q>
0

> <i_epik_Tot_abs_Q>
2

> <r_epik_Metal_State_Penalty>
0.890424

> <b_epik_Metal_Only>
1

> <s_lp_Force_Field>
OPLS_2005

> <r_lp_Energy>
-2.21025

> <b_lp_Chiralities_Consistent>
1

> <s_lp_Variant>
AV-unprocessed.smi:658-6

> <Gold.Version>
5.8.1

> <Gold.Id.Protein>
6NUR|6NUR_protein|mol2

> <Gold.PLP.Fitness>
48.0691

> <Gold.PLP.PLP>
-28.9827

> <Gold.PLP.part.hbond>
-3.8342

> <Gold.PLP.part.metal>
0.0000

> <Gold.PLP.part.buried>
-3.8936

> <Gold.PLP.part.nonpolar>
-23.0050

> <Gold.PLP.part.repulsive>
0.2710

> <Gold.PLP.ligand.clash>
0.0000

> <Gold.PLP.ligand.torsion>
0.9707

> <Gold.PLP.Chemscore.Hbond>
4.9840

> <Gold.PLP.Chemscore.CHOScore>
1.9635

> <Gold.PLP.Chemscore.Metal>
0.0000

> <Gold.Chemscore.Hbonds>
donor molecule, donor type, donor heavy atom, donor atom, acceptor molecule, acceptor atom, score
      L1  H     3    37       P1  7948  2.00
      P1  H  6896  6909       L1     8  1.57
      P1  H 10752 10764       L1    10  0.94
      L1  C    14    34       P1 10186  1.00
      L1  C    16    36       P1 10747  0.91

> <Gold.PLP.Chemscore.Internal.Correction>
0.1853

> <Gold.Rescore>
     Score         DG    S(hbond)    S(metal)    S(lipo)     H(rot)  DE(clash)    DE(int)     intcor
     12.06     -14.25       2.76        0.00      62.64       3.04       0.03       2.17       ----

> <Gold.Chemscore.Fitness>
12.0577

> <Gold.Chemscore.DG>
-14.2550

> <Gold.Chemscore.ZeroCoef>
-5.4800

> <Gold.Chemscore.Hbond>
2.7636

> <Gold.Chemscore.Metal>
0.0000

> <Gold.Chemscore.Lipo>
62.6438

> <Gold.Chemscore.Internal_Hbond>
0.0000

> <Gold.Chemscore.DEClash>
0.0270

> <Gold.Chemscore.DEInternal>
2.1703

> <Gold.Chemscore.Rot>
3.0409

> <Gold.Chemscore.Internal.Correction>
   9.000000E+99

> <Gold.Chemscore.Hbonds>
donor molecule, donor type, donor heavy atom, donor atom, acceptor molecule, acceptor atom, score
      L1  H     3    37       P1  7948  0.79
      P1  H  6896  6909       L1     8  0.51
      P1  H 10752 10764       L1    10  0.86

> <Gold.Chemscore.Hbond.Weighted>
-9.2304

> <Gold.Chemscore.Metal.Weighted>
-0.0000

> <Gold.Chemscore.Lipo.Weighted>
-7.3293

> <Gold.Chemscore.Internal_Hbond.Weighted>
0.0000

> <Gold.Chemscore.DEClash.Weighted>
0.0270

> <Gold.Chemscore.DEInternal.Weighted>
2.1703

> <Gold.Chemscore.Rot.Weighted>
7.7848

> <Gold.Chemscore.Internal.Correction.Weighted>
   9.000000E+99

> <Gold.Protein.RotatedTorsions>
[ 6907 6896 6895 6894 ] final   15.13 input  -60.11 | X-H torsion
[ 7974 7965 7964 7962 ] final  -71.75 input  175.53 | X-H torsion
[ 8008 7997 7996 7995 ] final   26.24 input   59.86 | X-H torsion
[ 10167 10162 10161 10158 ] final  153.68 input  -65.29 | X-H torsion
[ 10718 10713 10712 10709 ] final   80.32 input   66.30 | X-H torsion
[ 10763 10752 10751 10750 ] final  -35.89 input  -60.55 | X-H torsion
[ 11005 11000 10999 10996 ] final  168.54 input  -57.11 | X-H torsion

> <Gold.Protein.ActiveResidues>
 VAL166  LYS551  ARG553  GLY616  TRP617  ASP618  TYR619  PRO620  LYS621  CYS622 
 ASP623  PHE694  ASN695  SER759  ASP760  ASP761  ALA762  ILE779  LEU786  VAL792 
 PHE793  MET794  SER795  GLU796  ALA797  LYS798  CYS799  TRP800  GLU811  SER814 

> <Gold.Protein.RotatedAtoms>
  151.8133  135.0674  160.0415 H   0  0  0  0  0  0  0  0  0  0  0  0  # atno 6907 bound_to 6896
  152.3005  133.5646  159.5623 H   0  0  0  0  0  0  0  0  0  0  0  0  # atno 6908 bound_to 6896
  150.7271  134.0215  159.3745 H   0  0  0  0  0  0  0  0  0  0  0  0  # atno 6909 bound_to 6896
  145.6740  140.9211  143.0868 H   0  0  0  0  0  0  0  0  0  0  0  0  # atno 7974 bound_to 7965
  155.0241  140.3151  155.4782 H   0  0  0  0  0  0  0  0  0  0  0  0  # atno 8008 bound_to 7997
  156.2886  140.2192  156.5303 H   0  0  0  0  0  0  0  0  0  0  0  0  # atno 8009 bound_to 7997
  154.7426  140.0472  157.0812 H   0  0  0  0  0  0  0  0  0  0  0  0  # atno 8010 bound_to 7997
  139.4826  144.5252  151.7812 H   0  0  0  0  0  0  0  0  0  0  0  0  # atno 10167 bound_to 10162
  157.6803  130.9954  150.2062 H   0  0  0  0  0  0  0  0  0  0  0  0  # atno 10718 bound_to 10713
  153.8707  135.6831  153.4774 H   0  0  0  0  0  0  0  0  0  0  0  0  # atno 10763 bound_to 10752
  153.1289  135.4707  154.9314 H   0  0  0  0  0  0  0  0  0  0  0  0  # atno 10764 bound_to 10752
  154.7715  135.3240  154.8130 H   0  0  0  0  0  0  0  0  0  0  0  0  # atno 10765 bound_to 10752
  140.2883  134.7694  157.3817 H   0  0  0  0  0  0  0  0  0  0  0  0  # atno 11005 bound_to 11000
  144.7047  139.8609  143.7433 LP  0  0  0  0  0  0  0  0  0  0  0  0  # atno 17320 bound_to 7965
  146.1021  139.4017  143.0340 LP  0  0  0  0  0  0  0  0  0  0  0  0  # atno 17321 bound_to 7965
  140.4771  144.1503  150.5926 LP  0  0  0  0  0  0  0  0  0  0  0  0  # atno 17342 bound_to 10162
  140.4319  143.2564  151.9585 LP  0  0  0  0  0  0  0  0  0  0  0  0  # atno 17343 bound_to 10162
  156.2743  130.3725  149.8000 LP  0  0  0  0  0  0  0  0  0  0  0  0  # atno 17370 bound_to 10713
  156.5707  130.8423  151.3356 LP  0  0  0  0  0  0  0  0  0  0  0  0  # atno 17371 bound_to 10713
  140.1219  134.5209  155.8177 LP  0  0  0  0  0  0  0  0  0  0  0  0  # atno 17394 bound_to 11000
  141.2151  133.6759  156.6881 LP  0  0  0  0  0  0  0  0  0  0  0  0  # atno 17395 bound_to 11000

$$$$
