AV-unprocessed.smi:790|AV-procd|sdf|3746|dock9
  -GOLD-   22720 1173D 1   1.00000     0.00000
 Structure written by MMmdl.
 38 40  0  0  0  0  0  0  0  0  1 V2000
  145.9453  138.9811  154.3516 O   0  0  0  0  0  0  0  0  0  0  0  0
  146.7410  138.1861  153.8526 C   0  0  0  0  0  0  0  0  0  0  0  0
  148.0740  138.3464  153.7977 N   0  0  0  0  0  0  0  0  0  0  0  0
  148.8616  139.4228  154.2885 C   0  0  0  0  0  0  0  0  0  0  0  0
  148.3377  140.5735  154.9266 C   0  0  0  0  0  0  0  0  0  0  0  0
  149.2303  141.5620  155.3842 C   0  0  0  0  0  0  0  0  0  0  0  0
  150.6111  141.3629  155.1929 C   0  0  0  0  0  0  0  0  0  0  0  0
  151.1248  140.2662  154.5976 N   0  0  0  0  0  0  0  0  0  0  0  0
  150.2634  139.3223  154.1627 C   0  0  0  0  0  0  0  0  0  0  0  0
  146.3693  137.0422  153.2611 N   0  0  0  0  0  0  0  0  0  0  0  0
  144.9934  136.5587  153.1406 C   0  0  2  0  0  0  0  0  0  0  0  0
  144.7634  135.3659  154.0932 C   0  0  1  0  0  0  0  0  0  0  0  0
  143.2498  135.1276  154.2438 C   0  0  0  0  0  0  0  0  0  0  0  0
  142.8671  134.5382  152.8727 C   0  0  0  0  0  0  0  0  0  0  0  0
  144.2122  134.5184  152.1192 C   0  0  2  0  0  0  0  0  0  0  0  0
  145.1821  134.1732  153.2419 C   0  0  0  0  0  0  0  0  0  0  0  0
  144.6159  135.9669  151.7480 C   0  0  2  0  0  0  0  0  0  0  0  0
  145.7078  136.0361  150.6555 C   0  0  0  0  0  0  0  0  0  0  0  0
  146.2205  137.3475  150.5517 O   0  0  0  0  0  0  0  0  0  0  0  0
  148.5837  137.6374  153.2911 H   0  0  0  0  0  0  0  0  0  0  0  0
  147.2804  140.7134  155.0872 H   0  0  0  0  0  0  0  0  0  0  0  0
  148.8641  142.4515  155.8753 H   0  0  0  0  0  0  0  0  0  0  0  0
  151.3223  142.1014  155.5320 H   0  0  0  0  0  0  0  0  0  0  0  0
  150.7102  138.4573  153.6945 H   0  0  0  0  0  0  0  0  0  0  0  0
  147.0904  136.4540  152.8697 H   0  0  0  0  0  0  0  0  0  0  0  0
  144.3124  137.3705  153.4036 H   0  0  0  0  0  0  0  0  0  0  0  0
  145.2800  135.4542  155.0499 H   0  0  0  0  0  0  0  0  0  0  0  0
  143.0467  134.4094  155.0393 H   0  0  0  0  0  0  0  0  0  0  0  0
  142.7030  136.0431  154.4726 H   0  0  0  0  0  0  0  0  0  0  0  0
  142.4742  133.5275  152.9890 H   0  0  0  0  0  0  0  0  0  0  0  0
  142.1102  135.1318  152.3592 H   0  0  0  0  0  0  0  0  0  0  0  0
  144.2189  133.8229  151.2795 H   0  0  0  0  0  0  0  0  0  0  0  0
  146.2299  134.2002  152.9396 H   0  0  0  0  0  0  0  0  0  0  0  0
  144.9738  133.2107  153.7128 H   0  0  0  0  0  0  0  0  0  0  0  0
  143.7440  136.5009  151.3667 H   0  0  0  0  0  0  0  0  0  0  0  0
  146.5407  135.3780  150.9028 H   0  0  0  0  0  0  0  0  0  0  0  0
  145.3238  135.7256  149.6838 H   0  0  0  0  0  0  0  0  0  0  0  0
  145.4946  137.9475  150.4727 H   0  0  0  0  0  0  0  0  0  0  0  0
  1  2  2  0  0  0  0
  2  3  1  0  0  0  0
  2 10  1  0  0  0  0
  3  4  1  0  0  0  0
  3 20  1  0  0  0  0
  4  9  1  0  0  0  0
  4  5  2  0  0  0  0
  5  6  1  0  0  0  0
  5 21  1  0  0  0  0
  6  7  2  0  0  0  0
  6 22  1  0  0  0  0
  7  8  1  0  0  0  0
  7 23  1  0  0  0  0
  8  9  2  0  0  0  0
  9 24  1  0  0  0  0
 10 11  1  0  0  0  0
 10 25  1  0  0  0  0
 11 17  1  0  0  0  0
 11 12  1  0  0  0  0
 11 26  1  0  0  0  0
 12 16  1  0  0  0  0
 12 13  1  0  0  0  0
 12 27  1  0  0  0  0
 13 14  1  0  0  0  0
 13 28  1  0  0  0  0
 13 29  1  0  0  0  0
 14 15  1  0  0  0  0
 14 30  1  0  0  0  0
 14 31  1  0  0  0  0
 15 16  1  0  0  0  0
 15 17  1  0  0  0  0
 15 32  1  0  0  0  0
 16 33  1  0  0  0  0
 16 34  1  0  0  0  0
 17 18  1  0  0  0  0
 17 35  1  0  0  0  0
 18 19  1  0  0  0  0
 18 36  1  0  0  0  0
 18 37  1  0  0  0  0
 19 38  1  0  0  0  0
M  END
> <s_m_source_file>
AV-unprocessed.smi

> <i_m_source_file_index>
790

> <i_lp_mmshare_version>
43012

> <i_f3d_flags>
0

> <s_epik_input>
W0NIMl0xW0NIMl1bQ0BASF0oW0NIMl0yKVtDQEBIXShbQ0gyXVtPSF0pW0NAQEhdKFtDQEhdMTIpW05IXUMoPU8pW05IXWMzW2NIXVtjSF1bY0hdbltjSF0z

> <s_epik_cmdline>
J2VwaWtfcHl0aG9uJywgJy1waCcsICc3LjAnLCAnLXRuJywgJzgnLCAnLW1hJywgJzIwMCcsICctbWV0YWxfYmluZGluZycsICctaW1hZScsICc8aW5maWxlLm1hZT4nLCAnLW9tYWUnLCAnPG91dGZpbGUubWFlPic=

> <r_epik_Ionization_Penalty>
0.00497582

> <r_epik_Ionization_Penalty_Charging>
0

> <r_epik_Ionization_Penalty_Neutral>
0.00497582

> <r_epik_State_Penalty>
0.00358602

> <r_epik_Charging_Adjusted_Penalty>
0.00358602

> <i_epik_Tot_Q>
0

> <i_epik_Tot_abs_Q>
0

> <r_epik_Metal_State_Penalty>
-0

> <b_epik_Metal_Only>
0

> <s_lp_Force_Field>
OPLS_2005

> <r_lp_Energy>
52.0711

> <b_lp_Chiralities_Consistent>
1

> <s_lp_Variant>
AV-unprocessed.smi:790-7

> <Gold.Version>
5.8.1

> <Gold.Id.Protein>
6NUR|6NUR_protein|mol2

> <Gold.PLP.Fitness>
42.0895

> <Gold.PLP.PLP>
-27.9469

> <Gold.PLP.part.hbond>
-5.6645

> <Gold.PLP.part.metal>
0.0000

> <Gold.PLP.part.buried>
-2.6836

> <Gold.PLP.part.nonpolar>
-18.5503

> <Gold.PLP.part.repulsive>
0.1657

> <Gold.PLP.ligand.clash>
0.0000

> <Gold.PLP.ligand.torsion>
0.2386

> <Gold.PLP.Chemscore.Hbond>
4.8693

> <Gold.PLP.Chemscore.CHOScore>
0.0000

> <Gold.PLP.Chemscore.Metal>
0.0000

> <Gold.Chemscore.Hbonds>
donor molecule, donor type, donor heavy atom, donor atom, acceptor molecule, acceptor atom, score
      L1  H     3    20       P1  7948  1.00
      L1  H    10    25       P1  7948  0.76
      L1  H    19    38       P1 10171  1.00
      P1  H  7954  7966       L1    19  0.74
      P1  H  7989  7998       L1     8  0.50

> <Gold.PLP.Chemscore.Internal.Correction>
0.0121

> <Gold.Rescore>
     Score         DG    S(hbond)    S(metal)    S(lipo)     H(rot)  DE(clash)    DE(int)     intcor
     18.26     -21.13       3.71        0.00      66.79       1.78       0.15       2.71       ----

> <Gold.Chemscore.Fitness>
18.2576

> <Gold.Chemscore.DG>
-21.1256

> <Gold.Chemscore.ZeroCoef>
-5.4800

> <Gold.Chemscore.Hbond>
3.7076

> <Gold.Chemscore.Metal>
0.0000

> <Gold.Chemscore.Lipo>
66.7934

> <Gold.Chemscore.Internal_Hbond>
0.0000

> <Gold.Chemscore.DEClash>
0.1543

> <Gold.Chemscore.DEInternal>
2.7137

> <Gold.Chemscore.Rot>
1.7783

> <Gold.Chemscore.Internal.Correction>
   9.000000E+99

> <Gold.Chemscore.Hbonds>
donor molecule, donor type, donor heavy atom, donor atom, acceptor molecule, acceptor atom, score
      L1  H     3    20       P1  7948  0.93
      L1  H    10    25       P1  7948  0.73
      L1  H    19    38       P1 10171  0.98
      P1  H  7954  7966       L1    19  0.70
      P1  H  7989  7998       L1     8  0.06

> <Gold.Chemscore.Hbond.Weighted>
-12.3833

> <Gold.Chemscore.Metal.Weighted>
-0.0000

> <Gold.Chemscore.Lipo.Weighted>
-7.8148

> <Gold.Chemscore.Internal_Hbond.Weighted>
0.0000

> <Gold.Chemscore.DEClash.Weighted>
0.1543

> <Gold.Chemscore.DEInternal.Weighted>
2.7137

> <Gold.Chemscore.Rot.Weighted>
4.5525

> <Gold.Chemscore.Internal.Correction.Weighted>
   9.000000E+99

> <Gold.Protein.RotatedTorsions>
[ 6907 6896 6895 6894 ] final   97.92 input  -60.11 | X-H torsion
[ 7974 7965 7964 7962 ] final  -89.83 input  175.53 | X-H torsion
[ 8008 7997 7996 7995 ] final -100.53 input   59.86 | X-H torsion
[ 10167 10162 10161 10158 ] final -121.95 input  -65.29 | X-H torsion
[ 10718 10713 10712 10709 ] final   24.37 input   66.30 | X-H torsion
[ 10763 10752 10751 10750 ] final -149.97 input  -60.55 | X-H torsion
[ 11005 11000 10999 10996 ] final -143.91 input  -57.11 | X-H torsion

> <Gold.Protein.ActiveResidues>
 VAL166  LYS551  ARG553  GLY616  TRP617  ASP618  TYR619  PRO620  LYS621  CYS622 
 ASP623  PHE694  ASN695  SER759  ASP760  ASP761  ALA762  ILE779  LEU786  VAL792 
 PHE793  MET794  SER795  GLU796  ALA797  LYS798  CYS799  TRP800  GLU811  SER814 

> <Gold.Protein.RotatedAtoms>
  152.5417  134.0659  159.8172 H   0  0  0  0  0  0  0  0  0  0  0  0  # atno 6907 bound_to 6896
  151.0780  133.5405  159.2630 H   0  0  0  0  0  0  0  0  0  0  0  0  # atno 6908 bound_to 6896
  151.2243  135.0539  159.9016 H   0  0  0  0  0  0  0  0  0  0  0  0  # atno 6909 bound_to 6896
  145.4346  140.9557  143.2109 H   0  0  0  0  0  0  0  0  0  0  0  0  # atno 7974 bound_to 7965
  154.8299  140.0440  157.1470 H   0  0  0  0  0  0  0  0  0  0  0  0  # atno 8008 bound_to 7997
  154.9164  140.3020  155.5219 H   0  0  0  0  0  0  0  0  0  0  0  0  # atno 8009 bound_to 7997
  156.2986  140.2349  156.4209 H   0  0  0  0  0  0  0  0  0  0  0  0  # atno 8010 bound_to 7997
  140.0195  143.5359  152.2227 H   0  0  0  0  0  0  0  0  0  0  0  0  # atno 10167 bound_to 10162
  157.1789  130.6793  149.6105 H   0  0  0  0  0  0  0  0  0  0  0  0  # atno 10718 bound_to 10713
  154.8146  135.3296  154.7211 H   0  0  0  0  0  0  0  0  0  0  0  0  # atno 10763 bound_to 10752
  153.7854  135.6915  153.4885 H   0  0  0  0  0  0  0  0  0  0  0  0  # atno 10764 bound_to 10752
  153.1952  135.4536  155.0146 H   0  0  0  0  0  0  0  0  0  0  0  0  # atno 10765 bound_to 10752
  140.8077  134.2781  157.4953 H   0  0  0  0  0  0  0  0  0  0  0  0  # atno 11005 bound_to 11000
  144.8160  139.5875  143.7008 LP  0  0  0  0  0  0  0  0  0  0  0  0  # atno 17320 bound_to 7965
  146.2589  139.6364  142.9376 LP  0  0  0  0  0  0  0  0  0  0  0  0  # atno 17321 bound_to 7965
  139.6149  144.7617  151.2868 LP  0  0  0  0  0  0  0  0  0  0  0  0  # atno 17342 bound_to 10162
  140.7348  143.6755  150.8045 LP  0  0  0  0  0  0  0  0  0  0  0  0  # atno 17343 bound_to 10162
  155.9727  130.4653  150.6250 LP  0  0  0  0  0  0  0  0  0  0  0  0  # atno 17370 bound_to 10713
  157.3972  131.0804  151.1341 LP  0  0  0  0  0  0  0  0  0  0  0  0  # atno 17371 bound_to 10713
  139.8716  134.9466  156.3942 LP  0  0  0  0  0  0  0  0  0  0  0  0  # atno 17394 bound_to 11000
  140.9229  133.7632  155.9929 LP  0  0  0  0  0  0  0  0  0  0  0  0  # atno 17395 bound_to 11000

$$$$
