AV-unprocessed.smi:40|AV-procd|sdf|380|dock8
  -GOLD-   2262016233D 1   1.00000     0.00000
 Structure written by MMmdl.
 47 48  0  0  0  0  0  0  0  0  1 V2000
  149.8950  144.8285  160.0000 C   0  0  0  0  0  0  0  0  0  0  0  0
  151.3132  145.3394  159.7239 C   0  0  0  0  0  0  0  0  0  0  0  0
  152.2223  144.2548  159.1301 C   0  0  0  0  0  0  0  0  0  0  0  0
  152.4188  143.0614  160.0792 C   0  0  0  0  0  0  0  0  0  0  0  0
  153.4422  142.0420  159.5607 C   0  0  0  0  0  0  0  0  0  0  0  0
  153.8499  141.2062  160.6308 O   0  0  0  0  0  0  0  0  0  0  0  0
  154.3608  139.9855  160.3922 C   0  0  0  0  0  0  0  0  0  0  0  0
  154.8436  139.6401  159.3140 O   0  0  0  0  0  0  0  0  0  0  0  0
  154.3021  139.1410  161.5749 N   0  0  0  0  0  0  0  0  0  0  0  0
  154.7134  137.8582  161.7348 C   0  0  0  0  0  0  0  0  0  0  0  0
  154.6650  136.9637  160.7619 N   0  0  0  0  0  0  0  0  0  0  0  0
  155.0835  135.6659  160.8822 C   0  0  0  0  0  0  0  0  0  0  0  0
  154.9135  134.8875  159.9457 O   0  0  0  0  0  0  0  0  0  0  0  0
  155.6903  135.2818  162.1100 N   0  0  0  0  0  0  0  0  0  0  0  0
  156.1293  133.8381  162.3588 C   0  0  1  0  0  0  0  0  0  0  0  0
  156.1774  133.5806  163.7351 O   0  0  0  0  0  0  0  0  0  0  0  0
  154.9638  132.9899  164.1694 C   0  0  2  0  0  0  0  0  0  0  0  0
  155.0871  132.4066  165.5848 C   0  0  0  0  0  0  0  0  0  0  0  0
  154.6889  131.9997  163.0402 C   0  0  2  0  0  0  0  0  0  0  0  0
  155.4691  130.8256  163.1993 O   0  0  0  0  0  0  0  0  0  0  0  0
  155.0890  132.8182  161.8128 C   0  0  2  0  0  0  0  0  0  0  0  0
  155.5875  132.0145  160.7594 O   0  0  0  0  0  0  0  0  0  0  0  0
  155.6918  136.1962  163.1580 C   0  0  0  0  0  0  0  0  0  0  0  0
  155.2519  137.4650  163.0164 C   0  0  0  0  0  0  0  0  0  0  0  0
  155.3018  138.3281  164.0460 F   0  0  0  0  0  0  0  0  0  0  0  0
  157.1207  133.7671  161.9096 H   0  0  0  0  0  0  0  0  0  0  0  0
  154.1904  133.7606  164.1690 H   0  0  0  0  0  0  0  0  0  0  0  0
  153.6386  131.7080  163.0050 H   0  0  0  0  0  0  0  0  0  0  0  0
  154.1893  133.3308  161.4743 H   0  0  0  0  0  0  0  0  0  0  0  0
  149.2730  145.6176  160.4230 H   0  0  0  0  0  0  0  0  0  0  0  0
  149.9069  143.9989  160.7079 H   0  0  0  0  0  0  0  0  0  0  0  0
  149.4160  144.4818  159.0841 H   0  0  0  0  0  0  0  0  0  0  0  0
  151.2645  146.1908  159.0441 H   0  0  0  0  0  0  0  0  0  0  0  0
  151.7462  145.7103  160.6538 H   0  0  0  0  0  0  0  0  0  0  0  0
  151.7905  143.9085  158.1908 H   0  0  0  0  0  0  0  0  0  0  0  0
  153.1923  144.6864  158.8813 H   0  0  0  0  0  0  0  0  0  0  0  0
  152.7476  143.4275  161.0521 H   0  0  0  0  0  0  0  0  0  0  0  0
  151.4644  142.5610  160.2466 H   0  0  0  0  0  0  0  0  0  0  0  0
  153.0105  141.4393  158.7607 H   0  0  0  0  0  0  0  0  0  0  0  0
  154.3077  142.5640  159.1498 H   0  0  0  0  0  0  0  0  0  0  0  0
  153.8824  139.5872  162.3775 H   0  0  0  0  0  0  0  0  0  0  0  0
  154.1702  131.8948  165.8780 H   0  0  0  0  0  0  0  0  0  0  0  0
  155.2728  133.1982  166.3109 H   0  0  0  0  0  0  0  0  0  0  0  0
  155.9098  131.6954  165.6600 H   0  0  0  0  0  0  0  0  0  0  0  0
  155.2593  130.4409  164.0367 H   0  0  0  0  0  0  0  0  0  0  0  0
  156.3517  131.5525  161.0684 H   0  0  0  0  0  0  0  0  0  0  0  0
  156.0458  135.9052  164.1357 H   0  0  0  0  0  0  0  0  0  0  0  0
  1  2  1  0  0  0  0
  1 30  1  0  0  0  0
  1 31  1  0  0  0  0
  1 32  1  0  0  0  0
  2  3  1  0  0  0  0
  2 33  1  0  0  0  0
  2 34  1  0  0  0  0
  3  4  1  0  0  0  0
  3 35  1  0  0  0  0
  3 36  1  0  0  0  0
  4  5  1  0  0  0  0
  4 37  1  0  0  0  0
  4 38  1  0  0  0  0
  5  6  1  0  0  0  0
  5 39  1  0  0  0  0
  5 40  1  0  0  0  0
  6  7  1  0  0  0  0
  7  8  2  0  0  0  0
  7  9  1  0  0  0  0
  9 10  1  0  0  0  0
  9 41  1  0  0  0  0
 10 24  1  0  0  0  0
 10 11  2  0  0  0  0
 11 12  1  0  0  0  0
 12 13  2  0  0  0  0
 12 14  1  0  0  0  0
 14 15  1  0  0  0  0
 14 23  1  0  0  0  0
 15 26  1  0  0  0  0
 15 21  1  0  0  0  0
 15 16  1  0  0  0  0
 16 17  1  0  0  0  0
 17 27  1  0  0  0  0
 17 18  1  0  0  0  0
 17 19  1  0  0  0  0
 18 42  1  0  0  0  0
 18 43  1  0  0  0  0
 18 44  1  0  0  0  0
 19 28  1  0  0  0  0
 19 20  1  0  0  0  0
 19 21  1  0  0  0  0
 20 45  1  0  0  0  0
 21 29  1  0  0  0  0
 21 22  1  0  0  0  0
 22 46  1  0  0  0  0
 23 24  2  0  0  0  0
 23 47  1  0  0  0  0
 24 25  1  0  0  0  0
M  END
> <s_m_source_file>
AV-unprocessed.smi

> <i_m_source_file_index>
40

> <i_lp_mmshare_version>
43012

> <i_f3d_flags>
0

> <s_epik_input>
W0NIM11bQ0gyXVtDSDJdW0NIMl1bQ0gyXU9DKD1PKVtOSF1jMW5jKD1PKW4oW2NIXWMxRilbQ0BASF0yT1tDQEhdKFtDSDNdKVtDQEBIXShbT0hdKVtDQEhdMltPSF0=

> <s_epik_cmdline>
J2VwaWtfcHl0aG9uJywgJy1waCcsICc3LjAnLCAnLXRuJywgJzgnLCAnLW1hJywgJzIwMCcsICctbWV0YWxfYmluZGluZycsICctaW1hZScsICc8aW5maWxlLm1hZT4nLCAnLW9tYWUnLCAnPG91dGZpbGUubWFlPic=

> <r_lp_tautomer_probability>
1

> <r_epik_Ionization_Penalty>
2.29506e-06

> <r_epik_Ionization_Penalty_Charging>
8.26867e-09

> <r_epik_Ionization_Penalty_Neutral>
2.2868e-06

> <r_epik_State_Penalty>
-0

> <r_epik_Charging_Adjusted_Penalty>
8.26867e-09

> <i_epik_Tot_Q>
0

> <i_epik_Tot_abs_Q>
0

> <r_epik_Metal_State_Penalty>
-0

> <b_epik_Metal_Only>
0

> <s_epik_Chemistry_Notes>
This compound has an ester and may undergo hydrolysis at high or low pH. This compound contains an acetal/aminal-like group ( X-CH(R)-Y where X, Y are N, S, or O) that may be acid/base labile, releasing an aldehyde.

> <s_lp_Force_Field>
OPLS_2005

> <r_lp_Energy>
41.2702

> <b_lp_Chiralities_Consistent>
1

> <s_lp_Variant>
AV-unprocessed.smi:40-14

> <Gold.Version>
5.8.1

> <Gold.Id.Protein>
6NUR|6NUR_protein|mol2

> <Gold.PLP.Fitness>
44.7384

> <Gold.PLP.PLP>
-40.8488

> <Gold.PLP.part.hbond>
-2.0000

> <Gold.PLP.part.metal>
0.0000

> <Gold.PLP.part.buried>
-5.7449

> <Gold.PLP.part.nonpolar>
-33.2509

> <Gold.PLP.part.repulsive>
0.0171

> <Gold.PLP.ligand.clash>
0.0000

> <Gold.PLP.ligand.torsion>
1.1267

> <Gold.PLP.Chemscore.Hbond>
2.0000

> <Gold.PLP.Chemscore.CHOScore>
0.0000

> <Gold.PLP.Chemscore.Metal>
0.0000

> <Gold.Chemscore.Hbonds>
donor molecule, donor type, donor heavy atom, donor atom, acceptor molecule, acceptor atom, score
      P1  H  6896  6907       L1    13  0.11
      P1  H  7997  8010       L1     8  1.00

> <Gold.PLP.Chemscore.Internal.Correction>
0.1431

> <Gold.Rescore>
     Score         DG    S(hbond)    S(metal)    S(lipo)     H(rot)  DE(clash)    DE(int)     intcor
     12.90     -13.82       1.98        0.00      95.67       3.70       0.05       0.88       ----

> <Gold.Chemscore.Fitness>
12.8991

> <Gold.Chemscore.DG>
-13.8249

> <Gold.Chemscore.ZeroCoef>
-5.4800

> <Gold.Chemscore.Hbond>
1.9798

> <Gold.Chemscore.Metal>
0.0000

> <Gold.Chemscore.Lipo>
95.6695

> <Gold.Chemscore.Internal_Hbond>
0.0000

> <Gold.Chemscore.DEClash>
0.0475

> <Gold.Chemscore.DEInternal>
0.8782

> <Gold.Chemscore.Rot>
3.6957

> <Gold.Chemscore.Internal.Correction>
   9.000000E+99

> <Gold.Chemscore.Hbonds>
donor molecule, donor type, donor heavy atom, donor atom, acceptor molecule, acceptor atom, score
      P1  H  6896  6907       L1    13  0.08
      P1  H  7997  8010       L1     8  0.93

> <Gold.Chemscore.Hbond.Weighted>
-6.6125

> <Gold.Chemscore.Metal.Weighted>
-0.0000

> <Gold.Chemscore.Lipo.Weighted>
-11.1933

> <Gold.Chemscore.Internal_Hbond.Weighted>
0.0000

> <Gold.Chemscore.DEClash.Weighted>
0.0475

> <Gold.Chemscore.DEInternal.Weighted>
0.8782

> <Gold.Chemscore.Rot.Weighted>
9.4610

> <Gold.Chemscore.Internal.Correction.Weighted>
   9.000000E+99

> <Gold.Protein.RotatedTorsions>
[ 6907 6896 6895 6894 ] final   77.50 input  -60.11 | X-H torsion
[ 7974 7965 7964 7962 ] final  -88.64 input  175.53 | X-H torsion
[ 8008 7997 7996 7995 ] final   -1.47 input   59.86 | X-H torsion
[ 10167 10162 10161 10158 ] final  -98.39 input  -65.29 | X-H torsion
[ 10718 10713 10712 10709 ] final  -58.46 input   66.30 | X-H torsion
[ 10763 10752 10751 10750 ] final  142.26 input  -60.55 | X-H torsion
[ 11005 11000 10999 10996 ] final  -47.10 input  -57.11 | X-H torsion

> <Gold.Protein.ActiveResidues>
 VAL166  LYS551  ARG553  GLY616  TRP617  ASP618  TYR619  PRO620  LYS621  CYS622 
 ASP623  PHE694  ASN695  SER759  ASP760  ASP761  ALA762  ILE779  LEU786  VAL792 
 PHE793  MET794  SER795  GLU796  ALA797  LYS798  CYS799  TRP800  GLU811  SER814 

> <Gold.Protein.RotatedAtoms>
  152.5120  134.3807  159.9350 H   0  0  0  0  0  0  0  0  0  0  0  0  # atno 6907 bound_to 6896
  151.3764  133.3830  159.2713 H   0  0  0  0  0  0  0  0  0  0  0  0  # atno 6908 bound_to 6896
  150.9538  134.8955  159.7747 H   0  0  0  0  0  0  0  0  0  0  0  0  # atno 6909 bound_to 6896
  145.4504  140.9560  143.2025 H   0  0  0  0  0  0  0  0  0  0  0  0  # atno 7974 bound_to 7965
  154.6464  140.2558  155.7263 H   0  0  0  0  0  0  0  0  0  0  0  0  # atno 8008 bound_to 7997
  156.2554  140.2877  156.0800 H   0  0  0  0  0  0  0  0  0  0  0  0  # atno 8009 bound_to 7997
  155.1517  140.0382  157.2813 H   0  0  0  0  0  0  0  0  0  0  0  0  # atno 8010 bound_to 7997
  140.2735  143.3328  152.0512 H   0  0  0  0  0  0  0  0  0  0  0  0  # atno 10167 bound_to 10162
  156.1134  130.4173  150.0580 H   0  0  0  0  0  0  0  0  0  0  0  0  # atno 10718 bound_to 10713
  153.9528  135.2968  155.3438 H   0  0  0  0  0  0  0  0  0  0  0  0  # atno 10763 bound_to 10752
  154.7417  135.5021  153.9137 H   0  0  0  0  0  0  0  0  0  0  0  0  # atno 10764 bound_to 10752
  153.0985  135.6728  153.9826 H   0  0  0  0  0  0  0  0  0  0  0  0  # atno 10765 bound_to 10752
  141.0620  133.6706  156.3250 H   0  0  0  0  0  0  0  0  0  0  0  0  # atno 11005 bound_to 11000
  144.8065  139.6042  143.7048 LP  0  0  0  0  0  0  0  0  0  0  0  0  # atno 17320 bound_to 7965
  146.2507  139.6194  142.9429 LP  0  0  0  0  0  0  0  0  0  0  0  0  # atno 17321 bound_to 7965
  139.4982  144.6640  151.6398 LP  0  0  0  0  0  0  0  0  0  0  0  0  # atno 17342 bound_to 10162
  140.5870  143.9846  150.6302 LP  0  0  0  0  0  0  0  0  0  0  0  0  # atno 17343 bound_to 10162
  156.8537  130.9468  151.3623 LP  0  0  0  0  0  0  0  0  0  0  0  0  # atno 17370 bound_to 10713
  157.6316  130.8734  149.9284 LP  0  0  0  0  0  0  0  0  0  0  0  0  # atno 17371 bound_to 10713
  140.5849  134.5708  157.5487 LP  0  0  0  0  0  0  0  0  0  0  0  0  # atno 17394 bound_to 11000
  139.9441  134.7733  156.0605 LP  0  0  0  0  0  0  0  0  0  0  0  0  # atno 17395 bound_to 11000

$$$$
