AV-unprocessed.smi:3148|AV-procd|sdf|11995|dock5
  -GOLD-   2272017403D 1   1.00000     0.00000
 Structure written by MMmdl.
 35 37  0  0  0  0  0  0  0  0  2 V2000
  153.7118  140.0694  159.4900 C   0  0  0  0  0  0  0  0  0  0  0  0
  152.9789  140.1072  158.2701 O   0  0  0  0  0  0  0  0  0  0  0  0
  152.2690  141.2513  157.9691 C   0  0  0  0  0  0  0  0  0  0  0  0
  152.4804  142.4169  158.7237 C   0  0  0  0  0  0  0  0  0  0  0  0
  151.7293  143.5541  158.3693 C   0  0  0  0  0  0  0  0  0  0  0  0
  151.8706  144.8719  159.1005 C   0  0  0  0  0  0  0  0  0  0  0  0
  150.8475  143.4931  157.3404 N   0  3  0  0  0  0  0  0  0  0  0  0
  150.6930  142.3489  156.6577 C   0  0  0  0  0  0  0  0  0  0  0  0
  149.7874  142.3441  155.6122 N   0  0  0  0  0  0  0  0  0  0  0  0
  149.5092  141.1813  154.7789 C   0  0  2  0  0  0  0  0  0  0  0  0
  148.2838  141.3714  153.8755 C   0  0  0  0  0  0  0  0  0  0  0  0
  147.4059  140.1805  154.2795 C   0  0  1  0  0  0  0  0  0  0  0  0
  147.9981  138.8406  153.8221 C   0  0  0  0  0  0  0  0  0  0  0  0
  149.1711  138.6715  154.7872 C   0  0  0  0  0  0  0  0  0  0  0  0
  149.0885  139.9614  155.6149 C   0  0  2  0  0  0  0  0  0  0  0  0
  147.6810  140.1297  155.6681 O   0  0  0  0  0  0  0  0  0  0  0  0
  151.3794  141.2352  156.9493 N   0  0  0  0  0  0  0  0  0  0  0  0
  154.2071  139.1031  159.5835 H   0  0  0  0  0  0  0  0  0  0  0  0
  153.0563  140.1898  160.3539 H   0  0  0  0  0  0  0  0  0  0  0  0
  154.4834  140.8403  159.5164 H   0  0  0  0  0  0  0  0  0  0  0  0
  153.1905  142.4353  159.5377 H   0  0  0  0  0  0  0  0  0  0  0  0
  152.5205  144.7720  159.9703 H   0  0  0  0  0  0  0  0  0  0  0  0
  150.8972  145.2248  159.4425 H   0  0  0  0  0  0  0  0  0  0  0  0
  152.2983  145.6264  158.4396 H   0  0  0  0  0  0  0  0  0  0  0  0
  149.4062  143.2331  155.3230 H   0  0  0  0  0  0  0  0  0  0  0  0
  150.4003  140.9441  154.1960 H   0  0  0  0  0  0  0  0  0  0  0  0
  147.7656  142.3080  154.0878 H   0  0  0  0  0  0  0  0  0  0  0  0
  148.5382  141.3608  152.8152 H   0  0  0  0  0  0  0  0  0  0  0  0
  146.3508  140.3059  154.0349 H   0  0  0  0  0  0  0  0  0  0  0  0
  147.2780  138.0316  153.9503 H   0  0  0  0  0  0  0  0  0  0  0  0
  148.3077  138.8607  152.7767 H   0  0  0  0  0  0  0  0  0  0  0  0
  149.0210  137.7962  155.4204 H   0  0  0  0  0  0  0  0  0  0  0  0
  150.1285  138.5623  154.2768 H   0  0  0  0  0  0  0  0  0  0  0  0
  149.5761  139.8863  156.5877 H   0  0  0  0  0  0  0  0  0  0  0  0
  150.3113  144.3247  157.0917 H   0  0  0  0  0  0  0  0  0  0  0  0
  1  2  1  0  0  0  0
  1 18  1  0  0  0  0
  1 19  1  0  0  0  0
  1 20  1  0  0  0  0
  2  3  1  0  0  0  0
  3 17  1  0  0  0  0
  3  4  2  0  0  0  0
  4  5  1  0  0  0  0
  4 21  1  0  0  0  0
  5  6  1  0  0  0  0
  5  7  2  0  0  0  0
  6 22  1  0  0  0  0
  6 23  1  0  0  0  0
  6 24  1  0  0  0  0
  7  8  1  0  0  0  0
  7 35  1  0  0  0  0
  8  9  1  0  0  0  0
  8 17  2  0  0  0  0
  9 10  1  0  0  0  0
  9 25  1  0  0  0  0
 10 15  1  0  0  0  0
 10 11  1  0  0  0  0
 10 26  1  0  0  0  0
 11 12  1  0  0  0  0
 11 27  1  0  0  0  0
 11 28  1  0  0  0  0
 12 16  1  0  0  0  0
 12 13  1  0  0  0  0
 12 29  1  0  0  0  0
 13 14  1  0  0  0  0
 13 30  1  0  0  0  0
 13 31  1  0  0  0  0
 14 15  1  0  0  0  0
 14 32  1  0  0  0  0
 14 33  1  0  0  0  0
 15 16  1  0  0  0  0
 15 34  1  0  0  0  0
M  CHG  1   7   1
M  END
> <s_m_source_file>
AV-unprocessed.smi

> <i_m_source_file_index>
3148

> <i_lp_mmshare_version>
43012

> <i_f3d_flags>
0

> <s_epik_input>
W0NIM11PYzFbY0hdYyhbQ0gzXSluYyhuMSlbTkhdW0NASF0oW0NIMl1bQ0BASF0yMylbQ0BASF0oTzMpW0NIMl1bQ0gyXTI=

> <s_epik_cmdline>
J2VwaWtfcHl0aG9uJywgJy1waCcsICc3LjAnLCAnLXRuJywgJzgnLCAnLW1hJywgJzIwMCcsICctbWV0YWxfYmluZGluZycsICctaW1hZScsICc8aW5maWxlLm1hZT4nLCAnLW9tYWUnLCAnPG91dGZpbGUubWFlPic=

> <r_lp_tautomer_probability>
0.999985

> <r_epik_Ionization_Penalty>
1.09461

> <r_epik_Ionization_Penalty_Charging>
1.0946

> <r_epik_Ionization_Penalty_Neutral>
6.69406e-06

> <r_epik_State_Penalty>
1.15119

> <r_epik_Charging_Adjusted_Penalty>
2.24579

> <i_epik_Tot_Q>
1

> <i_epik_Tot_abs_Q>
1

> <r_epik_Metal_State_Penalty>
1.2392

> <b_epik_Metal_Only>
0

> <s_lp_Force_Field>
OPLS_2005

> <r_lp_Energy>
35.8621

> <b_lp_Chiralities_Consistent>
1

> <s_lp_Variant>
AV-unprocessed.smi:3148-5

> <Gold.Version>
5.8.1

> <Gold.Id.Protein>
6NUR|6NUR_protein|mol2

> <Gold.PLP.Fitness>
42.8185

> <Gold.PLP.PLP>
-29.9895

> <Gold.PLP.part.hbond>
-3.0000

> <Gold.PLP.part.metal>
0.0000

> <Gold.PLP.part.buried>
-2.2389

> <Gold.PLP.part.nonpolar>
-23.8272

> <Gold.PLP.part.repulsive>
0.2161

> <Gold.PLP.ligand.clash>
0.0000

> <Gold.PLP.ligand.torsion>
0.1939

> <Gold.PLP.Chemscore.Hbond>
4.3993

> <Gold.PLP.Chemscore.CHOScore>
0.0000

> <Gold.PLP.Chemscore.Metal>
0.0000

> <Gold.Chemscore.Hbonds>
donor molecule, donor type, donor heavy atom, donor atom, acceptor molecule, acceptor atom, score
      L1  H     7    35       P1  8028  1.41
      L1  H     9    25       P1  8028  2.00
      P1  H  7997  8010       L1     2  0.99

> <Gold.PLP.Chemscore.Internal.Correction>
0.0190

> <Gold.Rescore>
     Score         DG    S(hbond)    S(metal)    S(lipo)     H(rot)  DE(clash)    DE(int)     intcor
     16.64     -18.47       2.19        0.00      75.46       1.24       0.14       1.69       ----

> <Gold.Chemscore.Fitness>
16.6410

> <Gold.Chemscore.DG>
-18.4686

> <Gold.Chemscore.ZeroCoef>
-5.4800

> <Gold.Chemscore.Hbond>
2.1940

> <Gold.Chemscore.Metal>
0.0000

> <Gold.Chemscore.Lipo>
75.4600

> <Gold.Chemscore.Internal_Hbond>
0.0000

> <Gold.Chemscore.DEClash>
0.1357

> <Gold.Chemscore.DEInternal>
1.6919

> <Gold.Chemscore.Rot>
1.2376

> <Gold.Chemscore.Internal.Correction>
   9.000000E+99

> <Gold.Chemscore.Hbonds>
donor molecule, donor type, donor heavy atom, donor atom, acceptor molecule, acceptor atom, score
      L1  H     7    35       P1  8028  0.54
      L1  H     9    25       P1  8028  0.95
      P1  H  7997  8010       L1     2  0.11

> <Gold.Chemscore.Hbond.Weighted>
-7.3279

> <Gold.Chemscore.Metal.Weighted>
-0.0000

> <Gold.Chemscore.Lipo.Weighted>
-8.8288

> <Gold.Chemscore.Internal_Hbond.Weighted>
0.0000

> <Gold.Chemscore.DEClash.Weighted>
0.1357

> <Gold.Chemscore.DEInternal.Weighted>
1.6919

> <Gold.Chemscore.Rot.Weighted>
3.1681

> <Gold.Chemscore.Internal.Correction.Weighted>
   9.000000E+99

> <Gold.Protein.RotatedTorsions>
[ 6907 6896 6895 6894 ] final   -2.01 input  -60.11 | X-H torsion
[ 7974 7965 7964 7962 ] final  131.86 input  175.53 | X-H torsion
[ 8008 7997 7996 7995 ] final   42.81 input   59.86 | X-H torsion
[ 10167 10162 10161 10158 ] final  176.37 input  -65.29 | X-H torsion
[ 10718 10713 10712 10709 ] final  126.00 input   66.30 | X-H torsion
[ 10763 10752 10751 10750 ] final  -97.54 input  -60.55 | X-H torsion
[ 11005 11000 10999 10996 ] final   32.16 input  -57.11 | X-H torsion

> <Gold.Protein.ActiveResidues>
 VAL166  LYS551  ARG553  GLY616  TRP617  ASP618  TYR619  PRO620  LYS621  CYS622 
 ASP623  PHE694  ASN695  SER759  ASP760  ASP761  ALA762  ILE779  LEU786  VAL792 
 PHE793  MET794  SER795  GLU796  ALA797  LYS798  CYS799  TRP800  GLU811  SER814 

> <Gold.Protein.RotatedAtoms>
  151.5368  135.1068  159.9916 H   0  0  0  0  0  0  0  0  0  0  0  0  # atno 6907 bound_to 6896
  152.4554  133.7707  159.6808 H   0  0  0  0  0  0  0  0  0  0  0  0  # atno 6908 bound_to 6896
  150.8495  133.7743  159.3055 H   0  0  0  0  0  0  0  0  0  0  0  0  # atno 6909 bound_to 6896
  145.0029  139.4294  143.5283 H   0  0  0  0  0  0  0  0  0  0  0  0  # atno 7974 bound_to 7965
  155.2923  140.3379  155.4252 H   0  0  0  0  0  0  0  0  0  0  0  0  # atno 8008 bound_to 7997
  156.2040  140.1744  156.7879 H   0  0  0  0  0  0  0  0  0  0  0  0  # atno 8009 bound_to 7997
  154.5596  140.0690  156.8782 H   0  0  0  0  0  0  0  0  0  0  0  0  # atno 8010 bound_to 7997
  139.5212  144.2923  152.0453 H   0  0  0  0  0  0  0  0  0  0  0  0  # atno 10167 bound_to 10162
  157.5456  131.1095  150.8787 H   0  0  0  0  0  0  0  0  0  0  0  0  # atno 10718 bound_to 10713
  154.7337  135.5043  153.9006 H   0  0  0  0  0  0  0  0  0  0  0  0  # atno 10763 bound_to 10752
  153.0974  135.6676  153.9745 H   0  0  0  0  0  0  0  0  0  0  0  0  # atno 10764 bound_to 10752
  153.9540  135.3055  155.3416 H   0  0  0  0  0  0  0  0  0  0  0  0  # atno 10765 bound_to 10752
  140.2763  134.3024  155.7813 H   0  0  0  0  0  0  0  0  0  0  0  0  # atno 11005 bound_to 11000
  146.3455  139.9428  142.8739 LP  0  0  0  0  0  0  0  0  0  0  0  0  # atno 17320 bound_to 7965
  145.2128  140.9903  143.4090 LP  0  0  0  0  0  0  0  0  0  0  0  0  # atno 17321 bound_to 7965
  140.2373  144.4306  150.6274 LP  0  0  0  0  0  0  0  0  0  0  0  0  # atno 17342 bound_to 10162
  140.6314  143.2188  151.6487 LP  0  0  0  0  0  0  0  0  0  0  0  0  # atno 17343 bound_to 10162
  156.9327  130.5355  149.5279 LP  0  0  0  0  0  0  0  0  0  0  0  0  # atno 17370 bound_to 10713
  156.0533  130.5599  150.9037 LP  0  0  0  0  0  0  0  0  0  0  0  0  # atno 17371 bound_to 10713
  141.2170  133.7498  156.9412 LP  0  0  0  0  0  0  0  0  0  0  0  0  # atno 17394 bound_to 11000
  140.1325  134.9346  157.2357 LP  0  0  0  0  0  0  0  0  0  0  0  0  # atno 17395 bound_to 11000

$$$$
