AV-unprocessed.smi:72|AV-procd|sdf|684|dock8
  -GOLD-   2262016593D 1   1.00000     0.00000
 Structure written by MMmdl.
 29 30  0  0  0  0  0  0  0  0  1 V2000
  144.9936  142.2261  154.6971 N   0  0  0  0  0  0  0  0  0  0  0  0
  146.1198  141.6222  154.5634 C   0  0  0  0  0  0  0  0  0  0  0  0
  147.3098  141.9680  155.2201 N   0  0  0  0  0  0  0  0  0  0  0  0
  148.3784  141.2742  154.9746 C   0  0  0  0  0  0  0  0  0  0  0  0
  148.3915  140.1648  154.0342 N   0  0  0  0  0  0  0  0  0  0  0  0
  149.6871  139.3941  153.8321 C   0  0  1  0  0  0  0  0  0  0  0  0
  150.6801  139.8999  154.6770 O   0  0  0  0  0  0  0  0  0  0  0  0
  151.2001  138.8698  155.5187 C   0  0  2  0  0  0  0  0  0  0  0  0
  152.6782  139.1298  155.8611 C   0  0  0  0  0  0  0  0  0  0  0  0
  153.3695  139.5940  154.7213 O   0  0  0  0  0  0  0  0  0  0  0  0
  150.9138  137.5683  154.7541 C   0  0  2  0  0  0  0  0  0  0  0  0
  151.9348  137.2923  153.8112 O   0  0  0  0  0  0  0  0  0  0  0  0
  149.6068  137.8636  154.0323 C   0  0  1  0  0  0  0  0  0  0  0  0
  148.4956  137.4169  154.7859 O   0  0  0  0  0  0  0  0  0  0  0  0
  147.1837  139.7797  153.3922 C   0  0  0  0  0  0  0  0  0  0  0  0
  147.1085  138.8274  152.6191 O   0  0  0  0  0  0  0  0  0  0  0  0
  146.1027  140.5364  153.6802 N   0  0  0  0  0  0  0  0  0  0  0  0
  150.0128  139.6332  152.8188 H   0  0  0  0  0  0  0  0  0  0  0  0
  150.6183  138.8385  156.4399 H   0  0  0  0  0  0  0  0  0  0  0  0
  150.8376  136.7114  155.4250 H   0  0  0  0  0  0  0  0  0  0  0  0
  149.5549  137.3754  153.0580 H   0  0  0  0  0  0  0  0  0  0  0  0
  144.2924  141.7846  154.1195 H   0  0  0  0  0  0  0  0  0  0  0  0
  149.3355  141.4836  155.4543 H   0  0  0  0  0  0  0  0  0  0  0  0
  152.7565  139.9058  156.6231 H   0  0  0  0  0  0  0  0  0  0  0  0
  153.1596  138.2341  156.2551 H   0  0  0  0  0  0  0  0  0  0  0  0
  153.6237  138.8485  154.1990 H   0  0  0  0  0  0  0  0  0  0  0  0
  151.5298  137.0428  152.9947 H   0  0  0  0  0  0  0  0  0  0  0  0
  148.5878  137.7312  155.6719 H   0  0  0  0  0  0  0  0  0  0  0  0
  145.2305  140.2945  153.2333 H   0  0  0  0  0  0  0  0  0  0  0  0
  1  2  2  0  0  0  0
  1 22  1  0  0  0  0
  2 17  1  0  0  0  0
  2  3  1  0  0  0  0
  3  4  2  0  0  0  0
  4  5  1  0  0  0  0
  4 23  1  0  0  0  0
  5  6  1  0  0  0  0
  5 15  1  0  0  0  0
  6 18  1  0  0  0  0
  6 13  1  0  0  0  0
  6  7  1  0  0  0  0
  7  8  1  0  0  0  0
  8 19  1  0  0  0  0
  8  9  1  0  0  0  0
  8 11  1  0  0  0  0
  9 10  1  0  0  0  0
  9 24  1  0  0  0  0
  9 25  1  0  0  0  0
 10 26  1  0  0  0  0
 11 20  1  0  0  0  0
 11 12  1  0  0  0  0
 11 13  1  0  0  0  0
 12 27  1  0  0  0  0
 13 21  1  0  0  0  0
 13 14  1  0  0  0  0
 14 28  1  0  0  0  0
 15 16  2  0  0  0  0
 15 17  1  0  0  0  0
 17 29  1  0  0  0  0
M  END
> <s_m_source_file>
AV-unprocessed.smi

> <i_m_source_file_index>
72

> <i_lp_mmshare_version>
43012

> <i_f3d_flags>
0

> <s_epik_input>
W05IMl1jMW5bY0hdbihjKD1PKW4xKVtDQEBIXTJPW0NASF0oW0NIMl1bT0hdKVtDQEBIXShbT0hdKVtDQEhdMltPSF0=

> <s_epik_cmdline>
J2VwaWtfcHl0aG9uJywgJy1waCcsICc3LjAnLCAnLXRuJywgJzgnLCAnLW1hJywgJzIwMCcsICctbWV0YWxfYmluZGluZycsICctaW1hZScsICc8aW5maWxlLm1hZT4nLCAnLW9tYWUnLCAnPG91dGZpbGUubWFlPic=

> <r_lp_tautomer_probability>
7.17554e-07

> <r_epik_Ionization_Penalty>
0.0066451

> <r_epik_Ionization_Penalty_Charging>
0.00663793

> <r_epik_Ionization_Penalty_Neutral>
7.17052e-06

> <r_epik_State_Penalty>
0.419231

> <r_epik_Charging_Adjusted_Penalty>
0.425868

> <i_epik_Tot_Q>
0

> <i_epik_Tot_abs_Q>
0

> <r_epik_Metal_State_Penalty>
1.44144

> <b_epik_Metal_Only>
0

> <s_epik_Chemistry_Notes>
This compound contains an acetal/aminal-like group ( X-CH(R)-Y where X, Y are N, S, or O) that may be acid/base labile, releasing an aldehyde.

> <s_lp_Force_Field>
OPLS_2005

> <r_lp_Energy>
43.3095

> <b_lp_Chiralities_Consistent>
1

> <s_lp_Variant>
AV-unprocessed.smi:72-22

> <Gold.Version>
5.8.1

> <Gold.Id.Protein>
6NUR|6NUR_protein|mol2

> <Gold.PLP.Fitness>
38.9818

> <Gold.PLP.PLP>
-23.2236

> <Gold.PLP.part.hbond>
-7.3367

> <Gold.PLP.part.metal>
0.0000

> <Gold.PLP.part.buried>
3.8284

> <Gold.PLP.part.nonpolar>
-20.3163

> <Gold.PLP.part.repulsive>
0.5673

> <Gold.PLP.ligand.clash>
0.0000

> <Gold.PLP.ligand.torsion>
0.2364

> <Gold.PLP.Chemscore.Hbond>
5.4005

> <Gold.PLP.Chemscore.CHOScore>
0.0000

> <Gold.PLP.Chemscore.Metal>
0.0000

> <Gold.Chemscore.Hbonds>
donor molecule, donor type, donor heavy atom, donor atom, acceptor molecule, acceptor atom, score
      L1  H     1    22       P1 10175  0.46
      L1  H    12    27       P1  7949  1.00
      L1  H    17    29       P1 10175  1.00
      P1  H  7989  7998       L1     7  1.00
      P1  H  7997  8008       L1    10  0.90
      P1  H 10752 10765       L1    12  1.00

> <Gold.PLP.Chemscore.Internal.Correction>
0.0295

> <Gold.Rescore>
     Score         DG    S(hbond)    S(metal)    S(lipo)     H(rot)  DE(clash)    DE(int)     intcor
      5.36      -6.21       2.50        0.00      23.73       4.06       0.62       0.23       ----

> <Gold.Chemscore.Fitness>
5.3595

> <Gold.Chemscore.DG>
-6.2115

> <Gold.Chemscore.ZeroCoef>
-5.4800

> <Gold.Chemscore.Hbond>
2.4997

> <Gold.Chemscore.Metal>
0.0000

> <Gold.Chemscore.Lipo>
23.7260

> <Gold.Chemscore.Internal_Hbond>
0.0000

> <Gold.Chemscore.DEClash>
0.6219

> <Gold.Chemscore.DEInternal>
0.2300

> <Gold.Chemscore.Rot>
4.0600

> <Gold.Chemscore.Internal.Correction>
   9.000000E+99

> <Gold.Chemscore.Hbonds>
donor molecule, donor type, donor heavy atom, donor atom, acceptor molecule, acceptor atom, score
      L1  H     1    22       P1 10175  0.04
      L1  H    12    27       P1  7949  0.92
      L1  H    17    29       P1 10175  0.99
      P1  H  7989  7998       L1     7  0.26
      P1  H  7997  8008       L1    10  0.13
      P1  H 10752 10765       L1    12  0.22

> <Gold.Chemscore.Hbond.Weighted>
-8.3491

> <Gold.Chemscore.Metal.Weighted>
-0.0000

> <Gold.Chemscore.Lipo.Weighted>
-2.7759

> <Gold.Chemscore.Internal_Hbond.Weighted>
0.0000

> <Gold.Chemscore.DEClash.Weighted>
0.6219

> <Gold.Chemscore.DEInternal.Weighted>
0.2300

> <Gold.Chemscore.Rot.Weighted>
10.3936

> <Gold.Chemscore.Internal.Correction.Weighted>
   9.000000E+99

> <Gold.Protein.RotatedTorsions>
[ 6907 6896 6895 6894 ] final  133.39 input  -60.11 | X-H torsion
[ 7974 7965 7964 7962 ] final  -32.97 input  175.53 | X-H torsion
[ 8008 7997 7996 7995 ] final   12.71 input   59.86 | X-H torsion
[ 10167 10162 10161 10158 ] final  150.60 input  -65.29 | X-H torsion
[ 10718 10713 10712 10709 ] final   14.65 input   66.30 | X-H torsion
[ 10763 10752 10751 10750 ] final  155.28 input  -60.55 | X-H torsion
[ 11005 11000 10999 10996 ] final -163.92 input  -57.11 | X-H torsion

> <Gold.Protein.ActiveResidues>
 VAL166  LYS551  ARG553  GLY616  TRP617  ASP618  TYR619  PRO620  LYS621  CYS622 
 ASP623  PHE694  ASN695  SER759  ASP760  ASP761  ALA762  ILE779  LEU786  VAL792 
 PHE793  MET794  SER795  GLU796  ALA797  LYS798  CYS799  TRP800  GLU811  SER814 

> <Gold.Protein.RotatedAtoms>
  152.3225  133.5869  159.5753 H   0  0  0  0  0  0  0  0  0  0  0  0  # atno 6907 bound_to 6896
  150.7379  133.9990  159.3641 H   0  0  0  0  0  0  0  0  0  0  0  0  # atno 6908 bound_to 6896
  151.7873  135.0746  160.0433 H   0  0  0  0  0  0  0  0  0  0  0  0  # atno 6909 bound_to 6896
  146.0948  140.5858  142.8848 H   0  0  0  0  0  0  0  0  0  0  0  0  # atno 7974 bound_to 7965
  154.8244  140.2889  155.5765 H   0  0  0  0  0  0  0  0  0  0  0  0  # atno 8008 bound_to 7997
  156.3000  140.2544  156.3088 H   0  0  0  0  0  0  0  0  0  0  0  0  # atno 8009 bound_to 7997
  154.9302  140.0383  157.2033 H   0  0  0  0  0  0  0  0  0  0  0  0  # atno 8010 bound_to 7997
  139.4848  144.5509  151.7402 H   0  0  0  0  0  0  0  0  0  0  0  0  # atno 10167 bound_to 10162
  157.0422  130.6236  149.5753 H   0  0  0  0  0  0  0  0  0  0  0  0  # atno 10718 bound_to 10713
  154.1659  135.2807  155.3095 H   0  0  0  0  0  0  0  0  0  0  0  0  # atno 10763 bound_to 10752
  154.6112  135.5498  153.7478 H   0  0  0  0  0  0  0  0  0  0  0  0  # atno 10764 bound_to 10752
  153.0178  135.6416  154.1800 H   0  0  0  0  0  0  0  0  0  0  0  0  # atno 10765 bound_to 10752
  140.5927  134.5028  157.5195 H   0  0  0  0  0  0  0  0  0  0  0  0  # atno 11005 bound_to 11000
  144.7387  140.4881  143.6885 LP  0  0  0  0  0  0  0  0  0  0  0  0  # atno 17320 bound_to 7965
  145.5970  139.1500  143.3150 LP  0  0  0  0  0  0  0  0  0  0  0  0  # atno 17321 bound_to 7965
  140.5063  144.1093  150.5983 LP  0  0  0  0  0  0  0  0  0  0  0  0  # atno 17342 bound_to 10162
  140.4004  143.2707  151.9955 LP  0  0  0  0  0  0  0  0  0  0  0  0  # atno 17343 bound_to 10162
  156.0034  130.5117  150.7746 LP  0  0  0  0  0  0  0  0  0  0  0  0  # atno 17370 bound_to 10713
  157.5096  131.0924  151.0215 LP  0  0  0  0  0  0  0  0  0  0  0  0  # atno 17371 bound_to 10713
  139.9267  134.8042  156.1048 LP  0  0  0  0  0  0  0  0  0  0  0  0  # atno 17394 bound_to 11000
  141.0924  133.6709  156.2571 LP  0  0  0  0  0  0  0  0  0  0  0  0  # atno 17395 bound_to 11000

$$$$
