AV-unprocessed.smi:252|AV-procd|sdf|1936|dock8
  -GOLD-   2262021 63D 1   1.00000     0.00000
 Structure written by MMmdl.
 56 59  0  0  0  0  0  0  0  0  1 V2000
  153.1149  143.0894  160.0391 C   0  0  0  0  0  0  0  0  0  0  0  0
  153.7771  141.7196  159.8224 C   0  0  0  0  0  0  0  0  0  0  0  0
  152.9790  140.7954  158.8970 C   0  0  0  0  0  0  0  0  0  0  0  0
  153.4728  139.7531  158.4656 O   0  0  0  0  0  0  0  0  0  0  0  0
  151.7337  141.1968  158.5997 N   0  0  0  0  0  0  0  0  0  0  0  0
  150.8000  140.4811  157.7363 C   0  0  2  0  0  0  0  0  0  0  0  0
  149.5237  141.3145  157.5074 C   0  0  0  0  0  0  0  0  0  0  0  0
  148.4994  140.5137  156.6898 C   0  0  0  0  0  0  0  0  0  0  0  0
  148.2053  139.1580  157.3511 C   0  0  0  0  0  0  0  0  0  0  0  0
  149.4443  138.4137  157.5833 N   0  0  0  0  0  0  0  0  0  0  0  0
  149.3419  137.0886  157.8586 C   0  0  0  0  0  0  0  0  0  0  0  0
  149.7281  136.1703  156.9324 N   0  0  0  0  0  0  0  0  0  0  0  0
  149.6140  134.8638  157.1884 C   0  0  0  0  0  0  0  0  0  0  0  0
  149.1492  134.2663  158.2869 N   0  0  0  0  0  0  0  0  0  0  0  0
  148.7716  135.1808  159.2254 C   0  0  0  0  0  0  0  0  0  0  0  0
  148.8331  136.5972  159.0942 C   0  0  0  0  0  0  0  0  0  0  0  0
  148.3686  137.1994  160.2578 N   0  0  0  0  0  0  0  0  0  0  0  0
  148.0407  136.1976  161.0269 C   0  0  0  0  0  0  0  0  0  0  0  0
  148.2555  134.9490  160.4887 N   0  0  0  0  0  0  0  0  0  0  0  0
  147.9805  133.6674  161.1209 C   0  0  0  0  0  0  0  0  0  0  0  0
  146.6945  133.6660  161.9890 C   0  0  1  0  0  0  0  0  0  0  0  0
  147.0279  134.1731  163.2703 O   0  0  0  0  0  0  0  0  0  0  0  0
  145.5747  134.5351  161.4213 C   0  0  0  0  0  0  0  0  0  0  0  0
  144.3154  133.8459  161.9237 C   0  0  0  0  0  0  0  0  0  0  0  0
  144.6466  132.4754  161.7912 O   0  0  0  0  0  0  0  0  0  0  0  0
  146.0013  132.2883  162.1919 C   0  0  1  0  0  0  0  0  0  0  0  0
  146.5647  131.1028  161.3927 C   0  0  0  0  0  0  0  0  0  0  0  0
  150.4530  139.1220  158.3710 C   0  0  0  0  0  0  0  0  0  0  0  0
  153.6950  143.6905  160.7395 H   0  0  0  0  0  0  0  0  0  0  0  0
  152.1092  142.9854  160.4482 H   0  0  0  0  0  0  0  0  0  0  0  0
  153.0438  143.6501  159.1063 H   0  0  0  0  0  0  0  0  0  0  0  0
  154.7747  141.8550  159.4035 H   0  0  0  0  0  0  0  0  0  0  0  0
  153.9060  141.2272  160.7874 H   0  0  0  0  0  0  0  0  0  0  0  0
  151.4093  142.0655  158.9993 H   0  0  0  0  0  0  0  0  0  0  0  0
  151.2759  140.2900  156.7723 H   0  0  0  0  0  0  0  0  0  0  0  0
  149.0845  141.5931  158.4664 H   0  0  0  0  0  0  0  0  0  0  0  0
  149.7632  142.2448  156.9912 H   0  0  0  0  0  0  0  0  0  0  0  0
  147.5770  141.0844  156.5810 H   0  0  0  0  0  0  0  0  0  0  0  0
  148.8849  140.3513  155.6824 H   0  0  0  0  0  0  0  0  0  0  0  0
  147.6930  139.3116  158.3020 H   0  0  0  0  0  0  0  0  0  0  0  0
  147.5352  138.5819  156.7116 H   0  0  0  0  0  0  0  0  0  0  0  0
  149.9397  134.2027  156.3989 H   0  0  0  0  0  0  0  0  0  0  0  0
  147.6329  136.3442  162.0164 H   0  0  0  0  0  0  0  0  0  0  0  0
  147.9064  132.9221  160.3284 H   0  0  0  0  0  0  0  0  0  0  0  0
  148.8470  133.3923  161.7235 H   0  0  0  0  0  0  0  0  0  0  0  0
  146.2278  134.3442  163.7431 H   0  0  0  0  0  0  0  0  0  0  0  0
  145.6368  135.5842  161.7139 H   0  0  0  0  0  0  0  0  0  0  0  0
  145.5836  134.4937  160.3315 H   0  0  0  0  0  0  0  0  0  0  0  0
  144.1263  134.0823  162.9720 H   0  0  0  0  0  0  0  0  0  0  0  0
  143.4301  134.1050  161.3427 H   0  0  0  0  0  0  0  0  0  0  0  0
  145.9970  132.0172  163.2495 H   0  0  0  0  0  0  0  0  0  0  0  0
  147.6006  130.8969  161.6625 H   0  0  0  0  0  0  0  0  0  0  0  0
  146.5196  131.2851  160.3188 H   0  0  0  0  0  0  0  0  0  0  0  0
  145.9908  130.1978  161.5927 H   0  0  0  0  0  0  0  0  0  0  0  0
  151.3625  138.5309  158.4757 H   0  0  0  0  0  0  0  0  0  0  0  0
  150.0608  139.2689  159.3786 H   0  0  0  0  0  0  0  0  0  0  0  0
  1  2  1  0  0  0  0
  1 29  1  0  0  0  0
  1 30  1  0  0  0  0
  1 31  1  0  0  0  0
  2  3  1  0  0  0  0
  2 32  1  0  0  0  0
  2 33  1  0  0  0  0
  3  4  2  0  0  0  0
  3  5  1  0  0  0  0
  5  6  1  0  0  0  0
  5 34  1  0  0  0  0
  6 28  1  0  0  0  0
  6  7  1  0  0  0  0
  6 35  1  0  0  0  0
  7  8  1  0  0  0  0
  7 36  1  0  0  0  0
  7 37  1  0  0  0  0
  8  9  1  0  0  0  0
  8 38  1  0  0  0  0
  8 39  1  0  0  0  0
  9 10  1  0  0  0  0
  9 40  1  0  0  0  0
  9 41  1  0  0  0  0
 10 11  1  0  0  0  0
 10 28  1  0  0  0  0
 11 16  1  0  0  0  0
 11 12  2  0  0  0  0
 12 13  1  0  0  0  0
 13 14  2  0  0  0  0
 13 42  1  0  0  0  0
 14 15  1  0  0  0  0
 15 19  1  0  0  0  0
 15 16  2  0  0  0  0
 16 17  1  0  0  0  0
 17 18  2  0  0  0  0
 18 19  1  0  0  0  0
 18 43  1  0  0  0  0
 19 20  1  0  0  0  0
 20 21  1  0  0  0  0
 20 44  1  0  0  0  0
 20 45  1  0  0  0  0
 21 26  1  0  0  0  0
 21 22  1  0  0  0  0
 21 23  1  0  0  0  0
 22 46  1  0  0  0  0
 23 24  1  0  0  0  0
 23 47  1  0  0  0  0
 23 48  1  0  0  0  0
 24 25  1  0  0  0  0
 24 49  1  0  0  0  0
 24 50  1  0  0  0  0
 25 26  1  0  0  0  0
 26 27  1  0  0  0  0
 26 51  1  0  0  0  0
 27 52  1  0  0  0  0
 27 53  1  0  0  0  0
 27 54  1  0  0  0  0
 28 55  1  0  0  0  0
 28 56  1  0  0  0  0
M  END
> <s_m_source_file>
AV-unprocessed.smi

> <i_m_source_file_index>
252

> <i_lp_mmshare_version>
43012

> <i_f3d_flags>
0

> <s_epik_input>
W0NIM11bQ0gyXUMoPU8pW05IXVtDQEBIXTFbQ0gyXVtDSDJdW0NIMl1OKFtDSDJdMSljKG5bY0hdbjIpYyhjMjMpbltjSF1uM1tDSDJdW0NAQF00KFtPSF0pW0NIMl1bQ0gyXU9bQ0BIXTRbQ0gzXQ==

> <s_epik_cmdline>
J2VwaWtfcHl0aG9uJywgJy1waCcsICc3LjAnLCAnLXRuJywgJzgnLCAnLW1hJywgJzIwMCcsICctbWV0YWxfYmluZGluZycsICctaW1hZScsICc8aW5maWxlLm1hZT4nLCAnLW9tYWUnLCAnPG91dGZpbGUubWFlPic=

> <r_lp_tautomer_probability>
1

> <r_epik_Ionization_Penalty>
0.00182575

> <r_epik_Ionization_Penalty_Charging>
0

> <r_epik_Ionization_Penalty_Neutral>
0.00182575

> <r_epik_State_Penalty>
0.00104524

> <r_epik_Charging_Adjusted_Penalty>
0.00104524

> <i_epik_Tot_Q>
0

> <i_epik_Tot_abs_Q>
0

> <r_epik_Metal_State_Penalty>
-0

> <b_epik_Metal_Only>
0

> <s_lp_Force_Field>
OPLS_2005

> <r_lp_Energy>
34.3477

> <b_lp_Chiralities_Consistent>
1

> <s_lp_Variant>
AV-unprocessed.smi:252-1

> <Gold.Version>
5.8.1

> <Gold.Id.Protein>
6NUR|6NUR_protein|mol2

> <Gold.PLP.Fitness>
44.7757

> <Gold.PLP.PLP>
-38.6639

> <Gold.PLP.part.hbond>
-5.0000

> <Gold.PLP.part.metal>
0.0000

> <Gold.PLP.part.buried>
-5.2160

> <Gold.PLP.part.nonpolar>
-28.9778

> <Gold.PLP.part.repulsive>
0.2049

> <Gold.PLP.ligand.clash>
0.0087

> <Gold.PLP.ligand.torsion>
1.0599

> <Gold.PLP.Chemscore.Hbond>
2.5874

> <Gold.PLP.Chemscore.CHOScore>
0.0000

> <Gold.PLP.Chemscore.Metal>
0.0000

> <Gold.Chemscore.Hbonds>
donor molecule, donor type, donor heavy atom, donor atom, acceptor molecule, acceptor atom, score
      P1  H  6896  6908       L1    14  0.45
      P1  H  6931  6943       L1    17  0.34
      P1  H  6934  6947       L1    17  0.25
      P1  H  7997  8010       L1     4  1.00

> <Gold.PLP.Chemscore.Internal.Correction>
0.4781

> <Gold.Rescore>
     Score         DG    S(hbond)    S(metal)    S(lipo)     H(rot)  DE(clash)    DE(int)     intcor
     10.86     -11.61       1.40        0.00      71.63       2.70       0.01       0.73       ----

> <Gold.Chemscore.Fitness>
10.8607

> <Gold.Chemscore.DG>
-11.6070

> <Gold.Chemscore.ZeroCoef>
-5.4800

> <Gold.Chemscore.Hbond>
1.3977

> <Gold.Chemscore.Metal>
0.0000

> <Gold.Chemscore.Lipo>
71.6340

> <Gold.Chemscore.Internal_Hbond>
0.0000

> <Gold.Chemscore.DEClash>
0.0149

> <Gold.Chemscore.DEInternal>
0.7315

> <Gold.Chemscore.Rot>
2.7041

> <Gold.Chemscore.Internal.Correction>
   9.000000E+99

> <Gold.Chemscore.Hbonds>
donor molecule, donor type, donor heavy atom, donor atom, acceptor molecule, acceptor atom, score
      P1  H  6896  6908       L1    14  0.01
      P1  H  6931  6943       L1    17  0.02
      P1  H  6934  6947       L1    17  0.17
      P1  H  7997  8010       L1     4  0.85

> <Gold.Chemscore.Hbond.Weighted>
-4.6683

> <Gold.Chemscore.Metal.Weighted>
-0.0000

> <Gold.Chemscore.Lipo.Weighted>
-8.3812

> <Gold.Chemscore.Internal_Hbond.Weighted>
0.0000

> <Gold.Chemscore.DEClash.Weighted>
0.0149

> <Gold.Chemscore.DEInternal.Weighted>
0.7315

> <Gold.Chemscore.Rot.Weighted>
6.9225

> <Gold.Chemscore.Internal.Correction.Weighted>
   9.000000E+99

> <Gold.Protein.RotatedTorsions>
[ 6907 6896 6895 6894 ] final  128.44 input  -60.11 | X-H torsion
[ 7974 7965 7964 7962 ] final  -74.06 input  175.53 | X-H torsion
[ 8008 7997 7996 7995 ] final   13.58 input   59.86 | X-H torsion
[ 10167 10162 10161 10158 ] final  -27.19 input  -65.29 | X-H torsion
[ 10718 10713 10712 10709 ] final  162.03 input   66.30 | X-H torsion
[ 10763 10752 10751 10750 ] final  112.85 input  -60.55 | X-H torsion
[ 11005 11000 10999 10996 ] final  141.42 input  -57.11 | X-H torsion

> <Gold.Protein.ActiveResidues>
 VAL166  LYS551  ARG553  GLY616  TRP617  ASP618  TYR619  PRO620  LYS621  CYS622 
 ASP623  PHE694  ASN695  SER759  ASP760  ASP761  ALA762  ILE779  LEU786  VAL792 
 PHE793  MET794  SER795  GLU796  ALA797  LYS798  CYS799  TRP800  GLU811  SER814 

> <Gold.Protein.RotatedAtoms>
  152.3719  133.6431  159.6093 H   0  0  0  0  0  0  0  0  0  0  0  0  # atno 6907 bound_to 6896
  150.7675  133.9255  159.3420 H   0  0  0  0  0  0  0  0  0  0  0  0  # atno 6908 bound_to 6896
  151.7077  135.0920  160.0313 H   0  0  0  0  0  0  0  0  0  0  0  0  # atno 6909 bound_to 6896
  145.6440  140.9302  143.1020 H   0  0  0  0  0  0  0  0  0  0  0  0  # atno 7974 bound_to 7965
  154.8365  140.2908  155.5688 H   0  0  0  0  0  0  0  0  0  0  0  0  # atno 8008 bound_to 7997
  156.3009  140.2522  156.3230 H   0  0  0  0  0  0  0  0  0  0  0  0  # atno 8009 bound_to 7997
  154.9173  140.0387  157.1968 H   0  0  0  0  0  0  0  0  0  0  0  0  # atno 8010 bound_to 7997
  140.7279  143.4114  151.1100 H   0  0  0  0  0  0  0  0  0  0  0  0  # atno 10167 bound_to 10162
  157.1282  131.0510  151.2384 H   0  0  0  0  0  0  0  0  0  0  0  0  # atno 10718 bound_to 10713
  153.4839  135.3673  155.2456 H   0  0  0  0  0  0  0  0  0  0  0  0  # atno 10763 bound_to 10752
  154.8754  135.3961  154.3668 H   0  0  0  0  0  0  0  0  0  0  0  0  # atno 10764 bound_to 10752
  153.4276  135.7081  153.6317 H   0  0  0  0  0  0  0  0  0  0  0  0  # atno 10765 bound_to 10752
  140.0400  134.9309  157.0825 H   0  0  0  0  0  0  0  0  0  0  0  0  # atno 11005 bound_to 11000
  144.7147  139.8241  143.7403 LP  0  0  0  0  0  0  0  0  0  0  0  0  # atno 17320 bound_to 7965
  146.1258  139.4284  143.0200 LP  0  0  0  0  0  0  0  0  0  0  0  0  # atno 17321 bound_to 7965
  139.7747  143.8442  152.3127 LP  0  0  0  0  0  0  0  0  0  0  0  0  # atno 17342 bound_to 10162
  139.8373  144.7226  150.9375 LP  0  0  0  0  0  0  0  0  0  0  0  0  # atno 17343 bound_to 10162
  157.4416  130.7547  149.7074 LP  0  0  0  0  0  0  0  0  0  0  0  0  # atno 17370 bound_to 10713
  155.9813  130.4020  150.3476 LP  0  0  0  0  0  0  0  0  0  0  0  0  # atno 17371 bound_to 10713
  140.4085  134.2007  155.7163 LP  0  0  0  0  0  0  0  0  0  0  0  0  # atno 17394 bound_to 11000
  141.1878  133.8274  157.1019 LP  0  0  0  0  0  0  0  0  0  0  0  0  # atno 17395 bound_to 11000

$$$$
