AV-unprocessed.smi:385|AV-procd|sdf|2472|dock6
  -GOLD-   2262022413D 1   1.00000     0.00000
 Structure written by MMmdl.
 38 39  0  0  0  0  0  0  0  0  3 V2000
  148.7470  141.3922  153.8282 O   0  0  0  0  0  0  0  0  0  0  0  0
  148.6872  140.2875  154.3679 C   0  0  0  0  0  0  0  0  0  0  0  0
  149.4353  139.9463  155.4284 N   0  0  0  0  0  0  0  0  0  0  0  0
  150.4054  140.8147  156.0901 C   0  0  0  0  0  0  0  0  0  0  0  0
  149.7614  141.7948  157.0927 C   0  0  0  0  0  0  0  0  0  0  0  0
  150.7698  142.6161  157.8774 C   0  0  0  0  0  0  0  0  0  0  0  0
  151.7341  142.0174  158.7177 C   0  0  0  0  0  0  0  0  0  0  0  0
  152.6472  142.8374  159.4125 C   0  0  0  0  0  0  0  0  0  0  0  0
  152.5772  144.2369  159.2529 C   0  0  0  0  0  0  0  0  0  0  0  0
  151.5933  144.7817  158.4025 C   0  0  0  0  0  0  0  0  0  0  0  0
  150.7361  143.9627  157.7541 N   0  3  0  0  0  0  0  0  0  0  0  0
  147.7134  139.2234  153.8454 C   0  0  0  0  0  0  0  0  0  0  0  0
  147.4466  139.4038  152.3364 C   0  0  0  0  0  0  0  0  0  0  0  0
  146.4293  138.3686  151.8270 C   0  0  0  0  0  0  0  0  0  0  0  0
  145.1726  138.4437  152.6032 N   0  3  0  0  0  0  0  0  0  0  0  0
  145.3787  138.2430  154.0541 C   0  0  0  0  0  0  0  0  0  0  0  0
  146.3752  139.2738  154.6120 C   0  0  0  0  0  0  0  0  0  0  0  0
  149.3271  139.0155  155.8051 H   0  0  0  0  0  0  0  0  0  0  0  0
  151.1064  140.1680  156.6185 H   0  0  0  0  0  0  0  0  0  0  0  0
  150.9911  141.3595  155.3480 H   0  0  0  0  0  0  0  0  0  0  0  0
  149.0872  142.4699  156.5645 H   0  0  0  0  0  0  0  0  0  0  0  0
  149.1375  141.2428  157.7968 H   0  0  0  0  0  0  0  0  0  0  0  0
  151.7764  140.9432  158.8267 H   0  0  0  0  0  0  0  0  0  0  0  0
  153.3919  142.3979  160.0600 H   0  0  0  0  0  0  0  0  0  0  0  0
  153.2670  144.8826  159.7766 H   0  0  0  0  0  0  0  0  0  0  0  0
  151.4664  145.8395  158.2229 H   0  0  0  0  0  0  0  0  0  0  0  0
  148.1595  138.2390  153.9990 H   0  0  0  0  0  0  0  0  0  0  0  0
  147.0676  140.4073  152.1353 H   0  0  0  0  0  0  0  0  0  0  0  0
  148.3772  139.3076  151.7755 H   0  0  0  0  0  0  0  0  0  0  0  0
  146.2079  138.5423  150.7737 H   0  0  0  0  0  0  0  0  0  0  0  0
  146.8408  137.3613  151.9043 H   0  0  0  0  0  0  0  0  0  0  0  0
  144.7610  139.3551  152.4599 H   0  0  0  0  0  0  0  0  0  0  0  0
  144.4192  138.3292  154.5647 H   0  0  0  0  0  0  0  0  0  0  0  0
  145.7426  137.2297  154.2289 H   0  0  0  0  0  0  0  0  0  0  0  0
  146.5420  139.0834  155.6733 H   0  0  0  0  0  0  0  0  0  0  0  0
  145.9364  140.2708  154.5429 H   0  0  0  0  0  0  0  0  0  0  0  0
  144.5330  137.7404  152.2617 H   0  0  0  0  0  0  0  0  0  0  0  0
  150.0320  144.3791  157.1441 H   0  0  0  0  0  0  0  0  0  0  0  0
  1  2  2  0  0  0  0
  2  3  1  0  0  0  0
  2 12  1  0  0  0  0
  3  4  1  0  0  0  0
  3 18  1  0  0  0  0
  4  5  1  0  0  0  0
  4 19  1  0  0  0  0
  4 20  1  0  0  0  0
  5  6  1  0  0  0  0
  5 21  1  0  0  0  0
  5 22  1  0  0  0  0
  6 11  1  0  0  0  0
  6  7  2  0  0  0  0
  7  8  1  0  0  0  0
  7 23  1  0  0  0  0
  8  9  2  0  0  0  0
  8 24  1  0  0  0  0
  9 10  1  0  0  0  0
  9 25  1  0  0  0  0
 10 11  2  0  0  0  0
 10 26  1  0  0  0  0
 11 38  1  0  0  0  0
 12 17  1  0  0  0  0
 12 13  1  0  0  0  0
 12 27  1  0  0  0  0
 13 14  1  0  0  0  0
 13 28  1  0  0  0  0
 13 29  1  0  0  0  0
 14 15  1  0  0  0  0
 14 30  1  0  0  0  0
 14 31  1  0  0  0  0
 15 16  1  0  0  0  0
 15 32  1  0  0  0  0
 15 37  1  0  0  0  0
 16 17  1  0  0  0  0
 16 33  1  0  0  0  0
 16 34  1  0  0  0  0
 17 35  1  0  0  0  0
 17 36  1  0  0  0  0
M  CHG  1  11   1
M  CHG  1  15   1
M  END
> <s_m_source_file>
AV-unprocessed.smi

> <i_m_source_file_index>
385

> <i_lp_mmshare_version>
43012

> <i_f3d_flags>
0

> <s_epik_input>
W0NIMl0xW0NIMl1bTkhdW0NIMl1bQ0gyXVtDSF0xQyg9TylbTkhdW0NIMl1bQ0gyXWMyW2NIXVtjSF1bY0hdW2NIXW4y

> <s_epik_cmdline>
J2VwaWtfcHl0aG9uJywgJy1waCcsICc3LjAnLCAnLXRuJywgJzgnLCAnLW1hJywgJzIwMCcsICctbWV0YWxfYmluZGluZycsICctaW1hZScsICc8aW5maWxlLm1hZT4nLCAnLW9tYWUnLCAnPG91dGZpbGUubWFlPic=

> <r_epik_Ionization_Penalty>
1.95053

> <r_epik_Ionization_Penalty_Charging>
1.95053

> <r_epik_Ionization_Penalty_Neutral>
3.30626e-08

> <r_epik_State_Penalty>
2.07441

> <r_epik_Charging_Adjusted_Penalty>
4.02494

> <i_epik_Tot_Q>
2

> <i_epik_Tot_abs_Q>
2

> <r_epik_Metal_State_Penalty>
2.09624

> <b_epik_Metal_Only>
0

> <s_lp_Force_Field>
OPLS_2005

> <r_lp_Energy>
22.1472

> <b_lp_Chiralities_Consistent>
1

> <s_lp_Variant>
AV-unprocessed.smi:385-2

> <Gold.Version>
5.8.1

> <Gold.Id.Protein>
6NUR|6NUR_protein|mol2

> <Gold.PLP.Fitness>
46.7460

> <Gold.PLP.PLP>
-34.5689

> <Gold.PLP.part.hbond>
-3.9719

> <Gold.PLP.part.metal>
0.0000

> <Gold.PLP.part.buried>
1.4113

> <Gold.PLP.part.nonpolar>
-33.1281

> <Gold.PLP.part.repulsive>
0.2987

> <Gold.PLP.ligand.clash>
0.0000

> <Gold.PLP.ligand.torsion>
0.8925

> <Gold.PLP.Chemscore.Hbond>
4.6503

> <Gold.PLP.Chemscore.CHOScore>
0.0000

> <Gold.PLP.Chemscore.Metal>
0.0000

> <Gold.Chemscore.Hbonds>
donor molecule, donor type, donor heavy atom, donor atom, acceptor molecule, acceptor atom, score
      L1  H    11    38       P1  8028  2.00
      L1  H    15    32       P1 10175  2.00
      P1  H  8011  8017       L1     1  0.64

> <Gold.PLP.Chemscore.Internal.Correction>
0.0112

> <Gold.Rescore>
     Score         DG    S(hbond)    S(metal)    S(lipo)     H(rot)  DE(clash)    DE(int)     intcor
     19.02     -21.76       2.60        0.00     101.51       1.67       1.78       0.96       ----

> <Gold.Chemscore.Fitness>
19.0230

> <Gold.Chemscore.DG>
-21.7626

> <Gold.Chemscore.ZeroCoef>
-5.4800

> <Gold.Chemscore.Hbond>
2.5998

> <Gold.Chemscore.Metal>
0.0000

> <Gold.Chemscore.Lipo>
101.5078

> <Gold.Chemscore.Internal_Hbond>
0.0000

> <Gold.Chemscore.DEClash>
1.7842

> <Gold.Chemscore.DEInternal>
0.9553

> <Gold.Chemscore.Rot>
1.6708

> <Gold.Chemscore.Internal.Correction>
   9.000000E+99

> <Gold.Chemscore.Hbonds>
donor molecule, donor type, donor heavy atom, donor atom, acceptor molecule, acceptor atom, score
      L1  H    11    38       P1  8028  0.60
      L1  H    15    32       P1 10175  0.94
      P1  H  8011  8017       L1     1  0.64

> <Gold.Chemscore.Hbond.Weighted>
-8.6834

> <Gold.Chemscore.Metal.Weighted>
-0.0000

> <Gold.Chemscore.Lipo.Weighted>
-11.8764

> <Gold.Chemscore.Internal_Hbond.Weighted>
0.0000

> <Gold.Chemscore.DEClash.Weighted>
1.7842

> <Gold.Chemscore.DEInternal.Weighted>
0.9553

> <Gold.Chemscore.Rot.Weighted>
4.2772

> <Gold.Chemscore.Internal.Correction.Weighted>
   9.000000E+99

> <Gold.Protein.RotatedTorsions>
[ 6907 6896 6895 6894 ] final -136.62 input  -60.11 | X-H torsion
[ 7974 7965 7964 7962 ] final  -12.35 input  175.53 | X-H torsion
[ 8008 7997 7996 7995 ] final  -12.93 input   59.86 | X-H torsion
[ 10167 10162 10161 10158 ] final  -35.41 input  -65.29 | X-H torsion
[ 10718 10713 10712 10709 ] final -160.16 input   66.30 | X-H torsion
[ 10763 10752 10751 10750 ] final  107.72 input  -60.55 | X-H torsion
[ 11005 11000 10999 10996 ] final -121.33 input  -57.11 | X-H torsion

> <Gold.Protein.ActiveResidues>
 VAL166  LYS551  ARG553  GLY616  TRP617  ASP618  TYR619  PRO620  LYS621  CYS622 
 ASP623  PHE694  ASN695  SER759  ASP760  ASP761  ALA762  ILE779  LEU786  VAL792 
 PHE793  MET794  SER795  GLU796  ALA797  LYS798  CYS799  TRP800  GLU811  SER814 

> <Gold.Protein.RotatedAtoms>
  151.0124  133.5953  159.2680 H   0  0  0  0  0  0  0  0  0  0  0  0  # atno 6907 bound_to 6896
  151.3100  135.0790  159.9278 H   0  0  0  0  0  0  0  0  0  0  0  0  # atno 6908 bound_to 6896
  152.5303  133.9790  159.7852 H   0  0  0  0  0  0  0  0  0  0  0  0  # atno 6909 bound_to 6896
  146.2155  140.3045  142.8377 H   0  0  0  0  0  0  0  0  0  0  0  0  # atno 7974 bound_to 7965
  154.5335  140.2263  155.8763 H   0  0  0  0  0  0  0  0  0  0  0  0  # atno 8008 bound_to 7997
  156.1788  140.3105  155.9072 H   0  0  0  0  0  0  0  0  0  0  0  0  # atno 8009 bound_to 7997
  155.3402  140.0450  157.3035 H   0  0  0  0  0  0  0  0  0  0  0  0  # atno 8010 bound_to 7997
  140.7165  143.3479  151.2217 H   0  0  0  0  0  0  0  0  0  0  0  0  # atno 10167 bound_to 10162
  156.5782  130.8718  151.2857 H   0  0  0  0  0  0  0  0  0  0  0  0  # atno 10718 bound_to 10713
  153.4107  135.3835  155.2048 H   0  0  0  0  0  0  0  0  0  0  0  0  # atno 10763 bound_to 10752
  154.8737  135.3793  154.4505 H   0  0  0  0  0  0  0  0  0  0  0  0  # atno 10764 bound_to 10752
  153.5013  135.7088  153.5893 H   0  0  0  0  0  0  0  0  0  0  0  0  # atno 10765 bound_to 10752
  141.0078  134.0309  157.3454 H   0  0  0  0  0  0  0  0  0  0  0  0  # atno 11005 bound_to 11000
  144.9033  140.7669  143.5853 LP  0  0  0  0  0  0  0  0  0  0  0  0  # atno 17320 bound_to 7965
  145.2972  139.1863  143.4709 LP  0  0  0  0  0  0  0  0  0  0  0  0  # atno 17321 bound_to 7965
  139.7003  143.9544  152.2902 LP  0  0  0  0  0  0  0  0  0  0  0  0  # atno 17342 bound_to 10162
  139.9235  144.6785  150.8436 LP  0  0  0  0  0  0  0  0  0  0  0  0  # atno 17343 bound_to 10162
  157.7333  130.9728  150.1969 LP  0  0  0  0  0  0  0  0  0  0  0  0  # atno 17370 bound_to 10713
  156.2655  130.3715  149.8086 LP  0  0  0  0  0  0  0  0  0  0  0  0  # atno 17371 bound_to 10713
  139.9073  135.0182  156.7541 LP  0  0  0  0  0  0  0  0  0  0  0  0  # atno 17394 bound_to 11000
  140.6784  133.9497  155.7896 LP  0  0  0  0  0  0  0  0  0  0  0  0  # atno 17395 bound_to 11000

$$$$
