AV-unprocessed.smi:72|AV-procd|sdf|721|dock1
  -GOLD-   2262017 43D 1   1.00000     0.00000
 Structure written by MMmdl.
 28 29  0  0  0  0  0  0  0  0  2 V2000
  154.1408  138.0817  154.7407 N   0  0  0  0  0  0  0  0  0  0  0  0
  152.9194  138.3904  154.7791 C   0  0  0  0  0  0  0  0  0  0  0  0
  151.9268  137.5008  154.2168 N   0  0  0  0  0  0  0  0  0  0  0  0
  150.6825  137.8633  154.2827 C   0  0  0  0  0  0  0  0  0  0  0  0
  150.2793  139.1212  154.8991 N   0  0  0  0  0  0  0  0  0  0  0  0
  148.8247  139.5559  154.9796 C   0  0  2  0  0  0  0  0  0  0  0  0
  147.9918  138.5464  154.4827 O   0  0  0  0  0  0  0  0  0  0  0  0
  147.4264  138.9477  153.2398 C   0  0  1  0  0  0  0  0  0  0  0  0
  146.1482  138.1485  152.9317 C   0  0  0  0  0  0  0  0  0  0  0  0
  145.1081  138.5258  153.8089 O   0  0  0  0  0  0  0  0  0  0  0  0
  147.2821  140.4681  153.3830 C   0  0  1  0  0  0  0  0  0  0  0  0
  146.1117  140.8095  154.1031 O   0  0  0  0  0  0  0  0  0  0  0  0
  148.5263  140.8469  154.1756 C   0  0  2  0  0  0  0  0  0  0  0  0
  149.5622  141.2194  153.2824 O   0  0  0  0  0  0  0  0  0  0  0  0
  151.2772  139.9758  155.4390 C   0  0  0  0  0  0  0  0  0  0  0  0
  150.9172  141.0403  155.9423 O   0  0  0  0  0  0  0  0  0  0  0  0
  152.5813  139.5885  155.3679 N   0  5  0  0  0  0  0  0  0  0  0  0
  148.6090  139.6549  156.0448 H   0  0  0  0  0  0  0  0  0  0  0  0
  148.1657  138.7439  152.4634 H   0  0  0  0  0  0  0  0  0  0  0  0
  147.2348  140.9647  152.4126 H   0  0  0  0  0  0  0  0  0  0  0  0
  148.3508  141.6764  154.8618 H   0  0  0  0  0  0  0  0  0  0  0  0
  154.7268  138.7860  155.1651 H   0  0  0  0  0  0  0  0  0  0  0  0
  149.8741  137.2519  153.8833 H   0  0  0  0  0  0  0  0  0  0  0  0
  145.8248  138.3499  151.9103 H   0  0  0  0  0  0  0  0  0  0  0  0
  146.3181  137.0739  153.0024 H   0  0  0  0  0  0  0  0  0  0  0  0
  144.4989  139.0715  153.3354 H   0  0  0  0  0  0  0  0  0  0  0  0
  145.3630  140.6282  153.5557 H   0  0  0  0  0  0  0  0  0  0  0  0
  149.7114  140.5013  152.6854 H   0  0  0  0  0  0  0  0  0  0  0  0
  1  2  2  0  0  0  0
  1 22  1  0  0  0  0
  2 17  1  0  0  0  0
  2  3  1  0  0  0  0
  3  4  2  0  0  0  0
  4  5  1  0  0  0  0
  4 23  1  0  0  0  0
  5  6  1  0  0  0  0
  5 15  1  0  0  0  0
  6 18  1  0  0  0  0
  6 13  1  0  0  0  0
  6  7  1  0  0  0  0
  7  8  1  0  0  0  0
  8 19  1  0  0  0  0
  8  9  1  0  0  0  0
  8 11  1  0  0  0  0
  9 10  1  0  0  0  0
  9 24  1  0  0  0  0
  9 25  1  0  0  0  0
 10 26  1  0  0  0  0
 11 20  1  0  0  0  0
 11 12  1  0  0  0  0
 11 13  1  0  0  0  0
 12 27  1  0  0  0  0
 13 21  1  0  0  0  0
 13 14  1  0  0  0  0
 14 28  1  0  0  0  0
 15 16  2  0  0  0  0
 15 17  1  0  0  0  0
M  CHG  1  17  -1
M  END
> <s_m_source_file>
AV-unprocessed.smi

> <i_m_source_file_index>
72

> <i_lp_mmshare_version>
43012

> <i_f3d_flags>
0

> <s_epik_input>
W05IMl1jMW5bY0hdbihjKD1PKW4xKVtDQEBIXTJPW0NASF0oW0NIMl1bT0hdKVtDQEBIXShbT0hdKVtDQEhdMltPSF0=

> <s_epik_cmdline>
J2VwaWtfcHl0aG9uJywgJy1waCcsICc3LjAnLCAnLXRuJywgJzgnLCAnLW1hJywgJzIwMCcsICctbWV0YWxfYmluZGluZycsICctaW1hZScsICc8aW5maWxlLm1hZT4nLCAnLW9tYWUnLCAnPG91dGZpbGUubWFlPic=

> <r_lp_tautomer_probability>
7.17554e-07

> <r_epik_Ionization_Penalty>
12.8705

> <r_epik_Ionization_Penalty_Charging>
5.64144

> <r_epik_Ionization_Penalty_Neutral>
7.22905

> <r_epik_State_Penalty>
3.30104

> <r_epik_Charging_Adjusted_Penalty>
8.94249

> <i_epik_Tot_Q>
-1

> <i_epik_Tot_abs_Q>
1

> <r_epik_Metal_State_Penalty>
0.529074

> <b_epik_Metal_Only>
1

> <s_epik_Chemistry_Notes>
This compound contains an acetal/aminal-like group ( X-CH(R)-Y where X, Y are N, S, or O) that may be acid/base labile, releasing an aldehyde.

> <s_lp_Force_Field>
OPLS_2005

> <r_lp_Energy>
36.7485

> <b_lp_Chiralities_Consistent>
1

> <s_lp_Variant>
AV-unprocessed.smi:72-59

> <Gold.Version>
5.8.1

> <Gold.Id.Protein>
6NUR|6NUR_protein|mol2

> <Gold.PLP.Fitness>
53.4203

> <Gold.PLP.PLP>
-30.6862

> <Gold.PLP.part.hbond>
-8.8375

> <Gold.PLP.part.metal>
0.0000

> <Gold.PLP.part.buried>
-2.5840

> <Gold.PLP.part.nonpolar>
-21.1036

> <Gold.PLP.part.repulsive>
0.3356

> <Gold.PLP.ligand.clash>
0.0000

> <Gold.PLP.ligand.torsion>
0.0891

> <Gold.PLP.Chemscore.Hbond>
6.6165

> <Gold.PLP.Chemscore.CHOScore>
1.0000

> <Gold.PLP.Chemscore.Metal>
0.0000

> <Gold.Chemscore.Hbonds>
donor molecule, donor type, donor heavy atom, donor atom, acceptor molecule, acceptor atom, score
      L1  H    10    26       P1 10175  1.00
      L1  H    12    27       P1 10175  1.00
      L1  H    14    28       P1  7957  0.88
      P1  H  7997  8010       L1    17  1.95
      P1  H  8011  8017       L1    14  1.00
      P1  H 10752 10763       L1     3  0.78
      L1  C     4    23       P1  7948  1.00

> <Gold.PLP.Chemscore.Internal.Correction>
0.0629

> <Gold.Rescore>
     Score         DG    S(hbond)    S(metal)    S(lipo)     H(rot)  DE(clash)    DE(int)     intcor
     10.58     -10.92       3.82        0.00      25.81       4.04       0.02       0.32       ----

> <Gold.Chemscore.Fitness>
10.5847

> <Gold.Chemscore.DG>
-10.9215

> <Gold.Chemscore.ZeroCoef>
-5.4800

> <Gold.Chemscore.Hbond>
3.8219

> <Gold.Chemscore.Metal>
0.0000

> <Gold.Chemscore.Lipo>
25.8077

> <Gold.Chemscore.Internal_Hbond>
0.0000

> <Gold.Chemscore.DEClash>
0.0195

> <Gold.Chemscore.DEInternal>
0.3174

> <Gold.Chemscore.Rot>
4.0403

> <Gold.Chemscore.Internal.Correction>
   9.000000E+99

> <Gold.Chemscore.Hbonds>
donor molecule, donor type, donor heavy atom, donor atom, acceptor molecule, acceptor atom, score
      L1  H    10    26       P1 10175  1.00
      L1  H    12    27       P1 10175  0.92
      L1  H    14    28       P1  7957  0.85
      P1  H  7997  8010       L1    17  0.32
      P1  H  8011  8017       L1    14  0.24
      P1  H 10752 10763       L1     3  0.23

> <Gold.Chemscore.Hbond.Weighted>
-12.7651

> <Gold.Chemscore.Metal.Weighted>
-0.0000

> <Gold.Chemscore.Lipo.Weighted>
-3.0195

> <Gold.Chemscore.Internal_Hbond.Weighted>
0.0000

> <Gold.Chemscore.DEClash.Weighted>
0.0195

> <Gold.Chemscore.DEInternal.Weighted>
0.3174

> <Gold.Chemscore.Rot.Weighted>
10.3431

> <Gold.Chemscore.Internal.Correction.Weighted>
   9.000000E+99

> <Gold.Protein.RotatedTorsions>
[ 6907 6896 6895 6894 ] final -167.32 input  -60.11 | X-H torsion
[ 7974 7965 7964 7962 ] final  144.11 input  175.53 | X-H torsion
[ 8008 7997 7996 7995 ] final   81.50 input   59.86 | X-H torsion
[ 10167 10162 10161 10158 ] final   44.62 input  -65.29 | X-H torsion
[ 10718 10713 10712 10709 ] final -164.10 input   66.30 | X-H torsion
[ 10763 10752 10751 10750 ] final   36.39 input  -60.55 | X-H torsion
[ 11005 11000 10999 10996 ] final  -80.58 input  -57.11 | X-H torsion

> <Gold.Protein.ActiveResidues>
 VAL166  LYS551  ARG553  GLY616  TRP617  ASP618  TYR619  PRO620  LYS621  CYS622 
 ASP623  PHE694  ASN695  SER759  ASP760  ASP761  ALA762  ILE779  LEU786  VAL792 
 PHE793  MET794  SER795  GLU796  ALA797  LYS798  CYS799  TRP800  GLU811  SER814 

> <Gold.Protein.RotatedAtoms>
  151.4576  133.3601  159.2804 H   0  0  0  0  0  0  0  0  0  0  0  0  # atno 6907 bound_to 6896
  150.9047  134.8463  159.7395 H   0  0  0  0  0  0  0  0  0  0  0  0  # atno 6908 bound_to 6896
  152.4899  134.4500  159.9623 H   0  0  0  0  0  0  0  0  0  0  0  0  # atno 6909 bound_to 6896
  144.8864  139.5623  143.5819 H   0  0  0  0  0  0  0  0  0  0  0  0  # atno 7974 bound_to 7965
  155.8980  140.3435  155.6005 H   0  0  0  0  0  0  0  0  0  0  0  0  # atno 8008 bound_to 7997
  155.7533  140.0823  157.2209 H   0  0  0  0  0  0  0  0  0  0  0  0  # atno 8009 bound_to 7997
  154.4040  140.1549  156.2736 H   0  0  0  0  0  0  0  0  0  0  0  0  # atno 8010 bound_to 7997
  140.3325  144.2571  150.6166 H   0  0  0  0  0  0  0  0  0  0  0  0  # atno 10167 bound_to 10162
  156.6342  130.8942  151.2983 H   0  0  0  0  0  0  0  0  0  0  0  0  # atno 10718 bound_to 10713
  153.0079  135.6307  154.1978 H   0  0  0  0  0  0  0  0  0  0  0  0  # atno 10763 bound_to 10752
  154.1721  135.2818  155.3079 H   0  0  0  0  0  0  0  0  0  0  0  0  # atno 10764 bound_to 10752
  154.5900  135.5620  153.7329 H   0  0  0  0  0  0  0  0  0  0  0  0  # atno 10765 bound_to 10752
  141.1668  133.7157  156.8294 H   0  0  0  0  0  0  0  0  0  0  0  0  # atno 11005 bound_to 11000
  146.3027  139.7477  142.9079 LP  0  0  0  0  0  0  0  0  0  0  0  0  # atno 17320 bound_to 7965
  145.3862  141.0366  143.3149 LP  0  0  0  0  0  0  0  0  0  0  0  0  # atno 17321 bound_to 7965
  140.5384  143.2228  151.8125 LP  0  0  0  0  0  0  0  0  0  0  0  0  # atno 17342 bound_to 10162
  139.4854  144.4632  151.9516 LP  0  0  0  0  0  0  0  0  0  0  0  0  # atno 17343 bound_to 10162
  157.7190  130.9534  150.1366 LP  0  0  0  0  0  0  0  0  0  0  0  0  # atno 17370 bound_to 10713
  156.2210  130.3674  149.8556 LP  0  0  0  0  0  0  0  0  0  0  0  0  # atno 17371 bound_to 10713
  140.2062  134.8861  157.3224 LP  0  0  0  0  0  0  0  0  0  0  0  0  # atno 17394 bound_to 11000
  140.2135  134.4110  155.7601 LP  0  0  0  0  0  0  0  0  0  0  0  0  # atno 17395 bound_to 11000

$$$$
