AV-unprocessed.smi:901|AV-procd|sdf|4090|dock9
  -GOLD-   22720 1583D 1   1.00000     0.00000
 Structure written by MMmdl.
 43 44  0  0  0  0  0  0  0  0  1 V2000
  152.5161  143.4164  158.9100 C   0  0  0  0  0  0  0  0  0  0  0  0
  152.0799  141.9655  158.8602 C   0  0  0  0  0  0  0  0  0  0  0  0
  152.8723  141.0370  159.7640 C   0  0  0  0  0  0  0  0  0  0  0  0
  151.0688  141.5598  158.0680 C   0  0  0  0  0  0  0  0  0  0  0  0
  150.5524  140.1737  157.9117 C   0  0  2  0  0  0  0  0  0  0  0  0
  151.4709  138.9672  158.0034 C   0  0  1  0  0  0  0  0  0  0  0  0
  150.9719  137.7392  158.7014 C   0  0  0  0  0  0  0  0  0  0  0  0
  151.6803  136.7534  158.9062 O   0  0  0  0  0  0  0  0  0  0  0  0
  149.6781  137.8295  159.0586 N   0  0  0  0  0  0  0  0  0  0  0  0
  148.8730  136.8721  159.7286 C   0  0  0  0  0  0  0  0  0  0  0  0
  148.6294  135.5310  159.3048 C   0  0  0  0  0  0  0  0  0  0  0  0
  147.8061  135.0401  160.2773 C   0  0  0  0  0  0  0  0  0  0  0  0
  147.6000  136.0489  161.1969 N   0  0  0  0  0  0  0  0  0  0  0  0
  146.8027  136.0132  162.4100 C   0  0  0  0  0  0  0  0  0  0  0  0
  145.8009  137.1685  162.4466 C   0  0  0  0  0  0  0  0  0  0  0  0
  144.5056  136.8562  162.3541 N   0  0  0  0  0  0  0  0  0  0  0  0
  146.1907  138.3288  162.5571 O   0  0  0  0  0  0  0  0  0  0  0  0
  148.2566  137.1802  160.8568 N   0  0  0  0  0  0  0  0  0  0  0  0
  150.8632  139.3666  156.6626 C   0  0  0  0  0  0  0  0  0  0  0  0
  149.7377  138.5852  155.9940 C   0  0  0  0  0  0  0  0  0  0  0  0
  151.8081  139.8978  155.5948 C   0  0  0  0  0  0  0  0  0  0  0  0
  152.4091  143.8091  159.9215 H   0  0  0  0  0  0  0  0  0  0  0  0
  151.9216  144.0388  158.2401 H   0  0  0  0  0  0  0  0  0  0  0  0
  153.5623  143.5058  158.6160 H   0  0  0  0  0  0  0  0  0  0  0  0
  153.9105  140.9887  159.4351 H   0  0  0  0  0  0  0  0  0  0  0  0
  152.4737  140.0236  159.7785 H   0  0  0  0  0  0  0  0  0  0  0  0
  152.8565  141.4100  160.7883 H   0  0  0  0  0  0  0  0  0  0  0  0
  150.5572  142.3026  157.4736 H   0  0  0  0  0  0  0  0  0  0  0  0
  149.5396  140.0845  158.3007 H   0  0  0  0  0  0  0  0  0  0  0  0
  152.5358  139.1670  158.1184 H   0  0  0  0  0  0  0  0  0  0  0  0
  149.2129  138.6948  158.8258 H   0  0  0  0  0  0  0  0  0  0  0  0
  148.9887  134.9999  158.4368 H   0  0  0  0  0  0  0  0  0  0  0  0
  147.3559  134.0651  160.3921 H   0  0  0  0  0  0  0  0  0  0  0  0
  146.2722  135.0613  162.4697 H   0  0  0  0  0  0  0  0  0  0  0  0
  147.4704  136.0616  163.2712 H   0  0  0  0  0  0  0  0  0  0  0  0
  143.8067  137.5843  162.3713 H   0  0  0  0  0  0  0  0  0  0  0  0
  144.2302  135.8887  162.2647 H   0  0  0  0  0  0  0  0  0  0  0  0
  150.1165  137.6445  155.5936 H   0  0  0  0  0  0  0  0  0  0  0  0
  149.3100  139.1623  155.1738 H   0  0  0  0  0  0  0  0  0  0  0  0
  148.9295  138.3655  156.6905 H   0  0  0  0  0  0  0  0  0  0  0  0
  152.1961  139.0771  154.9909 H   0  0  0  0  0  0  0  0  0  0  0  0
  152.6557  140.4174  156.0425 H   0  0  0  0  0  0  0  0  0  0  0  0
  151.2874  140.5966  154.9395 H   0  0  0  0  0  0  0  0  0  0  0  0
  1  2  1  0  0  0  0
  1 22  1  0  0  0  0
  1 23  1  0  0  0  0
  1 24  1  0  0  0  0
  2  3  1  0  0  0  0
  2  4  2  0  0  0  0
  3 25  1  0  0  0  0
  3 26  1  0  0  0  0
  3 27  1  0  0  0  0
  4  5  1  0  0  0  0
  4 28  1  0  0  0  0
  5 19  1  0  0  0  0
  5  6  1  0  0  0  0
  5 29  1  0  0  0  0
  6  7  1  0  0  0  0
  6 19  1  0  0  0  0
  6 30  1  0  0  0  0
  7  8  2  0  0  0  0
  7  9  1  0  0  0  0
  9 10  1  0  0  0  0
  9 31  1  0  0  0  0
 10 18  2  0  0  0  0
 10 11  1  0  0  0  0
 11 12  2  0  0  0  0
 11 32  1  0  0  0  0
 12 13  1  0  0  0  0
 12 33  1  0  0  0  0
 13 14  1  0  0  0  0
 13 18  1  0  0  0  0
 14 15  1  0  0  0  0
 14 34  1  0  0  0  0
 14 35  1  0  0  0  0
 15 16  1  0  0  0  0
 15 17  2  0  0  0  0
 16 36  1  0  0  0  0
 16 37  1  0  0  0  0
 19 20  1  0  0  0  0
 19 21  1  0  0  0  0
 20 38  1  0  0  0  0
 20 39  1  0  0  0  0
 20 40  1  0  0  0  0
 21 41  1  0  0  0  0
 21 42  1  0  0  0  0
 21 43  1  0  0  0  0
M  END
> <s_m_source_file>
AV-unprocessed.smi

> <i_m_source_file_index>
901

> <i_lp_mmshare_version>
43012

> <i_f3d_flags>
0

> <s_epik_input>
W0NIM11DKFtDSDNdKT1bQ0hdW0NAQEhdKEMxKFtDSDNdKVtDSDNdKVtDQEhdMUMoPU8pW05IXWMyW2NIXVtjSF1uKG4yKVtDSDJdQyg9TylbTkgyXQ==

> <s_epik_cmdline>
J2VwaWtfcHl0aG9uJywgJy1waCcsICc3LjAnLCAnLXRuJywgJzgnLCAnLW1hJywgJzIwMCcsICctbWV0YWxfYmluZGluZycsICctaW1hZScsICc8aW5maWxlLm1hZT4nLCAnLW9tYWUnLCAnPG91dGZpbGUubWFlPic=

> <r_lp_tautomer_probability>
1

> <r_epik_Ionization_Penalty>
1.01454e-05

> <r_epik_Ionization_Penalty_Charging>
0

> <r_epik_Ionization_Penalty_Neutral>
1.01454e-05

> <r_epik_State_Penalty>
-0

> <r_epik_Charging_Adjusted_Penalty>
0

> <i_epik_Tot_Q>
0

> <i_epik_Tot_abs_Q>
0

> <r_epik_Metal_State_Penalty>
-0

> <b_epik_Metal_Only>
0

> <s_lp_Force_Field>
OPLS_2005

> <r_lp_Energy>
20.5353

> <b_lp_Chiralities_Consistent>
1

> <s_lp_Variant>
AV-unprocessed.smi:901-1

> <Gold.Version>
5.8.1

> <Gold.Id.Protein>
6NUR|6NUR_protein|mol2

> <Gold.PLP.Fitness>
41.8048

> <Gold.PLP.PLP>
-36.3781

> <Gold.PLP.part.hbond>
-4.4123

> <Gold.PLP.part.metal>
0.0000

> <Gold.PLP.part.buried>
-3.8615

> <Gold.PLP.part.nonpolar>
-28.1637

> <Gold.PLP.part.repulsive>
0.4000

> <Gold.PLP.ligand.clash>
0.0000

> <Gold.PLP.ligand.torsion>
0.9481

> <Gold.PLP.Chemscore.Hbond>
2.3836

> <Gold.PLP.Chemscore.CHOScore>
0.0000

> <Gold.PLP.Chemscore.Metal>
0.0000

> <Gold.Chemscore.Hbonds>
donor molecule, donor type, donor heavy atom, donor atom, acceptor molecule, acceptor atom, score
      P1  H  6896  6908       L1     8  0.88
      P1  H  6931  6943       L1    18  0.91
      P1  H  6934  6947       L1    18  0.48

> <Gold.PLP.Chemscore.Internal.Correction>
0.1719

> <Gold.Rescore>
     Score         DG    S(hbond)    S(metal)    S(lipo)     H(rot)  DE(clash)    DE(int)     intcor
     15.55     -16.41       2.27        0.00      75.31       2.13       0.00       0.86       ----

> <Gold.Chemscore.Fitness>
15.5521

> <Gold.Chemscore.DG>
-16.4078

> <Gold.Chemscore.ZeroCoef>
-5.4800

> <Gold.Chemscore.Hbond>
2.2671

> <Gold.Chemscore.Metal>
0.0000

> <Gold.Chemscore.Lipo>
75.3061

> <Gold.Chemscore.Internal_Hbond>
0.0000

> <Gold.Chemscore.DEClash>
0.0000

> <Gold.Chemscore.DEInternal>
0.8557

> <Gold.Chemscore.Rot>
2.1309

> <Gold.Chemscore.Internal.Correction>
   9.000000E+99

> <Gold.Chemscore.Hbonds>
donor molecule, donor type, donor heavy atom, donor atom, acceptor molecule, acceptor atom, score
      P1  H  6896  6908       L1     8  0.86
      P1  H  6931  6943       L1    18  0.83
      P1  H  6934  6947       L1    18  0.43

> <Gold.Chemscore.Hbond.Weighted>
-7.5721

> <Gold.Chemscore.Metal.Weighted>
-0.0000

> <Gold.Chemscore.Lipo.Weighted>
-8.8108

> <Gold.Chemscore.Internal_Hbond.Weighted>
0.0000

> <Gold.Chemscore.DEClash.Weighted>
0.0000

> <Gold.Chemscore.DEInternal.Weighted>
0.8557

> <Gold.Chemscore.Rot.Weighted>
5.4552

> <Gold.Chemscore.Internal.Correction.Weighted>
   9.000000E+99

> <Gold.Protein.RotatedTorsions>
[ 6907 6896 6895 6894 ] final -131.36 input  -60.11 | X-H torsion
[ 7974 7965 7964 7962 ] final -173.69 input  175.53 | X-H torsion
[ 8008 7997 7996 7995 ] final  -68.97 input   59.86 | X-H torsion
[ 10167 10162 10161 10158 ] final -101.68 input  -65.29 | X-H torsion
[ 10718 10713 10712 10709 ] final  -86.33 input   66.30 | X-H torsion
[ 10763 10752 10751 10750 ] final   60.33 input  -60.55 | X-H torsion
[ 11005 11000 10999 10996 ] final  161.54 input  -57.11 | X-H torsion

> <Gold.Protein.ActiveResidues>
 VAL166  LYS551  ARG553  GLY616  TRP617  ASP618  TYR619  PRO620  LYS621  CYS622 
 ASP623  PHE694  ASN695  SER759  ASP760  ASP761  ALA762  ILE779  LEU786  VAL792 
 PHE793  MET794  SER795  GLU796  ALA797  LYS798  CYS799  TRP800  GLU811  SER814 

> <Gold.Protein.RotatedAtoms>
  150.9501  133.6559  159.2773 H   0  0  0  0  0  0  0  0  0  0  0  0  # atno 6907 bound_to 6896
  151.3918  135.0956  159.9538 H   0  0  0  0  0  0  0  0  0  0  0  0  # atno 6908 bound_to 6896
  152.5106  133.9013  159.7497 H   0  0  0  0  0  0  0  0  0  0  0  0  # atno 6909 bound_to 6896
  144.7136  140.1584  143.6378 H   0  0  0  0  0  0  0  0  0  0  0  0  # atno 7974 bound_to 7965
  154.4905  140.0862  156.7583 H   0  0  0  0  0  0  0  0  0  0  0  0  # atno 8008 bound_to 7997
  155.4243  140.3447  155.4256 H   0  0  0  0  0  0  0  0  0  0  0  0  # atno 8009 bound_to 7997
  156.1323  140.1505  156.9035 H   0  0  0  0  0  0  0  0  0  0  0  0  # atno 8010 bound_to 7997
  140.2387  143.3554  152.0821 H   0  0  0  0  0  0  0  0  0  0  0  0  # atno 10167 bound_to 10162
  155.9990  130.4761  150.4699 H   0  0  0  0  0  0  0  0  0  0  0  0  # atno 10718 bound_to 10713
  152.9918  135.5540  154.5857 H   0  0  0  0  0  0  0  0  0  0  0  0  # atno 10763 bound_to 10752
  154.5229  135.2809  155.1249 H   0  0  0  0  0  0  0  0  0  0  0  0  # atno 10764 bound_to 10752
  154.2595  135.6384  153.5322 H   0  0  0  0  0  0  0  0  0  0  0  0  # atno 10765 bound_to 10752
  140.2168  134.8226  157.3178 H   0  0  0  0  0  0  0  0  0  0  0  0  # atno 11005 bound_to 11000
  145.9052  139.2454  143.1470 LP  0  0  0  0  0  0  0  0  0  0  0  0  # atno 17320 bound_to 7965
  145.9771  140.8713  143.0133 LP  0  0  0  0  0  0  0  0  0  0  0  0  # atno 17321 bound_to 7965
  139.5084  144.6850  151.5911 LP  0  0  0  0  0  0  0  0  0  0  0  0  # atno 17342 bound_to 10162
  140.6130  143.9401  150.6467 LP  0  0  0  0  0  0  0  0  0  0  0  0  # atno 17343 bound_to 10162
  157.2715  131.0588  151.2257 LP  0  0  0  0  0  0  0  0  0  0  0  0  # atno 17370 bound_to 10713
  157.3335  130.6997  149.6339 LP  0  0  0  0  0  0  0  0  0  0  0  0  # atno 17371 bound_to 10713
  140.1892  134.4392  155.7725 LP  0  0  0  0  0  0  0  0  0  0  0  0  # atno 17394 bound_to 11000
  141.2224  133.7019  156.7999 LP  0  0  0  0  0  0  0  0  0  0  0  0  # atno 17395 bound_to 11000

$$$$
