AV-unprocessed.smi:3085|AV-procd|sdf|11750|dock8
  -GOLD-   2272017143D 1   1.00000     0.00000
 Structure written by MMmdl.
 28 29  0  0  0  0  0  0  0  0  2 V2000
  151.7455  144.4560  158.5329 C   0  0  0  0  0  0  0  0  0  0  0  0
  150.8875  143.1957  158.6881 C   0  0  0  0  0  0  0  0  0  0  0  0
  150.8161  142.3934  157.4306 C   0  0  0  0  0  0  0  0  0  0  0  0
  151.2980  141.1645  157.2779 N   0  0  0  0  0  0  0  0  0  0  0  0
  150.9786  140.9375  155.9677 C   0  0  0  0  0  0  0  0  0  0  0  0
  151.3605  139.6727  155.2623 C   0  0  2  0  0  0  0  0  0  0  0  0
  150.2276  139.1425  154.3633 C   0  0  0  0  0  0  0  0  0  0  0  0
  150.6236  137.8526  153.7658 N   0  3  0  0  0  0  0  0  0  0  0  0
  151.0215  136.8771  154.8003 C   0  0  0  0  0  0  0  0  0  0  0  0
  152.1200  137.4744  155.6982 C   0  0  0  0  0  0  0  0  0  0  0  0
  151.6693  138.7024  156.2615 O   0  0  0  0  0  0  0  0  0  0  0  0
  150.3761  141.9441  155.3334 N   0  0  0  0  0  0  0  0  0  0  0  0
  150.2736  142.8712  156.3089 N   0  0  0  0  0  0  0  0  0  0  0  0
  149.8538  143.7791  156.1667 H   0  0  0  0  0  0  0  0  0  0  0  0
  151.7802  145.0201  159.4650 H   0  0  0  0  0  0  0  0  0  0  0  0
  151.3433  145.1124  157.7605 H   0  0  0  0  0  0  0  0  0  0  0  0
  152.7702  144.2033  158.2584 H   0  0  0  0  0  0  0  0  0  0  0  0
  151.2933  142.5665  159.4811 H   0  0  0  0  0  0  0  0  0  0  0  0
  149.8772  143.4695  158.9951 H   0  0  0  0  0  0  0  0  0  0  0  0
  152.2531  139.8667  154.6643 H   0  0  0  0  0  0  0  0  0  0  0  0
  149.3143  139.0007  154.9433 H   0  0  0  0  0  0  0  0  0  0  0  0
  149.9990  139.8543  153.5698 H   0  0  0  0  0  0  0  0  0  0  0  0
  149.8537  137.4796  153.2285 H   0  0  0  0  0  0  0  0  0  0  0  0
  150.1485  136.6123  155.3985 H   0  0  0  0  0  0  0  0  0  0  0  0
  151.3721  135.9633  154.3202 H   0  0  0  0  0  0  0  0  0  0  0  0
  152.3637  136.7828  156.5049 H   0  0  0  0  0  0  0  0  0  0  0  0
  153.0383  137.6380  155.1318 H   0  0  0  0  0  0  0  0  0  0  0  0
  151.4093  138.0097  153.1506 H   0  0  0  0  0  0  0  0  0  0  0  0
  1  2  1  0  0  0  0
  1 15  1  0  0  0  0
  1 16  1  0  0  0  0
  1 17  1  0  0  0  0
  2  3  1  0  0  0  0
  2 18  1  0  0  0  0
  2 19  1  0  0  0  0
  3 13  1  0  0  0  0
  3  4  2  0  0  0  0
  4  5  1  0  0  0  0
  5  6  1  0  0  0  0
  5 12  2  0  0  0  0
  6 11  1  0  0  0  0
  6  7  1  0  0  0  0
  6 20  1  0  0  0  0
  7  8  1  0  0  0  0
  7 21  1  0  0  0  0
  7 22  1  0  0  0  0
  8  9  1  0  0  0  0
  8 23  1  0  0  0  0
  8 28  1  0  0  0  0
  9 10  1  0  0  0  0
  9 24  1  0  0  0  0
  9 25  1  0  0  0  0
 10 11  1  0  0  0  0
 10 26  1  0  0  0  0
 10 27  1  0  0  0  0
 12 13  1  0  0  0  0
 13 14  1  0  0  0  0
M  CHG  1   8   1
M  END
> <s_m_source_file>
AV-unprocessed.smi

> <i_m_source_file_index>
3085

> <i_lp_mmshare_version>
43012

> <i_f3d_flags>
0

> <s_epik_input>
W0NIM11bQ0gyXWMxbmMobltuSF0xKVtDQEBIXTJbQ0gyXVtOSF1bQ0gyXVtDSDJdTzI=

> <s_epik_cmdline>
J2VwaWtfcHl0aG9uJywgJy1waCcsICc3LjAnLCAnLXRuJywgJzgnLCAnLW1hJywgJzIwMCcsICctbWV0YWxfYmluZGluZycsICctaW1hZScsICc8aW5maWxlLm1hZT4nLCAnLW9tYWUnLCAnPG91dGZpbGUubWFlPic=

> <r_lp_tautomer_probability>
0.948284

> <r_epik_Ionization_Penalty>
0.107151

> <r_epik_Ionization_Penalty_Charging>
0.100865

> <r_epik_Ionization_Penalty_Neutral>
0.00628602

> <r_epik_State_Penalty>
0.429695

> <r_epik_Charging_Adjusted_Penalty>
0.530559

> <i_epik_Tot_Q>
1

> <i_epik_Tot_abs_Q>
1

> <r_epik_Metal_State_Penalty>
0.651827

> <b_epik_Metal_Only>
0

> <s_lp_Force_Field>
OPLS_2005

> <r_lp_Energy>
10.1089

> <b_lp_Chiralities_Consistent>
1

> <s_lp_Variant>
AV-unprocessed.smi:3085-1

> <Gold.Version>
5.8.1

> <Gold.Id.Protein>
6NUR|6NUR_protein|mol2

> <Gold.PLP.Fitness>
32.0147

> <Gold.PLP.PLP>
-23.9167

> <Gold.PLP.part.hbond>
-3.8444

> <Gold.PLP.part.metal>
0.0000

> <Gold.PLP.part.buried>
-0.1232

> <Gold.PLP.part.nonpolar>
-20.5526

> <Gold.PLP.part.repulsive>
0.3271

> <Gold.PLP.ligand.clash>
0.0000

> <Gold.PLP.ligand.torsion>
0.4364

> <Gold.PLP.Chemscore.Hbond>
2.9840

> <Gold.PLP.Chemscore.CHOScore>
0.0000

> <Gold.PLP.Chemscore.Metal>
0.0000

> <Gold.Chemscore.Hbonds>
donor molecule, donor type, donor heavy atom, donor atom, acceptor molecule, acceptor atom, score
      L1  H     8    23       P1  7948  2.00
      L1  H    13    14       P1  8028  0.76

> <Gold.PLP.Chemscore.Internal.Correction>
0.0188

> <Gold.Rescore>
     Score         DG    S(hbond)    S(metal)    S(lipo)     H(rot)  DE(clash)    DE(int)     intcor
     12.86     -13.31       1.64        0.00      48.53       1.30       0.06       0.40       ----

> <Gold.Chemscore.Fitness>
12.8552

> <Gold.Chemscore.DG>
-13.3134

> <Gold.Chemscore.ZeroCoef>
-5.4800

> <Gold.Chemscore.Hbond>
1.6427

> <Gold.Chemscore.Metal>
0.0000

> <Gold.Chemscore.Lipo>
48.5266

> <Gold.Chemscore.Internal_Hbond>
0.0000

> <Gold.Chemscore.DEClash>
0.0625

> <Gold.Chemscore.DEInternal>
0.3958

> <Gold.Chemscore.Rot>
1.3011

> <Gold.Chemscore.Internal.Correction>
   9.000000E+99

> <Gold.Chemscore.Hbonds>
donor molecule, donor type, donor heavy atom, donor atom, acceptor molecule, acceptor atom, score
      L1  H     8    23       P1  7948  0.46
      L1  H    13    14       P1  8028  0.74

> <Gold.Chemscore.Hbond.Weighted>
-5.4866

> <Gold.Chemscore.Metal.Weighted>
-0.0000

> <Gold.Chemscore.Lipo.Weighted>
-5.6776

> <Gold.Chemscore.Internal_Hbond.Weighted>
0.0000

> <Gold.Chemscore.DEClash.Weighted>
0.0625

> <Gold.Chemscore.DEInternal.Weighted>
0.3958

> <Gold.Chemscore.Rot.Weighted>
3.3308

> <Gold.Chemscore.Internal.Correction.Weighted>
   9.000000E+99

> <Gold.Protein.RotatedTorsions>
[ 6907 6896 6895 6894 ] final  -40.37 input  -60.11 | X-H torsion
[ 7974 7965 7964 7962 ] final -104.76 input  175.53 | X-H torsion
[ 8008 7997 7996 7995 ] final -164.87 input   59.86 | X-H torsion
[ 10167 10162 10161 10158 ] final -133.41 input  -65.29 | X-H torsion
[ 10718 10713 10712 10709 ] final -161.90 input   66.30 | X-H torsion
[ 10763 10752 10751 10750 ] final -129.91 input  -60.55 | X-H torsion
[ 11005 11000 10999 10996 ] final  -91.12 input  -57.11 | X-H torsion

> <Gold.Protein.ActiveResidues>
 VAL166  LYS551  ARG553  GLY616  TRP617  ASP618  TYR619  PRO620  LYS621  CYS622 
 ASP623  PHE694  ASN695  SER759  ASP760  ASP761  ALA762  ILE779  LEU786  VAL792 
 PHE793  MET794  SER795  GLU796  ALA797  LYS798  CYS799  TRP800  GLU811  SER814 

> <Gold.Protein.RotatedAtoms>
  150.9792  134.9151  159.7833 H   0  0  0  0  0  0  0  0  0  0  0  0  # atno 6907 bound_to 6896
  152.5216  134.3434  159.9235 H   0  0  0  0  0  0  0  0  0  0  0  0  # atno 6908 bound_to 6896
  151.3441  133.3910  159.2708 H   0  0  0  0  0  0  0  0  0  0  0  0  # atno 6909 bound_to 6896
  145.2391  140.9198  143.3160 H   0  0  0  0  0  0  0  0  0  0  0  0  # atno 7974 bound_to 7965
  155.8418  140.0949  157.1730 H   0  0  0  0  0  0  0  0  0  0  0  0  # atno 8008 bound_to 7997
  154.3982  140.1399  156.3799 H   0  0  0  0  0  0  0  0  0  0  0  0  # atno 8009 bound_to 7997
  155.8056  140.3451  155.5430 H   0  0  0  0  0  0  0  0  0  0  0  0  # atno 8010 bound_to 7997
  139.8986  143.6635  152.2599 H   0  0  0  0  0  0  0  0  0  0  0  0  # atno 10167 bound_to 10162
  156.6028  130.8818  151.2918 H   0  0  0  0  0  0  0  0  0  0  0  0  # atno 10718 bound_to 10713
  154.8757  135.3880  154.3996 H   0  0  0  0  0  0  0  0  0  0  0  0  # atno 10763 bound_to 10752
  153.4722  135.7030  153.5992 H   0  0  0  0  0  0  0  0  0  0  0  0  # atno 10764 bound_to 10752
  153.4444  135.3848  155.2215 H   0  0  0  0  0  0  0  0  0  0  0  0  # atno 10765 bound_to 10752
  141.1551  133.7735  156.9834 H   0  0  0  0  0  0  0  0  0  0  0  0  # atno 11005 bound_to 11000
  144.9606  139.3984  143.6358 LP  0  0  0  0  0  0  0  0  0  0  0  0  # atno 17320 bound_to 7965
  146.3333  139.8657  142.8848 LP  0  0  0  0  0  0  0  0  0  0  0  0  # atno 17321 bound_to 7965
  139.7046  144.7630  151.1215 LP  0  0  0  0  0  0  0  0  0  0  0  0  # atno 17342 bound_to 10162
  140.7712  143.5412  150.9310 LP  0  0  0  0  0  0  0  0  0  0  0  0  # atno 17343 bound_to 10162
  157.7275  130.9644  150.1701 LP  0  0  0  0  0  0  0  0  0  0  0  0  # atno 17370 bound_to 10713
  156.2455  130.3695  149.8290 LP  0  0  0  0  0  0  0  0  0  0  0  0  # atno 17371 bound_to 10713
  140.1051  134.9512  157.1981 LP  0  0  0  0  0  0  0  0  0  0  0  0  # atno 17394 bound_to 11000
  140.3267  134.2855  155.7235 LP  0  0  0  0  0  0  0  0  0  0  0  0  # atno 17395 bound_to 11000

$$$$
