AV-unprocessed.smi:72|AV-procd|sdf|677|dock4
  -GOLD-   2262016583D 1   1.00000     0.00000
 Structure written by MMmdl.
 29 30  0  0  0  0  0  0  0  0  1 V2000
  146.8165  140.1604  152.0684 N   0  0  0  0  0  0  0  0  0  0  0  0
  146.3970  138.9471  152.0035 C   0  0  0  0  0  0  0  0  0  0  0  0
  147.0368  137.9039  151.3176 N   0  0  0  0  0  0  0  0  0  0  0  0
  146.5002  136.7226  151.3375 C   0  0  0  0  0  0  0  0  0  0  0  0
  145.2593  136.4466  152.0483 N   0  0  0  0  0  0  0  0  0  0  0  0
  144.6286  135.0653  152.0798 C   0  0  2  0  0  0  0  0  0  0  0  0
  145.5972  134.1044  152.3927 O   0  0  0  0  0  0  0  0  0  0  0  0
  145.8928  133.3110  151.2461 C   0  0  1  0  0  0  0  0  0  0  0  0
  146.4447  131.9469  151.6867 C   0  0  0  0  0  0  0  0  0  0  0  0
  146.4798  131.0619  150.5876 O   0  0  0  0  0  0  0  0  0  0  0  0
  144.5268  133.2320  150.5662 C   0  0  2  0  0  0  0  0  0  0  0  0
  144.5991  132.8093  149.2173 O   0  0  0  0  0  0  0  0  0  0  0  0
  143.9882  134.6500  150.7333 C   0  0  2  0  0  0  0  0  0  0  0  0
  144.3473  135.4905  149.6464 O   0  0  0  0  0  0  0  0  0  0  0  0
  144.5985  137.4910  152.7393 C   0  0  0  0  0  0  0  0  0  0  0  0
  143.5391  137.3148  153.3407 O   0  0  0  0  0  0  0  0  0  0  0  0
  145.1998  138.6991  152.6883 N   0  0  0  0  0  0  0  0  0  0  0  0
  143.9150  135.0886  152.9053 H   0  0  0  0  0  0  0  0  0  0  0  0
  146.5974  133.8326  150.5954 H   0  0  0  0  0  0  0  0  0  0  0  0
  143.8864  132.5416  151.1178 H   0  0  0  0  0  0  0  0  0  0  0  0
  142.9019  134.6552  150.8281 H   0  0  0  0  0  0  0  0  0  0  0  0
  147.6792  140.2660  151.5551 H   0  0  0  0  0  0  0  0  0  0  0  0
  146.9467  135.8716  150.8236 H   0  0  0  0  0  0  0  0  0  0  0  0
  147.4363  132.0437  152.1298 H   0  0  0  0  0  0  0  0  0  0  0  0
  145.7940  131.5041  152.4414 H   0  0  0  0  0  0  0  0  0  0  0  0
  147.3822  130.8572  150.3956 H   0  0  0  0  0  0  0  0  0  0  0  0
  144.9478  133.5188  148.6993 H   0  0  0  0  0  0  0  0  0  0  0  0
  144.8120  134.9718  149.0078 H   0  0  0  0  0  0  0  0  0  0  0  0
  144.7508  139.4629  153.1718 H   0  0  0  0  0  0  0  0  0  0  0  0
  1  2  2  0  0  0  0
  1 22  1  0  0  0  0
  2 17  1  0  0  0  0
  2  3  1  0  0  0  0
  3  4  2  0  0  0  0
  4  5  1  0  0  0  0
  4 23  1  0  0  0  0
  5  6  1  0  0  0  0
  5 15  1  0  0  0  0
  6 18  1  0  0  0  0
  6 13  1  0  0  0  0
  6  7  1  0  0  0  0
  7  8  1  0  0  0  0
  8 19  1  0  0  0  0
  8  9  1  0  0  0  0
  8 11  1  0  0  0  0
  9 10  1  0  0  0  0
  9 24  1  0  0  0  0
  9 25  1  0  0  0  0
 10 26  1  0  0  0  0
 11 20  1  0  0  0  0
 11 12  1  0  0  0  0
 11 13  1  0  0  0  0
 12 27  1  0  0  0  0
 13 21  1  0  0  0  0
 13 14  1  0  0  0  0
 14 28  1  0  0  0  0
 15 16  2  0  0  0  0
 15 17  1  0  0  0  0
 17 29  1  0  0  0  0
M  END
> <s_m_source_file>
AV-unprocessed.smi

> <i_m_source_file_index>
72

> <i_lp_mmshare_version>
43012

> <i_f3d_flags>
0

> <s_epik_input>
W05IMl1jMW5bY0hdbihjKD1PKW4xKVtDQEBIXTJPW0NASF0oW0NIMl1bT0hdKVtDQEBIXShbT0hdKVtDQEhdMltPSF0=

> <s_epik_cmdline>
J2VwaWtfcHl0aG9uJywgJy1waCcsICc3LjAnLCAnLXRuJywgJzgnLCAnLW1hJywgJzIwMCcsICctbWV0YWxfYmluZGluZycsICctaW1hZScsICc8aW5maWxlLm1hZT4nLCAnLW9tYWUnLCAnPG91dGZpbGUubWFlPic=

> <r_lp_tautomer_probability>
7.17554e-07

> <r_epik_Ionization_Penalty>
0.0066451

> <r_epik_Ionization_Penalty_Charging>
0.00663793

> <r_epik_Ionization_Penalty_Neutral>
7.17052e-06

> <r_epik_State_Penalty>
0.419231

> <r_epik_Charging_Adjusted_Penalty>
0.425868

> <i_epik_Tot_Q>
0

> <i_epik_Tot_abs_Q>
0

> <r_epik_Metal_State_Penalty>
1.44144

> <b_epik_Metal_Only>
0

> <s_epik_Chemistry_Notes>
This compound contains an acetal/aminal-like group ( X-CH(R)-Y where X, Y are N, S, or O) that may be acid/base labile, releasing an aldehyde.

> <s_lp_Force_Field>
OPLS_2005

> <r_lp_Energy>
48.3326

> <b_lp_Chiralities_Consistent>
1

> <s_lp_Variant>
AV-unprocessed.smi:72-15

> <Gold.Version>
5.8.1

> <Gold.Id.Protein>
6NUR|6NUR_protein|mol2

> <Gold.PLP.Fitness>
36.7818

> <Gold.PLP.PLP>
-19.8733

> <Gold.PLP.part.hbond>
-7.2026

> <Gold.PLP.part.metal>
0.0000

> <Gold.PLP.part.buried>
1.7705

> <Gold.PLP.part.nonpolar>
-19.3072

> <Gold.PLP.part.repulsive>
4.1884

> <Gold.PLP.ligand.clash>
0.0000

> <Gold.PLP.ligand.torsion>
0.3164

> <Gold.PLP.Chemscore.Hbond>
5.5520

> <Gold.PLP.Chemscore.CHOScore>
0.2690

> <Gold.PLP.Chemscore.Metal>
0.0000

> <Gold.Chemscore.Hbonds>
donor molecule, donor type, donor heavy atom, donor atom, acceptor molecule, acceptor atom, score
      L1  H     1    22       P1  7957  1.00
      L1  H    10    26       P1 10747  1.00
      L1  H    12    27       P1  7921  0.98
      L1  H    14    28       P1  7921  1.00
      L1  H    17    29       P1 10175  0.46
      P1  H  7954  7966       L1     3  1.00
      L1  C     4    23       P1  7948  0.25

> <Gold.PLP.Chemscore.Internal.Correction>
0.0783

> <Gold.Rescore>
     Score         DG    S(hbond)    S(metal)    S(lipo)     H(rot)  DE(clash)    DE(int)     intcor
      9.82     -14.63       4.87        0.00      28.12       4.06       3.44       1.37       ----

> <Gold.Chemscore.Fitness>
9.8190

> <Gold.Chemscore.DG>
-14.6301

> <Gold.Chemscore.ZeroCoef>
-5.4800

> <Gold.Chemscore.Hbond>
4.8662

> <Gold.Chemscore.Metal>
0.0000

> <Gold.Chemscore.Lipo>
28.1242

> <Gold.Chemscore.Internal_Hbond>
0.0000

> <Gold.Chemscore.DEClash>
3.4401

> <Gold.Chemscore.DEInternal>
1.3710

> <Gold.Chemscore.Rot>
4.0600

> <Gold.Chemscore.Internal.Correction>
   9.000000E+99

> <Gold.Chemscore.Hbonds>
donor molecule, donor type, donor heavy atom, donor atom, acceptor molecule, acceptor atom, score
      L1  H     1    22       P1  7957  0.99
      L1  H    10    26       P1 10747  0.98
      L1  H    12    27       P1  7921  0.75
      L1  H    14    28       P1  7921  0.94
      L1  H    17    29       P1 10175  0.48
      P1  H  7954  7966       L1     3  0.50

> <Gold.Chemscore.Hbond.Weighted>
-16.2531

> <Gold.Chemscore.Metal.Weighted>
-0.0000

> <Gold.Chemscore.Lipo.Weighted>
-3.2905

> <Gold.Chemscore.Internal_Hbond.Weighted>
0.0000

> <Gold.Chemscore.DEClash.Weighted>
3.4401

> <Gold.Chemscore.DEInternal.Weighted>
1.3710

> <Gold.Chemscore.Rot.Weighted>
10.3936

> <Gold.Chemscore.Internal.Correction.Weighted>
   9.000000E+99

> <Gold.Protein.RotatedTorsions>
[ 6907 6896 6895 6894 ] final  -74.71 input  -60.11 | X-H torsion
[ 7974 7965 7964 7962 ] final  133.62 input  175.53 | X-H torsion
[ 8008 7997 7996 7995 ] final  143.03 input   59.86 | X-H torsion
[ 10167 10162 10161 10158 ] final   25.75 input  -65.29 | X-H torsion
[ 10718 10713 10712 10709 ] final -104.38 input   66.30 | X-H torsion
[ 10763 10752 10751 10750 ] final  -51.04 input  -60.55 | X-H torsion
[ 11005 11000 10999 10996 ] final   16.74 input  -57.11 | X-H torsion

> <Gold.Protein.ActiveResidues>
 VAL166  LYS551  ARG553  GLY616  TRP617  ASP618  TYR619  PRO620  LYS621  CYS622 
 ASP623  PHE694  ASN695  SER759  ASP760  ASP761  ALA762  ILE779  LEU786  VAL792 
 PHE793  MET794  SER795  GLU796  ALA797  LYS798  CYS799  TRP800  GLU811  SER814 

> <Gold.Protein.RotatedAtoms>
  150.7084  134.4829  159.5478 H   0  0  0  0  0  0  0  0  0  0  0  0  # atno 6907 bound_to 6896
  152.2462  134.8176  160.0462 H   0  0  0  0  0  0  0  0  0  0  0  0  # atno 6908 bound_to 6896
  151.8939  133.3487  159.3844 H   0  0  0  0  0  0  0  0  0  0  0  0  # atno 6909 bound_to 6896
  144.9846  139.4469  143.5369 H   0  0  0  0  0  0  0  0  0  0  0  0  # atno 7974 bound_to 7965
  156.2938  140.2273  156.4823 H   0  0  0  0  0  0  0  0  0  0  0  0  # atno 8008 bound_to 7997
  154.7842  140.0458  157.1172 H   0  0  0  0  0  0  0  0  0  0  0  0  # atno 8009 bound_to 7997
  154.9722  140.3068  155.4986 H   0  0  0  0  0  0  0  0  0  0  0  0  # atno 8010 bound_to 7997
  140.5080  144.0207  150.6360 H   0  0  0  0  0  0  0  0  0  0  0  0  # atno 10167 bound_to 10162
  156.0302  130.5512  150.7387 H   0  0  0  0  0  0  0  0  0  0  0  0  # atno 10718 bound_to 10713
  154.1201  135.6536  153.4901 H   0  0  0  0  0  0  0  0  0  0  0  0  # atno 10763 bound_to 10752
  153.0228  135.5268  154.7105 H   0  0  0  0  0  0  0  0  0  0  0  0  # atno 10764 bound_to 10752
  154.6310  135.2976  155.0186 H   0  0  0  0  0  0  0  0  0  0  0  0  # atno 10765 bound_to 10752
  140.4437  134.1295  155.7693 H   0  0  0  0  0  0  0  0  0  0  0  0  # atno 11005 bound_to 11000
  146.3417  139.9140  142.8776 LP  0  0  0  0  0  0  0  0  0  0  0  0  # atno 17320 bound_to 7965
  145.2372  140.9995  143.3957 LP  0  0  0  0  0  0  0  0  0  0  0  0  # atno 17321 bound_to 7965
  140.3522  143.2957  152.0475 LP  0  0  0  0  0  0  0  0  0  0  0  0  # atno 17342 bound_to 10162
  139.4888  144.6366  151.6964 LP  0  0  0  0  0  0  0  0  0  0  0  0  # atno 17343 bound_to 10162
  157.4962  131.0915  151.0369 LP  0  0  0  0  0  0  0  0  0  0  0  0  # atno 17370 bound_to 10713
  157.0762  130.5884  149.5412 LP  0  0  0  0  0  0  0  0  0  0  0  0  # atno 17371 bound_to 10713
  141.1694  133.8638  157.1616 LP  0  0  0  0  0  0  0  0  0  0  0  0  # atno 17394 bound_to 11000
  140.0053  135.0011  157.0278 LP  0  0  0  0  0  0  0  0  0  0  0  0  # atno 17395 bound_to 11000

$$$$
