AV-unprocessed.smi:177|AV-procd|sdf|1441|dock4
  -GOLD-   2262019223D 1   1.00000     0.00000
 Structure written by MMmdl.
 61 65  0  0  0  0  0  0  0  0  1 V2000
  148.2060  141.1034  154.1655 C   0  0  0  0  0  0  0  0  0  0  0  0
  149.1105  140.0228  153.9959 O   0  0  0  0  0  0  0  0  0  0  0  0
  149.7831  139.6320  155.1857 C   0  0  2  0  0  0  0  0  0  0  0  0
  150.2993  140.8659  155.9532 C   0  0  0  0  0  0  0  0  0  0  0  0
  151.1450  140.4595  157.1703 C   0  0  0  0  0  0  0  0  0  0  0  0
  152.3252  139.5623  156.7472 C   0  0  1  0  0  0  0  0  0  0  0  0
  153.1756  139.2097  157.8400 O   0  0  0  0  0  0  0  0  0  0  0  0
  152.6491  138.2137  158.7104 C   0  0  0  0  0  0  0  0  0  0  0  0
  152.3502  136.9332  157.9124 C   0  0  0  0  0  0  0  0  0  0  0  0
  151.4446  137.2136  156.8042 N   0  0  0  0  0  0  0  0  0  0  0  0
  150.1284  136.9846  157.0278 C   0  0  0  0  0  0  0  0  0  0  0  0
  149.2653  136.9127  155.9816 N   0  0  0  0  0  0  0  0  0  0  0  0
  147.9714  136.6588  156.1944 C   0  0  0  0  0  0  0  0  0  0  0  0
  147.3407  136.4624  157.3532 N   0  0  0  0  0  0  0  0  0  0  0  0
  148.1964  136.5692  158.4096 C   0  0  0  0  0  0  0  0  0  0  0  0
  149.5940  136.8264  158.3354 C   0  0  0  0  0  0  0  0  0  0  0  0
  150.1388  136.8628  159.6124 N   0  0  0  0  0  0  0  0  0  0  0  0
  149.1252  136.6177  160.3962 C   0  0  0  0  0  0  0  0  0  0  0  0
  147.9147  136.4512  159.7600 N   0  0  0  0  0  0  0  0  0  0  0  0
  146.6345  136.1668  160.3919 C   0  0  0  0  0  0  0  0  0  0  0  0
  146.6711  135.9300  161.9366 C   0  0  0  0  0  0  0  0  0  0  0  0
  147.2284  137.1756  162.6829 C   0  0  0  0  0  0  0  0  0  0  0  0
  146.4556  138.3447  162.4932 O   0  0  0  0  0  0  0  0  0  0  0  0
  145.2891  135.5411  162.5224 C   0  0  0  0  0  0  0  0  0  0  0  0
  144.8246  134.1413  162.0802 C   0  0  0  0  0  0  0  0  0  0  0  0
  145.7961  133.1691  162.4427 O   0  0  0  0  0  0  0  0  0  0  0  0
  147.0505  133.3821  161.8091 C   0  0  0  0  0  0  0  0  0  0  0  0
  147.6264  134.7457  162.2338 C   0  0  0  0  0  0  0  0  0  0  0  0
  151.8927  138.3141  155.9359 C   0  0  1  0  0  0  0  0  0  0  0  0
  150.9527  138.7135  154.7693 C   0  0  0  0  0  0  0  0  0  0  0  0
  147.7306  141.3309  153.2115 H   0  0  0  0  0  0  0  0  0  0  0  0
  148.7105  142.0066  154.5083 H   0  0  0  0  0  0  0  0  0  0  0  0
  147.4191  140.8499  154.8771 H   0  0  0  0  0  0  0  0  0  0  0  0
  149.0913  139.0750  155.8160 H   0  0  0  0  0  0  0  0  0  0  0  0
  150.8982  141.4869  155.2858 H   0  0  0  0  0  0  0  0  0  0  0  0
  149.4675  141.4859  156.2866 H   0  0  0  0  0  0  0  0  0  0  0  0
  151.5249  141.3535  157.6650 H   0  0  0  0  0  0  0  0  0  0  0  0
  150.5101  139.9590  157.8982 H   0  0  0  0  0  0  0  0  0  0  0  0
  152.9474  140.1701  156.0889 H   0  0  0  0  0  0  0  0  0  0  0  0
  153.3880  138.0024  159.4834 H   0  0  0  0  0  0  0  0  0  0  0  0
  151.7634  138.5834  159.2259 H   0  0  0  0  0  0  0  0  0  0  0  0
  153.2760  136.5245  157.5069 H   0  0  0  0  0  0  0  0  0  0  0  0
  151.9329  136.1661  158.5664 H   0  0  0  0  0  0  0  0  0  0  0  0
  147.3544  136.6032  155.3100 H   0  0  0  0  0  0  0  0  0  0  0  0
  149.2308  136.5663  161.4703 H   0  0  0  0  0  0  0  0  0  0  0  0
  145.9600  136.9821  160.1340 H   0  0  0  0  0  0  0  0  0  0  0  0
  146.2195  135.2859  159.9000 H   0  0  0  0  0  0  0  0  0  0  0  0
  147.2568  136.9977  163.7584 H   0  0  0  0  0  0  0  0  0  0  0  0
  148.2555  137.3771  162.3772 H   0  0  0  0  0  0  0  0  0  0  0  0
  146.1127  138.6178  163.3306 H   0  0  0  0  0  0  0  0  0  0  0  0
  145.3481  135.5462  163.6118 H   0  0  0  0  0  0  0  0  0  0  0  0
  144.5306  136.2802  162.2669 H   0  0  0  0  0  0  0  0  0  0  0  0
  143.8843  133.8923  162.5719 H   0  0  0  0  0  0  0  0  0  0  0  0
  144.6348  134.0983  161.0078 H   0  0  0  0  0  0  0  0  0  0  0  0
  147.7291  132.5847  162.1124 H   0  0  0  0  0  0  0  0  0  0  0  0
  146.9467  133.3044  160.7267 H   0  0  0  0  0  0  0  0  0  0  0  0
  148.5932  134.9056  161.7548 H   0  0  0  0  0  0  0  0  0  0  0  0
  147.8293  134.6953  163.3044 H   0  0  0  0  0  0  0  0  0  0  0  0
  152.7953  137.9182  155.4687 H   0  0  0  0  0  0  0  0  0  0  0  0
  150.5879  137.8363  154.2384 H   0  0  0  0  0  0  0  0  0  0  0  0
  151.5515  139.2561  154.0365 H   0  0  0  0  0  0  0  0  0  0  0  0
  1  2  1  0  0  0  0
  1 31  1  0  0  0  0
  1 32  1  0  0  0  0
  1 33  1  0  0  0  0
  2  3  1  0  0  0  0
  3 30  1  0  0  0  0
  3  4  1  0  0  0  0
  3 34  1  0  0  0  0
  4  5  1  0  0  0  0
  4 35  1  0  0  0  0
  4 36  1  0  0  0  0
  5  6  1  0  0  0  0
  5 37  1  0  0  0  0
  5 38  1  0  0  0  0
  6 29  1  0  0  0  0
  6  7  1  0  0  0  0
  6 39  1  0  0  0  0
  7  8  1  0  0  0  0
  8  9  1  0  0  0  0
  8 40  1  0  0  0  0
  8 41  1  0  0  0  0
  9 10  1  0  0  0  0
  9 42  1  0  0  0  0
  9 43  1  0  0  0  0
 10 11  1  0  0  0  0
 10 29  1  0  0  0  0
 11 16  1  0  0  0  0
 11 12  2  0  0  0  0
 12 13  1  0  0  0  0
 13 14  2  0  0  0  0
 13 44  1  0  0  0  0
 14 15  1  0  0  0  0
 15 19  1  0  0  0  0
 15 16  2  0  0  0  0
 16 17  1  0  0  0  0
 17 18  2  0  0  0  0
 18 19  1  0  0  0  0
 18 45  1  0  0  0  0
 19 20  1  0  0  0  0
 20 21  1  0  0  0  0
 20 46  1  0  0  0  0
 20 47  1  0  0  0  0
 21 28  1  0  0  0  0
 21 22  1  0  0  0  0
 21 24  1  0  0  0  0
 22 23  1  0  0  0  0
 22 48  1  0  0  0  0
 22 49  1  0  0  0  0
 23 50  1  0  0  0  0
 24 25  1  0  0  0  0
 24 51  1  0  0  0  0
 24 52  1  0  0  0  0
 25 26  1  0  0  0  0
 25 53  1  0  0  0  0
 25 54  1  0  0  0  0
 26 27  1  0  0  0  0
 27 28  1  0  0  0  0
 27 55  1  0  0  0  0
 27 56  1  0  0  0  0
 28 57  1  0  0  0  0
 28 58  1  0  0  0  0
 29 30  1  0  0  0  0
 29 59  1  0  0  0  0
 30 60  1  0  0  0  0
 30 61  1  0  0  0  0
M  END
> <s_m_source_file>
AV-unprocessed.smi

> <i_m_source_file_index>
177

> <i_lp_mmshare_version>
43012

> <i_f3d_flags>
0

> <s_epik_input>
W0NIM11PW0NASF0oW0NIMl1bQ0gyXTEpW0NIMl1bQ0BIXShbQ0BASF0xMilOKFtDSDJdW0NIMl1PMiljKG5bY0hdbjMpYyhjMzQpbltjSF1uNFtDSDJdQzUoW0NIMl1bT0hdKVtDSDJdW0NIMl1PW0NIMl1bQ0gyXTU=

> <s_epik_cmdline>
J2VwaWtfcHl0aG9uJywgJy1waCcsICc3LjAnLCAnLXRuJywgJzgnLCAnLW1hJywgJzIwMCcsICctbWV0YWxfYmluZGluZycsICctaW1hZScsICc8aW5maWxlLm1hZT4nLCAnLW9tYWUnLCAnPG91dGZpbGUubWFlPic=

> <r_lp_tautomer_probability>
1

> <r_epik_Ionization_Penalty>
0.0065899

> <r_epik_Ionization_Penalty_Charging>
0

> <r_epik_Ionization_Penalty_Neutral>
0.0065899

> <r_epik_State_Penalty>
0.00470042

> <r_epik_Charging_Adjusted_Penalty>
0.00470042

> <i_epik_Tot_Q>
0

> <i_epik_Tot_abs_Q>
0

> <r_epik_Metal_State_Penalty>
-0

> <b_epik_Metal_Only>
0

> <s_lp_Force_Field>
OPLS_2005

> <r_lp_Energy>
52.4416

> <b_lp_Chiralities_Consistent>
1

> <s_lp_Variant>
AV-unprocessed.smi:177-5

> <Gold.Version>
5.8.1

> <Gold.Id.Protein>
6NUR|6NUR_protein|mol2

> <Gold.PLP.Fitness>
48.3647

> <Gold.PLP.PLP>
-42.0991

> <Gold.PLP.part.hbond>
-3.8323

> <Gold.PLP.part.metal>
0.0000

> <Gold.PLP.part.buried>
-5.8105

> <Gold.PLP.part.nonpolar>
-33.0226

> <Gold.PLP.part.repulsive>
0.6803

> <Gold.PLP.ligand.clash>
0.0158

> <Gold.PLP.ligand.torsion>
0.6429

> <Gold.PLP.Chemscore.Hbond>
2.1807

> <Gold.PLP.Chemscore.CHOScore>
0.0000

> <Gold.PLP.Chemscore.Metal>
0.0000

> <Gold.Chemscore.Hbonds>
donor molecule, donor type, donor heavy atom, donor atom, acceptor molecule, acceptor atom, score
      P1  H  6896  6908       L1    17  0.86
      P1  H  6934  6947       L1    23  0.26
      P1  H  7997  8008       L1     7  0.80

> <Gold.PLP.Chemscore.Internal.Correction>
1.0250

> <Gold.Rescore>
     Score         DG    S(hbond)    S(metal)    S(lipo)     H(rot)  DE(clash)    DE(int)     intcor
      8.92     -16.44       1.43        0.00     103.46       2.32       1.25       6.27       ----

> <Gold.Chemscore.Fitness>
8.9158

> <Gold.Chemscore.DG>
-16.4374

> <Gold.Chemscore.ZeroCoef>
-5.4800

> <Gold.Chemscore.Hbond>
1.4321

> <Gold.Chemscore.Metal>
0.0000

> <Gold.Chemscore.Lipo>
103.4639

> <Gold.Chemscore.Internal_Hbond>
0.0000

> <Gold.Chemscore.DEClash>
1.2512

> <Gold.Chemscore.DEInternal>
6.2704

> <Gold.Chemscore.Rot>
2.3169

> <Gold.Chemscore.Internal.Correction>
   9.000000E+99

> <Gold.Chemscore.Hbonds>
donor molecule, donor type, donor heavy atom, donor atom, acceptor molecule, acceptor atom, score
      P1  H  6896  6908       L1    17  0.15
      P1  H  6934  6947       L1    23  0.10
      P1  H  7997  8008       L1     7  0.12

> <Gold.Chemscore.Hbond.Weighted>
-4.7834

> <Gold.Chemscore.Metal.Weighted>
-0.0000

> <Gold.Chemscore.Lipo.Weighted>
-12.1053

> <Gold.Chemscore.Internal_Hbond.Weighted>
0.0000

> <Gold.Chemscore.DEClash.Weighted>
1.2512

> <Gold.Chemscore.DEInternal.Weighted>
6.2704

> <Gold.Chemscore.Rot.Weighted>
5.9313

> <Gold.Chemscore.Internal.Correction.Weighted>
   9.000000E+99

> <Gold.Protein.RotatedTorsions>
[ 6907 6896 6895 6894 ] final -136.35 input  -60.11 | X-H torsion
[ 7974 7965 7964 7962 ] final -134.93 input  175.53 | X-H torsion
[ 8008 7997 7996 7995 ] final  -97.12 input   59.86 | X-H torsion
[ 10167 10162 10161 10158 ] final  111.06 input  -65.29 | X-H torsion
[ 10718 10713 10712 10709 ] final  138.30 input   66.30 | X-H torsion
[ 10763 10752 10751 10750 ] final  -95.90 input  -60.55 | X-H torsion
[ 11005 11000 10999 10996 ] final  -67.42 input  -57.11 | X-H torsion

> <Gold.Protein.ActiveResidues>
 VAL166  LYS551  ARG553  GLY616  TRP617  ASP618  TYR619  PRO620  LYS621  CYS622 
 ASP623  PHE694  ASN695  SER759  ASP760  ASP761  ALA762  ILE779  LEU786  VAL792 
 PHE793  MET794  SER795  GLU796  ALA797  LYS798  CYS799  TRP800  GLU811  SER814 

> <Gold.Protein.RotatedAtoms>
  151.0091  133.5983  159.2684 H   0  0  0  0  0  0  0  0  0  0  0  0  # atno 6907 bound_to 6896
  151.3141  135.0801  159.9292 H   0  0  0  0  0  0  0  0  0  0  0  0  # atno 6908 bound_to 6896
  152.5294  133.9750  159.7834 H   0  0  0  0  0  0  0  0  0  0  0  0  # atno 6909 bound_to 6896
  144.9059  140.6832  143.5056 H   0  0  0  0  0  0  0  0  0  0  0  0  # atno 7974 bound_to 7965
  154.7836  140.0465  157.1146 H   0  0  0  0  0  0  0  0  0  0  0  0  # atno 8008 bound_to 7997
  154.9675  140.3085  155.4983 H   0  0  0  0  0  0  0  0  0  0  0  0  # atno 8009 bound_to 7997
  156.2940  140.2259  156.4765 H   0  0  0  0  0  0  0  0  0  0  0  0  # atno 8010 bound_to 7997
  139.6640  144.7128  151.1811 H   0  0  0  0  0  0  0  0  0  0  0  0  # atno 10167 bound_to 10162
  157.4268  131.1044  151.0294 H   0  0  0  0  0  0  0  0  0  0  0  0  # atno 10718 bound_to 10713
  154.7191  135.5103  153.8783 H   0  0  0  0  0  0  0  0  0  0  0  0  # atno 10763 bound_to 10752
  153.0846  135.6641  153.9984 H   0  0  0  0  0  0  0  0  0  0  0  0  # atno 10764 bound_to 10752
  153.9810  135.3029  155.3399 H   0  0  0  0  0  0  0  0  0  0  0  0  # atno 10765 bound_to 10752
  141.1507  133.6719  156.6290 H   0  0  0  0  0  0  0  0  0  0  0  0  # atno 11005 bound_to 11000
  145.3537  139.1699  143.4421 LP  0  0  0  0  0  0  0  0  0  0  0  0  # atno 17320 bound_to 7965
  146.3133  140.3592  142.8663 LP  0  0  0  0  0  0  0  0  0  0  0  0  # atno 17321 bound_to 7965
  140.7592  143.5948  150.8759 LP  0  0  0  0  0  0  0  0  0  0  0  0  # atno 17342 bound_to 10162
  139.9608  143.6166  152.3003 LP  0  0  0  0  0  0  0  0  0  0  0  0  # atno 17343 bound_to 10162
  157.1205  130.6059  149.5504 LP  0  0  0  0  0  0  0  0  0  0  0  0  # atno 17370 bound_to 10713
  155.9899  130.4948  150.7234 LP  0  0  0  0  0  0  0  0  0  0  0  0  # atno 17371 bound_to 10713
  140.3482  134.7791  157.4447 LP  0  0  0  0  0  0  0  0  0  0  0  0  # atno 17394 bound_to 11000
  140.0883  134.5637  155.8470 LP  0  0  0  0  0  0  0  0  0  0  0  0  # atno 17395 bound_to 11000

$$$$
