AV-unprocessed.smi:1381|AV-procd|sdf|5615|dock7
  -GOLD-   22720 5223D 1   1.00000     0.00000
 Structure written by MMmdl.
 42 43  0  0  0  0  0  0  0  0  3 V2000
  145.6618  134.6334  162.7182 C   0  0  0  0  0  0  0  0  0  0  0  0
  146.6886  135.3515  161.9110 C   0  0  0  0  0  0  0  0  0  0  0  0
  147.5803  134.9368  160.9630 C   0  0  0  0  0  0  0  0  0  0  0  0
  148.2584  136.1352  160.6086 C   0  0  0  0  0  0  0  0  0  0  0  0
  149.2337  136.2488  159.6935 N   0  5  0  0  0  0  0  0  0  0  0  0
  149.2492  137.2997  158.8427 C   0  0  0  0  0  0  0  0  0  0  0  0
  149.6279  138.4449  159.0998 O   0  0  0  0  0  0  0  0  0  0  0  0
  148.8057  137.0045  157.6124 N   0  0  0  0  0  0  0  0  0  0  0  0
  148.7315  137.9322  156.4898 C   0  0  0  0  0  0  0  0  0  0  0  0
  148.5208  137.1839  155.1603 C   0  0  0  0  0  0  0  0  0  0  0  0
  149.1809  137.8681  154.0176 N   0  3  1  0  0  0  0  0  0  0  0  0
  148.5763  139.1802  153.6826 C   0  0  0  0  0  0  0  0  0  0  0  0
  149.0180  140.2698  154.6804 C   0  0  2  0  0  0  0  0  0  0  0  0
  148.4687  141.6510  154.3068 C   0  0  0  0  0  0  0  0  0  0  0  0
  150.4398  140.3437  154.6790 O   0  0  0  0  0  0  0  0  0  0  0  0
  151.0581  139.1314  155.0976 C   0  0  2  0  0  0  0  0  0  0  0  0
  152.5738  139.3570  155.1194 C   0  0  0  0  0  0  0  0  0  0  0  0
  150.6563  137.9934  154.1338 C   0  0  0  0  0  0  0  0  0  0  0  0
  147.8067  137.1868  161.2711 N   0  0  0  0  0  0  0  0  0  0  0  0
  146.8033  136.6919  162.1127 O   0  0  0  0  0  0  0  0  0  0  0  0
  144.7621  134.4589  162.1283 H   0  0  0  0  0  0  0  0  0  0  0  0
  145.3822  135.2100  163.6001 H   0  0  0  0  0  0  0  0  0  0  0  0
  146.0399  133.6675  163.0536 H   0  0  0  0  0  0  0  0  0  0  0  0
  147.7269  133.9362  160.5852 H   0  0  0  0  0  0  0  0  0  0  0  0
  148.5003  136.0566  157.4463 H   0  0  0  0  0  0  0  0  0  0  0  0
  147.9049  138.6129  156.6888 H   0  0  0  0  0  0  0  0  0  0  0  0
  149.6348  138.5432  156.4492 H   0  0  0  0  0  0  0  0  0  0  0  0
  148.9459  136.1845  155.2602 H   0  0  0  0  0  0  0  0  0  0  0  0
  147.4580  137.0409  154.9667 H   0  0  0  0  0  0  0  0  0  0  0  0
  148.8962  139.4561  152.6767 H   0  0  0  0  0  0  0  0  0  0  0  0
  147.4890  139.1021  153.6450 H   0  0  0  0  0  0  0  0  0  0  0  0
  148.6697  140.0228  155.6848 H   0  0  0  0  0  0  0  0  0  0  0  0
  147.3782  141.6500  154.2970 H   0  0  0  0  0  0  0  0  0  0  0  0
  148.8128  141.9605  153.3194 H   0  0  0  0  0  0  0  0  0  0  0  0
  148.7930  142.4058  155.0236 H   0  0  0  0  0  0  0  0  0  0  0  0
  150.7362  138.8986  156.1133 H   0  0  0  0  0  0  0  0  0  0  0  0
  153.0993  138.4599  155.4478 H   0  0  0  0  0  0  0  0  0  0  0  0
  152.8375  140.1646  155.8028 H   0  0  0  0  0  0  0  0  0  0  0  0
  152.9489  139.6222  154.1305 H   0  0  0  0  0  0  0  0  0  0  0  0
  151.1069  137.0507  154.4413 H   0  0  0  0  0  0  0  0  0  0  0  0
  151.0522  138.2061  153.1397 H   0  0  0  0  0  0  0  0  0  0  0  0
  149.0021  137.2727  153.2213 H   0  0  0  0  0  0  0  0  0  0  0  0
  1  2  1  0  0  0  0
  1 21  1  0  0  0  0
  1 22  1  0  0  0  0
  1 23  1  0  0  0  0
  2 20  1  0  0  0  0
  2  3  2  0  0  0  0
  3  4  1  0  0  0  0
  3 24  1  0  0  0  0
  4  5  1  0  0  0  0
  4 19  2  0  0  0  0
  5  6  1  0  0  0  0
  6  7  2  0  0  0  0
  6  8  1  0  0  0  0
  8  9  1  0  0  0  0
  8 25  1  0  0  0  0
  9 10  1  0  0  0  0
  9 26  1  0  0  0  0
  9 27  1  0  0  0  0
 10 11  1  0  0  0  0
 10 28  1  0  0  0  0
 10 29  1  0  0  0  0
 11 18  1  0  0  0  0
 11 12  1  0  0  0  0
 11 42  1  0  0  0  0
 12 13  1  0  0  0  0
 12 30  1  0  0  0  0
 12 31  1  0  0  0  0
 13 14  1  0  0  0  0
 13 15  1  0  0  0  0
 13 32  1  0  0  0  0
 14 33  1  0  0  0  0
 14 34  1  0  0  0  0
 14 35  1  0  0  0  0
 15 16  1  0  0  0  0
 16 17  1  0  0  0  0
 16 18  1  0  0  0  0
 16 36  1  0  0  0  0
 17 37  1  0  0  0  0
 17 38  1  0  0  0  0
 17 39  1  0  0  0  0
 18 40  1  0  0  0  0
 18 41  1  0  0  0  0
 19 20  1  0  0  0  0
M  CHG  1   5  -1
M  CHG  1  11   1
M  END
> <s_m_source_file>
AV-unprocessed.smi

> <i_m_source_file_index>
1381

> <i_lp_mmshare_version>
43012

> <i_f3d_flags>
0

> <s_epik_input>
W0NIM11jMVtjSF1jKG5vMSlbTkhdQyg9TylbTkhdW0NIMl1bQ0gyXU4yW0NIMl1bQ0BASF0oW0NIM10pT1tDQEBIXShbQ0gzXSlbQ0gyXTI=

> <s_epik_cmdline>
J2VwaWtfcHl0aG9uJywgJy1waCcsICc3LjAnLCAnLXRuJywgJzgnLCAnLW1hJywgJzIwMCcsICctbWV0YWxfYmluZGluZycsICctaW1hZScsICc8aW5maWxlLm1hZT4nLCAnLW9tYWUnLCAnPG91dGZpbGUubWFlPic=

> <r_epik_Ionization_Penalty>
6.73511

> <r_epik_Ionization_Penalty_Charging>
6.73502

> <r_epik_Ionization_Penalty_Neutral>
9.26583e-05

> <r_epik_State_Penalty>
6.93549

> <r_epik_Charging_Adjusted_Penalty>
13.6705

> <i_epik_Tot_Q>
0

> <i_epik_Tot_abs_Q>
2

> <r_epik_Metal_State_Penalty>
2.87211

> <b_epik_Metal_Only>
1

> <s_lp_Force_Field>
OPLS_2005

> <r_lp_Energy>
4.17006

> <b_lp_Chiralities_Consistent>
1

> <s_lp_Variant>
AV-unprocessed.smi:1381-14

> <Gold.Version>
5.8.1

> <Gold.Id.Protein>
6NUR|6NUR_protein|mol2

> <Gold.PLP.Fitness>
48.2373

> <Gold.PLP.PLP>
-33.2324

> <Gold.PLP.part.hbond>
-6.0000

> <Gold.PLP.part.metal>
0.0000

> <Gold.PLP.part.buried>
-0.8560

> <Gold.PLP.part.nonpolar>
-27.3385

> <Gold.PLP.part.repulsive>
0.1217

> <Gold.PLP.ligand.clash>
2.1667

> <Gold.PLP.ligand.torsion>
1.3588

> <Gold.PLP.Chemscore.Hbond>
6.5935

> <Gold.PLP.Chemscore.CHOScore>
0.0000

> <Gold.PLP.Chemscore.Metal>
0.0000

> <Gold.Chemscore.Hbonds>
donor molecule, donor type, donor heavy atom, donor atom, acceptor molecule, acceptor atom, score
      L1  H    11    42       P1  7948  2.00
      P1  H  6896  6908       L1     5  1.33
      P1  H  6931  6943       L1    19  0.99
      P1  H  6934  6947       L1    19  0.78
      P1  H  7989  7998       L1    15  1.00

> <Gold.PLP.Chemscore.Internal.Correction>
0.1088

> <Gold.Rescore>
     Score         DG    S(hbond)    S(metal)    S(lipo)     H(rot)  DE(clash)    DE(int)     intcor
     18.69     -22.48       3.84        0.00      70.22       1.58       0.13       3.65       ----

> <Gold.Chemscore.Fitness>
18.6902

> <Gold.Chemscore.DG>
-22.4781

> <Gold.Chemscore.ZeroCoef>
-5.4800

> <Gold.Chemscore.Hbond>
3.8399

> <Gold.Chemscore.Metal>
0.0000

> <Gold.Chemscore.Lipo>
70.2195

> <Gold.Chemscore.Internal_Hbond>
0.0000

> <Gold.Chemscore.DEClash>
0.1349

> <Gold.Chemscore.DEInternal>
3.6530

> <Gold.Chemscore.Rot>
1.5792

> <Gold.Chemscore.Internal.Correction>
   9.000000E+99

> <Gold.Chemscore.Hbonds>
donor molecule, donor type, donor heavy atom, donor atom, acceptor molecule, acceptor atom, score
      L1  H    11    42       P1  7948  1.00
      P1  H  6896  6908       L1     5  0.61
      P1  H  6931  6943       L1    19  0.86
      P1  H  6934  6947       L1    19  0.27
      P1  H  7989  7998       L1    15  0.25

> <Gold.Chemscore.Hbond.Weighted>
-12.8253

> <Gold.Chemscore.Metal.Weighted>
-0.0000

> <Gold.Chemscore.Lipo.Weighted>
-8.2157

> <Gold.Chemscore.Internal_Hbond.Weighted>
0.0000

> <Gold.Chemscore.DEClash.Weighted>
0.1349

> <Gold.Chemscore.DEInternal.Weighted>
3.6530

> <Gold.Chemscore.Rot.Weighted>
4.0428

> <Gold.Chemscore.Internal.Correction.Weighted>
   9.000000E+99

> <Gold.Protein.RotatedTorsions>
[ 6907 6896 6895 6894 ] final  173.67 input  -60.11 | X-H torsion
[ 7974 7965 7964 7962 ] final   28.50 input  175.53 | X-H torsion
[ 8008 7997 7996 7995 ] final   84.43 input   59.86 | X-H torsion
[ 10167 10162 10161 10158 ] final   54.66 input  -65.29 | X-H torsion
[ 10718 10713 10712 10709 ] final -132.07 input   66.30 | X-H torsion
[ 10763 10752 10751 10750 ] final  105.53 input  -60.55 | X-H torsion
[ 11005 11000 10999 10996 ] final  -48.53 input  -57.11 | X-H torsion

> <Gold.Protein.ActiveResidues>
 VAL166  LYS551  ARG553  GLY616  TRP617  ASP618  TYR619  PRO620  LYS621  CYS622 
 ASP623  PHE694  ASN695  SER759  ASP760  ASP761  ALA762  ILE779  LEU786  VAL792 
 PHE793  MET794  SER795  GLU796  ALA797  LYS798  CYS799  TRP800  GLU811  SER814 

> <Gold.Protein.RotatedAtoms>
  151.7645  133.3336  159.3426 H   0  0  0  0  0  0  0  0  0  0  0  0  # atno 6907 bound_to 6896
  150.7485  134.6075  159.6078 H   0  0  0  0  0  0  0  0  0  0  0  0  # atno 6908 bound_to 6896
  152.3383  134.7171  160.0322 H   0  0  0  0  0  0  0  0  0  0  0  0  # atno 6909 bound_to 6896
  146.1725  139.7048  142.8957 H   0  0  0  0  0  0  0  0  0  0  0  0  # atno 7974 bound_to 7965
  155.9369  140.3411  155.6295 H   0  0  0  0  0  0  0  0  0  0  0  0  # atno 8008 bound_to 7997
  155.7088  140.0769  157.2398 H   0  0  0  0  0  0  0  0  0  0  0  0  # atno 8009 bound_to 7997
  154.4095  140.1626  156.2260 H   0  0  0  0  0  0  0  0  0  0  0  0  # atno 8010 bound_to 7997
  140.2278  144.3720  150.6426 H   0  0  0  0  0  0  0  0  0  0  0  0  # atno 10167 bound_to 10162
  156.2308  130.7036  151.0856 H   0  0  0  0  0  0  0  0  0  0  0  0  # atno 10718 bound_to 10713
  153.3806  135.3907  155.1854 H   0  0  0  0  0  0  0  0  0  0  0  0  # atno 10763 bound_to 10752
  154.8707  135.3724  154.4862 H   0  0  0  0  0  0  0  0  0  0  0  0  # atno 10764 bound_to 10752
  153.5339  135.7085  153.5731 H   0  0  0  0  0  0  0  0  0  0  0  0  # atno 10765 bound_to 10752
  141.0706  133.6680  156.3455 H   0  0  0  0  0  0  0  0  0  0  0  0  # atno 11005 bound_to 11000
  145.4300  141.0414  143.2916 LP  0  0  0  0  0  0  0  0  0  0  0  0  # atno 17320 bound_to 7965
  144.8185  139.5833  143.6997 LP  0  0  0  0  0  0  0  0  0  0  0  0  # atno 17321 bound_to 7965
  140.6208  143.2176  151.6698 LP  0  0  0  0  0  0  0  0  0  0  0  0  # atno 17342 bound_to 10162
  139.5121  144.3487  152.0672 LP  0  0  0  0  0  0  0  0  0  0  0  0  # atno 17343 bound_to 10162
  157.7132  131.0723  150.6425 LP  0  0  0  0  0  0  0  0  0  0  0  0  # atno 17370 bound_to 10713
  156.6492  130.4480  149.5725 LP  0  0  0  0  0  0  0  0  0  0  0  0  # atno 17371 bound_to 10713
  140.5681  134.5868  157.5450 LP  0  0  0  0  0  0  0  0  0  0  0  0  # atno 17394 bound_to 11000
  139.9520  134.7600  156.0427 LP  0  0  0  0  0  0  0  0  0  0  0  0  # atno 17395 bound_to 11000

$$$$
