AV-unprocessed.smi:3144|AV-procd|sdf|11978|dock7
  -GOLD-   2272017383D 1   1.00000     0.00000
 Structure written by MMmdl.
 40 41  0  0  0  0  0  0  0  0  2 V2000
  151.3878  136.5548  154.9947 C   0  0  0  0  0  0  0  0  0  0  0  0
  150.9922  137.9954  154.8423 C   0  0  0  0  0  0  0  0  0  0  0  0
  151.7945  139.1494  155.0693 C   0  0  0  0  0  0  0  0  0  0  0  0
  151.1441  140.2799  154.8458 N   0  0  0  0  0  0  0  0  0  0  0  0
  149.9086  139.8891  154.4693 N   0  0  0  0  0  0  0  0  0  0  0  0
  148.9099  140.8870  154.1393 C   0  0  0  0  0  0  0  0  0  0  0  0
  148.4426  141.6543  155.3843 C   0  0  0  0  0  0  0  0  0  0  0  0
  149.5725  142.3432  156.0365 N   0  3  0  0  0  0  0  0  0  0  0  0
  149.7845  141.9505  157.4442 C   0  0  0  0  0  0  0  0  0  0  0  0
  151.0183  142.6455  158.0490 C   0  0  0  0  0  0  0  0  0  0  0  0
  151.4742  141.9326  159.3390 C   0  0  0  0  0  0  0  0  0  0  0  0
  152.7098  142.6075  159.9566 C   0  0  0  0  0  0  0  0  0  0  0  0
  152.4519  144.0970  160.2289 C   0  0  0  0  0  0  0  0  0  0  0  0
  151.9957  144.8202  158.9530 C   0  0  0  0  0  0  0  0  0  0  0  0
  150.7610  144.1411  158.3379 C   0  0  0  0  0  0  0  0  0  0  0  0
  149.7886  138.5156  154.4575 C   0  0  0  0  0  0  0  0  0  0  0  0
  152.4474  136.4032  154.7875 H   0  0  0  0  0  0  0  0  0  0  0  0
  150.8333  135.9078  154.3145 H   0  0  0  0  0  0  0  0  0  0  0  0
  151.2033  136.1931  156.0064 H   0  0  0  0  0  0  0  0  0  0  0  0
  152.8253  139.1983  155.3886 H   0  0  0  0  0  0  0  0  0  0  0  0
  149.3346  141.5715  153.4033 H   0  0  0  0  0  0  0  0  0  0  0  0
  148.0664  140.3889  153.6592 H   0  0  0  0  0  0  0  0  0  0  0  0
  147.6840  142.3875  155.1071 H   0  0  0  0  0  0  0  0  0  0  0  0
  147.9839  140.9692  156.0987 H   0  0  0  0  0  0  0  0  0  0  0  0
  150.4145  142.1405  155.5164 H   0  0  0  0  0  0  0  0  0  0  0  0
  148.8932  142.1829  158.0288 H   0  0  0  0  0  0  0  0  0  0  0  0
  149.9163  140.8682  157.4815 H   0  0  0  0  0  0  0  0  0  0  0  0
  151.8338  142.5719  157.3272 H   0  0  0  0  0  0  0  0  0  0  0  0
  150.6613  141.9300  160.0666 H   0  0  0  0  0  0  0  0  0  0  0  0
  151.7013  140.8867  159.1286 H   0  0  0  0  0  0  0  0  0  0  0  0
  152.9848  142.1032  160.8835 H   0  0  0  0  0  0  0  0  0  0  0  0
  153.5608  142.5002  159.2825 H   0  0  0  0  0  0  0  0  0  0  0  0
  151.6888  144.2011  161.0012 H   0  0  0  0  0  0  0  0  0  0  0  0
  153.3547  144.5666  160.6208 H   0  0  0  0  0  0  0  0  0  0  0  0
  151.7734  145.8636  159.1777 H   0  0  0  0  0  0  0  0  0  0  0  0
  152.8093  144.8274  158.2263 H   0  0  0  0  0  0  0  0  0  0  0  0
  150.4860  144.6641  157.4216 H   0  0  0  0  0  0  0  0  0  0  0  0
  149.9142  144.2460  159.0174 H   0  0  0  0  0  0  0  0  0  0  0  0
  148.8667  138.0260  154.1802 H   0  0  0  0  0  0  0  0  0  0  0  0
  149.4043  143.3385  156.0046 H   0  0  0  0  0  0  0  0  0  0  0  0
  1  2  1  0  0  0  0
  1 17  1  0  0  0  0
  1 18  1  0  0  0  0
  1 19  1  0  0  0  0
  2 16  2  0  0  0  0
  2  3  1  0  0  0  0
  3  4  2  0  0  0  0
  3 20  1  0  0  0  0
  4  5  1  0  0  0  0
  5  6  1  0  0  0  0
  5 16  1  0  0  0  0
  6  7  1  0  0  0  0
  6 21  1  0  0  0  0
  6 22  1  0  0  0  0
  7  8  1  0  0  0  0
  7 23  1  0  0  0  0
  7 24  1  0  0  0  0
  8  9  1  0  0  0  0
  8 25  1  0  0  0  0
  8 40  1  0  0  0  0
  9 10  1  0  0  0  0
  9 26  1  0  0  0  0
  9 27  1  0  0  0  0
 10 15  1  0  0  0  0
 10 11  1  0  0  0  0
 10 28  1  0  0  0  0
 11 12  1  0  0  0  0
 11 29  1  0  0  0  0
 11 30  1  0  0  0  0
 12 13  1  0  0  0  0
 12 31  1  0  0  0  0
 12 32  1  0  0  0  0
 13 14  1  0  0  0  0
 13 33  1  0  0  0  0
 13 34  1  0  0  0  0
 14 15  1  0  0  0  0
 14 35  1  0  0  0  0
 14 36  1  0  0  0  0
 15 37  1  0  0  0  0
 15 38  1  0  0  0  0
 16 39  1  0  0  0  0
M  CHG  1   8   1
M  END
> <s_m_source_file>
AV-unprocessed.smi

> <i_m_source_file_index>
3144

> <i_lp_mmshare_version>
43012

> <i_f3d_flags>
0

> <s_epik_input>
W0NIM11jMVtjSF1ubihbY0hdMSlbQ0gyXVtDSDJdW05IXVtDSDJdW0NIXTJbQ0gyXVtDSDJdW0NIMl1bQ0gyXVtDSDJdMg==

> <s_epik_cmdline>
J2VwaWtfcHl0aG9uJywgJy1waCcsICc3LjAnLCAnLXRuJywgJzgnLCAnLW1hJywgJzIwMCcsICctbWV0YWxfYmluZGluZycsICctaW1hZScsICc8aW5maWxlLm1hZT4nLCAnLW9tYWUnLCAnPG91dGZpbGUubWFlPic=

> <r_lp_tautomer_probability>
1

> <r_epik_Ionization_Penalty>
0.0017464

> <r_epik_Ionization_Penalty_Charging>
0.00174052

> <r_epik_Ionization_Penalty_Neutral>
5.87243e-06

> <r_epik_State_Penalty>
-0

> <r_epik_Charging_Adjusted_Penalty>
0.00174052

> <i_epik_Tot_Q>
1

> <i_epik_Tot_abs_Q>
1

> <r_epik_Metal_State_Penalty>
-0

> <b_epik_Metal_Only>
0

> <s_lp_Force_Field>
OPLS_2005

> <r_lp_Energy>
13.1437

> <b_lp_Chiralities_Consistent>
1

> <s_lp_Variant>
AV-unprocessed.smi:3144-1

> <Gold.Version>
5.8.1

> <Gold.Id.Protein>
6NUR|6NUR_protein|mol2

> <Gold.PLP.Fitness>
47.2996

> <Gold.PLP.PLP>
-39.4120

> <Gold.PLP.part.hbond>
-2.0000

> <Gold.PLP.part.metal>
0.0000

> <Gold.PLP.part.buried>
-2.2716

> <Gold.PLP.part.nonpolar>
-35.2613

> <Gold.PLP.part.repulsive>
0.1904

> <Gold.PLP.ligand.clash>
0.0000

> <Gold.PLP.ligand.torsion>
0.5850

> <Gold.PLP.Chemscore.Hbond>
3.0000

> <Gold.PLP.Chemscore.CHOScore>
0.0000

> <Gold.PLP.Chemscore.Metal>
0.0000

> <Gold.Chemscore.Hbonds>
donor molecule, donor type, donor heavy atom, donor atom, acceptor molecule, acceptor atom, score
      L1  H     8    40       P1  8028  1.92
      P1  H  7989  7998       L1     4  0.95
      L1  C    16    39       P1  7948  0.03

> <Gold.PLP.Chemscore.Internal.Correction>
0.0575

> <Gold.Rescore>
     Score         DG    S(hbond)    S(metal)    S(lipo)     H(rot)  DE(clash)    DE(int)     intcor
     19.55     -20.18       1.80        0.00     107.17       1.50       0.02       0.61       ----

> <Gold.Chemscore.Fitness>
19.5533

> <Gold.Chemscore.DG>
-20.1812

> <Gold.Chemscore.ZeroCoef>
-5.4800

> <Gold.Chemscore.Hbond>
1.7998

> <Gold.Chemscore.Metal>
0.0000

> <Gold.Chemscore.Lipo>
107.1716

> <Gold.Chemscore.Internal_Hbond>
0.0000

> <Gold.Chemscore.DEClash>
0.0186

> <Gold.Chemscore.DEInternal>
0.6092

> <Gold.Chemscore.Rot>
1.5036

> <Gold.Chemscore.Internal.Correction>
   9.000000E+99

> <Gold.Chemscore.Hbonds>
donor molecule, donor type, donor heavy atom, donor atom, acceptor molecule, acceptor atom, score
      L1  H     8    40       P1  8028  0.91
      P1  H  7989  7998       L1     4  0.14

> <Gold.Chemscore.Hbond.Weighted>
-6.0113

> <Gold.Chemscore.Metal.Weighted>
-0.0000

> <Gold.Chemscore.Lipo.Weighted>
-12.5391

> <Gold.Chemscore.Internal_Hbond.Weighted>
0.0000

> <Gold.Chemscore.DEClash.Weighted>
0.0186

> <Gold.Chemscore.DEInternal.Weighted>
0.6092

> <Gold.Chemscore.Rot.Weighted>
3.8492

> <Gold.Chemscore.Internal.Correction.Weighted>
   9.000000E+99

> <Gold.Protein.RotatedTorsions>
[ 6907 6896 6895 6894 ] final  -50.59 input  -60.11 | X-H torsion
[ 7974 7965 7964 7962 ] final   20.77 input  175.53 | X-H torsion
[ 8008 7997 7996 7995 ] final -114.33 input   59.86 | X-H torsion
[ 10167 10162 10161 10158 ] final  -37.40 input  -65.29 | X-H torsion
[ 10718 10713 10712 10709 ] final  105.10 input   66.30 | X-H torsion
[ 10763 10752 10751 10750 ] final   68.31 input  -60.55 | X-H torsion
[ 11005 11000 10999 10996 ] final   82.14 input  -57.11 | X-H torsion

> <Gold.Protein.ActiveResidues>
 VAL166  LYS551  ARG553  GLY616  TRP617  ASP618  TYR619  PRO620  LYS621  CYS622 
 ASP623  PHE694  ASN695  SER759  ASP760  ASP761  ALA762  ILE779  LEU786  VAL792 
 PHE793  MET794  SER795  GLU796  ALA797  LYS798  CYS799  TRP800  GLU811  SER814 

> <Gold.Protein.RotatedAtoms>
  150.8692  134.8062  159.7141 H   0  0  0  0  0  0  0  0  0  0  0  0  # atno 6907 bound_to 6896
  152.4703  134.4974  159.9724 H   0  0  0  0  0  0  0  0  0  0  0  0  # atno 6908 bound_to 6896
  151.5065  133.3455  159.2913 H   0  0  0  0  0  0  0  0  0  0  0  0  # atno 6909 bound_to 6896
  146.2098  139.8123  142.8697 H   0  0  0  0  0  0  0  0  0  0  0  0  # atno 7974 bound_to 7965
  155.0347  140.0392  157.2487 H   0  0  0  0  0  0  0  0  0  0  0  0  # atno 8008 bound_to 7997
  154.7267  140.2722  155.6469 H   0  0  0  0  0  0  0  0  0  0  0  0  # atno 8009 bound_to 7997
  156.2831  140.2692  156.1955 H   0  0  0  0  0  0  0  0  0  0  0  0  # atno 8010 bound_to 7997
  140.7119  143.3344  151.2495 H   0  0  0  0  0  0  0  0  0  0  0  0  # atno 10167 bound_to 10162
  157.6717  131.0819  150.5805 H   0  0  0  0  0  0  0  0  0  0  0  0  # atno 10718 bound_to 10713
  153.0229  135.5252  154.7114 H   0  0  0  0  0  0  0  0  0  0  0  0  # atno 10763 bound_to 10752
  154.6196  135.2887  155.0344 H   0  0  0  0  0  0  0  0  0  0  0  0  # atno 10764 bound_to 10752
  154.1335  135.6589  153.4979 H   0  0  0  0  0  0  0  0  0  0  0  0  # atno 10765 bound_to 10752
  139.9074  134.8049  156.2135 H   0  0  0  0  0  0  0  0  0  0  0  0  # atno 11005 bound_to 11000
  145.3183  141.0237  143.3515 LP  0  0  0  0  0  0  0  0  0  0  0  0  # atno 17320 bound_to 7965
  144.8885  139.4806  143.6689 LP  0  0  0  0  0  0  0  0  0  0  0  0  # atno 17321 bound_to 7965
  139.6836  143.9813  152.2822 LP  0  0  0  0  0  0  0  0  0  0  0  0  # atno 17342 bound_to 10162
  139.9451  144.6657  150.8228 LP  0  0  0  0  0  0  0  0  0  0  0  0  # atno 17343 bound_to 10162
  156.6106  130.4379  149.5860 LP  0  0  0  0  0  0  0  0  0  0  0  0  # atno 17370 bound_to 10713
  156.2433  130.6864  151.1577 LP  0  0  0  0  0  0  0  0  0  0  0  0  # atno 17371 bound_to 10713
  141.0450  133.6918  156.1668 LP  0  0  0  0  0  0  0  0  0  0  0  0  # atno 17394 bound_to 11000
  140.6897  134.4679  157.5589 LP  0  0  0  0  0  0  0  0  0  0  0  0  # atno 17395 bound_to 11000

$$$$
